AV-unprocessed.smi:434|AV-procd|sdf|2554|dock3
  -GOLD-   2262022523D 1   1.00000     0.00000
 Structure written by MMmdl.
 40 42  0  0  0  0  0  0  0  0  2 V2000
  149.6281  140.8496  155.0217 C   0  0  0  0  0  0  0  0  0  0  0  0
  150.4253  141.5059  156.0982 C   0  0  0  0  0  0  0  0  0  0  0  0
  150.4747  142.8429  156.3576 N   0  3  0  0  0  0  0  0  0  0  0  0
  151.3250  143.0832  157.4378 C   0  0  0  0  0  0  0  0  0  0  0  0
  151.6892  144.2719  158.0629 C   0  0  0  0  0  0  0  0  0  0  0  0
  152.5818  144.1678  159.1499 C   0  0  0  0  0  0  0  0  0  0  0  0
  153.0748  142.9181  159.5775 C   0  0  0  0  0  0  0  0  0  0  0  0
  152.6994  141.7199  158.9351 C   0  0  0  0  0  0  0  0  0  0  0  0
  151.8187  141.8309  157.8590 C   0  0  0  0  0  0  0  0  0  0  0  0
  151.2388  140.8877  157.0011 N   0  0  0  0  0  0  0  0  0  0  0  0
  151.5498  139.4584  157.1667 C   0  0  0  0  0  0  0  0  0  0  0  0
  150.7315  138.7944  158.2919 C   0  0  2  0  0  0  0  0  0  0  0  0
  151.3205  139.0979  159.5409 O   0  0  0  0  0  0  0  0  0  0  0  0
  150.6801  137.2663  158.1419 C   0  0  0  0  0  0  0  0  0  0  0  0
  150.1351  136.7106  159.3265 O   0  0  0  0  0  0  0  0  0  0  0  0
  148.7715  137.0465  159.5140 C   0  0  0  0  0  0  0  0  0  0  0  0
  148.3521  136.4149  160.7975 C   0  0  0  0  0  0  0  0  0  0  0  0
  148.2733  135.1192  161.2275 C   0  0  0  0  0  0  0  0  0  0  0  0
  147.7957  135.1696  162.5665 C   0  0  0  0  0  0  0  0  0  0  0  0
  147.6167  136.4931  162.8526 C   0  0  0  0  0  0  0  0  0  0  0  0
  147.9518  137.2664  161.7839 O   0  0  0  0  0  0  0  0  0  0  0  0
  148.9919  141.5775  154.5175 H   0  0  0  0  0  0  0  0  0  0  0  0
  148.9939  140.0696  155.4428 H   0  0  0  0  0  0  0  0  0  0  0  0
  150.2922  140.3988  154.2842 H   0  0  0  0  0  0  0  0  0  0  0  0
  151.3108  145.2302  157.7384 H   0  0  0  0  0  0  0  0  0  0  0  0
  152.8932  145.0639  159.6671 H   0  0  0  0  0  0  0  0  0  0  0  0
  153.7543  142.8770  160.4164 H   0  0  0  0  0  0  0  0  0  0  0  0
  153.0787  140.7682  159.2763 H   0  0  0  0  0  0  0  0  0  0  0  0
  151.3337  138.9719  156.2148 H   0  0  0  0  0  0  0  0  0  0  0  0
  152.6208  139.3364  157.3298 H   0  0  0  0  0  0  0  0  0  0  0  0
  149.7176  139.1962  158.2755 H   0  0  0  0  0  0  0  0  0  0  0  0
  151.7870  138.3330  159.8424 H   0  0  0  0  0  0  0  0  0  0  0  0
  150.0285  136.9978  157.3086 H   0  0  0  0  0  0  0  0  0  0  0  0
  151.6687  136.8573  157.9243 H   0  0  0  0  0  0  0  0  0  0  0  0
  148.6421  138.1286  159.5645 H   0  0  0  0  0  0  0  0  0  0  0  0
  148.1650  136.6705  158.6888 H   0  0  0  0  0  0  0  0  0  0  0  0
  148.5302  134.2437  160.6496 H   0  0  0  0  0  0  0  0  0  0  0  0
  147.6069  134.3429  163.2355 H   0  0  0  0  0  0  0  0  0  0  0  0
  147.2755  137.0328  163.7239 H   0  0  0  0  0  0  0  0  0  0  0  0
  149.9615  143.5393  155.8326 H   0  0  0  0  0  0  0  0  0  0  0  0
  1  2  1  0  0  0  0
  1 22  1  0  0  0  0
  1 23  1  0  0  0  0
  1 24  1  0  0  0  0
  2 10  1  0  0  0  0
  2  3  2  0  0  0  0
  3  4  1  0  0  0  0
  3 40  1  0  0  0  0
  4  9  2  0  0  0  0
  4  5  1  0  0  0  0
  5  6  2  0  0  0  0
  5 25  1  0  0  0  0
  6  7  1  0  0  0  0
  6 26  1  0  0  0  0
  7  8  2  0  0  0  0
  7 27  1  0  0  0  0
  8  9  1  0  0  0  0
  8 28  1  0  0  0  0
  9 10  1  0  0  0  0
 10 11  1  0  0  0  0
 11 12  1  0  0  0  0
 11 29  1  0  0  0  0
 11 30  1  0  0  0  0
 12 13  1  0  0  0  0
 12 14  1  0  0  0  0
 12 31  1  0  0  0  0
 13 32  1  0  0  0  0
 14 15  1  0  0  0  0
 14 33  1  0  0  0  0
 14 34  1  0  0  0  0
 15 16  1  0  0  0  0
 16 17  1  0  0  0  0
 16 35  1  0  0  0  0
 16 36  1  0  0  0  0
 17 21  1  0  0  0  0
 17 18  2  0  0  0  0
 18 19  1  0  0  0  0
 18 37  1  0  0  0  0
 19 20  2  0  0  0  0
 19 38  1  0  0  0  0
 20 21  1  0  0  0  0
 20 39  1  0  0  0  0
M  CHG  1   3   1
M  END
> <s_m_source_file>
AV-unprocessed.smi

> <i_m_source_file_index>
434

> <i_lp_mmshare_version>
43012

> <i_f3d_flags>
0

> <s_epik_input>
W2NIXTFbY0hdW2NIXVtjSF1jKGMxMiluKGMobjIpW0NIM10pW0NIMl1bQ0BIXShbT0hdKVtDSDJdT1tDSDJdYzNbY0hdW2NIXVtjSF1vMw==

> <s_epik_cmdline>
J2VwaWtfcHl0aG9uJywgJy1waCcsICc3LjAnLCAnLXRuJywgJzgnLCAnLW1hJywgJzIwMCcsICctbWV0YWxfYmluZGluZycsICctaW1hZScsICc8aW5maWxlLm1hZT4nLCAnLW9tYWUnLCAnPG91dGZpbGUubWFlPic=

> <r_epik_Ionization_Penalty>
0.976413

> <r_epik_Ionization_Penalty_Charging>
0.976412

> <r_epik_Ionization_Penalty_Neutral>
9.34185e-07

> <r_epik_State_Penalty>
1.02286

> <r_epik_Charging_Adjusted_Penalty>
1.99927

> <i_epik_Tot_Q>
1

> <i_epik_Tot_abs_Q>
1

> <r_epik_Metal_State_Penalty>
4.99966

> <b_epik_Metal_Only>
0

> <s_lp_Force_Field>
OPLS_2005

> <r_lp_Energy>
12.4411

> <b_lp_Chiralities_Consistent>
1

> <s_lp_Variant>
AV-unprocessed.smi:434-3

> <Gold.Version>
5.8.1

> <Gold.Id.Protein>
6NUR|6NUR_protein|mol2

> <Gold.PLP.Fitness>
61.1382

> <Gold.PLP.PLP>
-47.7160

> <Gold.PLP.part.hbond>
-5.0000

> <Gold.PLP.part.metal>
0.0000

> <Gold.PLP.part.buried>
-3.6981

> <Gold.PLP.part.nonpolar>
-39.7173

> <Gold.PLP.part.repulsive>
0.0850

> <Gold.PLP.ligand.clash>
0.0000

> <Gold.PLP.ligand.torsion>
0.5604

> <Gold.PLP.Chemscore.Hbond>
4.8000

> <Gold.PLP.Chemscore.CHOScore>
0.0000

> <Gold.PLP.Chemscore.Metal>
0.0000

> <Gold.Chemscore.Hbonds>
donor molecule, donor type, donor heavy atom, donor atom, acceptor molecule, acceptor atom, score
      L1  H     3    40       P1  8028  2.00
      P1  H  6896  6909       L1    15  1.00
      P1  H  6931  6943       L1    21  0.83
      P1  H  6934  6947       L1    21  0.50

> <Gold.PLP.Chemscore.Internal.Correction>
0.1429

> <Gold.Rescore>
     Score         DG    S(hbond)    S(metal)    S(lipo)     H(rot)  DE(clash)    DE(int)     intcor
     22.88     -24.24       3.37        0.00     117.80       2.45       0.73       0.63       ----

> <Gold.Chemscore.Fitness>
22.8844

> <Gold.Chemscore.DG>
-24.2413

> <Gold.Chemscore.ZeroCoef>
-5.4800

> <Gold.Chemscore.Hbond>
3.3717

> <Gold.Chemscore.Metal>
0.0000

> <Gold.Chemscore.Lipo>
117.8017

> <Gold.Chemscore.Internal_Hbond>
0.0000

> <Gold.Chemscore.DEClash>
0.7300

> <Gold.Chemscore.DEInternal>
0.6269

> <Gold.Chemscore.Rot>
2.4543

> <Gold.Chemscore.Internal.Correction>
   9.000000E+99

> <Gold.Chemscore.Hbonds>
donor molecule, donor type, donor heavy atom, donor atom, acceptor molecule, acceptor atom, score
      L1  H     3    40       P1  8028  0.97
      P1  H  6896  6909       L1    15  0.80
      P1  H  6931  6943       L1    21  0.43
      P1  H  6934  6947       L1    21  0.36

> <Gold.Chemscore.Hbond.Weighted>
-11.2614

> <Gold.Chemscore.Metal.Weighted>
-0.0000

> <Gold.Chemscore.Lipo.Weighted>
-13.7828

> <Gold.Chemscore.Internal_Hbond.Weighted>
0.0000

> <Gold.Chemscore.DEClash.Weighted>
0.7300

> <Gold.Chemscore.DEInternal.Weighted>
0.6269

> <Gold.Chemscore.Rot.Weighted>
6.2829

> <Gold.Chemscore.Internal.Correction.Weighted>
   9.000000E+99

> <Gold.Protein.RotatedTorsions>
[ 6907 6896 6895 6894 ] final   78.37 input  -60.11 | X-H torsion
[ 7974 7965 7964 7962 ] final  -19.66 input  175.53 | X-H torsion
[ 8008 7997 7996 7995 ] final -171.98 input   59.86 | X-H torsion
[ 10167 10162 10161 10158 ] final -147.61 input  -65.29 | X-H torsion
[ 10718 10713 10712 10709 ] final -136.40 input   66.30 | X-H torsion
[ 10763 10752 10751 10750 ] final   35.03 input  -60.55 | X-H torsion
[ 11005 11000 10999 10996 ] final    3.05 input  -57.11 | X-H torsion

> <Gold.Protein.ActiveResidues>
 VAL166  LYS551  ARG553  GLY616  TRP617  ASP618  TYR619  PRO620  LYS621  CYS622 
 ASP623  PHE694  ASN695  SER759  ASP760  ASP761  ALA762  ILE779  LEU786  VAL792 
 PHE793  MET794  SER795  GLU796  ALA797  LYS798  CYS799  TRP800  GLU811  SER814 

> <Gold.Protein.RotatedAtoms>
  152.5156  134.3675  159.9306 H   0  0  0  0  0  0  0  0  0  0  0  0  # atno 6907 bound_to 6896
  151.3628  133.3877  159.2699 H   0  0  0  0  0  0  0  0  0  0  0  0  # atno 6908 bound_to 6896
  150.9638  134.9041  159.7805 H   0  0  0  0  0  0  0  0  0  0  0  0  # atno 6909 bound_to 6896
  146.1829  140.4094  142.8487 H   0  0  0  0  0  0  0  0  0  0  0  0  # atno 7974 bound_to 7965
  155.9386  140.1104  157.1074 H   0  0  0  0  0  0  0  0  0  0  0  0  # atno 8008 bound_to 7997
  154.4085  140.1223  156.4963 H   0  0  0  0  0  0  0  0  0  0  0  0  # atno 8009 bound_to 7997
  155.6990  140.3472  155.4927 H   0  0  0  0  0  0  0  0  0  0  0  0  # atno 8010 bound_to 7997
  139.7606  143.8382  152.2606 H   0  0  0  0  0  0  0  0  0  0  0  0  # atno 10167 bound_to 10162
  156.2766  130.7296  151.1281 H   0  0  0  0  0  0  0  0  0  0  0  0  # atno 10718 bound_to 10713
  153.0137  135.6344  154.1763 H   0  0  0  0  0  0  0  0  0  0  0  0  # atno 10763 bound_to 10752
  154.1503  135.2829  155.3138 H   0  0  0  0  0  0  0  0  0  0  0  0  # atno 10764 bound_to 10752
  154.6058  135.5572  153.7482 H   0  0  0  0  0  0  0  0  0  0  0  0  # atno 10765 bound_to 10752
  140.5975  133.9867  155.8116 H   0  0  0  0  0  0  0  0  0  0  0  0  # atno 11005 bound_to 11000
  144.8346  140.6762  143.6268 LP  0  0  0  0  0  0  0  0  0  0  0  0  # atno 17320 bound_to 7965
  145.4023  139.1595  143.4171 LP  0  0  0  0  0  0  0  0  0  0  0  0  # atno 17321 bound_to 7965
  139.8387  144.7220  150.9358 LP  0  0  0  0  0  0  0  0  0  0  0  0  # atno 17342 bound_to 10162
  140.7807  143.4003  151.1161 LP  0  0  0  0  0  0  0  0  0  0  0  0  # atno 17343 bound_to 10162
  157.7301  131.0619  150.5741 LP  0  0  0  0  0  0  0  0  0  0  0  0  # atno 17370 bound_to 10713
  156.5843  130.4312  149.5964 LP  0  0  0  0  0  0  0  0  0  0  0  0  # atno 17371 bound_to 10713
  141.0894  133.9939  157.3261 LP  0  0  0  0  0  0  0  0  0  0  0  0  # atno 17394 bound_to 11000
  139.9247  135.0201  156.8191 LP  0  0  0  0  0  0  0  0  0  0  0  0  # atno 17395 bound_to 11000

$$$$
