AV-unprocessed.smi:34|AV-procd|sdf|243|dock10
  -GOLD-   2262015593D 1   1.00000     0.00000
 Structure written by MMmdl.
 54 58  0  0  0  0  0  0  0  0  2 V2000
  152.4093  139.2157  159.0594 O   0  0  0  0  0  0  0  0  0  0  0  0
  152.2930  140.1731  158.2912 C   0  0  0  0  0  0  0  0  0  0  0  0
  152.1724  140.1478  156.9397 N   0  5  0  0  0  0  0  0  0  0  0  0
  151.0893  139.5933  156.3743 C   0  0  0  0  0  0  0  0  0  0  0  0
  150.8661  139.7257  155.0419 N   0  0  0  0  0  0  0  0  0  0  0  0
  149.7899  139.1648  154.4785 C   0  0  0  0  0  0  0  0  0  0  0  0
  148.8275  138.4344  155.0492 N   0  0  0  0  0  0  0  0  0  0  0  0
  149.0425  138.2880  156.3888 C   0  0  0  0  0  0  0  0  0  0  0  0
  150.1444  138.8303  157.1133 C   0  0  0  0  0  0  0  0  0  0  0  0
  150.0686  138.4890  158.4555 N   0  0  0  0  0  0  0  0  0  0  0  0
  148.9477  137.7730  158.4868 C   0  0  0  0  0  0  0  0  0  0  0  0
  148.2810  137.6079  157.3270 N   0  0  0  0  0  0  0  0  0  0  0  0
  147.0051  136.8525  157.1213 C   0  0  2  0  0  0  0  0  0  0  0  0
  146.8982  136.5158  155.7707 O   0  0  0  0  0  0  0  0  0  0  0  0
  145.5458  136.6576  155.3432 C   0  0  1  0  0  0  0  0  0  0  0  0
  144.7772  135.3583  155.6361 C   0  0  0  0  0  0  0  0  0  0  0  0
  144.9426  134.4664  154.5460 O   0  0  0  0  0  0  0  0  0  0  0  0
  143.9887  134.3702  153.5993 C   0  0  0  0  0  0  0  0  0  0  0  0
  142.9228  134.9883  153.6386 O   0  0  0  0  0  0  0  0  0  0  0  0
  144.3568  133.4330  152.4990 C   0  0  0  0  0  0  0  0  0  0  0  0
  145.7222  133.1673  152.2422 C   0  0  0  0  0  0  0  0  0  0  0  0
  146.0999  132.2866  151.2099 C   0  0  0  0  0  0  0  0  0  0  0  0
  145.1165  131.6595  150.4230 C   0  0  0  0  0  0  0  0  0  0  0  0
  143.7548  131.9151  150.6686 C   0  0  0  0  0  0  0  0  0  0  0  0
  143.3753  132.7966  151.6995 C   0  0  0  0  0  0  0  0  0  0  0  0
  145.0455  137.8483  156.1627 C   0  0  2  0  0  0  0  0  0  0  0  0
  145.4447  138.9659  155.5525 F   0  0  0  0  0  0  0  0  0  0  0  0
  145.7487  137.6629  157.5011 C   0  0  2  0  0  0  0  0  0  0  0  0
  145.9781  138.8905  158.1700 O   0  0  0  0  0  0  0  0  0  0  0  0
  152.2060  141.5600  158.8692 C   0  0  0  0  0  0  0  0  0  0  0  0
  151.6037  142.5955  158.1186 C   0  0  0  0  0  0  0  0  0  0  0  0
  151.4900  143.8942  158.6522 C   0  0  0  0  0  0  0  0  0  0  0  0
  151.9690  144.1691  159.9468 C   0  0  0  0  0  0  0  0  0  0  0  0
  152.5573  143.1428  160.7094 C   0  0  0  0  0  0  0  0  0  0  0  0
  152.6720  141.8441  160.1763 C   0  0  0  0  0  0  0  0  0  0  0  0
  149.6859  139.3230  153.4154 H   0  0  0  0  0  0  0  0  0  0  0  0
  148.5870  137.3455  159.4108 H   0  0  0  0  0  0  0  0  0  0  0  0
  147.1211  135.9516  157.7254 H   0  0  0  0  0  0  0  0  0  0  0  0
  145.5031  136.8757  154.2752 H   0  0  0  0  0  0  0  0  0  0  0  0
  145.1234  134.9052  156.5661 H   0  0  0  0  0  0  0  0  0  0  0  0
  143.7136  135.5704  155.7518 H   0  0  0  0  0  0  0  0  0  0  0  0
  146.4951  133.6372  152.8333 H   0  0  0  0  0  0  0  0  0  0  0  0
  147.1456  132.0924  151.0225 H   0  0  0  0  0  0  0  0  0  0  0  0
  145.4060  130.9835  149.6321 H   0  0  0  0  0  0  0  0  0  0  0  0
  142.9988  131.4338  150.0657 H   0  0  0  0  0  0  0  0  0  0  0  0
  142.3215  132.9700  151.8616 H   0  0  0  0  0  0  0  0  0  0  0  0
  143.9596  137.8973  156.2468 H   0  0  0  0  0  0  0  0  0  0  0  0
  145.1375  137.0287  158.1444 H   0  0  0  0  0  0  0  0  0  0  0  0
  146.6126  138.7478  158.8554 H   0  0  0  0  0  0  0  0  0  0  0  0
  151.2292  142.4003  157.1240 H   0  0  0  0  0  0  0  0  0  0  0  0
  151.0335  144.6790  158.0675 H   0  0  0  0  0  0  0  0  0  0  0  0
  151.8812  145.1645  160.3559 H   0  0  0  0  0  0  0  0  0  0  0  0
  152.9188  143.3499  161.7059 H   0  0  0  0  0  0  0  0  0  0  0  0
  153.1173  141.0682  160.7823 H   0  0  0  0  0  0  0  0  0  0  0  0
  1  2  2  0  0  0  0
  2  3  1  0  0  0  0
  2 30  1  0  0  0  0
  3  4  1  0  0  0  0
  4  9  1  0  0  0  0
  4  5  2  0  0  0  0
  5  6  1  0  0  0  0
  6  7  2  0  0  0  0
  6 36  1  0  0  0  0
  7  8  1  0  0  0  0
  8 12  1  0  0  0  0
  8  9  2  0  0  0  0
  9 10  1  0  0  0  0
 10 11  2  0  0  0  0
 11 12  1  0  0  0  0
 11 37  1  0  0  0  0
 12 13  1  0  0  0  0
 13 28  1  0  0  0  0
 13 14  1  0  0  0  0
 13 38  1  0  0  0  0
 14 15  1  0  0  0  0
 15 16  1  0  0  0  0
 15 26  1  0  0  0  0
 15 39  1  0  0  0  0
 16 17  1  0  0  0  0
 16 40  1  0  0  0  0
 16 41  1  0  0  0  0
 17 18  1  0  0  0  0
 18 19  2  0  0  0  0
 18 20  1  0  0  0  0
 20 25  1  0  0  0  0
 20 21  2  0  0  0  0
 21 22  1  0  0  0  0
 21 42  1  0  0  0  0
 22 23  2  0  0  0  0
 22 43  1  0  0  0  0
 23 24  1  0  0  0  0
 23 44  1  0  0  0  0
 24 25  2  0  0  0  0
 24 45  1  0  0  0  0
 25 46  1  0  0  0  0
 26 27  1  0  0  0  0
 26 28  1  0  0  0  0
 26 47  1  0  0  0  0
 28 29  1  0  0  0  0
 28 48  1  0  0  0  0
 29 49  1  0  0  0  0
 30 35  1  0  0  0  0
 30 31  2  0  0  0  0
 31 32  1  0  0  0  0
 31 50  1  0  0  0  0
 32 33  2  0  0  0  0
 32 51  1  0  0  0  0
 33 34  1  0  0  0  0
 33 52  1  0  0  0  0
 34 35  2  0  0  0  0
 34 53  1  0  0  0  0
 35 54  1  0  0  0  0
M  CHG  1   3  -1
M  END
> <s_m_source_file>
AV-unprocessed.smi

> <i_m_source_file_index>
34

> <i_lp_mmshare_version>
43012

> <i_f3d_flags>
0

> <s_epik_input>
W2NIXTFbY0hdW2NIXVtjSF1bY0hdYzFDKD1PKVtOSF1jKG5bY0hdbjIpYyhjMjMpbltjSF1uM1tDQEBIXTRPW0NASF0oW0NAQEhdKEYpW0NASF00W09IXSlbQ0gyXU9DKD1PKWM1W2NIXVtjSF1bY0hdW2NIXVtjSF01

> <s_epik_cmdline>
J2VwaWtfcHl0aG9uJywgJy1waCcsICc3LjAnLCAnLXRuJywgJzgnLCAnLW1hJywgJzIwMCcsICctbWV0YWxfYmluZGluZycsICctaW1hZScsICc8aW5maWxlLm1hZT4nLCAnLW9tYWUnLCAnPG91dGZpbGUubWFlPic=

> <r_lp_tautomer_probability>
1

> <r_epik_Ionization_Penalty>
4.33227

> <r_epik_Ionization_Penalty_Charging>
3.41027

> <r_epik_Ionization_Penalty_Neutral>
0.922001

> <r_epik_State_Penalty>
3.41358

> <r_epik_Charging_Adjusted_Penalty>
6.82385

> <i_epik_Tot_Q>
-1

> <i_epik_Tot_abs_Q>
1

> <r_epik_Metal_State_Penalty>
0.496292

> <b_epik_Metal_Only>
1

> <s_epik_Chemistry_Notes>
This compound has an ester and may undergo hydrolysis at high or low pH. This compound contains an acetal/aminal-like group ( X-CH(R)-Y where X, Y are N, S, or O) that may be acid/base labile, releasing an aldehyde.

> <s_lp_Force_Field>
OPLS_2005

> <r_lp_Energy>
51.1701

> <b_lp_Chiralities_Consistent>
1

> <s_lp_Variant>
AV-unprocessed.smi:34-29

> <Gold.Version>
5.8.1

> <Gold.Id.Protein>
6NUR|6NUR_protein|mol2

> <Gold.PLP.Fitness>
55.2832

> <Gold.PLP.PLP>
-48.1255

> <Gold.PLP.part.hbond>
-2.0000

> <Gold.PLP.part.metal>
0.0000

> <Gold.PLP.part.buried>
-8.0993

> <Gold.PLP.part.nonpolar>
-38.9325

> <Gold.PLP.part.repulsive>
0.4010

> <Gold.PLP.ligand.clash>
0.0000

> <Gold.PLP.ligand.torsion>
2.2151

> <Gold.PLP.Chemscore.Hbond>
2.8000

> <Gold.PLP.Chemscore.CHOScore>
1.0000

> <Gold.PLP.Chemscore.Metal>
0.0000

> <Gold.Chemscore.Hbonds>
donor molecule, donor type, donor heavy atom, donor atom, acceptor molecule, acceptor atom, score
      P1  H  7989  7998       L1     5  0.91
      P1  H  7997  8008       L1     3  0.91
      L1  C     6    36       P1  7957  1.00

> <Gold.PLP.Chemscore.Internal.Correction>
0.1879

> <Gold.Rescore>
     Score         DG    S(hbond)    S(metal)    S(lipo)     H(rot)  DE(clash)    DE(int)     intcor
      7.55     -14.92       0.84        0.00     115.54       2.69       0.08       7.30       ----

> <Gold.Chemscore.Fitness>
7.5497

> <Gold.Chemscore.DG>
-14.9222

> <Gold.Chemscore.ZeroCoef>
-5.4800

> <Gold.Chemscore.Hbond>
0.8447

> <Gold.Chemscore.Metal>
0.0000

> <Gold.Chemscore.Lipo>
115.5427

> <Gold.Chemscore.Internal_Hbond>
0.0000

> <Gold.Chemscore.DEClash>
0.0754

> <Gold.Chemscore.DEInternal>
7.2972

> <Gold.Chemscore.Rot>
2.6944

> <Gold.Chemscore.Internal.Correction>
   9.000000E+99

> <Gold.Chemscore.Hbonds>
donor molecule, donor type, donor heavy atom, donor atom, acceptor molecule, acceptor atom, score
      P1  H  7989  7998       L1     5  0.35
      P1  H  7997  8008       L1     3  0.08

> <Gold.Chemscore.Hbond.Weighted>
-2.8213

> <Gold.Chemscore.Metal.Weighted>
-0.0000

> <Gold.Chemscore.Lipo.Weighted>
-13.5185

> <Gold.Chemscore.Internal_Hbond.Weighted>
0.0000

> <Gold.Chemscore.DEClash.Weighted>
0.0754

> <Gold.Chemscore.DEInternal.Weighted>
7.2972

> <Gold.Chemscore.Rot.Weighted>
6.8975

> <Gold.Chemscore.Internal.Correction.Weighted>
   9.000000E+99

> <Gold.Protein.RotatedTorsions>
[ 6907 6896 6895 6894 ] final   94.73 input  -60.11 | X-H torsion
[ 7974 7965 7964 7962 ] final  -71.49 input  175.53 | X-H torsion
[ 8008 7997 7996 7995 ] final  -49.56 input   59.86 | X-H torsion
[ 10167 10162 10161 10158 ] final  162.58 input  -65.29 | X-H torsion
[ 10718 10713 10712 10709 ] final   31.72 input   66.30 | X-H torsion
[ 10763 10752 10751 10750 ] final -133.38 input  -60.55 | X-H torsion
[ 11005 11000 10999 10996 ] final  -70.73 input  -57.11 | X-H torsion

> <Gold.Protein.ActiveResidues>
 VAL166  LYS551  ARG553  GLY616  TRP617  ASP618  TYR619  PRO620  LYS621  CYS622 
 ASP623  PHE694  ASN695  SER759  ASP760  ASP761  ALA762  ILE779  LEU786  VAL792 
 PHE793  MET794  SER795  GLU796  ALA797  LYS798  CYS799  TRP800  GLU811  SER814 

> <Gold.Protein.RotatedAtoms>
  152.5448  134.1149  159.8373 H   0  0  0  0  0  0  0  0  0  0  0  0  # atno 6907 bound_to 6896
  151.1211  133.5096  159.2609 H   0  0  0  0  0  0  0  0  0  0  0  0  # atno 6908 bound_to 6896
  151.1778  135.0357  159.8834 H   0  0  0  0  0  0  0  0  0  0  0  0  # atno 6909 bound_to 6896
  145.6774  140.9200  143.0850 H   0  0  0  0  0  0  0  0  0  0  0  0  # atno 7974 bound_to 7965
  154.4046  140.1294  156.4522 H   0  0  0  0  0  0  0  0  0  0  0  0  # atno 8008 bound_to 7997
  155.7355  140.3490  155.5059 H   0  0  0  0  0  0  0  0  0  0  0  0  # atno 8009 bound_to 7997
  155.9088  140.1032  157.1285 H   0  0  0  0  0  0  0  0  0  0  0  0  # atno 8010 bound_to 7997
  139.4862  144.4423  151.8936 H   0  0  0  0  0  0  0  0  0  0  0  0  # atno 10167 bound_to 10162
  157.2761  130.7232  149.6531 H   0  0  0  0  0  0  0  0  0  0  0  0  # atno 10718 bound_to 10713
  154.8733  135.3768  154.4563 H   0  0  0  0  0  0  0  0  0  0  0  0  # atno 10763 bound_to 10752
  153.5235  135.7028  153.5724 H   0  0  0  0  0  0  0  0  0  0  0  0  # atno 10764 bound_to 10752
  153.3961  135.3960  155.1921 H   0  0  0  0  0  0  0  0  0  0  0  0  # atno 10765 bound_to 10752
  141.1579  133.6798  156.6798 H   0  0  0  0  0  0  0  0  0  0  0  0  # atno 11005 bound_to 11000
  144.7037  139.8651  143.7436 LP  0  0  0  0  0  0  0  0  0  0  0  0  # atno 17320 bound_to 7965
  146.0994  139.3988  143.0356 LP  0  0  0  0  0  0  0  0  0  0  0  0  # atno 17321 bound_to 7965
  140.3875  144.2657  150.5902 LP  0  0  0  0  0  0  0  0  0  0  0  0  # atno 17342 bound_to 10162
  140.5176  143.2274  151.8438 LP  0  0  0  0  0  0  0  0  0  0  0  0  # atno 17343 bound_to 10162
  155.9664  130.4352  150.5083 LP  0  0  0  0  0  0  0  0  0  0  0  0  # atno 17370 bound_to 10713
  157.3017  131.0646  151.2063 LP  0  0  0  0  0  0  0  0  0  0  0  0  # atno 17371 bound_to 10713
  140.3111  134.8085  157.4177 LP  0  0  0  0  0  0  0  0  0  0  0  0  # atno 17394 bound_to 11000
  140.1178  134.5260  155.8210 LP  0  0  0  0  0  0  0  0  0  0  0  0  # atno 17395 bound_to 11000

$$$$
