AV-unprocessed.smi:440|AV-procd|sdf|2581|dock6
  -GOLD-   2262022573D 1   1.00000     0.00000
 Structure written by MMmdl.
 41 42  0  0  0  0  0  0  0  0  1 V2000
  153.2998  137.8313  156.6692 C   0  0  0  0  0  0  0  0  0  0  0  0
  152.2968  138.8898  156.3085 C   0  0  0  0  0  0  0  0  0  0  0  0
  152.2562  140.0092  157.0099 N   0  0  0  0  0  0  0  0  0  0  0  0
  151.2688  140.7366  156.4477 N   0  0  0  0  0  0  0  0  0  0  0  0
  150.9550  142.0474  156.9966 C   0  0  0  0  0  0  0  0  0  0  0  0
  151.8440  142.4351  158.1983 C   0  0  0  0  0  0  0  0  0  0  0  0
  151.5184  141.5596  159.4172 C   0  0  0  0  0  0  0  0  0  0  0  0
  151.7532  143.9286  158.5576 C   0  0  0  0  0  0  0  0  0  0  0  0
  150.6918  140.0754  155.3784 C   0  0  0  0  0  0  0  0  0  0  0  0
  149.5803  140.6657  154.5707 C   0  0  0  0  0  0  0  0  0  0  0  0
  151.3315  138.8703  155.2594 C   0  0  0  0  0  0  0  0  0  0  0  0
  151.0883  137.7705  154.2568 C   0  0  0  0  0  0  0  0  0  0  0  0
  150.6433  136.5005  154.9823 C   0  0  0  0  0  0  0  0  0  0  0  0
  151.2341  136.1333  155.9978 O   0  0  0  0  0  0  0  0  0  0  0  0
  149.5993  135.8472  154.4509 N   0  0  0  0  0  0  0  0  0  0  0  0
  149.0031  134.6636  154.9784 C   0  0  0  0  0  0  0  0  0  0  0  0
  149.9001  133.4674  155.2120 C   0  0  0  0  0  0  0  0  0  0  0  0
  148.9243  133.4575  154.0676 C   0  0  0  0  0  0  0  0  0  0  0  0
  152.8163  136.8623  156.7947 H   0  0  0  0  0  0  0  0  0  0  0  0
  153.8166  138.0642  157.6012 H   0  0  0  0  0  0  0  0  0  0  0  0
  154.0544  137.7284  155.8895 H   0  0  0  0  0  0  0  0  0  0  0  0
  151.0550  142.7913  156.2043 H   0  0  0  0  0  0  0  0  0  0  0  0
  149.9039  142.0551  157.2864 H   0  0  0  0  0  0  0  0  0  0  0  0
  152.8801  142.2321  157.9266 H   0  0  0  0  0  0  0  0  0  0  0  0
  150.4913  141.7112  159.7505 H   0  0  0  0  0  0  0  0  0  0  0  0
  152.1776  141.7889  160.2549 H   0  0  0  0  0  0  0  0  0  0  0  0
  151.6403  140.5012  159.1847 H   0  0  0  0  0  0  0  0  0  0  0  0
  150.7281  144.2162  158.7931 H   0  0  0  0  0  0  0  0  0  0  0  0
  152.0981  144.5613  157.7397 H   0  0  0  0  0  0  0  0  0  0  0  0
  152.3713  144.1612  159.4252 H   0  0  0  0  0  0  0  0  0  0  0  0
  149.3720  140.0630  153.6868 H   0  0  0  0  0  0  0  0  0  0  0  0
  149.8336  141.6697  154.2303 H   0  0  0  0  0  0  0  0  0  0  0  0
  148.6634  140.7249  155.1564 H   0  0  0  0  0  0  0  0  0  0  0  0
  150.3257  138.0526  153.5300 H   0  0  0  0  0  0  0  0  0  0  0  0
  151.9865  137.5545  153.6774 H   0  0  0  0  0  0  0  0  0  0  0  0
  149.1810  136.2308  153.6160 H   0  0  0  0  0  0  0  0  0  0  0  0
  148.1774  134.7877  155.6779 H   0  0  0  0  0  0  0  0  0  0  0  0
  150.9567  133.5682  154.9707 H   0  0  0  0  0  0  0  0  0  0  0  0
  149.6767  132.8331  156.0674 H   0  0  0  0  0  0  0  0  0  0  0  0
  148.0492  132.8172  154.1587 H   0  0  0  0  0  0  0  0  0  0  0  0
  149.3303  133.5510  153.0617 H   0  0  0  0  0  0  0  0  0  0  0  0
  1  2  1  0  0  0  0
  1 19  1  0  0  0  0
  1 20  1  0  0  0  0
  1 21  1  0  0  0  0
  2 11  1  0  0  0  0
  2  3  2  0  0  0  0
  3  4  1  0  0  0  0
  4  5  1  0  0  0  0
  4  9  1  0  0  0  0
  5  6  1  0  0  0  0
  5 22  1  0  0  0  0
  5 23  1  0  0  0  0
  6  7  1  0  0  0  0
  6  8  1  0  0  0  0
  6 24  1  0  0  0  0
  7 25  1  0  0  0  0
  7 26  1  0  0  0  0
  7 27  1  0  0  0  0
  8 28  1  0  0  0  0
  8 29  1  0  0  0  0
  8 30  1  0  0  0  0
  9 10  1  0  0  0  0
  9 11  2  0  0  0  0
 10 31  1  0  0  0  0
 10 32  1  0  0  0  0
 10 33  1  0  0  0  0
 11 12  1  0  0  0  0
 12 13  1  0  0  0  0
 12 34  1  0  0  0  0
 12 35  1  0  0  0  0
 13 14  2  0  0  0  0
 13 15  1  0  0  0  0
 15 16  1  0  0  0  0
 15 36  1  0  0  0  0
 16 18  1  0  0  0  0
 16 17  1  0  0  0  0
 16 37  1  0  0  0  0
 17 18  1  0  0  0  0
 17 38  1  0  0  0  0
 17 39  1  0  0  0  0
 18 40  1  0  0  0  0
 18 41  1  0  0  0  0
M  END
> <s_m_source_file>
AV-unprocessed.smi

> <i_m_source_file_index>
440

> <i_lp_mmshare_version>
43012

> <i_f3d_flags>
0

> <s_epik_input>
W0NIM11jMW5uKFtDSDJdW0NIXShbQ0gzXSlbQ0gzXSljKFtDSDNdKWMxW0NIMl1DKD1PKVtOSF1bQ0hdMltDSDJdW0NIMl0y

> <s_epik_cmdline>
J2VwaWtfcHl0aG9uJywgJy1waCcsICc3LjAnLCAnLXRuJywgJzgnLCAnLW1hJywgJzIwMCcsICctbWV0YWxfYmluZGluZycsICctaW1hZScsICc8aW5maWxlLm1hZT4nLCAnLW9tYWUnLCAnPG91dGZpbGUubWFlPic=

> <r_lp_tautomer_probability>
1

> <r_epik_Ionization_Penalty>
0.00313774

> <r_epik_Ionization_Penalty_Charging>
0

> <r_epik_Ionization_Penalty_Neutral>
0.00313774

> <r_epik_State_Penalty>
0.00220979

> <r_epik_Charging_Adjusted_Penalty>
0.00220979

> <i_epik_Tot_Q>
0

> <i_epik_Tot_abs_Q>
0

> <r_epik_Metal_State_Penalty>
-0

> <b_epik_Metal_Only>
0

> <s_lp_Force_Field>
OPLS_2005

> <r_lp_Energy>
13.2521

> <b_lp_Chiralities_Consistent>
1

> <s_lp_Variant>
AV-unprocessed.smi:440-1

> <Gold.Version>
5.8.1

> <Gold.Id.Protein>
6NUR|6NUR_protein|mol2

> <Gold.PLP.Fitness>
43.5935

> <Gold.PLP.PLP>
-37.3084

> <Gold.PLP.part.hbond>
-3.2096

> <Gold.PLP.part.metal>
0.0000

> <Gold.PLP.part.buried>
0.2696

> <Gold.PLP.part.nonpolar>
-34.1432

> <Gold.PLP.part.repulsive>
0.0901

> <Gold.PLP.ligand.clash>
0.0000

> <Gold.PLP.ligand.torsion>
0.2757

> <Gold.PLP.Chemscore.Hbond>
2.2574

> <Gold.PLP.Chemscore.CHOScore>
0.0000

> <Gold.PLP.Chemscore.Metal>
0.0000

> <Gold.Chemscore.Hbonds>
donor molecule, donor type, donor heavy atom, donor atom, acceptor molecule, acceptor atom, score
      L1  H    15    36       P1  7948  0.99
      P1  H  7997  8008       L1     3  0.14
      P1  H 10752 10764       L1    14  0.41

> <Gold.PLP.Chemscore.Internal.Correction>
0.0644

> <Gold.Rescore>
     Score         DG    S(hbond)    S(metal)    S(lipo)     H(rot)  DE(clash)    DE(int)     intcor
     14.16     -18.07       1.54        0.00      97.39       1.53       0.09       3.82       ----

> <Gold.Chemscore.Fitness>
14.1631

> <Gold.Chemscore.DG>
-18.0747

> <Gold.Chemscore.ZeroCoef>
-5.4800

> <Gold.Chemscore.Hbond>
1.5353

> <Gold.Chemscore.Metal>
0.0000

> <Gold.Chemscore.Lipo>
97.3869

> <Gold.Chemscore.Internal_Hbond>
0.0000

> <Gold.Chemscore.DEClash>
0.0920

> <Gold.Chemscore.DEInternal>
3.8196

> <Gold.Chemscore.Rot>
1.5342

> <Gold.Chemscore.Internal.Correction>
   9.000000E+99

> <Gold.Chemscore.Hbonds>
donor molecule, donor type, donor heavy atom, donor atom, acceptor molecule, acceptor atom, score
      L1  H    15    36       P1  7948  0.88
      P1  H 10752 10764       L1    14  0.04

> <Gold.Chemscore.Hbond.Weighted>
-5.1280

> <Gold.Chemscore.Metal.Weighted>
-0.0000

> <Gold.Chemscore.Lipo.Weighted>
-11.3943

> <Gold.Chemscore.Internal_Hbond.Weighted>
0.0000

> <Gold.Chemscore.DEClash.Weighted>
0.0920

> <Gold.Chemscore.DEInternal.Weighted>
3.8196

> <Gold.Chemscore.Rot.Weighted>
3.9276

> <Gold.Chemscore.Internal.Correction.Weighted>
   9.000000E+99

> <Gold.Protein.RotatedTorsions>
[ 6907 6896 6895 6894 ] final  -69.61 input  -60.11 | X-H torsion
[ 7974 7965 7964 7962 ] final   49.28 input  175.53 | X-H torsion
[ 8008 7997 7996 7995 ] final  -56.18 input   59.86 | X-H torsion
[ 10167 10162 10161 10158 ] final -166.40 input  -65.29 | X-H torsion
[ 10718 10713 10712 10709 ] final  -85.40 input   66.30 | X-H torsion
[ 10763 10752 10751 10750 ] final  -40.04 input  -60.55 | X-H torsion
[ 11005 11000 10999 10996 ] final   71.38 input  -57.11 | X-H torsion

> <Gold.Protein.ActiveResidues>
 VAL166  LYS551  ARG553  GLY616  TRP617  ASP618  TYR619  PRO620  LYS621  CYS622 
 ASP623  PHE694  ASN695  SER759  ASP760  ASP761  ALA762  ILE779  LEU786  VAL792 
 PHE793  MET794  SER795  GLU796  ALA797  LYS798  CYS799  TRP800  GLU811  SER814 

> <Gold.Protein.RotatedAtoms>
  150.7297  134.5572  159.5823 H   0  0  0  0  0  0  0  0  0  0  0  0  # atno 6907 bound_to 6896
  152.3044  134.7569  160.0359 H   0  0  0  0  0  0  0  0  0  0  0  0  # atno 6908 bound_to 6896
  151.8139  133.3350  159.3600 H   0  0  0  0  0  0  0  0  0  0  0  0  # atno 6909 bound_to 6896
  146.0124  139.4558  142.9948 H   0  0  0  0  0  0  0  0  0  0  0  0  # atno 7974 bound_to 7965
  154.4221  140.1136  156.5596 H   0  0  0  0  0  0  0  0  0  0  0  0  # atno 8008 bound_to 7997
  155.6325  140.3496  155.4669 H   0  0  0  0  0  0  0  0  0  0  0  0  # atno 8009 bound_to 7997
  155.9936  140.1184  157.0604 H   0  0  0  0  0  0  0  0  0  0  0  0  # atno 8010 bound_to 7997
  139.6117  144.0801  152.1848 H   0  0  0  0  0  0  0  0  0  0  0  0  # atno 10167 bound_to 10162
  155.9997  130.4730  150.4557 H   0  0  0  0  0  0  0  0  0  0  0  0  # atno 10718 bound_to 10713
  153.9393  135.6763  153.4744 H   0  0  0  0  0  0  0  0  0  0  0  0  # atno 10763 bound_to 10752
  153.0940  135.4860  154.8740 H   0  0  0  0  0  0  0  0  0  0  0  0  # atno 10764 bound_to 10752
  154.7386  135.3155  154.8726 H   0  0  0  0  0  0  0  0  0  0  0  0  # atno 10765 bound_to 10752
  139.9546  134.7166  156.0781 H   0  0  0  0  0  0  0  0  0  0  0  0  # atno 11005 bound_to 11000
  145.7322  141.0038  143.1346 LP  0  0  0  0  0  0  0  0  0  0  0  0  # atno 17320 bound_to 7965
  144.6958  139.8998  143.7458 LP  0  0  0  0  0  0  0  0  0  0  0  0  # atno 17321 bound_to 7965
  140.0421  144.5999  150.7402 LP  0  0  0  0  0  0  0  0  0  0  0  0  # atno 17342 bound_to 10162
  140.7324  143.2705  151.3905 LP  0  0  0  0  0  0  0  0  0  0  0  0  # atno 17343 bound_to 10162
  157.2586  131.0562  151.2334 LP  0  0  0  0  0  0  0  0  0  0  0  0  # atno 17370 bound_to 10713
  157.3457  130.7056  149.6409 LP  0  0  0  0  0  0  0  0  0  0  0  0  # atno 17371 bound_to 10713
  141.1216  133.6611  156.3229 LP  0  0  0  0  0  0  0  0  0  0  0  0  # atno 17394 bound_to 11000
  140.5638  134.5908  157.5440 LP  0  0  0  0  0  0  0  0  0  0  0  0  # atno 17395 bound_to 11000

$$$$
