AV-unprocessed.smi:9|AV-procd|sdf|51|dock5
  -GOLD-   2262015173D 1   1.00000     0.00000
 Structure written by MMmdl.
 35 37  0  0  0  0  0  0  0  0  1 V2000
  145.4242  136.2181  150.2547 O   0  0  0  0  0  0  0  0  0  0  0  0
  145.5806  136.6315  151.4015 C   0  0  0  0  0  0  0  0  0  0  0  0
  145.2146  135.9377  152.5068 N   0  0  0  0  0  0  0  0  0  0  0  0
  145.3959  136.4209  153.8281 C   0  0  0  0  0  0  0  0  0  0  0  0
  144.8869  135.4199  154.8534 C   0  0  0  0  0  0  0  0  0  0  0  0
  143.5953  135.1479  154.6615 F   0  0  0  0  0  0  0  0  0  0  0  0
  145.5675  134.2765  154.7676 F   0  0  0  0  0  0  0  0  0  0  0  0
  145.0296  135.9041  156.0875 F   0  0  0  0  0  0  0  0  0  0  0  0
  145.9269  137.5697  154.1601 N   0  0  0  0  0  0  0  0  0  0  0  0
  146.3116  138.2903  153.0470 C   0  0  0  0  0  0  0  0  0  0  0  0
  146.1914  137.9442  151.7263 C   0  0  0  0  0  0  0  0  0  0  0  0
  146.6882  138.9410  150.8956 N   0  0  0  0  0  0  0  0  0  0  0  0
  147.0958  139.8600  151.7686 C   0  0  0  0  0  0  0  0  0  0  0  0
  146.9166  139.5428  153.0657 N   0  0  0  0  0  0  0  0  0  0  0  0
  147.2686  140.3528  154.2240 C   0  0  0  0  0  0  0  0  0  0  0  0
  148.7874  140.6265  154.3746 C   0  0  1  0  0  0  0  0  0  0  0  0
  149.1846  141.4255  153.2755 O   0  0  0  0  0  0  0  0  0  0  0  0
  149.1172  141.3685  155.6890 C   0  0  0  0  0  0  0  0  0  0  0  0
  150.6246  141.4014  155.9607 C   0  0  0  0  0  0  0  0  0  0  0  0
  151.2089  139.9874  155.8699 C   0  0  0  0  0  0  0  0  0  0  0  0
  150.9548  139.4620  154.5746 O   0  0  0  0  0  0  0  0  0  0  0  0
  149.5701  139.2949  154.2800 C   0  0  0  0  0  0  0  0  0  0  0  0
  144.7902  135.0309  152.3768 H   0  0  0  0  0  0  0  0  0  0  0  0
  147.5453  140.7912  151.4555 H   0  0  0  0  0  0  0  0  0  0  0  0
  146.7300  141.2980  154.1435 H   0  0  0  0  0  0  0  0  0  0  0  0
  146.8799  139.8628  155.1179 H   0  0  0  0  0  0  0  0  0  0  0  0
  149.0541  140.9272  152.4831 H   0  0  0  0  0  0  0  0  0  0  0  0
  148.7228  142.3853  155.6759 H   0  0  0  0  0  0  0  0  0  0  0  0
  148.6268  140.8594  156.5199 H   0  0  0  0  0  0  0  0  0  0  0  0
  151.1201  142.0499  155.2375 H   0  0  0  0  0  0  0  0  0  0  0  0
  150.8182  141.8269  156.9457 H   0  0  0  0  0  0  0  0  0  0  0  0
  152.2862  140.0160  156.0334 H   0  0  0  0  0  0  0  0  0  0  0  0
  150.7857  139.3346  156.6351 H   0  0  0  0  0  0  0  0  0  0  0  0
  149.1575  138.5656  154.9789 H   0  0  0  0  0  0  0  0  0  0  0  0
  149.4700  138.8575  153.2856 H   0  0  0  0  0  0  0  0  0  0  0  0
  1  2  2  0  0  0  0
  2 11  1  0  0  0  0
  2  3  1  0  0  0  0
  3 23  1  0  0  0  0
  3  4  1  0  0  0  0
  4  5  1  0  0  0  0
  4  9  2  0  0  0  0
  5  6  1  0  0  0  0
  5  7  1  0  0  0  0
  5  8  1  0  0  0  0
  9 10  1  0  0  0  0
 10 14  1  0  0  0  0
 10 11  2  0  0  0  0
 11 12  1  0  0  0  0
 12 13  2  0  0  0  0
 13 14  1  0  0  0  0
 13 24  1  0  0  0  0
 14 15  1  0  0  0  0
 15 16  1  0  0  0  0
 15 25  1  0  0  0  0
 15 26  1  0  0  0  0
 16 22  1  0  0  0  0
 16 17  1  0  0  0  0
 16 18  1  0  0  0  0
 17 27  1  0  0  0  0
 18 19  1  0  0  0  0
 18 28  1  0  0  0  0
 18 29  1  0  0  0  0
 19 20  1  0  0  0  0
 19 30  1  0  0  0  0
 19 31  1  0  0  0  0
 20 21  1  0  0  0  0
 20 32  1  0  0  0  0
 20 33  1  0  0  0  0
 21 22  1  0  0  0  0
 22 34  1  0  0  0  0
 22 35  1  0  0  0  0
M  END
> <s_m_source_file>
AV-unprocessed.smi

> <i_m_source_file_index>
9

> <i_lp_mmshare_version>
43012

> <i_f3d_flags>
0

> <s_epik_input>
RkMoRikoRiljKG4xKVtuSF1jKD1PKWMoYzEyKW5bY0hdbjJbQ0gyXVtDQEBdMyhbT0hdKVtDSDJdW0NIMl1bQ0gyXU9bQ0gyXTM=

> <s_epik_cmdline>
J2VwaWtfcHl0aG9uJywgJy1waCcsICc3LjAnLCAnLXRuJywgJzgnLCAnLW1hJywgJzIwMCcsICctbWV0YWxfYmluZGluZycsICctaW1hZScsICc8aW5maWxlLm1hZT4nLCAnLW9tYWUnLCAnPG91dGZpbGUubWFlPic=

> <r_lp_tautomer_probability>
0.85571

> <r_epik_Ionization_Penalty>
0.770127

> <r_epik_Ionization_Penalty_Charging>
0.770101

> <r_epik_Ionization_Penalty_Neutral>
2.64604e-05

> <r_epik_State_Penalty>
2.30539

> <r_epik_Charging_Adjusted_Penalty>
3.07549

> <i_epik_Tot_Q>
0

> <i_epik_Tot_abs_Q>
0

> <r_epik_Metal_State_Penalty>
2.4903

> <b_epik_Metal_Only>
0

> <s_lp_Force_Field>
OPLS_2005

> <r_lp_Energy>
27.1686

> <b_lp_Chiralities_Consistent>
1

> <s_lp_Variant>
AV-unprocessed.smi:9-3

> <Gold.Version>
5.8.1

> <Gold.Id.Protein>
6NUR|6NUR_protein|mol2

> <Gold.PLP.Fitness>
42.7639

> <Gold.PLP.PLP>
-30.3049

> <Gold.PLP.part.hbond>
-4.4668

> <Gold.PLP.part.metal>
0.0000

> <Gold.PLP.part.buried>
-0.8562

> <Gold.PLP.part.nonpolar>
-26.6880

> <Gold.PLP.part.repulsive>
0.9297

> <Gold.PLP.ligand.clash>
0.0000

> <Gold.PLP.ligand.torsion>
0.0551

> <Gold.PLP.Chemscore.Hbond>
3.6443

> <Gold.PLP.Chemscore.CHOScore>
0.5426

> <Gold.PLP.Chemscore.Metal>
0.0000

> <Gold.Chemscore.Hbonds>
donor molecule, donor type, donor heavy atom, donor atom, acceptor molecule, acceptor atom, score
      L1  H    17    27       P1  7957  1.00
      P1  H  7954  7966       L1    12  0.72
      P1  H  7989  7998       L1    21  1.00
      P1  H  8011  8017       L1    17  0.14
      L1  C    13    24       P1  7957  0.37

> <Gold.PLP.Chemscore.Internal.Correction>
0.0085

> <Gold.Rescore>
     Score         DG    S(hbond)    S(metal)    S(lipo)     H(rot)  DE(clash)    DE(int)     intcor
     11.24     -13.33       2.37        0.00      46.22       2.14       1.82       0.26       ----

> <Gold.Chemscore.Fitness>
11.2435

> <Gold.Chemscore.DG>
-13.3252

> <Gold.Chemscore.ZeroCoef>
-5.4800

> <Gold.Chemscore.Hbond>
2.3678

> <Gold.Chemscore.Metal>
0.0000

> <Gold.Chemscore.Lipo>
46.2221

> <Gold.Chemscore.Internal_Hbond>
0.0000

> <Gold.Chemscore.DEClash>
1.8203

> <Gold.Chemscore.DEInternal>
0.2614

> <Gold.Chemscore.Rot>
2.1373

> <Gold.Chemscore.Internal.Correction>
   9.000000E+99

> <Gold.Chemscore.Hbonds>
donor molecule, donor type, donor heavy atom, donor atom, acceptor molecule, acceptor atom, score
      L1  H    17    27       P1  7957  0.97
      P1  H  7954  7966       L1    12  0.20
      P1  H  7989  7998       L1    21  0.21

> <Gold.Chemscore.Hbond.Weighted>
-7.9086

> <Gold.Chemscore.Metal.Weighted>
-0.0000

> <Gold.Chemscore.Lipo.Weighted>
-5.4080

> <Gold.Chemscore.Internal_Hbond.Weighted>
0.0000

> <Gold.Chemscore.DEClash.Weighted>
1.8203

> <Gold.Chemscore.DEInternal.Weighted>
0.2614

> <Gold.Chemscore.Rot.Weighted>
5.4714

> <Gold.Chemscore.Internal.Correction.Weighted>
   9.000000E+99

> <Gold.Protein.RotatedTorsions>
[ 6907 6896 6895 6894 ] final   73.62 input  -60.11 | X-H torsion
[ 7974 7965 7964 7962 ] final -135.29 input  175.53 | X-H torsion
[ 8008 7997 7996 7995 ] final -169.56 input   59.86 | X-H torsion
[ 10167 10162 10161 10158 ] final   28.05 input  -65.29 | X-H torsion
[ 10718 10713 10712 10709 ] final   19.00 input   66.30 | X-H torsion
[ 10763 10752 10751 10750 ] final -115.05 input  -60.55 | X-H torsion
[ 11005 11000 10999 10996 ] final  146.59 input  -57.11 | X-H torsion

> <Gold.Protein.ActiveResidues>
 VAL166  LYS551  ARG553  GLY616  TRP617  ASP618  TYR619  PRO620  LYS621  CYS622 
 ASP623  PHE694  ASN695  SER759  ASP760  ASP761  ALA762  ILE779  LEU786  VAL792 
 PHE793  MET794  SER795  GLU796  ALA797  LYS798  CYS799  TRP800  GLU811  SER814 

> <Gold.Protein.RotatedAtoms>
  152.4933  134.4394  159.9538 H   0  0  0  0  0  0  0  0  0  0  0  0  # atno 6907 bound_to 6896
  151.4378  133.3646  159.2785 H   0  0  0  0  0  0  0  0  0  0  0  0  # atno 6908 bound_to 6896
  150.9109  134.8549  159.7484 H   0  0  0  0  0  0  0  0  0  0  0  0  # atno 6909 bound_to 6896
  144.9027  140.6793  143.5075 H   0  0  0  0  0  0  0  0  0  0  0  0  # atno 7974 bound_to 7965
  155.9066  140.1050  157.1310 H   0  0  0  0  0  0  0  0  0  0  0  0  # atno 8008 bound_to 7997
  154.4033  140.1282  156.4568 H   0  0  0  0  0  0  0  0  0  0  0  0  # atno 8009 bound_to 7997
  155.7360  140.3467  155.5084 H   0  0  0  0  0  0  0  0  0  0  0  0  # atno 8010 bound_to 7997
  140.4886  144.0503  150.6289 H   0  0  0  0  0  0  0  0  0  0  0  0  # atno 10167 bound_to 10162
  157.1042  130.6481  149.5880 H   0  0  0  0  0  0  0  0  0  0  0  0  # atno 10718 bound_to 10713
  154.8465  135.4395  154.1603 H   0  0  0  0  0  0  0  0  0  0  0  0  # atno 10763 bound_to 10752
  153.2741  135.6948  153.7457 H   0  0  0  0  0  0  0  0  0  0  0  0  # atno 10764 bound_to 10752
  153.6686  135.3423  155.3122 H   0  0  0  0  0  0  0  0  0  0  0  0  # atno 10765 bound_to 10752
  140.0806  134.9099  157.1494 H   0  0  0  0  0  0  0  0  0  0  0  0  # atno 11005 bound_to 11000
  145.3588  139.1687  143.4394 LP  0  0  0  0  0  0  0  0  0  0  0  0  # atno 17320 bound_to 7965
  146.3117  140.3648  142.8668 LP  0  0  0  0  0  0  0  0  0  0  0  0  # atno 17321 bound_to 7965
  140.3766  143.2825  152.0218 LP  0  0  0  0  0  0  0  0  0  0  0  0  # atno 17342 bound_to 10162
  139.4847  144.6188  151.7295 LP  0  0  0  0  0  0  0  0  0  0  0  0  # atno 17343 bound_to 10162
  155.9866  130.4901  150.7086 LP  0  0  0  0  0  0  0  0  0  0  0  0  # atno 17370 bound_to 10713
  157.4614  131.0883  151.0741 LP  0  0  0  0  0  0  0  0  0  0  0  0  # atno 17371 bound_to 10713
  140.3494  134.2616  155.7200 LP  0  0  0  0  0  0  0  0  0  0  0  0  # atno 17394 bound_to 11000
  141.2045  133.7884  157.0283 LP  0  0  0  0  0  0  0  0  0  0  0  0  # atno 17395 bound_to 11000

$$$$
