AV-unprocessed.smi:2525|AV-procd|sdf|9931|dock9
  -GOLD-   2272013573D 1   1.00000     0.00000
 Structure written by MMmdl.
 44 45  0  0  0  0  0  0  0  0  1 V2000
  148.3454  138.4754  157.5816 C   0  0  0  0  0  0  0  0  0  0  0  0
  149.3304  137.9620  156.5177 C   0  0  0  0  0  0  0  0  0  0  0  0
  149.4224  138.7699  155.2000 C   0  0  0  0  0  0  0  0  0  0  0  0
  150.5280  138.1001  154.3339 C   0  0  0  0  0  0  0  0  0  0  0  0
  151.8198  137.6949  155.0690 C   0  0  0  0  0  0  0  0  0  0  0  0
  148.0850  139.0748  154.4617 C   0  0  2  0  0  0  0  0  0  0  0  0
  147.8311  138.2192  153.3074 N   0  0  0  0  0  0  0  0  0  0  0  0
  146.6181  137.8050  152.9138 C   0  0  0  0  0  0  0  0  0  0  0  0
  145.5734  138.1276  153.4787 O   0  0  0  0  0  0  0  0  0  0  0  0
  146.5765  136.8793  151.6975 C   0  0  0  0  0  0  0  0  0  0  0  0
  145.5286  135.8836  151.8342 N   0  0  0  0  0  0  0  0  0  0  0  0
  145.0204  135.0311  150.8749 C   0  0  0  0  0  0  0  0  0  0  0  0
  144.0752  134.3165  151.5539 C   0  0  0  0  0  0  0  0  0  0  0  0
  144.0473  134.7559  152.8765 N   0  0  0  0  0  0  0  0  0  0  0  0
  144.9240  135.6975  153.0327 N   0  0  0  0  0  0  0  0  0  0  0  0
  148.6188  140.4624  154.0848 C   0  0  1  0  0  0  0  0  0  0  0  0
  147.6346  141.6203  153.9716 C   0  0  0  0  0  0  0  0  0  0  0  0
  149.4925  140.3177  155.3420 C   0  0  2  0  0  0  0  0  0  0  0  0
  150.8042  140.8426  155.2100 O   0  0  0  0  0  0  0  0  0  0  0  0
  151.6784  140.4495  156.2531 C   0  0  0  0  0  0  0  0  0  0  0  0
  148.4412  137.8919  158.4974 H   0  0  0  0  0  0  0  0  0  0  0  0
  147.3108  138.3776  157.2526 H   0  0  0  0  0  0  0  0  0  0  0  0
  148.5262  139.5174  157.8425 H   0  0  0  0  0  0  0  0  0  0  0  0
  150.3148  137.9264  156.9851 H   0  0  0  0  0  0  0  0  0  0  0  0
  149.0671  136.9249  156.3049 H   0  0  0  0  0  0  0  0  0  0  0  0
  150.1296  137.2065  153.8519 H   0  0  0  0  0  0  0  0  0  0  0  0
  150.8143  138.7579  153.5134 H   0  0  0  0  0  0  0  0  0  0  0  0
  152.5599  137.3293  154.3569 H   0  0  0  0  0  0  0  0  0  0  0  0
  151.6451  136.8915  155.7843 H   0  0  0  0  0  0  0  0  0  0  0  0
  152.2731  138.5269  155.6051 H   0  0  0  0  0  0  0  0  0  0  0  0
  147.2250  139.1690  155.1258 H   0  0  0  0  0  0  0  0  0  0  0  0
  148.6357  137.9069  152.7834 H   0  0  0  0  0  0  0  0  0  0  0  0
  146.4060  137.4593  150.7891 H   0  0  0  0  0  0  0  0  0  0  0  0
  147.5353  136.3725  151.5801 H   0  0  0  0  0  0  0  0  0  0  0  0
  145.3589  135.0077  149.8495 H   0  0  0  0  0  0  0  0  0  0  0  0
  143.4206  133.5309  151.2062 H   0  0  0  0  0  0  0  0  0  0  0  0
  149.2432  140.4010  153.1917 H   0  0  0  0  0  0  0  0  0  0  0  0
  147.0452  141.7326  154.8818 H   0  0  0  0  0  0  0  0  0  0  0  0
  146.9384  141.4637  153.1477 H   0  0  0  0  0  0  0  0  0  0  0  0
  148.1452  142.5648  153.7892 H   0  0  0  0  0  0  0  0  0  0  0  0
  148.9901  140.6759  156.2426 H   0  0  0  0  0  0  0  0  0  0  0  0
  152.6736  140.8511  156.0630 H   0  0  0  0  0  0  0  0  0  0  0  0
  151.7607  139.3635  156.3128 H   0  0  0  0  0  0  0  0  0  0  0  0
  151.3455  140.8312  157.2176 H   0  0  0  0  0  0  0  0  0  0  0  0
  1  2  1  0  0  0  0
  1 21  1  0  0  0  0
  1 22  1  0  0  0  0
  1 23  1  0  0  0  0
  2  3  1  0  0  0  0
  2 24  1  0  0  0  0
  2 25  1  0  0  0  0
  3 18  1  0  0  0  0
  3  4  1  0  0  0  0
  3  6  1  0  0  0  0
  4  5  1  0  0  0  0
  4 26  1  0  0  0  0
  4 27  1  0  0  0  0
  5 28  1  0  0  0  0
  5 29  1  0  0  0  0
  5 30  1  0  0  0  0
  6  7  1  0  0  0  0
  6 16  1  0  0  0  0
  6 31  1  0  0  0  0
  7  8  1  0  0  0  0
  7 32  1  0  0  0  0
  8  9  2  0  0  0  0
  8 10  1  0  0  0  0
 10 11  1  0  0  0  0
 10 33  1  0  0  0  0
 10 34  1  0  0  0  0
 11 15  1  0  0  0  0
 11 12  1  0  0  0  0
 12 13  2  0  0  0  0
 12 35  1  0  0  0  0
 13 14  1  0  0  0  0
 13 36  1  0  0  0  0
 14 15  2  0  0  0  0
 16 17  1  0  0  0  0
 16 18  1  0  0  0  0
 16 37  1  0  0  0  0
 17 38  1  0  0  0  0
 17 39  1  0  0  0  0
 17 40  1  0  0  0  0
 18 19  1  0  0  0  0
 18 41  1  0  0  0  0
 19 20  1  0  0  0  0
 20 42  1  0  0  0  0
 20 43  1  0  0  0  0
 20 44  1  0  0  0  0
M  END
> <s_m_source_file>
AV-unprocessed.smi

> <i_m_source_file_index>
2525

> <i_lp_mmshare_version>
43012

> <i_f3d_flags>
0

> <s_epik_input>
W0NIM11PW0NAQEhdMVtDQEhdKFtDSDNdKVtDQEBIXShDMShbQ0gyXVtDSDNdKVtDSDJdW0NIM10pW05IXUMoPU8pW0NIMl1uMltjSF1bY0hdbm4y

> <s_epik_cmdline>
J2VwaWtfcHl0aG9uJywgJy1waCcsICc3LjAnLCAnLXRuJywgJzgnLCAnLW1hJywgJzIwMCcsICctbWV0YWxfYmluZGluZycsICctaW1hZScsICc8aW5maWxlLm1hZT4nLCAnLW9tYWUnLCAnPG91dGZpbGUubWFlPic=

> <r_lp_tautomer_probability>
1

> <r_epik_Ionization_Penalty>
1.18045e-06

> <r_epik_Ionization_Penalty_Charging>
0

> <r_epik_Ionization_Penalty_Neutral>
1.18045e-06

> <r_epik_State_Penalty>
-0

> <r_epik_Charging_Adjusted_Penalty>
0

> <i_epik_Tot_Q>
0

> <i_epik_Tot_abs_Q>
0

> <r_epik_Metal_State_Penalty>
-0

> <b_epik_Metal_Only>
0

> <s_lp_Force_Field>
OPLS_2005

> <r_lp_Energy>
27.6116

> <b_lp_Chiralities_Consistent>
1

> <s_lp_Variant>
AV-unprocessed.smi:2525-6

> <Gold.Version>
5.8.1

> <Gold.Id.Protein>
6NUR|6NUR_protein|mol2

> <Gold.PLP.Fitness>
35.6629

> <Gold.PLP.PLP>
-26.7105

> <Gold.PLP.part.hbond>
-2.3100

> <Gold.PLP.part.metal>
0.0000

> <Gold.PLP.part.buried>
-0.1125

> <Gold.PLP.part.nonpolar>
-28.1016

> <Gold.PLP.part.repulsive>
2.0066

> <Gold.PLP.ligand.clash>
0.0000

> <Gold.PLP.ligand.torsion>
1.0572

> <Gold.PLP.Chemscore.Hbond>
1.5360

> <Gold.PLP.Chemscore.CHOScore>
1.9502

> <Gold.PLP.Chemscore.Metal>
0.0000

> <Gold.Chemscore.Hbonds>
donor molecule, donor type, donor heavy atom, donor atom, acceptor molecule, acceptor atom, score
      L1  H     7    32       P1  7948  0.62
      P1  H  7989  7998       L1    19  0.80
      L1  C    12    35       P1  7921  1.00

> <Gold.PLP.Chemscore.Internal.Correction>
0.6082

> <Gold.Rescore>
     Score         DG    S(hbond)    S(metal)    S(lipo)     H(rot)  DE(clash)    DE(int)     intcor
      9.97     -14.39       1.85        0.00      66.86       1.98       2.19       2.24       ----

> <Gold.Chemscore.Fitness>
9.9663

> <Gold.Chemscore.DG>
-14.3940

> <Gold.Chemscore.ZeroCoef>
-5.4800

> <Gold.Chemscore.Hbond>
1.8458

> <Gold.Chemscore.Metal>
0.0000

> <Gold.Chemscore.Lipo>
66.8567

> <Gold.Chemscore.Internal_Hbond>
0.0000

> <Gold.Chemscore.DEClash>
2.1899

> <Gold.Chemscore.DEInternal>
2.2378

> <Gold.Chemscore.Rot>
1.9817

> <Gold.Chemscore.Internal.Correction>
   9.000000E+99

> <Gold.Chemscore.Hbonds>
donor molecule, donor type, donor heavy atom, donor atom, acceptor molecule, acceptor atom, score
      L1  H     7    32       P1  7948  0.64
      P1  H  7989  7998       L1    19  0.68

> <Gold.Chemscore.Hbond.Weighted>
-6.1649

> <Gold.Chemscore.Metal.Weighted>
-0.0000

> <Gold.Chemscore.Lipo.Weighted>
-7.8222

> <Gold.Chemscore.Internal_Hbond.Weighted>
0.0000

> <Gold.Chemscore.DEClash.Weighted>
2.1899

> <Gold.Chemscore.DEInternal.Weighted>
2.2378

> <Gold.Chemscore.Rot.Weighted>
5.0731

> <Gold.Chemscore.Internal.Correction.Weighted>
   9.000000E+99

> <Gold.Protein.RotatedTorsions>
[ 6907 6896 6895 6894 ] final   16.83 input  -60.11 | X-H torsion
[ 7974 7965 7964 7962 ] final   90.85 input  175.53 | X-H torsion
[ 8008 7997 7996 7995 ] final  126.70 input   59.86 | X-H torsion
[ 10167 10162 10161 10158 ] final  -42.22 input  -65.29 | X-H torsion
[ 10718 10713 10712 10709 ] final -136.19 input   66.30 | X-H torsion
[ 10763 10752 10751 10750 ] final   79.39 input  -60.55 | X-H torsion
[ 11005 11000 10999 10996 ] final  137.84 input  -57.11 | X-H torsion

> <Gold.Protein.ActiveResidues>
 VAL166  LYS551  ARG553  GLY616  TRP617  ASP618  TYR619  PRO620  LYS621  CYS622 
 ASP623  PHE694  ASN695  SER759  ASP760  ASP761  ALA762  ILE779  LEU786  VAL792 
 PHE793  MET794  SER795  GLU796  ALA797  LYS798  CYS799  TRP800  GLU811  SER814 

> <Gold.Protein.RotatedAtoms>
  151.8401  135.0593  160.0446 H   0  0  0  0  0  0  0  0  0  0  0  0  # atno 6907 bound_to 6896
  152.2816  133.5471  159.5509 H   0  0  0  0  0  0  0  0  0  0  0  0  # atno 6908 bound_to 6896
  150.7192  134.0472  159.3828 H   0  0  0  0  0  0  0  0  0  0  0  0  # atno 6909 bound_to 6896
  145.5135  139.2277  143.2711 H   0  0  0  0  0  0  0  0  0  0  0  0  # atno 7974 bound_to 7965
  156.2871  140.2686  156.2154 H   0  0  0  0  0  0  0  0  0  0  0  0  # atno 8008 bound_to 7997
  155.0222  140.0386  157.2460 H   0  0  0  0  0  0  0  0  0  0  0  0  # atno 8009 bound_to 7997
  154.7426  140.2728  155.6365 H   0  0  0  0  0  0  0  0  0  0  0  0  # atno 8010 bound_to 7997
  140.6976  143.3050  151.3179 H   0  0  0  0  0  0  0  0  0  0  0  0  # atno 10167 bound_to 10162
  156.2743  130.7284  151.1261 H   0  0  0  0  0  0  0  0  0  0  0  0  # atno 10718 bound_to 10713
  153.0949  135.4841  154.8759 H   0  0  0  0  0  0  0  0  0  0  0  0  # atno 10763 bound_to 10752
  154.7313  135.3061  154.8889 H   0  0  0  0  0  0  0  0  0  0  0  0  # atno 10764 bound_to 10752
  153.9524  135.6822  153.4797 H   0  0  0  0  0  0  0  0  0  0  0  0  # atno 10765 bound_to 10752
  140.0142  134.9426  157.0340 H   0  0  0  0  0  0  0  0  0  0  0  0  # atno 11005 bound_to 11000
  146.2151  140.5944  142.9042 LP  0  0  0  0  0  0  0  0  0  0  0  0  # atno 17320 bound_to 7965
  144.7714  140.5646  143.6667 LP  0  0  0  0  0  0  0  0  0  0  0  0  # atno 17321 bound_to 7965
  139.6452  144.0465  152.2585 LP  0  0  0  0  0  0  0  0  0  0  0  0  # atno 17342 bound_to 10162
  139.9983  144.6312  150.7752 LP  0  0  0  0  0  0  0  0  0  0  0  0  # atno 17343 bound_to 10162
  157.7294  131.0624  150.5775 LP  0  0  0  0  0  0  0  0  0  0  0  0  # atno 17370 bound_to 10713
  156.5874  130.4320  149.5951 LP  0  0  0  0  0  0  0  0  0  0  0  0  # atno 17371 bound_to 10713
  140.4501  134.1591  155.7181 LP  0  0  0  0  0  0  0  0  0  0  0  0  # atno 17394 bound_to 11000
  141.1731  133.8568  157.1507 LP  0  0  0  0  0  0  0  0  0  0  0  0  # atno 17395 bound_to 11000

$$$$
