AV-unprocessed.smi:3350|AV-procd|sdf|12946|dock4
  -GOLD-   2272019383D 1   1.00000     0.00000
 Structure written by MMmdl.
 41 42  0  0  0  0  0  0  0  0  1 V2000
  144.6379  137.1865  152.9356 C   0  0  0  0  0  0  0  0  0  0  0  0
  145.0239  135.7725  152.4812 C   0  0  1  0  0  0  0  0  0  0  0  0
  144.7635  135.5765  150.9717 C   0  0  0  0  0  0  0  0  0  0  0  0
  145.0054  134.2134  150.5317 N   0  0  0  0  0  0  0  0  0  0  0  0
  144.1055  133.3108  150.0041 C   0  0  0  0  0  0  0  0  0  0  0  0
  144.7970  132.1695  149.7159 C   0  0  0  0  0  0  0  0  0  0  0  0
  146.1295  132.4729  150.1128 C   0  0  0  0  0  0  0  0  0  0  0  0
  146.2503  133.6953  150.6047 N   0  0  0  0  0  0  0  0  0  0  0  0
  146.4325  135.5387  152.7981 N   0  0  0  0  0  0  0  0  0  0  0  0
  146.8982  134.5897  153.6234 C   0  0  0  0  0  0  0  0  0  0  0  0
  146.1850  133.8187  154.2655 O   0  0  0  0  0  0  0  0  0  0  0  0
  148.2375  134.5625  153.6407 N   0  0  0  0  0  0  0  0  0  0  0  0
  149.0503  133.6092  154.3924 C   0  0  1  0  0  0  0  0  0  0  0  0
  148.4878  133.4482  155.8154 C   0  0  0  0  0  0  0  0  0  0  0  0
  149.1023  132.2645  153.6432 C   0  0  1  0  0  0  0  0  0  0  0  0
  149.9597  131.1896  154.3130 C   0  0  0  0  0  0  0  0  0  0  0  0
  149.3785  129.8907  153.7788 C   0  0  0  0  0  0  0  0  0  0  0  0
  148.0044  130.2925  153.2337 C   0  0  0  0  0  0  0  0  0  0  0  0
  147.8246  131.6472  153.6238 O   0  0  0  0  0  0  0  0  0  0  0  0
  143.5836  137.3857  152.7407 H   0  0  0  0  0  0  0  0  0  0  0  0
  145.2217  137.9461  152.4146 H   0  0  0  0  0  0  0  0  0  0  0  0
  144.8032  137.3142  154.0060 H   0  0  0  0  0  0  0  0  0  0  0  0
  144.3971  135.0741  153.0389 H   0  0  0  0  0  0  0  0  0  0  0  0
  143.7295  135.8298  150.7325 H   0  0  0  0  0  0  0  0  0  0  0  0
  145.3906  136.2488  150.3845 H   0  0  0  0  0  0  0  0  0  0  0  0
  143.0624  133.5572  149.8699 H   0  0  0  0  0  0  0  0  0  0  0  0
  144.4107  131.2580  149.2846 H   0  0  0  0  0  0  0  0  0  0  0  0
  147.0065  131.8449  150.0585 H   0  0  0  0  0  0  0  0  0  0  0  0
  147.1052  136.1205  152.3209 H   0  0  0  0  0  0  0  0  0  0  0  0
  148.7343  135.2367  153.0773 H   0  0  0  0  0  0  0  0  0  0  0  0
  150.0690  133.9953  154.4632 H   0  0  0  0  0  0  0  0  0  0  0  0
  149.0904  132.7529  156.4001 H   0  0  0  0  0  0  0  0  0  0  0  0
  147.4658  133.0683  155.7979 H   0  0  0  0  0  0  0  0  0  0  0  0
  148.4798  134.3990  156.3497 H   0  0  0  0  0  0  0  0  0  0  0  0
  149.4370  132.4140  152.6145 H   0  0  0  0  0  0  0  0  0  0  0  0
  151.0227  131.2987  154.0958 H   0  0  0  0  0  0  0  0  0  0  0  0
  149.8318  131.2285  155.3957 H   0  0  0  0  0  0  0  0  0  0  0  0
  149.9983  129.4781  152.9818 H   0  0  0  0  0  0  0  0  0  0  0  0
  149.3015  129.1409  154.5670 H   0  0  0  0  0  0  0  0  0  0  0  0
  147.9901  130.2274  152.1450 H   0  0  0  0  0  0  0  0  0  0  0  0
  147.2011  129.6665  153.6222 H   0  0  0  0  0  0  0  0  0  0  0  0
  1  2  1  0  0  0  0
  1 20  1  0  0  0  0
  1 21  1  0  0  0  0
  1 22  1  0  0  0  0
  2  3  1  0  0  0  0
  2  9  1  0  0  0  0
  2 23  1  0  0  0  0
  3  4  1  0  0  0  0
  3 24  1  0  0  0  0
  3 25  1  0  0  0  0
  4  8  1  0  0  0  0
  4  5  1  0  0  0  0
  5  6  2  0  0  0  0
  5 26  1  0  0  0  0
  6  7  1  0  0  0  0
  6 27  1  0  0  0  0
  7  8  2  0  0  0  0
  7 28  1  0  0  0  0
  9 10  1  0  0  0  0
  9 29  1  0  0  0  0
 10 11  2  0  0  0  0
 10 12  1  0  0  0  0
 12 13  1  0  0  0  0
 12 30  1  0  0  0  0
 13 14  1  0  0  0  0
 13 15  1  0  0  0  0
 13 31  1  0  0  0  0
 14 32  1  0  0  0  0
 14 33  1  0  0  0  0
 14 34  1  0  0  0  0
 15 19  1  0  0  0  0
 15 16  1  0  0  0  0
 15 35  1  0  0  0  0
 16 17  1  0  0  0  0
 16 36  1  0  0  0  0
 16 37  1  0  0  0  0
 17 18  1  0  0  0  0
 17 38  1  0  0  0  0
 17 39  1  0  0  0  0
 18 19  1  0  0  0  0
 18 40  1  0  0  0  0
 18 41  1  0  0  0  0
M  END
> <s_m_source_file>
AV-unprocessed.smi

> <i_m_source_file_index>
3350

> <i_lp_mmshare_version>
43012

> <i_f3d_flags>
0

> <s_epik_input>
bjFbY0hdW2NIXVtjSF1uMVtDSDJdW0NAQEhdKFtDSDNdKVtOSF1DKD1PKVtOSF1bQ0BIXShbQ0gzXSlbQ0BASF0yW0NIMl1bQ0gyXVtDSDJdTzI=

> <s_epik_cmdline>
J2VwaWtfcHl0aG9uJywgJy1waCcsICc3LjAnLCAnLXRuJywgJzgnLCAnLW1hJywgJzIwMCcsICctbWV0YWxfYmluZGluZycsICctaW1hZScsICc8aW5maWxlLm1hZT4nLCAnLW9tYWUnLCAnPG91dGZpbGUubWFlPic=

> <r_lp_tautomer_probability>
1

> <r_epik_Ionization_Penalty>
6.42349e-05

> <r_epik_Ionization_Penalty_Charging>
0

> <r_epik_Ionization_Penalty_Neutral>
6.42349e-05

> <r_epik_State_Penalty>
-0

> <r_epik_Charging_Adjusted_Penalty>
0

> <i_epik_Tot_Q>
0

> <i_epik_Tot_abs_Q>
0

> <r_epik_Metal_State_Penalty>
-0

> <b_epik_Metal_Only>
0

> <s_lp_Force_Field>
OPLS_2005

> <r_lp_Energy>
15.5841

> <b_lp_Chiralities_Consistent>
1

> <s_lp_Variant>
AV-unprocessed.smi:3350-8

> <Gold.Version>
5.8.1

> <Gold.Id.Protein>
6NUR|6NUR_protein|mol2

> <Gold.PLP.Fitness>
42.8082

> <Gold.PLP.PLP>
-31.6197

> <Gold.PLP.part.hbond>
-2.0000

> <Gold.PLP.part.metal>
0.0000

> <Gold.PLP.part.buried>
-4.0793

> <Gold.PLP.part.nonpolar>
-26.6644

> <Gold.PLP.part.repulsive>
0.3438

> <Gold.PLP.ligand.clash>
0.0000

> <Gold.PLP.ligand.torsion>
0.2712

> <Gold.PLP.Chemscore.Hbond>
1.8960

> <Gold.PLP.Chemscore.CHOScore>
2.0000

> <Gold.PLP.Chemscore.Metal>
0.0000

> <Gold.Chemscore.Hbonds>
donor molecule, donor type, donor heavy atom, donor atom, acceptor molecule, acceptor atom, score
      L1  H     9    29       P1  7948  0.85
      L1  H    12    30       P1  7948  1.00
      L1  C     5    26       P1 10186  1.00
      L1  C     7    28       P1 10747  1.00

> <Gold.PLP.Chemscore.Internal.Correction>
0.0429

> <Gold.Rescore>
     Score         DG    S(hbond)    S(metal)    S(lipo)     H(rot)  DE(clash)    DE(int)     intcor
     13.41     -15.72       1.76        0.00      76.93       1.82       0.23       2.09       ----

> <Gold.Chemscore.Fitness>
13.4058

> <Gold.Chemscore.DG>
-15.7173

> <Gold.Chemscore.ZeroCoef>
-5.4800

> <Gold.Chemscore.Hbond>
1.7649

> <Gold.Chemscore.Metal>
0.0000

> <Gold.Chemscore.Lipo>
76.9291

> <Gold.Chemscore.Internal_Hbond>
0.0000

> <Gold.Chemscore.DEClash>
0.2253

> <Gold.Chemscore.DEInternal>
2.0862

> <Gold.Chemscore.Rot>
1.8197

> <Gold.Chemscore.Internal.Correction>
   9.000000E+99

> <Gold.Chemscore.Hbonds>
donor molecule, donor type, donor heavy atom, donor atom, acceptor molecule, acceptor atom, score
      L1  H     9    29       P1  7948  0.85
      L1  H    12    30       P1  7948  0.62

> <Gold.Chemscore.Hbond.Weighted>
-5.8949

> <Gold.Chemscore.Metal.Weighted>
-0.0000

> <Gold.Chemscore.Lipo.Weighted>
-9.0007

> <Gold.Chemscore.Internal_Hbond.Weighted>
0.0000

> <Gold.Chemscore.DEClash.Weighted>
0.2253

> <Gold.Chemscore.DEInternal.Weighted>
2.0862

> <Gold.Chemscore.Rot.Weighted>
4.6583

> <Gold.Chemscore.Internal.Correction.Weighted>
   9.000000E+99

> <Gold.Protein.RotatedTorsions>
[ 6907 6896 6895 6894 ] final  141.40 input  -60.11 | X-H torsion
[ 7974 7965 7964 7962 ] final -158.61 input  175.53 | X-H torsion
[ 8008 7997 7996 7995 ] final  -39.89 input   59.86 | X-H torsion
[ 10167 10162 10161 10158 ] final   82.65 input  -65.29 | X-H torsion
[ 10718 10713 10712 10709 ] final  -19.47 input   66.30 | X-H torsion
[ 10763 10752 10751 10750 ] final  -89.96 input  -60.55 | X-H torsion
[ 11005 11000 10999 10996 ] final -157.21 input  -57.11 | X-H torsion

> <Gold.Protein.ActiveResidues>
 VAL166  LYS551  ARG553  GLY616  TRP617  ASP618  TYR619  PRO620  LYS621  CYS622 
 ASP623  PHE694  ASN695  SER759  ASP760  ASP761  ALA762  ILE779  LEU786  VAL792 
 PHE793  MET794  SER795  GLU796  ALA797  LYS798  CYS799  TRP800  GLU811  SER814 

> <Gold.Protein.RotatedAtoms>
  152.2314  133.5061  159.5217 H   0  0  0  0  0  0  0  0  0  0  0  0  # atno 6907 bound_to 6896
  150.7038  134.1211  159.4044 H   0  0  0  0  0  0  0  0  0  0  0  0  # atno 6908 bound_to 6896
  151.9132  135.0330  160.0567 H   0  0  0  0  0  0  0  0  0  0  0  0  # atno 6909 bound_to 6896
  144.7498  140.3803  143.6056 H   0  0  0  0  0  0  0  0  0  0  0  0  # atno 7974 bound_to 7965
  154.4018  140.1539  156.2938 H   0  0  0  0  0  0  0  0  0  0  0  0  # atno 8008 bound_to 7997
  155.8762  140.3446  155.5833 H   0  0  0  0  0  0  0  0  0  0  0  0  # atno 8009 bound_to 7997
  155.7719  140.0831  157.2094 H   0  0  0  0  0  0  0  0  0  0  0  0  # atno 8010 bound_to 7997
  139.9266  144.6179  150.8387 H   0  0  0  0  0  0  0  0  0  0  0  0  # atno 10167 bound_to 10162
  156.5452  130.4688  149.6479 H   0  0  0  0  0  0  0  0  0  0  0  0  # atno 10718 bound_to 10713
  154.6608  135.5322  153.8015 H   0  0  0  0  0  0  0  0  0  0  0  0  # atno 10763 bound_to 10752
  153.0440  135.6505  154.0875 H   0  0  0  0  0  0  0  0  0  0  0  0  # atno 10764 bound_to 10752
  154.0784  135.2949  155.3275 H   0  0  0  0  0  0  0  0  0  0  0  0  # atno 10765 bound_to 10752
  140.6671  134.4287  157.5233 H   0  0  0  0  0  0  0  0  0  0  0  0  # atno 11005 bound_to 11000
  145.6985  139.1655  143.2606 LP  0  0  0  0  0  0  0  0  0  0  0  0  # atno 17320 bound_to 7965
  146.1433  140.7028  142.9357 LP  0  0  0  0  0  0  0  0  0  0  0  0  # atno 17321 bound_to 7965
  140.7648  143.3260  151.2516 LP  0  0  0  0  0  0  0  0  0  0  0  0  # atno 17342 bound_to 10162
  139.6817  143.9843  152.2812 LP  0  0  0  0  0  0  0  0  0  0  0  0  # atno 17343 bound_to 10162
  156.2935  130.7137  151.1992 LP  0  0  0  0  0  0  0  0  0  0  0  0  # atno 17370 bound_to 10713
  157.7398  131.0525  150.5208 LP  0  0  0  0  0  0  0  0  0  0  0  0  # atno 17371 bound_to 10713
  139.8993  134.8593  156.1964 LP  0  0  0  0  0  0  0  0  0  0  0  0  # atno 17394 bound_to 11000
  141.0420  133.6932  156.1616 LP  0  0  0  0  0  0  0  0  0  0  0  0  # atno 17395 bound_to 11000

$$$$
