AV-unprocessed.smi:2807|AV-procd|sdf|10817|dock8
  -GOLD-   2272015253D 1   1.00000     0.00000
 Structure written by MMmdl.
 32 33  0  0  0  0  0  0  0  0  1 V2000
  151.9437  140.2463  155.3659 O   0  0  0  0  0  0  0  0  0  0  0  0
  151.0038  140.2186  156.1613 C   0  0  0  0  0  0  0  0  0  0  0  0
  149.7176  140.1769  155.7762 N   0  0  0  0  0  0  0  0  0  0  0  0
  149.2441  140.2418  154.3939 C   0  0  1  0  0  0  0  0  0  0  0  0
  148.3361  139.0369  154.0890 C   0  0  0  0  0  0  0  0  0  0  0  0
  146.9126  139.5892  154.0408 C   0  0  0  0  0  0  0  0  0  0  0  0
  147.0829  140.9971  153.4781 C   0  0  0  0  0  0  0  0  0  0  0  0
  148.3956  141.5079  154.0859 C   0  0  1  0  0  0  0  0  0  0  0  0
  148.0943  142.2791  155.2369 O   0  0  0  0  0  0  0  0  0  0  0  0
  151.2603  140.2697  157.6745 C   0  0  0  0  0  0  0  0  0  0  0  0
  150.1744  139.8155  158.3042 F   0  0  0  0  0  0  0  0  0  0  0  0
  152.2801  139.4636  157.9800 F   0  0  0  0  0  0  0  0  0  0  0  0
  151.5801  141.7004  158.1023 C   0  0  0  0  0  0  0  0  0  0  0  0
  152.2151  141.9693  159.3367 C   0  0  0  0  0  0  0  0  0  0  0  0
  152.4547  143.3099  159.6949 C   0  0  0  0  0  0  0  0  0  0  0  0
  152.0542  144.3306  158.8122 C   0  0  0  0  0  0  0  0  0  0  0  0
  151.4283  143.9639  157.6052 C   0  0  0  0  0  0  0  0  0  0  0  0
  151.1920  142.6822  157.2534 N   0  0  0  0  0  0  0  0  0  0  0  0
  149.0100  140.1603  156.4963 H   0  0  0  0  0  0  0  0  0  0  0  0
  150.0997  140.1992  153.7174 H   0  0  0  0  0  0  0  0  0  0  0  0
  148.5940  138.6325  153.1093 H   0  0  0  0  0  0  0  0  0  0  0  0
  148.4384  138.2219  154.8072 H   0  0  0  0  0  0  0  0  0  0  0  0
  146.2432  138.9735  153.4393 H   0  0  0  0  0  0  0  0  0  0  0  0
  146.5025  139.6427  155.0503 H   0  0  0  0  0  0  0  0  0  0  0  0
  147.1874  140.9360  152.3941 H   0  0  0  0  0  0  0  0  0  0  0  0
  146.2274  141.6417  153.6847 H   0  0  0  0  0  0  0  0  0  0  0  0
  148.9142  142.1591  153.3816 H   0  0  0  0  0  0  0  0  0  0  0  0
  148.3375  143.1766  155.0672 H   0  0  0  0  0  0  0  0  0  0  0  0
  152.5052  141.1706  160.0030 H   0  0  0  0  0  0  0  0  0  0  0  0
  152.9342  143.5509  160.6320 H   0  0  0  0  0  0  0  0  0  0  0  0
  152.2209  145.3696  159.0546 H   0  0  0  0  0  0  0  0  0  0  0  0
  151.1063  144.7203  156.9048 H   0  0  0  0  0  0  0  0  0  0  0  0
  1  2  2  0  0  0  0
  2  3  1  0  0  0  0
  2 10  1  0  0  0  0
  3  4  1  0  0  0  0
  3 19  1  0  0  0  0
  4  8  1  0  0  0  0
  4  5  1  0  0  0  0
  4 20  1  0  0  0  0
  5  6  1  0  0  0  0
  5 21  1  0  0  0  0
  5 22  1  0  0  0  0
  6  7  1  0  0  0  0
  6 23  1  0  0  0  0
  6 24  1  0  0  0  0
  7  8  1  0  0  0  0
  7 25  1  0  0  0  0
  7 26  1  0  0  0  0
  8  9  1  0  0  0  0
  8 27  1  0  0  0  0
  9 28  1  0  0  0  0
 10 11  1  0  0  0  0
 10 12  1  0  0  0  0
 10 13  1  0  0  0  0
 13 18  1  0  0  0  0
 13 14  2  0  0  0  0
 14 15  1  0  0  0  0
 14 29  1  0  0  0  0
 15 16  2  0  0  0  0
 15 30  1  0  0  0  0
 16 17  1  0  0  0  0
 16 31  1  0  0  0  0
 17 18  2  0  0  0  0
 17 32  1  0  0  0  0
M  END
> <s_m_source_file>
AV-unprocessed.smi

> <i_m_source_file_index>
2807

> <i_lp_mmshare_version>
43012

> <i_f3d_flags>
0

> <s_epik_input>
bjFbY0hdW2NIXVtjSF1bY0hdYzFDKEYpKEYpQyg9TylbTkhdW0NAQEhdMltDSDJdW0NIMl1bQ0gyXVtDQEhdMltPSF0=

> <s_epik_cmdline>
J2VwaWtfcHl0aG9uJywgJy1waCcsICc3LjAnLCAnLXRuJywgJzgnLCAnLW1hJywgJzIwMCcsICctbWV0YWxfYmluZGluZycsICctaW1hZScsICc8aW5maWxlLm1hZT4nLCAnLW9tYWUnLCAnPG91dGZpbGUubWFlPic=

> <r_lp_tautomer_probability>
1

> <r_epik_Ionization_Penalty>
4.08325e-05

> <r_epik_Ionization_Penalty_Charging>
0

> <r_epik_Ionization_Penalty_Neutral>
4.08325e-05

> <r_epik_State_Penalty>
-0

> <r_epik_Charging_Adjusted_Penalty>
0

> <i_epik_Tot_Q>
0

> <i_epik_Tot_abs_Q>
0

> <r_epik_Metal_State_Penalty>
0.034564

> <b_epik_Metal_Only>
0

> <s_lp_Force_Field>
OPLS_2005

> <r_lp_Energy>
28.4248

> <b_lp_Chiralities_Consistent>
1

> <s_lp_Variant>
AV-unprocessed.smi:2807-2

> <Gold.Version>
5.8.1

> <Gold.Id.Protein>
6NUR|6NUR_protein|mol2

> <Gold.PLP.Fitness>
42.4342

> <Gold.PLP.PLP>
-37.4950

> <Gold.PLP.part.hbond>
-2.0000

> <Gold.PLP.part.metal>
0.0000

> <Gold.PLP.part.buried>
-3.9169

> <Gold.PLP.part.nonpolar>
-32.6560

> <Gold.PLP.part.repulsive>
0.1656

> <Gold.PLP.ligand.clash>
0.0000

> <Gold.PLP.ligand.torsion>
1.5787

> <Gold.PLP.Chemscore.Hbond>
1.7680

> <Gold.PLP.Chemscore.CHOScore>
0.9254

> <Gold.PLP.Chemscore.Metal>
0.0000

> <Gold.Chemscore.Hbonds>
donor molecule, donor type, donor heavy atom, donor atom, acceptor molecule, acceptor atom, score
      L1  H     9    28       P1  8028  1.00
      P1  H  7989  7998       L1     1  0.77
      L1  C    17    32       P1  8028  0.93

> <Gold.PLP.Chemscore.Internal.Correction>
0.0165

> <Gold.Rescore>
     Score         DG    S(hbond)    S(metal)    S(lipo)     H(rot)  DE(clash)    DE(int)     intcor
     15.51     -17.02       1.77        0.00      92.94       2.05       0.31       1.20       ----

> <Gold.Chemscore.Fitness>
15.5117

> <Gold.Chemscore.DG>
-17.0232

> <Gold.Chemscore.ZeroCoef>
-5.4800

> <Gold.Chemscore.Hbond>
1.7685

> <Gold.Chemscore.Metal>
0.0000

> <Gold.Chemscore.Lipo>
92.9361

> <Gold.Chemscore.Internal_Hbond>
0.0000

> <Gold.Chemscore.DEClash>
0.3072

> <Gold.Chemscore.DEInternal>
1.2043

> <Gold.Chemscore.Rot>
2.0457

> <Gold.Chemscore.Internal.Correction>
   9.000000E+99

> <Gold.Chemscore.Hbonds>
donor molecule, donor type, donor heavy atom, donor atom, acceptor molecule, acceptor atom, score
      L1  H     9    28       P1  8028  0.95
      P1  H  7989  7998       L1     1  0.73

> <Gold.Chemscore.Hbond.Weighted>
-5.9068

> <Gold.Chemscore.Metal.Weighted>
-0.0000

> <Gold.Chemscore.Lipo.Weighted>
-10.8735

> <Gold.Chemscore.Internal_Hbond.Weighted>
0.0000

> <Gold.Chemscore.DEClash.Weighted>
0.3072

> <Gold.Chemscore.DEInternal.Weighted>
1.2043

> <Gold.Chemscore.Rot.Weighted>
5.2371

> <Gold.Chemscore.Internal.Correction.Weighted>
   9.000000E+99

> <Gold.Protein.RotatedTorsions>
[ 6907 6896 6895 6894 ] final  173.94 input  -60.11 | X-H torsion
[ 7974 7965 7964 7962 ] final  109.12 input  175.53 | X-H torsion
[ 8008 7997 7996 7995 ] final  -88.85 input   59.86 | X-H torsion
[ 10167 10162 10161 10158 ] final -102.25 input  -65.29 | X-H torsion
[ 10718 10713 10712 10709 ] final -157.70 input   66.30 | X-H torsion
[ 10763 10752 10751 10750 ] final   27.76 input  -60.55 | X-H torsion
[ 11005 11000 10999 10996 ] final  -14.03 input  -57.11 | X-H torsion

> <Gold.Protein.ActiveResidues>
 VAL166  LYS551  ARG553  GLY616  TRP617  ASP618  TYR619  PRO620  LYS621  CYS622 
 ASP623  PHE694  ASN695  SER759  ASP760  ASP761  ALA762  ILE779  LEU786  VAL792 
 PHE793  MET794  SER795  GLU796  ALA797  LYS798  CYS799  TRP800  GLU811  SER814 

> <Gold.Protein.RotatedAtoms>
  151.7603  133.3333  159.3415 H   0  0  0  0  0  0  0  0  0  0  0  0  # atno 6907 bound_to 6896
  150.7500  134.6111  159.6096 H   0  0  0  0  0  0  0  0  0  0  0  0  # atno 6908 bound_to 6896
  152.3409  134.7137  160.0315 H   0  0  0  0  0  0  0  0  0  0  0  0  # atno 6909 bound_to 6896
  145.2718  139.2664  143.3962 H   0  0  0  0  0  0  0  0  0  0  0  0  # atno 7974 bound_to 7965
  154.6796  140.0549  157.0252 H   0  0  0  0  0  0  0  0  0  0  0  0  # atno 8008 bound_to 7997
  155.0970  140.3225  155.4539 H   0  0  0  0  0  0  0  0  0  0  0  0  # atno 8009 bound_to 7997
  156.2689  140.2038  156.6097 H   0  0  0  0  0  0  0  0  0  0  0  0  # atno 8010 bound_to 7997
  140.2326  143.3595  152.0873 H   0  0  0  0  0  0  0  0  0  0  0  0  # atno 10167 bound_to 10162
  156.5439  130.8575  151.2758 H   0  0  0  0  0  0  0  0  0  0  0  0  # atno 10718 bound_to 10713
  153.0535  135.6529  154.0635 H   0  0  0  0  0  0  0  0  0  0  0  0  # atno 10763 bound_to 10752
  154.0318  135.2911  155.3369 H   0  0  0  0  0  0  0  0  0  0  0  0  # atno 10764 bound_to 10752
  154.6837  135.5310  153.8364 H   0  0  0  0  0  0  0  0  0  0  0  0  # atno 10765 bound_to 10752
  140.7822  133.8353  155.9303 H   0  0  0  0  0  0  0  0  0  0  0  0  # atno 11005 bound_to 11000
  146.3244  140.3163  142.8630 LP  0  0  0  0  0  0  0  0  0  0  0  0  # atno 17320 bound_to 7965
  144.9328  140.7994  143.5678 LP  0  0  0  0  0  0  0  0  0  0  0  0  # atno 17321 bound_to 7965
  139.5104  144.6884  151.5825 LP  0  0  0  0  0  0  0  0  0  0  0  0  # atno 17342 bound_to 10162
  140.6173  143.9324  150.6499 LP  0  0  0  0  0  0  0  0  0  0  0  0  # atno 17343 bound_to 10162
  157.7400  130.9842  150.2350 LP  0  0  0  0  0  0  0  0  0  0  0  0  # atno 17370 bound_to 10713
  156.2946  130.3750  149.7808 LP  0  0  0  0  0  0  0  0  0  0  0  0  # atno 17371 bound_to 10713
  140.9471  134.1826  157.4755 LP  0  0  0  0  0  0  0  0  0  0  0  0  # atno 17394 bound_to 11000
  139.8741  134.9895  156.5458 LP  0  0  0  0  0  0  0  0  0  0  0  0  # atno 17395 bound_to 11000

$$$$
