AV-unprocessed.smi:1703|AV-procd|sdf|6871|dock9
  -GOLD-   22720 8 73D 1   1.00000     0.00000
 Structure written by MMmdl.
 49 51  0  0  0  0  0  0  0  0  2 V2000
  148.6138  131.1796  154.2374 C   0  0  0  0  0  0  0  0  0  0  0  0
  147.3429  130.7786  153.4815 C   0  0  1  0  0  0  0  0  0  0  0  0
  146.8937  131.8644  152.4879 C   0  0  0  0  0  0  0  0  0  0  0  0
  145.7300  131.4472  151.7163 N   0  0  0  0  0  0  0  0  0  0  0  0
  145.2867  132.5087  150.8138 C   0  0  0  0  0  0  0  0  0  0  0  0
  144.3076  133.5268  151.4361 C   0  0  2  0  0  0  0  0  0  0  0  0
  143.7476  134.3203  150.4076 O   0  0  0  0  0  0  0  0  0  0  0  0
  145.0044  134.4499  152.4555 C   0  0  0  0  0  0  0  0  0  0  0  0
  144.3426  135.7591  152.5824 N   0  0  0  0  0  0  0  0  0  0  0  0
  144.8385  137.0109  152.3625 C   0  0  0  0  0  0  0  0  0  0  0  0
  146.2274  137.3530  151.9245 C   0  0  0  0  0  0  0  0  0  0  0  0
  146.3528  137.4951  150.5249 O   0  0  0  0  0  0  0  0  0  0  0  0
  143.8313  137.8932  152.6205 N   0  3  0  0  0  0  0  0  0  0  0  0
  142.6834  137.2028  153.0084 C   0  0  0  0  0  0  0  0  0  0  0  0
  141.4210  137.6657  153.3671 C   0  0  0  0  0  0  0  0  0  0  0  0
  140.4651  136.6898  153.7161 C   0  0  0  0  0  0  0  0  0  0  0  0
  140.7805  135.3158  153.7018 C   0  0  0  0  0  0  0  0  0  0  0  0
  142.0637  134.8585  153.3354 C   0  0  0  0  0  0  0  0  0  0  0  0
  143.0037  135.8295  152.9886 C   0  0  0  0  0  0  0  0  0  0  0  0
  146.0468  130.2070  151.0114 C   0  0  0  0  0  0  0  0  0  0  0  0
  146.5384  129.0929  151.9571 C   0  0  2  0  0  0  0  0  0  0  0  0
  145.4124  128.4710  152.8007 C   0  0  0  0  0  0  0  0  0  0  0  0
  147.6102  129.5702  152.7722 O   0  0  0  0  0  0  0  0  0  0  0  0
  148.4591  132.0967  154.8064 H   0  0  0  0  0  0  0  0  0  0  0  0
  149.4448  131.3470  153.5516 H   0  0  0  0  0  0  0  0  0  0  0  0
  148.9118  130.4001  154.9389 H   0  0  0  0  0  0  0  0  0  0  0  0
  146.5516  130.6029  154.2110 H   0  0  0  0  0  0  0  0  0  0  0  0
  146.6632  132.7777  153.0379 H   0  0  0  0  0  0  0  0  0  0  0  0
  147.7166  132.1066  151.8132 H   0  0  0  0  0  0  0  0  0  0  0  0
  146.1737  133.0598  150.4981 H   0  0  0  0  0  0  0  0  0  0  0  0
  144.8713  132.0852  149.8975 H   0  0  0  0  0  0  0  0  0  0  0  0
  143.5002  132.9970  151.9430 H   0  0  0  0  0  0  0  0  0  0  0  0
  142.8350  134.0932  150.3164 H   0  0  0  0  0  0  0  0  0  0  0  0
  144.9874  133.9890  153.4437 H   0  0  0  0  0  0  0  0  0  0  0  0
  146.0567  134.5922  152.2095 H   0  0  0  0  0  0  0  0  0  0  0  0
  146.5334  138.2844  152.4009 H   0  0  0  0  0  0  0  0  0  0  0  0
  146.9123  136.5746  152.2614 H   0  0  0  0  0  0  0  0  0  0  0  0
  145.5868  137.9429  150.1986 H   0  0  0  0  0  0  0  0  0  0  0  0
  141.1784  138.7182  153.3806 H   0  0  0  0  0  0  0  0  0  0  0  0
  139.4707  137.0013  154.0018 H   0  0  0  0  0  0  0  0  0  0  0  0
  140.0226  134.5970  153.9786 H   0  0  0  0  0  0  0  0  0  0  0  0
  142.2917  133.8033  153.3334 H   0  0  0  0  0  0  0  0  0  0  0  0
  145.1765  129.8466  150.4635 H   0  0  0  0  0  0  0  0  0  0  0  0
  146.8195  130.4028  150.2664 H   0  0  0  0  0  0  0  0  0  0  0  0
  146.9532  128.2925  151.3439 H   0  0  0  0  0  0  0  0  0  0  0  0
  144.6592  128.0106  152.1609 H   0  0  0  0  0  0  0  0  0  0  0  0
  144.9047  129.2116  153.4187 H   0  0  0  0  0  0  0  0  0  0  0  0
  145.8035  127.6963  153.4603 H   0  0  0  0  0  0  0  0  0  0  0  0
  143.9314  138.8967  152.5360 H   0  0  0  0  0  0  0  0  0  0  0  0
  1  2  1  0  0  0  0
  1 24  1  0  0  0  0
  1 25  1  0  0  0  0
  1 26  1  0  0  0  0
  2 23  1  0  0  0  0
  2  3  1  0  0  0  0
  2 27  1  0  0  0  0
  3  4  1  0  0  0  0
  3 28  1  0  0  0  0
  3 29  1  0  0  0  0
  4  5  1  0  0  0  0
  4 20  1  0  0  0  0
  5  6  1  0  0  0  0
  5 30  1  0  0  0  0
  5 31  1  0  0  0  0
  6  7  1  0  0  0  0
  6  8  1  0  0  0  0
  6 32  1  0  0  0  0
  7 33  1  0  0  0  0
  8  9  1  0  0  0  0
  8 34  1  0  0  0  0
  8 35  1  0  0  0  0
  9 19  1  0  0  0  0
  9 10  1  0  0  0  0
 10 11  1  0  0  0  0
 10 13  2  0  0  0  0
 11 12  1  0  0  0  0
 11 36  1  0  0  0  0
 11 37  1  0  0  0  0
 12 38  1  0  0  0  0
 13 14  1  0  0  0  0
 13 49  1  0  0  0  0
 14 19  2  0  0  0  0
 14 15  1  0  0  0  0
 15 16  2  0  0  0  0
 15 39  1  0  0  0  0
 16 17  1  0  0  0  0
 16 40  1  0  0  0  0
 17 18  2  0  0  0  0
 17 41  1  0  0  0  0
 18 19  1  0  0  0  0
 18 42  1  0  0  0  0
 20 21  1  0  0  0  0
 20 43  1  0  0  0  0
 20 44  1  0  0  0  0
 21 22  1  0  0  0  0
 21 23  1  0  0  0  0
 21 45  1  0  0  0  0
 22 46  1  0  0  0  0
 22 47  1  0  0  0  0
 22 48  1  0  0  0  0
M  CHG  1  13   1
M  END
> <s_m_source_file>
AV-unprocessed.smi

> <i_m_source_file_index>
1703

> <i_lp_mmshare_version>
43012

> <i_f3d_flags>
0

> <s_epik_input>
W0NIM11bQ0BASF0xW0NIMl1OKFtDSDJdW0NASF0oTzEpW0NIM10pW0NIMl1bQ0BIXShbT0hdKVtDSDJdbihjKG4yKVtDSDJdW09IXSljKGMyMylbY0hdW2NIXVtjSF1bY0hdMw==

> <s_epik_cmdline>
J2VwaWtfcHl0aG9uJywgJy1waCcsICc3LjAnLCAnLXRuJywgJzgnLCAnLW1hJywgJzIwMCcsICctbWV0YWxfYmluZGluZycsICctaW1hZScsICc8aW5maWxlLm1hZT4nLCAnLW9tYWUnLCAnPG91dGZpbGUubWFlPic=

> <r_epik_Ionization_Penalty>
1.7682

> <r_epik_Ionization_Penalty_Charging>
1.55298

> <r_epik_Ionization_Penalty_Neutral>
0.215215

> <r_epik_State_Penalty>
1.83821

> <r_epik_Charging_Adjusted_Penalty>
3.39119

> <i_epik_Tot_Q>
1

> <i_epik_Tot_abs_Q>
1

> <r_epik_Metal_State_Penalty>
5.89206

> <b_epik_Metal_Only>
0

> <s_lp_Force_Field>
OPLS_2005

> <r_lp_Energy>
35.0588

> <b_lp_Chiralities_Consistent>
1

> <s_lp_Variant>
AV-unprocessed.smi:1703-19

> <Gold.Version>
5.8.1

> <Gold.Id.Protein>
6NUR|6NUR_protein|mol2

> <Gold.PLP.Fitness>
53.6618

> <Gold.PLP.PLP>
-40.8251

> <Gold.PLP.part.hbond>
-5.8883

> <Gold.PLP.part.metal>
0.0000

> <Gold.PLP.part.buried>
-2.4106

> <Gold.PLP.part.nonpolar>
-34.1225

> <Gold.PLP.part.repulsive>
1.1310

> <Gold.PLP.ligand.clash>
0.0000

> <Gold.PLP.ligand.torsion>
1.0912

> <Gold.PLP.Chemscore.Hbond>
5.0000

> <Gold.PLP.Chemscore.CHOScore>
0.0000

> <Gold.PLP.Chemscore.Metal>
0.0000

> <Gold.Chemscore.Hbonds>
donor molecule, donor type, donor heavy atom, donor atom, acceptor molecule, acceptor atom, score
      L1  H     7    33       P1 10186  1.00
      L1  H    12    38       P1 10171  1.00
      L1  H    13    49       P1 10175  2.00
      P1  H  7954  7966       L1    12  0.93

> <Gold.PLP.Chemscore.Internal.Correction>
0.0192

> <Gold.Rescore>
     Score         DG    S(hbond)    S(metal)    S(lipo)     H(rot)  DE(clash)    DE(int)     intcor
     20.31     -22.92       3.74        0.00     106.85       2.96       1.66       0.96       ----

> <Gold.Chemscore.Fitness>
20.3054

> <Gold.Chemscore.DG>
-22.9175

> <Gold.Chemscore.ZeroCoef>
-5.4800

> <Gold.Chemscore.Hbond>
3.7432

> <Gold.Chemscore.Metal>
0.0000

> <Gold.Chemscore.Lipo>
106.8493

> <Gold.Chemscore.Internal_Hbond>
0.0000

> <Gold.Chemscore.DEClash>
1.6551

> <Gold.Chemscore.DEInternal>
0.9570

> <Gold.Chemscore.Rot>
2.9555

> <Gold.Chemscore.Internal.Correction>
   9.000000E+99

> <Gold.Chemscore.Hbonds>
donor molecule, donor type, donor heavy atom, donor atom, acceptor molecule, acceptor atom, score
      L1  H     7    33       P1 10186  0.85
      L1  H    12    38       P1 10171  1.00
      L1  H    13    49       P1 10175  0.97
      P1  H  7954  7966       L1    12  0.82

> <Gold.Chemscore.Hbond.Weighted>
-12.5021

> <Gold.Chemscore.Metal.Weighted>
-0.0000

> <Gold.Chemscore.Lipo.Weighted>
-12.5014

> <Gold.Chemscore.Internal_Hbond.Weighted>
0.0000

> <Gold.Chemscore.DEClash.Weighted>
1.6551

> <Gold.Chemscore.DEInternal.Weighted>
0.9570

> <Gold.Chemscore.Rot.Weighted>
7.5660

> <Gold.Chemscore.Internal.Correction.Weighted>
   9.000000E+99

> <Gold.Protein.RotatedTorsions>
[ 6907 6896 6895 6894 ] final  -84.44 input  -60.11 | X-H torsion
[ 7974 7965 7964 7962 ] final  127.44 input  175.53 | X-H torsion
[ 8008 7997 7996 7995 ] final  100.96 input   59.86 | X-H torsion
[ 10167 10162 10161 10158 ] final  177.23 input  -65.29 | X-H torsion
[ 10718 10713 10712 10709 ] final   52.74 input   66.30 | X-H torsion
[ 10763 10752 10751 10750 ] final  159.18 input  -60.55 | X-H torsion
[ 11005 11000 10999 10996 ] final  -28.42 input  -57.11 | X-H torsion

> <Gold.Protein.ActiveResidues>
 VAL166  LYS551  ARG553  GLY616  TRP617  ASP618  TYR619  PRO620  LYS621  CYS622 
 ASP623  PHE694  ASN695  SER759  ASP760  ASP761  ALA762  ILE779  LEU786  VAL792 
 PHE793  MET794  SER795  GLU796  ALA797  LYS798  CYS799  TRP800  GLU811  SER814 

> <Gold.Protein.RotatedAtoms>
  150.6876  134.3358  159.4846 H   0  0  0  0  0  0  0  0  0  0  0  0  # atno 6907 bound_to 6896
  152.1217  134.9198  160.0572 H   0  0  0  0  0  0  0  0  0  0  0  0  # atno 6908 bound_to 6896
  152.0402  133.3939  159.4370 H   0  0  0  0  0  0  0  0  0  0  0  0  # atno 6909 bound_to 6896
  145.0505  139.3887  143.5056 H   0  0  0  0  0  0  0  0  0  0  0  0  # atno 7974 bound_to 7965
  156.1253  140.3205  155.8268 H   0  0  0  0  0  0  0  0  0  0  0  0  # atno 8008 bound_to 7997
  155.4430  140.0527  157.3025 H   0  0  0  0  0  0  0  0  0  0  0  0  # atno 8009 bound_to 7997
  154.4858  140.2072  155.9672 H   0  0  0  0  0  0  0  0  0  0  0  0  # atno 8010 bound_to 7997
  139.5245  144.2822  152.0537 H   0  0  0  0  0  0  0  0  0  0  0  0  # atno 10167 bound_to 10162
  157.5103  130.8496  149.8426 H   0  0  0  0  0  0  0  0  0  0  0  0  # atno 10718 bound_to 10713
  154.2277  135.2779  155.2901 H   0  0  0  0  0  0  0  0  0  0  0  0  # atno 10763 bound_to 10752
  154.5650  135.5635  153.7045 H   0  0  0  0  0  0  0  0  0  0  0  0  # atno 10764 bound_to 10752
  153.0027  135.6307  154.2418 H   0  0  0  0  0  0  0  0  0  0  0  0  # atno 10765 bound_to 10752
  140.9206  133.7401  156.0797 H   0  0  0  0  0  0  0  0  0  0  0  0  # atno 11005 bound_to 11000
  146.3517  140.0153  142.8663 LP  0  0  0  0  0  0  0  0  0  0  0  0  # atno 17320 bound_to 7965
  145.1533  140.9634  143.4420 LP  0  0  0  0  0  0  0  0  0  0  0  0  # atno 17321 bound_to 7965
  140.2277  144.4401  150.6314 LP  0  0  0  0  0  0  0  0  0  0  0  0  # atno 17342 bound_to 10162
  140.6376  143.2197  151.6360 LP  0  0  0  0  0  0  0  0  0  0  0  0  # atno 17343 bound_to 10162
  156.0284  130.3772  150.1756 LP  0  0  0  0  0  0  0  0  0  0  0  0  # atno 17370 bound_to 10713
  156.9945  130.9903  151.3406 LP  0  0  0  0  0  0  0  0  0  0  0  0  # atno 17371 bound_to 10713
  140.7992  134.3528  157.5444 LP  0  0  0  0  0  0  0  0  0  0  0  0  # atno 17394 bound_to 11000
  139.8775  134.9187  156.3210 LP  0  0  0  0  0  0  0  0  0  0  0  0  # atno 17395 bound_to 11000

$$$$
