AV-unprocessed.smi:2784|AV-procd|sdf|10732|dock5
  -GOLD-   2272015173D 1   1.00000     0.00000
 Structure written by MMmdl.
 32 33  0  0  0  0  0  0  0  0  2 V2000
  147.9501  132.6904  153.0274 C   0  0  0  0  0  0  0  0  0  0  0  0
  147.3616  133.9169  152.6238 O   0  0  0  0  0  0  0  0  0  0  0  0
  145.9530  133.9782  152.8348 C   0  0  2  0  0  0  0  0  0  0  0  0
  145.2607  132.9622  151.9192 C   0  0  0  0  0  0  0  0  0  0  0  0
  145.1775  133.6718  150.5713 C   0  0  0  0  0  0  0  0  0  0  0  0
  144.9069  135.1381  150.9187 C   0  0  0  0  0  0  0  0  0  0  0  0
  145.4065  135.3458  152.3619 C   0  0  2  0  0  0  0  0  0  0  0  0
  146.4010  136.4152  152.4274 N   0  0  0  0  0  0  0  0  0  0  0  0
  146.1841  137.6280  152.9559 C   0  0  0  0  0  0  0  0  0  0  0  0
  145.1041  137.9828  153.4292 O   0  0  0  0  0  0  0  0  0  0  0  0
  147.2852  138.3927  152.9081 N   0  0  0  0  0  0  0  0  0  0  0  0
  147.3892  139.7176  153.3899 C   0  0  0  0  0  0  0  0  0  0  0  0
  146.4605  140.6543  153.2032 N   0  3  0  0  0  0  0  0  0  0  0  0
  146.8808  141.8167  153.8007 C   0  0  0  0  0  0  0  0  0  0  0  0
  148.1060  141.5304  154.3536 C   0  0  0  0  0  0  0  0  0  0  0  0
  148.4394  140.2145  154.1035 O   0  0  0  0  0  0  0  0  0  0  0  0
  149.0208  132.7181  152.8257 H   0  0  0  0  0  0  0  0  0  0  0  0
  147.5312  131.8409  152.4884 H   0  0  0  0  0  0  0  0  0  0  0  0
  147.8165  132.5255  154.0973 H   0  0  0  0  0  0  0  0  0  0  0  0
  145.7153  133.8149  153.8875 H   0  0  0  0  0  0  0  0  0  0  0  0
  145.7751  132.0036  151.8562 H   0  0  0  0  0  0  0  0  0  0  0  0
  144.2527  132.7679  152.2883 H   0  0  0  0  0  0  0  0  0  0  0  0
  146.1356  133.5870  150.0567 H   0  0  0  0  0  0  0  0  0  0  0  0
  144.4126  133.2471  149.9205 H   0  0  0  0  0  0  0  0  0  0  0  0
  145.3879  135.8031  150.1999 H   0  0  0  0  0  0  0  0  0  0  0  0
  143.8359  135.3390  150.8713 H   0  0  0  0  0  0  0  0  0  0  0  0
  144.5468  135.6170  152.9778 H   0  0  0  0  0  0  0  0  0  0  0  0
  147.3187  136.2027  152.0643 H   0  0  0  0  0  0  0  0  0  0  0  0
  145.5809  140.5659  152.7099 H   0  0  0  0  0  0  0  0  0  0  0  0
  146.2789  142.7138  153.7737 H   0  0  0  0  0  0  0  0  0  0  0  0
  148.8235  142.1076  154.9186 H   0  0  0  0  0  0  0  0  0  0  0  0
  148.1165  137.9934  152.4980 H   0  0  0  0  0  0  0  0  0  0  0  0
  1  2  1  0  0  0  0
  1 17  1  0  0  0  0
  1 18  1  0  0  0  0
  1 19  1  0  0  0  0
  2  3  1  0  0  0  0
  3  7  1  0  0  0  0
  3  4  1  0  0  0  0
  3 20  1  0  0  0  0
  4  5  1  0  0  0  0
  4 21  1  0  0  0  0
  4 22  1  0  0  0  0
  5  6  1  0  0  0  0
  5 23  1  0  0  0  0
  5 24  1  0  0  0  0
  6  7  1  0  0  0  0
  6 25  1  0  0  0  0
  6 26  1  0  0  0  0
  7  8  1  0  0  0  0
  7 27  1  0  0  0  0
  8 28  1  0  0  0  0
  8  9  1  0  0  0  0
  9 11  1  0  0  0  0
  9 10  2  0  0  0  0
 11 12  1  0  0  0  0
 11 32  1  0  0  0  0
 12 16  1  0  0  0  0
 12 13  2  0  0  0  0
 13 29  1  0  0  0  0
 13 14  1  0  0  0  0
 14 30  1  0  0  0  0
 14 15  2  0  0  0  0
 15 31  1  0  0  0  0
 15 16  1  0  0  0  0
M  CHG  1  13   1
M  END
> <s_m_source_file>
AV-unprocessed.smi

> <i_m_source_file_index>
2784

> <i_lp_mmshare_version>
43012

> <i_f3d_flags>
0

> <s_epik_input>
W0NIM11PW0NAQEhdMVtDSDJdW0NIMl1bQ0gyXVtDQEhdMVtOSF1DKD1PKVtOSF1jMm5bY0hdW2NIXW8y

> <s_epik_cmdline>
J2VwaWtfcHl0aG9uJywgJy1waCcsICc3LjAnLCAnLXRuJywgJzgnLCAnLW1hJywgJzIwMCcsICctbWV0YWxfYmluZGluZycsICctaW1hZScsICc8aW5maWxlLm1hZT4nLCAnLW9tYWUnLCAnPG91dGZpbGUubWFlPic=

> <r_epik_Ionization_Penalty>
6.73843

> <r_epik_Ionization_Penalty_Charging>
6.66704

> <r_epik_Ionization_Penalty_Neutral>
0.0713889

> <r_epik_State_Penalty>
1.94951

> <r_epik_Charging_Adjusted_Penalty>
8.61656

> <i_epik_Tot_Q>
1

> <i_epik_Tot_abs_Q>
1

> <r_epik_Metal_State_Penalty>
1.97013

> <b_epik_Metal_Only>
0

> <s_lp_Force_Field>
OPLS_2005

> <r_lp_Energy>
28.2598

> <b_lp_Chiralities_Consistent>
1

> <s_lp_Variant>
AV-unprocessed.smi:2784-7

> <Gold.Version>
5.8.1

> <Gold.Id.Protein>
6NUR|6NUR_protein|mol2

> <Gold.PLP.Fitness>
37.0062

> <Gold.PLP.PLP>
-24.6026

> <Gold.PLP.part.hbond>
-3.0400

> <Gold.PLP.part.metal>
0.0000

> <Gold.PLP.part.buried>
-5.2586

> <Gold.PLP.part.nonpolar>
-18.8963

> <Gold.PLP.part.repulsive>
2.9461

> <Gold.PLP.ligand.clash>
0.0000

> <Gold.PLP.ligand.torsion>
0.4990

> <Gold.PLP.Chemscore.Hbond>
3.8960

> <Gold.PLP.Chemscore.CHOScore>
0.5676

> <Gold.PLP.Chemscore.Metal>
0.0000

> <Gold.Chemscore.Hbonds>
donor molecule, donor type, donor heavy atom, donor atom, acceptor molecule, acceptor atom, score
      L1  H     8    28       P1  7948  1.00
      L1  H    11    32       P1  7948  0.90
      L1  H    13    29       P1 10175  2.00
      L1  C    15    31       P1  8028  0.57

> <Gold.PLP.Chemscore.Internal.Correction>
0.0108

> <Gold.Rescore>
     Score         DG    S(hbond)    S(metal)    S(lipo)     H(rot)  DE(clash)    DE(int)     intcor
     16.71     -17.07       2.93        0.00      44.49       1.34       0.02       0.33       ----

> <Gold.Chemscore.Fitness>
16.7127

> <Gold.Chemscore.DG>
-17.0658

> <Gold.Chemscore.ZeroCoef>
-5.4800

> <Gold.Chemscore.Hbond>
2.9334

> <Gold.Chemscore.Metal>
0.0000

> <Gold.Chemscore.Lipo>
44.4938

> <Gold.Chemscore.Internal_Hbond>
0.0000

> <Gold.Chemscore.DEClash>
0.0222

> <Gold.Chemscore.DEInternal>
0.3309

> <Gold.Chemscore.Rot>
1.3351

> <Gold.Chemscore.Internal.Correction>
   9.000000E+99

> <Gold.Chemscore.Hbonds>
donor molecule, donor type, donor heavy atom, donor atom, acceptor molecule, acceptor atom, score
      L1  H     8    28       P1  7948  0.99
      L1  H    11    32       P1  7948  0.81
      L1  H    13    29       P1 10175  0.60

> <Gold.Chemscore.Hbond.Weighted>
-9.7977

> <Gold.Chemscore.Metal.Weighted>
-0.0000

> <Gold.Chemscore.Lipo.Weighted>
-5.2058

> <Gold.Chemscore.Internal_Hbond.Weighted>
0.0000

> <Gold.Chemscore.DEClash.Weighted>
0.0222

> <Gold.Chemscore.DEInternal.Weighted>
0.3309

> <Gold.Chemscore.Rot.Weighted>
3.4177

> <Gold.Chemscore.Internal.Correction.Weighted>
   9.000000E+99

> <Gold.Protein.RotatedTorsions>
[ 6907 6896 6895 6894 ] final  156.17 input  -60.11 | X-H torsion
[ 7974 7965 7964 7962 ] final -166.07 input  175.53 | X-H torsion
[ 8008 7997 7996 7995 ] final  168.93 input   59.86 | X-H torsion
[ 10167 10162 10161 10158 ] final   91.42 input  -65.29 | X-H torsion
[ 10718 10713 10712 10709 ] final   58.22 input   66.30 | X-H torsion
[ 10763 10752 10751 10750 ] final   98.59 input  -60.55 | X-H torsion
[ 11005 11000 10999 10996 ] final  -43.87 input  -57.11 | X-H torsion

> <Gold.Protein.ActiveResidues>
 VAL166  LYS551  ARG553  GLY616  TRP617  ASP618  TYR619  PRO620  LYS621  CYS622 
 ASP623  PHE694  ASN695  SER759  ASP760  ASP761  ALA762  ILE779  LEU786  VAL792 
 PHE793  MET794  SER795  GLU796  ALA797  LYS798  CYS799  TRP800  GLU811  SER814 

> <Gold.Protein.RotatedAtoms>
  152.0335  133.3947  159.4306 H   0  0  0  0  0  0  0  0  0  0  0  0  # atno 6907 bound_to 6896
  150.6880  134.3494  159.4912 H   0  0  0  0  0  0  0  0  0  0  0  0  # atno 6908 bound_to 6896
  152.1283  134.9153  160.0610 H   0  0  0  0  0  0  0  0  0  0  0  0  # atno 6909 bound_to 6896
  144.7254  140.2721  143.6249 H   0  0  0  0  0  0  0  0  0  0  0  0  # atno 7974 bound_to 7965
  156.1503  140.1577  156.8780 H   0  0  0  0  0  0  0  0  0  0  0  0  # atno 8008 bound_to 7997
  154.5065  140.0812  156.7942 H   0  0  0  0  0  0  0  0  0  0  0  0  # atno 8009 bound_to 7997
  155.3909  140.3410  155.4253 H   0  0  0  0  0  0  0  0  0  0  0  0  # atno 8010 bound_to 7997
  139.8376  144.6657  150.9323 H   0  0  0  0  0  0  0  0  0  0  0  0  # atno 10167 bound_to 10162
  157.5578  130.8813  149.9064 H   0  0  0  0  0  0  0  0  0  0  0  0  # atno 10718 bound_to 10713
  153.2909  135.4143  155.1166 H   0  0  0  0  0  0  0  0  0  0  0  0  # atno 10763 bound_to 10752
  154.8520  135.3518  154.5983 H   0  0  0  0  0  0  0  0  0  0  0  0  # atno 10764 bound_to 10752
  153.6405  135.7057  153.5301 H   0  0  0  0  0  0  0  0  0  0  0  0  # atno 10765 bound_to 10752
  141.0412  133.6779  156.2793 H   0  0  0  0  0  0  0  0  0  0  0  0  # atno 11005 bound_to 11000
  145.8032  139.1973  143.2036 LP  0  0  0  0  0  0  0  0  0  0  0  0  # atno 17320 bound_to 7965
  146.0658  140.7922  142.9712 LP  0  0  0  0  0  0  0  0  0  0  0  0  # atno 17321 bound_to 7965
  140.7801  143.3942  151.1257 LP  0  0  0  0  0  0  0  0  0  0  0  0  # atno 17342 bound_to 10162
  139.7591  143.8662  152.3096 LP  0  0  0  0  0  0  0  0  0  0  0  0  # atno 17343 bound_to 10162
  156.0635  130.3696  150.0930 LP  0  0  0  0  0  0  0  0  0  0  0  0  # atno 17370 bound_to 10713
  156.9097  130.9647  151.3565 LP  0  0  0  0  0  0  0  0  0  0  0  0  # atno 17371 bound_to 10713
  140.6230  134.5342  157.5550 LP  0  0  0  0  0  0  0  0  0  0  0  0  # atno 17394 bound_to 11000
  139.9277  134.8023  156.1019 LP  0  0  0  0  0  0  0  0  0  0  0  0  # atno 17395 bound_to 11000

$$$$
