AV-unprocessed.smi:652|AV-procd|sdf|3201|dock6
  -GOLD-   22720 0133D 1   1.00000     0.00000
 Structure written by MMmdl.
 49 50  0  0  0  0  0  0  0  0  3 V2000
  152.8931  141.0227  160.1806 C   0  0  0  0  0  0  0  0  0  0  0  0
  152.8089  142.1039  159.0951 C   0  0  0  0  0  0  0  0  0  0  0  0
  152.6936  143.5100  159.7051 C   0  0  0  0  0  0  0  0  0  0  0  0
  151.6710  141.8275  158.2223 N   0  0  0  0  0  0  0  0  0  0  0  0
  151.5806  140.7998  157.3636 C   0  0  0  0  0  0  0  0  0  0  0  0
  152.4725  139.9642  157.2136 O   0  0  0  0  0  0  0  0  0  0  0  0
  150.2856  140.7188  156.5482 C   0  0  0  0  0  0  0  0  0  0  0  0
  150.4959  140.1738  155.1196 C   0  0  0  0  0  0  0  0  0  0  0  0
  149.2873  140.3159  154.2692 N   0  3  2  0  0  0  0  0  0  0  0  0
  148.5003  141.5236  154.6132 C   0  0  0  0  0  0  0  0  0  0  0  0
  147.2835  141.6573  153.6841 C   0  0  0  0  0  0  0  0  0  0  0  0
  146.4919  140.4788  153.7675 O   0  0  0  0  0  0  0  0  0  0  0  0
  147.1983  139.3188  153.3427 C   0  0  2  0  0  0  0  0  0  0  0  0
  146.2123  138.1400  153.3849 C   0  0  0  0  0  0  0  0  0  0  0  0
  146.6986  136.9888  152.6382 N   0  0  0  0  0  0  0  0  0  0  0  0
  145.8041  136.0545  152.0996 C   0  0  0  0  0  0  0  0  0  0  0  0
  144.3977  136.1381  152.2246 C   0  0  0  0  0  0  0  0  0  0  0  0
  143.6155  135.1311  151.6341 C   0  0  0  0  0  0  0  0  0  0  0  0
  144.2862  134.1001  150.9528 C   0  0  0  0  0  0  0  0  0  0  0  0
  145.6322  134.0380  150.8447 N   0  0  0  0  0  0  0  0  0  0  0  0
  146.3531  135.0162  151.4204 N   0  3  0  0  0  0  0  0  0  0  0  0
  148.4158  139.1139  154.2700 C   0  0  0  0  0  0  0  0  0  0  0  0
  153.7544  141.1855  160.8290 H   0  0  0  0  0  0  0  0  0  0  0  0
  152.9965  140.0302  159.7410 H   0  0  0  0  0  0  0  0  0  0  0  0
  152.0013  141.0186  160.8083 H   0  0  0  0  0  0  0  0  0  0  0  0
  153.7266  142.0545  158.5059 H   0  0  0  0  0  0  0  0  0  0  0  0
  153.5395  143.7223  160.3595 H   0  0  0  0  0  0  0  0  0  0  0  0
  151.7829  143.6140  160.2957 H   0  0  0  0  0  0  0  0  0  0  0  0
  152.6790  144.2790  158.9321 H   0  0  0  0  0  0  0  0  0  0  0  0
  150.8930  142.4687  158.2793 H   0  0  0  0  0  0  0  0  0  0  0  0
  149.5833  140.0773  157.0828 H   0  0  0  0  0  0  0  0  0  0  0  0
  149.8466  141.7160  156.5205 H   0  0  0  0  0  0  0  0  0  0  0  0
  151.3446  140.6627  154.6379 H   0  0  0  0  0  0  0  0  0  0  0  0
  150.7454  139.1131  155.1859 H   0  0  0  0  0  0  0  0  0  0  0  0
  148.1718  141.4628  155.6520 H   0  0  0  0  0  0  0  0  0  0  0  0
  149.1259  142.4128  154.5262 H   0  0  0  0  0  0  0  0  0  0  0  0
  146.6763  142.5123  153.9818 H   0  0  0  0  0  0  0  0  0  0  0  0
  147.5953  141.8316  152.6530 H   0  0  0  0  0  0  0  0  0  0  0  0
  147.5315  139.4676  152.3136 H   0  0  0  0  0  0  0  0  0  0  0  0
  146.0167  137.8543  154.4192 H   0  0  0  0  0  0  0  0  0  0  0  0
  145.2607  138.4512  152.9519 H   0  0  0  0  0  0  0  0  0  0  0  0
  147.6914  136.8831  152.4877 H   0  0  0  0  0  0  0  0  0  0  0  0
  143.9172  136.9464  152.7552 H   0  0  0  0  0  0  0  0  0  0  0  0
  142.5377  135.1472  151.7001 H   0  0  0  0  0  0  0  0  0  0  0  0
  143.7301  133.3032  150.4811 H   0  0  0  0  0  0  0  0  0  0  0  0
  148.9807  138.2438  153.9377 H   0  0  0  0  0  0  0  0  0  0  0  0
  148.0823  138.9083  155.2886 H   0  0  0  0  0  0  0  0  0  0  0  0
  149.6123  140.4497  153.3222 H   0  0  0  0  0  0  0  0  0  0  0  0
  147.3694  134.9751  151.3414 H   0  0  0  0  0  0  0  0  0  0  0  0
  1  2  1  0  0  0  0
  1 23  1  0  0  0  0
  1 24  1  0  0  0  0
  1 25  1  0  0  0  0
  2  3  1  0  0  0  0
  2  4  1  0  0  0  0
  2 26  1  0  0  0  0
  3 27  1  0  0  0  0
  3 28  1  0  0  0  0
  3 29  1  0  0  0  0
  4  5  1  0  0  0  0
  4 30  1  0  0  0  0
  5  6  2  0  0  0  0
  5  7  1  0  0  0  0
  7  8  1  0  0  0  0
  7 31  1  0  0  0  0
  7 32  1  0  0  0  0
  8  9  1  0  0  0  0
  8 33  1  0  0  0  0
  8 34  1  0  0  0  0
  9 22  1  0  0  0  0
  9 10  1  0  0  0  0
  9 48  1  0  0  0  0
 10 11  1  0  0  0  0
 10 35  1  0  0  0  0
 10 36  1  0  0  0  0
 11 12  1  0  0  0  0
 11 37  1  0  0  0  0
 11 38  1  0  0  0  0
 12 13  1  0  0  0  0
 13 14  1  0  0  0  0
 13 22  1  0  0  0  0
 13 39  1  0  0  0  0
 14 15  1  0  0  0  0
 14 40  1  0  0  0  0
 14 41  1  0  0  0  0
 15 16  1  0  0  0  0
 15 42  1  0  0  0  0
 16 21  1  0  0  0  0
 16 17  2  0  0  0  0
 17 18  1  0  0  0  0
 17 43  1  0  0  0  0
 18 19  2  0  0  0  0
 18 44  1  0  0  0  0
 19 20  1  0  0  0  0
 19 45  1  0  0  0  0
 20 21  2  0  0  0  0
 21 49  1  0  0  0  0
 22 46  1  0  0  0  0
 22 47  1  0  0  0  0
M  CHG  1   9   1
M  CHG  1  21   1
M  END
> <s_m_source_file>
AV-unprocessed.smi

> <i_m_source_file_index>
652

> <i_lp_mmshare_version>
43012

> <i_f3d_flags>
0

> <s_epik_input>
W0NIM11bQ0hdKFtDSDNdKVtOSF1DKD1PKVtDSDJdW0NIMl1OMVtDSDJdW0NIMl1PW0NASF0oW0NIMl0xKVtDSDJdW05IXWMyW2NIXVtjSF1bY0hdbm4y

> <s_epik_cmdline>
J2VwaWtfcHl0aG9uJywgJy1waCcsICc3LjAnLCAnLXRuJywgJzgnLCAnLW1hJywgJzIwMCcsICctbWV0YWxfYmluZGluZycsICctaW1hZScsICc8aW5maWxlLm1hZT4nLCAnLW9tYWUnLCAnPG91dGZpbGUubWFlPic=

> <r_lp_tautomer_probability>
0.966961

> <r_epik_Ionization_Penalty>
2.79885

> <r_epik_Ionization_Penalty_Charging>
2.79884

> <r_epik_Ionization_Penalty_Neutral>
3.2567e-06

> <r_epik_State_Penalty>
2.43203

> <r_epik_Charging_Adjusted_Penalty>
5.23087

> <i_epik_Tot_Q>
2

> <i_epik_Tot_abs_Q>
2

> <r_epik_Metal_State_Penalty>
2.43963

> <b_epik_Metal_Only>
0

> <s_lp_Force_Field>
OPLS_2005

> <r_lp_Energy>
30.0621

> <b_lp_Chiralities_Consistent>
1

> <s_lp_Variant>
AV-unprocessed.smi:652-10

> <Gold.Version>
5.8.1

> <Gold.Id.Protein>
6NUR|6NUR_protein|mol2

> <Gold.PLP.Fitness>
51.1448

> <Gold.PLP.PLP>
-37.4489

> <Gold.PLP.part.hbond>
-3.8439

> <Gold.PLP.part.metal>
0.0000

> <Gold.PLP.part.buried>
-3.9126

> <Gold.PLP.part.nonpolar>
-30.3765

> <Gold.PLP.part.repulsive>
1.2159

> <Gold.PLP.ligand.clash>
0.0000

> <Gold.PLP.ligand.torsion>
1.1707

> <Gold.PLP.Chemscore.Hbond>
5.3160

> <Gold.PLP.Chemscore.CHOScore>
0.0000

> <Gold.PLP.Chemscore.Metal>
0.0000

> <Gold.Chemscore.Hbonds>
donor molecule, donor type, donor heavy atom, donor atom, acceptor molecule, acceptor atom, score
      L1  H     9    48       P1  7957  0.59
      L1  H    15    42       P1  7948  2.00
      L1  H    21    49       P1  7948  1.47
      P1  H  7997  8008       L1     6  1.00

> <Gold.PLP.Chemscore.Internal.Correction>
0.0893

> <Gold.Rescore>
     Score         DG    S(hbond)    S(metal)    S(lipo)     H(rot)  DE(clash)    DE(int)     intcor
     18.72     -21.09       3.30        0.00      90.08       2.33       1.29       1.08       ----

> <Gold.Chemscore.Fitness>
18.7150

> <Gold.Chemscore.DG>
-21.0860

> <Gold.Chemscore.ZeroCoef>
-5.4800

> <Gold.Chemscore.Hbond>
3.3049

> <Gold.Chemscore.Metal>
0.0000

> <Gold.Chemscore.Lipo>
90.0759

> <Gold.Chemscore.Internal_Hbond>
0.0000

> <Gold.Chemscore.DEClash>
1.2887

> <Gold.Chemscore.DEInternal>
1.0823

> <Gold.Chemscore.Rot>
2.3326

> <Gold.Chemscore.Internal.Correction>
   9.000000E+99

> <Gold.Chemscore.Hbonds>
donor molecule, donor type, donor heavy atom, donor atom, acceptor molecule, acceptor atom, score
      L1  H     9    48       P1  7957  0.57
      L1  H    15    42       P1  7948  0.92
      L1  H    21    49       P1  7948  0.38
      P1  H  7997  8008       L1     6  0.95

> <Gold.Chemscore.Hbond.Weighted>
-11.0385

> <Gold.Chemscore.Metal.Weighted>
-0.0000

> <Gold.Chemscore.Lipo.Weighted>
-10.5389

> <Gold.Chemscore.Internal_Hbond.Weighted>
0.0000

> <Gold.Chemscore.DEClash.Weighted>
1.2887

> <Gold.Chemscore.DEInternal.Weighted>
1.0823

> <Gold.Chemscore.Rot.Weighted>
5.9714

> <Gold.Chemscore.Internal.Correction.Weighted>
   9.000000E+99

> <Gold.Protein.RotatedTorsions>
[ 6907 6896 6895 6894 ] final  -96.66 input  -60.11 | X-H torsion
[ 7974 7965 7964 7962 ] final   35.95 input  175.53 | X-H torsion
[ 8008 7997 7996 7995 ] final  -53.72 input   59.86 | X-H torsion
[ 10167 10162 10161 10158 ] final  133.53 input  -65.29 | X-H torsion
[ 10718 10713 10712 10709 ] final  -92.87 input   66.30 | X-H torsion
[ 10763 10752 10751 10750 ] final   35.82 input  -60.55 | X-H torsion
[ 11005 11000 10999 10996 ] final -144.99 input  -57.11 | X-H torsion

> <Gold.Protein.ActiveResidues>
 VAL166  LYS551  ARG553  GLY616  TRP617  ASP618  TYR619  PRO620  LYS621  CYS622 
 ASP623  PHE694  ASN695  SER759  ASP760  ASP761  ALA762  ILE779  LEU786  VAL792 
 PHE793  MET794  SER795  GLU796  ALA797  LYS798  CYS799  TRP800  GLU811  SER814 

> <Gold.Protein.RotatedAtoms>
  150.6995  134.1469  159.4125 H   0  0  0  0  0  0  0  0  0  0  0  0  # atno 6907 bound_to 6896
  151.9452  135.0192  160.0548 H   0  0  0  0  0  0  0  0  0  0  0  0  # atno 6908 bound_to 6896
  152.2059  133.4840  159.5120 H   0  0  0  0  0  0  0  0  0  0  0  0  # atno 6909 bound_to 6896
  146.1246  139.6078  142.9267 H   0  0  0  0  0  0  0  0  0  0  0  0  # atno 7974 bound_to 7965
  154.4141  140.1193  156.5200 H   0  0  0  0  0  0  0  0  0  0  0  0  # atno 8008 bound_to 7997
  155.6712  140.3496  155.4800 H   0  0  0  0  0  0  0  0  0  0  0  0  # atno 8009 bound_to 7997
  155.9631  140.1127  157.0868 H   0  0  0  0  0  0  0  0  0  0  0  0  # atno 8010 bound_to 7997
  139.5293  144.6611  151.5009 H   0  0  0  0  0  0  0  0  0  0  0  0  # atno 10167 bound_to 10162
  156.0007  130.5004  150.5690 H   0  0  0  0  0  0  0  0  0  0  0  0  # atno 10718 bound_to 10713
  153.0103  135.6323  154.1887 H   0  0  0  0  0  0  0  0  0  0  0  0  # atno 10763 bound_to 10752
  154.1630  135.2822  155.3105 H   0  0  0  0  0  0  0  0  0  0  0  0  # atno 10764 bound_to 10752
  154.5967  135.5600  153.7393 H   0  0  0  0  0  0  0  0  0  0  0  0  # atno 10765 bound_to 10752
  140.7968  134.2903  157.4993 H   0  0  0  0  0  0  0  0  0  0  0  0  # atno 11005 bound_to 11000
  145.5392  141.0422  143.2340 LP  0  0  0  0  0  0  0  0  0  0  0  0  # atno 17320 bound_to 7965
  144.7630  139.6911  143.7226 LP  0  0  0  0  0  0  0  0  0  0  0  0  # atno 17321 bound_to 7965
  140.6460  143.8794  150.6737 LP  0  0  0  0  0  0  0  0  0  0  0  0  # atno 17342 bound_to 10162
  140.2143  143.3858  152.1693 LP  0  0  0  0  0  0  0  0  0  0  0  0  # atno 17343 bound_to 10162
  157.3588  131.0746  151.1653 LP  0  0  0  0  0  0  0  0  0  0  0  0  # atno 17370 bound_to 10713
  157.2445  130.6585  149.5904 LP  0  0  0  0  0  0  0  0  0  0  0  0  # atno 17371 bound_to 10713
  139.8725  134.9407  156.3775 LP  0  0  0  0  0  0  0  0  0  0  0  0  # atno 17394 bound_to 11000
  140.9334  133.7563  156.0054 LP  0  0  0  0  0  0  0  0  0  0  0  0  # atno 17395 bound_to 11000

$$$$
