AV-unprocessed.smi:72|AV-procd|sdf|743|dock4
  -GOLD-   2262017 73D 1   1.00000     0.00000
 Structure written by MMmdl.
 29 30  0  0  0  0  0  0  0  0  1 V2000
  150.7951  134.5553  156.8726 N   0  0  0  0  0  0  0  0  0  0  0  0
  150.8104  135.8384  156.3674 C   0  0  0  0  0  0  0  0  0  0  0  0
  151.0437  135.9630  154.9907 N   0  0  0  0  0  0  0  0  0  0  0  0
  151.0440  137.1656  154.5098 C   0  0  0  0  0  0  0  0  0  0  0  0
  150.8060  138.3182  155.3595 N   0  0  0  0  0  0  0  0  0  0  0  0
  150.8095  139.7201  154.7929 C   0  0  2  0  0  0  0  0  0  0  0  0
  151.4592  140.5687  155.6932 O   0  0  0  0  0  0  0  0  0  0  0  0
  150.7099  141.7683  155.8545 C   0  0  2  0  0  0  0  0  0  0  0  0
  151.0137  142.3845  157.2283 C   0  0  0  0  0  0  0  0  0  0  0  0
  150.0668  143.3874  157.5271 O   0  0  0  0  0  0  0  0  0  0  0  0
  149.2680  141.2792  155.7073 C   0  0  1  0  0  0  0  0  0  0  0  0
  148.3555  142.3203  155.4125 O   0  0  0  0  0  0  0  0  0  0  0  0
  149.3735  140.2339  154.6007 C   0  0  1  0  0  0  0  0  0  0  0  0
  149.2058  140.7883  153.3090 O   0  0  0  0  0  0  0  0  0  0  0  0
  150.6064  138.1217  156.7535 C   0  0  0  0  0  0  0  0  0  0  0  0
  150.4482  139.0862  157.5017 O   0  0  0  0  0  0  0  0  0  0  0  0
  150.6079  136.8015  157.2204 N   0  0  0  0  0  0  0  0  0  0  0  0
  151.3929  139.6891  153.8717 H   0  0  0  0  0  0  0  0  0  0  0  0
  150.9500  142.4590  155.0436 H   0  0  0  0  0  0  0  0  0  0  0  0
  148.9543  140.7884  156.6296 H   0  0  0  0  0  0  0  0  0  0  0  0
  148.6449  139.4323  154.7310 H   0  0  0  0  0  0  0  0  0  0  0  0
  150.6377  134.3448  157.8474 H   0  0  0  0  0  0  0  0  0  0  0  0
  150.9477  133.7319  156.3082 H   0  0  0  0  0  0  0  0  0  0  0  0
  151.2223  137.3881  153.4567 H   0  0  0  0  0  0  0  0  0  0  0  0
  150.9416  141.6237  158.0061 H   0  0  0  0  0  0  0  0  0  0  0  0
  152.0244  142.7925  157.2658 H   0  0  0  0  0  0  0  0  0  0  0  0
  149.8875  143.8737  156.7367 H   0  0  0  0  0  0  0  0  0  0  0  0
  148.8277  143.1388  155.4024 H   0  0  0  0  0  0  0  0  0  0  0  0
  149.3714  140.1139  152.6681 H   0  0  0  0  0  0  0  0  0  0  0  0
  1  2  1  0  0  0  0
  1 22  1  0  0  0  0
  1 23  1  0  0  0  0
  2 17  2  0  0  0  0
  2  3  1  0  0  0  0
  3  4  2  0  0  0  0
  4  5  1  0  0  0  0
  4 24  1  0  0  0  0
  5  6  1  0  0  0  0
  5 15  1  0  0  0  0
  6 18  1  0  0  0  0
  6 13  1  0  0  0  0
  6  7  1  0  0  0  0
  7  8  1  0  0  0  0
  8 19  1  0  0  0  0
  8  9  1  0  0  0  0
  8 11  1  0  0  0  0
  9 10  1  0  0  0  0
  9 25  1  0  0  0  0
  9 26  1  0  0  0  0
 10 27  1  0  0  0  0
 11 20  1  0  0  0  0
 11 12  1  0  0  0  0
 11 13  1  0  0  0  0
 12 28  1  0  0  0  0
 13 21  1  0  0  0  0
 13 14  1  0  0  0  0
 14 29  1  0  0  0  0
 15 16  2  0  0  0  0
 15 17  1  0  0  0  0
M  END
> <s_m_source_file>
AV-unprocessed.smi

> <i_m_source_file_index>
72

> <i_lp_mmshare_version>
43012

> <i_f3d_flags>
0

> <s_epik_input>
W05IMl1jMW5bY0hdbihjKD1PKW4xKVtDQEBIXTJPW0NASF0oW0NIMl1bT0hdKVtDQEBIXShbT0hdKVtDQEhdMltPSF0=

> <s_epik_cmdline>
J2VwaWtfcHl0aG9uJywgJy1waCcsICc3LjAnLCAnLXRuJywgJzgnLCAnLW1hJywgJzIwMCcsICctbWV0YWxfYmluZGluZycsICctaW1hZScsICc8aW5maWxlLm1hZT4nLCAnLW9tYWUnLCAnPG91dGZpbGUubWFlPic=

> <r_lp_tautomer_probability>
4.77166e-05

> <r_epik_Ionization_Penalty>
1.3546

> <r_epik_Ionization_Penalty_Charging>
1.46833e-10

> <r_epik_Ionization_Penalty_Neutral>
1.3546

> <r_epik_State_Penalty>
3.51908

> <r_epik_Charging_Adjusted_Penalty>
3.51908

> <i_epik_Tot_Q>
0

> <i_epik_Tot_abs_Q>
0

> <r_epik_Metal_State_Penalty>
3.44088

> <b_epik_Metal_Only>
1

> <s_epik_Chemistry_Notes>
This compound contains an acetal/aminal-like group ( X-CH(R)-Y where X, Y are N, S, or O) that may be acid/base labile, releasing an aldehyde.

> <s_lp_Force_Field>
OPLS_2005

> <r_lp_Energy>
30.18

> <b_lp_Chiralities_Consistent>
1

> <s_lp_Variant>
AV-unprocessed.smi:72-81

> <Gold.Version>
5.8.1

> <Gold.Id.Protein>
6NUR|6NUR_protein|mol2

> <Gold.PLP.Fitness>
40.8591

> <Gold.PLP.PLP>
-25.0062

> <Gold.PLP.part.hbond>
-5.9943

> <Gold.PLP.part.metal>
0.0000

> <Gold.PLP.part.buried>
-3.0909

> <Gold.PLP.part.nonpolar>
-16.7455

> <Gold.PLP.part.repulsive>
0.3126

> <Gold.PLP.ligand.clash>
0.0000

> <Gold.PLP.ligand.torsion>
0.6109

> <Gold.PLP.Chemscore.Hbond>
4.7408

> <Gold.PLP.Chemscore.CHOScore>
0.9458

> <Gold.PLP.Chemscore.Metal>
0.0000

> <Gold.Chemscore.Hbonds>
donor molecule, donor type, donor heavy atom, donor atom, acceptor molecule, acceptor atom, score
      L1  H    10    27       P1  8028  1.00
      L1  H    12    28       P1  8028  0.99
      L1  H    14    29       P1  7957  0.73
      P1  H  8011  8017       L1    14  1.00
      P1  H 10752 10764       L1     3  0.90
      L1  C     4    24       P1  7949  1.00

> <Gold.PLP.Chemscore.Internal.Correction>
0.0148

> <Gold.Rescore>
     Score         DG    S(hbond)    S(metal)    S(lipo)     H(rot)  DE(clash)    DE(int)     intcor
      5.74      -8.26       2.99        0.00      27.13       4.06       0.08       2.44       ----

> <Gold.Chemscore.Fitness>
5.7408

> <Gold.Chemscore.DG>
-8.2635

> <Gold.Chemscore.ZeroCoef>
-5.4800

> <Gold.Chemscore.Hbond>
2.9949

> <Gold.Chemscore.Metal>
0.0000

> <Gold.Chemscore.Lipo>
27.1291

> <Gold.Chemscore.Internal_Hbond>
0.0000

> <Gold.Chemscore.DEClash>
0.0825

> <Gold.Chemscore.DEInternal>
2.4402

> <Gold.Chemscore.Rot>
4.0600

> <Gold.Chemscore.Internal.Correction>
   9.000000E+99

> <Gold.Chemscore.Hbonds>
donor molecule, donor type, donor heavy atom, donor atom, acceptor molecule, acceptor atom, score
      L1  H    10    27       P1  8028  0.97
      L1  H    12    28       P1  8028  0.93
      L1  H    14    29       P1  7957  0.68
      P1  H  8011  8017       L1    14  0.29
      P1  H 10752 10764       L1     3  0.11

> <Gold.Chemscore.Hbond.Weighted>
-10.0030

> <Gold.Chemscore.Metal.Weighted>
-0.0000

> <Gold.Chemscore.Lipo.Weighted>
-3.1741

> <Gold.Chemscore.Internal_Hbond.Weighted>
0.0000

> <Gold.Chemscore.DEClash.Weighted>
0.0825

> <Gold.Chemscore.DEInternal.Weighted>
2.4402

> <Gold.Chemscore.Rot.Weighted>
10.3936

> <Gold.Chemscore.Internal.Correction.Weighted>
   9.000000E+99

> <Gold.Protein.RotatedTorsions>
[ 6907 6896 6895 6894 ] final  116.57 input  -60.11 | X-H torsion
[ 7974 7965 7964 7962 ] final  151.21 input  175.53 | X-H torsion
[ 8008 7997 7996 7995 ] final -165.12 input   59.86 | X-H torsion
[ 10167 10162 10161 10158 ] final  -17.99 input  -65.29 | X-H torsion
[ 10718 10713 10712 10709 ] final -129.14 input   66.30 | X-H torsion
[ 10763 10752 10751 10750 ] final  -54.53 input  -60.55 | X-H torsion
[ 11005 11000 10999 10996 ] final   23.70 input  -57.11 | X-H torsion

> <Gold.Protein.ActiveResidues>
 VAL166  LYS551  ARG553  GLY616  TRP617  ASP618  TYR619  PRO620  LYS621  CYS622 
 ASP623  PHE694  ASN695  SER759  ASP760  ASP761  ALA762  ILE779  LEU786  VAL792 
 PHE793  MET794  SER795  GLU796  ALA797  LYS798  CYS799  TRP800  GLU811  SER814 

> <Gold.Protein.RotatedAtoms>
  152.4669  133.7943  159.6918 H   0  0  0  0  0  0  0  0  0  0  0  0  # atno 6907 bound_to 6896
  150.8638  133.7594  159.2990 H   0  0  0  0  0  0  0  0  0  0  0  0  # atno 6908 bound_to 6896
  151.5151  135.1069  159.9916 H   0  0  0  0  0  0  0  0  0  0  0  0  # atno 6909 bound_to 6896
  144.8309  139.6508  143.6059 H   0  0  0  0  0  0  0  0  0  0  0  0  # atno 7974 bound_to 7965
  155.8453  140.0954  157.1709 H   0  0  0  0  0  0  0  0  0  0  0  0  # atno 8008 bound_to 7997
  154.3983  140.1393  156.3839 H   0  0  0  0  0  0  0  0  0  0  0  0  # atno 8009 bound_to 7997
  155.8020  140.3452  155.5411 H   0  0  0  0  0  0  0  0  0  0  0  0  # atno 8010 bound_to 7997
  140.7253  143.4961  150.9929 H   0  0  0  0  0  0  0  0  0  0  0  0  # atno 10167 bound_to 10162
  156.2018  130.6862  151.0548 H   0  0  0  0  0  0  0  0  0  0  0  0  # atno 10718 bound_to 10713
  154.1764  135.6450  153.5022 H   0  0  0  0  0  0  0  0  0  0  0  0  # atno 10763 bound_to 10752
  153.0071  135.5395  154.6560 H   0  0  0  0  0  0  0  0  0  0  0  0  # atno 10764 bound_to 10752
  154.5912  135.2934  155.0605 H   0  0  0  0  0  0  0  0  0  0  0  0  # atno 10765 bound_to 10752
  140.3668  134.2066  155.7669 H   0  0  0  0  0  0  0  0  0  0  0  0  # atno 11005 bound_to 11000
  146.2612  139.6414  142.9361 LP  0  0  0  0  0  0  0  0  0  0  0  0  # atno 17320 bound_to 7965
  145.4898  141.0438  143.2599 LP  0  0  0  0  0  0  0  0  0  0  0  0  # atno 17321 bound_to 7965
  139.8668  143.7244  152.3169 LP  0  0  0  0  0  0  0  0  0  0  0  0  # atno 17342 bound_to 10162
  139.7478  144.7542  151.0552 LP  0  0  0  0  0  0  0  0  0  0  0  0  # atno 17343 bound_to 10162
  157.6990  131.0783  150.6880 LP  0  0  0  0  0  0  0  0  0  0  0  0  # atno 17370 bound_to 10713
  156.6938  130.4603  149.5592 LP  0  0  0  0  0  0  0  0  0  0  0  0  # atno 17371 bound_to 10713
  141.1967  133.8076  157.0660 LP  0  0  0  0  0  0  0  0  0  0  0  0  # atno 17394 bound_to 11000
  140.0583  134.9768  157.1260 LP  0  0  0  0  0  0  0  0  0  0  0  0  # atno 17395 bound_to 11000

$$$$
