AV-unprocessed.smi:308|AV-procd|sdf|2287|dock8
  -GOLD-   2262022183D 1   1.00000     0.00000
 Structure written by MMmdl.
 50 51  0  0  0  0  0  0  0  0  2 V2000
  145.5697  132.5248  151.0415 C   0  0  0  0  0  0  0  0  0  0  0  0
  145.3443  133.8351  151.8085 C   0  0  2  0  0  0  0  0  0  0  0  0
  145.3470  135.0540  150.8710 C   0  0  0  0  0  0  0  0  0  0  0  0
  145.1487  136.3619  151.6557 C   0  0  0  0  0  0  0  0  0  0  0  0
  146.1808  136.5188  152.7125 N   0  3  1  0  0  0  0  0  0  0  0  0
  146.0859  137.8329  153.3991 C   0  0  0  0  0  0  0  0  0  0  0  0
  146.9414  138.9344  152.7363 C   0  0  0  0  0  0  0  0  0  0  0  0
  148.2568  139.0883  153.3530 N   0  0  0  0  0  0  0  0  0  0  0  0
  148.5246  139.8717  154.4074 C   0  0  0  0  0  0  0  0  0  0  0  0
  147.6757  140.5707  154.9585 O   0  0  0  0  0  0  0  0  0  0  0  0
  149.8181  139.7805  154.7611 N   0  0  0  0  0  0  0  0  0  0  0  0
  150.5137  140.4306  155.8180 C   0  0  0  0  0  0  0  0  0  0  0  0
  151.4986  139.8287  156.6360 C   0  0  0  0  0  0  0  0  0  0  0  0
  152.1053  140.5929  157.6514 C   0  0  0  0  0  0  0  0  0  0  0  0
  151.7144  141.9424  157.8356 C   0  0  0  0  0  0  0  0  0  0  0  0
  152.2958  142.7492  158.8405 N   0  0  0  0  0  0  0  0  0  0  0  0
  153.0749  142.1309  159.9084 C   0  0  0  0  0  0  0  0  0  0  0  0
  152.0286  144.1817  158.8745 C   0  0  0  0  0  0  0  0  0  0  0  0
  150.7630  142.5097  157.0549 N   0  0  0  0  0  0  0  0  0  0  0  0
  150.1863  141.7751  156.0820 C   0  0  0  0  0  0  0  0  0  0  0  0
  146.1824  135.3670  153.6524 C   0  0  0  0  0  0  0  0  0  0  0  0
  146.4015  134.0405  152.9057 C   0  0  0  0  0  0  0  0  0  0  0  0
  146.5371  132.5195  150.5384 H   0  0  0  0  0  0  0  0  0  0  0  0
  144.7998  132.3758  150.2839 H   0  0  0  0  0  0  0  0  0  0  0  0
  145.5394  131.6671  151.7139 H   0  0  0  0  0  0  0  0  0  0  0  0
  144.3648  133.7747  152.2859 H   0  0  0  0  0  0  0  0  0  0  0  0
  146.2887  135.0981  150.3217 H   0  0  0  0  0  0  0  0  0  0  0  0
  144.5591  134.9527  150.1238 H   0  0  0  0  0  0  0  0  0  0  0  0
  145.2007  137.2032  150.9634 H   0  0  0  0  0  0  0  0  0  0  0  0
  144.1561  136.3833  152.1087 H   0  0  0  0  0  0  0  0  0  0  0  0
  145.0458  138.1612  153.3845 H   0  0  0  0  0  0  0  0  0  0  0  0
  146.3510  137.7250  154.4517 H   0  0  0  0  0  0  0  0  0  0  0  0
  147.0560  138.7270  151.6713 H   0  0  0  0  0  0  0  0  0  0  0  0
  146.4308  139.8951  152.7979 H   0  0  0  0  0  0  0  0  0  0  0  0
  149.0101  138.5372  152.9672 H   0  0  0  0  0  0  0  0  0  0  0  0
  150.3748  139.1321  154.2235 H   0  0  0  0  0  0  0  0  0  0  0  0
  151.8027  138.8011  156.5194 H   0  0  0  0  0  0  0  0  0  0  0  0
  152.8554  140.1260  158.2714 H   0  0  0  0  0  0  0  0  0  0  0  0
  152.4472  141.4693  160.5060 H   0  0  0  0  0  0  0  0  0  0  0  0
  153.5015  142.8809  160.5745 H   0  0  0  0  0  0  0  0  0  0  0  0
  153.8991  141.5483  159.4955 H   0  0  0  0  0  0  0  0  0  0  0  0
  152.4412  144.6692  157.9908 H   0  0  0  0  0  0  0  0  0  0  0  0
  152.4767  144.6480  159.7522 H   0  0  0  0  0  0  0  0  0  0  0  0
  150.9554  144.3717  158.9102 H   0  0  0  0  0  0  0  0  0  0  0  0
  149.4365  142.2825  155.4926 H   0  0  0  0  0  0  0  0  0  0  0  0
  146.9720  135.4874  154.3934 H   0  0  0  0  0  0  0  0  0  0  0  0
  145.2379  135.3388  154.1983 H   0  0  0  0  0  0  0  0  0  0  0  0
  146.3705  133.2117  153.6141 H   0  0  0  0  0  0  0  0  0  0  0  0
  147.3996  134.0321  152.4649 H   0  0  0  0  0  0  0  0  0  0  0  0
  147.0721  136.5126  152.2373 H   0  0  0  0  0  0  0  0  0  0  0  0
  1  2  1  0  0  0  0
  1 23  1  0  0  0  0
  1 24  1  0  0  0  0
  1 25  1  0  0  0  0
  2 22  1  0  0  0  0
  2  3  1  0  0  0  0
  2 26  1  0  0  0  0
  3  4  1  0  0  0  0
  3 27  1  0  0  0  0
  3 28  1  0  0  0  0
  4  5  1  0  0  0  0
  4 29  1  0  0  0  0
  4 30  1  0  0  0  0
  5  6  1  0  0  0  0
  5 21  1  0  0  0  0
  5 50  1  0  0  0  0
  6  7  1  0  0  0  0
  6 31  1  0  0  0  0
  6 32  1  0  0  0  0
  7  8  1  0  0  0  0
  7 33  1  0  0  0  0
  7 34  1  0  0  0  0
  8  9  1  0  0  0  0
  8 35  1  0  0  0  0
  9 10  2  0  0  0  0
  9 11  1  0  0  0  0
 11 12  1  0  0  0  0
 11 36  1  0  0  0  0
 12 20  1  0  0  0  0
 12 13  2  0  0  0  0
 13 14  1  0  0  0  0
 13 37  1  0  0  0  0
 14 15  2  0  0  0  0
 14 38  1  0  0  0  0
 15 16  1  0  0  0  0
 15 19  1  0  0  0  0
 16 17  1  0  0  0  0
 16 18  1  0  0  0  0
 17 39  1  0  0  0  0
 17 40  1  0  0  0  0
 17 41  1  0  0  0  0
 18 42  1  0  0  0  0
 18 43  1  0  0  0  0
 18 44  1  0  0  0  0
 19 20  2  0  0  0  0
 20 45  1  0  0  0  0
 21 22  1  0  0  0  0
 21 46  1  0  0  0  0
 21 47  1  0  0  0  0
 22 48  1  0  0  0  0
 22 49  1  0  0  0  0
M  CHG  1   5   1
M  END
> <s_m_source_file>
AV-unprocessed.smi

> <i_m_source_file_index>
308

> <i_lp_mmshare_version>
43012

> <i_f3d_flags>
0

> <s_epik_input>
W0NIM11bQ0hdMVtDSDJdW0NIMl1OKFtDSDJdW0NIMl0xKVtDSDJdW0NIMl1bTkhdQyg9TylbTkhdYzJbY0hdW2NIXWMoTihbQ0gzXSlbQ0gzXSluW2NIXTI=

> <s_epik_cmdline>
J2VwaWtfcHl0aG9uJywgJy1waCcsICc3LjAnLCAnLXRuJywgJzgnLCAnLW1hJywgJzIwMCcsICctbWV0YWxfYmluZGluZycsICctaW1hZScsICc8aW5maWxlLm1hZT4nLCAnLW9tYWUnLCAnPG91dGZpbGUubWFlPic=

> <r_lp_tautomer_probability>
1

> <r_epik_Ionization_Penalty>
0.536661

> <r_epik_Ionization_Penalty_Charging>
0.00139388

> <r_epik_Ionization_Penalty_Neutral>
0.535267

> <r_epik_State_Penalty>
0.543381

> <r_epik_Charging_Adjusted_Penalty>
0.544775

> <i_epik_Tot_Q>
1

> <i_epik_Tot_abs_Q>
1

> <r_epik_Metal_State_Penalty>
0.284523

> <b_epik_Metal_Only>
0

> <s_lp_Force_Field>
OPLS_2005

> <r_lp_Energy>
27.2838

> <b_lp_Chiralities_Consistent>
1

> <s_lp_Variant>
AV-unprocessed.smi:308-3

> <Gold.Version>
5.8.1

> <Gold.Id.Protein>
6NUR|6NUR_protein|mol2

> <Gold.PLP.Fitness>
47.9560

> <Gold.PLP.PLP>
-41.6764

> <Gold.PLP.part.hbond>
-2.4085

> <Gold.PLP.part.metal>
0.0000

> <Gold.PLP.part.buried>
-4.6926

> <Gold.PLP.part.nonpolar>
-35.5996

> <Gold.PLP.part.repulsive>
0.4090

> <Gold.PLP.ligand.clash>
0.0000

> <Gold.PLP.ligand.torsion>
1.2431

> <Gold.PLP.Chemscore.Hbond>
2.0000

> <Gold.PLP.Chemscore.CHOScore>
0.9090

> <Gold.PLP.Chemscore.Metal>
0.0000

> <Gold.Chemscore.Hbonds>
donor molecule, donor type, donor heavy atom, donor atom, acceptor molecule, acceptor atom, score
      L1  H     5    50       P1  7948  2.00
      L1  C    20    45       P1  8028  0.91

> <Gold.PLP.Chemscore.Internal.Correction>
0.0388

> <Gold.Rescore>
     Score         DG    S(hbond)    S(metal)    S(lipo)     H(rot)  DE(clash)    DE(int)     intcor
     14.95     -17.48       1.50        0.00      90.93       1.42       0.18       2.34       ----

> <Gold.Chemscore.Fitness>
14.9521

> <Gold.Chemscore.DG>
-17.4765

> <Gold.Chemscore.ZeroCoef>
-5.4800

> <Gold.Chemscore.Hbond>
1.4981

> <Gold.Chemscore.Metal>
0.0000

> <Gold.Chemscore.Lipo>
90.9282

> <Gold.Chemscore.Internal_Hbond>
0.0000

> <Gold.Chemscore.DEClash>
0.1799

> <Gold.Chemscore.DEInternal>
2.3445

> <Gold.Chemscore.Rot>
1.4241

> <Gold.Chemscore.Internal.Correction>
   9.000000E+99

> <Gold.Chemscore.Hbonds>
donor molecule, donor type, donor heavy atom, donor atom, acceptor molecule, acceptor atom, score
      L1  H     5    50       P1  7948  0.99

> <Gold.Chemscore.Hbond.Weighted>
-5.0035

> <Gold.Chemscore.Metal.Weighted>
-0.0000

> <Gold.Chemscore.Lipo.Weighted>
-10.6386

> <Gold.Chemscore.Internal_Hbond.Weighted>
0.0000

> <Gold.Chemscore.DEClash.Weighted>
0.1799

> <Gold.Chemscore.DEInternal.Weighted>
2.3445

> <Gold.Chemscore.Rot.Weighted>
3.6456

> <Gold.Chemscore.Internal.Correction.Weighted>
   9.000000E+99

> <Gold.Protein.RotatedTorsions>
[ 6907 6896 6895 6894 ] final  -28.45 input  -60.11 | X-H torsion
[ 7974 7965 7964 7962 ] final  171.83 input  175.53 | X-H torsion
[ 8008 7997 7996 7995 ] final  -65.65 input   59.86 | X-H torsion
[ 10167 10162 10161 10158 ] final  141.80 input  -65.29 | X-H torsion
[ 10718 10713 10712 10709 ] final  105.39 input   66.30 | X-H torsion
[ 10763 10752 10751 10750 ] final  -21.72 input  -60.55 | X-H torsion
[ 11005 11000 10999 10996 ] final  164.70 input  -57.11 | X-H torsion

> <Gold.Protein.ActiveResidues>
 VAL166  LYS551  ARG553  GLY616  TRP617  ASP618  TYR619  PRO620  LYS621  CYS622 
 ASP623  PHE694  ASN695  SER759  ASP760  ASP761  ALA762  ILE779  LEU786  VAL792 
 PHE793  MET794  SER795  GLU796  ALA797  LYS798  CYS799  TRP800  GLU811  SER814 

> <Gold.Protein.RotatedAtoms>
  151.1327  135.0139  159.8589 H   0  0  0  0  0  0  0  0  0  0  0  0  # atno 6907 bound_to 6896
  152.5451  134.1591  159.8560 H   0  0  0  0  0  0  0  0  0  0  0  0  # atno 6908 bound_to 6896
  151.1659  133.4770  159.2627 H   0  0  0  0  0  0  0  0  0  0  0  0  # atno 6909 bound_to 6896
  144.7284  139.9408  143.6428 H   0  0  0  0  0  0  0  0  0  0  0  0  # atno 7974 bound_to 7965
  154.4685  140.0929  156.7083 H   0  0  0  0  0  0  0  0  0  0  0  0  # atno 8008 bound_to 7997
  155.4790  140.3467  155.4318 H   0  0  0  0  0  0  0  0  0  0  0  0  # atno 8009 bound_to 7997
  156.0998  140.1419  156.9471 H   0  0  0  0  0  0  0  0  0  0  0  0  # atno 8010 bound_to 7997
  139.5011  144.6148  151.6189 H   0  0  0  0  0  0  0  0  0  0  0  0  # atno 10167 bound_to 10162
  157.6707  131.0826  150.5849 H   0  0  0  0  0  0  0  0  0  0  0  0  # atno 10718 bound_to 10713
  153.6406  135.6985  153.5243 H   0  0  0  0  0  0  0  0  0  0  0  0  # atno 10763 bound_to 10752
  153.2785  135.4193  155.1055 H   0  0  0  0  0  0  0  0  0  0  0  0  # atno 10764 bound_to 10752
  154.8500  135.3596  154.5950 H   0  0  0  0  0  0  0  0  0  0  0  0  # atno 10765 bound_to 10752
  140.2486  134.7995  157.3480 H   0  0  0  0  0  0  0  0  0  0  0  0  # atno 11005 bound_to 11000
  146.0786  139.3773  143.0479 LP  0  0  0  0  0  0  0  0  0  0  0  0  # atno 17320 bound_to 7965
  145.7872  140.9830  143.1068 LP  0  0  0  0  0  0  0  0  0  0  0  0  # atno 17321 bound_to 7965
  140.5833  143.9908  150.6281 LP  0  0  0  0  0  0  0  0  0  0  0  0  # atno 17342 bound_to 10162
  140.3064  143.3226  152.0921 LP  0  0  0  0  0  0  0  0  0  0  0  0  # atno 17343 bound_to 10162
  156.6150  130.4390  149.5844 LP  0  0  0  0  0  0  0  0  0  0  0  0  # atno 17370 bound_to 10713
  156.2400  130.6846  151.1547 LP  0  0  0  0  0  0  0  0  0  0  0  0  # atno 17371 bound_to 10713
  140.1581  134.4764  155.7914 LP  0  0  0  0  0  0  0  0  0  0  0  0  # atno 17394 bound_to 11000
  141.2204  133.6890  156.7496 LP  0  0  0  0  0  0  0  0  0  0  0  0  # atno 17395 bound_to 11000

$$$$
