AV-unprocessed.smi:1677|AV-procd|sdf|6722|dock1
  -GOLD-   22720 7463D 1   1.00000     0.00000
 Structure written by MMmdl.
 37 38  0  0  0  0  0  0  0  0  2 V2000
  150.7548  138.1874  155.8783 C   0  0  0  0  0  0  0  0  0  0  0  0
  149.6924  139.2936  155.8303 C   0  0  2  0  0  0  0  0  0  0  0  0
  149.5924  139.9130  154.4197 C   0  0  0  0  0  0  0  0  0  0  0  0
  148.2959  140.5514  154.1671 N   0  0  0  0  0  0  0  0  0  0  0  0
  148.0209  141.8949  154.1617 C   0  0  0  0  0  0  0  0  0  0  0  0
  146.6878  142.0195  153.8665 C   0  0  0  0  0  0  0  0  0  0  0  0
  146.2047  140.7480  153.7092 N   0  3  0  0  0  0  0  0  0  0  0  0
  147.1830  139.8564  153.8968 C   0  0  0  0  0  0  0  0  0  0  0  0
  150.0252  140.3106  156.8269 N   0  0  0  0  0  0  0  0  0  0  0  0
  151.2522  140.7962  157.0746 C   0  0  0  0  0  0  0  0  0  0  0  0
  152.2593  140.4299  156.4675 O   0  0  0  0  0  0  0  0  0  0  0  0
  151.3608  141.8407  158.1923 C   0  0  1  0  0  0  0  0  0  0  0  0
  152.4687  141.4591  159.2010 C   0  0  0  0  0  0  0  0  0  0  0  0
  152.7762  142.5885  160.1683 C   0  0  0  0  0  0  0  0  0  0  0  0
  152.3915  143.8603  159.9659 C   0  0  0  0  0  0  0  0  0  0  0  0
  151.6099  144.3130  158.7453 C   0  0  0  0  0  0  0  0  0  0  0  0
  151.6093  143.2534  157.6272 C   0  0  0  0  0  0  0  0  0  0  0  0
  150.5219  137.3891  155.1729 H   0  0  0  0  0  0  0  0  0  0  0  0
  150.8120  137.7400  156.8713 H   0  0  0  0  0  0  0  0  0  0  0  0
  151.7439  138.5734  155.6286 H   0  0  0  0  0  0  0  0  0  0  0  0
  148.7363  138.8306  156.0822 H   0  0  0  0  0  0  0  0  0  0  0  0
  150.3832  140.6476  154.2576 H   0  0  0  0  0  0  0  0  0  0  0  0
  149.7190  139.1417  153.6593 H   0  0  0  0  0  0  0  0  0  0  0  0
  148.7761  142.6427  154.3559 H   0  0  0  0  0  0  0  0  0  0  0  0
  146.0636  142.8945  153.7584 H   0  0  0  0  0  0  0  0  0  0  0  0
  147.0932  138.7869  153.8301 H   0  0  0  0  0  0  0  0  0  0  0  0
  149.2583  140.6762  157.3729 H   0  0  0  0  0  0  0  0  0  0  0  0
  150.4097  141.8655  158.7282 H   0  0  0  0  0  0  0  0  0  0  0  0
  152.1595  140.5846  159.7749 H   0  0  0  0  0  0  0  0  0  0  0  0
  153.3958  141.1924  158.6916 H   0  0  0  0  0  0  0  0  0  0  0  0
  153.3450  142.3340  161.0506 H   0  0  0  0  0  0  0  0  0  0  0  0
  152.6298  144.6164  160.6996 H   0  0  0  0  0  0  0  0  0  0  0  0
  150.5887  144.5299  159.0600 H   0  0  0  0  0  0  0  0  0  0  0  0
  152.0323  145.2461  158.3720 H   0  0  0  0  0  0  0  0  0  0  0  0
  152.5729  143.2767  157.1154 H   0  0  0  0  0  0  0  0  0  0  0  0
  150.8578  143.5105  156.8794 H   0  0  0  0  0  0  0  0  0  0  0  0
  145.2464  140.5141  153.4818 H   0  0  0  0  0  0  0  0  0  0  0  0
  1  2  1  0  0  0  0
  1 18  1  0  0  0  0
  1 19  1  0  0  0  0
  1 20  1  0  0  0  0
  2  3  1  0  0  0  0
  2  9  1  0  0  0  0
  2 21  1  0  0  0  0
  3  4  1  0  0  0  0
  3 22  1  0  0  0  0
  3 23  1  0  0  0  0
  4  8  1  0  0  0  0
  4  5  1  0  0  0  0
  5  6  2  0  0  0  0
  5 24  1  0  0  0  0
  6  7  1  0  0  0  0
  6 25  1  0  0  0  0
  7  8  2  0  0  0  0
  7 37  1  0  0  0  0
  8 26  1  0  0  0  0
  9 10  1  0  0  0  0
  9 27  1  0  0  0  0
 10 11  2  0  0  0  0
 10 12  1  0  0  0  0
 12 17  1  0  0  0  0
 12 13  1  0  0  0  0
 12 28  1  0  0  0  0
 13 14  1  0  0  0  0
 13 29  1  0  0  0  0
 13 30  1  0  0  0  0
 14 15  2  0  0  0  0
 14 31  1  0  0  0  0
 15 16  1  0  0  0  0
 15 32  1  0  0  0  0
 16 17  1  0  0  0  0
 16 33  1  0  0  0  0
 16 34  1  0  0  0  0
 17 35  1  0  0  0  0
 17 36  1  0  0  0  0
M  CHG  1   7   1
M  END
> <s_m_source_file>
AV-unprocessed.smi

> <i_m_source_file_index>
1677

> <i_lp_mmshare_version>
43012

> <i_f3d_flags>
0

> <s_epik_input>
W2NIXTFuW2NIXVtjSF1uMVtDSDJdW0NAQEhdKFtDSDNdKVtOSF1DKD1PKVtDQEBIXTJbQ0gyXVtDSF09W0NIXVtDSDJdW0NIMl0y

> <s_epik_cmdline>
J2VwaWtfcHl0aG9uJywgJy1waCcsICc3LjAnLCAnLXRuJywgJzgnLCAnLW1hJywgJzIwMCcsICctbWV0YWxfYmluZGluZycsICctaW1hZScsICc8aW5maWxlLm1hZT4nLCAnLW9tYWUnLCAnPG91dGZpbGUubWFlPic=

> <r_lp_tautomer_probability>
1

> <r_epik_Ionization_Penalty>
0.245541

> <r_epik_Ionization_Penalty_Charging>
0

> <r_epik_Ionization_Penalty_Neutral>
0.245541

> <r_epik_State_Penalty>
0.236686

> <r_epik_Charging_Adjusted_Penalty>
0.236686

> <i_epik_Tot_Q>
1

> <i_epik_Tot_abs_Q>
1

> <r_epik_Metal_State_Penalty>
0.529594

> <b_epik_Metal_Only>
0

> <s_lp_Force_Field>
OPLS_2005

> <r_lp_Energy>
10.8943

> <b_lp_Chiralities_Consistent>
1

> <s_lp_Variant>
AV-unprocessed.smi:1677-3

> <Gold.Version>
5.8.1

> <Gold.Id.Protein>
6NUR|6NUR_protein|mol2

> <Gold.PLP.Fitness>
45.5926

> <Gold.PLP.PLP>
-35.6911

> <Gold.PLP.part.hbond>
-2.0000

> <Gold.PLP.part.metal>
0.0000

> <Gold.PLP.part.buried>
-1.6600

> <Gold.PLP.part.nonpolar>
-31.0258

> <Gold.PLP.part.repulsive>
0.0253

> <Gold.PLP.ligand.clash>
0.0000

> <Gold.PLP.ligand.torsion>
0.9421

> <Gold.PLP.Chemscore.Hbond>
2.9100

> <Gold.PLP.Chemscore.CHOScore>
1.0000

> <Gold.PLP.Chemscore.Metal>
0.0000

> <Gold.Chemscore.Hbonds>
donor molecule, donor type, donor heavy atom, donor atom, acceptor molecule, acceptor atom, score
      L1  H     7    37       P1 10175  2.00
      P1  H  7997  8008       L1    11  0.84
      L1  C     5    24       P1  8028  1.00

> <Gold.PLP.Chemscore.Internal.Correction>
0.0558

> <Gold.Rescore>
     Score         DG    S(hbond)    S(metal)    S(lipo)     H(rot)  DE(clash)    DE(int)     intcor
     15.38     -18.11       1.89        0.00      93.79       1.81       0.26       2.47       ----

> <Gold.Chemscore.Fitness>
15.3805

> <Gold.Chemscore.DG>
-18.1081

> <Gold.Chemscore.ZeroCoef>
-5.4800

> <Gold.Chemscore.Hbond>
1.8862

> <Gold.Chemscore.Metal>
0.0000

> <Gold.Chemscore.Lipo>
93.7922

> <Gold.Chemscore.Internal_Hbond>
0.0000

> <Gold.Chemscore.DEClash>
0.2620

> <Gold.Chemscore.DEInternal>
2.4655

> <Gold.Chemscore.Rot>
1.8147

> <Gold.Chemscore.Internal.Correction>
   9.000000E+99

> <Gold.Chemscore.Hbonds>
donor molecule, donor type, donor heavy atom, donor atom, acceptor molecule, acceptor atom, score
      L1  H     7    37       P1 10175  0.97
      P1  H  7997  8008       L1    11  0.78

> <Gold.Chemscore.Hbond.Weighted>
-6.2999

> <Gold.Chemscore.Metal.Weighted>
-0.0000

> <Gold.Chemscore.Lipo.Weighted>
-10.9737

> <Gold.Chemscore.Internal_Hbond.Weighted>
0.0000

> <Gold.Chemscore.DEClash.Weighted>
0.2620

> <Gold.Chemscore.DEInternal.Weighted>
2.4655

> <Gold.Chemscore.Rot.Weighted>
4.6456

> <Gold.Chemscore.Internal.Correction.Weighted>
   9.000000E+99

> <Gold.Protein.RotatedTorsions>
[ 6907 6896 6895 6894 ] final -105.89 input  -60.11 | X-H torsion
[ 7974 7965 7964 7962 ] final   71.39 input  175.53 | X-H torsion
[ 8008 7997 7996 7995 ] final  -45.16 input   59.86 | X-H torsion
[ 10167 10162 10161 10158 ] final    2.61 input  -65.29 | X-H torsion
[ 10718 10713 10712 10709 ] final  -89.34 input   66.30 | X-H torsion
[ 10763 10752 10751 10750 ] final -170.40 input  -60.55 | X-H torsion
[ 11005 11000 10999 10996 ] final -103.05 input  -57.11 | X-H torsion

> <Gold.Protein.ActiveResidues>
 VAL166  LYS551  ARG553  GLY616  TRP617  ASP618  TYR619  PRO620  LYS621  CYS622 
 ASP623  PHE694  ASN695  SER759  ASP760  ASP761  ALA762  ILE779  LEU786  VAL792 
 PHE793  MET794  SER795  GLU796  ALA797  LYS798  CYS799  TRP800  GLU811  SER814 

> <Gold.Protein.RotatedAtoms>
  150.7360  134.0059  159.3653 H   0  0  0  0  0  0  0  0  0  0  0  0  # atno 6907 bound_to 6896
  151.8016  135.0705  160.0410 H   0  0  0  0  0  0  0  0  0  0  0  0  # atno 6908 bound_to 6896
  152.3137  133.5743  159.5734 H   0  0  0  0  0  0  0  0  0  0  0  0  # atno 6909 bound_to 6896
  145.7663  139.2823  143.1347 H   0  0  0  0  0  0  0  0  0  0  0  0  # atno 7974 bound_to 7965
  154.4000  140.1404  156.3801 H   0  0  0  0  0  0  0  0  0  0  0  0  # atno 8008 bound_to 7997
  155.8012  140.3476  155.5383 H   0  0  0  0  0  0  0  0  0  0  0  0  # atno 8009 bound_to 7997
  155.8482  140.0937  157.1682 H   0  0  0  0  0  0  0  0  0  0  0  0  # atno 8010 bound_to 7997
  140.6627  143.7262  150.7768 H   0  0  0  0  0  0  0  0  0  0  0  0  # atno 10167 bound_to 10162
  155.9984  130.4869  150.5156 H   0  0  0  0  0  0  0  0  0  0  0  0  # atno 10718 bound_to 10713
  154.6419  135.2900  155.0093 H   0  0  0  0  0  0  0  0  0  0  0  0  # atno 10763 bound_to 10752
  154.1216  135.6547  153.4908 H   0  0  0  0  0  0  0  0  0  0  0  0  # atno 10764 bound_to 10752
  153.0331  135.5289  154.7290 H   0  0  0  0  0  0  0  0  0  0  0  0  # atno 10765 bound_to 10752
  141.1163  133.8608  157.1437 H   0  0  0  0  0  0  0  0  0  0  0  0  # atno 11005 bound_to 11000
  146.0214  140.8344  142.9921 LP  0  0  0  0  0  0  0  0  0  0  0  0  # atno 17320 bound_to 7965
  144.6821  140.2634  143.7316 LP  0  0  0  0  0  0  0  0  0  0  0  0  # atno 17321 bound_to 7965
  140.0934  143.4856  152.2466 LP  0  0  0  0  0  0  0  0  0  0  0  0  # atno 17342 bound_to 10162
  139.5865  144.7533  151.3507 LP  0  0  0  0  0  0  0  0  0  0  0  0  # atno 17343 bound_to 10162
  157.3124  131.0666  151.1991 LP  0  0  0  0  0  0  0  0  0  0  0  0  # atno 17370 bound_to 10713
  157.2933  130.6807  149.6125 LP  0  0  0  0  0  0  0  0  0  0  0  0  # atno 17371 bound_to 10713
  140.0087  134.9997  157.0349 LP  0  0  0  0  0  0  0  0  0  0  0  0  # atno 17394 bound_to 11000
  140.4637  134.1458  155.7194 LP  0  0  0  0  0  0  0  0  0  0  0  0  # atno 17395 bound_to 11000

$$$$
