AV-unprocessed.smi:1430|AV-procd|sdf|5828|dock4
  -GOLD-   22720 5483D 1   1.00000     0.00000
 Structure written by MMmdl.
 47 48  0  0  0  0  0  0  0  0  2 V2000
  150.6069  141.9688  158.1384 C   0  0  0  0  0  0  0  0  0  0  0  0
  151.0882  141.6745  156.8315 O   0  0  0  0  0  0  0  0  0  0  0  0
  150.6706  140.5066  156.2273 C   0  0  0  0  0  0  0  0  0  0  0  0
  150.0726  139.5112  157.0245 C   0  0  0  0  0  0  0  0  0  0  0  0
  149.6424  138.3198  156.4112 C   0  0  0  0  0  0  0  0  0  0  0  0
  149.8173  138.1549  155.0221 C   0  0  0  0  0  0  0  0  0  0  0  0
  149.3764  136.9318  154.4446 N   0  0  0  0  0  0  0  0  0  0  0  0
  148.9877  135.7954  155.0491 C   0  0  0  0  0  0  0  0  0  0  0  0
  148.9521  135.6030  156.2637 O   0  0  0  0  0  0  0  0  0  0  0  0
  148.6383  134.8645  154.1499 N   0  0  0  0  0  0  0  0  0  0  0  0
  148.1728  133.5216  154.4778 C   0  0  0  0  0  0  0  0  0  0  0  0
  147.1970  132.9883  153.4113 C   0  0  0  0  0  0  0  0  0  0  0  0
  147.0159  133.9384  152.2816 N   0  3  1  0  0  0  0  0  0  0  0  0
  146.9581  133.2768  150.9551 C   0  0  0  0  0  0  0  0  0  0  0  0
  145.5797  132.6285  150.7110 C   0  0  2  0  0  0  0  0  0  0  0  0
  145.4704  132.0161  149.3103 C   0  0  0  0  0  0  0  0  0  0  0  0
  144.5724  133.6264  150.8370 O   0  0  0  0  0  0  0  0  0  0  0  0
  144.5278  134.2080  152.1356 C   0  0  2  0  0  0  0  0  0  0  0  0
  143.3649  135.2057  152.1679 C   0  0  0  0  0  0  0  0  0  0  0  0
  145.8823  134.8862  152.4349 C   0  0  0  0  0  0  0  0  0  0  0  0
  150.4385  139.2111  154.3100 C   0  0  0  0  0  0  0  0  0  0  0  0
  150.8523  140.3567  154.8923 N   0  0  0  0  0  0  0  0  0  0  0  0
  151.0277  142.9171  158.4723 H   0  0  0  0  0  0  0  0  0  0  0  0
  150.9066  141.2033  158.8557 H   0  0  0  0  0  0  0  0  0  0  0  0
  149.5205  142.0664  158.1516 H   0  0  0  0  0  0  0  0  0  0  0  0
  149.9468  139.6591  158.0869 H   0  0  0  0  0  0  0  0  0  0  0  0
  149.1821  137.5429  157.0045 H   0  0  0  0  0  0  0  0  0  0  0  0
  149.3859  136.9105  153.4354 H   0  0  0  0  0  0  0  0  0  0  0  0
  148.7028  135.1002  153.1700 H   0  0  0  0  0  0  0  0  0  0  0  0
  149.0536  132.8854  154.5521 H   0  0  0  0  0  0  0  0  0  0  0  0
  147.7027  133.5182  155.4627 H   0  0  0  0  0  0  0  0  0  0  0  0
  147.6009  132.0547  153.0173 H   0  0  0  0  0  0  0  0  0  0  0  0
  146.2379  132.7364  153.8637 H   0  0  0  0  0  0  0  0  0  0  0  0
  147.1454  134.0324  150.1906 H   0  0  0  0  0  0  0  0  0  0  0  0
  147.7584  132.5423  150.8581 H   0  0  0  0  0  0  0  0  0  0  0  0
  145.3998  131.8403  151.4438 H   0  0  0  0  0  0  0  0  0  0  0  0
  146.2131  131.2311  149.1656 H   0  0  0  0  0  0  0  0  0  0  0  0
  145.6232  132.7689  148.5364 H   0  0  0  0  0  0  0  0  0  0  0  0
  144.4861  131.5739  149.1543 H   0  0  0  0  0  0  0  0  0  0  0  0
  144.3244  133.4280  152.8706 H   0  0  0  0  0  0  0  0  0  0  0  0
  143.2787  135.6773  153.1470 H   0  0  0  0  0  0  0  0  0  0  0  0
  142.4185  134.7079  151.9551 H   0  0  0  0  0  0  0  0  0  0  0  0
  143.4991  135.9940  151.4267 H   0  0  0  0  0  0  0  0  0  0  0  0
  145.8771  135.3386  153.4256 H   0  0  0  0  0  0  0  0  0  0  0  0
  146.0365  135.7060  151.7320 H   0  0  0  0  0  0  0  0  0  0  0  0
  150.6341  139.1601  153.2514 H   0  0  0  0  0  0  0  0  0  0  0  0
  147.8586  134.4953  152.2722 H   0  0  0  0  0  0  0  0  0  0  0  0
  1  2  1  0  0  0  0
  1 23  1  0  0  0  0
  1 24  1  0  0  0  0
  1 25  1  0  0  0  0
  2  3  1  0  0  0  0
  3 22  1  0  0  0  0
  3  4  2  0  0  0  0
  4  5  1  0  0  0  0
  4 26  1  0  0  0  0
  5  6  2  0  0  0  0
  5 27  1  0  0  0  0
  6  7  1  0  0  0  0
  6 21  1  0  0  0  0
  7  8  1  0  0  0  0
  7 28  1  0  0  0  0
  8  9  2  0  0  0  0
  8 10  1  0  0  0  0
 10 11  1  0  0  0  0
 10 29  1  0  0  0  0
 11 12  1  0  0  0  0
 11 30  1  0  0  0  0
 11 31  1  0  0  0  0
 12 13  1  0  0  0  0
 12 32  1  0  0  0  0
 12 33  1  0  0  0  0
 13 20  1  0  0  0  0
 13 14  1  0  0  0  0
 13 47  1  0  0  0  0
 14 15  1  0  0  0  0
 14 34  1  0  0  0  0
 14 35  1  0  0  0  0
 15 16  1  0  0  0  0
 15 17  1  0  0  0  0
 15 36  1  0  0  0  0
 16 37  1  0  0  0  0
 16 38  1  0  0  0  0
 16 39  1  0  0  0  0
 17 18  1  0  0  0  0
 18 19  1  0  0  0  0
 18 20  1  0  0  0  0
 18 40  1  0  0  0  0
 19 41  1  0  0  0  0
 19 42  1  0  0  0  0
 19 43  1  0  0  0  0
 20 44  1  0  0  0  0
 20 45  1  0  0  0  0
 21 22  2  0  0  0  0
 21 46  1  0  0  0  0
M  CHG  1  13   1
M  END
> <s_m_source_file>
AV-unprocessed.smi

> <i_m_source_file_index>
1430

> <i_lp_mmshare_version>
43012

> <i_f3d_flags>
0

> <s_epik_input>
W0NIM11PYzFbY0hdW2NIXWMoW2NIXW4xKVtOSF1DKD1PKVtOSF1bQ0gyXVtDSDJdTjJbQ0gyXVtDQEBIXShbQ0gzXSlPW0NAQEhdKFtDSDNdKVtDSDJdMg==

> <s_epik_cmdline>
J2VwaWtfcHl0aG9uJywgJy1waCcsICc3LjAnLCAnLXRuJywgJzgnLCAnLW1hJywgJzIwMCcsICctbWV0YWxfYmluZGluZycsICctaW1hZScsICc8aW5maWxlLm1hZT4nLCAnLW9tYWUnLCAnPG91dGZpbGUubWFlPic=

> <r_lp_tautomer_probability>
1

> <r_epik_Ionization_Penalty>
0.602607

> <r_epik_Ionization_Penalty_Charging>
0.602531

> <r_epik_Ionization_Penalty_Neutral>
7.66983e-05

> <r_epik_State_Penalty>
0.617039

> <r_epik_Charging_Adjusted_Penalty>
1.21957

> <i_epik_Tot_Q>
1

> <i_epik_Tot_abs_Q>
1

> <r_epik_Metal_State_Penalty>
0.617043

> <b_epik_Metal_Only>
0

> <s_lp_Force_Field>
OPLS_2005

> <r_lp_Energy>
19.3268

> <b_lp_Chiralities_Consistent>
1

> <s_lp_Variant>
AV-unprocessed.smi:1430-7

> <Gold.Version>
5.8.1

> <Gold.Id.Protein>
6NUR|6NUR_protein|mol2

> <Gold.PLP.Fitness>
45.9370

> <Gold.PLP.PLP>
-31.4441

> <Gold.PLP.part.hbond>
-4.0000

> <Gold.PLP.part.metal>
0.0000

> <Gold.PLP.part.buried>
-4.1542

> <Gold.PLP.part.nonpolar>
-22.4071

> <Gold.PLP.part.repulsive>
0.2961

> <Gold.PLP.ligand.clash>
0.0000

> <Gold.PLP.ligand.torsion>
1.2802

> <Gold.PLP.Chemscore.Hbond>
4.6500

> <Gold.PLP.Chemscore.CHOScore>
1.0000

> <Gold.PLP.Chemscore.Metal>
0.0000

> <Gold.Chemscore.Hbonds>
donor molecule, donor type, donor heavy atom, donor atom, acceptor molecule, acceptor atom, score
      L1  H     7    28       P1  7948  1.00
      L1  H    10    29       P1  7948  1.00
      L1  H    13    47       P1  7948  1.92
      P1  H  7989  7998       L1    22  0.65
      L1  C    21    46       P1  7957  1.00

> <Gold.PLP.Chemscore.Internal.Correction>
0.1033

> <Gold.Rescore>
     Score         DG    S(hbond)    S(metal)    S(lipo)     H(rot)  DE(clash)    DE(int)     intcor
     14.37     -17.04       2.35        0.00      70.24       1.76       0.07       2.60       ----

> <Gold.Chemscore.Fitness>
14.3705

> <Gold.Chemscore.DG>
-17.0397

> <Gold.Chemscore.ZeroCoef>
-5.4800

> <Gold.Chemscore.Hbond>
2.3500

> <Gold.Chemscore.Metal>
0.0000

> <Gold.Chemscore.Lipo>
70.2389

> <Gold.Chemscore.Internal_Hbond>
0.0000

> <Gold.Chemscore.DEClash>
0.0730

> <Gold.Chemscore.DEInternal>
2.5962

> <Gold.Chemscore.Rot>
1.7606

> <Gold.Chemscore.Internal.Correction>
   9.000000E+99

> <Gold.Chemscore.Hbonds>
donor molecule, donor type, donor heavy atom, donor atom, acceptor molecule, acceptor atom, score
      L1  H     7    28       P1  7948  0.91
      L1  H    10    29       P1  7948  0.59
      L1  H    13    47       P1  7948  0.40
      P1  H  7989  7998       L1    22  0.06

> <Gold.Chemscore.Hbond.Weighted>
-7.8489

> <Gold.Chemscore.Metal.Weighted>
-0.0000

> <Gold.Chemscore.Lipo.Weighted>
-8.2180

> <Gold.Chemscore.Internal_Hbond.Weighted>
0.0000

> <Gold.Chemscore.DEClash.Weighted>
0.0730

> <Gold.Chemscore.DEInternal.Weighted>
2.5962

> <Gold.Chemscore.Rot.Weighted>
4.5072

> <Gold.Chemscore.Internal.Correction.Weighted>
   9.000000E+99

> <Gold.Protein.RotatedTorsions>
[ 6907 6896 6895 6894 ] final  123.98 input  -60.11 | X-H torsion
[ 7974 7965 7964 7962 ] final  143.83 input  175.53 | X-H torsion
[ 8008 7997 7996 7995 ] final  139.53 input   59.86 | X-H torsion
[ 10167 10162 10161 10158 ] final  -58.17 input  -65.29 | X-H torsion
[ 10718 10713 10712 10709 ] final  -58.84 input   66.30 | X-H torsion
[ 10763 10752 10751 10750 ] final  -73.29 input  -60.55 | X-H torsion
[ 11005 11000 10999 10996 ] final -136.65 input  -57.11 | X-H torsion

> <Gold.Protein.ActiveResidues>
 VAL166  LYS551  ARG553  GLY616  TRP617  ASP618  TYR619  PRO620  LYS621  CYS622 
 ASP623  PHE694  ASN695  SER759  ASP760  ASP761  ALA762  ILE779  LEU786  VAL792 
 PHE793  MET794  SER795  GLU796  ALA797  LYS798  CYS799  TRP800  GLU811  SER814 

> <Gold.Protein.RotatedAtoms>
  152.4116  133.6972  159.6402 H   0  0  0  0  0  0  0  0  0  0  0  0  # atno 6907 bound_to 6896
  150.7996  133.8614  159.3241 H   0  0  0  0  0  0  0  0  0  0  0  0  # atno 6908 bound_to 6896
  151.6355  135.1020  160.0182 H   0  0  0  0  0  0  0  0  0  0  0  0  # atno 6909 bound_to 6896
  144.8887  139.5591  143.5809 H   0  0  0  0  0  0  0  0  0  0  0  0  # atno 7974 bound_to 7965
  156.2989  140.2365  156.4252 H   0  0  0  0  0  0  0  0  0  0  0  0  # atno 8008 bound_to 7997
  154.8320  140.0432  157.1503 H   0  0  0  0  0  0  0  0  0  0  0  0  # atno 8009 bound_to 7997
  154.9198  140.3002  155.5226 H   0  0  0  0  0  0  0  0  0  0  0  0  # atno 8010 bound_to 7997
  140.6213  143.2421  151.5473 H   0  0  0  0  0  0  0  0  0  0  0  0  # atno 10167 bound_to 10162
  156.1105  130.4175  150.0633 H   0  0  0  0  0  0  0  0  0  0  0  0  # atno 10718 bound_to 10713
  154.4574  135.5902  153.6232 H   0  0  0  0  0  0  0  0  0  0  0  0  # atno 10763 bound_to 10752
  152.9819  135.6035  154.3528 H   0  0  0  0  0  0  0  0  0  0  0  0  # atno 10764 bound_to 10752
  154.3397  135.2842  155.2408 H   0  0  0  0  0  0  0  0  0  0  0  0  # atno 10765 bound_to 10752
  140.8785  134.1962  157.4606 H   0  0  0  0  0  0  0  0  0  0  0  0  # atno 11005 bound_to 11000
  146.3040  139.7519  142.9070 LP  0  0  0  0  0  0  0  0  0  0  0  0  # atno 17320 bound_to 7965
  145.3822  141.0360  143.3171 LP  0  0  0  0  0  0  0  0  0  0  0  0  # atno 17321 bound_to 7965
  139.5441  144.2567  152.1409 LP  0  0  0  0  0  0  0  0  0  0  0  0  # atno 17342 bound_to 10162
  140.1788  144.4864  150.6539 LP  0  0  0  0  0  0  0  0  0  0  0  0  # atno 17343 bound_to 10162
  156.8597  130.9487  151.3619 LP  0  0  0  0  0  0  0  0  0  0  0  0  # atno 17370 bound_to 10713
  157.6286  130.8711  149.9233 LP  0  0  0  0  0  0  0  0  0  0  0  0  # atno 17371 bound_to 10713
  139.8717  134.9806  156.5084 LP  0  0  0  0  0  0  0  0  0  0  0  0  # atno 17394 bound_to 11000
  140.8490  133.8147  155.9149 LP  0  0  0  0  0  0  0  0  0  0  0  0  # atno 17395 bound_to 11000

$$$$
