AV-unprocessed.smi:370|AV-procd|sdf|2439|dock7
  -GOLD-   2262022383D 1   1.00000     0.00000
 Structure written by MMmdl.
 42 43  0  0  0  0  0  0  0  0  3 V2000
  149.9227  142.5814  158.0527 C   0  0  0  0  0  0  0  0  0  0  0  0
  150.6391  141.5955  157.1947 C   0  0  0  0  0  0  0  0  0  0  0  0
  151.7409  140.8152  157.4016 C   0  0  0  0  0  0  0  0  0  0  0  0
  151.8745  140.1099  156.1745 C   0  0  0  0  0  0  0  0  0  0  0  0
  152.8322  139.2176  155.8793 N   0  5  0  0  0  0  0  0  0  0  0  0
  152.5589  138.1682  155.0717 C   0  0  0  0  0  0  0  0  0  0  0  0
  153.2201  137.8031  154.0969 O   0  0  0  0  0  0  0  0  0  0  0  0
  151.4420  137.5082  155.4106 N   0  0  0  0  0  0  0  0  0  0  0  0
  150.8747  136.3468  154.7258 C   0  0  0  0  0  0  0  0  0  0  0  0
  149.4528  135.9438  155.2254 C   0  0  0  0  0  0  0  0  0  0  0  0
  149.5920  135.4485  156.6896 C   0  0  0  0  0  0  0  0  0  0  0  0
  148.4990  137.1639  155.2298 C   0  0  0  0  0  0  0  0  0  0  0  0
  148.9279  134.8493  154.3278 N   0  3  0  0  0  0  0  0  0  0  0  0
  149.7271  133.5909  154.2788 C   0  0  0  0  0  0  0  0  0  0  0  0
  149.1691  132.6285  153.2152 C   0  0  0  0  0  0  0  0  0  0  0  0
  147.7984  132.3571  153.4686 O   0  0  0  0  0  0  0  0  0  0  0  0
  147.0141  133.5397  153.4174 C   0  0  0  0  0  0  0  0  0  0  0  0
  147.4870  134.5090  154.5113 C   0  0  0  0  0  0  0  0  0  0  0  0
  150.9458  140.4447  155.2947 N   0  0  0  0  0  0  0  0  0  0  0  0
  150.1451  141.3923  155.9437 O   0  0  0  0  0  0  0  0  0  0  0  0
  150.5851  143.4005  158.3329 H   0  0  0  0  0  0  0  0  0  0  0  0
  149.5646  142.1076  158.9667 H   0  0  0  0  0  0  0  0  0  0  0  0
  149.0633  143.0052  157.5328 H   0  0  0  0  0  0  0  0  0  0  0  0
  152.3522  140.7552  158.2896 H   0  0  0  0  0  0  0  0  0  0  0  0
  150.9395  137.8476  156.2178 H   0  0  0  0  0  0  0  0  0  0  0  0
  150.8936  136.5334  153.6534 H   0  0  0  0  0  0  0  0  0  0  0  0
  151.5626  135.5161  154.8860 H   0  0  0  0  0  0  0  0  0  0  0  0
  150.0639  136.1933  157.3308 H   0  0  0  0  0  0  0  0  0  0  0  0
  150.1960  134.5424  156.7501 H   0  0  0  0  0  0  0  0  0  0  0  0
  148.6251  135.2450  157.1503 H   0  0  0  0  0  0  0  0  0  0  0  0
  148.8001  137.9023  155.9735 H   0  0  0  0  0  0  0  0  0  0  0  0
  147.4755  136.8766  155.4704 H   0  0  0  0  0  0  0  0  0  0  0  0
  148.4855  137.6767  154.2680 H   0  0  0  0  0  0  0  0  0  0  0  0
  150.7649  133.7829  154.0125 H   0  0  0  0  0  0  0  0  0  0  0  0
  149.7249  133.1090  155.2571 H   0  0  0  0  0  0  0  0  0  0  0  0
  149.2885  133.0465  152.2142 H   0  0  0  0  0  0  0  0  0  0  0  0
  149.7223  131.6894  153.2329 H   0  0  0  0  0  0  0  0  0  0  0  0
  147.0795  133.9997  152.4300 H   0  0  0  0  0  0  0  0  0  0  0  0
  145.9689  133.2745  153.5773 H   0  0  0  0  0  0  0  0  0  0  0  0
  147.3315  134.0426  155.4848 H   0  0  0  0  0  0  0  0  0  0  0  0
  146.8545  135.3931  154.4798 H   0  0  0  0  0  0  0  0  0  0  0  0
  148.9986  135.2335  153.3964 H   0  0  0  0  0  0  0  0  0  0  0  0
  1  2  1  0  0  0  0
  1 21  1  0  0  0  0
  1 22  1  0  0  0  0
  1 23  1  0  0  0  0
  2 20  1  0  0  0  0
  2  3  2  0  0  0  0
  3  4  1  0  0  0  0
  3 24  1  0  0  0  0
  4  5  1  0  0  0  0
  4 19  2  0  0  0  0
  5  6  1  0  0  0  0
  6  7  2  0  0  0  0
  6  8  1  0  0  0  0
  8  9  1  0  0  0  0
  8 25  1  0  0  0  0
  9 10  1  0  0  0  0
  9 26  1  0  0  0  0
  9 27  1  0  0  0  0
 10 11  1  0  0  0  0
 10 12  1  0  0  0  0
 10 13  1  0  0  0  0
 11 28  1  0  0  0  0
 11 29  1  0  0  0  0
 11 30  1  0  0  0  0
 12 31  1  0  0  0  0
 12 32  1  0  0  0  0
 12 33  1  0  0  0  0
 13 18  1  0  0  0  0
 13 14  1  0  0  0  0
 13 42  1  0  0  0  0
 14 15  1  0  0  0  0
 14 34  1  0  0  0  0
 14 35  1  0  0  0  0
 15 16  1  0  0  0  0
 15 36  1  0  0  0  0
 15 37  1  0  0  0  0
 16 17  1  0  0  0  0
 17 18  1  0  0  0  0
 17 38  1  0  0  0  0
 17 39  1  0  0  0  0
 18 40  1  0  0  0  0
 18 41  1  0  0  0  0
 19 20  1  0  0  0  0
M  CHG  1   5  -1
M  CHG  1  13   1
M  END
> <s_m_source_file>
AV-unprocessed.smi

> <i_m_source_file_index>
370

> <i_lp_mmshare_version>
43012

> <i_f3d_flags>
0

> <s_epik_input>
W0NIM11jMVtjSF1jKG5vMSlbTkhdQyg9TylbTkhdW0NIMl1DKFtDSDNdKShbQ0gzXSlOMltDSDJdW0NIMl1PW0NIMl1bQ0gyXTI=

> <s_epik_cmdline>
J2VwaWtfcHl0aG9uJywgJy1waCcsICc3LjAnLCAnLXRuJywgJzgnLCAnLW1hJywgJzIwMCcsICctbWV0YWxfYmluZGluZycsICctaW1hZScsICc8aW5maWxlLm1hZT4nLCAnLW9tYWUnLCAnPG91dGZpbGUubWFlPic=

> <r_epik_Ionization_Penalty>
6.73014

> <r_epik_Ionization_Penalty_Charging>
6.73004

> <r_epik_Ionization_Penalty_Neutral>
9.76201e-05

> <r_epik_State_Penalty>
6.93052

> <r_epik_Charging_Adjusted_Penalty>
13.6606

> <i_epik_Tot_Q>
0

> <i_epik_Tot_abs_Q>
2

> <r_epik_Metal_State_Penalty>
2.86736

> <b_epik_Metal_Only>
1

> <s_lp_Force_Field>
OPLS_2005

> <r_lp_Energy>
13.9603

> <b_lp_Chiralities_Consistent>
1

> <s_lp_Variant>
AV-unprocessed.smi:370-4

> <Gold.Version>
5.8.1

> <Gold.Id.Protein>
6NUR|6NUR_protein|mol2

> <Gold.PLP.Fitness>
42.1526

> <Gold.PLP.PLP>
-27.9547

> <Gold.PLP.part.hbond>
-4.0000

> <Gold.PLP.part.metal>
0.0000

> <Gold.PLP.part.buried>
-4.3197

> <Gold.PLP.part.nonpolar>
-19.8721

> <Gold.PLP.part.repulsive>
0.3749

> <Gold.PLP.ligand.clash>
0.1514

> <Gold.PLP.ligand.torsion>
0.8424

> <Gold.PLP.Chemscore.Hbond>
5.3120

> <Gold.PLP.Chemscore.CHOScore>
0.0000

> <Gold.PLP.Chemscore.Metal>
0.0000

> <Gold.Chemscore.Hbonds>
donor molecule, donor type, donor heavy atom, donor atom, acceptor molecule, acceptor atom, score
      L1  H    13    42       P1  7948  2.00
      P1  H  7989  7998       L1    19  1.00
      P1  H  7997  8009       L1     5  2.00
      P1  H 10752 10764       L1     7  0.25

> <Gold.PLP.Chemscore.Internal.Correction>
0.0981

> <Gold.Rescore>
     Score         DG    S(hbond)    S(metal)    S(lipo)     H(rot)  DE(clash)    DE(int)     intcor
     14.39     -16.43       2.80        0.00      47.96       1.57       0.16       1.88       ----

> <Gold.Chemscore.Fitness>
14.3877

> <Gold.Chemscore.DG>
-16.4323

> <Gold.Chemscore.ZeroCoef>
-5.4800

> <Gold.Chemscore.Hbond>
2.8025

> <Gold.Chemscore.Metal>
0.0000

> <Gold.Chemscore.Lipo>
47.9593

> <Gold.Chemscore.Internal_Hbond>
0.0000

> <Gold.Chemscore.DEClash>
0.1644

> <Gold.Chemscore.DEInternal>
1.8801

> <Gold.Chemscore.Rot>
1.5701

> <Gold.Chemscore.Internal.Correction>
   9.000000E+99

> <Gold.Chemscore.Hbonds>
donor molecule, donor type, donor heavy atom, donor atom, acceptor molecule, acceptor atom, score
      L1  H    13    42       P1  7948  0.45
      P1  H  7989  7998       L1    19  0.78
      P1  H  7997  8009       L1     5  0.40
      P1  H 10752 10764       L1     7  0.14

> <Gold.Chemscore.Hbond.Weighted>
-9.3604

> <Gold.Chemscore.Metal.Weighted>
-0.0000

> <Gold.Chemscore.Lipo.Weighted>
-5.6112

> <Gold.Chemscore.Internal_Hbond.Weighted>
0.0000

> <Gold.Chemscore.DEClash.Weighted>
0.1644

> <Gold.Chemscore.DEInternal.Weighted>
1.8801

> <Gold.Chemscore.Rot.Weighted>
4.0194

> <Gold.Chemscore.Internal.Correction.Weighted>
   9.000000E+99

> <Gold.Protein.RotatedTorsions>
[ 6907 6896 6895 6894 ] final -157.78 input  -60.11 | X-H torsion
[ 7974 7965 7964 7962 ] final -144.93 input  175.53 | X-H torsion
[ 8008 7997 7996 7995 ] final -155.38 input   59.86 | X-H torsion
[ 10167 10162 10161 10158 ] final   67.51 input  -65.29 | X-H torsion
[ 10718 10713 10712 10709 ] final  162.36 input   66.30 | X-H torsion
[ 10763 10752 10751 10750 ] final  -92.13 input  -60.55 | X-H torsion
[ 11005 11000 10999 10996 ] final   10.80 input  -57.11 | X-H torsion

> <Gold.Protein.ActiveResidues>
 VAL166  LYS551  ARG553  GLY616  TRP617  ASP618  TYR619  PRO620  LYS621  CYS622 
 ASP623  PHE694  ASN695  SER759  ASP760  ASP761  ALA762  ILE779  LEU786  VAL792 
 PHE793  MET794  SER795  GLU796  ALA797  LYS798  CYS799  TRP800  GLU811  SER814 

> <Gold.Protein.RotatedAtoms>
  151.3081  133.4092  159.2644 H   0  0  0  0  0  0  0  0  0  0  0  0  # atno 6907 bound_to 6896
  151.0138  134.9417  159.8032 H   0  0  0  0  0  0  0  0  0  0  0  0  # atno 6908 bound_to 6896
  152.5307  134.3045  159.9143 H   0  0  0  0  0  0  0  0  0  0  0  0  # atno 6909 bound_to 6896
  144.8263  140.5648  143.5545 H   0  0  0  0  0  0  0  0  0  0  0  0  # atno 7974 bound_to 7965
  155.7009  140.0766  157.2410 H   0  0  0  0  0  0  0  0  0  0  0  0  # atno 8008 bound_to 7997
  154.4073  140.1647  156.2243 H   0  0  0  0  0  0  0  0  0  0  0  0  # atno 8009 bound_to 7997
  155.9369  140.3387  155.6298 H   0  0  0  0  0  0  0  0  0  0  0  0  # atno 8010 bound_to 7997
  140.0888  144.5007  150.7113 H   0  0  0  0  0  0  0  0  0  0  0  0  # atno 10167 bound_to 10162
  157.1236  131.0498  151.2404 H   0  0  0  0  0  0  0  0  0  0  0  0  # atno 10718 bound_to 10713
  154.6830  135.5242  153.8289 H   0  0  0  0  0  0  0  0  0  0  0  0  # atno 10763 bound_to 10752
  153.0578  135.6557  154.0544 H   0  0  0  0  0  0  0  0  0  0  0  0  # atno 10764 bound_to 10752
  154.0429  135.2975  155.3332 H   0  0  0  0  0  0  0  0  0  0  0  0  # atno 10765 bound_to 10752
  140.5104  134.0657  155.7817 H   0  0  0  0  0  0  0  0  0  0  0  0  # atno 11005 bound_to 11000
  145.4993  139.1484  143.3666 LP  0  0  0  0  0  0  0  0  0  0  0  0  # atno 17320 bound_to 7965
  146.2568  140.5133  142.8870 LP  0  0  0  0  0  0  0  0  0  0  0  0  # atno 17321 bound_to 7965
  140.7039  143.2454  151.4782 LP  0  0  0  0  0  0  0  0  0  0  0  0  # atno 17342 bound_to 10162
  139.5737  144.1869  152.1873 LP  0  0  0  0  0  0  0  0  0  0  0  0  # atno 17343 bound_to 10162
  157.4455  130.7568  149.7105 LP  0  0  0  0  0  0  0  0  0  0  0  0  # atno 17370 bound_to 10713
  155.9823  130.4011  150.3424 LP  0  0  0  0  0  0  0  0  0  0  0  0  # atno 17371 bound_to 10713
  141.1388  133.9174  157.2372 LP  0  0  0  0  0  0  0  0  0  0  0  0  # atno 17394 bound_to 11000
  139.9662  135.0141  156.9393 LP  0  0  0  0  0  0  0  0  0  0  0  0  # atno 17395 bound_to 11000

$$$$
