AV-unprocessed.smi:276|AV-procd|sdf|2070|dock1
  -GOLD-   2262021323D 1   1.00000     0.00000
 Structure written by MMmdl.
 57 61  0  0  0  0  0  0  0  0  1 V2000
  153.0732  143.2467  162.8152 C   0  0  0  0  0  0  0  0  0  0  0  0
  152.5901  143.6089  161.5337 O   0  0  0  0  0  0  0  0  0  0  0  0
  152.3318  142.4836  160.7088 C   0  0  2  0  0  0  0  0  0  0  0  0
  153.5426  141.5709  160.4789 C   0  0  0  0  0  0  0  0  0  0  0  0
  153.1194  141.4504  159.0014 C   0  0  1  0  0  0  0  0  0  0  0  0
  152.2705  140.2716  158.7746 N   0  0  0  0  0  0  0  0  0  0  0  0
  152.7649  139.0092  159.3156 C   0  0  0  0  0  0  0  0  0  0  0  0
  151.8436  140.0866  157.5053 C   0  0  0  0  0  0  0  0  0  0  0  0
  152.7348  139.5631  156.6271 N   0  0  0  0  0  0  0  0  0  0  0  0
  152.3737  139.3422  155.3596 C   0  0  0  0  0  0  0  0  0  0  0  0
  151.1969  139.5733  154.7737 N   0  0  0  0  0  0  0  0  0  0  0  0
  150.3040  140.1148  155.6514 C   0  0  0  0  0  0  0  0  0  0  0  0
  150.5421  140.4091  157.0235 C   0  0  0  0  0  0  0  0  0  0  0  0
  149.3998  140.9600  157.5932 N   0  0  0  0  0  0  0  0  0  0  0  0
  148.5320  140.9748  156.6191 C   0  0  0  0  0  0  0  0  0  0  0  0
  148.9910  140.4833  155.4187 N   0  0  0  0  0  0  0  0  0  0  0  0
  148.2375  140.3770  154.1810 C   0  0  0  0  0  0  0  0  0  0  0  0
  148.0468  138.9112  153.7270 C   0  0  2  0  0  0  0  0  0  0  0  0
  147.5821  138.9314  152.3897 O   0  0  0  0  0  0  0  0  0  0  0  0
  147.0109  138.1183  154.5593 C   0  0  2  0  0  0  0  0  0  0  0  0
  147.0036  136.5963  154.3296 C   0  0  0  0  0  0  0  0  0  0  0  0
  145.9516  136.4065  153.2619 C   0  0  0  0  0  0  0  0  0  0  0  0
  144.9306  137.4522  153.6770 C   0  0  0  0  0  0  0  0  0  0  0  0
  145.7128  138.5473  154.1350 O   0  0  0  0  0  0  0  0  0  0  0  0
  152.3661  142.7939  159.2013 C   0  0  0  0  0  0  0  0  0  0  0  0
  153.0096  144.1009  158.7025 C   0  0  0  0  0  0  0  0  0  0  0  0
  151.5983  144.6773  158.5600 C   0  0  0  0  0  0  0  0  0  0  0  0
  151.0938  143.2363  158.4528 C   0  0  0  0  0  0  0  0  0  0  0  0
  153.2410  144.1449  163.4096 H   0  0  0  0  0  0  0  0  0  0  0  0
  154.0190  142.7081  162.7458 H   0  0  0  0  0  0  0  0  0  0  0  0
  152.3529  142.6221  163.3447 H   0  0  0  0  0  0  0  0  0  0  0  0
  151.4314  141.9329  160.9897 H   0  0  0  0  0  0  0  0  0  0  0  0
  154.4911  142.0977  160.5957 H   0  0  0  0  0  0  0  0  0  0  0  0
  153.5297  140.6556  161.0698 H   0  0  0  0  0  0  0  0  0  0  0  0
  153.9722  141.5224  158.3265 H   0  0  0  0  0  0  0  0  0  0  0  0
  152.2417  138.1481  158.8958 H   0  0  0  0  0  0  0  0  0  0  0  0
  152.6237  138.9748  160.3953 H   0  0  0  0  0  0  0  0  0  0  0  0
  153.8289  138.8926  159.1065 H   0  0  0  0  0  0  0  0  0  0  0  0
  153.1364  138.9165  154.7244 H   0  0  0  0  0  0  0  0  0  0  0  0
  147.5251  141.3435  156.7506 H   0  0  0  0  0  0  0  0  0  0  0  0
  147.2779  140.8640  154.3478 H   0  0  0  0  0  0  0  0  0  0  0  0
  148.7494  140.9523  153.4084 H   0  0  0  0  0  0  0  0  0  0  0  0
  149.0099  138.3997  153.7499 H   0  0  0  0  0  0  0  0  0  0  0  0
  148.1436  139.4995  151.8848 H   0  0  0  0  0  0  0  0  0  0  0  0
  147.1451  138.3249  155.6221 H   0  0  0  0  0  0  0  0  0  0  0  0
  147.9630  136.1621  154.0569 H   0  0  0  0  0  0  0  0  0  0  0  0
  146.6773  136.0965  155.2428 H   0  0  0  0  0  0  0  0  0  0  0  0
  146.3610  136.6419  152.2786 H   0  0  0  0  0  0  0  0  0  0  0  0
  145.5423  135.3964  153.2348 H   0  0  0  0  0  0  0  0  0  0  0  0
  144.2690  137.7444  152.8612 H   0  0  0  0  0  0  0  0  0  0  0  0
  144.3181  137.0844  154.5013 H   0  0  0  0  0  0  0  0  0  0  0  0
  153.6478  144.6181  159.4193 H   0  0  0  0  0  0  0  0  0  0  0  0
  153.5100  143.9801  157.7402 H   0  0  0  0  0  0  0  0  0  0  0  0
  151.2529  145.1802  159.4646 H   0  0  0  0  0  0  0  0  0  0  0  0
  151.4398  145.2863  157.6697 H   0  0  0  0  0  0  0  0  0  0  0  0
  151.0504  142.9128  157.4130 H   0  0  0  0  0  0  0  0  0  0  0  0
  150.1583  143.0373  158.9760 H   0  0  0  0  0  0  0  0  0  0  0  0
  1  2  1  0  0  0  0
  1 29  1  0  0  0  0
  1 30  1  0  0  0  0
  1 31  1  0  0  0  0
  2  3  1  0  0  0  0
  3 25  1  0  0  0  0
  3  4  1  0  0  0  0
  3 32  1  0  0  0  0
  4  5  1  0  0  0  0
  4 33  1  0  0  0  0
  4 34  1  0  0  0  0
  5  6  1  0  0  0  0
  5 25  1  0  0  0  0
  5 35  1  0  0  0  0
  6  7  1  0  0  0  0
  6  8  1  0  0  0  0
  7 36  1  0  0  0  0
  7 37  1  0  0  0  0
  7 38  1  0  0  0  0
  8 13  1  0  0  0  0
  8  9  2  0  0  0  0
  9 10  1  0  0  0  0
 10 11  2  0  0  0  0
 10 39  1  0  0  0  0
 11 12  1  0  0  0  0
 12 16  1  0  0  0  0
 12 13  2  0  0  0  0
 13 14  1  0  0  0  0
 14 15  2  0  0  0  0
 15 16  1  0  0  0  0
 15 40  1  0  0  0  0
 16 17  1  0  0  0  0
 17 18  1  0  0  0  0
 17 41  1  0  0  0  0
 17 42  1  0  0  0  0
 18 19  1  0  0  0  0
 18 20  1  0  0  0  0
 18 43  1  0  0  0  0
 19 44  1  0  0  0  0
 20 24  1  0  0  0  0
 20 21  1  0  0  0  0
 20 45  1  0  0  0  0
 21 22  1  0  0  0  0
 21 46  1  0  0  0  0
 21 47  1  0  0  0  0
 22 23  1  0  0  0  0
 22 48  1  0  0  0  0
 22 49  1  0  0  0  0
 23 24  1  0  0  0  0
 23 50  1  0  0  0  0
 23 51  1  0  0  0  0
 25 28  1  0  0  0  0
 25 26  1  0  0  0  0
 26 27  1  0  0  0  0
 26 52  1  0  0  0  0
 26 53  1  0  0  0  0
 27 28  1  0  0  0  0
 27 54  1  0  0  0  0
 27 55  1  0  0  0  0
 28 56  1  0  0  0  0
 28 57  1  0  0  0  0
M  END
> <s_m_source_file>
AV-unprocessed.smi

> <i_m_source_file_index>
276

> <i_lp_mmshare_version>
43012

> <i_f3d_flags>
0

> <s_epik_input>
W0NIMl0xW0NIMl1bQ0gyXUMxMltDQEhdKE9bQ0gzXSlbQ0gyXVtDQEhdMk4oW0NIM10pYyhuW2NIXW4zKWMoYzM0KW5bY0hdbjRbQ0gyXVtDQEhdKFtPSF0pW0NAQEhdNVtDSDJdW0NIMl1bQ0gyXU81

> <s_epik_cmdline>
J2VwaWtfcHl0aG9uJywgJy1waCcsICc3LjAnLCAnLXRuJywgJzgnLCAnLW1hJywgJzIwMCcsICctbWV0YWxfYmluZGluZycsICctaW1hZScsICc8aW5maWxlLm1hZT4nLCAnLW9tYWUnLCAnPG91dGZpbGUubWFlPic=

> <r_lp_tautomer_probability>
1

> <r_epik_Ionization_Penalty>
0.00204117

> <r_epik_Ionization_Penalty_Charging>
0

> <r_epik_Ionization_Penalty_Neutral>
0.00204117

> <r_epik_State_Penalty>
0.00127401

> <r_epik_Charging_Adjusted_Penalty>
0.00127401

> <i_epik_Tot_Q>
0

> <i_epik_Tot_abs_Q>
0

> <r_epik_Metal_State_Penalty>
-0

> <b_epik_Metal_Only>
0

> <s_lp_Force_Field>
OPLS_2005

> <r_lp_Energy>
59.1309

> <b_lp_Chiralities_Consistent>
1

> <s_lp_Variant>
AV-unprocessed.smi:276-1

> <Gold.Version>
5.8.1

> <Gold.Id.Protein>
6NUR|6NUR_protein|mol2

> <Gold.PLP.Fitness>
57.7213

> <Gold.PLP.PLP>
-50.0163

> <Gold.PLP.part.hbond>
-3.7828

> <Gold.PLP.part.metal>
0.0000

> <Gold.PLP.part.buried>
-6.4117

> <Gold.PLP.part.nonpolar>
-39.8352

> <Gold.PLP.part.repulsive>
0.3537

> <Gold.PLP.ligand.clash>
0.0000

> <Gold.PLP.ligand.torsion>
1.0804

> <Gold.PLP.Chemscore.Hbond>
3.0000

> <Gold.PLP.Chemscore.CHOScore>
0.0000

> <Gold.PLP.Chemscore.Metal>
0.0000

> <Gold.Chemscore.Hbonds>
donor molecule, donor type, donor heavy atom, donor atom, acceptor molecule, acceptor atom, score
      L1  H    19    44       P1  7957  1.00
      P1  H  7989  7998       L1    11  1.00
      P1  H  7997  8008       L1     9  1.00

> <Gold.PLP.Chemscore.Internal.Correction>
0.8658

> <Gold.Rescore>
     Score         DG    S(hbond)    S(metal)    S(lipo)     H(rot)  DE(clash)    DE(int)     intcor
     17.08     -18.64       1.75        0.00     121.91       2.72       0.52       1.05       ----

> <Gold.Chemscore.Fitness>
17.0764

> <Gold.Chemscore.DG>
-18.6402

> <Gold.Chemscore.ZeroCoef>
-5.4800

> <Gold.Chemscore.Hbond>
1.7522

> <Gold.Chemscore.Metal>
0.0000

> <Gold.Chemscore.Lipo>
121.9129

> <Gold.Chemscore.Internal_Hbond>
0.0000

> <Gold.Chemscore.DEClash>
0.5159

> <Gold.Chemscore.DEInternal>
1.0479

> <Gold.Chemscore.Rot>
2.7172

> <Gold.Chemscore.Internal.Correction>
   9.000000E+99

> <Gold.Chemscore.Hbonds>
donor molecule, donor type, donor heavy atom, donor atom, acceptor molecule, acceptor atom, score
      L1  H    19    44       P1  7957  0.99
      P1  H  7989  7998       L1    11  0.24
      P1  H  7997  8008       L1     9  0.39

> <Gold.Chemscore.Hbond.Weighted>
-5.8524

> <Gold.Chemscore.Metal.Weighted>
-0.0000

> <Gold.Chemscore.Lipo.Weighted>
-14.2638

> <Gold.Chemscore.Internal_Hbond.Weighted>
0.0000

> <Gold.Chemscore.DEClash.Weighted>
0.5159

> <Gold.Chemscore.DEInternal.Weighted>
1.0479

> <Gold.Chemscore.Rot.Weighted>
6.9560

> <Gold.Chemscore.Internal.Correction.Weighted>
   9.000000E+99

> <Gold.Protein.RotatedTorsions>
[ 6907 6896 6895 6894 ] final   36.33 input  -60.11 | X-H torsion
[ 7974 7965 7964 7962 ] final -107.16 input  175.53 | X-H torsion
[ 8008 7997 7996 7995 ] final  -51.02 input   59.86 | X-H torsion
[ 10167 10162 10161 10158 ] final   -9.00 input  -65.29 | X-H torsion
[ 10718 10713 10712 10709 ] final   33.46 input   66.30 | X-H torsion
[ 10763 10752 10751 10750 ] final  -92.35 input  -60.55 | X-H torsion
[ 11005 11000 10999 10996 ] final   36.12 input  -57.11 | X-H torsion

> <Gold.Protein.ActiveResidues>
 VAL166  LYS551  ARG553  GLY616  TRP617  ASP618  TYR619  PRO620  LYS621  CYS622 
 ASP623  PHE694  ASN695  SER759  ASP760  ASP761  ALA762  ILE779  LEU786  VAL792 
 PHE793  MET794  SER795  GLU796  ALA797  LYS798  CYS799  TRP800  GLU811  SER814 

> <Gold.Protein.RotatedAtoms>
  152.1283  134.9154  160.0559 H   0  0  0  0  0  0  0  0  0  0  0  0  # atno 6907 bound_to 6896
  152.0268  133.3916  159.4289 H   0  0  0  0  0  0  0  0  0  0  0  0  # atno 6908 bound_to 6896
  150.6854  134.3486  159.4943 H   0  0  0  0  0  0  0  0  0  0  0  0  # atno 6909 bound_to 6896
  145.2088  140.9087  143.3326 H   0  0  0  0  0  0  0  0  0  0  0  0  # atno 7974 bound_to 7965
  154.4074  140.1258  156.4761 H   0  0  0  0  0  0  0  0  0  0  0  0  # atno 8008 bound_to 7997
  155.7131  140.3493  155.4963 H   0  0  0  0  0  0  0  0  0  0  0  0  # atno 8009 bound_to 7997
  155.9282  140.1065  157.1143 H   0  0  0  0  0  0  0  0  0  0  0  0  # atno 8010 bound_to 7997
  140.7075  143.5906  150.8898 H   0  0  0  0  0  0  0  0  0  0  0  0  # atno 10167 bound_to 10162
  157.2981  130.7337  149.6650 H   0  0  0  0  0  0  0  0  0  0  0  0  # atno 10718 bound_to 10713
  154.6852  135.5234  153.8316 H   0  0  0  0  0  0  0  0  0  0  0  0  # atno 10763 bound_to 10752
  153.0592  135.6562  154.0512 H   0  0  0  0  0  0  0  0  0  0  0  0  # atno 10764 bound_to 10752
  154.0394  135.2978  155.3337 H   0  0  0  0  0  0  0  0  0  0  0  0  # atno 10765 bound_to 10752
  140.2357  134.3474  155.7945 H   0  0  0  0  0  0  0  0  0  0  0  0  # atno 11005 bound_to 11000
  144.9876  139.3721  143.6231 LP  0  0  0  0  0  0  0  0  0  0  0  0  # atno 17320 bound_to 7965
  146.3402  139.9045  142.8789 LP  0  0  0  0  0  0  0  0  0  0  0  0  # atno 17321 bound_to 7965
  139.9631  143.6141  152.2996 LP  0  0  0  0  0  0  0  0  0  0  0  0  # atno 17342 bound_to 10162
  139.6701  144.7661  151.1800 LP  0  0  0  0  0  0  0  0  0  0  0  0  # atno 17343 bound_to 10162
  155.9670  130.4288  150.4805 LP  0  0  0  0  0  0  0  0  0  0  0  0  # atno 17370 bound_to 10713
  157.2781  131.0601  151.2216 LP  0  0  0  0  0  0  0  0  0  0  0  0  # atno 17371 bound_to 10713
  141.2214  133.7271  156.8805 LP  0  0  0  0  0  0  0  0  0  0  0  0  # atno 17394 bound_to 11000
  140.1704  134.9104  157.2826 LP  0  0  0  0  0  0  0  0  0  0  0  0  # atno 17395 bound_to 11000

$$$$
