AV-unprocessed.smi:1313|AV-procd|sdf|5450|dock4
  -GOLD-   22720 5 23D 1   1.00000     0.00000
 Structure written by MMmdl.
 37 38  0  0  0  0  0  0  0  0  1 V2000
  146.7815  138.6479  151.9181 C   0  0  0  0  0  0  0  0  0  0  0  0
  146.9466  139.5060  153.1544 C   0  0  0  0  0  0  0  0  0  0  0  0
  146.1404  139.4783  154.1641 N   0  0  0  0  0  0  0  0  0  0  0  0
  146.4007  140.3156  155.2579 C   0  0  0  0  0  0  0  0  0  0  0  0
  145.4133  140.2151  156.4080 C   0  0  0  0  0  0  0  0  0  0  0  0
  147.4770  141.1560  155.2761 C   0  0  0  0  0  0  0  0  0  0  0  0
  147.7960  142.0700  156.4576 C   0  0  0  0  0  0  0  0  0  0  0  0
  149.1825  141.8726  157.0725 C   0  0  0  0  0  0  0  0  0  0  0  0
  149.4822  140.7908  157.5772 O   0  0  0  0  0  0  0  0  0  0  0  0
  150.0141  142.9250  157.0333 N   0  0  0  0  0  0  0  0  0  0  0  0
  151.3615  142.9517  157.5956 C   0  0  0  0  0  0  0  0  0  0  0  0
  151.3229  142.7244  159.1189 C   0  0  0  0  0  0  0  0  0  0  0  0
  152.2214  143.8010  159.7295 C   0  0  0  0  0  0  0  0  0  0  0  0
  152.1125  144.9757  158.7625 C   0  0  0  0  0  0  0  0  0  0  0  0
  152.0403  144.3202  157.3829 C   0  0  0  0  0  0  0  0  0  0  0  0
  148.3874  141.1838  154.1147 C   0  0  0  0  0  0  0  0  0  0  0  0
  149.3828  141.9008  154.0249 O   0  0  0  0  0  0  0  0  0  0  0  0
  148.0618  140.3409  153.1093 N   0  0  0  0  0  0  0  0  0  0  0  0
  148.6566  140.3199  152.2940 H   0  0  0  0  0  0  0  0  0  0  0  0
  146.7908  137.5923  152.1911 H   0  0  0  0  0  0  0  0  0  0  0  0
  147.5818  138.8208  151.1969 H   0  0  0  0  0  0  0  0  0  0  0  0
  145.8307  138.8683  151.4325 H   0  0  0  0  0  0  0  0  0  0  0  0
  144.9453  141.1805  156.6014 H   0  0  0  0  0  0  0  0  0  0  0  0
  145.9150  139.8826  157.3166 H   0  0  0  0  0  0  0  0  0  0  0  0
  144.6195  139.5008  156.1868 H   0  0  0  0  0  0  0  0  0  0  0  0
  147.6992  143.1172  156.1687 H   0  0  0  0  0  0  0  0  0  0  0  0
  147.0358  141.9293  157.2265 H   0  0  0  0  0  0  0  0  0  0  0  0
  149.6845  143.7750  156.5990 H   0  0  0  0  0  0  0  0  0  0  0  0
  151.9655  142.1709  157.1296 H   0  0  0  0  0  0  0  0  0  0  0  0
  150.3090  142.8523  159.5017 H   0  0  0  0  0  0  0  0  0  0  0  0
  151.6457  141.7199  159.3940 H   0  0  0  0  0  0  0  0  0  0  0  0
  151.9298  144.0644  160.7466 H   0  0  0  0  0  0  0  0  0  0  0  0
  153.2523  143.4456  159.7594 H   0  0  0  0  0  0  0  0  0  0  0  0
  151.1916  145.5272  158.9565 H   0  0  0  0  0  0  0  0  0  0  0  0
  152.9452  145.6739  158.8519 H   0  0  0  0  0  0  0  0  0  0  0  0
  153.0518  144.1626  157.0068 H   0  0  0  0  0  0  0  0  0  0  0  0
  151.5270  144.9539  156.6583 H   0  0  0  0  0  0  0  0  0  0  0  0
  1  2  1  0  0  0  0
  1 20  1  0  0  0  0
  1 21  1  0  0  0  0
  1 22  1  0  0  0  0
  2 18  1  0  0  0  0
  2  3  2  0  0  0  0
  3  4  1  0  0  0  0
  4  5  1  0  0  0  0
  4  6  2  0  0  0  0
  5 23  1  0  0  0  0
  5 24  1  0  0  0  0
  5 25  1  0  0  0  0
  6  7  1  0  0  0  0
  6 16  1  0  0  0  0
  7  8  1  0  0  0  0
  7 26  1  0  0  0  0
  7 27  1  0  0  0  0
  8  9  2  0  0  0  0
  8 10  1  0  0  0  0
 10 11  1  0  0  0  0
 10 28  1  0  0  0  0
 11 15  1  0  0  0  0
 11 12  1  0  0  0  0
 11 29  1  0  0  0  0
 12 13  1  0  0  0  0
 12 30  1  0  0  0  0
 12 31  1  0  0  0  0
 13 14  1  0  0  0  0
 13 32  1  0  0  0  0
 13 33  1  0  0  0  0
 14 15  1  0  0  0  0
 14 34  1  0  0  0  0
 14 35  1  0  0  0  0
 15 36  1  0  0  0  0
 15 37  1  0  0  0  0
 16 17  2  0  0  0  0
 16 18  1  0  0  0  0
 18 19  1  0  0  0  0
M  END
> <s_m_source_file>
AV-unprocessed.smi

> <i_m_source_file_index>
1313

> <i_lp_mmshare_version>
43012

> <i_f3d_flags>
0

> <s_epik_input>
W0NIM11jMW5jKFtDSDNdKWMoYyg9TylbbkhdMSlbQ0gyXUMoPU8pW05IXVtDSF0yW0NIMl1bQ0gyXVtDSDJdW0NIMl0y

> <s_epik_cmdline>
J2VwaWtfcHl0aG9uJywgJy1waCcsICc3LjAnLCAnLXRuJywgJzgnLCAnLW1hJywgJzIwMCcsICctbWV0YWxfYmluZGluZycsICctaW1hZScsICc8aW5maWxlLm1hZT4nLCAnLW9tYWUnLCAnPG91dGZpbGUubWFlPic=

> <r_lp_tautomer_probability>
0.839158

> <r_epik_Ionization_Penalty>
0.000387683

> <r_epik_Ionization_Penalty_Charging>
0.000355009

> <r_epik_Ionization_Penalty_Neutral>
3.26746e-05

> <r_epik_State_Penalty>
0.046959

> <r_epik_Charging_Adjusted_Penalty>
0.047314

> <i_epik_Tot_Q>
0

> <i_epik_Tot_abs_Q>
0

> <r_epik_Metal_State_Penalty>
0.222879

> <b_epik_Metal_Only>
0

> <s_lp_Force_Field>
OPLS_2005

> <r_lp_Energy>
20.1617

> <b_lp_Chiralities_Consistent>
1

> <s_lp_Variant>
AV-unprocessed.smi:1313-1

> <Gold.Version>
5.8.1

> <Gold.Id.Protein>
6NUR|6NUR_protein|mol2

> <Gold.PLP.Fitness>
42.0751

> <Gold.PLP.PLP>
-34.8522

> <Gold.PLP.part.hbond>
-3.7446

> <Gold.PLP.part.metal>
0.0000

> <Gold.PLP.part.buried>
-3.1612

> <Gold.PLP.part.nonpolar>
-27.6814

> <Gold.PLP.part.repulsive>
0.4749

> <Gold.PLP.ligand.clash>
0.0000

> <Gold.PLP.ligand.torsion>
0.0137

> <Gold.PLP.Chemscore.Hbond>
2.4160

> <Gold.PLP.Chemscore.CHOScore>
0.0000

> <Gold.PLP.Chemscore.Metal>
0.0000

> <Gold.Chemscore.Hbonds>
donor molecule, donor type, donor heavy atom, donor atom, acceptor molecule, acceptor atom, score
      L1  H    10    28       P1  8028  1.00
      L1  H    18    19       P1  7957  0.93
      P1  H  8011  8017       L1    17  0.46

> <Gold.PLP.Chemscore.Internal.Correction>
0.0024

> <Gold.Rescore>
     Score         DG    S(hbond)    S(metal)    S(lipo)     H(rot)  DE(clash)    DE(int)     intcor
     18.55     -18.61       2.37        0.00      77.69       1.51       0.05       0.01       ----

> <Gold.Chemscore.Fitness>
18.5523

> <Gold.Chemscore.DG>
-18.6075

> <Gold.Chemscore.ZeroCoef>
-5.4800

> <Gold.Chemscore.Hbond>
2.3684

> <Gold.Chemscore.Metal>
0.0000

> <Gold.Chemscore.Lipo>
77.6901

> <Gold.Chemscore.Internal_Hbond>
0.0000

> <Gold.Chemscore.DEClash>
0.0458

> <Gold.Chemscore.DEInternal>
0.0094

> <Gold.Chemscore.Rot>
1.5128

> <Gold.Chemscore.Internal.Correction>
   9.000000E+99

> <Gold.Chemscore.Hbonds>
donor molecule, donor type, donor heavy atom, donor atom, acceptor molecule, acceptor atom, score
      L1  H    10    28       P1  8028  0.94
      L1  H    18    19       P1  7957  0.89
      P1  H  8011  8017       L1    17  0.42

> <Gold.Chemscore.Hbond.Weighted>
-7.9104

> <Gold.Chemscore.Metal.Weighted>
-0.0000

> <Gold.Chemscore.Lipo.Weighted>
-9.0897

> <Gold.Chemscore.Internal_Hbond.Weighted>
0.0000

> <Gold.Chemscore.DEClash.Weighted>
0.0458

> <Gold.Chemscore.DEInternal.Weighted>
0.0094

> <Gold.Chemscore.Rot.Weighted>
3.8727

> <Gold.Chemscore.Internal.Correction.Weighted>
   9.000000E+99

> <Gold.Protein.RotatedTorsions>
[ 6907 6896 6895 6894 ] final  -28.34 input  -60.11 | X-H torsion
[ 7974 7965 7964 7962 ] final  -55.67 input  175.53 | X-H torsion
[ 8008 7997 7996 7995 ] final   46.40 input   59.86 | X-H torsion
[ 10167 10162 10161 10158 ] final -169.99 input  -65.29 | X-H torsion
[ 10718 10713 10712 10709 ] final -119.73 input   66.30 | X-H torsion
[ 10763 10752 10751 10750 ] final  112.34 input  -60.55 | X-H torsion
[ 11005 11000 10999 10996 ] final    4.56 input  -57.11 | X-H torsion

> <Gold.Protein.ActiveResidues>
 VAL166  LYS551  ARG553  GLY616  TRP617  ASP618  TYR619  PRO620  LYS621  CYS622 
 ASP623  PHE694  ASN695  SER759  ASP760  ASP761  ALA762  ILE779  LEU786  VAL792 
 PHE793  MET794  SER795  GLU796  ALA797  LYS798  CYS799  TRP800  GLU811  SER814 

> <Gold.Protein.RotatedAtoms>
  151.1343  135.0146  159.8596 H   0  0  0  0  0  0  0  0  0  0  0  0  # atno 6907 bound_to 6896
  152.5451  134.1573  159.8553 H   0  0  0  0  0  0  0  0  0  0  0  0  # atno 6908 bound_to 6896
  151.1643  133.4779  159.2627 H   0  0  0  0  0  0  0  0  0  0  0  0  # atno 6909 bound_to 6896
  145.8715  140.8212  142.9886 H   0  0  0  0  0  0  0  0  0  0  0  0  # atno 7974 bound_to 7965
  155.3519  140.3414  155.4239 H   0  0  0  0  0  0  0  0  0  0  0  0  # atno 8008 bound_to 7997
  156.1759  140.1647  156.8398 H   0  0  0  0  0  0  0  0  0  0  0  0  # atno 8009 bound_to 7997
  154.5282  140.0751  156.8279 H   0  0  0  0  0  0  0  0  0  0  0  0  # atno 8010 bound_to 7997
  139.5889  144.1257  152.1610 H   0  0  0  0  0  0  0  0  0  0  0  0  # atno 10167 bound_to 10162
  156.1204  130.6318  150.9453 H   0  0  0  0  0  0  0  0  0  0  0  0  # atno 10718 bound_to 10713
  153.4765  135.3689  155.2419 H   0  0  0  0  0  0  0  0  0  0  0  0  # atno 10763 bound_to 10752
  154.8756  135.3944  154.3751 H   0  0  0  0  0  0  0  0  0  0  0  0  # atno 10764 bound_to 10752
  153.4347  135.7083  153.6272 H   0  0  0  0  0  0  0  0  0  0  0  0  # atno 10765 bound_to 10752
  140.5805  134.0017  155.8046 H   0  0  0  0  0  0  0  0  0  0  0  0  # atno 11005 bound_to 11000
  144.6726  140.1246  143.7447 LP  0  0  0  0  0  0  0  0  0  0  0  0  # atno 17320 bound_to 7965
  145.9131  139.2499  143.1426 LP  0  0  0  0  0  0  0  0  0  0  0  0  # atno 17321 bound_to 7965
  140.0827  144.5687  150.7111 LP  0  0  0  0  0  0  0  0  0  0  0  0  # atno 17342 bound_to 10162
  140.7156  143.2541  151.4445 LP  0  0  0  0  0  0  0  0  0  0  0  0  # atno 17343 bound_to 10162
  157.6387  131.0913  150.8296 LP  0  0  0  0  0  0  0  0  0  0  0  0  # atno 17370 bound_to 10713
  156.8393  130.5042  149.5323 LP  0  0  0  0  0  0  0  0  0  0  0  0  # atno 17371 bound_to 10713
  141.0999  133.9785  157.3097 LP  0  0  0  0  0  0  0  0  0  0  0  0  # atno 17394 bound_to 11000
  139.9319  135.0199  156.8429 LP  0  0  0  0  0  0  0  0  0  0  0  0  # atno 17395 bound_to 11000

$$$$
