AV-unprocessed.smi:1741|AV-procd|sdf|7016|dock8
  -GOLD-   22720 8233D 1   1.00000     0.00000
 Structure written by MMmdl.
 38 39  0  0  0  0  0  0  0  0  1 V2000
  150.2892  141.5409  157.1025 C   0  0  0  0  0  0  0  0  0  0  0  0
  151.6463  141.2465  156.4519 C   0  0  0  0  0  0  0  0  0  0  0  0
  151.6255  140.0043  155.7046 N   0  0  0  0  0  0  0  0  0  0  0  0
  150.5680  139.1352  155.5220 C   0  0  0  0  0  0  0  0  0  0  0  0
  151.0560  138.1165  154.7529 C   0  0  0  0  0  0  0  0  0  0  0  0
  150.3979  136.9561  154.2728 N   0  0  0  0  0  0  0  0  0  0  0  0
  150.2953  135.7644  154.8833 C   0  0  0  0  0  0  0  0  0  0  0  0
  150.7595  135.4958  155.9914 O   0  0  0  0  0  0  0  0  0  0  0  0
  149.6084  134.8926  154.1308 N   0  0  0  0  0  0  0  0  0  0  0  0
  149.3041  133.5066  154.4835 C   0  0  2  0  0  0  0  0  0  0  0  0
  150.5972  132.8191  154.9460 C   0  0  0  0  0  0  0  0  0  0  0  0
  148.6621  132.7741  153.2872 C   0  0  2  0  0  0  0  0  0  0  0  0
  147.3790  133.4103  152.7501 C   0  0  0  0  0  0  0  0  0  0  0  0
  146.7328  132.2408  152.0438 C   0  0  0  0  0  0  0  0  0  0  0  0
  147.0736  131.0806  152.9753 C   0  0  0  0  0  0  0  0  0  0  0  0
  148.2671  131.4560  153.6594 O   0  0  0  0  0  0  0  0  0  0  0  0
  152.4165  138.4351  154.5063 C   0  0  0  0  0  0  0  0  0  0  0  0
  152.7536  139.5780  155.0839 N   0  0  0  0  0  0  0  0  0  0  0  0
  150.3183  142.4824  157.6510 H   0  0  0  0  0  0  0  0  0  0  0  0
  150.0088  140.7556  157.8051 H   0  0  0  0  0  0  0  0  0  0  0  0
  149.5016  141.6166  156.3522 H   0  0  0  0  0  0  0  0  0  0  0  0
  151.9222  142.0561  155.7754 H   0  0  0  0  0  0  0  0  0  0  0  0
  152.4270  141.1879  157.2115 H   0  0  0  0  0  0  0  0  0  0  0  0
  149.5934  139.3197  155.9493 H   0  0  0  0  0  0  0  0  0  0  0  0
  149.9609  137.0422  153.3669 H   0  0  0  0  0  0  0  0  0  0  0  0
  149.2660  135.2124  153.2367 H   0  0  0  0  0  0  0  0  0  0  0  0
  148.6031  133.4818  155.3199 H   0  0  0  0  0  0  0  0  0  0  0  0
  150.4072  131.7921  155.2587 H   0  0  0  0  0  0  0  0  0  0  0  0
  151.0380  133.3420  155.7952 H   0  0  0  0  0  0  0  0  0  0  0  0
  151.3406  132.7909  154.1486 H   0  0  0  0  0  0  0  0  0  0  0  0
  149.3813  132.6868  152.4708 H   0  0  0  0  0  0  0  0  0  0  0  0
  146.7438  133.7483  153.5703 H   0  0  0  0  0  0  0  0  0  0  0  0
  147.5657  134.2572  152.0892 H   0  0  0  0  0  0  0  0  0  0  0  0
  145.6604  132.3669  151.8935 H   0  0  0  0  0  0  0  0  0  0  0  0
  147.2000  132.0900  151.0697 H   0  0  0  0  0  0  0  0  0  0  0  0
  146.2838  130.9362  153.7131 H   0  0  0  0  0  0  0  0  0  0  0  0
  147.2056  130.1440  152.4333 H   0  0  0  0  0  0  0  0  0  0  0  0
  153.1555  137.8876  153.9402 H   0  0  0  0  0  0  0  0  0  0  0  0
  1  2  1  0  0  0  0
  1 19  1  0  0  0  0
  1 20  1  0  0  0  0
  1 21  1  0  0  0  0
  2  3  1  0  0  0  0
  2 22  1  0  0  0  0
  2 23  1  0  0  0  0
  3 18  1  0  0  0  0
  3  4  1  0  0  0  0
  4  5  2  0  0  0  0
  4 24  1  0  0  0  0
  5  6  1  0  0  0  0
  5 17  1  0  0  0  0
  6  7  1  0  0  0  0
  6 25  1  0  0  0  0
  7  8  2  0  0  0  0
  7  9  1  0  0  0  0
  9 10  1  0  0  0  0
  9 26  1  0  0  0  0
 10 11  1  0  0  0  0
 10 12  1  0  0  0  0
 10 27  1  0  0  0  0
 11 28  1  0  0  0  0
 11 29  1  0  0  0  0
 11 30  1  0  0  0  0
 12 16  1  0  0  0  0
 12 13  1  0  0  0  0
 12 31  1  0  0  0  0
 13 14  1  0  0  0  0
 13 32  1  0  0  0  0
 13 33  1  0  0  0  0
 14 15  1  0  0  0  0
 14 34  1  0  0  0  0
 14 35  1  0  0  0  0
 15 16  1  0  0  0  0
 15 36  1  0  0  0  0
 15 37  1  0  0  0  0
 17 18  2  0  0  0  0
 17 38  1  0  0  0  0
M  END
> <s_m_source_file>
AV-unprocessed.smi

> <i_m_source_file_index>
1741

> <i_lp_mmshare_version>
43012

> <i_f3d_flags>
0

> <s_epik_input>
W0NIM11bQ0gyXW4xW2NIXWMoW2NIXW4xKVtOSF1DKD1PKVtOSF1bQ0BIXShbQ0gzXSlbQ0BASF0yW0NIMl1bQ0gyXVtDSDJdTzI=

> <s_epik_cmdline>
J2VwaWtfcHl0aG9uJywgJy1waCcsICc3LjAnLCAnLXRuJywgJzgnLCAnLW1hJywgJzIwMCcsICctbWV0YWxfYmluZGluZycsICctaW1hZScsICc8aW5maWxlLm1hZT4nLCAnLW9tYWUnLCAnPG91dGZpbGUubWFlPic=

> <r_lp_tautomer_probability>
1

> <r_epik_Ionization_Penalty>
0.000179292

> <r_epik_Ionization_Penalty_Charging>
0

> <r_epik_Ionization_Penalty_Neutral>
0.000179292

> <r_epik_State_Penalty>
-0

> <r_epik_Charging_Adjusted_Penalty>
0

> <i_epik_Tot_Q>
0

> <i_epik_Tot_abs_Q>
0

> <r_epik_Metal_State_Penalty>
-0

> <b_epik_Metal_Only>
0

> <s_lp_Force_Field>
OPLS_2005

> <r_lp_Energy>
21.1803

> <b_lp_Chiralities_Consistent>
1

> <s_lp_Variant>
AV-unprocessed.smi:1741-1

> <Gold.Version>
5.8.1

> <Gold.Id.Protein>
6NUR|6NUR_protein|mol2

> <Gold.PLP.Fitness>
39.7619

> <Gold.PLP.PLP>
-32.4235

> <Gold.PLP.part.hbond>
-4.7348

> <Gold.PLP.part.metal>
0.0000

> <Gold.PLP.part.buried>
-4.2420

> <Gold.PLP.part.nonpolar>
-24.6991

> <Gold.PLP.part.repulsive>
0.1907

> <Gold.PLP.ligand.clash>
0.0000

> <Gold.PLP.ligand.torsion>
0.8383

> <Gold.PLP.Chemscore.Hbond>
3.0000

> <Gold.PLP.Chemscore.CHOScore>
0.0000

> <Gold.PLP.Chemscore.Metal>
0.0000

> <Gold.Chemscore.Hbonds>
donor molecule, donor type, donor heavy atom, donor atom, acceptor molecule, acceptor atom, score
      L1  H     6    25       P1  7948  1.00
      L1  H     9    26       P1  7948  0.75
      P1  H  7997  8008       L1    18  1.00

> <Gold.PLP.Chemscore.Internal.Correction>
0.0150

> <Gold.Rescore>
     Score         DG    S(hbond)    S(metal)    S(lipo)     H(rot)  DE(clash)    DE(int)     intcor
     14.90     -17.19       2.36        0.00      62.80       1.38       0.15       2.14       ----

> <Gold.Chemscore.Fitness>
14.9030

> <Gold.Chemscore.DG>
-17.1851

> <Gold.Chemscore.ZeroCoef>
-5.4800

> <Gold.Chemscore.Hbond>
2.3616

> <Gold.Chemscore.Metal>
0.0000

> <Gold.Chemscore.Lipo>
62.7982

> <Gold.Chemscore.Internal_Hbond>
0.0000

> <Gold.Chemscore.DEClash>
0.1461

> <Gold.Chemscore.DEInternal>
2.1359

> <Gold.Chemscore.Rot>
1.3790

> <Gold.Chemscore.Internal.Correction>
   9.000000E+99

> <Gold.Chemscore.Hbonds>
donor molecule, donor type, donor heavy atom, donor atom, acceptor molecule, acceptor atom, score
      L1  H     6    25       P1  7948  0.24
      L1  H     9    26       P1  7948  0.09
      P1  H  7997  8008       L1    18  0.92

> <Gold.Chemscore.Hbond.Weighted>
-7.8879

> <Gold.Chemscore.Metal.Weighted>
-0.0000

> <Gold.Chemscore.Lipo.Weighted>
-7.3474

> <Gold.Chemscore.Internal_Hbond.Weighted>
0.0000

> <Gold.Chemscore.DEClash.Weighted>
0.1461

> <Gold.Chemscore.DEInternal.Weighted>
2.1359

> <Gold.Chemscore.Rot.Weighted>
3.5302

> <Gold.Chemscore.Internal.Correction.Weighted>
   9.000000E+99

> <Gold.Protein.RotatedTorsions>
[ 6907 6896 6895 6894 ] final   96.21 input  -60.11 | X-H torsion
[ 7974 7965 7964 7962 ] final  161.00 input  175.53 | X-H torsion
[ 8008 7997 7996 7995 ] final  -11.38 input   59.86 | X-H torsion
[ 10167 10162 10161 10158 ] final  121.64 input  -65.29 | X-H torsion
[ 10718 10713 10712 10709 ] final   30.45 input   66.30 | X-H torsion
[ 10763 10752 10751 10750 ] final   75.51 input  -60.55 | X-H torsion
[ 11005 11000 10999 10996 ] final -162.46 input  -57.11 | X-H torsion

> <Gold.Protein.ActiveResidues>
 VAL166  LYS551  ARG553  GLY616  TRP617  ASP618  TYR619  PRO620  LYS621  CYS622 
 ASP623  PHE694  ASN695  SER759  ASP760  ASP761  ALA762  ILE779  LEU786  VAL792 
 PHE793  MET794  SER795  GLU796  ALA797  LYS798  CYS799  TRP800  GLU811  SER814 

> <Gold.Protein.RotatedAtoms>
  152.5437  134.0920  159.8280 H   0  0  0  0  0  0  0  0  0  0  0  0  # atno 6907 bound_to 6896
  151.1009  133.5237  159.2617 H   0  0  0  0  0  0  0  0  0  0  0  0  # atno 6908 bound_to 6896
  151.1992  135.0444  159.8919 H   0  0  0  0  0  0  0  0  0  0  0  0  # atno 6909 bound_to 6896
  144.7708  139.7836  143.6298 H   0  0  0  0  0  0  0  0  0  0  0  0  # atno 7974 bound_to 7965
  154.5470  140.2304  155.8547 H   0  0  0  0  0  0  0  0  0  0  0  0  # atno 8008 bound_to 7997
  156.1912  140.3076  155.9297 H   0  0  0  0  0  0  0  0  0  0  0  0  # atno 8009 bound_to 7997
  155.3146  140.0437  157.3027 H   0  0  0  0  0  0  0  0  0  0  0  0  # atno 8010 bound_to 7997
  139.5907  144.7024  151.3298 H   0  0  0  0  0  0  0  0  0  0  0  0  # atno 10167 bound_to 10162
  157.2597  130.7155  149.6447 H   0  0  0  0  0  0  0  0  0  0  0  0  # atno 10718 bound_to 10713
  153.0660  135.4986  154.8201 H   0  0  0  0  0  0  0  0  0  0  0  0  # atno 10763 bound_to 10752
  154.6954  135.2992  154.9421 H   0  0  0  0  0  0  0  0  0  0  0  0  # atno 10764 bound_to 10752
  154.0162  135.6748  153.4822 H   0  0  0  0  0  0  0  0  0  0  0  0  # atno 10765 bound_to 10752
  140.6090  134.4869  157.5213 H   0  0  0  0  0  0  0  0  0  0  0  0  # atno 11005 bound_to 11000
  146.1852  139.5064  142.9840 LP  0  0  0  0  0  0  0  0  0  0  0  0  # atno 17320 bound_to 7965
  145.6330  141.0300  143.1853 LP  0  0  0  0  0  0  0  0  0  0  0  0  # atno 17321 bound_to 7965
  140.7170  143.7239  150.7675 LP  0  0  0  0  0  0  0  0  0  0  0  0  # atno 17342 bound_to 10162
  140.0794  143.4984  152.2538 LP  0  0  0  0  0  0  0  0  0  0  0  0  # atno 17343 bound_to 10162
  155.9664  130.4401  150.5287 LP  0  0  0  0  0  0  0  0  0  0  0  0  # atno 17370 bound_to 10713
  157.3189  131.0678  151.1947 LP  0  0  0  0  0  0  0  0  0  0  0  0  # atno 17371 bound_to 10713
  139.9200  134.8168  156.1242 LP  0  0  0  0  0  0  0  0  0  0  0  0  # atno 17394 bound_to 11000
  141.0821  133.6750  156.2358 LP  0  0  0  0  0  0  0  0  0  0  0  0  # atno 17395 bound_to 11000

$$$$
