AV-unprocessed.smi:2653|AV-procd|sdf|10296|dock4
  -GOLD-   2272014313D 1   1.00000     0.00000
 Structure written by MMmdl.
 31 32  0  0  0  0  0  0  0  0  1 V2000
  154.3041  141.0904  160.7625 C   0  0  0  0  0  0  0  0  0  0  0  0
  153.7076  142.3239  160.0752 C   0  0  0  0  0  0  0  0  0  0  0  0
  152.5911  141.9597  159.1354 C   0  0  0  0  0  0  0  0  0  0  0  0
  152.2587  140.6795  158.9925 N   0  0  0  0  0  0  0  0  0  0  0  0
  151.2493  140.6916  158.1031 N   0  0  0  0  0  0  0  0  0  0  0  0
  150.9408  141.9734  157.7088 C   0  0  0  0  0  0  0  0  0  0  0  0
  149.9949  142.3486  156.8036 N   0  0  0  0  0  0  0  0  0  0  0  0
  149.1243  141.6124  156.0805 C   0  0  0  0  0  0  0  0  0  0  0  0
  149.1082  140.3856  156.1642 O   0  0  0  0  0  0  0  0  0  0  0  0
  148.3089  142.2999  155.2631 N   0  0  0  0  0  0  0  0  0  0  0  0
  147.3220  141.7351  154.4017 C   0  0  0  0  0  0  0  0  0  0  0  0
  146.2980  142.6739  153.8014 C   0  0  0  0  0  0  0  0  0  0  0  0
  145.8896  141.7204  154.8900 C   0  0  0  0  0  0  0  0  0  0  0  0
  151.7918  142.8371  158.3372 C   0  0  0  0  0  0  0  0  0  0  0  0
  151.8834  144.3359  158.2377 C   0  0  0  0  0  0  0  0  0  0  0  0
  150.8040  139.8432  157.7840 H   0  0  0  0  0  0  0  0  0  0  0  0
  155.1082  141.3746  161.4414 H   0  0  0  0  0  0  0  0  0  0  0  0
  154.7156  140.3925  160.0326 H   0  0  0  0  0  0  0  0  0  0  0  0
  153.5482  140.5612  161.3437 H   0  0  0  0  0  0  0  0  0  0  0  0
  153.3461  143.0196  160.8330 H   0  0  0  0  0  0  0  0  0  0  0  0
  154.4938  142.8528  159.5351 H   0  0  0  0  0  0  0  0  0  0  0  0
  149.9797  143.3378  156.6019 H   0  0  0  0  0  0  0  0  0  0  0  0
  148.4078  143.3040  155.2377 H   0  0  0  0  0  0  0  0  0  0  0  0
  147.6235  140.8956  153.7767 H   0  0  0  0  0  0  0  0  0  0  0  0
  146.3623  143.7299  154.0576 H   0  0  0  0  0  0  0  0  0  0  0  0
  145.9539  142.4609  152.7913 H   0  0  0  0  0  0  0  0  0  0  0  0
  145.2724  140.8698  154.6076 H   0  0  0  0  0  0  0  0  0  0  0  0
  145.6819  142.1396  155.8729 H   0  0  0  0  0  0  0  0  0  0  0  0
  150.9854  144.7765  157.8043 H   0  0  0  0  0  0  0  0  0  0  0  0
  152.7246  144.6444  157.6173 H   0  0  0  0  0  0  0  0  0  0  0  0
  152.0204  144.7954  159.2167 H   0  0  0  0  0  0  0  0  0  0  0  0
  1  2  1  0  0  0  0
  1 17  1  0  0  0  0
  1 18  1  0  0  0  0
  1 19  1  0  0  0  0
  2 20  1  0  0  0  0
  2 21  1  0  0  0  0
  2  3  1  0  0  0  0
  3  4  2  0  0  0  0
  3 14  1  0  0  0  0
  4  5  1  0  0  0  0
  5 16  1  0  0  0  0
  5  6  1  0  0  0  0
  6  7  1  0  0  0  0
  6 14  2  0  0  0  0
  7  8  1  0  0  0  0
  7 22  1  0  0  0  0
  8  9  2  0  0  0  0
  8 10  1  0  0  0  0
 10 11  1  0  0  0  0
 10 23  1  0  0  0  0
 11 13  1  0  0  0  0
 11 12  1  0  0  0  0
 11 24  1  0  0  0  0
 12 13  1  0  0  0  0
 12 25  1  0  0  0  0
 12 26  1  0  0  0  0
 13 27  1  0  0  0  0
 13 28  1  0  0  0  0
 14 15  1  0  0  0  0
 15 29  1  0  0  0  0
 15 30  1  0  0  0  0
 15 31  1  0  0  0  0
M  END
> <s_m_source_file>
AV-unprocessed.smi

> <i_m_source_file_index>
2653

> <i_lp_mmshare_version>
43012

> <i_f3d_flags>
0

> <s_epik_input>
W0NIM11bQ0gyXWMxW25IXW5jKGMxW0NIM10pW05IXUMoPU8pW05IXVtDSF0yW0NIMl1bQ0gyXTI=

> <s_epik_cmdline>
J2VwaWtfcHl0aG9uJywgJy1waCcsICc3LjAnLCAnLXRuJywgJzgnLCAnLW1hJywgJzIwMCcsICctbWV0YWxfYmluZGluZycsICctaW1hZScsICc8aW5maWxlLm1hZT4nLCAnLW9tYWUnLCAnPG91dGZpbGUubWFlPic=

> <r_lp_tautomer_probability>
0.5

> <r_epik_Ionization_Penalty>
6.45879e-05

> <r_epik_Ionization_Penalty_Charging>
0

> <r_epik_Ionization_Penalty_Neutral>
6.45879e-05

> <r_epik_State_Penalty>
0.41068

> <r_epik_Charging_Adjusted_Penalty>
0.41068

> <i_epik_Tot_Q>
0

> <i_epik_Tot_abs_Q>
0

> <r_epik_Metal_State_Penalty>
0.410665

> <b_epik_Metal_Only>
0

> <s_lp_Force_Field>
OPLS_2005

> <r_lp_Energy>
17.9348

> <b_lp_Chiralities_Consistent>
1

> <s_lp_Variant>
AV-unprocessed.smi:2653-2

> <Gold.Version>
5.8.1

> <Gold.Id.Protein>
6NUR|6NUR_protein|mol2

> <Gold.PLP.Fitness>
36.6088

> <Gold.PLP.PLP>
-31.5035

> <Gold.PLP.part.hbond>
-1.9100

> <Gold.PLP.part.metal>
0.0000

> <Gold.PLP.part.buried>
-4.6740

> <Gold.PLP.part.nonpolar>
-25.8227

> <Gold.PLP.part.repulsive>
0.3096

> <Gold.PLP.ligand.clash>
0.0000

> <Gold.PLP.ligand.torsion>
0.2376

> <Gold.PLP.Chemscore.Hbond>
1.8480

> <Gold.PLP.Chemscore.CHOScore>
0.0000

> <Gold.PLP.Chemscore.Metal>
0.0000

> <Gold.Chemscore.Hbonds>
donor molecule, donor type, donor heavy atom, donor atom, acceptor molecule, acceptor atom, score
      L1  H     7    22       P1  8028  0.83
      L1  H    10    23       P1  8028  1.00

> <Gold.PLP.Chemscore.Internal.Correction>
0.0365

> <Gold.Rescore>
     Score         DG    S(hbond)    S(metal)    S(lipo)     H(rot)  DE(clash)    DE(int)     intcor
     15.99     -17.49       1.93        0.00      74.00       1.21       0.06       1.44       ----

> <Gold.Chemscore.Fitness>
15.9886

> <Gold.Chemscore.DG>
-17.4864

> <Gold.Chemscore.ZeroCoef>
-5.4800

> <Gold.Chemscore.Hbond>
1.9322

> <Gold.Chemscore.Metal>
0.0000

> <Gold.Chemscore.Lipo>
73.9965

> <Gold.Chemscore.Internal_Hbond>
0.0000

> <Gold.Chemscore.DEClash>
0.0580

> <Gold.Chemscore.DEInternal>
1.4398

> <Gold.Chemscore.Rot>
1.2129

> <Gold.Chemscore.Internal.Correction>
   9.000000E+99

> <Gold.Chemscore.Hbonds>
donor molecule, donor type, donor heavy atom, donor atom, acceptor molecule, acceptor atom, score
      L1  H     7    22       P1  8028  0.80
      L1  H    10    23       P1  8028  0.92

> <Gold.Chemscore.Hbond.Weighted>
-6.4537

> <Gold.Chemscore.Metal.Weighted>
-0.0000

> <Gold.Chemscore.Lipo.Weighted>
-8.6576

> <Gold.Chemscore.Internal_Hbond.Weighted>
0.0000

> <Gold.Chemscore.DEClash.Weighted>
0.0580

> <Gold.Chemscore.DEInternal.Weighted>
1.4398

> <Gold.Chemscore.Rot.Weighted>
3.1049

> <Gold.Chemscore.Internal.Correction.Weighted>
   9.000000E+99

> <Gold.Protein.RotatedTorsions>
[ 6907 6896 6895 6894 ] final  143.73 input  -60.11 | X-H torsion
[ 7974 7965 7964 7962 ] final   35.16 input  175.53 | X-H torsion
[ 8008 7997 7996 7995 ] final  108.90 input   59.86 | X-H torsion
[ 10167 10162 10161 10158 ] final  174.09 input  -65.29 | X-H torsion
[ 10718 10713 10712 10709 ] final   70.48 input   66.30 | X-H torsion
[ 10763 10752 10751 10750 ] final  104.11 input  -60.55 | X-H torsion
[ 11005 11000 10999 10996 ] final  160.49 input  -57.11 | X-H torsion

> <Gold.Protein.ActiveResidues>
 VAL166  LYS551  ARG553  GLY616  TRP617  ASP618  TYR619  PRO620  LYS621  CYS622 
 ASP623  PHE694  ASN695  SER759  ASP760  ASP761  ALA762  ILE779  LEU786  VAL792 
 PHE793  MET794  SER795  GLU796  ALA797  LYS798  CYS799  TRP800  GLU811  SER814 

> <Gold.Protein.RotatedAtoms>
  152.2026  133.4852  159.5066 H   0  0  0  0  0  0  0  0  0  0  0  0  # atno 6907 bound_to 6896
  150.6973  134.1571  159.4171 H   0  0  0  0  0  0  0  0  0  0  0  0  # atno 6908 bound_to 6896
  151.9488  135.0178  160.0591 H   0  0  0  0  0  0  0  0  0  0  0  0  # atno 6909 bound_to 6896
  146.1303  139.6178  142.9231 H   0  0  0  0  0  0  0  0  0  0  0  0  # atno 7974 bound_to 7965
  156.1938  140.3068  155.9386 H   0  0  0  0  0  0  0  0  0  0  0  0  # atno 8008 bound_to 7997
  155.3113  140.0451  157.3052 H   0  0  0  0  0  0  0  0  0  0  0  0  # atno 8009 bound_to 7997
  154.5484  140.2284  155.8533 H   0  0  0  0  0  0  0  0  0  0  0  0  # atno 8010 bound_to 7997
  139.5130  144.3186  152.0224 H   0  0  0  0  0  0  0  0  0  0  0  0  # atno 10167 bound_to 10162
  157.6402  130.9479  150.0657 H   0  0  0  0  0  0  0  0  0  0  0  0  # atno 10718 bound_to 10713
  153.3616  135.3954  155.1723 H   0  0  0  0  0  0  0  0  0  0  0  0  # atno 10763 bound_to 10752
  154.8680  135.3681  154.5092 H   0  0  0  0  0  0  0  0  0  0  0  0  # atno 10764 bound_to 10752
  153.5552  135.7082  153.5633 H   0  0  0  0  0  0  0  0  0  0  0  0  # atno 10765 bound_to 10752
  140.2065  134.8299  157.3074 H   0  0  0  0  0  0  0  0  0  0  0  0  # atno 11005 bound_to 11000
  145.5276  141.0429  143.2401 LP  0  0  0  0  0  0  0  0  0  0  0  0  # atno 17320 bound_to 7965
  144.7683  139.6793  143.7205 LP  0  0  0  0  0  0  0  0  0  0  0  0  # atno 17321 bound_to 7965
  140.2629  144.4048  150.6179 LP  0  0  0  0  0  0  0  0  0  0  0  0  # atno 17342 bound_to 10162
  140.6144  143.2171  151.6821 LP  0  0  0  0  0  0  0  0  0  0  0  0  # atno 17343 bound_to 10162
  156.1676  130.3645  149.9210 LP  0  0  0  0  0  0  0  0  0  0  0  0  # atno 17370 bound_to 10713
  156.7193  130.9000  151.3616 LP  0  0  0  0  0  0  0  0  0  0  0  0  # atno 17371 bound_to 10713
  140.1997  134.4269  155.7669 LP  0  0  0  0  0  0  0  0  0  0  0  0  # atno 17394 bound_to 11000
  141.2227  133.7066  156.8164 LP  0  0  0  0  0  0  0  0  0  0  0  0  # atno 17395 bound_to 11000

$$$$
