AV-unprocessed.smi:243|AV-procd|sdf|1860|dock4
  -GOLD-   2262020493D 1   1.00000     0.00000
 Structure written by MMmdl.
 58 61  0  0  0  0  0  0  0  0  2 V2000
  152.1154  144.9162  159.4247 C   0  0  0  0  0  0  0  0  0  0  0  0
  151.0855  145.1676  158.3134 C   0  0  0  0  0  0  0  0  0  0  0  0
  150.4072  143.9224  157.8724 N   0  3  2  0  0  0  0  0  0  0  0  0
  149.4873  143.3884  158.9074 C   0  0  0  0  0  0  0  0  0  0  0  0
  148.6661  142.2158  158.3549 C   0  0  0  0  0  0  0  0  0  0  0  0
  149.5822  141.0961  157.8136 C   0  0  1  0  0  0  0  0  0  0  0  0
  148.8314  139.9290  157.3256 N   0  0  0  0  0  0  0  0  0  0  0  0
  148.3576  139.9390  155.9471 C   0  0  0  0  0  0  0  0  0  0  0  0
  149.0598  138.6795  157.8040 C   0  0  0  0  0  0  0  0  0  0  0  0
  150.2678  138.0845  157.6259 N   0  0  0  0  0  0  0  0  0  0  0  0
  150.4864  136.8504  158.0894 C   0  0  0  0  0  0  0  0  0  0  0  0
  149.6497  136.0463  158.7480 N   0  0  0  0  0  0  0  0  0  0  0  0
  148.4332  136.6367  158.9262 C   0  0  0  0  0  0  0  0  0  0  0  0
  148.0585  137.9387  158.4903 C   0  0  0  0  0  0  0  0  0  0  0  0
  146.7489  138.2070  158.8678 N   0  0  0  0  0  0  0  0  0  0  0  0
  146.3702  137.1246  159.4905 C   0  0  0  0  0  0  0  0  0  0  0  0
  147.3139  136.1240  159.5594 N   0  0  0  0  0  0  0  0  0  0  0  0
  147.1624  134.8216  160.1914 C   0  0  0  0  0  0  0  0  0  0  0  0
  146.9029  134.8813  161.7188 C   0  0  2  0  0  0  0  0  0  0  0  0
  147.8692  135.7194  162.3255 O   0  0  0  0  0  0  0  0  0  0  0  0
  146.9191  133.5168  162.4118 C   0  0  0  0  0  0  0  0  0  0  0  0
  145.4415  133.1711  162.5215 C   0  0  0  0  0  0  0  0  0  0  0  0
  144.8631  134.4233  162.8417 O   0  0  0  0  0  0  0  0  0  0  0  0
  145.4882  135.4114  162.0312 C   0  0  0  0  0  0  0  0  0  0  0  0
  150.6068  141.6659  156.7952 C   0  0  2  0  0  0  0  0  0  0  0  0
  151.6236  140.6047  156.3367 C   0  0  0  0  0  0  0  0  0  0  0  0
  151.3500  142.8739  157.4025 C   0  0  0  0  0  0  0  0  0  0  0  0
  152.6656  145.8298  159.6505 H   0  0  0  0  0  0  0  0  0  0  0  0
  152.8422  144.1605  159.1253 H   0  0  0  0  0  0  0  0  0  0  0  0
  151.6479  144.5866  160.3522 H   0  0  0  0  0  0  0  0  0  0  0  0
  150.3475  145.9060  158.6299 H   0  0  0  0  0  0  0  0  0  0  0  0
  151.6162  145.6054  157.4669 H   0  0  0  0  0  0  0  0  0  0  0  0
  150.0596  143.0731  159.7814 H   0  0  0  0  0  0  0  0  0  0  0  0
  148.8054  144.1721  159.2400 H   0  0  0  0  0  0  0  0  0  0  0  0
  148.0202  141.8267  159.1428 H   0  0  0  0  0  0  0  0  0  0  0  0
  148.0046  142.5932  157.5764 H   0  0  0  0  0  0  0  0  0  0  0  0
  150.1637  140.7306  158.6614 H   0  0  0  0  0  0  0  0  0  0  0  0
  149.0355  139.3776  155.3028 H   0  0  0  0  0  0  0  0  0  0  0  0
  148.2941  140.9572  155.5628 H   0  0  0  0  0  0  0  0  0  0  0  0
  147.3653  139.4946  155.8706 H   0  0  0  0  0  0  0  0  0  0  0  0
  151.4716  136.4484  157.9045 H   0  0  0  0  0  0  0  0  0  0  0  0
  145.3827  137.0252  159.9174 H   0  0  0  0  0  0  0  0  0  0  0  0
  146.3439  134.2987  159.6946 H   0  0  0  0  0  0  0  0  0  0  0  0
  148.0621  134.2400  159.9861 H   0  0  0  0  0  0  0  0  0  0  0  0
  148.6351  135.2015  162.5206 H   0  0  0  0  0  0  0  0  0  0  0  0
  147.4901  132.7497  161.8921 H   0  0  0  0  0  0  0  0  0  0  0  0
  147.3317  133.5993  163.4189 H   0  0  0  0  0  0  0  0  0  0  0  0
  145.0491  132.8119  161.5688 H   0  0  0  0  0  0  0  0  0  0  0  0
  145.2371  132.4229  163.2874 H   0  0  0  0  0  0  0  0  0  0  0  0
  145.4910  136.3743  162.5437 H   0  0  0  0  0  0  0  0  0  0  0  0
  144.8998  135.5307  161.1203 H   0  0  0  0  0  0  0  0  0  0  0  0
  150.0807  142.0272  155.9116 H   0  0  0  0  0  0  0  0  0  0  0  0
  152.1747  140.1925  157.1826 H   0  0  0  0  0  0  0  0  0  0  0  0
  152.3494  141.0300  155.6432 H   0  0  0  0  0  0  0  0  0  0  0  0
  151.1390  139.7752  155.8222 H   0  0  0  0  0  0  0  0  0  0  0  0
  152.0198  143.2864  156.6488 H   0  0  0  0  0  0  0  0  0  0  0  0
  151.9777  142.5530  158.2355 H   0  0  0  0  0  0  0  0  0  0  0  0
  149.8289  144.1767  157.0839 H   0  0  0  0  0  0  0  0  0  0  0  0
  1  2  1  0  0  0  0
  1 28  1  0  0  0  0
  1 29  1  0  0  0  0
  1 30  1  0  0  0  0
  2  3  1  0  0  0  0
  2 31  1  0  0  0  0
  2 32  1  0  0  0  0
  3 27  1  0  0  0  0
  3  4  1  0  0  0  0
  3 58  1  0  0  0  0
  4  5  1  0  0  0  0
  4 33  1  0  0  0  0
  4 34  1  0  0  0  0
  5  6  1  0  0  0  0
  5 35  1  0  0  0  0
  5 36  1  0  0  0  0
  6  7  1  0  0  0  0
  6 25  1  0  0  0  0
  6 37  1  0  0  0  0
  7  8  1  0  0  0  0
  7  9  1  0  0  0  0
  8 38  1  0  0  0  0
  8 39  1  0  0  0  0
  8 40  1  0  0  0  0
  9 14  1  0  0  0  0
  9 10  2  0  0  0  0
 10 11  1  0  0  0  0
 11 12  2  0  0  0  0
 11 41  1  0  0  0  0
 12 13  1  0  0  0  0
 13 17  1  0  0  0  0
 13 14  2  0  0  0  0
 14 15  1  0  0  0  0
 15 16  2  0  0  0  0
 16 17  1  0  0  0  0
 16 42  1  0  0  0  0
 17 18  1  0  0  0  0
 18 19  1  0  0  0  0
 18 43  1  0  0  0  0
 18 44  1  0  0  0  0
 19 24  1  0  0  0  0
 19 20  1  0  0  0  0
 19 21  1  0  0  0  0
 20 45  1  0  0  0  0
 21 22  1  0  0  0  0
 21 46  1  0  0  0  0
 21 47  1  0  0  0  0
 22 23  1  0  0  0  0
 22 48  1  0  0  0  0
 22 49  1  0  0  0  0
 23 24  1  0  0  0  0
 24 50  1  0  0  0  0
 24 51  1  0  0  0  0
 25 26  1  0  0  0  0
 25 27  1  0  0  0  0
 25 52  1  0  0  0  0
 26 53  1  0  0  0  0
 26 54  1  0  0  0  0
 26 55  1  0  0  0  0
 27 56  1  0  0  0  0
 27 57  1  0  0  0  0
M  CHG  1   3   1
M  END
> <s_m_source_file>
AV-unprocessed.smi

> <i_m_source_file_index>
243

> <i_lp_mmshare_version>
43012

> <i_f3d_flags>
0

> <s_epik_input>
W0NIM11bQ0gyXU4xW0NIMl1bQ0gyXVtDQEhdKFtDQEBIXShbQ0gzXSlbQ0gyXTEpTihbQ0gzXSljKG5bY0hdbjIpYyhjMjMpbltjSF1uM1tDSDJdW0NAQF00KFtPSF0pW0NIMl1bQ0gyXU9bQ0gyXTQ=

> <s_epik_cmdline>
J2VwaWtfcHl0aG9uJywgJy1waCcsICc3LjAnLCAnLXRuJywgJzgnLCAnLW1hJywgJzIwMCcsICctbWV0YWxfYmluZGluZycsICctaW1hZScsICc8aW5maWxlLm1hZT4nLCAnLW9tYWUnLCAnPG91dGZpbGUubWFlPic=

> <r_lp_tautomer_probability>
1

> <r_epik_Ionization_Penalty>
0.00253099

> <r_epik_Ionization_Penalty_Charging>
0.00137877

> <r_epik_Ionization_Penalty_Neutral>
0.00115221

> <r_epik_State_Penalty>
-0

> <r_epik_Charging_Adjusted_Penalty>
0.00137877

> <i_epik_Tot_Q>
1

> <i_epik_Tot_abs_Q>
1

> <r_epik_Metal_State_Penalty>
-0

> <b_epik_Metal_Only>
0

> <s_lp_Force_Field>
OPLS_2005

> <r_lp_Energy>
45.5006

> <b_lp_Chiralities_Consistent>
1

> <s_lp_Variant>
AV-unprocessed.smi:243-13

> <Gold.Version>
5.8.1

> <Gold.Id.Protein>
6NUR|6NUR_protein|mol2

> <Gold.PLP.Fitness>
46.0548

> <Gold.PLP.PLP>
-39.5307

> <Gold.PLP.part.hbond>
-3.3611

> <Gold.PLP.part.metal>
0.0000

> <Gold.PLP.part.buried>
-7.7245

> <Gold.PLP.part.nonpolar>
-29.3249

> <Gold.PLP.part.repulsive>
0.0806

> <Gold.PLP.ligand.clash>
0.0000

> <Gold.PLP.ligand.torsion>
1.8288

> <Gold.PLP.Chemscore.Hbond>
3.0406

> <Gold.PLP.Chemscore.CHOScore>
0.0000

> <Gold.PLP.Chemscore.Metal>
0.0000

> <Gold.Chemscore.Hbonds>
donor molecule, donor type, donor heavy atom, donor atom, acceptor molecule, acceptor atom, score
      L1  H     3    58       P1  8028  2.00
      P1  H  6896  6908       L1    12  1.00
      P1  H  6934  6947       L1    15  0.08

> <Gold.PLP.Chemscore.Internal.Correction>
1.0601

> <Gold.Rescore>
     Score         DG    S(hbond)    S(metal)    S(lipo)     H(rot)  DE(clash)    DE(int)     intcor
     14.84     -16.91       1.69        0.00      98.34       2.24       0.11       1.96       ----

> <Gold.Chemscore.Fitness>
14.8438

> <Gold.Chemscore.DG>
-16.9140

> <Gold.Chemscore.ZeroCoef>
-5.4800

> <Gold.Chemscore.Hbond>
1.6938

> <Gold.Chemscore.Metal>
0.0000

> <Gold.Chemscore.Lipo>
98.3400

> <Gold.Chemscore.Internal_Hbond>
0.0000

> <Gold.Chemscore.DEClash>
0.1083

> <Gold.Chemscore.DEInternal>
1.9620

> <Gold.Chemscore.Rot>
2.2379

> <Gold.Chemscore.Internal.Correction>
   9.000000E+99

> <Gold.Chemscore.Hbonds>
donor molecule, donor type, donor heavy atom, donor atom, acceptor molecule, acceptor atom, score
      L1  H     3    58       P1  8028  0.70
      P1  H  6896  6908       L1    12  0.64

> <Gold.Chemscore.Hbond.Weighted>
-5.6573

> <Gold.Chemscore.Metal.Weighted>
-0.0000

> <Gold.Chemscore.Lipo.Weighted>
-11.5058

> <Gold.Chemscore.Internal_Hbond.Weighted>
0.0000

> <Gold.Chemscore.DEClash.Weighted>
0.1083

> <Gold.Chemscore.DEInternal.Weighted>
1.9620

> <Gold.Chemscore.Rot.Weighted>
5.7291

> <Gold.Chemscore.Internal.Correction.Weighted>
   9.000000E+99

> <Gold.Protein.RotatedTorsions>
[ 6907 6896 6895 6894 ] final  170.88 input  -60.11 | X-H torsion
[ 7974 7965 7964 7962 ] final   77.26 input  175.53 | X-H torsion
[ 8008 7997 7996 7995 ] final   79.78 input   59.86 | X-H torsion
[ 10167 10162 10161 10158 ] final -147.70 input  -65.29 | X-H torsion
[ 10718 10713 10712 10709 ] final  178.56 input   66.30 | X-H torsion
[ 10763 10752 10751 10750 ] final   56.53 input  -60.55 | X-H torsion
[ 11005 11000 10999 10996 ] final  164.54 input  -57.11 | X-H torsion

> <Gold.Protein.ActiveResidues>
 VAL166  LYS551  ARG553  GLY616  TRP617  ASP618  TYR619  PRO620  LYS621  CYS622 
 ASP623  PHE694  ASN695  SER759  ASP760  ASP761  ALA762  ILE779  LEU786  VAL792 
 PHE793  MET794  SER795  GLU796  ALA797  LYS798  CYS799  TRP800  GLU811  SER814 

> <Gold.Protein.RotatedAtoms>
  151.8090  133.3379  159.3549 H   0  0  0  0  0  0  0  0  0  0  0  0  # atno 6907 bound_to 6896
  150.7332  134.5682  159.5886 H   0  0  0  0  0  0  0  0  0  0  0  0  # atno 6908 bound_to 6896
  152.3088  134.7523  160.0392 H   0  0  0  0  0  0  0  0  0  0  0  0  # atno 6909 bound_to 6896
  145.6923  139.2556  143.1753 H   0  0  0  0  0  0  0  0  0  0  0  0  # atno 7974 bound_to 7965
  155.8744  140.3447  155.5844 H   0  0  0  0  0  0  0  0  0  0  0  0  # atno 8008 bound_to 7997
  155.7791  140.0856  157.2088 H   0  0  0  0  0  0  0  0  0  0  0  0  # atno 8009 bound_to 7997
  154.4019  140.1504  156.3018 H   0  0  0  0  0  0  0  0  0  0  0  0  # atno 8010 bound_to 7997
  139.7598  143.8393  152.2605 H   0  0  0  0  0  0  0  0  0  0  0  0  # atno 10167 bound_to 10162
  156.8888  130.9840  151.3052 H   0  0  0  0  0  0  0  0  0  0  0  0  # atno 10718 bound_to 10713
  152.9833  135.5673  154.5244 H   0  0  0  0  0  0  0  0  0  0  0  0  # atno 10763 bound_to 10752
  154.4727  135.2785  155.1633 H   0  0  0  0  0  0  0  0  0  0  0  0  # atno 10764 bound_to 10752
  154.3174  135.6276  153.5546 H   0  0  0  0  0  0  0  0  0  0  0  0  # atno 10765 bound_to 10752
  140.2469  134.8007  157.3465 H   0  0  0  0  0  0  0  0  0  0  0  0  # atno 11005 bound_to 11000
  146.0871  140.7698  142.9613 LP  0  0  0  0  0  0  0  0  0  0  0  0  # atno 17320 bound_to 7965
  144.6993  140.3579  143.7169 LP  0  0  0  0  0  0  0  0  0  0  0  0  # atno 17321 bound_to 7965
  139.8396  144.7216  150.9347 LP  0  0  0  0  0  0  0  0  0  0  0  0  # atno 17342 bound_to 10162
  140.7806  143.3995  151.1173 LP  0  0  0  0  0  0  0  0  0  0  0  0  # atno 17343 bound_to 10162
  157.6096  130.8573  149.8930 LP  0  0  0  0  0  0  0  0  0  0  0  0  # atno 17370 bound_to 10713
  156.0639  130.3695  150.0920 LP  0  0  0  0  0  0  0  0  0  0  0  0  # atno 17371 bound_to 10713
  140.1596  134.4745  155.7903 LP  0  0  0  0  0  0  0  0  0  0  0  0  # atno 17394 bound_to 11000
  141.2205  133.6896  156.7522 LP  0  0  0  0  0  0  0  0  0  0  0  0  # atno 17395 bound_to 11000

$$$$
