AV-unprocessed.smi:3347|AV-procd|sdf|12911|dock8
  -GOLD-   2272019323D 1   1.00000     0.00000
 Structure written by MMmdl.
 40 42  0  0  0  0  0  0  0  0  2 V2000
  145.1076  137.6756  153.2333 O   0  0  0  0  0  0  0  0  0  0  0  0
  146.1913  137.1855  152.9185 C   0  0  0  0  0  0  0  0  0  0  0  0
  146.3230  135.9428  152.4326 N   0  0  0  0  0  0  0  0  0  0  0  0
  145.2269  135.0150  152.1698 C   0  0  0  0  0  0  0  0  0  0  0  0
  145.7027  133.7407  151.4463 C   0  0  2  0  0  0  0  0  0  0  0  0
  144.5654  132.9157  150.8472 C   0  0  0  0  0  0  0  0  0  0  0  0
  145.1593  131.5112  150.6855 C   0  0  0  0  0  0  0  0  0  0  0  0
  146.3337  131.4378  151.5858 N   0  3  2  0  0  0  0  0  0  0  0  0
  146.3648  130.2354  152.4452 C   0  0  0  0  0  0  0  0  0  0  0  0
  147.0944  129.0684  151.8241 C   0  0  0  0  0  0  0  0  0  0  0  0
  145.5819  129.0721  151.8853 C   0  0  0  0  0  0  0  0  0  0  0  0
  146.4047  132.7098  152.3334 C   0  0  0  0  0  0  0  0  0  0  0  0
  147.3850  137.7973  153.0062 N   0  0  0  0  0  0  0  0  0  0  0  0
  147.6953  139.1202  153.4276 C   0  0  0  0  0  0  0  0  0  0  0  0
  148.9009  139.5099  154.0618 C   0  0  0  0  0  0  0  0  0  0  0  0
  149.0743  140.8605  154.4217 C   0  0  0  0  0  0  0  0  0  0  0  0
  148.0418  141.7731  154.1327 C   0  0  0  0  0  0  0  0  0  0  0  0
  146.8914  141.4186  153.5232 N   0  0  0  0  0  0  0  0  0  0  0  0
  146.7322  140.1225  153.1815 C   0  0  0  0  0  0  0  0  0  0  0  0
  147.2521  135.6233  152.1995 H   0  0  0  0  0  0  0  0  0  0  0  0
  144.7049  134.7618  153.0944 H   0  0  0  0  0  0  0  0  0  0  0  0
  144.5003  135.5354  151.5451 H   0  0  0  0  0  0  0  0  0  0  0  0
  146.3810  134.0209  150.6383 H   0  0  0  0  0  0  0  0  0  0  0  0
  143.7265  132.8761  151.5441 H   0  0  0  0  0  0  0  0  0  0  0  0
  144.1958  133.3263  149.9069 H   0  0  0  0  0  0  0  0  0  0  0  0
  144.4156  130.7443  150.9078 H   0  0  0  0  0  0  0  0  0  0  0  0
  145.5011  131.3513  149.6624 H   0  0  0  0  0  0  0  0  0  0  0  0
  146.4083  130.4065  153.5195 H   0  0  0  0  0  0  0  0  0  0  0  0
  147.5585  129.2103  150.8498 H   0  0  0  0  0  0  0  0  0  0  0  0
  147.6189  128.3909  152.4947 H   0  0  0  0  0  0  0  0  0  0  0  0
  145.1104  128.3962  152.5959 H   0  0  0  0  0  0  0  0  0  0  0  0
  145.0407  129.2164  150.9517 H   0  0  0  0  0  0  0  0  0  0  0  0
  147.4368  132.9801  152.5583 H   0  0  0  0  0  0  0  0  0  0  0  0
  145.8700  132.6087  153.2796 H   0  0  0  0  0  0  0  0  0  0  0  0
  148.1763  137.2592  152.6844 H   0  0  0  0  0  0  0  0  0  0  0  0
  149.6972  138.8158  154.2762 H   0  0  0  0  0  0  0  0  0  0  0  0
  149.9808  141.1899  154.9076 H   0  0  0  0  0  0  0  0  0  0  0  0
  148.1434  142.8157  154.3958 H   0  0  0  0  0  0  0  0  0  0  0  0
  145.7995  139.8767  152.6949 H   0  0  0  0  0  0  0  0  0  0  0  0
  147.1476  131.4067  150.9887 H   0  0  0  0  0  0  0  0  0  0  0  0
  1  2  2  0  0  0  0
  2  3  1  0  0  0  0
  2 13  1  0  0  0  0
  3  4  1  0  0  0  0
  3 20  1  0  0  0  0
  4  5  1  0  0  0  0
  4 21  1  0  0  0  0
  4 22  1  0  0  0  0
  5 12  1  0  0  0  0
  5  6  1  0  0  0  0
  5 23  1  0  0  0  0
  6  7  1  0  0  0  0
  6 24  1  0  0  0  0
  6 25  1  0  0  0  0
  7  8  1  0  0  0  0
  7 26  1  0  0  0  0
  7 27  1  0  0  0  0
  8  9  1  0  0  0  0
  8 12  1  0  0  0  0
  8 40  1  0  0  0  0
  9 11  1  0  0  0  0
  9 10  1  0  0  0  0
  9 28  1  0  0  0  0
 10 11  1  0  0  0  0
 10 29  1  0  0  0  0
 10 30  1  0  0  0  0
 11 31  1  0  0  0  0
 11 32  1  0  0  0  0
 12 33  1  0  0  0  0
 12 34  1  0  0  0  0
 13 14  1  0  0  0  0
 13 35  1  0  0  0  0
 14 19  1  0  0  0  0
 14 15  2  0  0  0  0
 15 16  1  0  0  0  0
 15 36  1  0  0  0  0
 16 17  2  0  0  0  0
 16 37  1  0  0  0  0
 17 18  1  0  0  0  0
 17 38  1  0  0  0  0
 18 19  2  0  0  0  0
 19 39  1  0  0  0  0
M  CHG  1   8   1
M  END
> <s_m_source_file>
AV-unprocessed.smi

> <i_m_source_file_index>
3347

> <i_lp_mmshare_version>
43012

> <i_f3d_flags>
0

> <s_epik_input>
W2NIXTFuW2NIXVtjSF1bY0hdYzFbTkhdQyg9TylbTkhdW0NIMl1bQ0BASF0yW0NIMl1bQ0gyXU4oW0NIMl0yKVtDSF0zW0NIMl1bQ0gyXTM=

> <s_epik_cmdline>
J2VwaWtfcHl0aG9uJywgJy1waCcsICc3LjAnLCAnLXRuJywgJzgnLCAnLW1hJywgJzIwMCcsICctbWV0YWxfYmluZGluZycsICctaW1hZScsICc8aW5maWxlLm1hZT4nLCAnLW9tYWUnLCAnPG91dGZpbGUubWFlPic=

> <r_epik_Ionization_Penalty>
0.00442629

> <r_epik_Ionization_Penalty_Charging>
0.000203384

> <r_epik_Ionization_Penalty_Neutral>
0.00422291

> <r_epik_State_Penalty>
0.00301008

> <r_epik_Charging_Adjusted_Penalty>
0.00321347

> <i_epik_Tot_Q>
1

> <i_epik_Tot_abs_Q>
1

> <r_epik_Metal_State_Penalty>
-0

> <b_epik_Metal_Only>
0

> <s_lp_Force_Field>
OPLS_2005

> <r_lp_Energy>
39.8414

> <b_lp_Chiralities_Consistent>
1

> <s_lp_Variant>
AV-unprocessed.smi:3347-1

> <Gold.Version>
5.8.1

> <Gold.Id.Protein>
6NUR|6NUR_protein|mol2

> <Gold.PLP.Fitness>
47.0125

> <Gold.PLP.PLP>
-33.6255

> <Gold.PLP.part.hbond>
-2.8747

> <Gold.PLP.part.metal>
0.0000

> <Gold.PLP.part.buried>
-1.0459

> <Gold.PLP.part.nonpolar>
-29.6362

> <Gold.PLP.part.repulsive>
0.4456

> <Gold.PLP.ligand.clash>
0.0000

> <Gold.PLP.ligand.torsion>
1.2188

> <Gold.PLP.Chemscore.Hbond>
2.8553

> <Gold.PLP.Chemscore.CHOScore>
2.0000

> <Gold.PLP.Chemscore.Metal>
0.0000

> <Gold.Chemscore.Hbonds>
donor molecule, donor type, donor heavy atom, donor atom, acceptor molecule, acceptor atom, score
      L1  H     3    20       P1  7948  0.86
      L1  H     8    40       P1 10747  0.98
      L1  H    13    35       P1  7948  0.98
      L1  C    17    38       P1  8028  1.00
      L1  C    19    39       P1 10175  1.00

> <Gold.PLP.Chemscore.Internal.Correction>
1.2589

> <Gold.Rescore>
     Score         DG    S(hbond)    S(metal)    S(lipo)     H(rot)  DE(clash)    DE(int)     intcor
     19.63     -22.25       2.87        0.00      92.51       1.42       0.16       2.46       ----

> <Gold.Chemscore.Fitness>
19.6321

> <Gold.Chemscore.DG>
-22.2521

> <Gold.Chemscore.ZeroCoef>
-5.4800

> <Gold.Chemscore.Hbond>
2.8708

> <Gold.Chemscore.Metal>
0.0000

> <Gold.Chemscore.Lipo>
92.5108

> <Gold.Chemscore.Internal_Hbond>
0.0000

> <Gold.Chemscore.DEClash>
0.1622

> <Gold.Chemscore.DEInternal>
2.4578

> <Gold.Chemscore.Rot>
1.4219

> <Gold.Chemscore.Internal.Correction>
   9.000000E+99

> <Gold.Chemscore.Hbonds>
donor molecule, donor type, donor heavy atom, donor atom, acceptor molecule, acceptor atom, score
      L1  H     3    20       P1  7948  0.85
      L1  H     8    40       P1 10747  0.92
      L1  H    13    35       P1  7948  0.90

> <Gold.Chemscore.Hbond.Weighted>
-9.5884

> <Gold.Chemscore.Metal.Weighted>
-0.0000

> <Gold.Chemscore.Lipo.Weighted>
-10.8238

> <Gold.Chemscore.Internal_Hbond.Weighted>
0.0000

> <Gold.Chemscore.DEClash.Weighted>
0.1622

> <Gold.Chemscore.DEInternal.Weighted>
2.4578

> <Gold.Chemscore.Rot.Weighted>
3.6401

> <Gold.Chemscore.Internal.Correction.Weighted>
   9.000000E+99

> <Gold.Protein.RotatedTorsions>
[ 6907 6896 6895 6894 ] final   55.72 input  -60.11 | X-H torsion
[ 7974 7965 7964 7962 ] final -169.95 input  175.53 | X-H torsion
[ 8008 7997 7996 7995 ] final  -78.32 input   59.86 | X-H torsion
[ 10167 10162 10161 10158 ] final -156.73 input  -65.29 | X-H torsion
[ 10718 10713 10712 10709 ] final -158.71 input   66.30 | X-H torsion
[ 10763 10752 10751 10750 ] final   16.41 input  -60.55 | X-H torsion
[ 11005 11000 10999 10996 ] final  111.72 input  -57.11 | X-H torsion

> <Gold.Protein.ActiveResidues>
 VAL166  LYS551  ARG553  GLY616  TRP617  ASP618  TYR619  PRO620  LYS621  CYS622 
 ASP623  PHE694  ASN695  SER759  ASP760  ASP761  ALA762  ILE779  LEU786  VAL792 
 PHE793  MET794  SER795  GLU796  ALA797  LYS798  CYS799  TRP800  GLU811  SER814 

> <Gold.Protein.RotatedAtoms>
  152.3566  134.6931  160.0219 H   0  0  0  0  0  0  0  0  0  0  0  0  # atno 6907 bound_to 6896
  151.7268  133.3311  159.3338 H   0  0  0  0  0  0  0  0  0  0  0  0  # atno 6908 bound_to 6896
  150.7576  134.6333  159.6242 H   0  0  0  0  0  0  0  0  0  0  0  0  # atno 6909 bound_to 6896
  144.7177  140.2145  143.6323 H   0  0  0  0  0  0  0  0  0  0  0  0  # atno 7974 bound_to 7965
  154.5679  140.0696  156.8919 H   0  0  0  0  0  0  0  0  0  0  0  0  # atno 8008 bound_to 7997
  155.2689  140.3364  155.4248 H   0  0  0  0  0  0  0  0  0  0  0  0  # atno 8009 bound_to 7997
  156.2095  140.1753  156.7712 H   0  0  0  0  0  0  0  0  0  0  0  0  # atno 8010 bound_to 7997
  139.6827  143.9553  152.2345 H   0  0  0  0  0  0  0  0  0  0  0  0  # atno 10167 bound_to 10162
  156.5580  130.8634  151.2801 H   0  0  0  0  0  0  0  0  0  0  0  0  # atno 10718 bound_to 10713
  153.1434  135.6764  153.8992 H   0  0  0  0  0  0  0  0  0  0  0  0  # atno 10763 bound_to 10752
  153.8442  135.3101  155.3429 H   0  0  0  0  0  0  0  0  0  0  0  0  # atno 10764 bound_to 10752
  154.7805  135.4891  153.9920 H   0  0  0  0  0  0  0  0  0  0  0  0  # atno 10765 bound_to 10752
  139.8910  134.9514  156.6475 H   0  0  0  0  0  0  0  0  0  0  0  0  # atno 11005 bound_to 11000
  145.8560  139.2199  143.1744 LP  0  0  0  0  0  0  0  0  0  0  0  0  # atno 17320 bound_to 7965
  146.0217  140.8341  142.9920 LP  0  0  0  0  0  0  0  0  0  0  0  0  # atno 17321 bound_to 7965
  139.9348  144.6719  150.8326 LP  0  0  0  0  0  0  0  0  0  0  0  0  # atno 17342 bound_to 10162
  140.7657  143.3284  151.2464 LP  0  0  0  0  0  0  0  0  0  0  0  0  # atno 17343 bound_to 10162
  157.7374  130.9795  150.2192 LP  0  0  0  0  0  0  0  0  0  0  0  0  # atno 17370 bound_to 10713
  156.2824  130.3735  149.7921 LP  0  0  0  0  0  0  0  0  0  0  0  0  # atno 17371 bound_to 10713
  140.7546  133.8869  155.8372 LP  0  0  0  0  0  0  0  0  0  0  0  0  # atno 17394 bound_to 11000
  140.9972  134.1198  157.4352 LP  0  0  0  0  0  0  0  0  0  0  0  0  # atno 17395 bound_to 11000

$$$$
