AV-unprocessed.smi:1005|AV-procd|sdf|4375|dock2
  -GOLD-   22720 2293D 1   1.00000     0.00000
 Structure written by MMmdl.
 57 59  0  0  0  0  0  0  0  0  3 V2000
  152.1142  144.1748  161.5413 C   0  0  0  0  0  0  0  0  0  0  0  0
  152.0255  143.2576  160.3333 C   0  0  0  0  0  0  0  0  0  0  0  0
  151.2295  143.6605  159.2370 C   0  0  0  0  0  0  0  0  0  0  0  0
  151.1682  142.8005  158.1471 C   0  0  0  0  0  0  0  0  0  0  0  0
  150.4826  142.9042  156.9346 N   0  3  0  0  0  0  0  0  0  0  0  0
  150.7307  141.8005  156.1760 C   0  0  0  0  0  0  0  0  0  0  0  0
  151.5643  140.9939  156.8873 N   0  0  0  0  0  0  0  0  0  0  0  0
  152.1411  139.6881  156.5408 C   0  0  0  0  0  0  0  0  0  0  0  0
  151.2224  138.8493  155.6311 C   0  0  1  0  0  0  0  0  0  0  0  0
  151.2651  139.3763  154.3200 O   0  0  0  0  0  0  0  0  0  0  0  0
  151.6625  137.3720  155.5800 C   0  0  0  0  0  0  0  0  0  0  0  0
  150.6940  136.4140  156.1165 N   0  0  0  0  0  0  0  0  0  0  0  0
  149.9863  136.9753  157.2619 C   0  0  0  0  0  0  0  0  0  0  0  0
  148.9537  135.9923  157.8373 C   0  0  0  0  0  0  0  0  0  0  0  0
  148.0483  135.6007  156.8101 O   0  0  0  0  0  0  0  0  0  0  0  0
  148.6927  134.9841  155.6977 C   0  0  1  0  0  0  0  0  0  0  0  0
  147.6010  134.5769  154.6846 C   0  0  0  0  0  0  0  0  0  0  0  0
  148.1389  134.0412  153.4065 N   0  3  0  0  0  0  0  0  0  0  0  0
  147.0953  133.6153  152.4462 C   0  0  0  0  0  0  0  0  0  0  0  0
  149.1333  132.9694  153.6359 C   0  0  0  0  0  0  0  0  0  0  0  0
  149.7078  135.9962  155.1205 C   0  0  0  0  0  0  0  0  0  0  0  0
  151.8664  141.5781  158.1216 C   0  0  0  0  0  0  0  0  0  0  0  0
  152.6581  141.1668  159.1909 C   0  0  0  0  0  0  0  0  0  0  0  0
  152.7286  142.0250  160.3114 C   0  0  0  0  0  0  0  0  0  0  0  0
  153.5763  141.5979  161.4978 C   0  0  0  0  0  0  0  0  0  0  0  0
  151.5369  145.0878  161.3927 H   0  0  0  0  0  0  0  0  0  0  0  0
  153.1490  144.4634  161.7283 H   0  0  0  0  0  0  0  0  0  0  0  0
  151.7267  143.6762  162.4302 H   0  0  0  0  0  0  0  0  0  0  0  0
  150.6909  144.5969  159.2471 H   0  0  0  0  0  0  0  0  0  0  0  0
  150.3353  141.6003  155.1903 H   0  0  0  0  0  0  0  0  0  0  0  0
  153.0991  139.8698  156.0515 H   0  0  0  0  0  0  0  0  0  0  0  0
  152.3610  139.1577  157.4683 H   0  0  0  0  0  0  0  0  0  0  0  0
  150.2003  138.9394  155.9929 H   0  0  0  0  0  0  0  0  0  0  0  0
  151.3985  138.6625  153.7148 H   0  0  0  0  0  0  0  0  0  0  0  0
  151.8945  137.1214  154.5434 H   0  0  0  0  0  0  0  0  0  0  0  0
  152.6026  137.2572  156.1220 H   0  0  0  0  0  0  0  0  0  0  0  0
  150.6989  137.2445  158.0426 H   0  0  0  0  0  0  0  0  0  0  0  0
  149.4811  137.8974  156.9695 H   0  0  0  0  0  0  0  0  0  0  0  0
  149.4463  135.1128  158.2549 H   0  0  0  0  0  0  0  0  0  0  0  0
  148.3939  136.4607  158.6468 H   0  0  0  0  0  0  0  0  0  0  0  0
  149.2082  134.0927  156.0602 H   0  0  0  0  0  0  0  0  0  0  0  0
  147.0059  133.7814  155.1359 H   0  0  0  0  0  0  0  0  0  0  0  0
  146.9074  135.3983  154.4977 H   0  0  0  0  0  0  0  0  0  0  0  0
  146.4267  132.8778  152.8925 H   0  0  0  0  0  0  0  0  0  0  0  0
  147.5459  133.1709  151.5579 H   0  0  0  0  0  0  0  0  0  0  0  0
  146.5040  134.4652  152.1076 H   0  0  0  0  0  0  0  0  0  0  0  0
  148.6716  132.1044  154.1140 H   0  0  0  0  0  0  0  0  0  0  0  0
  149.9451  133.3206  154.2738 H   0  0  0  0  0  0  0  0  0  0  0  0
  149.5756  132.6441  152.6937 H   0  0  0  0  0  0  0  0  0  0  0  0
  149.1715  136.8707  154.7482 H   0  0  0  0  0  0  0  0  0  0  0  0
  150.2029  135.5570  154.2587 H   0  0  0  0  0  0  0  0  0  0  0  0
  153.1957  140.2306  159.1706 H   0  0  0  0  0  0  0  0  0  0  0  0
  154.0342  140.6224  161.3319 H   0  0  0  0  0  0  0  0  0  0  0  0
  152.9665  141.5301  162.3991 H   0  0  0  0  0  0  0  0  0  0  0  0
  154.3773  142.3163  161.6736 H   0  0  0  0  0  0  0  0  0  0  0  0
  148.6436  134.7979  152.9665 H   0  0  0  0  0  0  0  0  0  0  0  0
  149.8886  143.6700  156.6432 H   0  0  0  0  0  0  0  0  0  0  0  0
  1  2  1  0  0  0  0
  1 26  1  0  0  0  0
  1 27  1  0  0  0  0
  1 28  1  0  0  0  0
  2 24  1  0  0  0  0
  2  3  2  0  0  0  0
  3  4  1  0  0  0  0
  3 29  1  0  0  0  0
  4 22  2  0  0  0  0
  4  5  1  0  0  0  0
  5  6  2  0  0  0  0
  5 57  1  0  0  0  0
  6  7  1  0  0  0  0
  6 30  1  0  0  0  0
  7  8  1  0  0  0  0
  7 22  1  0  0  0  0
  8  9  1  0  0  0  0
  8 31  1  0  0  0  0
  8 32  1  0  0  0  0
  9 10  1  0  0  0  0
  9 11  1  0  0  0  0
  9 33  1  0  0  0  0
 10 34  1  0  0  0  0
 11 12  1  0  0  0  0
 11 35  1  0  0  0  0
 11 36  1  0  0  0  0
 12 21  1  0  0  0  0
 12 13  1  0  0  0  0
 13 14  1  0  0  0  0
 13 37  1  0  0  0  0
 13 38  1  0  0  0  0
 14 15  1  0  0  0  0
 14 39  1  0  0  0  0
 14 40  1  0  0  0  0
 15 16  1  0  0  0  0
 16 17  1  0  0  0  0
 16 21  1  0  0  0  0
 16 41  1  0  0  0  0
 17 18  1  0  0  0  0
 17 42  1  0  0  0  0
 17 43  1  0  0  0  0
 18 19  1  0  0  0  0
 18 20  1  0  0  0  0
 18 56  1  0  0  0  0
 19 44  1  0  0  0  0
 19 45  1  0  0  0  0
 19 46  1  0  0  0  0
 20 47  1  0  0  0  0
 20 48  1  0  0  0  0
 20 49  1  0  0  0  0
 21 50  1  0  0  0  0
 21 51  1  0  0  0  0
 22 23  1  0  0  0  0
 23 24  2  0  0  0  0
 23 52  1  0  0  0  0
 24 25  1  0  0  0  0
 25 53  1  0  0  0  0
 25 54  1  0  0  0  0
 25 55  1  0  0  0  0
M  CHG  1   5   1
M  CHG  1  18   1
M  END
> <s_m_source_file>
AV-unprocessed.smi

> <i_m_source_file_index>
1005

> <i_lp_mmshare_version>
43012

> <i_f3d_flags>
0

> <s_epik_input>
W0NIM11jKFtjSF0xKWMoW0NIM10pW2NIXWMoYzEyKW4oW2NIXW4yKVtDSDJdW0NASF0oW09IXSlbQ0gyXU4zW0NIMl1bQ0gyXU9bQ0BIXShbQ0gyXTMpW0NIMl1OKFtDSDNdKVtDSDNd

> <s_epik_cmdline>
J2VwaWtfcHl0aG9uJywgJy1waCcsICc3LjAnLCAnLXRuJywgJzgnLCAnLW1hJywgJzIwMCcsICctbWV0YWxfYmluZGluZycsICctaW1hZScsICc8aW5maWxlLm1hZT4nLCAnLW9tYWUnLCAnPG91dGZpbGUubWFlPic=

> <r_epik_Ionization_Penalty>
1.3281

> <r_epik_Ionization_Penalty_Charging>
1.21988

> <r_epik_Ionization_Penalty_Neutral>
0.10822

> <r_epik_State_Penalty>
1.32886

> <r_epik_Charging_Adjusted_Penalty>
2.54875

> <i_epik_Tot_Q>
2

> <i_epik_Tot_abs_Q>
2

> <r_epik_Metal_State_Penalty>
5.33912

> <b_epik_Metal_Only>
0

> <s_lp_Force_Field>
OPLS_2005

> <r_lp_Energy>
45.907

> <b_lp_Chiralities_Consistent>
1

> <s_lp_Variant>
AV-unprocessed.smi:1005-14

> <Gold.Version>
5.8.1

> <Gold.Id.Protein>
6NUR|6NUR_protein|mol2

> <Gold.PLP.Fitness>
57.9259

> <Gold.PLP.PLP>
-45.6770

> <Gold.PLP.part.hbond>
-3.0000

> <Gold.PLP.part.metal>
0.0000

> <Gold.PLP.part.buried>
-4.9190

> <Gold.PLP.part.nonpolar>
-37.5215

> <Gold.PLP.part.repulsive>
0.0520

> <Gold.PLP.ligand.clash>
0.0000

> <Gold.PLP.ligand.torsion>
1.5400

> <Gold.PLP.Chemscore.Hbond>
5.0000

> <Gold.PLP.Chemscore.CHOScore>
0.0000

> <Gold.PLP.Chemscore.Metal>
0.0000

> <Gold.Chemscore.Hbonds>
donor molecule, donor type, donor heavy atom, donor atom, acceptor molecule, acceptor atom, score
      L1  H     5    57       P1  8028  2.00
      L1  H    18    56       P1  7948  2.00
      P1  H  7989  7998       L1    10  1.00

> <Gold.PLP.Chemscore.Internal.Correction>
0.3289

> <Gold.Rescore>
     Score         DG    S(hbond)    S(metal)    S(lipo)     H(rot)  DE(clash)    DE(int)     intcor
     21.15     -22.59       2.85        0.00     119.33       2.49       0.04       1.40       ----

> <Gold.Chemscore.Fitness>
21.1509

> <Gold.Chemscore.DG>
-22.5915

> <Gold.Chemscore.ZeroCoef>
-5.4800

> <Gold.Chemscore.Hbond>
2.8515

> <Gold.Chemscore.Metal>
0.0000

> <Gold.Chemscore.Lipo>
119.3259

> <Gold.Chemscore.Internal_Hbond>
0.0000

> <Gold.Chemscore.DEClash>
0.0417

> <Gold.Chemscore.DEInternal>
1.3989

> <Gold.Chemscore.Rot>
2.4897

> <Gold.Chemscore.Internal.Correction>
   9.000000E+99

> <Gold.Chemscore.Hbonds>
donor molecule, donor type, donor heavy atom, donor atom, acceptor molecule, acceptor atom, score
      L1  H     5    57       P1  8028  1.00
      L1  H    18    56       P1  7948  0.30
      P1  H  7989  7998       L1    10  0.60

> <Gold.Chemscore.Hbond.Weighted>
-9.5240

> <Gold.Chemscore.Metal.Weighted>
-0.0000

> <Gold.Chemscore.Lipo.Weighted>
-13.9611

> <Gold.Chemscore.Internal_Hbond.Weighted>
0.0000

> <Gold.Chemscore.DEClash.Weighted>
0.0417

> <Gold.Chemscore.DEInternal.Weighted>
1.3989

> <Gold.Chemscore.Rot.Weighted>
6.3737

> <Gold.Chemscore.Internal.Correction.Weighted>
   9.000000E+99

> <Gold.Protein.RotatedTorsions>
[ 6907 6896 6895 6894 ] final  111.87 input  -60.11 | X-H torsion
[ 7974 7965 7964 7962 ] final   36.47 input  175.53 | X-H torsion
[ 8008 7997 7996 7995 ] final   66.34 input   59.86 | X-H torsion
[ 10167 10162 10161 10158 ] final  157.57 input  -65.29 | X-H torsion
[ 10718 10713 10712 10709 ] final   71.75 input   66.30 | X-H torsion
[ 10763 10752 10751 10750 ] final   49.81 input  -60.55 | X-H torsion
[ 11005 11000 10999 10996 ] final    4.51 input  -57.11 | X-H torsion

> <Gold.Protein.ActiveResidues>
 VAL166  LYS551  ARG553  GLY616  TRP617  ASP618  TYR619  PRO620  LYS621  CYS622 
 ASP623  PHE694  ASN695  SER759  ASP760  ASP761  ALA762  ILE779  LEU786  VAL792 
 PHE793  MET794  SER795  GLU796  ALA797  LYS798  CYS799  TRP800  GLU811  SER814 

> <Gold.Protein.RotatedAtoms>
  152.4947  133.8596  159.7243 H   0  0  0  0  0  0  0  0  0  0  0  0  # atno 6907 bound_to 6896
  150.9111  133.6987  159.2861 H   0  0  0  0  0  0  0  0  0  0  0  0  # atno 6908 bound_to 6896
  151.4396  135.1023  159.9718 H   0  0  0  0  0  0  0  0  0  0  0  0  # atno 6909 bound_to 6896
  146.1209  139.6014  142.9290 H   0  0  0  0  0  0  0  0  0  0  0  0  # atno 7974 bound_to 7965
  155.6758  140.3497  155.4836 H   0  0  0  0  0  0  0  0  0  0  0  0  # atno 8008 bound_to 7997
  155.9649  140.1144  157.0886 H   0  0  0  0  0  0  0  0  0  0  0  0  # atno 8009 bound_to 7997
  154.4152  140.1168  156.5214 H   0  0  0  0  0  0  0  0  0  0  0  0  # atno 8010 bound_to 7997
  139.4823  144.4905  151.8315 H   0  0  0  0  0  0  0  0  0  0  0  0  # atno 10167 bound_to 10162
  157.6467  130.9544  150.0833 H   0  0  0  0  0  0  0  0  0  0  0  0  # atno 10718 bound_to 10713
  152.9786  135.5899  154.4150 H   0  0  0  0  0  0  0  0  0  0  0  0  # atno 10763 bound_to 10752
  154.3781  135.2767  155.2229 H   0  0  0  0  0  0  0  0  0  0  0  0  # atno 10764 bound_to 10752
  154.4155  135.6071  153.6032 H   0  0  0  0  0  0  0  0  0  0  0  0  # atno 10765 bound_to 10752
  140.5811  134.0012  155.8048 H   0  0  0  0  0  0  0  0  0  0  0  0  # atno 11005 bound_to 11000
  145.5468  141.0416  143.2300 LP  0  0  0  0  0  0  0  0  0  0  0  0  # atno 17320 bound_to 7965
  144.7596  139.6989  143.7240 LP  0  0  0  0  0  0  0  0  0  0  0  0  # atno 17321 bound_to 7965
  140.4389  144.2013  150.5890 LP  0  0  0  0  0  0  0  0  0  0  0  0  # atno 17342 bound_to 10162
  140.4703  143.2415  151.9098 LP  0  0  0  0  0  0  0  0  0  0  0  0  # atno 17343 bound_to 10162
  156.1803  130.3650  149.9044 LP  0  0  0  0  0  0  0  0  0  0  0  0  # atno 17370 bound_to 10713
  156.6998  130.8928  151.3598 LP  0  0  0  0  0  0  0  0  0  0  0  0  # atno 17371 bound_to 10713
  141.0996  133.9790  157.3102 LP  0  0  0  0  0  0  0  0  0  0  0  0  # atno 17394 bound_to 11000
  139.9317  135.0199  156.8422 LP  0  0  0  0  0  0  0  0  0  0  0  0  # atno 17395 bound_to 11000

$$$$
