AV-unprocessed.smi:2801|AV-procd|sdf|10797|dock5
  -GOLD-   2272015233D 1   1.00000     0.00000
 Structure written by MMmdl.
 32 32  0  0  0  0  0  0  0  0  3 V2000
  153.7348  141.9366  161.0677 C   0  0  0  0  0  0  0  0  0  0  0  0
  153.5278  142.6738  159.7429 C   0  0  0  0  0  0  0  0  0  0  0  0
  152.4348  142.0744  159.0578 O   0  0  0  0  0  0  0  0  0  0  0  0
  151.8517  142.8654  158.0246 C   0  0  2  0  0  0  0  0  0  0  0  0
  151.0128  143.9714  158.6925 C   0  0  0  0  0  0  0  0  0  0  0  0
  151.8698  145.1220  159.2348 C   0  0  0  0  0  0  0  0  0  0  0  0
  150.9833  141.9841  157.1119 C   0  0  0  0  0  0  0  0  0  0  0  0
  149.7684  142.1751  157.0607 O   0  0  0  0  0  0  0  0  0  0  0  0
  151.6401  141.0207  156.4403 N   0  0  0  0  0  0  0  0  0  0  0  0
  151.1430  140.0450  155.5302 C   0  0  0  0  0  0  0  0  0  0  0  0
  149.8293  140.0650  154.9945 C   0  0  0  0  0  0  0  0  0  0  0  0
  149.4352  139.0622  154.0861 C   0  0  0  0  0  0  0  0  0  0  0  0
  150.3073  138.0981  153.7246 N   0  3  0  0  0  0  0  0  0  0  0  0
  151.5701  138.0436  154.1961 C   0  0  0  0  0  0  0  0  0  0  0  0
  152.0242  139.0170  155.1090 C   0  0  0  0  0  0  0  0  0  0  0  0
  153.3089  138.9459  155.5706 O   0  5  0  0  0  0  0  0  0  0  0  0
  154.5657  142.3662  161.6273 H   0  0  0  0  0  0  0  0  0  0  0  0
  153.9550  140.8823  160.8975 H   0  0  0  0  0  0  0  0  0  0  0  0
  152.8432  141.9966  161.6922 H   0  0  0  0  0  0  0  0  0  0  0  0
  153.3179  143.7270  159.9349 H   0  0  0  0  0  0  0  0  0  0  0  0
  154.4419  142.6217  159.1506 H   0  0  0  0  0  0  0  0  0  0  0  0
  152.6410  143.3367  157.4349 H   0  0  0  0  0  0  0  0  0  0  0  0
  150.3012  144.3788  157.9729 H   0  0  0  0  0  0  0  0  0  0  0  0
  150.4193  143.5511  159.5058 H   0  0  0  0  0  0  0  0  0  0  0  0
  151.2444  145.8924  159.6859 H   0  0  0  0  0  0  0  0  0  0  0  0
  152.4506  145.5890  158.4391 H   0  0  0  0  0  0  0  0  0  0  0  0
  152.5661  144.7715  159.9971 H   0  0  0  0  0  0  0  0  0  0  0  0
  152.6256  140.9359  156.6462 H   0  0  0  0  0  0  0  0  0  0  0  0
  149.1173  140.8336  155.2491 H   0  0  0  0  0  0  0  0  0  0  0  0
  148.4552  139.0074  153.6357 H   0  0  0  0  0  0  0  0  0  0  0  0
  152.1774  137.2289  153.8291 H   0  0  0  0  0  0  0  0  0  0  0  0
  150.0020  137.3833  153.0642 H   0  0  0  0  0  0  0  0  0  0  0  0
  1  2  1  0  0  0  0
  1 17  1  0  0  0  0
  1 18  1  0  0  0  0
  1 19  1  0  0  0  0
  2  3  1  0  0  0  0
  2 20  1  0  0  0  0
  2 21  1  0  0  0  0
  3  4  1  0  0  0  0
  4  5  1  0  0  0  0
  4  7  1  0  0  0  0
  4 22  1  0  0  0  0
  5  6  1  0  0  0  0
  5 23  1  0  0  0  0
  5 24  1  0  0  0  0
  6 25  1  0  0  0  0
  6 26  1  0  0  0  0
  6 27  1  0  0  0  0
  7  8  2  0  0  0  0
  7  9  1  0  0  0  0
  9 28  1  0  0  0  0
  9 10  1  0  0  0  0
 10 11  2  0  0  0  0
 10 15  1  0  0  0  0
 11 12  1  0  0  0  0
 11 29  1  0  0  0  0
 12 13  2  0  0  0  0
 12 30  1  0  0  0  0
 13 14  1  0  0  0  0
 13 32  1  0  0  0  0
 14 15  2  0  0  0  0
 14 31  1  0  0  0  0
 15 16  1  0  0  0  0
M  CHG  1  13   1
M  CHG  1  16  -1
M  END
> <s_m_source_file>
AV-unprocessed.smi

> <i_m_source_file_index>
2801

> <i_lp_mmshare_version>
43012

> <i_f3d_flags>
0

> <s_epik_input>
W0NIM11bQ0gyXU9bQ0BIXShbQ0gyXVtDSDNdKUMoPU8pW05IXWMxW2NIXVtjSF1uW2NIXWMxW09IXQ==

> <s_epik_cmdline>
J2VwaWtfcHl0aG9uJywgJy1waCcsICc3LjAnLCAnLXRuJywgJzgnLCAnLW1hJywgJzIwMCcsICctbWV0YWxfYmluZGluZycsICctaW1hZScsICc8aW5maWxlLm1hZT4nLCAnLW9tYWUnLCAnPG91dGZpbGUubWFlPic=

> <r_lp_tautomer_probability>
0.56342

> <r_epik_Ionization_Penalty>
0.0170685

> <r_epik_Ionization_Penalty_Charging>
0.0170685

> <r_epik_Ionization_Penalty_Neutral>
1.5328e-09

> <r_epik_State_Penalty>
0.331557

> <r_epik_Charging_Adjusted_Penalty>
0.348625

> <i_epik_Tot_Q>
0

> <i_epik_Tot_abs_Q>
2

> <r_epik_Metal_State_Penalty>
0.590147

> <b_epik_Metal_Only>
0

> <s_lp_Force_Field>
OPLS_2005

> <r_lp_Energy>
9.87866

> <b_lp_Chiralities_Consistent>
1

> <s_lp_Variant>
AV-unprocessed.smi:2801-1

> <Gold.Version>
5.8.1

> <Gold.Id.Protein>
6NUR|6NUR_protein|mol2

> <Gold.PLP.Fitness>
48.0413

> <Gold.PLP.PLP>
-36.7654

> <Gold.PLP.part.hbond>
-2.4300

> <Gold.PLP.part.metal>
0.0000

> <Gold.PLP.part.buried>
-4.3277

> <Gold.PLP.part.nonpolar>
-30.6992

> <Gold.PLP.part.repulsive>
0.8601

> <Gold.PLP.ligand.clash>
0.0000

> <Gold.PLP.ligand.torsion>
0.4005

> <Gold.PLP.Chemscore.Hbond>
4.0000

> <Gold.PLP.Chemscore.CHOScore>
0.0000

> <Gold.PLP.Chemscore.Metal>
0.0000

> <Gold.Chemscore.Hbonds>
donor molecule, donor type, donor heavy atom, donor atom, acceptor molecule, acceptor atom, score
      L1  H    13    32       P1  7948  1.90
      P1  H  7997  8010       L1    16  2.00

> <Gold.PLP.Chemscore.Internal.Correction>
0.0770

> <Gold.Rescore>
     Score         DG    S(hbond)    S(metal)    S(lipo)     H(rot)  DE(clash)    DE(int)     intcor
     16.61     -18.46       1.94        0.00      90.31       1.59       0.06       1.79       ----

> <Gold.Chemscore.Fitness>
16.6146

> <Gold.Chemscore.DG>
-18.4626

> <Gold.Chemscore.ZeroCoef>
-5.4800

> <Gold.Chemscore.Hbond>
1.9448

> <Gold.Chemscore.Metal>
0.0000

> <Gold.Chemscore.Lipo>
90.3081

> <Gold.Chemscore.Internal_Hbond>
0.0000

> <Gold.Chemscore.DEClash>
0.0617

> <Gold.Chemscore.DEInternal>
1.7863

> <Gold.Chemscore.Rot>
1.5933

> <Gold.Chemscore.Internal.Correction>
   9.000000E+99

> <Gold.Chemscore.Hbonds>
donor molecule, donor type, donor heavy atom, donor atom, acceptor molecule, acceptor atom, score
      L1  H    13    32       P1  7948  0.21
      P1  H  7997  8010       L1    16  0.98

> <Gold.Chemscore.Hbond.Weighted>
-6.4955

> <Gold.Chemscore.Metal.Weighted>
-0.0000

> <Gold.Chemscore.Lipo.Weighted>
-10.5660

> <Gold.Chemscore.Internal_Hbond.Weighted>
0.0000

> <Gold.Chemscore.DEClash.Weighted>
0.0617

> <Gold.Chemscore.DEInternal.Weighted>
1.7863

> <Gold.Chemscore.Rot.Weighted>
4.0789

> <Gold.Chemscore.Internal.Correction.Weighted>
   9.000000E+99

> <Gold.Protein.RotatedTorsions>
[ 6907 6896 6895 6894 ] final   58.91 input  -60.11 | X-H torsion
[ 7974 7965 7964 7962 ] final   -5.76 input  175.53 | X-H torsion
[ 8008 7997 7996 7995 ] final   94.11 input   59.86 | X-H torsion
[ 10167 10162 10161 10158 ] final  -85.92 input  -65.29 | X-H torsion
[ 10718 10713 10712 10709 ] final -166.25 input   66.30 | X-H torsion
[ 10763 10752 10751 10750 ] final  -51.47 input  -60.55 | X-H torsion
[ 11005 11000 10999 10996 ] final  -81.31 input  -57.11 | X-H torsion

> <Gold.Protein.ActiveResidues>
 VAL166  LYS551  ARG553  GLY616  TRP617  ASP618  TYR619  PRO620  LYS621  CYS622 
 ASP623  PHE694  ASN695  SER759  ASP760  ASP761  ALA762  ILE779  LEU786  VAL792 
 PHE793  MET794  SER795  GLU796  ALA797  LYS798  CYS799  TRP800  GLU811  SER814 

> <Gold.Protein.RotatedAtoms>
  152.3867  134.6505  160.0122 H   0  0  0  0  0  0  0  0  0  0  0  0  # atno 6907 bound_to 6896
  151.6752  133.3307  159.3214 H   0  0  0  0  0  0  0  0  0  0  0  0  # atno 6908 bound_to 6896
  150.7792  134.6765  159.6465 H   0  0  0  0  0  0  0  0  0  0  0  0  # atno 6909 bound_to 6896
  146.2346  140.2069  142.8334 H   0  0  0  0  0  0  0  0  0  0  0  0  # atno 7974 bound_to 7965
  156.0543  140.3304  155.7387 H   0  0  0  0  0  0  0  0  0  0  0  0  # atno 8008 bound_to 7997
  155.5553  140.0614  157.2858 H   0  0  0  0  0  0  0  0  0  0  0  0  # atno 8009 bound_to 7997
  154.4450  140.1887  156.0716 H   0  0  0  0  0  0  0  0  0  0  0  0  # atno 8010 bound_to 7997
  140.3991  143.2670  151.9165 H   0  0  0  0  0  0  0  0  0  0  0  0  # atno 10167 bound_to 10162
  156.6652  130.9062  151.3035 H   0  0  0  0  0  0  0  0  0  0  0  0  # atno 10718 bound_to 10713
  154.1271  135.6526  153.4914 H   0  0  0  0  0  0  0  0  0  0  0  0  # atno 10763 bound_to 10752
  153.0207  135.5284  154.7038 H   0  0  0  0  0  0  0  0  0  0  0  0  # atno 10764 bound_to 10752
  154.6262  135.2970  155.0239 H   0  0  0  0  0  0  0  0  0  0  0  0  # atno 10765 bound_to 10752
  141.1666  133.7191  156.8404 H   0  0  0  0  0  0  0  0  0  0  0  0  # atno 11005 bound_to 11000
  144.9738  140.8394  143.5439 LP  0  0  0  0  0  0  0  0  0  0  0  0  # atno 17320 bound_to 7965
  145.2053  139.2231  143.5171 LP  0  0  0  0  0  0  0  0  0  0  0  0  # atno 17321 bound_to 7965
  139.4785  144.5651  151.8178 LP  0  0  0  0  0  0  0  0  0  0  0  0  # atno 17342 bound_to 10162
  140.4758  144.1521  150.5925 LP  0  0  0  0  0  0  0  0  0  0  0  0  # atno 17343 bound_to 10162
  157.7096  130.9425  150.1045 LP  0  0  0  0  0  0  0  0  0  0  0  0  # atno 17370 bound_to 10713
  156.1980  130.3658  149.8824 LP  0  0  0  0  0  0  0  0  0  0  0  0  # atno 17371 bound_to 10713
  140.1987  134.8912  157.3144 LP  0  0  0  0  0  0  0  0  0  0  0  0  # atno 17394 bound_to 11000
  140.2210  134.4023  155.7566 LP  0  0  0  0  0  0  0  0  0  0  0  0  # atno 17395 bound_to 11000

$$$$
