AV-unprocessed.smi:3031|AV-procd|sdf|11551|dock1
  -GOLD-   2272016513D 1   1.00000     0.00000
 Structure written by MMmdl.
 48 49  0  0  0  0  0  0  0  0  3 V2000
  151.4020  142.3054  157.9766 C   0  0  0  0  0  0  0  0  0  0  0  0
  150.8366  141.6463  156.7513 C   0  0  0  0  0  0  0  0  0  0  0  0
  151.3889  140.5623  156.0129 C   0  0  0  0  0  0  0  0  0  0  0  0
  150.6456  140.2178  154.9744 N   0  0  0  0  0  0  0  0  0  0  0  0
  149.5889  141.0594  155.0167 N   0  0  0  0  0  0  0  0  0  0  0  0
  148.5565  140.9989  153.9921 C   0  0  0  0  0  0  0  0  0  0  0  0
  147.1273  140.8822  154.5631 C   0  0  2  0  0  0  0  0  0  0  0  0
  147.1475  140.3241  155.9945 C   0  0  0  0  0  0  0  0  0  0  0  0
  146.2953  140.0313  153.6829 N   0  3  0  0  0  0  0  0  0  0  0  0
  146.9534  139.5937  152.4341 C   0  0  0  0  0  0  0  0  0  0  0  0
  146.1735  138.4467  151.7655 C   0  0  1  0  0  0  0  0  0  0  0  0
  147.0525  137.7769  150.8846 O   0  0  0  0  0  0  0  0  0  0  0  0
  145.6437  137.4100  152.7796 C   0  0  0  0  0  0  0  0  0  0  0  0
  146.1133  136.0267  152.5044 N   0  3  0  0  0  0  0  0  0  0  0  0
  146.1588  135.1601  153.7089 C   0  0  0  0  0  0  0  0  0  0  0  0
  146.6797  133.7588  153.3462 C   0  0  0  0  0  0  0  0  0  0  0  0
  145.8605  133.1917  152.3321 O   0  0  0  0  0  0  0  0  0  0  0  0
  145.8810  133.9642  151.1388 C   0  0  0  0  0  0  0  0  0  0  0  0
  145.3324  135.3721  151.4272 C   0  0  0  0  0  0  0  0  0  0  0  0
  149.6882  141.9413  156.0723 C   0  0  0  0  0  0  0  0  0  0  0  0
  152.4531  142.5627  157.8449 H   0  0  0  0  0  0  0  0  0  0  0  0
  151.3368  141.6551  158.8489 H   0  0  0  0  0  0  0  0  0  0  0  0
  150.8753  143.2278  158.2223 H   0  0  0  0  0  0  0  0  0  0  0  0
  152.3053  140.0213  156.1984 H   0  0  0  0  0  0  0  0  0  0  0  0
  148.6394  141.8895  153.3670 H   0  0  0  0  0  0  0  0  0  0  0  0
  148.7752  140.1454  153.3490 H   0  0  0  0  0  0  0  0  0  0  0  0
  146.6935  141.8829  154.5981 H   0  0  0  0  0  0  0  0  0  0  0  0
  147.7571  140.9491  156.6478 H   0  0  0  0  0  0  0  0  0  0  0  0
  147.5613  139.3156  156.0223 H   0  0  0  0  0  0  0  0  0  0  0  0
  146.1469  140.2852  156.4254 H   0  0  0  0  0  0  0  0  0  0  0  0
  146.0602  139.1983  154.2036 H   0  0  0  0  0  0  0  0  0  0  0  0
  147.0634  140.4347  151.7484 H   0  0  0  0  0  0  0  0  0  0  0  0
  147.9590  139.2550  152.6862 H   0  0  0  0  0  0  0  0  0  0  0  0
  145.3549  138.8473  151.1680 H   0  0  0  0  0  0  0  0  0  0  0  0
  147.6222  137.2149  151.3889 H   0  0  0  0  0  0  0  0  0  0  0  0
  145.9329  137.6844  153.7956 H   0  0  0  0  0  0  0  0  0  0  0  0
  144.5527  137.4329  152.7582 H   0  0  0  0  0  0  0  0  0  0  0  0
  146.8055  135.5934  154.4709 H   0  0  0  0  0  0  0  0  0  0  0  0
  145.1606  135.0831  154.1426 H   0  0  0  0  0  0  0  0  0  0  0  0
  147.7174  133.8031  153.0114 H   0  0  0  0  0  0  0  0  0  0  0  0
  146.6556  133.1107  154.2225 H   0  0  0  0  0  0  0  0  0  0  0  0
  146.8952  134.0144  150.7395 H   0  0  0  0  0  0  0  0  0  0  0  0
  145.2668  133.4681  150.3869 H   0  0  0  0  0  0  0  0  0  0  0  0
  144.2831  135.3104  151.7204 H   0  0  0  0  0  0  0  0  0  0  0  0
  145.3767  135.9735  150.5183 H   0  0  0  0  0  0  0  0  0  0  0  0
  148.9408  142.7005  156.2523 H   0  0  0  0  0  0  0  0  0  0  0  0
  145.4401  140.5210  153.4605 H   0  0  0  0  0  0  0  0  0  0  0  0
  147.0588  136.1011  152.1572 H   0  0  0  0  0  0  0  0  0  0  0  0
  1  2  1  0  0  0  0
  1 21  1  0  0  0  0
  1 22  1  0  0  0  0
  1 23  1  0  0  0  0
  2 20  2  0  0  0  0
  2  3  1  0  0  0  0
  3  4  2  0  0  0  0
  3 24  1  0  0  0  0
  4  5  1  0  0  0  0
  5  6  1  0  0  0  0
  5 20  1  0  0  0  0
  6  7  1  0  0  0  0
  6 25  1  0  0  0  0
  6 26  1  0  0  0  0
  7  8  1  0  0  0  0
  7  9  1  0  0  0  0
  7 27  1  0  0  0  0
  8 28  1  0  0  0  0
  8 29  1  0  0  0  0
  8 30  1  0  0  0  0
  9 10  1  0  0  0  0
  9 31  1  0  0  0  0
  9 47  1  0  0  0  0
 10 11  1  0  0  0  0
 10 32  1  0  0  0  0
 10 33  1  0  0  0  0
 11 12  1  0  0  0  0
 11 13  1  0  0  0  0
 11 34  1  0  0  0  0
 12 35  1  0  0  0  0
 13 14  1  0  0  0  0
 13 36  1  0  0  0  0
 13 37  1  0  0  0  0
 14 19  1  0  0  0  0
 14 15  1  0  0  0  0
 14 48  1  0  0  0  0
 15 16  1  0  0  0  0
 15 38  1  0  0  0  0
 15 39  1  0  0  0  0
 16 17  1  0  0  0  0
 16 40  1  0  0  0  0
 16 41  1  0  0  0  0
 17 18  1  0  0  0  0
 18 19  1  0  0  0  0
 18 42  1  0  0  0  0
 18 43  1  0  0  0  0
 19 44  1  0  0  0  0
 19 45  1  0  0  0  0
 20 46  1  0  0  0  0
M  CHG  1   9   1
M  CHG  1  14   1
M  END
> <s_m_source_file>
AV-unprocessed.smi

> <i_m_source_file_index>
3031

> <i_lp_mmshare_version>
43012

> <i_f3d_flags>
0

> <s_epik_input>
W0NIM11jMVtjSF1ubihbY0hdMSlbQ0gyXVtDQEhdKFtDSDNdKVtOSF1bQ0gyXVtDQEhdKFtPSF0pW0NIMl1OMltDSDJdW0NIMl1PW0NIMl1bQ0gyXTI=

> <s_epik_cmdline>
J2VwaWtfcHl0aG9uJywgJy1waCcsICc3LjAnLCAnLXRuJywgJzgnLCAnLW1hJywgJzIwMCcsICctbWV0YWxfYmluZGluZycsICctaW1hZScsICc8aW5maWxlLm1hZT4nLCAnLW9tYWUnLCAnPG91dGZpbGUubWFlPic=

> <r_lp_tautomer_probability>
1

> <r_epik_Ionization_Penalty>
1.76542

> <r_epik_Ionization_Penalty_Charging>
1.76348

> <r_epik_Ionization_Penalty_Neutral>
0.00194017

> <r_epik_State_Penalty>
1.49348

> <r_epik_Charging_Adjusted_Penalty>
3.25696

> <i_epik_Tot_Q>
2

> <i_epik_Tot_abs_Q>
2

> <r_epik_Metal_State_Penalty>
1.49349

> <b_epik_Metal_Only>
0

> <s_lp_Force_Field>
OPLS_2005

> <r_lp_Energy>
28.4562

> <b_lp_Chiralities_Consistent>
1

> <s_lp_Variant>
AV-unprocessed.smi:3031-11

> <Gold.Version>
5.8.1

> <Gold.Id.Protein>
6NUR|6NUR_protein|mol2

> <Gold.PLP.Fitness>
47.1075

> <Gold.PLP.PLP>
-34.1931

> <Gold.PLP.part.hbond>
-4.5767

> <Gold.PLP.part.metal>
0.0000

> <Gold.PLP.part.buried>
1.1397

> <Gold.PLP.part.nonpolar>
-31.3211

> <Gold.PLP.part.repulsive>
0.1849

> <Gold.PLP.ligand.clash>
3.9060

> <Gold.PLP.ligand.torsion>
2.4911

> <Gold.PLP.Chemscore.Hbond>
6.1226

> <Gold.PLP.Chemscore.CHOScore>
0.9972

> <Gold.PLP.Chemscore.Metal>
0.0000

> <Gold.Chemscore.Hbonds>
donor molecule, donor type, donor heavy atom, donor atom, acceptor molecule, acceptor atom, score
      L1  H     9    47       P1 10175  1.89
      L1  H    12    35       P1  7948  1.00
      L1  H    14    48       P1  7948  2.00
      P1  H  7954  7966       L1    12  0.31
      P1  H  7989  7998       L1     4  1.00
      L1  C    20    46       P1  8028  1.00

> <Gold.PLP.Chemscore.Internal.Correction>
0.4433

> <Gold.Rescore>
     Score         DG    S(hbond)    S(metal)    S(lipo)     H(rot)  DE(clash)    DE(int)     intcor
     15.26     -19.84       3.49        0.00      83.18       2.74       2.05       2.53       ----

> <Gold.Chemscore.Fitness>
15.2582

> <Gold.Chemscore.DG>
-19.8389

> <Gold.Chemscore.ZeroCoef>
-5.4800

> <Gold.Chemscore.Hbond>
3.4880

> <Gold.Chemscore.Metal>
0.0000

> <Gold.Chemscore.Lipo>
83.1797

> <Gold.Chemscore.Internal_Hbond>
0.0000

> <Gold.Chemscore.DEClash>
2.0475

> <Gold.Chemscore.DEInternal>
2.5332

> <Gold.Chemscore.Rot>
2.7434

> <Gold.Chemscore.Internal.Correction>
   9.000000E+99

> <Gold.Chemscore.Hbonds>
donor molecule, donor type, donor heavy atom, donor atom, acceptor molecule, acceptor atom, score
      L1  H     9    47       P1 10175  0.84
      L1  H    12    35       P1  7948  0.99
      L1  H    14    48       P1  7948  1.00
      P1  H  7954  7966       L1    12  0.01
      P1  H  7989  7998       L1     4  0.14

> <Gold.Chemscore.Hbond.Weighted>
-11.6499

> <Gold.Chemscore.Metal.Weighted>
-0.0000

> <Gold.Chemscore.Lipo.Weighted>
-9.7320

> <Gold.Chemscore.Internal_Hbond.Weighted>
0.0000

> <Gold.Chemscore.DEClash.Weighted>
2.0475

> <Gold.Chemscore.DEInternal.Weighted>
2.5332

> <Gold.Chemscore.Rot.Weighted>
7.0231

> <Gold.Chemscore.Internal.Correction.Weighted>
   9.000000E+99

> <Gold.Protein.RotatedTorsions>
[ 6907 6896 6895 6894 ] final  137.59 input  -60.11 | X-H torsion
[ 7974 7965 7964 7962 ] final  -68.49 input  175.53 | X-H torsion
[ 8008 7997 7996 7995 ] final   96.18 input   59.86 | X-H torsion
[ 10167 10162 10161 10158 ] final  -90.15 input  -65.29 | X-H torsion
[ 10718 10713 10712 10709 ] final  122.97 input   66.30 | X-H torsion
[ 10763 10752 10751 10750 ] final -151.89 input  -60.55 | X-H torsion
[ 11005 11000 10999 10996 ] final   19.54 input  -57.11 | X-H torsion

> <Gold.Protein.ActiveResidues>
 VAL166  LYS551  ARG553  GLY616  TRP617  ASP618  TYR619  PRO620  LYS621  CYS622 
 ASP623  PHE694  ASN695  SER759  ASP760  ASP761  ALA762  ILE779  LEU786  VAL792 
 PHE793  MET794  SER795  GLU796  ALA797  LYS798  CYS799  TRP800  GLU811  SER814 

> <Gold.Protein.RotatedAtoms>
  152.2763  133.5429  159.5469 H   0  0  0  0  0  0  0  0  0  0  0  0  # atno 6907 bound_to 6896
  150.7178  134.0627  159.3846 H   0  0  0  0  0  0  0  0  0  0  0  0  # atno 6908 bound_to 6896
  151.8539  135.0548  160.0513 H   0  0  0  0  0  0  0  0  0  0  0  0  # atno 6909 bound_to 6896
  145.7158  140.9059  143.0656 H   0  0  0  0  0  0  0  0  0  0  0  0  # atno 7974 bound_to 7965
  156.0769  140.3276  155.7645 H   0  0  0  0  0  0  0  0  0  0  0  0  # atno 8008 bound_to 7997
  155.5216  140.0585  157.2923 H   0  0  0  0  0  0  0  0  0  0  0  0  # atno 8009 bound_to 7997
  154.4560  140.1943  156.0395 H   0  0  0  0  0  0  0  0  0  0  0  0  # atno 8010 bound_to 7997
  140.3577  143.2858  151.9651 H   0  0  0  0  0  0  0  0  0  0  0  0  # atno 10167 bound_to 10162
  157.5701  131.1084  150.8382 H   0  0  0  0  0  0  0  0  0  0  0  0  # atno 10718 bound_to 10713
  154.8029  135.3249  154.7505 H   0  0  0  0  0  0  0  0  0  0  0  0  # atno 10763 bound_to 10752
  153.8169  135.6891  153.4837 H   0  0  0  0  0  0  0  0  0  0  0  0  # atno 10764 bound_to 10752
  153.1756  135.4606  154.9905 H   0  0  0  0  0  0  0  0  0  0  0  0  # atno 10765 bound_to 10752
  140.4126  134.1603  155.7668 H   0  0  0  0  0  0  0  0  0  0  0  0  # atno 11005 bound_to 11000
  144.6929  139.9136  143.7464 LP  0  0  0  0  0  0  0  0  0  0  0  0  # atno 17320 bound_to 7965
  146.0670  139.3661  143.0546 LP  0  0  0  0  0  0  0  0  0  0  0  0  # atno 17321 bound_to 7965
  139.4818  144.6020  151.7588 LP  0  0  0  0  0  0  0  0  0  0  0  0  # atno 17342 bound_to 10162
  140.5157  144.0956  150.6008 LP  0  0  0  0  0  0  0  0  0  0  0  0  # atno 17343 bound_to 10162
  156.8856  130.5194  149.5288 LP  0  0  0  0  0  0  0  0  0  0  0  0  # atno 17370 bound_to 10713
  156.0747  130.5772  150.9451 LP  0  0  0  0  0  0  0  0  0  0  0  0  # atno 17371 bound_to 10713
  141.1815  133.8403  157.1240 LP  0  0  0  0  0  0  0  0  0  0  0  0  # atno 17394 bound_to 11000
  140.0257  134.9925  157.0681 LP  0  0  0  0  0  0  0  0  0  0  0  0  # atno 17395 bound_to 11000

$$$$
