AV-unprocessed.smi:1177|AV-procd|sdf|4955|dock5
  -GOLD-   22720 3543D 1   1.00000     0.00000
 Structure written by MMmdl.
 31 32  0  0  0  0  0  0  0  0  2 V2000
  147.0537  142.3005  159.7008 O   0  0  0  0  0  0  0  0  0  0  0  0
  147.2771  143.1269  158.8153 C   0  0  0  0  0  0  0  0  0  0  0  0
  148.0077  142.8699  157.7212 N   0  0  0  0  0  0  0  0  0  0  0  0
  148.6376  141.5887  157.4246 C   0  0  0  0  0  0  0  0  0  0  0  0
  149.9885  141.7735  156.7126 C   0  0  0  0  0  0  0  0  0  0  0  0
  151.0188  142.4408  157.6020 C   0  0  0  0  0  0  0  0  0  0  0  0
  151.7040  141.7393  158.6177 C   0  0  0  0  0  0  0  0  0  0  0  0
  152.6481  142.4246  159.4109 C   0  0  0  0  0  0  0  0  0  0  0  0
  152.8845  143.7946  159.1738 C   0  0  0  0  0  0  0  0  0  0  0  0
  152.1704  144.4461  158.1475 C   0  0  0  0  0  0  0  0  0  0  0  0
  151.2752  143.7549  157.4083 N   0  3  0  0  0  0  0  0  0  0  0  0
  146.8275  144.3886  158.8284 N   0  0  0  0  0  0  0  0  0  0  0  0
  146.0285  144.9704  159.8580 C   0  0  0  0  0  0  0  0  0  0  0  0
  146.6699  146.0254  160.7332 C   0  0  0  0  0  0  0  0  0  0  0  0
  146.3937  144.6573  161.2930 C   0  0  0  0  0  0  0  0  0  0  0  0
  148.1359  143.6106  157.0469 H   0  0  0  0  0  0  0  0  0  0  0  0
  148.7622  141.0163  158.3455 H   0  0  0  0  0  0  0  0  0  0  0  0
  147.9596  141.0153  156.7920 H   0  0  0  0  0  0  0  0  0  0  0  0
  150.3715  140.8066  156.3834 H   0  0  0  0  0  0  0  0  0  0  0  0
  149.8651  142.3767  155.8119 H   0  0  0  0  0  0  0  0  0  0  0  0
  151.5102  140.6904  158.7894 H   0  0  0  0  0  0  0  0  0  0  0  0
  153.1832  141.9057  160.1927 H   0  0  0  0  0  0  0  0  0  0  0  0
  153.6030  144.3375  159.7706 H   0  0  0  0  0  0  0  0  0  0  0  0
  152.2868  145.4906  157.8977 H   0  0  0  0  0  0  0  0  0  0  0  0
  147.0675  144.9860  158.0508 H   0  0  0  0  0  0  0  0  0  0  0  0
  144.9669  145.1025  159.6529 H   0  0  0  0  0  0  0  0  0  0  0  0
  147.7083  146.2875  160.5386 H   0  0  0  0  0  0  0  0  0  0  0  0
  146.0398  146.8442  161.0744 H   0  0  0  0  0  0  0  0  0  0  0  0
  145.5788  144.5621  162.0079 H   0  0  0  0  0  0  0  0  0  0  0  0
  147.2479  144.0071  161.4721 H   0  0  0  0  0  0  0  0  0  0  0  0
  150.7691  144.2463  156.6706 H   0  0  0  0  0  0  0  0  0  0  0  0
  1  2  2  0  0  0  0
  2  3  1  0  0  0  0
  2 12  1  0  0  0  0
  3  4  1  0  0  0  0
  3 16  1  0  0  0  0
  4  5  1  0  0  0  0
  4 17  1  0  0  0  0
  4 18  1  0  0  0  0
  5  6  1  0  0  0  0
  5 19  1  0  0  0  0
  5 20  1  0  0  0  0
  6 11  1  0  0  0  0
  6  7  2  0  0  0  0
  7  8  1  0  0  0  0
  7 21  1  0  0  0  0
  8  9  2  0  0  0  0
  8 22  1  0  0  0  0
  9 10  1  0  0  0  0
  9 23  1  0  0  0  0
 10 11  2  0  0  0  0
 10 24  1  0  0  0  0
 11 31  1  0  0  0  0
 12 13  1  0  0  0  0
 12 25  1  0  0  0  0
 13 15  1  0  0  0  0
 13 14  1  0  0  0  0
 13 26  1  0  0  0  0
 14 15  1  0  0  0  0
 14 27  1  0  0  0  0
 14 28  1  0  0  0  0
 15 29  1  0  0  0  0
 15 30  1  0  0  0  0
M  CHG  1  11   1
M  END
> <s_m_source_file>
AV-unprocessed.smi

> <i_m_source_file_index>
1177

> <i_lp_mmshare_version>
43012

> <i_f3d_flags>
0

> <s_epik_input>
W0NIMl0xW0NIMl1bQ0hdMVtOSF1DKD1PKVtOSF1bQ0gyXVtDSDJdYzJbY0hdW2NIXVtjSF1bY0hdbjI=

> <s_epik_cmdline>
J2VwaWtfcHl0aG9uJywgJy1waCcsICc3LjAnLCAnLXRuJywgJzgnLCAnLW1hJywgJzIwMCcsICctbWV0YWxfYmluZGluZycsICctaW1hZScsICc8aW5maWxlLm1hZT4nLCAnLW9tYWUnLCAnPG91dGZpbGUubWFlPic=

> <r_epik_Ionization_Penalty>
1.56288

> <r_epik_Ionization_Penalty_Charging>
1.56282

> <r_epik_Ionization_Penalty_Neutral>
5.89877e-05

> <r_epik_State_Penalty>
1.65797

> <r_epik_Charging_Adjusted_Penalty>
3.22079

> <i_epik_Tot_Q>
1

> <i_epik_Tot_abs_Q>
1

> <r_epik_Metal_State_Penalty>
1.69932

> <b_epik_Metal_Only>
0

> <s_lp_Force_Field>
OPLS_2005

> <r_lp_Energy>
17.5296

> <b_lp_Chiralities_Consistent>
1

> <s_lp_Variant>
AV-unprocessed.smi:1177-2

> <Gold.Version>
5.8.1

> <Gold.Id.Protein>
6NUR|6NUR_protein|mol2

> <Gold.PLP.Fitness>
44.9336

> <Gold.PLP.PLP>
-31.8344

> <Gold.PLP.part.hbond>
-5.3472

> <Gold.PLP.part.metal>
0.0000

> <Gold.PLP.part.buried>
-2.6009

> <Gold.PLP.part.nonpolar>
-25.2321

> <Gold.PLP.part.repulsive>
0.1275

> <Gold.PLP.ligand.clash>
0.0000

> <Gold.PLP.ligand.torsion>
0.5890

> <Gold.PLP.Chemscore.Hbond>
4.7461

> <Gold.PLP.Chemscore.CHOScore>
0.0000

> <Gold.PLP.Chemscore.Metal>
0.0000

> <Gold.Chemscore.Hbonds>
donor molecule, donor type, donor heavy atom, donor atom, acceptor molecule, acceptor atom, score
      L1  H     3    16       P1  8028  0.40
      L1  H    11    31       P1  8028  1.33
      L1  H    12    25       P1  8029  0.83
      P1  H  6933  6944       L1     1  0.25
      P1  H  6934  6946       L1     1  0.80

> <Gold.PLP.Chemscore.Internal.Correction>
0.0389

> <Gold.Rescore>
     Score         DG    S(hbond)    S(metal)    S(lipo)     H(rot)  DE(clash)    DE(int)     intcor
     21.26     -21.89       3.40        0.00      80.35       1.70       0.18       0.45       ----

> <Gold.Chemscore.Fitness>
21.2575

> <Gold.Chemscore.DG>
-21.8920

> <Gold.Chemscore.ZeroCoef>
-5.4800

> <Gold.Chemscore.Hbond>
3.4034

> <Gold.Chemscore.Metal>
0.0000

> <Gold.Chemscore.Lipo>
80.3534

> <Gold.Chemscore.Internal_Hbond>
0.0000

> <Gold.Chemscore.DEClash>
0.1831

> <Gold.Chemscore.DEInternal>
0.4515

> <Gold.Chemscore.Rot>
1.7019

> <Gold.Chemscore.Internal.Correction>
   9.000000E+99

> <Gold.Chemscore.Hbonds>
donor molecule, donor type, donor heavy atom, donor atom, acceptor molecule, acceptor atom, score
      L1  H     3    16       P1  8028  0.01
      L1  H    11    31       P1  8028  0.63
      L1  H    12    25       P1  8029  0.72
      P1  H  6933  6944       L1     1  0.24
      P1  H  6934  6946       L1     1  0.80

> <Gold.Chemscore.Hbond.Weighted>
-11.3675

> <Gold.Chemscore.Metal.Weighted>
-0.0000

> <Gold.Chemscore.Lipo.Weighted>
-9.4013

> <Gold.Chemscore.Internal_Hbond.Weighted>
0.0000

> <Gold.Chemscore.DEClash.Weighted>
0.1831

> <Gold.Chemscore.DEInternal.Weighted>
0.4515

> <Gold.Chemscore.Rot.Weighted>
4.3568

> <Gold.Chemscore.Internal.Correction.Weighted>
   9.000000E+99

> <Gold.Protein.RotatedTorsions>
[ 6907 6896 6895 6894 ] final  -84.61 input  -60.11 | X-H torsion
[ 7974 7965 7964 7962 ] final   66.77 input  175.53 | X-H torsion
[ 8008 7997 7996 7995 ] final  176.87 input   59.86 | X-H torsion
[ 10167 10162 10161 10158 ] final -109.34 input  -65.29 | X-H torsion
[ 10718 10713 10712 10709 ] final   18.07 input   66.30 | X-H torsion
[ 10763 10752 10751 10750 ] final  -34.43 input  -60.55 | X-H torsion
[ 11005 11000 10999 10996 ] final   35.39 input  -57.11 | X-H torsion

> <Gold.Protein.ActiveResidues>
 VAL166  LYS551  ARG553  GLY616  TRP617  ASP618  TYR619  PRO620  LYS621  CYS622 
 ASP623  PHE694  ASN695  SER759  ASP760  ASP761  ALA762  ILE779  LEU786  VAL792 
 PHE793  MET794  SER795  GLU796  ALA797  LYS798  CYS799  TRP800  GLU811  SER814 

> <Gold.Protein.RotatedAtoms>
  150.6875  134.3332  159.4835 H   0  0  0  0  0  0  0  0  0  0  0  0  # atno 6907 bound_to 6896
  152.1194  134.9214  160.0573 H   0  0  0  0  0  0  0  0  0  0  0  0  # atno 6908 bound_to 6896
  152.0426  133.3949  159.4380 H   0  0  0  0  0  0  0  0  0  0  0  0  # atno 6909 bound_to 6896
  145.8226  139.3093  143.1034 H   0  0  0  0  0  0  0  0  0  0  0  0  # atno 7974 bound_to 7965
  156.0718  140.1373  156.9819 H   0  0  0  0  0  0  0  0  0  0  0  0  # atno 8008 bound_to 7997
  154.4536  140.0970  156.6742 H   0  0  0  0  0  0  0  0  0  0  0  0  # atno 8009 bound_to 7997
  155.5216  140.3456  155.4410 H   0  0  0  0  0  0  0  0  0  0  0  0  # atno 8010 bound_to 7997
  140.1563  143.4157  152.1458 H   0  0  0  0  0  0  0  0  0  0  0  0  # atno 10167 bound_to 10162
  157.0910  130.6428  149.5849 H   0  0  0  0  0  0  0  0  0  0  0  0  # atno 10718 bound_to 10713
  153.8465  135.6853  153.4797 H   0  0  0  0  0  0  0  0  0  0  0  0  # atno 10763 bound_to 10752
  153.1422  135.4652  154.9511 H   0  0  0  0  0  0  0  0  0  0  0  0  # atno 10764 bound_to 10752
  154.7821  135.3272  154.7914 H   0  0  0  0  0  0  0  0  0  0  0  0  # atno 10765 bound_to 10752
  140.2432  134.3390  155.7918 H   0  0  0  0  0  0  0  0  0  0  0  0  # atno 11005 bound_to 11000
  145.9658  140.8800  143.0187 LP  0  0  0  0  0  0  0  0  0  0  0  0  # atno 17320 bound_to 7965
  144.6746  140.1876  143.7400 LP  0  0  0  0  0  0  0  0  0  0  0  0  # atno 17321 bound_to 7965
  139.5402  144.7249  151.4760 LP  0  0  0  0  0  0  0  0  0  0  0  0  # atno 17342 bound_to 10162
  140.6671  143.8375  150.6954 LP  0  0  0  0  0  0  0  0  0  0  0  0  # atno 17343 bound_to 10162
  155.9898  130.4946  150.7229 LP  0  0  0  0  0  0  0  0  0  0  0  0  # atno 17370 bound_to 10713
  157.4721  131.0894  151.0631 LP  0  0  0  0  0  0  0  0  0  0  0  0  # atno 17371 bound_to 10713
  141.2208  133.7311  156.8918 LP  0  0  0  0  0  0  0  0  0  0  0  0  # atno 17394 bound_to 11000
  140.1632  134.9151  157.2741 LP  0  0  0  0  0  0  0  0  0  0  0  0  # atno 17395 bound_to 11000

$$$$
