AV-unprocessed.smi:1134|AV-procd|sdf|4857|dock3
  -GOLD-   22720 3423D 1   1.00000     0.00000
 Structure written by MMmdl.
 35 36  0  0  0  0  0  0  0  0  3 V2000
  148.8145  141.6971  158.6850 O   0  0  0  0  0  0  0  0  0  0  0  0
  148.8274  142.9039  158.4460 C   0  0  0  0  0  0  0  0  0  0  0  0
  150.1687  143.6569  158.4908 C   0  0  0  0  0  0  0  0  0  0  0  0
  151.2936  142.8950  159.0634 N   0  0  0  0  0  0  0  0  0  0  0  0
  151.6104  141.6687  158.4464 C   0  0  0  0  0  0  0  0  0  0  0  0
  152.6199  140.8888  158.8798 C   0  0  0  0  0  0  0  0  0  0  0  0
  152.9354  139.6364  158.2287 N   0  3  0  0  0  0  0  0  0  0  0  0
  154.0589  139.1654  158.3727 O   0  0  0  0  0  0  0  0  0  0  0  0
  152.0731  139.0832  157.5526 O   0  5  0  0  0  0  0  0  0  0  0  0
  153.3860  141.3503  160.0212 C   0  0  0  0  0  0  0  0  0  0  0  0
  153.0908  142.5242  160.6133 C   0  0  0  0  0  0  0  0  0  0  0  0
  151.9958  143.3747  160.1354 C   0  0  0  0  0  0  0  0  0  0  0  0
  151.7307  144.4549  160.6623 O   0  0  0  0  0  0  0  0  0  0  0  0
  147.7158  143.5944  158.1396 N   0  0  0  0  0  0  0  0  0  0  0  0
  146.3759  143.0309  158.0446 C   0  0  0  0  0  0  0  0  0  0  0  0
  145.3053  144.0614  158.4465 C   0  0  0  0  0  0  0  0  0  0  0  0
  144.7815  143.7887  159.7904 N   0  0  0  0  0  0  0  0  0  0  0  0
  145.5730  143.4236  160.8249 C   0  0  0  0  0  0  0  0  0  0  0  0
  146.7946  143.2864  160.7608 O   0  0  0  0  0  0  0  0  0  0  0  0
  144.8233  143.1714  162.1388 C   0  0  0  0  0  0  0  0  0  0  0  0
  143.0956  143.4584  161.7465 S   0  0  0  0  0  0  0  0  0  0  0  0
  143.4728  143.8466  160.0897 C   0  0  0  0  0  0  0  0  0  0  0  0
  142.5840  144.1384  159.2900 O   0  0  0  0  0  0  0  0  0  0  0  0
  150.4088  143.9908  157.4798 H   0  0  0  0  0  0  0  0  0  0  0  0
  150.0181  144.5770  159.0574 H   0  0  0  0  0  0  0  0  0  0  0  0
  150.9845  141.4186  157.6017 H   0  0  0  0  0  0  0  0  0  0  0  0
  154.2024  140.7588  160.4090 H   0  0  0  0  0  0  0  0  0  0  0  0
  153.6749  142.8489  161.4619 H   0  0  0  0  0  0  0  0  0  0  0  0
  147.8066  144.5832  157.9566 H   0  0  0  0  0  0  0  0  0  0  0  0
  146.1944  142.6575  157.0353 H   0  0  0  0  0  0  0  0  0  0  0  0
  146.3307  142.1666  158.7078 H   0  0  0  0  0  0  0  0  0  0  0  0
  145.7254  145.0680  158.4044 H   0  0  0  0  0  0  0  0  0  0  0  0
  144.4919  144.0613  157.7186 H   0  0  0  0  0  0  0  0  0  0  0  0
  144.9744  142.1472  162.4799 H   0  0  0  0  0  0  0  0  0  0  0  0
  145.1603  143.8598  162.9140 H   0  0  0  0  0  0  0  0  0  0  0  0
  1  2  2  0  0  0  0
  2  3  1  0  0  0  0
  2 14  1  0  0  0  0
  3  4  1  0  0  0  0
  3 24  1  0  0  0  0
  3 25  1  0  0  0  0
  4 12  1  0  0  0  0
  4  5  1  0  0  0  0
  5  6  2  0  0  0  0
  5 26  1  0  0  0  0
  6  7  1  0  0  0  0
  6 10  1  0  0  0  0
  7  8  2  0  0  0  0
  7  9  1  0  0  0  0
 10 11  2  0  0  0  0
 10 27  1  0  0  0  0
 11 12  1  0  0  0  0
 11 28  1  0  0  0  0
 12 13  2  0  0  0  0
 14 15  1  0  0  0  0
 14 29  1  0  0  0  0
 15 16  1  0  0  0  0
 15 30  1  0  0  0  0
 15 31  1  0  0  0  0
 16 17  1  0  0  0  0
 16 32  1  0  0  0  0
 16 33  1  0  0  0  0
 17 22  1  0  0  0  0
 17 18  1  0  0  0  0
 18 19  2  0  0  0  0
 18 20  1  0  0  0  0
 20 21  1  0  0  0  0
 20 34  1  0  0  0  0
 20 35  1  0  0  0  0
 21 22  1  0  0  0  0
 22 23  2  0  0  0  0
M  CHG  1   7   1
M  CHG  1   9  -1
M  END
> <s_m_source_file>
AV-unprocessed.smi

> <i_m_source_file_index>
1134

> <i_lp_mmshare_version>
43012

> <i_f3d_flags>
0

> <s_epik_input>
Tz1jMVtjSF1bY0hdYyhbTitdKD1PKVtPLV0pW2NIXW4xW0NIMl1DKD1PKVtOSF1bQ0gyXVtDSDJdTjJDKD1PKVtDSDJdU0MyPU8=

> <s_epik_cmdline>
J2VwaWtfcHl0aG9uJywgJy1waCcsICc3LjAnLCAnLXRuJywgJzgnLCAnLW1hJywgJzIwMCcsICctbWV0YWxfYmluZGluZycsICctaW1hZScsICc8aW5maWxlLm1hZT4nLCAnLW9tYWUnLCAnPG91dGZpbGUubWFlPic=

> <r_lp_tautomer_probability>
1

> <r_epik_Ionization_Penalty>
5.49556e-08

> <r_epik_Ionization_Penalty_Charging>
6.94392e-11

> <r_epik_Ionization_Penalty_Neutral>
5.48861e-08

> <r_epik_State_Penalty>
-0

> <r_epik_Charging_Adjusted_Penalty>
6.94392e-11

> <i_epik_Tot_Q>
0

> <i_epik_Tot_abs_Q>
2

> <r_epik_Metal_State_Penalty>
-0

> <b_epik_Metal_Only>
0

> <s_lp_Force_Field>
OPLS_2005

> <r_lp_Energy>
19.8089

> <b_lp_Chiralities_Consistent>
1

> <s_lp_Variant>
AV-unprocessed.smi:1134-1

> <Gold.Version>
5.8.1

> <Gold.Id.Protein>
6NUR|6NUR_protein|mol2

> <Gold.PLP.Fitness>
42.4777

> <Gold.PLP.PLP>
-35.5037

> <Gold.PLP.part.hbond>
-5.9102

> <Gold.PLP.part.metal>
0.0000

> <Gold.PLP.part.buried>
-2.8710

> <Gold.PLP.part.nonpolar>
-28.6026

> <Gold.PLP.part.repulsive>
0.3029

> <Gold.PLP.ligand.clash>
0.0000

> <Gold.PLP.ligand.torsion>
1.0468

> <Gold.PLP.Chemscore.Hbond>
3.0000

> <Gold.PLP.Chemscore.CHOScore>
0.0000

> <Gold.PLP.Chemscore.Metal>
0.0000

> <Gold.Chemscore.Hbonds>
donor molecule, donor type, donor heavy atom, donor atom, acceptor molecule, acceptor atom, score
      L1  H    14    29       P1  8029  0.96
      P1  H  6933  6944       L1    19  0.94
      P1  H  6934  6946       L1    19  0.03
      P1  H  7997  8009       L1     8  0.90

> <Gold.PLP.Chemscore.Internal.Correction>
0.0675

> <Gold.Rescore>
     Score         DG    S(hbond)    S(metal)    S(lipo)     H(rot)  DE(clash)    DE(int)     intcor
      8.57     -14.52       2.61        0.00      62.55       2.74       0.80       5.15       ----

> <Gold.Chemscore.Fitness>
8.5731

> <Gold.Chemscore.DG>
-14.5234

> <Gold.Chemscore.ZeroCoef>
-5.4800

> <Gold.Chemscore.Hbond>
2.6149

> <Gold.Chemscore.Metal>
0.0000

> <Gold.Chemscore.Lipo>
62.5487

> <Gold.Chemscore.Internal_Hbond>
0.0000

> <Gold.Chemscore.DEClash>
0.7970

> <Gold.Chemscore.DEInternal>
5.1533

> <Gold.Chemscore.Rot>
2.7377

> <Gold.Chemscore.Internal.Correction>
   9.000000E+99

> <Gold.Chemscore.Hbonds>
donor molecule, donor type, donor heavy atom, donor atom, acceptor molecule, acceptor atom, score
      L1  H    14    29       P1  8029  0.36
      P1  H  6933  6944       L1    19  0.89
      P1  H  6934  6946       L1    19  0.02
      P1  H  7997  8009       L1     8  0.18

> <Gold.Chemscore.Hbond.Weighted>
-8.7337

> <Gold.Chemscore.Metal.Weighted>
-0.0000

> <Gold.Chemscore.Lipo.Weighted>
-7.3182

> <Gold.Chemscore.Internal_Hbond.Weighted>
0.0000

> <Gold.Chemscore.DEClash.Weighted>
0.7970

> <Gold.Chemscore.DEInternal.Weighted>
5.1533

> <Gold.Chemscore.Rot.Weighted>
7.0085

> <Gold.Chemscore.Internal.Correction.Weighted>
   9.000000E+99

> <Gold.Protein.RotatedTorsions>
[ 6907 6896 6895 6894 ] final  106.59 input  -60.11 | X-H torsion
[ 7974 7965 7964 7962 ] final  122.11 input  175.53 | X-H torsion
[ 8008 7997 7996 7995 ] final  138.45 input   59.86 | X-H torsion
[ 10167 10162 10161 10158 ] final   -9.57 input  -65.29 | X-H torsion
[ 10718 10713 10712 10709 ] final -164.89 input   66.30 | X-H torsion
[ 10763 10752 10751 10750 ] final  122.34 input  -60.55 | X-H torsion
[ 11005 11000 10999 10996 ] final   -0.13 input  -57.11 | X-H torsion

> <Gold.Protein.ActiveResidues>
 VAL166  LYS551  ARG553  GLY616  TRP617  ASP618  TYR619  PRO620  LYS621  CYS622 
 ASP623  PHE694  ASN695  SER759  ASP760  ASP761  ALA762  ILE779  LEU786  VAL792 
 PHE793  MET794  SER795  GLU796  ALA797  LYS798  CYS799  TRP800  GLU811  SER814 

> <Gold.Protein.RotatedAtoms>
  152.5188  133.9359  159.7602 H   0  0  0  0  0  0  0  0  0  0  0  0  # atno 6907 bound_to 6896
  150.9699  133.6347  159.2746 H   0  0  0  0  0  0  0  0  0  0  0  0  # atno 6908 bound_to 6896
  151.3562  135.0900  159.9472 H   0  0  0  0  0  0  0  0  0  0  0  0  # atno 6909 bound_to 6896
  145.1114  139.3450  143.4761 H   0  0  0  0  0  0  0  0  0  0  0  0  # atno 7974 bound_to 7965
  156.2997  140.2393  156.4076 H   0  0  0  0  0  0  0  0  0  0  0  0  # atno 8008 bound_to 7997
  154.8470  140.0426  157.1599 H   0  0  0  0  0  0  0  0  0  0  0  0  # atno 8009 bound_to 7997
  154.9040  140.2981  155.5306 H   0  0  0  0  0  0  0  0  0  0  0  0  # atno 8010 bound_to 7997
  140.7091  143.5843  150.8959 H   0  0  0  0  0  0  0  0  0  0  0  0  # atno 10167 bound_to 10162
  156.6455  130.8986  151.3004 H   0  0  0  0  0  0  0  0  0  0  0  0  # atno 10718 bound_to 10713
  153.6283  135.3401  155.3033 H   0  0  0  0  0  0  0  0  0  0  0  0  # atno 10763 bound_to 10752
  154.8586  135.4289  154.2133 H   0  0  0  0  0  0  0  0  0  0  0  0  # atno 10764 bound_to 10752
  153.3023  135.7025  153.7265 H   0  0  0  0  0  0  0  0  0  0  0  0  # atno 10765 bound_to 10752
  140.6328  133.9559  155.8284 H   0  0  0  0  0  0  0  0  0  0  0  0  # atno 11005 bound_to 11000
  146.3526  140.1035  142.8607 LP  0  0  0  0  0  0  0  0  0  0  0  0  # atno 17320 bound_to 7965
  145.0842  140.9241  143.4807 LP  0  0  0  0  0  0  0  0  0  0  0  0  # atno 17321 bound_to 7965
  139.9569  143.6208  152.3013 LP  0  0  0  0  0  0  0  0  0  0  0  0  # atno 17342 bound_to 10162
  139.6747  144.7659  151.1718 LP  0  0  0  0  0  0  0  0  0  0  0  0  # atno 17343 bound_to 10162
  157.7158  130.9495  150.1249 LP  0  0  0  0  0  0  0  0  0  0  0  0  # atno 17370 bound_to 10713
  156.2125  130.3668  149.8652 LP  0  0  0  0  0  0  0  0  0  0  0  0  # atno 17371 bound_to 10713
  141.0663  134.0272  157.3590 LP  0  0  0  0  0  0  0  0  0  0  0  0  # atno 17394 bound_to 11000
  139.9109  135.0190  156.7688 LP  0  0  0  0  0  0  0  0  0  0  0  0  # atno 17395 bound_to 11000

$$$$
