AV-unprocessed.smi:2439|AV-procd|sdf|9609|dock2
  -GOLD-   2272013243D 1   1.00000     0.00000
 Structure written by MMmdl.
 41 43  0  0  0  0  0  0  0  0  2 V2000
  152.0336  137.0165  154.3061 N   0  0  0  0  0  0  0  0  0  0  0  0
  151.6586  138.0270  154.7267 C   0  0  0  0  0  0  0  0  0  0  0  0
  151.1843  139.2994  155.2571 C   0  0  0  0  0  0  0  0  0  0  0  0
  151.8855  139.8996  156.3240 C   0  0  0  0  0  0  0  0  0  0  0  0
  151.4288  141.1258  156.8408 C   0  0  0  0  0  0  0  0  0  0  0  0
  150.2837  141.7062  156.2661 C   0  0  0  0  0  0  0  0  0  0  0  0
  149.6035  141.1433  155.2454 N   0  0  0  0  0  0  0  0  0  0  0  0
  150.0369  139.9611  154.7429 C   0  0  0  0  0  0  0  0  0  0  0  0
  149.3055  139.3996  153.6812 N   0  0  0  0  0  0  0  0  0  0  0  0
  148.7949  138.0382  153.7565 C   0  0  0  0  0  0  0  0  0  0  0  0
  147.3225  138.0098  154.2112 C   0  0  2  0  0  0  0  0  0  0  0  0
  146.7777  136.5811  154.3969 C   0  0  0  0  0  0  0  0  0  0  0  0
  146.5898  135.9017  153.0933 N   0  3  1  0  0  0  0  0  0  0  0  0
  146.1042  134.5073  153.2534 C   0  0  0  0  0  0  0  0  0  0  0  0
  146.0004  133.7952  151.8957 C   0  0  0  0  0  0  0  0  0  0  0  0
  145.0996  134.5824  150.9360 C   0  0  0  0  0  0  0  0  0  0  0  0
  145.6078  136.0240  150.8053 C   0  0  0  0  0  0  0  0  0  0  0  0
  145.7295  136.7058  152.1834 C   0  0  2  0  0  0  0  0  0  0  0  0
  146.2948  138.1324  152.0455 C   0  0  0  0  0  0  0  0  0  0  0  0
  146.4620  138.7292  153.3273 O   0  0  0  0  0  0  0  0  0  0  0  0
  152.7625  139.4300  156.7462 H   0  0  0  0  0  0  0  0  0  0  0  0
  151.9439  141.6090  157.6579 H   0  0  0  0  0  0  0  0  0  0  0  0
  149.9025  142.6467  156.6357 H   0  0  0  0  0  0  0  0  0  0  0  0
  149.2351  139.8982  152.8052 H   0  0  0  0  0  0  0  0  0  0  0  0
  148.9175  137.5398  152.7951 H   0  0  0  0  0  0  0  0  0  0  0  0
  149.4047  137.4853  154.4721 H   0  0  0  0  0  0  0  0  0  0  0  0
  147.2679  138.5114  155.1782 H   0  0  0  0  0  0  0  0  0  0  0  0
  147.4544  136.0005  155.0252 H   0  0  0  0  0  0  0  0  0  0  0  0
  145.8200  136.6215  154.9187 H   0  0  0  0  0  0  0  0  0  0  0  0
  146.7856  133.9559  153.9026 H   0  0  0  0  0  0  0  0  0  0  0  0
  145.1311  134.5133  153.7472 H   0  0  0  0  0  0  0  0  0  0  0  0
  146.9946  133.6848  151.4608 H   0  0  0  0  0  0  0  0  0  0  0  0
  145.6079  132.7870  152.0323 H   0  0  0  0  0  0  0  0  0  0  0  0
  145.0777  134.1000  149.9584 H   0  0  0  0  0  0  0  0  0  0  0  0
  144.0743  134.5838  151.3083 H   0  0  0  0  0  0  0  0  0  0  0  0
  146.5786  136.0205  150.3070 H   0  0  0  0  0  0  0  0  0  0  0  0
  144.9345  136.5937  150.1638 H   0  0  0  0  0  0  0  0  0  0  0  0
  144.7356  136.7715  152.6300 H   0  0  0  0  0  0  0  0  0  0  0  0
  147.2368  138.1337  151.4966 H   0  0  0  0  0  0  0  0  0  0  0  0
  145.6061  138.7506  151.4693 H   0  0  0  0  0  0  0  0  0  0  0  0
  147.5002  135.8451  152.6592 H   0  0  0  0  0  0  0  0  0  0  0  0
  1  2  3  0  0  0  0
  2  3  1  0  0  0  0
  3  8  1  0  0  0  0
  3  4  2  0  0  0  0
  4  5  1  0  0  0  0
  4 21  1  0  0  0  0
  5  6  2  0  0  0  0
  5 22  1  0  0  0  0
  6  7  1  0  0  0  0
  6 23  1  0  0  0  0
  7  8  2  0  0  0  0
  8  9  1  0  0  0  0
  9 10  1  0  0  0  0
  9 24  1  0  0  0  0
 10 11  1  0  0  0  0
 10 25  1  0  0  0  0
 10 26  1  0  0  0  0
 11 20  1  0  0  0  0
 11 12  1  0  0  0  0
 11 27  1  0  0  0  0
 12 13  1  0  0  0  0
 12 28  1  0  0  0  0
 12 29  1  0  0  0  0
 13 18  1  0  0  0  0
 13 14  1  0  0  0  0
 13 41  1  0  0  0  0
 14 15  1  0  0  0  0
 14 30  1  0  0  0  0
 14 31  1  0  0  0  0
 15 16  1  0  0  0  0
 15 32  1  0  0  0  0
 15 33  1  0  0  0  0
 16 17  1  0  0  0  0
 16 34  1  0  0  0  0
 16 35  1  0  0  0  0
 17 18  1  0  0  0  0
 17 36  1  0  0  0  0
 17 37  1  0  0  0  0
 18 19  1  0  0  0  0
 18 38  1  0  0  0  0
 19 20  1  0  0  0  0
 19 39  1  0  0  0  0
 19 40  1  0  0  0  0
M  CHG  1  13   1
M  END
> <s_m_source_file>
AV-unprocessed.smi

> <i_m_source_file_index>
2439

> <i_lp_mmshare_version>
43012

> <i_f3d_flags>
0

> <s_epik_input>
TiNDYzFbY0hdW2NIXVtjSF1uYzFbTkhdW0NIMl1bQ0BIXShbQ0gyXTIpT1tDSDJdW0NAQEhdKE4yMylbQ0gyXVtDSDJdW0NIMl1bQ0gyXTM=

> <s_epik_cmdline>
J2VwaWtfcHl0aG9uJywgJy1waCcsICc3LjAnLCAnLXRuJywgJzgnLCAnLW1hJywgJzIwMCcsICctbWV0YWxfYmluZGluZycsICctaW1hZScsICc8aW5maWxlLm1hZT4nLCAnLW9tYWUnLCAnPG91dGZpbGUubWFlPic=

> <r_epik_Ionization_Penalty>
0.0803594

> <r_epik_Ionization_Penalty_Charging>
0.0803403

> <r_epik_Ionization_Penalty_Neutral>
1.90988e-05

> <r_epik_State_Penalty>
0.0711481

> <r_epik_Charging_Adjusted_Penalty>
0.151488

> <i_epik_Tot_Q>
1

> <i_epik_Tot_abs_Q>
1

> <r_epik_Metal_State_Penalty>
0.0711482

> <b_epik_Metal_Only>
0

> <s_lp_Force_Field>
OPLS_2005

> <r_lp_Energy>
31.556

> <b_lp_Chiralities_Consistent>
1

> <s_lp_Variant>
AV-unprocessed.smi:2439-7

> <Gold.Version>
5.8.1

> <Gold.Id.Protein>
6NUR|6NUR_protein|mol2

> <Gold.PLP.Fitness>
44.9985

> <Gold.PLP.PLP>
-31.3384

> <Gold.PLP.part.hbond>
-3.0000

> <Gold.PLP.part.metal>
0.0000

> <Gold.PLP.part.buried>
-0.2934

> <Gold.PLP.part.nonpolar>
-30.3344

> <Gold.PLP.part.repulsive>
0.6298

> <Gold.PLP.ligand.clash>
0.0000

> <Gold.PLP.ligand.torsion>
0.6624

> <Gold.PLP.Chemscore.Hbond>
3.9920

> <Gold.PLP.Chemscore.CHOScore>
1.0000

> <Gold.PLP.Chemscore.Metal>
0.0000

> <Gold.Chemscore.Hbonds>
donor molecule, donor type, donor heavy atom, donor atom, acceptor molecule, acceptor atom, score
      L1  H     9    24       P1  7957  1.00
      L1  H    13    41       P1  7948  2.00
      P1  H 10752 10765       L1     1  1.00
      L1  C     6    23       P1  8028  1.00

> <Gold.PLP.Chemscore.Internal.Correction>
0.0090

> <Gold.Rescore>
     Score         DG    S(hbond)    S(metal)    S(lipo)     H(rot)  DE(clash)    DE(int)     intcor
     16.71     -20.00       2.91        0.00      68.62       1.27       1.58       1.71       ----

> <Gold.Chemscore.Fitness>
16.7147

> <Gold.Chemscore.DG>
-20.0005

> <Gold.Chemscore.ZeroCoef>
-5.4800

> <Gold.Chemscore.Hbond>
2.9139

> <Gold.Chemscore.Metal>
0.0000

> <Gold.Chemscore.Lipo>
68.6238

> <Gold.Chemscore.Internal_Hbond>
0.0000

> <Gold.Chemscore.DEClash>
1.5789

> <Gold.Chemscore.DEInternal>
1.7069

> <Gold.Chemscore.Rot>
1.2659

> <Gold.Chemscore.Internal.Correction>
   9.000000E+99

> <Gold.Chemscore.Hbonds>
donor molecule, donor type, donor heavy atom, donor atom, acceptor molecule, acceptor atom, score
      L1  H     9    24       P1  7957  0.94
      L1  H    13    41       P1  7948  1.00
      P1  H 10752 10765       L1     1  0.95

> <Gold.Chemscore.Hbond.Weighted>
-9.7323

> <Gold.Chemscore.Metal.Weighted>
-0.0000

> <Gold.Chemscore.Lipo.Weighted>
-8.0290

> <Gold.Chemscore.Internal_Hbond.Weighted>
0.0000

> <Gold.Chemscore.DEClash.Weighted>
1.5789

> <Gold.Chemscore.DEInternal.Weighted>
1.7069

> <Gold.Chemscore.Rot.Weighted>
3.2408

> <Gold.Chemscore.Internal.Correction.Weighted>
   9.000000E+99

> <Gold.Protein.RotatedTorsions>
[ 6907 6896 6895 6894 ] final -179.96 input  -60.11 | X-H torsion
[ 7974 7965 7964 7962 ] final    3.39 input  175.53 | X-H torsion
[ 8008 7997 7996 7995 ] final  -97.29 input   59.86 | X-H torsion
[ 10167 10162 10161 10158 ] final  179.96 input  -65.29 | X-H torsion
[ 10718 10713 10712 10709 ] final  -34.86 input   66.30 | X-H torsion
[ 10763 10752 10751 10750 ] final  161.97 input  -60.55 | X-H torsion
[ 11005 11000 10999 10996 ] final -125.28 input  -57.11 | X-H torsion

> <Gold.Protein.ActiveResidues>
 VAL166  LYS551  ARG553  GLY616  TRP617  ASP618  TYR619  PRO620  LYS621  CYS622 
 ASP623  PHE694  ASN695  SER759  ASP760  ASP761  ALA762  ILE779  LEU786  VAL792 
 PHE793  MET794  SER795  GLU796  ALA797  LYS798  CYS799  TRP800  GLU811  SER814 

> <Gold.Protein.RotatedAtoms>
  151.6619  133.3316  159.3175 H   0  0  0  0  0  0  0  0  0  0  0  0  # atno 6907 bound_to 6896
  150.7909  134.6936  159.6520 H   0  0  0  0  0  0  0  0  0  0  0  0  # atno 6908 bound_to 6896
  152.3988  134.6324  160.0130 H   0  0  0  0  0  0  0  0  0  0  0  0  # atno 6909 bound_to 6896
  146.2445  140.0693  142.8363 H   0  0  0  0  0  0  0  0  0  0  0  0  # atno 7974 bound_to 7965
  154.7858  140.0464  157.1163 H   0  0  0  0  0  0  0  0  0  0  0  0  # atno 8008 bound_to 7997
  154.9650  140.3082  155.4994 H   0  0  0  0  0  0  0  0  0  0  0  0  # atno 8009 bound_to 7997
  156.2943  140.2264  156.4738 H   0  0  0  0  0  0  0  0  0  0  0  0  # atno 8010 bound_to 7997
  139.5359  144.2499  152.0793 H   0  0  0  0  0  0  0  0  0  0  0  0  # atno 10167 bound_to 10162
  156.3455  130.4300  149.7750 H   0  0  0  0  0  0  0  0  0  0  0  0  # atno 10718 bound_to 10713
  154.2712  135.2765  155.2737 H   0  0  0  0  0  0  0  0  0  0  0  0  # atno 10763 bound_to 10752
  154.5300  135.5732  153.6754 H   0  0  0  0  0  0  0  0  0  0  0  0  # atno 10764 bound_to 10752
  152.9945  135.6225  154.2867 H   0  0  0  0  0  0  0  0  0  0  0  0  # atno 10765 bound_to 10752
  140.9774  134.0720  157.3803 H   0  0  0  0  0  0  0  0  0  0  0  0  # atno 11005 bound_to 11000
  145.0831  140.9234  143.4814 LP  0  0  0  0  0  0  0  0  0  0  0  0  # atno 17320 bound_to 7965
  145.0850  139.2932  143.5764 LP  0  0  0  0  0  0  0  0  0  0  0  0  # atno 17321 bound_to 7965
  140.1969  144.4696  150.6451 LP  0  0  0  0  0  0  0  0  0  0  0  0  # atno 17342 bound_to 10162
  140.6565  143.2239  151.5956 LP  0  0  0  0  0  0  0  0  0  0  0  0  # atno 17343 bound_to 10162
  156.4970  130.8111  151.3117 LP  0  0  0  0  0  0  0  0  0  0  0  0  # atno 17370 bound_to 10713
  157.7453  130.9957  150.2753 LP  0  0  0  0  0  0  0  0  0  0  0  0  # atno 17371 bound_to 10713
  139.8936  135.0131  156.6908 LP  0  0  0  0  0  0  0  0  0  0  0  0  # atno 17394 bound_to 11000
  140.7237  133.9118  155.8164 LP  0  0  0  0  0  0  0  0  0  0  0  0  # atno 17395 bound_to 11000

$$$$
