AV-unprocessed.smi:1989|AV-procd|sdf|8060|dock3
  -GOLD-   2272010263D 1   1.00000     0.00000
 Structure written by MMmdl.
 30 31  0  0  0  0  0  0  0  0  1 V2000
  152.9943  143.2668  162.7911 C   0  0  0  0  0  0  0  0  0  0  0  0
  152.8748  142.8261  161.3731 C   0  0  0  0  0  0  0  0  0  0  0  0
  151.8518  143.1593  160.5832 N   0  0  0  0  0  0  0  0  0  0  0  0
  151.9531  142.6005  159.3042 C   0  0  0  0  0  0  0  0  0  0  0  0
  150.8621  142.8255  158.2968 C   0  0  0  0  0  0  0  0  0  0  0  0
  150.9448  141.8931  157.0714 C   0  0  0  0  0  0  0  0  0  0  0  0
  149.8065  142.0567  156.1702 N   0  0  0  0  0  0  0  0  0  0  0  0
  149.5414  141.2886  155.1007 C   0  0  0  0  0  0  0  0  0  0  0  0
  150.2955  140.4108  154.6813 O   0  0  0  0  0  0  0  0  0  0  0  0
  148.3930  141.6236  154.4912 N   0  0  0  0  0  0  0  0  0  0  0  0
  147.1763  142.1727  155.0858 C   0  0  0  0  0  0  0  0  0  0  0  0
  146.4679  141.7563  153.8008 C   0  0  0  0  0  0  0  0  0  0  0  0
  147.6574  140.8518  153.4943 C   0  0  0  0  0  0  0  0  0  0  0  0
  153.0873  141.8469  159.1326 C   0  0  0  0  0  0  0  0  0  0  0  0
  154.0610  141.7998  160.5766 S   0  0  0  0  0  0  0  0  0  0  0  0
  152.4586  144.2039  162.9457 H   0  0  0  0  0  0  0  0  0  0  0  0
  154.0422  143.4170  163.0510 H   0  0  0  0  0  0  0  0  0  0  0  0
  152.5728  142.5086  163.4515 H   0  0  0  0  0  0  0  0  0  0  0  0
  149.8898  142.6965  158.7740 H   0  0  0  0  0  0  0  0  0  0  0  0
  150.8834  143.8607  157.9550 H   0  0  0  0  0  0  0  0  0  0  0  0
  151.8557  142.1057  156.5119 H   0  0  0  0  0  0  0  0  0  0  0  0
  151.0290  140.8566  157.4023 H   0  0  0  0  0  0  0  0  0  0  0  0
  149.1385  142.7752  156.4085 H   0  0  0  0  0  0  0  0  0  0  0  0
  146.8343  141.6313  155.9698 H   0  0  0  0  0  0  0  0  0  0  0  0
  147.1920  143.2508  155.2485 H   0  0  0  0  0  0  0  0  0  0  0  0
  145.5257  141.2289  153.9535 H   0  0  0  0  0  0  0  0  0  0  0  0
  146.3637  142.5765  153.0884 H   0  0  0  0  0  0  0  0  0  0  0  0
  148.0327  140.9478  152.4749 H   0  0  0  0  0  0  0  0  0  0  0  0
  147.4965  139.8089  153.7729 H   0  0  0  0  0  0  0  0  0  0  0  0
  153.4003  141.3055  158.2522 H   0  0  0  0  0  0  0  0  0  0  0  0
  1  2  1  0  0  0  0
  1 16  1  0  0  0  0
  1 17  1  0  0  0  0
  1 18  1  0  0  0  0
  2 15  1  0  0  0  0
  2  3  2  0  0  0  0
  3  4  1  0  0  0  0
  4  5  1  0  0  0  0
  4 14  2  0  0  0  0
  5  6  1  0  0  0  0
  5 19  1  0  0  0  0
  5 20  1  0  0  0  0
  6  7  1  0  0  0  0
  6 21  1  0  0  0  0
  6 22  1  0  0  0  0
  7  8  1  0  0  0  0
  7 23  1  0  0  0  0
  8  9  2  0  0  0  0
  8 10  1  0  0  0  0
 10 13  1  0  0  0  0
 10 11  1  0  0  0  0
 11 12  1  0  0  0  0
 11 24  1  0  0  0  0
 11 25  1  0  0  0  0
 12 13  1  0  0  0  0
 12 26  1  0  0  0  0
 12 27  1  0  0  0  0
 13 28  1  0  0  0  0
 13 29  1  0  0  0  0
 14 15  1  0  0  0  0
 14 30  1  0  0  0  0
M  END
> <s_m_source_file>
AV-unprocessed.smi

> <i_m_source_file_index>
1989

> <i_lp_mmshare_version>
43012

> <i_f3d_flags>
0

> <s_epik_input>
W0NIM11jMW5jKFtjSF1zMSlbQ0gyXVtDSDJdW05IXUMoPU8pTjJbQ0gyXVtDSDJdW0NIMl0y

> <s_epik_cmdline>
J2VwaWtfcHl0aG9uJywgJy1waCcsICc3LjAnLCAnLXRuJywgJzgnLCAnLW1hJywgJzIwMCcsICctbWV0YWxfYmluZGluZycsICctaW1hZScsICc8aW5maWxlLm1hZT4nLCAnLW9tYWUnLCAnPG91dGZpbGUubWFlPic=

> <r_epik_Ionization_Penalty>
0.00206279

> <r_epik_Ionization_Penalty_Charging>
0

> <r_epik_Ionization_Penalty_Neutral>
0.00206279

> <r_epik_State_Penalty>
0.00136479

> <r_epik_Charging_Adjusted_Penalty>
0.00136479

> <i_epik_Tot_Q>
0

> <i_epik_Tot_abs_Q>
0

> <r_epik_Metal_State_Penalty>
-0

> <b_epik_Metal_Only>
0

> <s_lp_Force_Field>
OPLS_2005

> <r_lp_Energy>
16.4477

> <b_lp_Chiralities_Consistent>
1

> <s_lp_Variant>
AV-unprocessed.smi:1989-1

> <Gold.Version>
5.8.1

> <Gold.Id.Protein>
6NUR|6NUR_protein|mol2

> <Gold.PLP.Fitness>
43.2711

> <Gold.PLP.PLP>
-38.4433

> <Gold.PLP.part.hbond>
-2.0204

> <Gold.PLP.part.metal>
0.0000

> <Gold.PLP.part.buried>
-2.0505

> <Gold.PLP.part.nonpolar>
-33.8372

> <Gold.PLP.part.repulsive>
0.2491

> <Gold.PLP.ligand.clash>
0.0000

> <Gold.PLP.ligand.torsion>
0.4179

> <Gold.PLP.Chemscore.Hbond>
1.7360

> <Gold.PLP.Chemscore.CHOScore>
0.0000

> <Gold.PLP.Chemscore.Metal>
0.0000

> <Gold.Chemscore.Hbonds>
donor molecule, donor type, donor heavy atom, donor atom, acceptor molecule, acceptor atom, score
      L1  H     7    23       P1  8028  0.52
      P1  H  7989  7998       L1     9  1.00

> <Gold.PLP.Chemscore.Internal.Correction>
0.4557

> <Gold.Rescore>
     Score         DG    S(hbond)    S(metal)    S(lipo)     H(rot)  DE(clash)    DE(int)     intcor
     17.31     -17.85       1.58        0.00      90.87       1.38       0.17       0.37       ----

> <Gold.Chemscore.Fitness>
17.3148

> <Gold.Chemscore.DG>
-17.8501

> <Gold.Chemscore.ZeroCoef>
-5.4800

> <Gold.Chemscore.Hbond>
1.5785

> <Gold.Chemscore.Metal>
0.0000

> <Gold.Chemscore.Lipo>
90.8653

> <Gold.Chemscore.Internal_Hbond>
0.0000

> <Gold.Chemscore.DEClash>
0.1692

> <Gold.Chemscore.DEInternal>
0.3661

> <Gold.Chemscore.Rot>
1.3802

> <Gold.Chemscore.Internal.Correction>
   9.000000E+99

> <Gold.Chemscore.Hbonds>
donor molecule, donor type, donor heavy atom, donor atom, acceptor molecule, acceptor atom, score
      L1  H     7    23       P1  8028  0.51
      P1  H  7989  7998       L1     9  0.91

> <Gold.Chemscore.Hbond.Weighted>
-5.2723

> <Gold.Chemscore.Metal.Weighted>
-0.0000

> <Gold.Chemscore.Lipo.Weighted>
-10.6312

> <Gold.Chemscore.Internal_Hbond.Weighted>
0.0000

> <Gold.Chemscore.DEClash.Weighted>
0.1692

> <Gold.Chemscore.DEInternal.Weighted>
0.3661

> <Gold.Chemscore.Rot.Weighted>
3.5334

> <Gold.Chemscore.Internal.Correction.Weighted>
   9.000000E+99

> <Gold.Protein.RotatedTorsions>
[ 6907 6896 6895 6894 ] final -158.10 input  -60.11 | X-H torsion
[ 7974 7965 7964 7962 ] final  115.85 input  175.53 | X-H torsion
[ 8008 7997 7996 7995 ] final  -51.40 input   59.86 | X-H torsion
[ 10167 10162 10161 10158 ] final   12.78 input  -65.29 | X-H torsion
[ 10718 10713 10712 10709 ] final  -13.08 input   66.30 | X-H torsion
[ 10763 10752 10751 10750 ] final   48.76 input  -60.55 | X-H torsion
[ 11005 11000 10999 10996 ] final    4.26 input  -57.11 | X-H torsion

> <Gold.Protein.ActiveResidues>
 VAL166  LYS551  ARG553  GLY616  TRP617  ASP618  TYR619  PRO620  LYS621  CYS622 
 ASP623  PHE694  ASN695  SER759  ASP760  ASP761  ALA762  ILE779  LEU786  VAL792 
 PHE793  MET794  SER795  GLU796  ALA797  LYS798  CYS799  TRP800  GLU811  SER814 

> <Gold.Protein.RotatedAtoms>
  151.3130  133.4072  159.2648 H   0  0  0  0  0  0  0  0  0  0  0  0  # atno 6907 bound_to 6896
  151.0098  134.9388  159.8011 H   0  0  0  0  0  0  0  0  0  0  0  0  # atno 6908 bound_to 6896
  152.5298  134.3094  159.9160 H   0  0  0  0  0  0  0  0  0  0  0  0  # atno 6909 bound_to 6896
  145.1869  139.3020  143.4388 H   0  0  0  0  0  0  0  0  0  0  0  0  # atno 7974 bound_to 7965
  154.4082  140.1249  156.4823 H   0  0  0  0  0  0  0  0  0  0  0  0  # atno 8008 bound_to 7997
  155.7072  140.3494  155.4939 H   0  0  0  0  0  0  0  0  0  0  0  0  # atno 8009 bound_to 7997
  155.9332  140.1073  157.1105 H   0  0  0  0  0  0  0  0  0  0  0  0  # atno 8010 bound_to 7997
  140.6045  143.8535  150.7000 H   0  0  0  0  0  0  0  0  0  0  0  0  # atno 10167 bound_to 10162
  156.6353  130.4913  149.6114 H   0  0  0  0  0  0  0  0  0  0  0  0  # atno 10718 bound_to 10713
  152.9790  135.5934  154.3978 H   0  0  0  0  0  0  0  0  0  0  0  0  # atno 10763 bound_to 10752
  154.3626  135.2767  155.2313 H   0  0  0  0  0  0  0  0  0  0  0  0  # atno 10764 bound_to 10752
  154.4303  135.6038  153.6119 H   0  0  0  0  0  0  0  0  0  0  0  0  # atno 10765 bound_to 10752
  140.5839  133.9987  155.8059 H   0  0  0  0  0  0  0  0  0  0  0  0  # atno 11005 bound_to 11000
  146.3443  140.2068  142.8589 LP  0  0  0  0  0  0  0  0  0  0  0  0  # atno 17320 bound_to 7965
  145.0080  140.8689  143.5241 LP  0  0  0  0  0  0  0  0  0  0  0  0  # atno 17321 bound_to 7965
  140.2089  143.3899  152.1733 LP  0  0  0  0  0  0  0  0  0  0  0  0  # atno 17342 bound_to 10162
  139.5315  144.7164  151.5039 LP  0  0  0  0  0  0  0  0  0  0  0  0  # atno 17343 bound_to 10162
  156.2202  130.6732  151.1360 LP  0  0  0  0  0  0  0  0  0  0  0  0  # atno 17370 bound_to 10713
  157.7187  131.0694  150.6222 LP  0  0  0  0  0  0  0  0  0  0  0  0  # atno 17371 bound_to 10713
  141.0978  133.9816  157.3130 LP  0  0  0  0  0  0  0  0  0  0  0  0  # atno 17394 bound_to 11000
  139.9304  135.0200  156.8381 LP  0  0  0  0  0  0  0  0  0  0  0  0  # atno 17395 bound_to 11000

$$$$
