AV-unprocessed.smi:1085|AV-procd|sdf|4720|dock6
  -GOLD-   22720 3243D 1   1.00000     0.00000
 Structure written by MMmdl.
 33 34  0  0  0  0  0  0  0  0  1 V2000
  153.1456  139.4847  157.8894 O   0  0  0  0  0  0  0  0  0  0  0  0
  152.6093  139.3248  158.9852 C   0  0  0  0  0  0  0  0  0  0  0  0
  151.6466  138.1580  159.2056 C   0  0  0  0  0  0  0  0  0  0  0  0
  151.7432  137.2005  158.1187 N   0  0  0  0  0  0  0  0  0  0  0  0
  150.8876  136.8944  157.1412 C   0  0  0  0  0  0  0  0  0  0  0  0
  151.3835  135.9740  156.3282 N   0  0  0  0  0  0  0  0  0  0  0  0
  152.6322  135.7157  156.8690 N   0  0  0  0  0  0  0  0  0  0  0  0
  152.8514  136.4403  157.9314 N   0  0  0  0  0  0  0  0  0  0  0  0
  152.8309  140.1192  160.0439 N   0  0  0  0  0  0  0  0  0  0  0  0
  153.7876  141.2214  160.1017 C   0  0  2  0  0  0  0  0  0  0  0  0
  153.9953  141.7040  161.5528 C   0  0  0  0  0  0  0  0  0  0  0  0
  152.7401  142.3927  162.1137 C   0  0  0  0  0  0  0  0  0  0  0  0
  152.2923  143.5524  161.2102 C   0  0  0  0  0  0  0  0  0  0  0  0
  152.0503  143.0873  159.7582 C   0  0  1  0  0  0  0  0  0  0  0  0
  151.5937  144.2466  158.8488 C   0  0  0  0  0  0  0  0  0  0  0  0
  150.4224  144.7368  159.2558 F   0  0  0  0  0  0  0  0  0  0  0  0
  152.4998  145.2242  158.8673 F   0  0  0  0  0  0  0  0  0  0  0  0
  151.4691  143.8198  157.5921 F   0  0  0  0  0  0  0  0  0  0  0  0
  153.3111  142.3817  159.2052 C   0  0  0  0  0  0  0  0  0  0  0  0
  151.8703  137.6620  160.1513 H   0  0  0  0  0  0  0  0  0  0  0  0
  150.6197  138.5215  159.2627 H   0  0  0  0  0  0  0  0  0  0  0  0
  149.9147  137.3482  157.0216 H   0  0  0  0  0  0  0  0  0  0  0  0
  152.3356  139.9080  160.8985 H   0  0  0  0  0  0  0  0  0  0  0  0
  154.7414  140.8626  159.7106 H   0  0  0  0  0  0  0  0  0  0  0  0
  154.2844  140.8732  162.1974 H   0  0  0  0  0  0  0  0  0  0  0  0
  154.8286  142.4075  161.5789 H   0  0  0  0  0  0  0  0  0  0  0  0
  151.9307  141.6675  162.2109 H   0  0  0  0  0  0  0  0  0  0  0  0
  152.9405  142.7634  163.1193 H   0  0  0  0  0  0  0  0  0  0  0  0
  151.3842  143.9968  161.6182 H   0  0  0  0  0  0  0  0  0  0  0  0
  153.0512  144.3358  161.2252 H   0  0  0  0  0  0  0  0  0  0  0  0
  151.2386  142.3582  159.7778 H   0  0  0  0  0  0  0  0  0  0  0  0
  154.1186  143.1092  159.1126 H   0  0  0  0  0  0  0  0  0  0  0  0
  153.1241  142.0119  158.1963 H   0  0  0  0  0  0  0  0  0  0  0  0
  1  2  2  0  0  0  0
  2  3  1  0  0  0  0
  2  9  1  0  0  0  0
  3  4  1  0  0  0  0
  3 20  1  0  0  0  0
  3 21  1  0  0  0  0
  4  8  1  0  0  0  0
  4  5  1  0  0  0  0
  5  6  2  0  0  0  0
  5 22  1  0  0  0  0
  6  7  1  0  0  0  0
  7  8  2  0  0  0  0
  9 10  1  0  0  0  0
  9 23  1  0  0  0  0
 10 19  1  0  0  0  0
 10 11  1  0  0  0  0
 10 24  1  0  0  0  0
 11 12  1  0  0  0  0
 11 25  1  0  0  0  0
 11 26  1  0  0  0  0
 12 13  1  0  0  0  0
 12 27  1  0  0  0  0
 12 28  1  0  0  0  0
 13 14  1  0  0  0  0
 13 29  1  0  0  0  0
 13 30  1  0  0  0  0
 14 15  1  0  0  0  0
 14 19  1  0  0  0  0
 14 31  1  0  0  0  0
 15 16  1  0  0  0  0
 15 17  1  0  0  0  0
 15 18  1  0  0  0  0
 19 32  1  0  0  0  0
 19 33  1  0  0  0  0
M  END
> <s_m_source_file>
AV-unprocessed.smi

> <i_m_source_file_index>
1085

> <i_lp_mmshare_version>
43012

> <i_f3d_flags>
0

> <s_epik_input>
bjFubltjSF1uMVtDSDJdQyg9TylbTkhdW0NAQEhdMltDSDJdW0NIMl1bQ0gyXVtDQEBIXShDKEYpKEYpRilbQ0gyXTI=

> <s_epik_cmdline>
J2VwaWtfcHl0aG9uJywgJy1waCcsICc3LjAnLCAnLXRuJywgJzgnLCAnLW1hJywgJzIwMCcsICctbWV0YWxfYmluZGluZycsICctaW1hZScsICc8aW5maWxlLm1hZT4nLCAnLW9tYWUnLCAnPG91dGZpbGUubWFlPic=

> <r_lp_tautomer_probability>
1

> <r_epik_Ionization_Penalty>
8.41315e-07

> <r_epik_Ionization_Penalty_Charging>
0

> <r_epik_Ionization_Penalty_Neutral>
8.41315e-07

> <r_epik_State_Penalty>
-0

> <r_epik_Charging_Adjusted_Penalty>
0

> <i_epik_Tot_Q>
0

> <i_epik_Tot_abs_Q>
0

> <r_epik_Metal_State_Penalty>
-0

> <b_epik_Metal_Only>
0

> <s_lp_Force_Field>
OPLS_2005

> <r_lp_Energy>
11.1057

> <b_lp_Chiralities_Consistent>
1

> <s_lp_Variant>
AV-unprocessed.smi:1085-1

> <Gold.Version>
5.8.1

> <Gold.Id.Protein>
6NUR|6NUR_protein|mol2

> <Gold.PLP.Fitness>
47.2021

> <Gold.PLP.PLP>
-41.9753

> <Gold.PLP.part.hbond>
-2.4906

> <Gold.PLP.part.metal>
0.0000

> <Gold.PLP.part.buried>
-4.7451

> <Gold.PLP.part.nonpolar>
-34.1730

> <Gold.PLP.part.repulsive>
0.1272

> <Gold.PLP.ligand.clash>
0.0000

> <Gold.PLP.ligand.torsion>
0.4043

> <Gold.PLP.Chemscore.Hbond>
2.0000

> <Gold.PLP.Chemscore.CHOScore>
0.0000

> <Gold.PLP.Chemscore.Metal>
0.0000

> <Gold.Chemscore.Hbonds>
donor molecule, donor type, donor heavy atom, donor atom, acceptor molecule, acceptor atom, score
      P1  H  7997  8010       L1     1  1.00
      P1  H 10752 10763       L1     7  1.00

> <Gold.PLP.Chemscore.Internal.Correction>
0.0354

> <Gold.Rescore>
     Score         DG    S(hbond)    S(metal)    S(lipo)     H(rot)  DE(clash)    DE(int)     intcor
     16.11     -16.50       1.95        0.00      83.41       2.05       0.01       0.38       ----

> <Gold.Chemscore.Fitness>
16.1122

> <Gold.Chemscore.DG>
-16.5032

> <Gold.Chemscore.ZeroCoef>
-5.4800

> <Gold.Chemscore.Hbond>
1.9465

> <Gold.Chemscore.Metal>
0.0000

> <Gold.Chemscore.Lipo>
83.4064

> <Gold.Chemscore.Internal_Hbond>
0.0000

> <Gold.Chemscore.DEClash>
0.0118

> <Gold.Chemscore.DEInternal>
0.3793

> <Gold.Chemscore.Rot>
2.0456

> <Gold.Chemscore.Internal.Correction>
   9.000000E+99

> <Gold.Chemscore.Hbonds>
donor molecule, donor type, donor heavy atom, donor atom, acceptor molecule, acceptor atom, score
      P1  H  7997  8010       L1     1  1.00
      P1  H 10752 10763       L1     7  0.26

> <Gold.Chemscore.Hbond.Weighted>
-6.5014

> <Gold.Chemscore.Metal.Weighted>
-0.0000

> <Gold.Chemscore.Lipo.Weighted>
-9.7586

> <Gold.Chemscore.Internal_Hbond.Weighted>
0.0000

> <Gold.Chemscore.DEClash.Weighted>
0.0118

> <Gold.Chemscore.DEInternal.Weighted>
0.3793

> <Gold.Chemscore.Rot.Weighted>
5.2368

> <Gold.Chemscore.Internal.Correction.Weighted>
   9.000000E+99

> <Gold.Protein.RotatedTorsions>
[ 6907 6896 6895 6894 ] final -120.97 input  -60.11 | X-H torsion
[ 7974 7965 7964 7962 ] final    0.74 input  175.53 | X-H torsion
[ 8008 7997 7996 7995 ] final   32.47 input   59.86 | X-H torsion
[ 10167 10162 10161 10158 ] final  112.02 input  -65.29 | X-H torsion
[ 10718 10713 10712 10709 ] final  -85.56 input   66.30 | X-H torsion
[ 10763 10752 10751 10750 ] final  120.94 input  -60.55 | X-H torsion
[ 11005 11000 10999 10996 ] final   19.25 input  -57.11 | X-H torsion

> <Gold.Protein.ActiveResidues>
 VAL166  LYS551  ARG553  GLY616  TRP617  ASP618  TYR619  PRO620  LYS621  CYS622 
 ASP623  PHE694  ASN695  SER759  ASP760  ASP761  ALA762  ILE779  LEU786  VAL792 
 PHE793  MET794  SER795  GLU796  ALA797  LYS798  CYS799  TRP800  GLU811  SER814 

> <Gold.Protein.RotatedAtoms>
  150.8441  133.7889  159.3049 H   0  0  0  0  0  0  0  0  0  0  0  0  # atno 6907 bound_to 6896
  151.5581  135.1064  159.9975 H   0  0  0  0  0  0  0  0  0  0  0  0  # atno 6908 bound_to 6896
  152.4499  133.7566  159.6779 H   0  0  0  0  0  0  0  0  0  0  0  0  # atno 6909 bound_to 6896
  146.2436  140.1091  142.8344 H   0  0  0  0  0  0  0  0  0  0  0  0  # atno 7974 bound_to 7965
  155.1229  140.3250  155.4493 H   0  0  0  0  0  0  0  0  0  0  0  0  # atno 8008 bound_to 7997
  156.2657  140.2024  156.6299 H   0  0  0  0  0  0  0  0  0  0  0  0  # atno 8009 bound_to 7997
  154.6670  140.0541  157.0111 H   0  0  0  0  0  0  0  0  0  0  0  0  # atno 8010 bound_to 7997
  139.6567  144.7129  151.1943 H   0  0  0  0  0  0  0  0  0  0  0  0  # atno 10167 bound_to 10162
  155.9996  130.4735  150.4581 H   0  0  0  0  0  0  0  0  0  0  0  0  # atno 10718 bound_to 10713
  153.6063  135.3438  155.2963 H   0  0  0  0  0  0  0  0  0  0  0  0  # atno 10763 bound_to 10752
  154.8627  135.4239  154.2358 H   0  0  0  0  0  0  0  0  0  0  0  0  # atno 10764 bound_to 10752
  153.3198  135.7037  153.7112 H   0  0  0  0  0  0  0  0  0  0  0  0  # atno 10765 bound_to 10752
  140.4158  134.1570  155.7670 H   0  0  0  0  0  0  0  0  0  0  0  0  # atno 11005 bound_to 11000
  145.0502  140.9012  143.5000 LP  0  0  0  0  0  0  0  0  0  0  0  0  # atno 17320 bound_to 7965
  145.1188  139.2707  143.5599 LP  0  0  0  0  0  0  0  0  0  0  0  0  # atno 17321 bound_to 7965
  140.7562  143.6061  150.8652 LP  0  0  0  0  0  0  0  0  0  0  0  0  # atno 17342 bound_to 10162
  139.9714  143.6052  152.2972 LP  0  0  0  0  0  0  0  0  0  0  0  0  # atno 17343 bound_to 10162
  157.2608  131.0566  151.2322 LP  0  0  0  0  0  0  0  0  0  0  0  0  # atno 17370 bound_to 10713
  157.3437  130.7046  149.6397 LP  0  0  0  0  0  0  0  0  0  0  0  0  # atno 17371 bound_to 10713
  141.1803  133.8427  157.1280 LP  0  0  0  0  0  0  0  0  0  0  0  0  # atno 17394 bound_to 11000
  140.0235  134.9935  157.0639 LP  0  0  0  0  0  0  0  0  0  0  0  0  # atno 17395 bound_to 11000

$$$$
