AV-unprocessed.smi:610|AV-procd|sdf|3056|dock2
  -GOLD-   2262023583D 1   1.00000     0.00000
 Structure written by MMmdl.
 38 39  0  0  0  0  0  0  0  0  2 V2000
  149.0032  141.8608  157.9288 C   0  0  0  0  0  0  0  0  0  0  0  0
  150.1321  141.6883  156.9038 C   0  0  1  0  0  0  0  0  0  0  0  0
  151.5185  141.7992  157.5721 C   0  0  0  0  0  0  0  0  0  0  0  0
  151.6717  143.0187  158.3437 N   0  0  0  0  0  0  0  0  0  0  0  0
  152.1457  143.1344  159.6438 C   0  0  0  0  0  0  0  0  0  0  0  0
  152.1039  144.4735  159.9596 C   0  0  0  0  0  0  0  0  0  0  0  0
  151.6195  145.1968  158.8721 N   0  0  0  0  0  0  0  0  0  0  0  0
  151.3935  144.2693  157.9512 C   0  0  0  0  0  0  0  0  0  0  0  0
  149.9765  140.3934  156.2417 N   0  0  0  0  0  0  0  0  0  0  0  0
  149.7398  140.1976  154.9325 C   0  0  0  0  0  0  0  0  0  0  0  0
  149.5994  141.1300  154.1406 O   0  0  0  0  0  0  0  0  0  0  0  0
  149.6142  138.7428  154.4211 C   0  0  0  0  0  0  0  0  0  0  0  0
  148.7315  138.7739  153.2410 N   0  3  0  0  0  0  0  0  0  0  0  0
  150.9925  138.1500  154.0710 C   0  0  0  0  0  0  0  0  0  0  0  0
  151.5541  137.6004  155.3906 C   0  0  0  0  0  0  0  0  0  0  0  0
  150.3438  137.3714  156.3096 C   0  0  0  0  0  0  0  0  0  0  0  0
  149.1101  137.7320  155.4724 C   0  0  0  0  0  0  0  0  0  0  0  0
  149.0702  142.8292  158.4256 H   0  0  0  0  0  0  0  0  0  0  0  0
  149.0420  141.0889  158.6984 H   0  0  0  0  0  0  0  0  0  0  0  0
  148.0251  141.8056  157.4494 H   0  0  0  0  0  0  0  0  0  0  0  0
  150.0290  142.4953  156.1762 H   0  0  0  0  0  0  0  0  0  0  0  0
  151.6771  140.9580  158.2480 H   0  0  0  0  0  0  0  0  0  0  0  0
  152.3109  141.7516  156.8236 H   0  0  0  0  0  0  0  0  0  0  0  0
  152.4580  142.2778  160.2230 H   0  0  0  0  0  0  0  0  0  0  0  0
  152.3851  144.9679  160.8777 H   0  0  0  0  0  0  0  0  0  0  0  0
  151.0060  144.5051  156.9709 H   0  0  0  0  0  0  0  0  0  0  0  0
  150.0763  139.5767  156.8275 H   0  0  0  0  0  0  0  0  0  0  0  0
  147.7846  138.9716  153.5306 H   0  0  0  0  0  0  0  0  0  0  0  0
  148.7639  137.8757  152.7799 H   0  0  0  0  0  0  0  0  0  0  0  0
  150.8709  137.3244  153.3676 H   0  0  0  0  0  0  0  0  0  0  0  0
  151.6768  138.8590  153.6027 H   0  0  0  0  0  0  0  0  0  0  0  0
  152.1180  136.6818  155.2255 H   0  0  0  0  0  0  0  0  0  0  0  0
  152.2352  138.3215  155.8432 H   0  0  0  0  0  0  0  0  0  0  0  0
  150.2944  136.3455  156.6763 H   0  0  0  0  0  0  0  0  0  0  0  0
  150.4120  138.0255  157.1797 H   0  0  0  0  0  0  0  0  0  0  0  0
  148.2789  138.0857  156.0835 H   0  0  0  0  0  0  0  0  0  0  0  0
  148.7550  136.8313  154.9685 H   0  0  0  0  0  0  0  0  0  0  0  0
  149.0482  139.4895  152.6027 H   0  0  0  0  0  0  0  0  0  0  0  0
  1  2  1  0  0  0  0
  1 18  1  0  0  0  0
  1 19  1  0  0  0  0
  1 20  1  0  0  0  0
  2  3  1  0  0  0  0
  2  9  1  0  0  0  0
  2 21  1  0  0  0  0
  3  4  1  0  0  0  0
  3 22  1  0  0  0  0
  3 23  1  0  0  0  0
  4  8  1  0  0  0  0
  4  5  1  0  0  0  0
  5  6  2  0  0  0  0
  5 24  1  0  0  0  0
  6  7  1  0  0  0  0
  6 25  1  0  0  0  0
  7  8  2  0  0  0  0
  8 26  1  0  0  0  0
  9 10  1  0  0  0  0
  9 27  1  0  0  0  0
 10 11  2  0  0  0  0
 10 12  1  0  0  0  0
 12 17  1  0  0  0  0
 12 13  1  0  0  0  0
 12 14  1  0  0  0  0
 13 28  1  0  0  0  0
 13 29  1  0  0  0  0
 13 38  1  0  0  0  0
 14 15  1  0  0  0  0
 14 30  1  0  0  0  0
 14 31  1  0  0  0  0
 15 16  1  0  0  0  0
 15 32  1  0  0  0  0
 15 33  1  0  0  0  0
 16 17  1  0  0  0  0
 16 34  1  0  0  0  0
 16 35  1  0  0  0  0
 17 36  1  0  0  0  0
 17 37  1  0  0  0  0
M  CHG  1  13   1
M  END
> <s_m_source_file>
AV-unprocessed.smi

> <i_m_source_file_index>
610

> <i_lp_mmshare_version>
43012

> <i_f3d_flags>
0

> <s_epik_input>
W2NIXTFuW2NIXVtjSF1uMVtDSDJdW0NAQEhdKFtDSDNdKVtOSF1DKD1PKUMyKFtOSDJdKVtDSDJdW0NIMl1bQ0gyXVtDSDJdMg==

> <s_epik_cmdline>
J2VwaWtfcHl0aG9uJywgJy1waCcsICc3LjAnLCAnLXRuJywgJzgnLCAnLW1hJywgJzIwMCcsICctbWV0YWxfYmluZGluZycsICctaW1hZScsICc8aW5maWxlLm1hZT4nLCAnLW9tYWUnLCAnPG91dGZpbGUubWFlPic=

> <r_lp_tautomer_probability>
1

> <r_epik_Ionization_Penalty>
0.661147

> <r_epik_Ionization_Penalty_Charging>
0.661145

> <r_epik_Ionization_Penalty_Neutral>
1.19451e-06

> <r_epik_State_Penalty>
0.679243

> <r_epik_Charging_Adjusted_Penalty>
1.34039

> <i_epik_Tot_Q>
1

> <i_epik_Tot_abs_Q>
1

> <r_epik_Metal_State_Penalty>
0.372892

> <b_epik_Metal_Only>
0

> <s_lp_Force_Field>
OPLS_2005

> <r_lp_Energy>
24.5235

> <b_lp_Chiralities_Consistent>
1

> <s_lp_Variant>
AV-unprocessed.smi:610-4

> <Gold.Version>
5.8.1

> <Gold.Id.Protein>
6NUR|6NUR_protein|mol2

> <Gold.PLP.Fitness>
46.6826

> <Gold.PLP.PLP>
-34.4659

> <Gold.PLP.part.hbond>
-4.0814

> <Gold.PLP.part.metal>
0.0000

> <Gold.PLP.part.buried>
-4.3448

> <Gold.PLP.part.nonpolar>
-26.4529

> <Gold.PLP.part.repulsive>
0.7932

> <Gold.PLP.ligand.clash>
0.0000

> <Gold.PLP.ligand.torsion>
1.2310

> <Gold.PLP.Chemscore.Hbond>
3.8710

> <Gold.PLP.Chemscore.CHOScore>
1.0000

> <Gold.PLP.Chemscore.Metal>
0.0000

> <Gold.Chemscore.Hbonds>
donor molecule, donor type, donor heavy atom, donor atom, acceptor molecule, acceptor atom, score
      L1  H    13    29       P1  7948  2.00
      L1  H    13    38       P1  7957  1.00
      P1  H  7989  7998       L1    11  0.18
      P1  H  8011  8017       L1    11  0.41
      L1  C     8    26       P1  8028  1.00

> <Gold.PLP.Chemscore.Internal.Correction>
0.0657

> <Gold.Rescore>
     Score         DG    S(hbond)    S(metal)    S(lipo)     H(rot)  DE(clash)    DE(int)     intcor
     15.97     -17.77       2.72        0.00      71.12       2.00       0.73       1.08       ----

> <Gold.Chemscore.Fitness>
15.9684

> <Gold.Chemscore.DG>
-17.7721

> <Gold.Chemscore.ZeroCoef>
-5.4800

> <Gold.Chemscore.Hbond>
2.7197

> <Gold.Chemscore.Metal>
0.0000

> <Gold.Chemscore.Lipo>
71.1207

> <Gold.Chemscore.Internal_Hbond>
0.0000

> <Gold.Chemscore.DEClash>
0.7268

> <Gold.Chemscore.DEInternal>
1.0769

> <Gold.Chemscore.Rot>
1.9972

> <Gold.Chemscore.Internal.Correction>
   9.000000E+99

> <Gold.Chemscore.Hbonds>
donor molecule, donor type, donor heavy atom, donor atom, acceptor molecule, acceptor atom, score
      L1  H    13    29       P1  7948  1.00
      L1  H    13    38       P1  7957  0.96
      P1  H  7989  7998       L1    11  0.01
      P1  H  8011  8017       L1    11  0.40

> <Gold.Chemscore.Hbond.Weighted>
-9.0838

> <Gold.Chemscore.Metal.Weighted>
-0.0000

> <Gold.Chemscore.Lipo.Weighted>
-8.3211

> <Gold.Chemscore.Internal_Hbond.Weighted>
0.0000

> <Gold.Chemscore.DEClash.Weighted>
0.7268

> <Gold.Chemscore.DEInternal.Weighted>
1.0769

> <Gold.Chemscore.Rot.Weighted>
5.1127

> <Gold.Chemscore.Internal.Correction.Weighted>
   9.000000E+99

> <Gold.Protein.RotatedTorsions>
[ 6907 6896 6895 6894 ] final  135.23 input  -60.11 | X-H torsion
[ 7974 7965 7964 7962 ] final -164.51 input  175.53 | X-H torsion
[ 8008 7997 7996 7995 ] final   30.09 input   59.86 | X-H torsion
[ 10167 10162 10161 10158 ] final  161.36 input  -65.29 | X-H torsion
[ 10718 10713 10712 10709 ] final -164.78 input   66.30 | X-H torsion
[ 10763 10752 10751 10750 ] final   81.76 input  -60.55 | X-H torsion
[ 11005 11000 10999 10996 ] final  -31.92 input  -57.11 | X-H torsion

> <Gold.Protein.ActiveResidues>
 VAL166  LYS551  ARG553  GLY616  TRP617  ASP618  TYR619  PRO620  LYS621  CYS622 
 ASP623  PHE694  ASN695  SER759  ASP760  ASP761  ALA762  ILE779  LEU786  VAL792 
 PHE793  MET794  SER795  GLU796  ALA797  LYS798  CYS799  TRP800  GLU811  SER814 

> <Gold.Protein.RotatedAtoms>
  152.3026  133.5671  159.5628 H   0  0  0  0  0  0  0  0  0  0  0  0  # atno 6907 bound_to 6896
  150.7285  134.0269  159.3729 H   0  0  0  0  0  0  0  0  0  0  0  0  # atno 6908 bound_to 6896
  151.8167  135.0664  160.0471 H   0  0  0  0  0  0  0  0  0  0  0  0  # atno 6909 bound_to 6896
  144.7295  140.2951  143.6214 H   0  0  0  0  0  0  0  0  0  0  0  0  # atno 7974 bound_to 7965
  155.0849  140.3214  155.4590 H   0  0  0  0  0  0  0  0  0  0  0  0  # atno 8008 bound_to 7997
  156.2758  140.2088  156.5922 H   0  0  0  0  0  0  0  0  0  0  0  0  # atno 8009 bound_to 7997
  154.6949  140.0512  157.0388 H   0  0  0  0  0  0  0  0  0  0  0  0  # atno 8010 bound_to 7997
  139.4848  144.4544  151.8788 H   0  0  0  0  0  0  0  0  0  0  0  0  # atno 10167 bound_to 10162
  156.6440  130.8980  151.3001 H   0  0  0  0  0  0  0  0  0  0  0  0  # atno 10718 bound_to 10713
  153.1145  135.4753  154.9091 H   0  0  0  0  0  0  0  0  0  0  0  0  # atno 10763 bound_to 10752
  154.7514  135.3107  154.8553 H   0  0  0  0  0  0  0  0  0  0  0  0  # atno 10764 bound_to 10752
  153.9133  135.6863  153.4804 H   0  0  0  0  0  0  0  0  0  0  0  0  # atno 10765 bound_to 10752
  140.9509  133.7222  156.1218 H   0  0  0  0  0  0  0  0  0  0  0  0  # atno 11005 bound_to 11000
  145.7817  139.1893  143.2154 LP  0  0  0  0  0  0  0  0  0  0  0  0  # atno 17320 bound_to 7965
  146.0829  140.7744  142.9633 LP  0  0  0  0  0  0  0  0  0  0  0  0  # atno 17321 bound_to 7965
  140.4002  144.2503  150.5893 LP  0  0  0  0  0  0  0  0  0  0  0  0  # atno 17342 bound_to 10162
  140.5064  143.2303  151.8601 LP  0  0  0  0  0  0  0  0  0  0  0  0  # atno 17343 bound_to 10162
  157.7162  130.9500  150.1265 LP  0  0  0  0  0  0  0  0  0  0  0  0  # atno 17370 bound_to 10713
  156.2137  130.3668  149.8639 LP  0  0  0  0  0  0  0  0  0  0  0  0  # atno 17371 bound_to 10713
  140.7604  134.3945  157.5526 LP  0  0  0  0  0  0  0  0  0  0  0  0  # atno 17394 bound_to 11000
  139.8847  134.8958  156.2687 LP  0  0  0  0  0  0  0  0  0  0  0  0  # atno 17395 bound_to 11000

$$$$
