AV-unprocessed.smi:2472|AV-procd|sdf|9742|dock2
  -GOLD-   2272013383D 1   1.00000     0.00000
 Structure written by MMmdl.
 48 50  0  0  0  0  0  0  0  0  2 V2000
  145.0767  135.4783  150.9194 C   0  0  0  0  0  0  0  0  0  0  0  0
  145.1632  133.9628  150.9661 C   0  0  0  0  0  0  0  0  0  0  0  0
  144.2215  133.1892  150.2528 C   0  0  0  0  0  0  0  0  0  0  0  0
  144.2858  131.8414  150.2869 N   0  3  0  0  0  0  0  0  0  0  0  0
  145.2238  131.1728  150.9895 C   0  0  0  0  0  0  0  0  0  0  0  0
  146.1930  131.8858  151.7227 C   0  0  0  0  0  0  0  0  0  0  0  0
  146.1788  133.3036  151.7051 C   0  0  0  0  0  0  0  0  0  0  0  0
  147.1144  134.0873  152.4364 N   0  0  0  0  0  0  0  0  0  0  0  0
  147.6629  133.8141  153.6321 C   0  0  0  0  0  0  0  0  0  0  0  0
  147.4215  132.8141  154.3078 O   0  0  0  0  0  0  0  0  0  0  0  0
  148.5484  134.7614  153.9895 N   0  0  0  0  0  0  0  0  0  0  0  0
  149.3837  134.8063  155.2046 C   0  0  0  0  0  0  0  0  0  0  0  0
  150.4406  135.9481  155.1743 C   0  0  0  0  0  0  0  0  0  0  0  0
  151.6143  135.7083  155.4608 O   0  0  0  0  0  0  0  0  0  0  0  0
  150.0282  137.1841  154.8479 N   0  0  0  0  0  0  0  0  0  0  0  0
  150.8839  138.3570  154.7598 C   0  0  0  0  0  0  0  0  0  0  0  0
  150.1305  139.6670  154.8547 C   0  0  0  0  0  0  0  0  0  0  0  0
  150.6031  140.7602  155.7840 C   0  0  0  0  0  0  0  0  0  0  0  0
  149.3247  140.0146  156.0843 C   0  0  0  0  0  0  0  0  0  0  0  0
  148.4538  135.0256  156.4223 C   0  0  0  0  0  0  0  0  0  0  0  0
  149.0462  134.2096  157.5693 C   0  0  0  0  0  0  0  0  0  0  0  0
  149.5930  132.9633  156.8864 C   0  0  0  0  0  0  0  0  0  0  0  0
  150.0394  133.4183  155.4908 C   0  0  0  0  0  0  0  0  0  0  0  0
  144.2644  135.8089  150.2715 H   0  0  0  0  0  0  0  0  0  0  0  0
  146.0055  135.9021  150.5362 H   0  0  0  0  0  0  0  0  0  0  0  0
  144.8976  135.8802  151.9171 H   0  0  0  0  0  0  0  0  0  0  0  0
  143.4201  133.6046  149.6591 H   0  0  0  0  0  0  0  0  0  0  0  0
  145.1683  130.0949  150.9497 H   0  0  0  0  0  0  0  0  0  0  0  0
  146.9233  131.3342  152.2953 H   0  0  0  0  0  0  0  0  0  0  0  0
  147.4811  134.8933  151.9516 H   0  0  0  0  0  0  0  0  0  0  0  0
  148.6713  135.5359  153.3540 H   0  0  0  0  0  0  0  0  0  0  0  0
  149.0515  137.3140  154.6299 H   0  0  0  0  0  0  0  0  0  0  0  0
  151.6372  138.3119  155.5479 H   0  0  0  0  0  0  0  0  0  0  0  0
  151.4184  138.3410  153.8085 H   0  0  0  0  0  0  0  0  0  0  0  0
  149.7256  140.0072  153.9030 H   0  0  0  0  0  0  0  0  0  0  0  0
  151.4649  140.5532  156.4156 H   0  0  0  0  0  0  0  0  0  0  0  0
  150.5157  141.7876  155.4366 H   0  0  0  0  0  0  0  0  0  0  0  0
  148.3855  140.5437  155.9354 H   0  0  0  0  0  0  0  0  0  0  0  0
  149.3371  139.3120  156.9153 H   0  0  0  0  0  0  0  0  0  0  0  0
  148.3368  136.0757  156.6963 H   0  0  0  0  0  0  0  0  0  0  0  0
  147.4522  134.6482  156.2094 H   0  0  0  0  0  0  0  0  0  0  0  0
  149.8596  134.7632  158.0397 H   0  0  0  0  0  0  0  0  0  0  0  0
  148.3129  133.9761  158.3416 H   0  0  0  0  0  0  0  0  0  0  0  0
  150.4019  132.5006  157.4526 H   0  0  0  0  0  0  0  0  0  0  0  0
  148.7959  132.2250  156.7898 H   0  0  0  0  0  0  0  0  0  0  0  0
  149.7539  132.6577  154.7633 H   0  0  0  0  0  0  0  0  0  0  0  0
  151.1285  133.4667  155.4500 H   0  0  0  0  0  0  0  0  0  0  0  0
  143.5929  131.3054  149.7637 H   0  0  0  0  0  0  0  0  0  0  0  0
  1  2  1  0  0  0  0
  1 24  1  0  0  0  0
  1 25  1  0  0  0  0
  1 26  1  0  0  0  0
  2  7  1  0  0  0  0
  2  3  2  0  0  0  0
  3  4  1  0  0  0  0
  3 27  1  0  0  0  0
  4  5  2  0  0  0  0
  4 48  1  0  0  0  0
  5  6  1  0  0  0  0
  5 28  1  0  0  0  0
  6  7  2  0  0  0  0
  6 29  1  0  0  0  0
  7  8  1  0  0  0  0
  8  9  1  0  0  0  0
  8 30  1  0  0  0  0
  9 10  2  0  0  0  0
  9 11  1  0  0  0  0
 11 12  1  0  0  0  0
 11 31  1  0  0  0  0
 12 23  1  0  0  0  0
 12 13  1  0  0  0  0
 12 20  1  0  0  0  0
 13 14  2  0  0  0  0
 13 15  1  0  0  0  0
 15 16  1  0  0  0  0
 15 32  1  0  0  0  0
 16 17  1  0  0  0  0
 16 33  1  0  0  0  0
 16 34  1  0  0  0  0
 17 19  1  0  0  0  0
 17 18  1  0  0  0  0
 17 35  1  0  0  0  0
 18 19  1  0  0  0  0
 18 36  1  0  0  0  0
 18 37  1  0  0  0  0
 19 38  1  0  0  0  0
 19 39  1  0  0  0  0
 20 21  1  0  0  0  0
 20 40  1  0  0  0  0
 20 41  1  0  0  0  0
 21 22  1  0  0  0  0
 21 42  1  0  0  0  0
 21 43  1  0  0  0  0
 22 23  1  0  0  0  0
 22 44  1  0  0  0  0
 22 45  1  0  0  0  0
 23 46  1  0  0  0  0
 23 47  1  0  0  0  0
M  CHG  1   4   1
M  END
> <s_m_source_file>
AV-unprocessed.smi

> <i_m_source_file_index>
2472

> <i_lp_mmshare_version>
43012

> <i_f3d_flags>
0

> <s_epik_input>
W0NIM11jMVtjSF1uW2NIXVtjSF1jMVtOSF1DKD1PKVtOSF1DMihbQ0gyXVtDSDJdW0NIMl1bQ0gyXTIpQyg9TylbTkhdW0NIMl1bQ0hdM1tDSDJdW0NIMl0z

> <s_epik_cmdline>
J2VwaWtfcHl0aG9uJywgJy1waCcsICc3LjAnLCAnLXRuJywgJzgnLCAnLW1hJywgJzIwMCcsICctbWV0YWxfYmluZGluZycsICctaW1hZScsICc8aW5maWxlLm1hZT4nLCAnLW9tYWUnLCAnPG91dGZpbGUubWFlPic=

> <r_epik_Ionization_Penalty>
0.772167

> <r_epik_Ionization_Penalty_Charging>
0.772149

> <r_epik_Ionization_Penalty_Neutral>
1.87678e-05

> <r_epik_State_Penalty>
0.800952

> <r_epik_Charging_Adjusted_Penalty>
1.5731

> <i_epik_Tot_Q>
1

> <i_epik_Tot_abs_Q>
1

> <r_epik_Metal_State_Penalty>
0.9454

> <b_epik_Metal_Only>
0

> <s_lp_Force_Field>
OPLS_2005

> <r_lp_Energy>
39.076

> <b_lp_Chiralities_Consistent>
1

> <s_lp_Variant>
AV-unprocessed.smi:2472-2

> <Gold.Version>
5.8.1

> <Gold.Id.Protein>
6NUR|6NUR_protein|mol2

> <Gold.PLP.Fitness>
43.1335

> <Gold.PLP.PLP>
-35.9620

> <Gold.PLP.part.hbond>
-3.2696

> <Gold.PLP.part.metal>
0.0000

> <Gold.PLP.part.buried>
-4.3002

> <Gold.PLP.part.nonpolar>
-28.1232

> <Gold.PLP.part.repulsive>
0.2564

> <Gold.PLP.ligand.clash>
0.0000

> <Gold.PLP.ligand.torsion>
1.1562

> <Gold.PLP.Chemscore.Hbond>
2.9440

> <Gold.PLP.Chemscore.CHOScore>
0.0000

> <Gold.PLP.Chemscore.Metal>
0.0000

> <Gold.Chemscore.Hbonds>
donor molecule, donor type, donor heavy atom, donor atom, acceptor molecule, acceptor atom, score
      L1  H     8    30       P1  7948  0.93
      L1  H    11    31       P1  7948  1.00
      P1  H 10752 10763       L1    14  1.00

> <Gold.PLP.Chemscore.Internal.Correction>
0.6519

> <Gold.Rescore>
     Score         DG    S(hbond)    S(metal)    S(lipo)     H(rot)  DE(clash)    DE(int)     intcor
     17.14     -20.33       2.78        0.00      83.34       1.63       0.01       3.18       ----

> <Gold.Chemscore.Fitness>
17.1417

> <Gold.Chemscore.DG>
-20.3343

> <Gold.Chemscore.ZeroCoef>
-5.4800

> <Gold.Chemscore.Hbond>
2.7764

> <Gold.Chemscore.Metal>
0.0000

> <Gold.Chemscore.Lipo>
83.3370

> <Gold.Chemscore.Internal_Hbond>
0.0000

> <Gold.Chemscore.DEClash>
0.0103

> <Gold.Chemscore.DEInternal>
3.1822

> <Gold.Chemscore.Rot>
1.6286

> <Gold.Chemscore.Internal.Correction>
   9.000000E+99

> <Gold.Chemscore.Hbonds>
donor molecule, donor type, donor heavy atom, donor atom, acceptor molecule, acceptor atom, score
      L1  H     8    30       P1  7948  0.73
      L1  H    11    31       P1  7948  0.93
      P1  H 10752 10763       L1    14  0.95

> <Gold.Chemscore.Hbond.Weighted>
-9.2731

> <Gold.Chemscore.Metal.Weighted>
-0.0000

> <Gold.Chemscore.Lipo.Weighted>
-9.7504

> <Gold.Chemscore.Internal_Hbond.Weighted>
0.0000

> <Gold.Chemscore.DEClash.Weighted>
0.0103

> <Gold.Chemscore.DEInternal.Weighted>
3.1822

> <Gold.Chemscore.Rot.Weighted>
4.1692

> <Gold.Chemscore.Internal.Correction.Weighted>
   9.000000E+99

> <Gold.Protein.RotatedTorsions>
[ 6907 6896 6895 6894 ] final  -51.81 input  -60.11 | X-H torsion
[ 7974 7965 7964 7962 ] final    5.37 input  175.53 | X-H torsion
[ 8008 7997 7996 7995 ] final  127.00 input   59.86 | X-H torsion
[ 10167 10162 10161 10158 ] final -143.47 input  -65.29 | X-H torsion
[ 10718 10713 10712 10709 ] final  156.43 input   66.30 | X-H torsion
[ 10763 10752 10751 10750 ] final   59.95 input  -60.55 | X-H torsion
[ 11005 11000 10999 10996 ] final -131.12 input  -57.11 | X-H torsion

> <Gold.Protein.ActiveResidues>
 VAL166  LYS551  ARG553  GLY616  TRP617  ASP618  TYR619  PRO620  LYS621  CYS622 
 ASP623  PHE694  ASN695  SER759  ASP760  ASP761  ALA762  ILE779  LEU786  VAL792 
 PHE793  MET794  SER795  GLU796  ALA797  LYS798  CYS799  TRP800  GLU811  SER814 

> <Gold.Protein.RotatedAtoms>
  150.8577  134.7920  159.7057 H   0  0  0  0  0  0  0  0  0  0  0  0  # atno 6907 bound_to 6896
  152.4623  134.5152  159.9775 H   0  0  0  0  0  0  0  0  0  0  0  0  # atno 6908 bound_to 6896
  151.5261  133.3419  159.2945 H   0  0  0  0  0  0  0  0  0  0  0  0  # atno 6909 bound_to 6896
  146.2441  140.0393  142.8383 H   0  0  0  0  0  0  0  0  0  0  0  0  # atno 7974 bound_to 7965
  156.2879  140.2679  156.2202 H   0  0  0  0  0  0  0  0  0  0  0  0  # atno 8008 bound_to 7997
  155.0175  140.0387  157.2442 H   0  0  0  0  0  0  0  0  0  0  0  0  # atno 8009 bound_to 7997
  154.7464  140.2735  155.6334 H   0  0  0  0  0  0  0  0  0  0  0  0  # atno 8010 bound_to 7997
  139.7990  143.7859  152.2656 H   0  0  0  0  0  0  0  0  0  0  0  0  # atno 10167 bound_to 10162
  157.2051  131.0685  151.2002 H   0  0  0  0  0  0  0  0  0  0  0  0  # atno 10718 bound_to 10713
  152.9908  135.5553  154.5795 H   0  0  0  0  0  0  0  0  0  0  0  0  # atno 10763 bound_to 10752
  154.5179  135.2806  155.1289 H   0  0  0  0  0  0  0  0  0  0  0  0  # atno 10764 bound_to 10752
  154.2654  135.6373  153.5343 H   0  0  0  0  0  0  0  0  0  0  0  0  # atno 10765 bound_to 10752
  140.9286  134.1349  157.4254 H   0  0  0  0  0  0  0  0  0  0  0  0  # atno 11005 bound_to 11000
  145.1083  140.9389  143.4671 LP  0  0  0  0  0  0  0  0  0  0  0  0  # atno 17320 bound_to 7965
  145.0602  139.3112  143.5884 LP  0  0  0  0  0  0  0  0  0  0  0  0  # atno 17321 bound_to 7965
  139.7974  144.7387  150.9872 LP  0  0  0  0  0  0  0  0  0  0  0  0  # atno 17342 bound_to 10162
  140.7820  143.4380  151.0594 LP  0  0  0  0  0  0  0  0  0  0  0  0  # atno 17343 bound_to 10162
  157.3728  130.7190  149.6577 LP  0  0  0  0  0  0  0  0  0  0  0  0  # atno 17370 bound_to 10713
  155.9696  130.4194  150.4373 LP  0  0  0  0  0  0  0  0  0  0  0  0  # atno 17371 bound_to 10713
  139.8791  134.9997  156.5969 LP  0  0  0  0  0  0  0  0  0  0  0  0  # atno 17394 bound_to 11000
  140.7892  133.8596  155.8632 LP  0  0  0  0  0  0  0  0  0  0  0  0  # atno 17395 bound_to 11000

$$$$
