AV-unprocessed.smi:574|AV-procd|sdf|2976|dock9
  -GOLD-   2262023483D 1   1.00000     0.00000
 Structure written by MMmdl.
 39 40  0  0  0  0  0  0  0  0  2 V2000
  143.6184  136.7090  152.7842 C   0  0  0  0  0  0  0  0  0  0  0  0
  145.0963  136.9943  153.0286 C   0  0  0  0  0  0  0  0  0  0  0  0
  145.8406  136.1030  153.4365 O   0  0  0  0  0  0  0  0  0  0  0  0
  145.5084  138.2422  152.7671 N   0  0  0  0  0  0  0  0  0  0  0  0
  146.8865  138.7112  152.8754 C   0  0  0  0  0  0  0  0  0  0  0  0
  147.0352  139.7534  153.9993 C   0  0  0  0  0  0  0  0  0  0  0  0
  148.3750  139.6682  154.5759 N   0  5  0  0  0  0  0  0  0  0  0  0
  149.2439  140.7151  154.6730 C   0  0  0  0  0  0  0  0  0  0  0  0
  149.1855  141.8291  154.1413 O   0  0  0  0  0  0  0  0  0  0  0  0
  150.4296  140.3912  155.5532 C   0  0  0  0  0  0  0  0  0  0  0  0
  150.7764  141.3052  156.4947 N   0  0  0  0  0  0  0  0  0  0  0  0
  151.8058  141.0480  157.3062 C   0  0  0  0  0  0  0  0  0  0  0  0
  152.1337  142.0221  158.2583 N   0  0  0  0  0  0  0  0  0  0  0  0
  151.8993  143.4485  158.0247 C   0  0  0  0  0  0  0  0  0  0  0  0
  151.5836  144.1721  159.3445 C   0  0  0  0  0  0  0  0  0  0  0  0
  152.6272  143.9404  160.2829 O   0  0  0  0  0  0  0  0  0  0  0  0
  152.7552  142.5577  160.5914 C   0  0  0  0  0  0  0  0  0  0  0  0
  153.1121  141.7698  159.3201 C   0  0  0  0  0  0  0  0  0  0  0  0
  152.5413  139.9308  157.2740 N   0  0  0  0  0  0  0  0  0  0  0  0
  152.2225  139.0018  156.3488 C   0  0  0  0  0  0  0  0  0  0  0  0
  151.1585  139.1771  155.4426 C   0  0  0  0  0  0  0  0  0  0  0  0
  150.8335  137.9530  154.2628 Cl  0  0  0  0  0  0  0  0  0  0  0  0
  143.4062  136.7053  151.7147 H   0  0  0  0  0  0  0  0  0  0  0  0
  142.9972  137.4701  153.2574 H   0  0  0  0  0  0  0  0  0  0  0  0
  143.3380  135.7374  153.1924 H   0  0  0  0  0  0  0  0  0  0  0  0
  144.8358  138.9110  152.4194 H   0  0  0  0  0  0  0  0  0  0  0  0
  147.5427  137.8626  153.0742 H   0  0  0  0  0  0  0  0  0  0  0  0
  147.1992  139.1384  151.9211 H   0  0  0  0  0  0  0  0  0  0  0  0
  146.8217  140.7415  153.5886 H   0  0  0  0  0  0  0  0  0  0  0  0
  146.2671  139.5738  154.7518 H   0  0  0  0  0  0  0  0  0  0  0  0
  152.7926  143.8763  157.5683 H   0  0  0  0  0  0  0  0  0  0  0  0
  151.0770  143.6235  157.3315 H   0  0  0  0  0  0  0  0  0  0  0  0
  151.4953  145.2447  159.1714 H   0  0  0  0  0  0  0  0  0  0  0  0
  150.6291  143.8364  159.7533 H   0  0  0  0  0  0  0  0  0  0  0  0
  153.5374  142.4320  161.3401 H   0  0  0  0  0  0  0  0  0  0  0  0
  151.8300  142.1837  161.0329 H   0  0  0  0  0  0  0  0  0  0  0  0
  153.1718  140.7137  159.5827 H   0  0  0  0  0  0  0  0  0  0  0  0
  154.0996  142.0623  158.9615 H   0  0  0  0  0  0  0  0  0  0  0  0
  152.8293  138.1087  156.3284 H   0  0  0  0  0  0  0  0  0  0  0  0
  1  2  1  0  0  0  0
  1 23  1  0  0  0  0
  1 24  1  0  0  0  0
  1 25  1  0  0  0  0
  2  3  2  0  0  0  0
  2  4  1  0  0  0  0
  4  5  1  0  0  0  0
  4 26  1  0  0  0  0
  5  6  1  0  0  0  0
  5 27  1  0  0  0  0
  5 28  1  0  0  0  0
  6  7  1  0  0  0  0
  6 29  1  0  0  0  0
  6 30  1  0  0  0  0
  7  8  1  0  0  0  0
  8  9  2  0  0  0  0
  8 10  1  0  0  0  0
 10 21  1  0  0  0  0
 10 11  2  0  0  0  0
 11 12  1  0  0  0  0
 12 13  1  0  0  0  0
 12 19  2  0  0  0  0
 13 18  1  0  0  0  0
 13 14  1  0  0  0  0
 14 15  1  0  0  0  0
 14 31  1  0  0  0  0
 14 32  1  0  0  0  0
 15 16  1  0  0  0  0
 15 33  1  0  0  0  0
 15 34  1  0  0  0  0
 16 17  1  0  0  0  0
 17 18  1  0  0  0  0
 17 35  1  0  0  0  0
 17 36  1  0  0  0  0
 18 37  1  0  0  0  0
 18 38  1  0  0  0  0
 19 20  1  0  0  0  0
 20 21  2  0  0  0  0
 20 39  1  0  0  0  0
 21 22  1  0  0  0  0
M  CHG  1   7  -1
M  END
> <s_m_source_file>
AV-unprocessed.smi

> <i_m_source_file_index>
574

> <i_lp_mmshare_version>
43012

> <i_f3d_flags>
0

> <s_epik_input>
W0NIM11DKD1PKVtOSF1bQ0gyXVtDSDJdW05IXUMoPU8pYzFuYyhuW2NIXWMxQ2wpTjJbQ0gyXVtDSDJdT1tDSDJdW0NIMl0y

> <s_epik_cmdline>
J2VwaWtfcHl0aG9uJywgJy1waCcsICc3LjAnLCAnLXRuJywgJzgnLCAnLW1hJywgJzIwMCcsICctbWV0YWxfYmluZGluZycsICctaW1hZScsICc8aW5maWxlLm1hZT4nLCAnLW9tYWUnLCAnPG91dGZpbGUubWFlPic=

> <r_lp_tautomer_probability>
1

> <r_epik_Ionization_Penalty>
5.61005

> <r_epik_Ionization_Penalty_Charging>
5.61003

> <r_epik_Ionization_Penalty_Neutral>
1.98059e-05

> <r_epik_State_Penalty>
5.60999

> <r_epik_Charging_Adjusted_Penalty>
11.22

> <i_epik_Tot_Q>
-1

> <i_epik_Tot_abs_Q>
1

> <r_epik_Metal_State_Penalty>
1.60231

> <b_epik_Metal_Only>
1

> <s_lp_Force_Field>
OPLS_2005

> <r_lp_Energy>
13.7471

> <b_lp_Chiralities_Consistent>
1

> <s_lp_Variant>
AV-unprocessed.smi:574-2

> <Gold.Version>
5.8.1

> <Gold.Id.Protein>
6NUR|6NUR_protein|mol2

> <Gold.PLP.Fitness>
47.6068

> <Gold.PLP.PLP>
-42.7529

> <Gold.PLP.part.hbond>
-3.9819

> <Gold.PLP.part.metal>
0.0000

> <Gold.PLP.part.buried>
-5.2855

> <Gold.PLP.part.nonpolar>
-33.3886

> <Gold.PLP.part.repulsive>
0.5259

> <Gold.PLP.ligand.clash>
0.0000

> <Gold.PLP.ligand.torsion>
1.2748

> <Gold.PLP.Chemscore.Hbond>
2.4160

> <Gold.PLP.Chemscore.CHOScore>
0.0000

> <Gold.PLP.Chemscore.Metal>
0.0000

> <Gold.Chemscore.Hbonds>
donor molecule, donor type, donor heavy atom, donor atom, acceptor molecule, acceptor atom, score
      L1  H     4    26       P1 10175  1.00
      P1  H  7997  8010       L1    19  0.90
      P1  H  8011  8017       L1     9  0.48

> <Gold.PLP.Chemscore.Internal.Correction>
0.1555

> <Gold.Rescore>
     Score         DG    S(hbond)    S(metal)    S(lipo)     H(rot)  DE(clash)    DE(int)     intcor
     16.90     -18.38       2.07        0.00      87.61       1.67       0.06       1.42       ----

> <Gold.Chemscore.Fitness>
16.8963

> <Gold.Chemscore.DG>
-18.3770

> <Gold.Chemscore.ZeroCoef>
-5.4800

> <Gold.Chemscore.Hbond>
2.0733

> <Gold.Chemscore.Metal>
0.0000

> <Gold.Chemscore.Lipo>
87.6071

> <Gold.Chemscore.Internal_Hbond>
0.0000

> <Gold.Chemscore.DEClash>
0.0619

> <Gold.Chemscore.DEInternal>
1.4188

> <Gold.Chemscore.Rot>
1.6710

> <Gold.Chemscore.Internal.Correction>
   9.000000E+99

> <Gold.Chemscore.Hbonds>
donor molecule, donor type, donor heavy atom, donor atom, acceptor molecule, acceptor atom, score
      L1  H     4    26       P1 10175  0.99
      P1  H  7997  8010       L1    19  0.16
      P1  H  8011  8017       L1     9  0.46

> <Gold.Chemscore.Hbond.Weighted>
-6.9248

> <Gold.Chemscore.Metal.Weighted>
-0.0000

> <Gold.Chemscore.Lipo.Weighted>
-10.2500

> <Gold.Chemscore.Internal_Hbond.Weighted>
0.0000

> <Gold.Chemscore.DEClash.Weighted>
0.0619

> <Gold.Chemscore.DEInternal.Weighted>
1.4188

> <Gold.Chemscore.Rot.Weighted>
4.2779

> <Gold.Chemscore.Internal.Correction.Weighted>
   9.000000E+99

> <Gold.Protein.RotatedTorsions>
[ 6907 6896 6895 6894 ] final  169.44 input  -60.11 | X-H torsion
[ 7974 7965 7964 7962 ] final   84.19 input  175.53 | X-H torsion
[ 8008 7997 7996 7995 ] final   46.04 input   59.86 | X-H torsion
[ 10167 10162 10161 10158 ] final  136.78 input  -65.29 | X-H torsion
[ 10718 10713 10712 10709 ] final  156.51 input   66.30 | X-H torsion
[ 10763 10752 10751 10750 ] final -102.57 input  -60.55 | X-H torsion
[ 11005 11000 10999 10996 ] final    4.81 input  -57.11 | X-H torsion

> <Gold.Protein.ActiveResidues>
 VAL166  LYS551  ARG553  GLY616  TRP617  ASP618  TYR619  PRO620  LYS621  CYS622 
 ASP623  PHE694  ASN695  SER759  ASP760  ASP761  ALA762  ILE779  LEU786  VAL792 
 PHE793  MET794  SER795  GLU796  ALA797  LYS798  CYS799  TRP800  GLU811  SER814 

> <Gold.Protein.RotatedAtoms>
  151.8318  133.3410  159.3615 H   0  0  0  0  0  0  0  0  0  0  0  0  # atno 6907 bound_to 6896
  150.7262  134.5475  159.5787 H   0  0  0  0  0  0  0  0  0  0  0  0  # atno 6908 bound_to 6896
  152.2930  134.7700  160.0425 H   0  0  0  0  0  0  0  0  0  0  0  0  # atno 6909 bound_to 6896
  145.6019  139.2354  143.2241 H   0  0  0  0  0  0  0  0  0  0  0  0  # atno 7974 bound_to 7965
  155.3459  140.3411  155.4239 H   0  0  0  0  0  0  0  0  0  0  0  0  # atno 8008 bound_to 7997
  156.1789  140.1657  156.8347 H   0  0  0  0  0  0  0  0  0  0  0  0  # atno 8009 bound_to 7997
  154.5312  140.0745  156.8330 H   0  0  0  0  0  0  0  0  0  0  0  0  # atno 8010 bound_to 7997
  139.5168  144.6446  151.5475 H   0  0  0  0  0  0  0  0  0  0  0  0  # atno 10167 bound_to 10162
  157.2040  131.0682  151.2009 H   0  0  0  0  0  0  0  0  0  0  0  0  # atno 10718 bound_to 10713
  154.7743  135.4856  153.9713 H   0  0  0  0  0  0  0  0  0  0  0  0  # atno 10763 bound_to 10752
  153.1409  135.6772  153.9037 H   0  0  0  0  0  0  0  0  0  0  0  0  # atno 10764 bound_to 10752
  153.8712  135.3143  155.3420 H   0  0  0  0  0  0  0  0  0  0  0  0  # atno 10765 bound_to 10752
  140.5777  134.0042  155.8035 H   0  0  0  0  0  0  0  0  0  0  0  0  # atno 11005 bound_to 11000
  146.1569  140.6844  142.9295 LP  0  0  0  0  0  0  0  0  0  0  0  0  # atno 17320 bound_to 7965
  144.7306  140.4660  143.6940 LP  0  0  0  0  0  0  0  0  0  0  0  0  # atno 17321 bound_to 7965
  140.6226  143.9229  150.6538 LP  0  0  0  0  0  0  0  0  0  0  0  0  # atno 17342 bound_to 10162
  140.2508  143.3595  152.1407 LP  0  0  0  0  0  0  0  0  0  0  0  0  # atno 17343 bound_to 10162
  157.3739  130.7195  149.6583 LP  0  0  0  0  0  0  0  0  0  0  0  0  # atno 17370 bound_to 10713
  155.9697  130.4191  150.4359 LP  0  0  0  0  0  0  0  0  0  0  0  0  # atno 17371 bound_to 10713
  141.1016  133.9759  157.3069 LP  0  0  0  0  0  0  0  0  0  0  0  0  # atno 17394 bound_to 11000
  139.9331  135.0198  156.8468 LP  0  0  0  0  0  0  0  0  0  0  0  0  # atno 17395 bound_to 11000

$$$$
