AV-unprocessed.smi:934|AV-procd|sdf|4205|dock9
  -GOLD-   22720 2113D 1   1.00000     0.00000
 Structure written by MMmdl.
 43 44  0  0  0  0  0  0  0  0  2 V2000
  145.4556  135.1570  154.7295 C   0  0  0  0  0  0  0  0  0  0  0  0
  144.4771  134.3452  153.9594 N   0  3  0  0  0  0  0  0  0  0  0  0
  143.0979  134.8509  154.1852 C   0  0  0  0  0  0  0  0  0  0  0  0
  144.8683  134.0583  152.5279 C   0  0  0  0  0  0  0  0  0  0  0  0
  144.8888  135.4082  151.7373 C   0  0  0  0  0  0  0  0  0  0  0  0
  146.0757  136.2244  151.9964 N   0  0  0  0  0  0  0  0  0  0  0  0
  146.0881  137.3965  152.6469 C   0  0  0  0  0  0  0  0  0  0  0  0
  145.0758  137.9328  153.0948 O   0  0  0  0  0  0  0  0  0  0  0  0
  147.3373  137.8814  152.7480 N   0  0  0  0  0  0  0  0  0  0  0  0
  147.7723  139.0972  153.3424 C   0  0  0  0  0  0  0  0  0  0  0  0
  149.0297  139.1044  153.9807 C   0  0  0  0  0  0  0  0  0  0  0  0
  149.4972  140.2966  154.5650 C   0  0  0  0  0  0  0  0  0  0  0  0
  148.6877  141.4456  154.4806 C   0  0  0  0  0  0  0  0  0  0  0  0
  147.4886  141.4613  153.8617 N   0  0  0  0  0  0  0  0  0  0  0  0
  147.0450  140.3134  153.3049 C   0  0  0  0  0  0  0  0  0  0  0  0
  146.2695  133.3773  152.4499 C   0  0  0  0  0  0  0  0  0  0  0  0
  146.6345  132.9011  151.0320 C   0  0  0  0  0  0  0  0  0  0  0  0
  145.6378  132.0007  150.5665 O   0  0  0  0  0  0  0  0  0  0  0  0
  144.3509  132.5969  150.4687 C   0  0  0  0  0  0  0  0  0  0  0  0
  143.8732  133.0732  151.8548 C   0  0  0  0  0  0  0  0  0  0  0  0
  145.4754  136.1916  154.3855 H   0  0  0  0  0  0  0  0  0  0  0  0
  146.4662  134.7565  154.6764 H   0  0  0  0  0  0  0  0  0  0  0  0
  145.1852  135.1695  155.7859 H   0  0  0  0  0  0  0  0  0  0  0  0
  142.8982  135.7540  153.6085 H   0  0  0  0  0  0  0  0  0  0  0  0
  142.9423  135.0916  155.2374 H   0  0  0  0  0  0  0  0  0  0  0  0
  142.3487  134.0992  153.9391 H   0  0  0  0  0  0  0  0  0  0  0  0
  144.7704  135.2599  150.6651 H   0  0  0  0  0  0  0  0  0  0  0  0
  144.0262  136.0159  152.0080 H   0  0  0  0  0  0  0  0  0  0  0  0
  146.9601  135.8524  151.6821 H   0  0  0  0  0  0  0  0  0  0  0  0
  148.0749  137.2858  152.4015 H   0  0  0  0  0  0  0  0  0  0  0  0
  149.6303  138.2077  154.0264 H   0  0  0  0  0  0  0  0  0  0  0  0
  150.4540  140.3298  155.0651 H   0  0  0  0  0  0  0  0  0  0  0  0
  149.0144  142.3780  154.9169 H   0  0  0  0  0  0  0  0  0  0  0  0
  146.0933  140.3978  152.8046 H   0  0  0  0  0  0  0  0  0  0  0  0
  147.0481  134.0305  152.8428 H   0  0  0  0  0  0  0  0  0  0  0  0
  146.2966  132.4762  153.0610 H   0  0  0  0  0  0  0  0  0  0  0  0
  146.7625  133.7272  150.3332 H   0  0  0  0  0  0  0  0  0  0  0  0
  147.5880  132.3735  151.0573 H   0  0  0  0  0  0  0  0  0  0  0  0
  144.3691  133.4144  149.7474 H   0  0  0  0  0  0  0  0  0  0  0  0
  143.6567  131.8546  150.0748 H   0  0  0  0  0  0  0  0  0  0  0  0
  143.7343  132.1935  152.4832 H   0  0  0  0  0  0  0  0  0  0  0  0
  142.8878  133.5268  151.7461 H   0  0  0  0  0  0  0  0  0  0  0  0
  144.4836  133.4388  154.4051 H   0  0  0  0  0  0  0  0  0  0  0  0
  1  2  1  0  0  0  0
  1 21  1  0  0  0  0
  1 22  1  0  0  0  0
  1 23  1  0  0  0  0
  2  3  1  0  0  0  0
  2  4  1  0  0  0  0
  2 43  1  0  0  0  0
  3 24  1  0  0  0  0
  3 25  1  0  0  0  0
  3 26  1  0  0  0  0
  4 20  1  0  0  0  0
  4  5  1  0  0  0  0
  4 16  1  0  0  0  0
  5  6  1  0  0  0  0
  5 27  1  0  0  0  0
  5 28  1  0  0  0  0
  6  7  1  0  0  0  0
  6 29  1  0  0  0  0
  7  8  2  0  0  0  0
  7  9  1  0  0  0  0
  9 10  1  0  0  0  0
  9 30  1  0  0  0  0
 10 15  1  0  0  0  0
 10 11  2  0  0  0  0
 11 12  1  0  0  0  0
 11 31  1  0  0  0  0
 12 13  2  0  0  0  0
 12 32  1  0  0  0  0
 13 14  1  0  0  0  0
 13 33  1  0  0  0  0
 14 15  2  0  0  0  0
 15 34  1  0  0  0  0
 16 17  1  0  0  0  0
 16 35  1  0  0  0  0
 16 36  1  0  0  0  0
 17 18  1  0  0  0  0
 17 37  1  0  0  0  0
 17 38  1  0  0  0  0
 18 19  1  0  0  0  0
 19 20  1  0  0  0  0
 19 39  1  0  0  0  0
 19 40  1  0  0  0  0
 20 41  1  0  0  0  0
 20 42  1  0  0  0  0
M  CHG  1   2   1
M  END
> <s_m_source_file>
AV-unprocessed.smi

> <i_m_source_file_index>
934

> <i_lp_mmshare_version>
43012

> <i_f3d_flags>
0

> <s_epik_input>
W0NIMl0xW0NIMl1PW0NIMl1bQ0gyXUMxKE4oW0NIM10pW0NIM10pW0NIMl1bTkhdQyg9TylbTkhdYzJbY0hdW2NIXVtjSF1uW2NIXTI=

> <s_epik_cmdline>
J2VwaWtfcHl0aG9uJywgJy1waCcsICc3LjAnLCAnLXRuJywgJzgnLCAnLW1hJywgJzIwMCcsICctbWV0YWxfYmluZGluZycsICctaW1hZScsICc8aW5maWxlLm1hZT4nLCAnLW9tYWUnLCAnPG91dGZpbGUubWFlPic=

> <r_epik_Ionization_Penalty>
0.0170741

> <r_epik_Ionization_Penalty_Charging>
0.0128317

> <r_epik_Ionization_Penalty_Neutral>
0.00424236

> <r_epik_State_Penalty>
0.00995429

> <r_epik_Charging_Adjusted_Penalty>
0.022786

> <i_epik_Tot_Q>
1

> <i_epik_Tot_abs_Q>
1

> <r_epik_Metal_State_Penalty>
0.00996615

> <b_epik_Metal_Only>
0

> <s_lp_Force_Field>
OPLS_2005

> <r_lp_Energy>
34.8396

> <b_lp_Chiralities_Consistent>
1

> <s_lp_Variant>
AV-unprocessed.smi:934-1

> <Gold.Version>
5.8.1

> <Gold.Id.Protein>
6NUR|6NUR_protein|mol2

> <Gold.PLP.Fitness>
41.7056

> <Gold.PLP.PLP>
-31.1380

> <Gold.PLP.part.hbond>
-1.9680

> <Gold.PLP.part.metal>
0.0000

> <Gold.PLP.part.buried>
-4.5742

> <Gold.PLP.part.nonpolar>
-28.2544

> <Gold.PLP.part.repulsive>
3.5392

> <Gold.PLP.ligand.clash>
0.0324

> <Gold.PLP.ligand.torsion>
0.5449

> <Gold.PLP.Chemscore.Hbond>
1.8553

> <Gold.PLP.Chemscore.CHOScore>
2.0000

> <Gold.PLP.Chemscore.Metal>
0.0000

> <Gold.Chemscore.Hbonds>
donor molecule, donor type, donor heavy atom, donor atom, acceptor molecule, acceptor atom, score
      L1  H     6    29       P1  7948  0.82
      L1  H     9    30       P1  7948  0.83
      L1  C    13    33       P1  8028  1.00
      L1  C    15    34       P1 10175  1.00

> <Gold.PLP.Chemscore.Internal.Correction>
0.1240

> <Gold.Rescore>
     Score         DG    S(hbond)    S(metal)    S(lipo)     H(rot)  DE(clash)    DE(int)     intcor
     14.17     -17.11       1.96        0.00      76.25       1.49       1.53       1.42       ----

> <Gold.Chemscore.Fitness>
14.1709

> <Gold.Chemscore.DG>
-17.1138

> <Gold.Chemscore.ZeroCoef>
-5.4800

> <Gold.Chemscore.Hbond>
1.9578

> <Gold.Chemscore.Metal>
0.0000

> <Gold.Chemscore.Lipo>
76.2533

> <Gold.Chemscore.Internal_Hbond>
0.0000

> <Gold.Chemscore.DEClash>
1.5260

> <Gold.Chemscore.DEInternal>
1.4169

> <Gold.Chemscore.Rot>
1.4948

> <Gold.Chemscore.Internal.Correction>
   9.000000E+99

> <Gold.Chemscore.Hbonds>
donor molecule, donor type, donor heavy atom, donor atom, acceptor molecule, acceptor atom, score
      L1  H     2    43       P1 10957  0.01
      L1  H     6    29       P1  7948  0.78
      L1  H     9    30       P1  7948  0.80

> <Gold.Chemscore.Hbond.Weighted>
-6.5389

> <Gold.Chemscore.Metal.Weighted>
-0.0000

> <Gold.Chemscore.Lipo.Weighted>
-8.9216

> <Gold.Chemscore.Internal_Hbond.Weighted>
0.0000

> <Gold.Chemscore.DEClash.Weighted>
1.5260

> <Gold.Chemscore.DEInternal.Weighted>
1.4169

> <Gold.Chemscore.Rot.Weighted>
3.8267

> <Gold.Chemscore.Internal.Correction.Weighted>
   9.000000E+99

> <Gold.Protein.RotatedTorsions>
[ 6907 6896 6895 6894 ] final   45.09 input  -60.11 | X-H torsion
[ 7974 7965 7964 7962 ] final  122.10 input  175.53 | X-H torsion
[ 8008 7997 7996 7995 ] final   42.47 input   59.86 | X-H torsion
[ 10167 10162 10161 10158 ] final  -39.03 input  -65.29 | X-H torsion
[ 10718 10713 10712 10709 ] final -146.74 input   66.30 | X-H torsion
[ 10763 10752 10751 10750 ] final   65.60 input  -60.55 | X-H torsion
[ 11005 11000 10999 10996 ] final  -39.03 input  -57.11 | X-H torsion

> <Gold.Protein.ActiveResidues>
 VAL166  LYS551  ARG553  GLY616  TRP617  ASP618  TYR619  PRO620  LYS621  CYS622 
 ASP623  PHE694  ASN695  SER759  ASP760  ASP761  ALA762  ILE779  LEU786  VAL792 
 PHE793  MET794  SER795  GLU796  ALA797  LYS798  CYS799  TRP800  GLU811  SER814 

> <Gold.Protein.RotatedAtoms>
  152.2403  134.8235  160.0460 H   0  0  0  0  0  0  0  0  0  0  0  0  # atno 6907 bound_to 6896
  151.8952  133.3520  159.3820 H   0  0  0  0  0  0  0  0  0  0  0  0  # atno 6908 bound_to 6896
  150.7052  134.4810  159.5514 H   0  0  0  0  0  0  0  0  0  0  0  0  # atno 6909 bound_to 6896
  145.1115  139.3449  143.4761 H   0  0  0  0  0  0  0  0  0  0  0  0  # atno 7974 bound_to 7965
  155.2867  140.3376  155.4255 H   0  0  0  0  0  0  0  0  0  0  0  0  # atno 8008 bound_to 7997
  156.2065  140.1753  156.7829 H   0  0  0  0  0  0  0  0  0  0  0  0  # atno 8009 bound_to 7997
  154.5628  140.0684  156.8829 H   0  0  0  0  0  0  0  0  0  0  0  0  # atno 8010 bound_to 7997
  140.7076  143.3240  151.2725 H   0  0  0  0  0  0  0  0  0  0  0  0  # atno 10167 bound_to 10162
  156.3987  130.7922  151.2131 H   0  0  0  0  0  0  0  0  0  0  0  0  # atno 10718 bound_to 10713
  153.0103  135.5351  154.6692 H   0  0  0  0  0  0  0  0  0  0  0  0  # atno 10763 bound_to 10752
  154.5881  135.2856  155.0666 H   0  0  0  0  0  0  0  0  0  0  0  0  # atno 10764 bound_to 10752
  154.1769  135.6522  153.5076 H   0  0  0  0  0  0  0  0  0  0  0  0  # atno 10765 bound_to 10752
  141.0072  133.6926  156.2132 H   0  0  0  0  0  0  0  0  0  0  0  0  # atno 11005 bound_to 11000
  146.3526  140.1036  142.8607 LP  0  0  0  0  0  0  0  0  0  0  0  0  # atno 17320 bound_to 7965
  145.0842  140.9241  143.4807 LP  0  0  0  0  0  0  0  0  0  0  0  0  # atno 17321 bound_to 7965
  139.6702  144.0033  152.2748 LP  0  0  0  0  0  0  0  0  0  0  0  0  # atno 17342 bound_to 10162
  139.9629  144.6545  150.8062 LP  0  0  0  0  0  0  0  0  0  0  0  0  # atno 17343 bound_to 10162
  157.7503  131.0293  150.4089 LP  0  0  0  0  0  0  0  0  0  0  0  0  # atno 17370 bound_to 10713
  156.4364  130.3982  149.6726 LP  0  0  0  0  0  0  0  0  0  0  0  0  # atno 17371 bound_to 10713
  140.6794  134.4783  157.5589 LP  0  0  0  0  0  0  0  0  0  0  0  0  # atno 17394 bound_to 11000
  139.9069  134.8428  156.1671 LP  0  0  0  0  0  0  0  0  0  0  0  0  # atno 17395 bound_to 11000

$$$$
