AV-unprocessed.smi:199|AV-procd|sdf|1569|dock9
  -GOLD-   2262019443D 1   1.00000     0.00000
 Structure written by MMmdl.
 51 55  0  0  0  0  0  0  0  0  1 V2000
  150.9012  138.1787  154.3964 C   0  0  0  0  0  0  0  0  0  0  0  0
  150.0850  139.3129  155.0372 C   0  0  1  0  0  0  0  0  0  0  0  0
  150.7919  140.5423  154.9611 O   0  0  0  0  0  0  0  0  0  0  0  0
  149.8532  141.5752  155.2000 C   0  0  0  0  0  0  0  0  0  0  0  0
  148.6554  141.1428  154.3628 C   0  0  0  0  0  0  0  0  0  0  0  0
  148.6896  139.6124  154.4276 C   0  0  1  0  0  0  0  0  0  0  0  0
  148.5761  139.1137  153.1048 O   0  0  0  0  0  0  0  0  0  0  0  0
  147.5197  139.0371  155.2640 C   0  0  0  0  0  0  0  0  0  0  0  0
  146.7707  137.9972  154.5744 N   0  0  0  0  0  0  0  0  0  0  0  0
  145.6161  138.1591  153.8438 C   0  0  0  0  0  0  0  0  0  0  0  0
  145.1410  137.0694  153.3071 N   0  0  0  0  0  0  0  0  0  0  0  0
  146.0227  136.0728  153.7099 C   0  0  0  0  0  0  0  0  0  0  0  0
  146.1095  134.6673  153.4884 C   0  0  0  0  0  0  0  0  0  0  0  0
  145.2165  133.9620  152.7409 N   0  0  0  0  0  0  0  0  0  0  0  0
  143.9655  134.5652  152.2988 C   0  0  1  0  0  0  0  0  0  0  0  0
  144.3879  135.5184  151.1611 C   0  0  0  0  0  0  0  0  0  0  0  0
  145.5711  134.7508  150.5533 C   0  0  0  0  0  0  0  0  0  0  0  0
  145.5830  133.4726  151.4201 C   0  0  2  0  0  0  0  0  0  0  0  0
  144.3839  132.5495  151.1000 C   0  0  2  0  0  0  0  0  0  0  0  0
  144.1955  132.1141  149.6347 C   0  0  0  0  0  0  0  0  0  0  0  0
  143.6443  133.1699  148.8769 O   0  0  0  0  0  0  0  0  0  0  0  0
  143.2183  133.3680  151.6848 C   0  0  0  0  0  0  0  0  0  0  0  0
  147.1692  134.0163  154.0383 N   0  0  0  0  0  0  0  0  0  0  0  0
  148.0646  134.6782  154.7755 C   0  0  0  0  0  0  0  0  0  0  0  0
  148.1002  135.9768  155.0760 N   0  0  0  0  0  0  0  0  0  0  0  0
  147.0542  136.6436  154.5100 C   0  0  0  0  0  0  0  0  0  0  0  0
  150.3604  137.2328  154.4358 H   0  0  0  0  0  0  0  0  0  0  0  0
  151.8459  138.0399  154.9217 H   0  0  0  0  0  0  0  0  0  0  0  0
  151.1348  138.3922  153.3532 H   0  0  0  0  0  0  0  0  0  0  0  0
  149.9749  139.0993  156.1008 H   0  0  0  0  0  0  0  0  0  0  0  0
  149.6007  141.6067  156.2612 H   0  0  0  0  0  0  0  0  0  0  0  0
  150.2424  142.5505  154.9075 H   0  0  0  0  0  0  0  0  0  0  0  0
  147.7217  141.5740  154.7259 H   0  0  0  0  0  0  0  0  0  0  0  0
  148.7985  141.4954  153.3399 H   0  0  0  0  0  0  0  0  0  0  0  0
  149.0420  139.6952  152.5238 H   0  0  0  0  0  0  0  0  0  0  0  0
  147.8993  138.6224  156.1988 H   0  0  0  0  0  0  0  0  0  0  0  0
  146.8247  139.8298  155.5446 H   0  0  0  0  0  0  0  0  0  0  0  0
  145.1393  139.1191  153.7105 H   0  0  0  0  0  0  0  0  0  0  0  0
  143.3893  135.0564  153.0839 H   0  0  0  0  0  0  0  0  0  0  0  0
  143.5868  135.6989  150.4436 H   0  0  0  0  0  0  0  0  0  0  0  0
  144.7147  136.4834  151.5501 H   0  0  0  0  0  0  0  0  0  0  0  0
  145.4628  134.5626  149.4864 H   0  0  0  0  0  0  0  0  0  0  0  0
  146.4960  135.3128  150.6903 H   0  0  0  0  0  0  0  0  0  0  0  0
  146.5279  132.9351  151.3687 H   0  0  0  0  0  0  0  0  0  0  0  0
  144.4933  131.6454  151.7025 H   0  0  0  0  0  0  0  0  0  0  0  0
  145.1607  131.8496  149.2021 H   0  0  0  0  0  0  0  0  0  0  0  0
  143.5647  131.2303  149.5466 H   0  0  0  0  0  0  0  0  0  0  0  0
  142.7735  133.3476  149.1979 H   0  0  0  0  0  0  0  0  0  0  0  0
  142.6975  132.7948  152.4529 H   0  0  0  0  0  0  0  0  0  0  0  0
  142.4840  133.6743  150.9385 H   0  0  0  0  0  0  0  0  0  0  0  0
  148.8684  134.0818  155.1809 H   0  0  0  0  0  0  0  0  0  0  0  0
  1  2  1  0  0  0  0
  1 27  1  0  0  0  0
  1 28  1  0  0  0  0
  1 29  1  0  0  0  0
  2  6  1  0  0  0  0
  2  3  1  0  0  0  0
  2 30  1  0  0  0  0
  3  4  1  0  0  0  0
  4  5  1  0  0  0  0
  4 31  1  0  0  0  0
  4 32  1  0  0  0  0
  5  6  1  0  0  0  0
  5 33  1  0  0  0  0
  5 34  1  0  0  0  0
  6  7  1  0  0  0  0
  6  8  1  0  0  0  0
  7 35  1  0  0  0  0
  8  9  1  0  0  0  0
  8 36  1  0  0  0  0
  8 37  1  0  0  0  0
  9 26  1  0  0  0  0
  9 10  1  0  0  0  0
 10 11  2  0  0  0  0
 10 38  1  0  0  0  0
 11 12  1  0  0  0  0
 12 26  2  0  0  0  0
 12 13  1  0  0  0  0
 13 14  1  0  0  0  0
 13 23  2  0  0  0  0
 14 18  1  0  0  0  0
 14 15  1  0  0  0  0
 15 22  1  0  0  0  0
 15 16  1  0  0  0  0
 15 39  1  0  0  0  0
 16 17  1  0  0  0  0
 16 40  1  0  0  0  0
 16 41  1  0  0  0  0
 17 18  1  0  0  0  0
 17 42  1  0  0  0  0
 17 43  1  0  0  0  0
 18 19  1  0  0  0  0
 18 44  1  0  0  0  0
 19 20  1  0  0  0  0
 19 22  1  0  0  0  0
 19 45  1  0  0  0  0
 20 21  1  0  0  0  0
 20 46  1  0  0  0  0
 20 47  1  0  0  0  0
 21 48  1  0  0  0  0
 22 49  1  0  0  0  0
 22 50  1  0  0  0  0
 23 24  1  0  0  0  0
 24 25  2  0  0  0  0
 24 51  1  0  0  0  0
 25 26  1  0  0  0  0
M  END
> <s_m_source_file>
AV-unprocessed.smi

> <i_m_source_file_index>
199

> <i_lp_mmshare_version>
43012

> <i_f3d_flags>
0

> <s_epik_input>
W0NIMl0xW0NIMl1PW0NAQEhdKFtDSDNdKVtDQEBdMShbT0hdKVtDSDJdbihbY0hdbjIpYyhjMjMpbltjSF1uYzNOKFtDQEBIXTQ1KVtDQEhdKFtDSDJdW0NIMl00KVtDQEhdKFtDSDJdNSlbQ0gyXVtPSF0=

> <s_epik_cmdline>
J2VwaWtfcHl0aG9uJywgJy1waCcsICc3LjAnLCAnLXRuJywgJzgnLCAnLW1hJywgJzIwMCcsICctbWV0YWxfYmluZGluZycsICctaW1hZScsICc8aW5maWxlLm1hZT4nLCAnLW9tYWUnLCAnPG91dGZpbGUubWFlPic=

> <r_lp_tautomer_probability>
1

> <r_epik_Ionization_Penalty>
0.00583903

> <r_epik_Ionization_Penalty_Charging>
0

> <r_epik_Ionization_Penalty_Neutral>
0.00583903

> <r_epik_State_Penalty>
-0

> <r_epik_Charging_Adjusted_Penalty>
0

> <i_epik_Tot_Q>
0

> <i_epik_Tot_abs_Q>
0

> <r_epik_Metal_State_Penalty>
-0

> <b_epik_Metal_Only>
0

> <s_lp_Force_Field>
OPLS_2005

> <r_lp_Energy>
83.7467

> <b_lp_Chiralities_Consistent>
1

> <s_lp_Variant>
AV-unprocessed.smi:199-10

> <Gold.Version>
5.8.1

> <Gold.Id.Protein>
6NUR|6NUR_protein|mol2

> <Gold.PLP.Fitness>
46.8160

> <Gold.PLP.PLP>
-38.4159

> <Gold.PLP.part.hbond>
-3.9620

> <Gold.PLP.part.metal>
0.0000

> <Gold.PLP.part.buried>
-4.4485

> <Gold.PLP.part.nonpolar>
-30.1141

> <Gold.PLP.part.repulsive>
0.4689

> <Gold.PLP.ligand.clash>
0.0000

> <Gold.PLP.ligand.torsion>
1.8086

> <Gold.PLP.Chemscore.Hbond>
3.0000

> <Gold.PLP.Chemscore.CHOScore>
1.0000

> <Gold.PLP.Chemscore.Metal>
0.0000

> <Gold.Chemscore.Hbonds>
donor molecule, donor type, donor heavy atom, donor atom, acceptor molecule, acceptor atom, score
      L1  H     7    35       P1  7957  0.96
      L1  H    21    48       P1 10186  0.84
      P1  H  7989  7998       L1     3  1.00
      L1  C    10    38       P1 10175  1.00

> <Gold.PLP.Chemscore.Internal.Correction>
0.0173

> <Gold.Rescore>
     Score         DG    S(hbond)    S(metal)    S(lipo)     H(rot)  DE(clash)    DE(int)     intcor
     11.54     -16.52       2.65        0.00      85.91       3.07       0.65       4.34       ----

> <Gold.Chemscore.Fitness>
11.5362

> <Gold.Chemscore.DG>
-16.5237

> <Gold.Chemscore.ZeroCoef>
-5.4800

> <Gold.Chemscore.Hbond>
2.6522

> <Gold.Chemscore.Metal>
0.0000

> <Gold.Chemscore.Lipo>
85.9139

> <Gold.Chemscore.Internal_Hbond>
0.0000

> <Gold.Chemscore.DEClash>
0.6507

> <Gold.Chemscore.DEInternal>
4.3368

> <Gold.Chemscore.Rot>
3.0729

> <Gold.Chemscore.Internal.Correction>
   9.000000E+99

> <Gold.Chemscore.Hbonds>
donor molecule, donor type, donor heavy atom, donor atom, acceptor molecule, acceptor atom, score
      L1  H     7    35       P1  7957  0.87
      L1  H    21    48       P1 10186  0.82
      P1  H  7989  7998       L1     3  0.63

> <Gold.Chemscore.Hbond.Weighted>
-8.8585

> <Gold.Chemscore.Metal.Weighted>
-0.0000

> <Gold.Chemscore.Lipo.Weighted>
-10.0519

> <Gold.Chemscore.Internal_Hbond.Weighted>
0.0000

> <Gold.Chemscore.DEClash.Weighted>
0.6507

> <Gold.Chemscore.DEInternal.Weighted>
4.3368

> <Gold.Chemscore.Rot.Weighted>
7.8667

> <Gold.Chemscore.Internal.Correction.Weighted>
   9.000000E+99

> <Gold.Protein.RotatedTorsions>
[ 6907 6896 6895 6894 ] final  100.21 input  -60.11 | X-H torsion
[ 7974 7965 7964 7962 ] final  160.59 input  175.53 | X-H torsion
[ 8008 7997 7996 7995 ] final  -54.05 input   59.86 | X-H torsion
[ 10167 10162 10161 10158 ] final  134.14 input  -65.29 | X-H torsion
[ 10718 10713 10712 10709 ] final   88.47 input   66.30 | X-H torsion
[ 10763 10752 10751 10750 ] final -105.52 input  -60.55 | X-H torsion
[ 11005 11000 10999 10996 ] final  121.07 input  -57.11 | X-H torsion

> <Gold.Protein.ActiveResidues>
 VAL166  LYS551  ARG553  GLY616  TRP617  ASP618  TYR619  PRO620  LYS621  CYS622 
 ASP623  PHE694  ASN695  SER759  ASP760  ASP761  ALA762  ILE779  LEU786  VAL792 
 PHE793  MET794  SER795  GLU796  ALA797  LYS798  CYS799  TRP800  GLU811  SER814 

> <Gold.Protein.RotatedAtoms>
  152.5377  134.0311  159.8024 H   0  0  0  0  0  0  0  0  0  0  0  0  # atno 6907 bound_to 6896
  151.0482  133.5639  159.2652 H   0  0  0  0  0  0  0  0  0  0  0  0  # atno 6908 bound_to 6896
  151.2584  135.0653  159.9142 H   0  0  0  0  0  0  0  0  0  0  0  0  # atno 6909 bound_to 6896
  144.7729  139.7778  143.6290 H   0  0  0  0  0  0  0  0  0  0  0  0  # atno 7974 bound_to 7965
  154.4151  140.1185  156.5253 H   0  0  0  0  0  0  0  0  0  0  0  0  # atno 8008 bound_to 7997
  155.6661  140.3496  155.4781 H   0  0  0  0  0  0  0  0  0  0  0  0  # atno 8009 bound_to 7997
  155.9672  140.1134  157.0834 H   0  0  0  0  0  0  0  0  0  0  0  0  # atno 8010 bound_to 7997
  139.5268  144.6582  151.5097 H   0  0  0  0  0  0  0  0  0  0  0  0  # atno 10167 bound_to 10162
  157.6949  131.0296  150.3280 H   0  0  0  0  0  0  0  0  0  0  0  0  # atno 10718 bound_to 10713
  154.7952  135.4746  154.0145 H   0  0  0  0  0  0  0  0  0  0  0  0  # atno 10763 bound_to 10752
  153.1693  135.6822  153.8638 H   0  0  0  0  0  0  0  0  0  0  0  0  # atno 10764 bound_to 10752
  153.8226  135.3202  155.3389 H   0  0  0  0  0  0  0  0  0  0  0  0  # atno 10765 bound_to 10752
  139.9211  134.9637  156.7903 H   0  0  0  0  0  0  0  0  0  0  0  0  # atno 11005 bound_to 11000
  146.1889  139.5118  142.9818 LP  0  0  0  0  0  0  0  0  0  0  0  0  # atno 17320 bound_to 7965
  145.6270  141.0311  143.1883 LP  0  0  0  0  0  0  0  0  0  0  0  0  # atno 17321 bound_to 7965
  140.6417  143.8875  150.6698 LP  0  0  0  0  0  0  0  0  0  0  0  0  # atno 17342 bound_to 10162
  140.2212  143.3807  152.1641 LP  0  0  0  0  0  0  0  0  0  0  0  0  # atno 17343 bound_to 10162
  156.3758  130.3871  149.7140 LP  0  0  0  0  0  0  0  0  0  0  0  0  # atno 17370 bound_to 10713
  156.4539  130.7920  151.2941 LP  0  0  0  0  0  0  0  0  0  0  0  0  # atno 17371 bound_to 10713
  140.6473  133.9764  155.7737 LP  0  0  0  0  0  0  0  0  0  0  0  0  # atno 17394 bound_to 11000
  141.0732  134.0175  157.3496 LP  0  0  0  0  0  0  0  0  0  0  0  0  # atno 17395 bound_to 11000

$$$$
