AV-unprocessed.smi:1619|AV-procd|sdf|6489|dock1
  -GOLD-   22720 7153D 1   1.00000     0.00000
 Structure written by MMmdl.
 45 47  0  0  0  0  0  0  0  0  3 V2000
  152.4675  143.9749  160.4239 C   0  0  0  0  0  0  0  0  0  0  0  0
  152.0536  142.9963  159.3378 C   0  0  0  0  0  0  0  0  0  0  0  0
  151.0725  143.4006  158.4041 C   0  0  0  0  0  0  0  0  0  0  0  0
  150.7177  142.4851  157.4203 C   0  0  0  0  0  0  0  0  0  0  0  0
  149.8010  142.5777  156.3708 N   0  3  0  0  0  0  0  0  0  0  0  0
  149.8006  141.4138  155.6634 C   0  0  0  0  0  0  0  0  0  0  0  0
  150.7059  140.5800  156.2449 N   0  0  0  0  0  0  0  0  0  0  0  0
  151.1002  139.2109  155.8855 C   0  0  0  0  0  0  0  0  0  0  0  0
  150.3337  138.6666  154.6638 C   0  0  2  0  0  0  0  0  0  0  0  0
  150.6431  139.4563  153.5311 O   0  0  0  0  0  0  0  0  0  0  0  0
  148.8091  138.6843  154.8883 C   0  0  0  0  0  0  0  0  0  0  0  0
  148.0489  138.2988  153.6743 N   0  3  0  0  0  0  0  0  0  0  0  0
  146.7759  137.5909  153.9188 C   0  0  0  0  0  0  0  0  0  0  0  0
  145.9591  137.7476  152.6320 C   0  0  0  0  0  0  0  0  0  0  0  0
  146.5996  138.9177  151.8757 C   0  0  0  0  0  0  0  0  0  0  0  0
  147.7145  139.4300  152.7899 C   0  0  0  0  0  0  0  0  0  0  0  0
  151.3005  141.2052  157.3461 C   0  0  0  0  0  0  0  0  0  0  0  0
  152.2666  140.7895  158.2590 C   0  0  0  0  0  0  0  0  0  0  0  0
  152.6434  141.7075  159.2655 C   0  0  0  0  0  0  0  0  0  0  0  0
  153.6990  141.2848  160.2731 C   0  0  0  0  0  0  0  0  0  0  0  0
  151.8967  144.9022  160.3638 H   0  0  0  0  0  0  0  0  0  0  0  0
  153.5240  144.2266  160.3287 H   0  0  0  0  0  0  0  0  0  0  0  0
  152.3010  143.5461  161.4123 H   0  0  0  0  0  0  0  0  0  0  0  0
  150.6194  144.3801  158.4529 H   0  0  0  0  0  0  0  0  0  0  0  0
  149.1944  141.1949  154.7961 H   0  0  0  0  0  0  0  0  0  0  0  0
  152.1766  139.2002  155.7086 H   0  0  0  0  0  0  0  0  0  0  0  0
  150.9240  138.5796  156.7576 H   0  0  0  0  0  0  0  0  0  0  0  0
  150.6665  137.6473  154.4678 H   0  0  0  0  0  0  0  0  0  0  0  0
  149.8771  139.5108  152.9799 H   0  0  0  0  0  0  0  0  0  0  0  0
  148.5406  138.0133  155.7058 H   0  0  0  0  0  0  0  0  0  0  0  0
  148.5005  139.6844  155.1974 H   0  0  0  0  0  0  0  0  0  0  0  0
  146.9359  136.5437  154.1777 H   0  0  0  0  0  0  0  0  0  0  0  0
  146.2455  138.0655  154.7462 H   0  0  0  0  0  0  0  0  0  0  0  0
  146.0178  136.8402  152.0295 H   0  0  0  0  0  0  0  0  0  0  0  0
  144.9061  137.9285  152.8510 H   0  0  0  0  0  0  0  0  0  0  0  0
  147.0199  138.5618  150.9343 H   0  0  0  0  0  0  0  0  0  0  0  0
  145.8796  139.7019  151.6390 H   0  0  0  0  0  0  0  0  0  0  0  0
  147.3412  140.2616  153.3901 H   0  0  0  0  0  0  0  0  0  0  0  0
  148.5847  139.7796  152.2330 H   0  0  0  0  0  0  0  0  0  0  0  0
  152.7143  139.8084  158.2048 H   0  0  0  0  0  0  0  0  0  0  0  0
  154.0683  140.2799  160.0671 H   0  0  0  0  0  0  0  0  0  0  0  0
  153.2876  141.2878  161.2826 H   0  0  0  0  0  0  0  0  0  0  0  0
  154.5505  141.9648  160.2436 H   0  0  0  0  0  0  0  0  0  0  0  0
  148.6320  137.6761  153.1328 H   0  0  0  0  0  0  0  0  0  0  0  0
  149.2181  143.3754  156.1511 H   0  0  0  0  0  0  0  0  0  0  0  0
  1  2  1  0  0  0  0
  1 21  1  0  0  0  0
  1 22  1  0  0  0  0
  1 23  1  0  0  0  0
  2 19  1  0  0  0  0
  2  3  2  0  0  0  0
  3  4  1  0  0  0  0
  3 24  1  0  0  0  0
  4 17  2  0  0  0  0
  4  5  1  0  0  0  0
  5  6  2  0  0  0  0
  5 45  1  0  0  0  0
  6  7  1  0  0  0  0
  6 25  1  0  0  0  0
  7  8  1  0  0  0  0
  7 17  1  0  0  0  0
  8  9  1  0  0  0  0
  8 26  1  0  0  0  0
  8 27  1  0  0  0  0
  9 10  1  0  0  0  0
  9 11  1  0  0  0  0
  9 28  1  0  0  0  0
 10 29  1  0  0  0  0
 11 12  1  0  0  0  0
 11 30  1  0  0  0  0
 11 31  1  0  0  0  0
 12 16  1  0  0  0  0
 12 13  1  0  0  0  0
 12 44  1  0  0  0  0
 13 14  1  0  0  0  0
 13 32  1  0  0  0  0
 13 33  1  0  0  0  0
 14 15  1  0  0  0  0
 14 34  1  0  0  0  0
 14 35  1  0  0  0  0
 15 16  1  0  0  0  0
 15 36  1  0  0  0  0
 15 37  1  0  0  0  0
 16 38  1  0  0  0  0
 16 39  1  0  0  0  0
 17 18  1  0  0  0  0
 18 19  2  0  0  0  0
 18 40  1  0  0  0  0
 19 20  1  0  0  0  0
 20 41  1  0  0  0  0
 20 42  1  0  0  0  0
 20 43  1  0  0  0  0
M  CHG  1   5   1
M  CHG  1  12   1
M  END
> <s_m_source_file>
AV-unprocessed.smi

> <i_m_source_file_index>
1619

> <i_lp_mmshare_version>
43012

> <i_f3d_flags>
0

> <s_epik_input>
W0NIM11jKFtjSF0xKWMoW0NIM10pW2NIXWMoYzEyKW4oW2NIXW4yKVtDSDJdW0NASF0oW09IXSlbQ0gyXU4zW0NIMl1bQ0gyXVtDSDJdW0NIMl0z

> <s_epik_cmdline>
J2VwaWtfcHl0aG9uJywgJy1waCcsICc3LjAnLCAnLXRuJywgJzgnLCAnLW1hJywgJzIwMCcsICctbWV0YWxfYmluZGluZycsICctaW1hZScsICc8aW5maWxlLm1hZT4nLCAnLW9tYWUnLCAnPG91dGZpbGUubWFlPic=

> <r_epik_Ionization_Penalty>
1.18067

> <r_epik_Ionization_Penalty_Charging>
1.18067

> <r_epik_Ionization_Penalty_Neutral>
1.08888e-06

> <r_epik_State_Penalty>
1.26407

> <r_epik_Charging_Adjusted_Penalty>
2.44473

> <i_epik_Tot_Q>
2

> <i_epik_Tot_abs_Q>
2

> <r_epik_Metal_State_Penalty>
5.27628

> <b_epik_Metal_Only>
0

> <s_lp_Force_Field>
OPLS_2005

> <r_lp_Energy>
41.212

> <b_lp_Chiralities_Consistent>
1

> <s_lp_Variant>
AV-unprocessed.smi:1619-3

> <Gold.Version>
5.8.1

> <Gold.Id.Protein>
6NUR|6NUR_protein|mol2

> <Gold.PLP.Fitness>
53.9605

> <Gold.PLP.PLP>
-38.1769

> <Gold.PLP.part.hbond>
-3.8761

> <Gold.PLP.part.metal>
0.0000

> <Gold.PLP.part.buried>
0.9155

> <Gold.PLP.part.nonpolar>
-36.1299

> <Gold.PLP.part.repulsive>
0.0893

> <Gold.PLP.ligand.clash>
0.0000

> <Gold.PLP.ligand.torsion>
0.4143

> <Gold.PLP.Chemscore.Hbond>
5.5200

> <Gold.PLP.Chemscore.CHOScore>
0.0000

> <Gold.PLP.Chemscore.Metal>
0.0000

> <Gold.Chemscore.Hbonds>
donor molecule, donor type, donor heavy atom, donor atom, acceptor molecule, acceptor atom, score
      L1  H     5    45       P1  8028  1.69
      L1  H    10    29       P1  7957  0.66
      L1  H    12    44       P1  7948  2.00
      P1  H  7989  7998       L1    10  0.86

> <Gold.PLP.Chemscore.Internal.Correction>
0.0523

> <Gold.Rescore>
     Score         DG    S(hbond)    S(metal)    S(lipo)     H(rot)  DE(clash)    DE(int)     intcor
     20.47     -23.47       3.09        0.00     111.06       2.08       1.27       1.73       ----

> <Gold.Chemscore.Fitness>
20.4706

> <Gold.Chemscore.DG>
-23.4702

> <Gold.Chemscore.ZeroCoef>
-5.4800

> <Gold.Chemscore.Hbond>
3.0910

> <Gold.Chemscore.Metal>
0.0000

> <Gold.Chemscore.Lipo>
111.0570

> <Gold.Chemscore.Internal_Hbond>
0.0000

> <Gold.Chemscore.DEClash>
1.2682

> <Gold.Chemscore.DEInternal>
1.7314

> <Gold.Chemscore.Rot>
2.0811

> <Gold.Chemscore.Internal.Correction>
   9.000000E+99

> <Gold.Chemscore.Hbonds>
donor molecule, donor type, donor heavy atom, donor atom, acceptor molecule, acceptor atom, score
      L1  H     5    45       P1  8028  0.82
      L1  H    10    29       P1  7957  0.66
      L1  H    12    44       P1  7948  0.97
      P1  H  7989  7998       L1    10  0.72

> <Gold.Chemscore.Hbond.Weighted>
-10.3240

> <Gold.Chemscore.Metal.Weighted>
-0.0000

> <Gold.Chemscore.Lipo.Weighted>
-12.9937

> <Gold.Chemscore.Internal_Hbond.Weighted>
0.0000

> <Gold.Chemscore.DEClash.Weighted>
1.2682

> <Gold.Chemscore.DEInternal.Weighted>
1.7314

> <Gold.Chemscore.Rot.Weighted>
5.3275

> <Gold.Chemscore.Internal.Correction.Weighted>
   9.000000E+99

> <Gold.Protein.RotatedTorsions>
[ 6907 6896 6895 6894 ] final   35.46 input  -60.11 | X-H torsion
[ 7974 7965 7964 7962 ] final   39.99 input  175.53 | X-H torsion
[ 8008 7997 7996 7995 ] final  109.82 input   59.86 | X-H torsion
[ 10167 10162 10161 10158 ] final -108.01 input  -65.29 | X-H torsion
[ 10718 10713 10712 10709 ] final  -18.03 input   66.30 | X-H torsion
[ 10763 10752 10751 10750 ] final  102.71 input  -60.55 | X-H torsion
[ 11005 11000 10999 10996 ] final  124.87 input  -57.11 | X-H torsion

> <Gold.Protein.ActiveResidues>
 VAL166  LYS551  ARG553  GLY616  TRP617  ASP618  TYR619  PRO620  LYS621  CYS622 
 ASP623  PHE694  ASN695  SER759  ASP760  ASP761  ALA762  ILE779  LEU786  VAL792 
 PHE793  MET794  SER795  GLU796  ALA797  LYS798  CYS799  TRP800  GLU811  SER814 

> <Gold.Protein.RotatedAtoms>
  152.1164  134.9237  160.0564 H   0  0  0  0  0  0  0  0  0  0  0  0  # atno 6907 bound_to 6896
  152.0395  133.3966  159.4339 H   0  0  0  0  0  0  0  0  0  0  0  0  # atno 6908 bound_to 6896
  150.6846  134.3351  159.4887 H   0  0  0  0  0  0  0  0  0  0  0  0  # atno 6909 bound_to 6896
  146.0940  139.5586  142.9457 H   0  0  0  0  0  0  0  0  0  0  0  0  # atno 7974 bound_to 7965
  156.2008  140.3050  155.9522 H   0  0  0  0  0  0  0  0  0  0  0  0  # atno 8008 bound_to 7997
  155.2959  140.0444  157.3043 H   0  0  0  0  0  0  0  0  0  0  0  0  # atno 8009 bound_to 7997
  154.5568  140.2308  155.8406 H   0  0  0  0  0  0  0  0  0  0  0  0  # atno 8010 bound_to 7997
  140.1708  143.4044  152.1356 H   0  0  0  0  0  0  0  0  0  0  0  0  # atno 10167 bound_to 10162
  156.5652  130.4735  149.6388 H   0  0  0  0  0  0  0  0  0  0  0  0  # atno 10718 bound_to 10713
  153.3432  135.4001  155.1588 H   0  0  0  0  0  0  0  0  0  0  0  0  # atno 10763 bound_to 10752
  154.8648  135.3638  154.5319 H   0  0  0  0  0  0  0  0  0  0  0  0  # atno 10764 bound_to 10752
  153.5765  135.7077  153.5541 H   0  0  0  0  0  0  0  0  0  0  0  0  # atno 10765 bound_to 10752
  139.9379  134.9638  156.8474 H   0  0  0  0  0  0  0  0  0  0  0  0  # atno 11005 bound_to 11000
  145.5984  141.0359  143.2032 LP  0  0  0  0  0  0  0  0  0  0  0  0  # atno 17320 bound_to 7965
  144.7381  139.7526  143.7321 LP  0  0  0  0  0  0  0  0  0  0  0  0  # atno 17321 bound_to 7965
  139.5339  144.7188  151.4961 LP  0  0  0  0  0  0  0  0  0  0  0  0  # atno 17342 bound_to 10162
  140.6583  143.8552  150.6859 LP  0  0  0  0  0  0  0  0  0  0  0  0  # atno 17343 bound_to 10162
  156.2763  130.7045  151.1857 LP  0  0  0  0  0  0  0  0  0  0  0  0  # atno 17370 bound_to 10713
  157.7360  131.0567  150.5439 LP  0  0  0  0  0  0  0  0  0  0  0  0  # atno 17371 bound_to 10713
  140.6027  134.0156  155.7544 LP  0  0  0  0  0  0  0  0  0  0  0  0  # atno 17394 bound_to 11000
  141.1001  133.9781  157.3093 LP  0  0  0  0  0  0  0  0  0  0  0  0  # atno 17395 bound_to 11000

$$$$
