AV-unprocessed.smi:886|AV-procd|sdf|4049|dock5
  -GOLD-   22720 1533D 1   1.00000     0.00000
 Structure written by MMmdl.
 35 37  0  0  0  0  0  0  0  0  1 V2000
  151.5301  145.4391  160.0565 C   0  0  0  0  0  0  0  0  0  0  0  0
  152.0987  144.1091  160.2104 N   0  0  0  0  0  0  0  0  0  0  0  0
  151.6886  143.0300  159.5266 C   0  0  0  0  0  0  0  0  0  0  0  0
  150.7922  143.0658  158.6827 O   0  0  0  0  0  0  0  0  0  0  0  0
  152.4287  141.7535  159.8351 C   0  0  0  0  0  0  0  0  0  0  0  0
  153.1269  141.6323  161.0596 C   0  0  0  0  0  0  0  0  0  0  0  0
  153.7919  140.4317  161.3655 C   0  0  0  0  0  0  0  0  0  0  0  0
  153.7308  139.3825  160.4329 C   0  0  0  0  0  0  0  0  0  0  0  0
  153.0680  139.4755  159.2627 N   0  0  0  0  0  0  0  0  0  0  0  0
  152.4237  140.6292  158.9592 C   0  0  0  0  0  0  0  0  0  0  0  0
  151.7658  140.6854  157.7170 N   0  0  0  0  0  0  0  0  0  0  0  0
  151.3680  139.4654  157.0227 C   0  0  1  0  0  0  0  0  0  0  0  0
  149.8652  139.4127  156.7178 C   0  0  0  0  0  0  0  0  0  0  0  0
  149.8554  139.2292  155.1952 C   0  0  2  0  0  0  0  0  0  0  0  0
  150.3663  137.8452  154.7727 C   0  0  0  0  0  0  0  0  0  0  0  0
  151.8662  137.9724  155.0372 C   0  0  0  0  0  0  0  0  0  0  0  0
  151.9675  139.3935  155.6081 C   0  0  1  0  0  0  0  0  0  0  0  0
  150.9630  140.0375  154.8405 O   0  0  0  0  0  0  0  0  0  0  0  0
  152.0445  146.1418  160.7119 H   0  0  0  0  0  0  0  0  0  0  0  0
  150.4710  145.4410  160.3178 H   0  0  0  0  0  0  0  0  0  0  0  0
  151.6365  145.7906  159.0294 H   0  0  0  0  0  0  0  0  0  0  0  0
  152.8518  144.0015  160.8746 H   0  0  0  0  0  0  0  0  0  0  0  0
  153.1515  142.4466  161.7694 H   0  0  0  0  0  0  0  0  0  0  0  0
  154.3307  140.3167  162.2943 H   0  0  0  0  0  0  0  0  0  0  0  0
  154.2261  138.4435  160.6310 H   0  0  0  0  0  0  0  0  0  0  0  0
  151.2439  141.5239  157.5041 H   0  0  0  0  0  0  0  0  0  0  0  0
  151.6906  138.5986  157.6011 H   0  0  0  0  0  0  0  0  0  0  0  0
  149.3607  138.5986  157.2391 H   0  0  0  0  0  0  0  0  0  0  0  0
  149.3661  140.3453  156.9858 H   0  0  0  0  0  0  0  0  0  0  0  0
  148.9175  139.5198  154.7210 H   0  0  0  0  0  0  0  0  0  0  0  0
  149.9011  137.0408  155.3433 H   0  0  0  0  0  0  0  0  0  0  0  0
  150.1789  137.6680  153.7131 H   0  0  0  0  0  0  0  0  0  0  0  0
  152.2415  137.2167  155.7282 H   0  0  0  0  0  0  0  0  0  0  0  0
  152.4261  137.8901  154.1049 H   0  0  0  0  0  0  0  0  0  0  0  0
  152.9627  139.8299  155.5149 H   0  0  0  0  0  0  0  0  0  0  0  0
  1  2  1  0  0  0  0
  1 19  1  0  0  0  0
  1 20  1  0  0  0  0
  1 21  1  0  0  0  0
  2  3  1  0  0  0  0
  2 22  1  0  0  0  0
  3  4  2  0  0  0  0
  3  5  1  0  0  0  0
  5 10  1  0  0  0  0
  5  6  2  0  0  0  0
  6  7  1  0  0  0  0
  6 23  1  0  0  0  0
  7  8  2  0  0  0  0
  7 24  1  0  0  0  0
  8  9  1  0  0  0  0
  8 25  1  0  0  0  0
  9 10  2  0  0  0  0
 10 11  1  0  0  0  0
 11 12  1  0  0  0  0
 11 26  1  0  0  0  0
 12 17  1  0  0  0  0
 12 13  1  0  0  0  0
 12 27  1  0  0  0  0
 13 14  1  0  0  0  0
 13 28  1  0  0  0  0
 13 29  1  0  0  0  0
 14 18  1  0  0  0  0
 14 15  1  0  0  0  0
 14 30  1  0  0  0  0
 15 16  1  0  0  0  0
 15 31  1  0  0  0  0
 15 32  1  0  0  0  0
 16 17  1  0  0  0  0
 16 33  1  0  0  0  0
 16 34  1  0  0  0  0
 17 18  1  0  0  0  0
 17 35  1  0  0  0  0
M  END
> <s_m_source_file>
AV-unprocessed.smi

> <i_m_source_file_index>
886

> <i_lp_mmshare_version>
43012

> <i_f3d_flags>
0

> <s_epik_input>
W0NIM11bTkhdQyg9TyljMVtjSF1bY0hdW2NIXW5jMVtOSF1bQ0BIXShbQ0gyXVtDQEhdMjMpW0NASF0oTzMpW0NIMl1bQ0gyXTI=

> <s_epik_cmdline>
J2VwaWtfcHl0aG9uJywgJy1waCcsICc3LjAnLCAnLXRuJywgJzgnLCAnLW1hJywgJzIwMCcsICctbWV0YWxfYmluZGluZycsICctaW1hZScsICc8aW5maWxlLm1hZT4nLCAnLW9tYWUnLCAnPG91dGZpbGUubWFlPic=

> <r_lp_tautomer_probability>
1

> <r_epik_Ionization_Penalty>
0.0065447

> <r_epik_Ionization_Penalty_Charging>
0

> <r_epik_Ionization_Penalty_Neutral>
0.0065447

> <r_epik_State_Penalty>
0.00484214

> <r_epik_Charging_Adjusted_Penalty>
0.00484214

> <i_epik_Tot_Q>
0

> <i_epik_Tot_abs_Q>
0

> <r_epik_Metal_State_Penalty>
-0

> <b_epik_Metal_Only>
0

> <s_lp_Force_Field>
OPLS_2005

> <r_lp_Energy>
46.3803

> <b_lp_Chiralities_Consistent>
1

> <s_lp_Variant>
AV-unprocessed.smi:886-2

> <Gold.Version>
5.8.1

> <Gold.Id.Protein>
6NUR|6NUR_protein|mol2

> <Gold.PLP.Fitness>
42.1024

> <Gold.PLP.PLP>
-36.6382

> <Gold.PLP.part.hbond>
-1.9688

> <Gold.PLP.part.metal>
0.0000

> <Gold.PLP.part.buried>
-4.0174

> <Gold.PLP.part.nonpolar>
-31.0430

> <Gold.PLP.part.repulsive>
0.2941

> <Gold.PLP.ligand.clash>
0.0000

> <Gold.PLP.ligand.torsion>
0.2800

> <Gold.PLP.Chemscore.Hbond>
2.0000

> <Gold.PLP.Chemscore.CHOScore>
0.0000

> <Gold.PLP.Chemscore.Metal>
0.0000

> <Gold.Chemscore.Hbonds>
donor molecule, donor type, donor heavy atom, donor atom, acceptor molecule, acceptor atom, score
      P1  H  7989  7998       L1    18  1.00

> <Gold.PLP.Chemscore.Internal.Correction>
0.0242

> <Gold.Rescore>
     Score         DG    S(hbond)    S(metal)    S(lipo)     H(rot)  DE(clash)    DE(int)     intcor
     17.20     -17.56       1.36        0.00      86.35       1.00       0.11       0.25       ----

> <Gold.Chemscore.Fitness>
17.1994

> <Gold.Chemscore.DG>
-17.5601

> <Gold.Chemscore.ZeroCoef>
-5.4800

> <Gold.Chemscore.Hbond>
1.3585

> <Gold.Chemscore.Metal>
0.0000

> <Gold.Chemscore.Lipo>
86.3470

> <Gold.Chemscore.Internal_Hbond>
0.0000

> <Gold.Chemscore.DEClash>
0.1128

> <Gold.Chemscore.DEInternal>
0.2479

> <Gold.Chemscore.Rot>
1.0000

> <Gold.Chemscore.Internal.Correction>
   9.000000E+99

> <Gold.Chemscore.Hbonds>
donor molecule, donor type, donor heavy atom, donor atom, acceptor molecule, acceptor atom, score
      P1  H  7989  7998       L1    18  0.78

> <Gold.Chemscore.Hbond.Weighted>
-4.5375

> <Gold.Chemscore.Metal.Weighted>
-0.0000

> <Gold.Chemscore.Lipo.Weighted>
-10.1026

> <Gold.Chemscore.Internal_Hbond.Weighted>
0.0000

> <Gold.Chemscore.DEClash.Weighted>
0.1128

> <Gold.Chemscore.DEInternal.Weighted>
0.2479

> <Gold.Chemscore.Rot.Weighted>
2.5600

> <Gold.Chemscore.Internal.Correction.Weighted>
   9.000000E+99

> <Gold.Protein.RotatedTorsions>
[ 6907 6896 6895 6894 ] final  -81.99 input  -60.11 | X-H torsion
[ 7974 7965 7964 7962 ] final -142.60 input  175.53 | X-H torsion
[ 8008 7997 7996 7995 ] final -114.73 input   59.86 | X-H torsion
[ 10167 10162 10161 10158 ] final  -20.01 input  -65.29 | X-H torsion
[ 10718 10713 10712 10709 ] final  -74.32 input   66.30 | X-H torsion
[ 10763 10752 10751 10750 ] final   63.25 input  -60.55 | X-H torsion
[ 11005 11000 10999 10996 ] final  124.71 input  -57.11 | X-H torsion

> <Gold.Protein.ActiveResidues>
 VAL166  LYS551  ARG553  GLY616  TRP617  ASP618  TYR619  PRO620  LYS621  CYS622 
 ASP623  PHE694  ASN695  SER759  ASP760  ASP761  ALA762  ILE779  LEU786  VAL792 
 PHE793  MET794  SER795  GLU796  ALA797  LYS798  CYS799  TRP800  GLU811  SER814 

> <Gold.Protein.RotatedAtoms>
  150.6904  134.3734  159.5001 H   0  0  0  0  0  0  0  0  0  0  0  0  # atno 6907 bound_to 6896
  152.1546  134.8958  160.0555 H   0  0  0  0  0  0  0  0  0  0  0  0  # atno 6908 bound_to 6896
  152.0043  133.3802  159.4231 H   0  0  0  0  0  0  0  0  0  0  0  0  # atno 6909 bound_to 6896
  144.8431  140.5937  143.5439 H   0  0  0  0  0  0  0  0  0  0  0  0  # atno 7974 bound_to 7965
  155.0409  140.0392  157.2509 H   0  0  0  0  0  0  0  0  0  0  0  0  # atno 8008 bound_to 7997
  154.7217  140.2713  155.6511 H   0  0  0  0  0  0  0  0  0  0  0  0  # atno 8009 bound_to 7997
  156.2818  140.2701  156.1891 H   0  0  0  0  0  0  0  0  0  0  0  0  # atno 8010 bound_to 7997
  140.7273  143.4763  151.0178 H   0  0  0  0  0  0  0  0  0  0  0  0  # atno 10167 bound_to 10162
  156.0247  130.4414  150.2874 H   0  0  0  0  0  0  0  0  0  0  0  0  # atno 10718 bound_to 10713
  153.0011  135.5436  154.6322 H   0  0  0  0  0  0  0  0  0  0  0  0  # atno 10763 bound_to 10752
  154.5597  135.2833  155.0933 H   0  0  0  0  0  0  0  0  0  0  0  0  # atno 10764 bound_to 10752
  154.2141  135.6462  153.5177 H   0  0  0  0  0  0  0  0  0  0  0  0  # atno 10765 bound_to 10752
  139.9371  134.9638  156.8449 H   0  0  0  0  0  0  0  0  0  0  0  0  # atno 11005 bound_to 11000
  145.4653  139.1508  143.3844 LP  0  0  0  0  0  0  0  0  0  0  0  0  # atno 17320 bound_to 7965
  146.2720  140.4784  142.8810 LP  0  0  0  0  0  0  0  0  0  0  0  0  # atno 17321 bound_to 7965
  139.8459  143.7502  152.3179 LP  0  0  0  0  0  0  0  0  0  0  0  0  # atno 17342 bound_to 10162
  139.7667  144.7489  151.0283 LP  0  0  0  0  0  0  0  0  0  0  0  0  # atno 17343 bound_to 10162
  157.0978  131.0187  151.3097 LP  0  0  0  0  0  0  0  0  0  0  0  0  # atno 17370 bound_to 10713
  157.4804  130.7761  149.7408 LP  0  0  0  0  0  0  0  0  0  0  0  0  # atno 17371 bound_to 10713
  140.6046  134.0139  155.7551 LP  0  0  0  0  0  0  0  0  0  0  0  0  # atno 17394 bound_to 11000
  141.0990  133.9798  157.3111 LP  0  0  0  0  0  0  0  0  0  0  0  0  # atno 17395 bound_to 11000

$$$$
