AV-unprocessed.smi:2819|AV-procd|sdf|10851|dock1
  -GOLD-   2272015293D 1   1.00000     0.00000
 Structure written by MMmdl.
 51 52  0  0  0  0  0  0  0  0  3 V2000
  153.5806  141.2716  160.6167 C   0  0  0  0  0  0  0  0  0  0  0  0
  152.8229  142.5055  160.8001 N   0  0  0  0  0  0  0  0  0  0  0  0
  152.6592  143.0706  162.1336 C   0  0  0  0  0  0  0  0  0  0  0  0
  152.2011  143.1208  159.6912 C   0  0  0  0  0  0  0  0  0  0  0  0
  151.9933  144.5148  159.6228 C   0  0  0  0  0  0  0  0  0  0  0  0
  151.3647  145.0173  158.4701 C   0  0  0  0  0  0  0  0  0  0  0  0
  150.9794  144.1805  157.4770 N   0  3  0  0  0  0  0  0  0  0  0  0
  151.1999  142.8614  157.5895 C   0  0  0  0  0  0  0  0  0  0  0  0
  150.7747  142.0724  156.5420 N   0  0  0  0  0  0  0  0  0  0  0  0
  150.8360  140.7369  156.3754 C   0  0  0  0  0  0  0  0  0  0  0  0
  151.3383  139.9420  157.1707 O   0  0  0  0  0  0  0  0  0  0  0  0
  150.2733  140.3614  155.2162 N   0  0  0  0  0  0  0  0  0  0  0  0
  150.1982  138.9892  154.7132 C   0  0  0  0  0  0  0  0  0  0  0  0
  148.7799  138.3528  154.8359 C   0  0  0  0  0  0  0  0  0  0  0  0
  148.1817  138.6256  156.2389 C   0  0  0  0  0  0  0  0  0  0  0  0
  147.8183  139.0232  153.8228 C   0  0  0  0  0  0  0  0  0  0  0  0
  148.8229  136.8655  154.5891 N   0  3  0  0  0  0  0  0  0  0  0  0
  149.8756  136.1144  155.3309 C   0  0  0  0  0  0  0  0  0  0  0  0
  149.9350  134.6523  154.8580 C   0  0  0  0  0  0  0  0  0  0  0  0
  148.6651  134.0414  155.0337 O   0  0  0  0  0  0  0  0  0  0  0  0
  147.6631  134.6847  154.2598 C   0  0  0  0  0  0  0  0  0  0  0  0
  147.5211  136.1485  154.7099 C   0  0  0  0  0  0  0  0  0  0  0  0
  151.7970  142.3326  158.6691 N   0  0  0  0  0  0  0  0  0  0  0  0
  152.9321  140.4741  160.2532 H   0  0  0  0  0  0  0  0  0  0  0  0
  154.0298  140.9378  161.5521 H   0  0  0  0  0  0  0  0  0  0  0  0
  154.3857  141.4189  159.8959 H   0  0  0  0  0  0  0  0  0  0  0  0
  151.6031  143.1289  162.3983 H   0  0  0  0  0  0  0  0  0  0  0  0
  153.0878  144.0720  162.1816 H   0  0  0  0  0  0  0  0  0  0  0  0
  153.1564  142.4598  162.8874 H   0  0  0  0  0  0  0  0  0  0  0  0
  152.2972  145.1895  160.4093 H   0  0  0  0  0  0  0  0  0  0  0  0
  151.1566  146.0651  158.3100 H   0  0  0  0  0  0  0  0  0  0  0  0
  150.3449  142.5798  155.7830 H   0  0  0  0  0  0  0  0  0  0  0  0
  149.8809  141.0788  154.6235 H   0  0  0  0  0  0  0  0  0  0  0  0
  150.5036  139.0351  153.6685 H   0  0  0  0  0  0  0  0  0  0  0  0
  150.9476  138.3750  155.2127 H   0  0  0  0  0  0  0  0  0  0  0  0
  147.9346  139.6785  156.3774 H   0  0  0  0  0  0  0  0  0  0  0  0
  148.8729  138.3693  157.0417 H   0  0  0  0  0  0  0  0  0  0  0  0
  147.2609  138.0620  156.3949 H   0  0  0  0  0  0  0  0  0  0  0  0
  147.6065  140.0586  154.0915 H   0  0  0  0  0  0  0  0  0  0  0  0
  146.8605  138.5032  153.7795 H   0  0  0  0  0  0  0  0  0  0  0  0
  148.2308  139.0517  152.8145 H   0  0  0  0  0  0  0  0  0  0  0  0
  150.8610  136.5512  155.1815 H   0  0  0  0  0  0  0  0  0  0  0  0
  149.6722  136.1353  156.4016 H   0  0  0  0  0  0  0  0  0  0  0  0
  150.2429  134.5911  153.8128 H   0  0  0  0  0  0  0  0  0  0  0  0
  150.6737  134.1003  155.4396 H   0  0  0  0  0  0  0  0  0  0  0  0
  147.9086  134.6244  153.1982 H   0  0  0  0  0  0  0  0  0  0  0  0
  146.7195  134.1566  154.3980 H   0  0  0  0  0  0  0  0  0  0  0  0
  147.1691  136.1735  155.7411 H   0  0  0  0  0  0  0  0  0  0  0  0
  146.7501  136.6086  154.0949 H   0  0  0  0  0  0  0  0  0  0  0  0
  150.5239  144.5677  156.6501 H   0  0  0  0  0  0  0  0  0  0  0  0
  149.0777  136.7796  153.6153 H   0  0  0  0  0  0  0  0  0  0  0  0
  1  2  1  0  0  0  0
  1 24  1  0  0  0  0
  1 25  1  0  0  0  0
  1 26  1  0  0  0  0
  2  3  1  0  0  0  0
  2  4  1  0  0  0  0
  3 27  1  0  0  0  0
  3 28  1  0  0  0  0
  3 29  1  0  0  0  0
  4 23  1  0  0  0  0
  4  5  2  0  0  0  0
  5  6  1  0  0  0  0
  5 30  1  0  0  0  0
  6  7  2  0  0  0  0
  6 31  1  0  0  0  0
  7  8  1  0  0  0  0
  7 50  1  0  0  0  0
  8  9  1  0  0  0  0
  8 23  2  0  0  0  0
  9 10  1  0  0  0  0
  9 32  1  0  0  0  0
 10 11  2  0  0  0  0
 10 12  1  0  0  0  0
 12 13  1  0  0  0  0
 12 33  1  0  0  0  0
 13 14  1  0  0  0  0
 13 34  1  0  0  0  0
 13 35  1  0  0  0  0
 14 15  1  0  0  0  0
 14 16  1  0  0  0  0
 14 17  1  0  0  0  0
 15 36  1  0  0  0  0
 15 37  1  0  0  0  0
 15 38  1  0  0  0  0
 16 39  1  0  0  0  0
 16 40  1  0  0  0  0
 16 41  1  0  0  0  0
 17 22  1  0  0  0  0
 17 18  1  0  0  0  0
 17 51  1  0  0  0  0
 18 19  1  0  0  0  0
 18 42  1  0  0  0  0
 18 43  1  0  0  0  0
 19 20  1  0  0  0  0
 19 44  1  0  0  0  0
 19 45  1  0  0  0  0
 20 21  1  0  0  0  0
 21 22  1  0  0  0  0
 21 46  1  0  0  0  0
 21 47  1  0  0  0  0
 22 48  1  0  0  0  0
 22 49  1  0  0  0  0
M  CHG  1   7   1
M  CHG  1  17   1
M  END
> <s_m_source_file>
AV-unprocessed.smi

> <i_m_source_file_index>
2819

> <i_lp_mmshare_version>
43012

> <i_f3d_flags>
0

> <s_epik_input>
W0NIM11OKFtDSDNdKWMxW2NIXVtjSF1uYyhuMSlbTkhdQyg9TylbTkhdW0NIMl1DKFtDSDNdKShbQ0gzXSlOMltDSDJdW0NIMl1PW0NIMl1bQ0gyXTI=

> <s_epik_cmdline>
J2VwaWtfcHl0aG9uJywgJy1waCcsICc3LjAnLCAnLXRuJywgJzgnLCAnLW1hJywgJzIwMCcsICctbWV0YWxfYmluZGluZycsICctaW1hZScsICc8aW5maWxlLm1hZT4nLCAnLW9tYWUnLCAnPG91dGZpbGUubWFlPic=

> <r_lp_tautomer_probability>
0.999336

> <r_epik_Ionization_Penalty>
0.713728

> <r_epik_Ionization_Penalty_Charging>
0.713701

> <r_epik_Ionization_Penalty_Neutral>
2.70516e-05

> <r_epik_State_Penalty>
0.725459

> <r_epik_Charging_Adjusted_Penalty>
1.43916

> <i_epik_Tot_Q>
2

> <i_epik_Tot_abs_Q>
2

> <r_epik_Metal_State_Penalty>
1.06371

> <b_epik_Metal_Only>
0

> <s_lp_Force_Field>
OPLS_2005

> <r_lp_Energy>
33.0145

> <b_lp_Chiralities_Consistent>
1

> <s_lp_Variant>
AV-unprocessed.smi:2819-2

> <Gold.Version>
5.8.1

> <Gold.Id.Protein>
6NUR|6NUR_protein|mol2

> <Gold.PLP.Fitness>
54.2647

> <Gold.PLP.PLP>
-43.6002

> <Gold.PLP.part.hbond>
-2.0000

> <Gold.PLP.part.metal>
0.0000

> <Gold.PLP.part.buried>
-7.4365

> <Gold.PLP.part.nonpolar>
-34.3445

> <Gold.PLP.part.repulsive>
0.3063

> <Gold.PLP.ligand.clash>
0.0000

> <Gold.PLP.ligand.torsion>
0.7095

> <Gold.PLP.Chemscore.Hbond>
3.9840

> <Gold.PLP.Chemscore.CHOScore>
0.0000

> <Gold.PLP.Chemscore.Metal>
0.0000

> <Gold.Chemscore.Hbonds>
donor molecule, donor type, donor heavy atom, donor atom, acceptor molecule, acceptor atom, score
      L1  H     7    50       P1  8028  1.89
      L1  H    17    51       P1  7948  2.00

> <Gold.PLP.Chemscore.Internal.Correction>
0.1316

> <Gold.Rescore>
     Score         DG    S(hbond)    S(metal)    S(lipo)     H(rot)  DE(clash)    DE(int)     intcor
     14.97     -16.86       1.91        0.00      77.12       1.57       0.07       1.82       ----

> <Gold.Chemscore.Fitness>
14.9723

> <Gold.Chemscore.DG>
-16.8603

> <Gold.Chemscore.ZeroCoef>
-5.4800

> <Gold.Chemscore.Hbond>
1.9102

> <Gold.Chemscore.Metal>
0.0000

> <Gold.Chemscore.Lipo>
77.1170

> <Gold.Chemscore.Internal_Hbond>
0.0000

> <Gold.Chemscore.DEClash>
0.0719

> <Gold.Chemscore.DEInternal>
1.8161

> <Gold.Chemscore.Rot>
1.5713

> <Gold.Chemscore.Internal.Correction>
   9.000000E+99

> <Gold.Chemscore.Hbonds>
donor molecule, donor type, donor heavy atom, donor atom, acceptor molecule, acceptor atom, score
      L1  H     7    50       P1  8028  0.87
      L1  H    17    51       P1  7948  0.99

> <Gold.Chemscore.Hbond.Weighted>
-6.3801

> <Gold.Chemscore.Metal.Weighted>
-0.0000

> <Gold.Chemscore.Lipo.Weighted>
-9.0227

> <Gold.Chemscore.Internal_Hbond.Weighted>
0.0000

> <Gold.Chemscore.DEClash.Weighted>
0.0719

> <Gold.Chemscore.DEInternal.Weighted>
1.8161

> <Gold.Chemscore.Rot.Weighted>
4.0225

> <Gold.Chemscore.Internal.Correction.Weighted>
   9.000000E+99

> <Gold.Protein.RotatedTorsions>
[ 6907 6896 6895 6894 ] final  154.28 input  -60.11 | X-H torsion
[ 7974 7965 7964 7962 ] final   29.04 input  175.53 | X-H torsion
[ 8008 7997 7996 7995 ] final -117.24 input   59.86 | X-H torsion
[ 10167 10162 10161 10158 ] final   16.07 input  -65.29 | X-H torsion
[ 10718 10713 10712 10709 ] final -178.93 input   66.30 | X-H torsion
[ 10763 10752 10751 10750 ] final   49.04 input  -60.55 | X-H torsion
[ 11005 11000 10999 10996 ] final -144.70 input  -57.11 | X-H torsion

> <Gold.Protein.ActiveResidues>
 VAL166  LYS551  ARG553  GLY616  TRP617  ASP618  TYR619  PRO620  LYS621  CYS622 
 ASP623  PHE694  ASN695  SER759  ASP760  ASP761  ALA762  ILE779  LEU786  VAL792 
 PHE793  MET794  SER795  GLU796  ALA797  LYS798  CYS799  TRP800  GLU811  SER814 

> <Gold.Protein.RotatedAtoms>
  152.0608  133.4061  159.4416 H   0  0  0  0  0  0  0  0  0  0  0  0  # atno 6907 bound_to 6896
  150.6866  134.3203  159.4793 H   0  0  0  0  0  0  0  0  0  0  0  0  # atno 6908 bound_to 6896
  152.1024  134.9332  160.0620 H   0  0  0  0  0  0  0  0  0  0  0  0  # atno 6909 bound_to 6896
  146.1694  139.6975  142.8978 H   0  0  0  0  0  0  0  0  0  0  0  0  # atno 7974 bound_to 7965
  155.0806  140.0394  157.2638 H   0  0  0  0  0  0  0  0  0  0  0  0  # atno 8008 bound_to 7997
  154.6909  140.2653  155.6788 H   0  0  0  0  0  0  0  0  0  0  0  0  # atno 8009 bound_to 7997
  156.2728  140.2759  156.1487 H   0  0  0  0  0  0  0  0  0  0  0  0  # atno 8010 bound_to 7997
  140.5823  143.8957  150.6800 H   0  0  0  0  0  0  0  0  0  0  0  0  # atno 10167 bound_to 10162
  156.8515  130.9721  151.3092 H   0  0  0  0  0  0  0  0  0  0  0  0  # atno 10718 bound_to 10713
  152.9788  135.5924  154.4025 H   0  0  0  0  0  0  0  0  0  0  0  0  # atno 10763 bound_to 10752
  154.3669  135.2767  155.2290 H   0  0  0  0  0  0  0  0  0  0  0  0  # atno 10764 bound_to 10752
  154.4263  135.6047  153.6095 H   0  0  0  0  0  0  0  0  0  0  0  0  # atno 10765 bound_to 10752
  140.7998  134.2870  157.4983 H   0  0  0  0  0  0  0  0  0  0  0  0  # atno 11005 bound_to 11000
  145.4380  141.0420  143.2873 LP  0  0  0  0  0  0  0  0  0  0  0  0  # atno 17320 bound_to 7965
  144.8141  139.5909  143.7016 LP  0  0  0  0  0  0  0  0  0  0  0  0  # atno 17321 bound_to 7965
  140.2460  143.3629  152.1447 LP  0  0  0  0  0  0  0  0  0  0  0  0  # atno 17342 bound_to 10162
  139.5177  144.6995  151.5534 LP  0  0  0  0  0  0  0  0  0  0  0  0  # atno 17343 bound_to 10162
  157.6301  130.8722  149.9258 LP  0  0  0  0  0  0  0  0  0  0  0  0  # atno 17370 bound_to 10713
  156.0825  130.3671  150.0551 LP  0  0  0  0  0  0  0  0  0  0  0  0  # atno 17371 bound_to 10713
  139.8723  134.9423  156.3820 LP  0  0  0  0  0  0  0  0  0  0  0  0  # atno 17394 bound_to 11000
  140.9306  133.7582  156.0020 LP  0  0  0  0  0  0  0  0  0  0  0  0  # atno 17395 bound_to 11000

$$$$
