AV-unprocessed.smi:2173|AV-procd|sdf|8841|dock6
  -GOLD-   2272012 33D 1   1.00000     0.00000
 Structure written by MMmdl.
 36 37  0  0  0  0  0  0  0  0  2 V2000
  150.1715  140.2723  158.2471 O   0  0  0  0  0  0  0  0  0  0  0  0
  151.1432  140.6762  157.6082 C   0  0  0  0  0  0  0  0  0  0  0  0
  151.6184  140.0500  156.5208 N   0  0  0  0  0  0  0  0  0  0  0  0
  151.0548  138.8393  155.9303 C   0  0  0  0  0  0  0  0  0  0  0  0
  150.8088  138.9488  154.4098 C   0  0  0  0  0  0  0  0  0  0  0  0
  149.4640  139.5541  154.0427 C   0  0  0  0  0  0  0  0  0  0  0  0
  149.0868  140.8501  154.4561 C   0  0  0  0  0  0  0  0  0  0  0  0
  147.8152  141.3445  154.0975 C   0  0  0  0  0  0  0  0  0  0  0  0
  146.9480  140.5337  153.3360 C   0  0  0  0  0  0  0  0  0  0  0  0
  147.3758  139.2474  152.9493 C   0  0  0  0  0  0  0  0  0  0  0  0
  148.6016  138.8107  153.3114 N   0  3  0  0  0  0  0  0  0  0  0  0
  151.8601  141.9680  158.0205 C   0  0  1  0  0  0  0  0  0  0  0  0
  150.9553  143.1998  157.7874 C   0  0  0  0  0  0  0  0  0  0  0  0
  151.5302  144.4588  158.4117 C   0  0  0  0  0  0  0  0  0  0  0  0
  152.5069  144.4459  159.3348 C   0  0  0  0  0  0  0  0  0  0  0  0
  153.1426  143.1714  159.8617 C   0  0  0  0  0  0  0  0  0  0  0  0
  152.3327  141.9153  159.4872 C   0  0  0  0  0  0  0  0  0  0  0  0
  152.4256  140.4473  156.0618 H   0  0  0  0  0  0  0  0  0  0  0  0
  151.7633  138.0327  156.1198 H   0  0  0  0  0  0  0  0  0  0  0  0
  150.1329  138.5652  156.4452 H   0  0  0  0  0  0  0  0  0  0  0  0
  151.6019  139.5430  153.9544 H   0  0  0  0  0  0  0  0  0  0  0  0
  150.8808  137.9602  153.9542 H   0  0  0  0  0  0  0  0  0  0  0  0
  149.7603  141.4570  155.0438 H   0  0  0  0  0  0  0  0  0  0  0  0
  147.5078  142.3332  154.4053 H   0  0  0  0  0  0  0  0  0  0  0  0
  145.9690  140.8928  153.0536 H   0  0  0  0  0  0  0  0  0  0  0  0
  146.7793  138.5591  152.3686 H   0  0  0  0  0  0  0  0  0  0  0  0
  152.7481  142.0780  157.3946 H   0  0  0  0  0  0  0  0  0  0  0  0
  150.8320  143.3697  156.7173 H   0  0  0  0  0  0  0  0  0  0  0  0
  149.9580  143.0446  158.2017 H   0  0  0  0  0  0  0  0  0  0  0  0
  151.1078  145.3995  158.0898 H   0  0  0  0  0  0  0  0  0  0  0  0
  152.8833  145.3776  159.7311 H   0  0  0  0  0  0  0  0  0  0  0  0
  154.1515  143.1046  159.4540 H   0  0  0  0  0  0  0  0  0  0  0  0
  153.2415  143.2399  160.9454 H   0  0  0  0  0  0  0  0  0  0  0  0
  151.4667  141.8411  160.1471 H   0  0  0  0  0  0  0  0  0  0  0  0
  152.9349  141.0239  159.6692 H   0  0  0  0  0  0  0  0  0  0  0  0
  148.8900  137.8747  153.0245 H   0  0  0  0  0  0  0  0  0  0  0  0
  1  2  2  0  0  0  0
  2  3  1  0  0  0  0
  2 12  1  0  0  0  0
  3  4  1  0  0  0  0
  3 18  1  0  0  0  0
  4  5  1  0  0  0  0
  4 19  1  0  0  0  0
  4 20  1  0  0  0  0
  5  6  1  0  0  0  0
  5 21  1  0  0  0  0
  5 22  1  0  0  0  0
  6 11  1  0  0  0  0
  6  7  2  0  0  0  0
  7  8  1  0  0  0  0
  7 23  1  0  0  0  0
  8  9  2  0  0  0  0
  8 24  1  0  0  0  0
  9 10  1  0  0  0  0
  9 25  1  0  0  0  0
 10 11  2  0  0  0  0
 10 26  1  0  0  0  0
 11 36  1  0  0  0  0
 12 17  1  0  0  0  0
 12 13  1  0  0  0  0
 12 27  1  0  0  0  0
 13 14  1  0  0  0  0
 13 28  1  0  0  0  0
 13 29  1  0  0  0  0
 14 15  2  0  0  0  0
 14 30  1  0  0  0  0
 15 16  1  0  0  0  0
 15 31  1  0  0  0  0
 16 17  1  0  0  0  0
 16 32  1  0  0  0  0
 16 33  1  0  0  0  0
 17 34  1  0  0  0  0
 17 35  1  0  0  0  0
M  CHG  1  11   1
M  END
> <s_m_source_file>
AV-unprocessed.smi

> <i_m_source_file_index>
2173

> <i_lp_mmshare_version>
43012

> <i_f3d_flags>
0

> <s_epik_input>
W0NIMl0xW0NIMl1bQ0hdPVtDSF1bQ0gyXVtDQEhdMUMoPU8pW05IXVtDSDJdW0NIMl1jMltjSF1bY0hdW2NIXVtjSF1uMg==

> <s_epik_cmdline>
J2VwaWtfcHl0aG9uJywgJy1waCcsICc3LjAnLCAnLXRuJywgJzgnLCAnLW1hJywgJzIwMCcsICctbWV0YWxfYmluZGluZycsICctaW1hZScsICc8aW5maWxlLm1hZT4nLCAnLW9tYWUnLCAnPG91dGZpbGUubWFlPic=

> <r_epik_Ionization_Penalty>
1.84586

> <r_epik_Ionization_Penalty_Charging>
1.84586

> <r_epik_Ionization_Penalty_Neutral>
1.53635e-08

> <r_epik_State_Penalty>
1.96297

> <r_epik_Charging_Adjusted_Penalty>
3.80883

> <i_epik_Tot_Q>
1

> <i_epik_Tot_abs_Q>
1

> <r_epik_Metal_State_Penalty>
1.98887

> <b_epik_Metal_Only>
0

> <s_lp_Force_Field>
OPLS_2005

> <r_lp_Energy>
13.9489

> <b_lp_Chiralities_Consistent>
1

> <s_lp_Variant>
AV-unprocessed.smi:2173-4

> <Gold.Version>
5.8.1

> <Gold.Id.Protein>
6NUR|6NUR_protein|mol2

> <Gold.PLP.Fitness>
45.0525

> <Gold.PLP.PLP>
-39.6092

> <Gold.PLP.part.hbond>
-2.0000

> <Gold.PLP.part.metal>
0.0000

> <Gold.PLP.part.buried>
-0.7818

> <Gold.PLP.part.nonpolar>
-37.2575

> <Gold.PLP.part.repulsive>
0.1681

> <Gold.PLP.ligand.clash>
0.0000

> <Gold.PLP.ligand.torsion>
0.2898

> <Gold.PLP.Chemscore.Hbond>
2.0000

> <Gold.PLP.Chemscore.CHOScore>
0.0000

> <Gold.PLP.Chemscore.Metal>
0.0000

> <Gold.Chemscore.Hbonds>
donor molecule, donor type, donor heavy atom, donor atom, acceptor molecule, acceptor atom, score
      L1  H    11    36       P1  7948  2.00

> <Gold.PLP.Chemscore.Internal.Correction>
0.0229

> <Gold.Rescore>
     Score         DG    S(hbond)    S(metal)    S(lipo)     H(rot)  DE(clash)    DE(int)     intcor
     18.31     -18.76       0.97        0.00     118.12       1.48       0.22       0.22       ----

> <Gold.Chemscore.Fitness>
18.3124

> <Gold.Chemscore.DG>
-18.7564

> <Gold.Chemscore.ZeroCoef>
-5.4800

> <Gold.Chemscore.Hbond>
0.9716

> <Gold.Chemscore.Metal>
0.0000

> <Gold.Chemscore.Lipo>
118.1236

> <Gold.Chemscore.Internal_Hbond>
0.0000

> <Gold.Chemscore.DEClash>
0.2225

> <Gold.Chemscore.DEInternal>
0.2216

> <Gold.Chemscore.Rot>
1.4801

> <Gold.Chemscore.Internal.Correction>
   9.000000E+99

> <Gold.Chemscore.Hbonds>
donor molecule, donor type, donor heavy atom, donor atom, acceptor molecule, acceptor atom, score
      L1  H    11    36       P1  7948  0.96

> <Gold.Chemscore.Hbond.Weighted>
-3.2451

> <Gold.Chemscore.Metal.Weighted>
-0.0000

> <Gold.Chemscore.Lipo.Weighted>
-13.8205

> <Gold.Chemscore.Internal_Hbond.Weighted>
0.0000

> <Gold.Chemscore.DEClash.Weighted>
0.2225

> <Gold.Chemscore.DEInternal.Weighted>
0.2216

> <Gold.Chemscore.Rot.Weighted>
3.7892

> <Gold.Chemscore.Internal.Correction.Weighted>
   9.000000E+99

> <Gold.Protein.RotatedTorsions>
[ 6907 6896 6895 6894 ] final    8.58 input  -60.11 | X-H torsion
[ 7974 7965 7964 7962 ] final  175.58 input  175.53 | X-H torsion
[ 8008 7997 7996 7995 ] final   82.78 input   59.86 | X-H torsion
[ 10167 10162 10161 10158 ] final  -82.64 input  -65.29 | X-H torsion
[ 10718 10713 10712 10709 ] final  -55.54 input   66.30 | X-H torsion
[ 10763 10752 10751 10750 ] final  -30.37 input  -60.55 | X-H torsion
[ 11005 11000 10999 10996 ] final  -19.92 input  -57.11 | X-H torsion

> <Gold.Protein.ActiveResidues>
 VAL166  LYS551  ARG553  GLY616  TRP617  ASP618  TYR619  PRO620  LYS621  CYS622 
 ASP623  PHE694  ASN695  SER759  ASP760  ASP761  ALA762  ILE779  LEU786  VAL792 
 PHE793  MET794  SER795  GLU796  ALA797  LYS798  CYS799  TRP800  GLU811  SER814 

> <Gold.Protein.RotatedAtoms>
  151.7083  135.0917  160.0262 H   0  0  0  0  0  0  0  0  0  0  0  0  # atno 6907 bound_to 6896
  152.3678  133.6375  159.6072 H   0  0  0  0  0  0  0  0  0  0  0  0  # atno 6908 bound_to 6896
  150.7650  133.9236  159.3447 H   0  0  0  0  0  0  0  0  0  0  0  0  # atno 6909 bound_to 6896
  144.7199  139.9967  143.6440 H   0  0  0  0  0  0  0  0  0  0  0  0  # atno 7974 bound_to 7965
  155.9152  140.3425  155.6130 H   0  0  0  0  0  0  0  0  0  0  0  0  # atno 8008 bound_to 7997
  155.7339  140.0799  157.2295 H   0  0  0  0  0  0  0  0  0  0  0  0  # atno 8009 bound_to 7997
  154.4061  140.1583  156.2527 H   0  0  0  0  0  0  0  0  0  0  0  0  # atno 8010 bound_to 7997
  140.4301  143.2552  151.8771 H   0  0  0  0  0  0  0  0  0  0  0  0  # atno 10167 bound_to 10162
  156.1361  130.4157  150.0184 H   0  0  0  0  0  0  0  0  0  0  0  0  # atno 10718 bound_to 10713
  153.7799  135.6906  153.4890 H   0  0  0  0  0  0  0  0  0  0  0  0  # atno 10763 bound_to 10752
  153.1818  135.4503  155.0037 H   0  0  0  0  0  0  0  0  0  0  0  0  # atno 10764 bound_to 10752
  154.8085  135.3367  154.7303 H   0  0  0  0  0  0  0  0  0  0  0  0  # atno 10765 bound_to 10752
  140.8413  133.7924  155.9864 H   0  0  0  0  0  0  0  0  0  0  0  0  # atno 11005 bound_to 11000
  146.0368  139.3385  143.0722 LP  0  0  0  0  0  0  0  0  0  0  0  0  # atno 17320 bound_to 7965
  145.8384  140.9593  143.0812 LP  0  0  0  0  0  0  0  0  0  0  0  0  # atno 17321 bound_to 7965
  139.4784  144.5344  151.8620 LP  0  0  0  0  0  0  0  0  0  0  0  0  # atno 17342 bound_to 10162
  140.4436  144.1952  150.5893 LP  0  0  0  0  0  0  0  0  0  0  0  0  # atno 17343 bound_to 10162
  156.8083  130.9315  151.3644 LP  0  0  0  0  0  0  0  0  0  0  0  0  # atno 17370 bound_to 10713
  157.6533  130.8903  149.9677 LP  0  0  0  0  0  0  0  0  0  0  0  0  # atno 17371 bound_to 10713
  140.8891  134.2517  157.5104 LP  0  0  0  0  0  0  0  0  0  0  0  0  # atno 17394 bound_to 11000
  139.8703  134.9653  156.4523 LP  0  0  0  0  0  0  0  0  0  0  0  0  # atno 17395 bound_to 11000

$$$$
