AV-unprocessed.smi:2061|AV-procd|sdf|8384|dock3
  -GOLD-   2272011 63D 1   1.00000     0.00000
 Structure written by MMmdl.
 45 46  0  0  0  0  0  0  0  0  3 V2000
  146.9136  136.1288  163.1160 C   0  0  0  0  0  0  0  0  0  0  0  0
  147.4476  135.9225  161.7393 C   0  0  0  0  0  0  0  0  0  0  0  0
  147.8765  134.8133  161.0671 C   0  0  0  0  0  0  0  0  0  0  0  0
  148.2441  135.3271  159.7934 C   0  0  0  0  0  0  0  0  0  0  0  0
  148.7454  134.6175  158.7705 N   0  5  0  0  0  0  0  0  0  0  0  0
  148.9975  135.2146  157.5838 C   0  0  0  0  0  0  0  0  0  0  0  0
  149.6214  136.2638  157.4084 O   0  0  0  0  0  0  0  0  0  0  0  0
  148.4883  134.5575  156.5322 N   0  0  0  0  0  0  0  0  0  0  0  0
  148.5835  134.9793  155.1382 C   0  0  0  0  0  0  0  0  0  0  0  0
  148.2121  133.8534  154.1377 C   0  0  2  0  0  0  0  0  0  0  0  0
  149.4904  133.2851  153.4744 C   0  0  0  0  0  0  0  0  0  0  0  0
  147.1973  134.3571  153.1563 N   0  3  1  0  0  0  0  0  0  0  0  0
  146.7522  133.3851  152.1219 C   0  0  0  0  0  0  0  0  0  0  0  0
  145.7850  134.0462  151.1217 C   0  0  1  0  0  0  0  0  0  0  0  0
  145.2312  133.0373  150.1096 C   0  0  0  0  0  0  0  0  0  0  0  0
  144.6802  134.6148  151.8160 O   0  0  0  0  0  0  0  0  0  0  0  0
  145.0347  135.5735  152.8096 C   0  0  2  0  0  0  0  0  0  0  0  0
  145.5487  136.8915  152.2024 C   0  0  0  0  0  0  0  0  0  0  0  0
  146.0047  134.9428  153.8257 C   0  0  0  0  0  0  0  0  0  0  0  0
  148.0702  136.6352  159.7067 N   0  0  0  0  0  0  0  0  0  0  0  0
  147.5529  137.0238  160.9481 O   0  0  0  0  0  0  0  0  0  0  0  0
  147.5517  135.6430  163.8542 H   0  0  0  0  0  0  0  0  0  0  0  0
  145.9115  135.7100  163.2065 H   0  0  0  0  0  0  0  0  0  0  0  0
  146.8605  137.1894  163.3629 H   0  0  0  0  0  0  0  0  0  0  0  0
  147.9179  133.7963  161.4267 H   0  0  0  0  0  0  0  0  0  0  0  0
  147.9899  133.6995  156.7193 H   0  0  0  0  0  0  0  0  0  0  0  0
  147.9622  135.8650  155.0100 H   0  0  0  0  0  0  0  0  0  0  0  0
  149.6085  135.3052  154.9589 H   0  0  0  0  0  0  0  0  0  0  0  0
  147.7543  133.0285  154.6861 H   0  0  0  0  0  0  0  0  0  0  0  0
  150.2170  132.9546  154.2163 H   0  0  0  0  0  0  0  0  0  0  0  0
  149.9811  134.0318  152.8493 H   0  0  0  0  0  0  0  0  0  0  0  0
  149.2779  132.4087  152.8620 H   0  0  0  0  0  0  0  0  0  0  0  0
  147.6008  133.0111  151.5500 H   0  0  0  0  0  0  0  0  0  0  0  0
  146.2787  132.5289  152.6053 H   0  0  0  0  0  0  0  0  0  0  0  0
  146.3094  134.8243  150.5666 H   0  0  0  0  0  0  0  0  0  0  0  0
  146.0338  132.5805  149.5300 H   0  0  0  0  0  0  0  0  0  0  0  0
  144.5508  133.5220  149.4088 H   0  0  0  0  0  0  0  0  0  0  0  0
  144.6814  132.2383  150.6080 H   0  0  0  0  0  0  0  0  0  0  0  0
  144.1109  135.8111  153.3382 H   0  0  0  0  0  0  0  0  0  0  0  0
  145.6857  137.6452  152.9783 H   0  0  0  0  0  0  0  0  0  0  0  0
  144.8366  137.2904  151.4796 H   0  0  0  0  0  0  0  0  0  0  0  0
  146.5070  136.7714  151.6978 H   0  0  0  0  0  0  0  0  0  0  0  0
  145.4876  134.1553  154.3767 H   0  0  0  0  0  0  0  0  0  0  0  0
  146.2858  135.6950  154.5606 H   0  0  0  0  0  0  0  0  0  0  0  0
  147.6498  135.1059  152.6516 H   0  0  0  0  0  0  0  0  0  0  0  0
  1  2  1  0  0  0  0
  1 22  1  0  0  0  0
  1 23  1  0  0  0  0
  1 24  1  0  0  0  0
  2 21  1  0  0  0  0
  2  3  2  0  0  0  0
  3  4  1  0  0  0  0
  3 25  1  0  0  0  0
  4  5  1  0  0  0  0
  4 20  2  0  0  0  0
  5  6  1  0  0  0  0
  6  7  2  0  0  0  0
  6  8  1  0  0  0  0
  8  9  1  0  0  0  0
  8 26  1  0  0  0  0
  9 10  1  0  0  0  0
  9 27  1  0  0  0  0
  9 28  1  0  0  0  0
 10 11  1  0  0  0  0
 10 12  1  0  0  0  0
 10 29  1  0  0  0  0
 11 30  1  0  0  0  0
 11 31  1  0  0  0  0
 11 32  1  0  0  0  0
 12 19  1  0  0  0  0
 12 13  1  0  0  0  0
 12 45  1  0  0  0  0
 13 14  1  0  0  0  0
 13 33  1  0  0  0  0
 13 34  1  0  0  0  0
 14 15  1  0  0  0  0
 14 16  1  0  0  0  0
 14 35  1  0  0  0  0
 15 36  1  0  0  0  0
 15 37  1  0  0  0  0
 15 38  1  0  0  0  0
 16 17  1  0  0  0  0
 17 18  1  0  0  0  0
 17 19  1  0  0  0  0
 17 39  1  0  0  0  0
 18 40  1  0  0  0  0
 18 41  1  0  0  0  0
 18 42  1  0  0  0  0
 19 43  1  0  0  0  0
 19 44  1  0  0  0  0
 20 21  1  0  0  0  0
M  CHG  1   5  -1
M  CHG  1  12   1
M  END
> <s_m_source_file>
AV-unprocessed.smi

> <i_m_source_file_index>
2061

> <i_lp_mmshare_version>
43012

> <i_f3d_flags>
0

> <s_epik_input>
W0NIM11jMVtjSF1jKG5vMSlbTkhdQyg9TylbTkhdW0NIMl1bQ0BIXShbQ0gzXSlOMltDSDJdW0NAQEhdKFtDSDNdKU9bQ0BASF0oW0NIM10pW0NIMl0y

> <s_epik_cmdline>
J2VwaWtfcHl0aG9uJywgJy1waCcsICc3LjAnLCAnLXRuJywgJzgnLCAnLW1hJywgJzIwMCcsICctbWV0YWxfYmluZGluZycsICctaW1hZScsICc8aW5maWxlLm1hZT4nLCAnLW9tYWUnLCAnPG91dGZpbGUubWFlPic=

> <r_epik_Ionization_Penalty>
6.73511

> <r_epik_Ionization_Penalty_Charging>
6.73502

> <r_epik_Ionization_Penalty_Neutral>
9.50841e-05

> <r_epik_State_Penalty>
6.93549

> <r_epik_Charging_Adjusted_Penalty>
13.6705

> <i_epik_Tot_Q>
0

> <i_epik_Tot_abs_Q>
2

> <r_epik_Metal_State_Penalty>
2.87211

> <b_epik_Metal_Only>
1

> <s_lp_Force_Field>
OPLS_2005

> <r_lp_Energy>
11.3742

> <b_lp_Chiralities_Consistent>
1

> <s_lp_Variant>
AV-unprocessed.smi:2061-25

> <Gold.Version>
5.8.1

> <Gold.Id.Protein>
6NUR|6NUR_protein|mol2

> <Gold.PLP.Fitness>
43.9048

> <Gold.PLP.PLP>
-28.9087

> <Gold.PLP.part.hbond>
-4.0000

> <Gold.PLP.part.metal>
0.0000

> <Gold.PLP.part.buried>
-5.0453

> <Gold.PLP.part.nonpolar>
-19.5637

> <Gold.PLP.part.repulsive>
0.1483

> <Gold.PLP.ligand.clash>
0.0000

> <Gold.PLP.ligand.torsion>
1.2121

> <Gold.PLP.Chemscore.Hbond>
5.7600

> <Gold.PLP.Chemscore.CHOScore>
0.0000

> <Gold.PLP.Chemscore.Metal>
0.0000

> <Gold.Chemscore.Hbonds>
donor molecule, donor type, donor heavy atom, donor atom, acceptor molecule, acceptor atom, score
      L1  H    12    45       P1  7948  2.00
      P1  H  6896  6907       L1     5  1.92
      P1  H  6931  6943       L1    21  0.66
      P1  H  6934  6947       L1    21  0.98

> <Gold.PLP.Chemscore.Internal.Correction>
0.1404

> <Gold.Rescore>
     Score         DG    S(hbond)    S(metal)    S(lipo)     H(rot)  DE(clash)    DE(int)     intcor
     15.08     -17.77       2.42        0.00      69.94       1.56       0.04       2.66       ----

> <Gold.Chemscore.Fitness>
15.0770

> <Gold.Chemscore.DG>
-17.7749

> <Gold.Chemscore.ZeroCoef>
-5.4800

> <Gold.Chemscore.Hbond>
2.4229

> <Gold.Chemscore.Metal>
0.0000

> <Gold.Chemscore.Lipo>
69.9422

> <Gold.Chemscore.Internal_Hbond>
0.0000

> <Gold.Chemscore.DEClash>
0.0370

> <Gold.Chemscore.DEInternal>
2.6610

> <Gold.Chemscore.Rot>
1.5550

> <Gold.Chemscore.Internal.Correction>
   9.000000E+99

> <Gold.Chemscore.Hbonds>
donor molecule, donor type, donor heavy atom, donor atom, acceptor molecule, acceptor atom, score
      L1  H    12    45       P1  7948  0.99
      P1  H  6896  6907       L1     5  0.12
      P1  H  6931  6943       L1    21  0.19
      P1  H  6934  6947       L1    21  0.62

> <Gold.Chemscore.Hbond.Weighted>
-8.0925

> <Gold.Chemscore.Metal.Weighted>
-0.0000

> <Gold.Chemscore.Lipo.Weighted>
-8.1832

> <Gold.Chemscore.Internal_Hbond.Weighted>
0.0000

> <Gold.Chemscore.DEClash.Weighted>
0.0370

> <Gold.Chemscore.DEInternal.Weighted>
2.6610

> <Gold.Chemscore.Rot.Weighted>
3.9809

> <Gold.Chemscore.Internal.Correction.Weighted>
   9.000000E+99

> <Gold.Protein.RotatedTorsions>
[ 6907 6896 6895 6894 ] final  -98.31 input  -60.11 | X-H torsion
[ 7974 7965 7964 7962 ] final  144.24 input  175.53 | X-H torsion
[ 8008 7997 7996 7995 ] final   12.79 input   59.86 | X-H torsion
[ 10167 10162 10161 10158 ] final   -3.67 input  -65.29 | X-H torsion
[ 10718 10713 10712 10709 ] final  172.62 input   66.30 | X-H torsion
[ 10763 10752 10751 10750 ] final  -38.99 input  -60.55 | X-H torsion
[ 11005 11000 10999 10996 ] final  131.82 input  -57.11 | X-H torsion

> <Gold.Protein.ActiveResidues>
 VAL166  LYS551  ARG553  GLY616  TRP617  ASP618  TYR619  PRO620  LYS621  CYS622 
 ASP623  PHE694  ASN695  SER759  ASP760  ASP761  ALA762  ILE779  LEU786  VAL792 
 PHE793  MET794  SER795  GLU796  ALA797  LYS798  CYS799  TRP800  GLU811  SER814 

> <Gold.Protein.RotatedAtoms>
  150.7043  134.1214  159.4035 H   0  0  0  0  0  0  0  0  0  0  0  0  # atno 6907 bound_to 6896
  151.9200  135.0300  160.0530 H   0  0  0  0  0  0  0  0  0  0  0  0  # atno 6908 bound_to 6896
  152.2264  133.4988  159.5228 H   0  0  0  0  0  0  0  0  0  0  0  0  # atno 6909 bound_to 6896
  144.8853  139.5638  143.5824 H   0  0  0  0  0  0  0  0  0  0  0  0  # atno 7974 bound_to 7965
  154.8255  140.2891  155.5757 H   0  0  0  0  0  0  0  0  0  0  0  0  # atno 8008 bound_to 7997
  156.3001  140.2542  156.3101 H   0  0  0  0  0  0  0  0  0  0  0  0  # atno 8009 bound_to 7997
  154.9290  140.0384  157.2027 H   0  0  0  0  0  0  0  0  0  0  0  0  # atno 8010 bound_to 7997
  140.6899  143.6513  150.8348 H   0  0  0  0  0  0  0  0  0  0  0  0  # atno 10167 bound_to 10162
  156.9763  131.0105  151.2893 H   0  0  0  0  0  0  0  0  0  0  0  0  # atno 10718 bound_to 10713
  153.9220  135.6781  153.4747 H   0  0  0  0  0  0  0  0  0  0  0  0  # atno 10763 bound_to 10752
  153.1023  135.4822  154.8887 H   0  0  0  0  0  0  0  0  0  0  0  0  # atno 10764 bound_to 10752
  154.7473  135.3175  154.8578 H   0  0  0  0  0  0  0  0  0  0  0  0  # atno 10765 bound_to 10752
  139.9753  134.9565  156.9494 H   0  0  0  0  0  0  0  0  0  0  0  0  # atno 11005 bound_to 11000
  146.3020  139.7457  142.9084 LP  0  0  0  0  0  0  0  0  0  0  0  0  # atno 17320 bound_to 7965
  145.3881  141.0368  143.3139 LP  0  0  0  0  0  0  0  0  0  0  0  0  # atno 17321 bound_to 7965
  140.0224  143.5528  152.2795 LP  0  0  0  0  0  0  0  0  0  0  0  0  # atno 17342 bound_to 10162
  139.6291  144.7641  151.2574 LP  0  0  0  0  0  0  0  0  0  0  0  0  # atno 17343 bound_to 10162
  157.5557  130.8212  149.8202 LP  0  0  0  0  0  0  0  0  0  0  0  0  # atno 17370 bound_to 10713
  156.0262  130.3779  150.1816 LP  0  0  0  0  0  0  0  0  0  0  0  0  # atno 17371 bound_to 10713
  140.5207  134.0910  155.7291 LP  0  0  0  0  0  0  0  0  0  0  0  0  # atno 17394 bound_to 11000
  141.1430  133.9104  157.2281 LP  0  0  0  0  0  0  0  0  0  0  0  0  # atno 17395 bound_to 11000

$$$$
