AV-unprocessed.smi:1162|AV-procd|sdf|4919|dock10
  -GOLD-   22720 3503D 1   1.00000     0.00000
 Structure written by MMmdl.
 44 45  0  0  0  0  0  0  0  0  1 V2000
  153.6068  139.1595  158.9392 C   0  0  0  0  0  0  0  0  0  0  0  0
  153.1557  139.6710  157.6898 O   0  0  0  0  0  0  0  0  0  0  0  0
  152.4704  138.8231  156.8441 C   0  0  0  0  0  0  0  0  0  0  0  0
  152.0574  139.3119  155.5887 C   0  0  0  0  0  0  0  0  0  0  0  0
  151.3537  138.4549  154.7210 C   0  0  0  0  0  0  0  0  0  0  0  0
  151.0912  137.1273  155.1358 C   0  0  0  0  0  0  0  0  0  0  0  0
  150.3728  136.1722  154.3669 N   0  0  0  0  0  0  0  0  0  0  0  0
  150.2334  134.8529  154.5814 C   0  0  0  0  0  0  0  0  0  0  0  0
  150.6923  134.2323  155.5401 O   0  0  0  0  0  0  0  0  0  0  0  0
  149.4997  134.2824  153.6146 N   0  0  0  0  0  0  0  0  0  0  0  0
  149.1272  132.8708  153.5624 C   0  0  0  0  0  0  0  0  0  0  0  0
  147.7828  132.6304  152.8649 C   0  0  0  0  0  0  0  0  0  0  0  0
  147.1411  131.5981  153.0661 O   0  0  0  0  0  0  0  0  0  0  0  0
  147.3607  133.6129  152.0549 N   0  0  0  0  0  0  0  0  0  0  0  0
  146.1113  133.6086  151.2999 C   0  0  0  0  0  0  0  0  0  0  0  0
  144.9167  133.2987  152.2260 C   0  0  0  0  0  0  0  0  0  0  0  0
  143.6007  133.2084  151.4361 C   0  0  0  0  0  0  0  0  0  0  0  0
  143.7003  132.1812  150.2975 C   0  0  0  0  0  0  0  0  0  0  0  0
  144.8846  132.4952  149.3703 C   0  0  0  0  0  0  0  0  0  0  0  0
  146.2013  132.5769  150.1593 C   0  0  0  0  0  0  0  0  0  0  0  0
  151.5388  136.7395  156.4155 C   0  0  0  0  0  0  0  0  0  0  0  0
  152.2138  137.5556  157.2517 N   0  0  0  0  0  0  0  0  0  0  0  0
  154.1185  139.9494  159.4889 H   0  0  0  0  0  0  0  0  0  0  0  0
  154.3140  138.3400  158.8030 H   0  0  0  0  0  0  0  0  0  0  0  0
  152.7738  138.8156  159.5541 H   0  0  0  0  0  0  0  0  0  0  0  0
  152.2710  140.3298  155.2980 H   0  0  0  0  0  0  0  0  0  0  0  0
  151.0199  138.8378  153.7695 H   0  0  0  0  0  0  0  0  0  0  0  0
  149.8650  136.5478  153.5793 H   0  0  0  0  0  0  0  0  0  0  0  0
  149.1518  134.8705  152.8718 H   0  0  0  0  0  0  0  0  0  0  0  0
  149.9018  132.3334  153.0149 H   0  0  0  0  0  0  0  0  0  0  0  0
  149.1058  132.4494  154.5692 H   0  0  0  0  0  0  0  0  0  0  0  0
  147.9507  134.4259  151.9516 H   0  0  0  0  0  0  0  0  0  0  0  0
  145.9632  134.5932  150.8518 H   0  0  0  0  0  0  0  0  0  0  0  0
  145.0893  132.3570  152.7491 H   0  0  0  0  0  0  0  0  0  0  0  0
  144.8267  134.0664  152.9956 H   0  0  0  0  0  0  0  0  0  0  0  0
  142.7833  132.9416  152.1064 H   0  0  0  0  0  0  0  0  0  0  0  0
  143.3556  134.1879  151.0239 H   0  0  0  0  0  0  0  0  0  0  0  0
  143.8194  131.1809  150.7161 H   0  0  0  0  0  0  0  0  0  0  0  0
  142.7725  132.1691  149.7250 H   0  0  0  0  0  0  0  0  0  0  0  0
  144.9622  131.7328  148.5947 H   0  0  0  0  0  0  0  0  0  0  0  0
  144.7068  133.4412  148.8567 H   0  0  0  0  0  0  0  0  0  0  0  0
  147.0176  132.8359  149.4840 H   0  0  0  0  0  0  0  0  0  0  0  0
  146.4380  131.5931  150.5677 H   0  0  0  0  0  0  0  0  0  0  0  0
  151.3520  135.7404  156.7816 H   0  0  0  0  0  0  0  0  0  0  0  0
  1  2  1  0  0  0  0
  1 23  1  0  0  0  0
  1 24  1  0  0  0  0
  1 25  1  0  0  0  0
  2  3  1  0  0  0  0
  3 22  1  0  0  0  0
  3  4  2  0  0  0  0
  4  5  1  0  0  0  0
  4 26  1  0  0  0  0
  5  6  2  0  0  0  0
  5 27  1  0  0  0  0
  6  7  1  0  0  0  0
  6 21  1  0  0  0  0
  7  8  1  0  0  0  0
  7 28  1  0  0  0  0
  8  9  2  0  0  0  0
  8 10  1  0  0  0  0
 10 11  1  0  0  0  0
 10 29  1  0  0  0  0
 11 12  1  0  0  0  0
 11 30  1  0  0  0  0
 11 31  1  0  0  0  0
 12 13  2  0  0  0  0
 12 14  1  0  0  0  0
 14 15  1  0  0  0  0
 14 32  1  0  0  0  0
 15 20  1  0  0  0  0
 15 16  1  0  0  0  0
 15 33  1  0  0  0  0
 16 17  1  0  0  0  0
 16 34  1  0  0  0  0
 16 35  1  0  0  0  0
 17 18  1  0  0  0  0
 17 36  1  0  0  0  0
 17 37  1  0  0  0  0
 18 19  1  0  0  0  0
 18 38  1  0  0  0  0
 18 39  1  0  0  0  0
 19 20  1  0  0  0  0
 19 40  1  0  0  0  0
 19 41  1  0  0  0  0
 20 42  1  0  0  0  0
 20 43  1  0  0  0  0
 21 22  2  0  0  0  0
 21 44  1  0  0  0  0
M  END
> <s_m_source_file>
AV-unprocessed.smi

> <i_m_source_file_index>
1162

> <i_lp_mmshare_version>
43012

> <i_f3d_flags>
0

> <s_epik_input>
W0NIM11PYzFbY0hdW2NIXWMoW2NIXW4xKVtOSF1DKD1PKVtOSF1bQ0gyXUMoPU8pW05IXVtDSF0yW0NIMl1bQ0gyXVtDSDJdW0NIMl1bQ0gyXTI=

> <s_epik_cmdline>
J2VwaWtfcHl0aG9uJywgJy1waCcsICc3LjAnLCAnLXRuJywgJzgnLCAnLW1hJywgJzIwMCcsICctbWV0YWxfYmluZGluZycsICctaW1hZScsICc8aW5maWxlLm1hZT4nLCAnLW9tYWUnLCAnPG91dGZpbGUubWFlPic=

> <r_lp_tautomer_probability>
1

> <r_epik_Ionization_Penalty>
0.000141568

> <r_epik_Ionization_Penalty_Charging>
0

> <r_epik_Ionization_Penalty_Neutral>
0.000141568

> <r_epik_State_Penalty>
-0

> <r_epik_Charging_Adjusted_Penalty>
0

> <i_epik_Tot_Q>
0

> <i_epik_Tot_abs_Q>
0

> <r_epik_Metal_State_Penalty>
-0

> <b_epik_Metal_Only>
0

> <s_lp_Force_Field>
OPLS_2005

> <r_lp_Energy>
7.6567

> <b_lp_Chiralities_Consistent>
1

> <s_lp_Variant>
AV-unprocessed.smi:1162-1

> <Gold.Version>
5.8.1

> <Gold.Id.Protein>
6NUR|6NUR_protein|mol2

> <Gold.PLP.Fitness>
48.2350

> <Gold.PLP.PLP>
-38.5838

> <Gold.PLP.part.hbond>
-4.9338

> <Gold.PLP.part.metal>
0.0000

> <Gold.PLP.part.buried>
-3.1947

> <Gold.PLP.part.nonpolar>
-31.0049

> <Gold.PLP.part.repulsive>
0.2748

> <Gold.PLP.ligand.clash>
0.0000

> <Gold.PLP.ligand.torsion>
0.5987

> <Gold.PLP.Chemscore.Hbond>
3.6100

> <Gold.PLP.Chemscore.CHOScore>
0.0000

> <Gold.PLP.Chemscore.Metal>
0.0000

> <Gold.Chemscore.Hbonds>
donor molecule, donor type, donor heavy atom, donor atom, acceptor molecule, acceptor atom, score
      L1  H     7    28       P1  7948  0.96
      L1  H    10    29       P1  7948  0.40
      L1  H    14    32       P1  7948  0.80
      P1  H  7997  8009       L1     2  1.00

> <Gold.PLP.Chemscore.Internal.Correction>
0.0186

> <Gold.Rescore>
     Score         DG    S(hbond)    S(metal)    S(lipo)     H(rot)  DE(clash)    DE(int)     intcor
     11.75     -15.31       1.31        0.00      86.29       1.82       0.04       3.51       ----

> <Gold.Chemscore.Fitness>
11.7548

> <Gold.Chemscore.DG>
-15.3069

> <Gold.Chemscore.ZeroCoef>
-5.4800

> <Gold.Chemscore.Hbond>
1.3147

> <Gold.Chemscore.Metal>
0.0000

> <Gold.Chemscore.Lipo>
86.2891

> <Gold.Chemscore.Internal_Hbond>
0.0000

> <Gold.Chemscore.DEClash>
0.0402

> <Gold.Chemscore.DEInternal>
3.5118

> <Gold.Chemscore.Rot>
1.8204

> <Gold.Chemscore.Internal.Correction>
   9.000000E+99

> <Gold.Chemscore.Hbonds>
donor molecule, donor type, donor heavy atom, donor atom, acceptor molecule, acceptor atom, score
      L1  H     7    28       P1  7948  0.27
      L1  H    10    29       P1  7948  0.01
      L1  H    14    32       P1  7948  0.11
      P1  H  7997  8009       L1     2  0.24

> <Gold.Chemscore.Hbond.Weighted>
-4.3912

> <Gold.Chemscore.Metal.Weighted>
-0.0000

> <Gold.Chemscore.Lipo.Weighted>
-10.0958

> <Gold.Chemscore.Internal_Hbond.Weighted>
0.0000

> <Gold.Chemscore.DEClash.Weighted>
0.0402

> <Gold.Chemscore.DEInternal.Weighted>
3.5118

> <Gold.Chemscore.Rot.Weighted>
4.6601

> <Gold.Chemscore.Internal.Correction.Weighted>
   9.000000E+99

> <Gold.Protein.RotatedTorsions>
[ 6907 6896 6895 6894 ] final  137.35 input  -60.11 | X-H torsion
[ 7974 7965 7964 7962 ] final  -48.37 input  175.53 | X-H torsion
[ 8008 7997 7996 7995 ] final  165.74 input   59.86 | X-H torsion
[ 10167 10162 10161 10158 ] final  -54.49 input  -65.29 | X-H torsion
[ 10718 10713 10712 10709 ] final   11.40 input   66.30 | X-H torsion
[ 10763 10752 10751 10750 ] final -155.68 input  -60.55 | X-H torsion
[ 11005 11000 10999 10996 ] final -118.98 input  -57.11 | X-H torsion

> <Gold.Protein.ActiveResidues>
 VAL166  LYS551  ARG553  GLY616  TRP617  ASP618  TYR619  PRO620  LYS621  CYS622 
 ASP623  PHE694  ASN695  SER759  ASP760  ASP761  ALA762  ILE779  LEU786  VAL792 
 PHE793  MET794  SER795  GLU796  ALA797  LYS798  CYS799  TRP800  GLU811  SER814 

> <Gold.Protein.RotatedAtoms>
  152.2791  133.5453  159.5486 H   0  0  0  0  0  0  0  0  0  0  0  0  # atno 6907 bound_to 6896
  150.7189  134.0589  159.3833 H   0  0  0  0  0  0  0  0  0  0  0  0  # atno 6908 bound_to 6896
  151.8501  135.0561  160.0509 H   0  0  0  0  0  0  0  0  0  0  0  0  # atno 6909 bound_to 6896
  145.9518  140.7564  142.9500 H   0  0  0  0  0  0  0  0  0  0  0  0  # atno 7974 bound_to 7965
  156.1776  140.1662  156.8334 H   0  0  0  0  0  0  0  0  0  0  0  0  # atno 8008 bound_to 7997
  154.5324  140.0754  156.8401 H   0  0  0  0  0  0  0  0  0  0  0  0  # atno 8009 bound_to 7997
  155.3380  140.3383  155.4241 H   0  0  0  0  0  0  0  0  0  0  0  0  # atno 8010 bound_to 7997
  140.6427  143.2517  151.4944 H   0  0  0  0  0  0  0  0  0  0  0  0  # atno 10167 bound_to 10162
  156.9950  130.6057  149.5690 H   0  0  0  0  0  0  0  0  0  0  0  0  # atno 10718 bound_to 10713
  154.7769  135.3162  154.8073 H   0  0  0  0  0  0  0  0  0  0  0  0  # atno 10763 bound_to 10752
  153.8794  135.6836  153.4772 H   0  0  0  0  0  0  0  0  0  0  0  0  # atno 10764 bound_to 10752
  153.1395  135.4745  154.9410 H   0  0  0  0  0  0  0  0  0  0  0  0  # atno 10765 bound_to 10752
  141.0248  134.0070  157.3231 H   0  0  0  0  0  0  0  0  0  0  0  0  # atno 11005 bound_to 11000
  144.6797  140.2448  143.7339 LP  0  0  0  0  0  0  0  0  0  0  0  0  # atno 17320 bound_to 7965
  145.8160  139.2023  143.1965 LP  0  0  0  0  0  0  0  0  0  0  0  0  # atno 17321 bound_to 7965
  139.5637  144.2094  152.1731 LP  0  0  0  0  0  0  0  0  0  0  0  0  # atno 17342 bound_to 10162
  140.1370  144.5237  150.6767 LP  0  0  0  0  0  0  0  0  0  0  0  0  # atno 17343 bound_to 10162
  156.0193  130.5287  150.8227 LP  0  0  0  0  0  0  0  0  0  0  0  0  # atno 17370 bound_to 10713
  157.5431  131.0941  150.9799 LP  0  0  0  0  0  0  0  0  0  0  0  0  # atno 17371 bound_to 10713
  139.9169  135.0197  156.7914 LP  0  0  0  0  0  0  0  0  0  0  0  0  # atno 17394 bound_to 11000
  140.6511  133.9731  155.7755 LP  0  0  0  0  0  0  0  0  0  0  0  0  # atno 17395 bound_to 11000

$$$$
