AV-unprocessed.smi:1637|AV-procd|sdf|6545|dock6
  -GOLD-   22720 7233D 1   1.00000     0.00000
 Structure written by MMmdl.
 38 39  0  0  0  0  0  0  0  0  1 V2000
  151.2531  140.4747  155.8720 C   0  0  0  0  0  0  0  0  0  0  0  0
  150.4221  141.2775  155.0406 O   0  0  0  0  0  0  0  0  0  0  0  0
  149.2981  140.7008  154.4857 C   0  0  0  0  0  0  0  0  0  0  0  0
  148.2525  141.5405  154.0547 C   0  0  0  0  0  0  0  0  0  0  0  0
  147.1029  140.9614  153.4835 C   0  0  0  0  0  0  0  0  0  0  0  0
  147.0328  139.5520  153.3656 C   0  0  0  0  0  0  0  0  0  0  0  0
  145.9431  138.8338  152.7997 N   0  0  0  0  0  0  0  0  0  0  0  0
  145.7811  137.5086  152.6427 C   0  0  0  0  0  0  0  0  0  0  0  0
  146.6013  136.6437  152.9479 O   0  0  0  0  0  0  0  0  0  0  0  0
  144.5899  137.2335  152.0920 N   0  0  0  0  0  0  0  0  0  0  0  0
  144.0868  135.8992  151.7602 C   0  0  1  0  0  0  0  0  0  0  0  0
  145.0826  135.1729  150.8282 C   0  0  0  0  0  0  0  0  0  0  0  0
  144.4530  134.0429  149.9978 C   0  0  0  0  0  0  0  0  0  0  0  0
  143.8821  132.8779  150.8198 C   0  0  0  0  0  0  0  0  0  0  0  0
  142.6842  133.2727  151.7005 C   0  0  0  0  0  0  0  0  0  0  0  0
  143.0901  133.9437  152.9293 N   0  0  0  0  0  0  0  0  0  0  0  0
  143.7315  135.1170  153.0387 C   0  0  0  0  0  0  0  0  0  0  0  0
  144.0390  135.5595  154.1455 O   0  0  0  0  0  0  0  0  0  0  0  0
  148.1358  138.8026  153.8251 C   0  0  0  0  0  0  0  0  0  0  0  0
  149.2407  139.3511  154.3723 N   0  0  0  0  0  0  0  0  0  0  0  0
  152.0899  141.0736  156.2307 H   0  0  0  0  0  0  0  0  0  0  0  0
  151.6645  139.6263  155.3234 H   0  0  0  0  0  0  0  0  0  0  0  0
  150.7108  140.1085  156.7448 H   0  0  0  0  0  0  0  0  0  0  0  0
  148.3322  142.6128  154.1565 H   0  0  0  0  0  0  0  0  0  0  0  0
  146.3144  141.6142  153.1457 H   0  0  0  0  0  0  0  0  0  0  0  0
  145.1880  139.4089  152.4559 H   0  0  0  0  0  0  0  0  0  0  0  0
  143.9827  138.0075  151.8644 H   0  0  0  0  0  0  0  0  0  0  0  0
  143.1488  136.0398  151.2196 H   0  0  0  0  0  0  0  0  0  0  0  0
  145.5119  135.8881  150.1253 H   0  0  0  0  0  0  0  0  0  0  0  0
  145.9246  134.7882  151.4058 H   0  0  0  0  0  0  0  0  0  0  0  0
  143.6713  134.4548  149.3581 H   0  0  0  0  0  0  0  0  0  0  0  0
  145.2119  133.6489  149.3210 H   0  0  0  0  0  0  0  0  0  0  0  0
  143.5545  132.1054  150.1232 H   0  0  0  0  0  0  0  0  0  0  0  0
  144.6649  132.4199  151.4259 H   0  0  0  0  0  0  0  0  0  0  0  0
  141.9723  133.8871  151.1475 H   0  0  0  0  0  0  0  0  0  0  0  0
  142.1457  132.3715  151.9941 H   0  0  0  0  0  0  0  0  0  0  0  0
  142.8728  133.4612  153.7893 H   0  0  0  0  0  0  0  0  0  0  0  0
  148.1344  137.7247  153.7517 H   0  0  0  0  0  0  0  0  0  0  0  0
  1  2  1  0  0  0  0
  1 21  1  0  0  0  0
  1 22  1  0  0  0  0
  1 23  1  0  0  0  0
  2  3  1  0  0  0  0
  3 20  1  0  0  0  0
  3  4  2  0  0  0  0
  4  5  1  0  0  0  0
  4 24  1  0  0  0  0
  5  6  2  0  0  0  0
  5 25  1  0  0  0  0
  6  7  1  0  0  0  0
  6 19  1  0  0  0  0
  7  8  1  0  0  0  0
  7 26  1  0  0  0  0
  8  9  2  0  0  0  0
  8 10  1  0  0  0  0
 10 11  1  0  0  0  0
 10 27  1  0  0  0  0
 11 17  1  0  0  0  0
 11 12  1  0  0  0  0
 11 28  1  0  0  0  0
 12 13  1  0  0  0  0
 12 29  1  0  0  0  0
 12 30  1  0  0  0  0
 13 14  1  0  0  0  0
 13 31  1  0  0  0  0
 13 32  1  0  0  0  0
 14 15  1  0  0  0  0
 14 33  1  0  0  0  0
 14 34  1  0  0  0  0
 15 16  1  0  0  0  0
 15 35  1  0  0  0  0
 15 36  1  0  0  0  0
 16 17  1  0  0  0  0
 16 37  1  0  0  0  0
 17 18  2  0  0  0  0
 19 20  2  0  0  0  0
 19 38  1  0  0  0  0
M  END
> <s_m_source_file>
AV-unprocessed.smi

> <i_m_source_file_index>
1637

> <i_lp_mmshare_version>
43012

> <i_f3d_flags>
0

> <s_epik_input>
W0NIM11PYzFbY0hdW2NIXWMoW2NIXW4xKVtOSF1DKD1PKVtOSF1bQ0BASF0yW0NIMl1bQ0gyXVtDSDJdW0NIMl1bTkhdQzI9Tw==

> <s_epik_cmdline>
J2VwaWtfcHl0aG9uJywgJy1waCcsICc3LjAnLCAnLXRuJywgJzgnLCAnLW1hJywgJzIwMCcsICctbWV0YWxfYmluZGluZycsICctaW1hZScsICc8aW5maWxlLm1hZT4nLCAnLW9tYWUnLCAnPG91dGZpbGUubWFlPic=

> <r_lp_tautomer_probability>
1

> <r_epik_Ionization_Penalty>
8.30847e-05

> <r_epik_Ionization_Penalty_Charging>
0

> <r_epik_Ionization_Penalty_Neutral>
8.30847e-05

> <r_epik_State_Penalty>
-0

> <r_epik_Charging_Adjusted_Penalty>
0

> <i_epik_Tot_Q>
0

> <i_epik_Tot_abs_Q>
0

> <r_epik_Metal_State_Penalty>
-0

> <b_epik_Metal_Only>
0

> <s_lp_Force_Field>
OPLS_2005

> <r_lp_Energy>
13.0177

> <b_lp_Chiralities_Consistent>
1

> <s_lp_Variant>
AV-unprocessed.smi:1637-2

> <Gold.Version>
5.8.1

> <Gold.Id.Protein>
6NUR|6NUR_protein|mol2

> <Gold.PLP.Fitness>
41.8571

> <Gold.PLP.PLP>
-32.0821

> <Gold.PLP.part.hbond>
-4.0000

> <Gold.PLP.part.metal>
0.0000

> <Gold.PLP.part.buried>
-0.6415

> <Gold.PLP.part.nonpolar>
-29.8270

> <Gold.PLP.part.repulsive>
3.5024

> <Gold.PLP.ligand.clash>
0.0000

> <Gold.PLP.ligand.torsion>
0.3690

> <Gold.PLP.Chemscore.Hbond>
2.5385

> <Gold.PLP.Chemscore.CHOScore>
0.9567

> <Gold.PLP.Chemscore.Metal>
0.0000

> <Gold.Chemscore.Hbonds>
donor molecule, donor type, donor heavy atom, donor atom, acceptor molecule, acceptor atom, score
      L1  H     7    26       P1 10175  1.00
      L1  H    10    27       P1 10171  0.28
      L1  H    16    37       P1 10957  0.98
      P1  H  7989  7998       L1     2  0.22
      L1  C    19    38       P1  7948  0.96

> <Gold.PLP.Chemscore.Internal.Correction>
0.0275

> <Gold.Rescore>
     Score         DG    S(hbond)    S(metal)    S(lipo)     H(rot)  DE(clash)    DE(int)     intcor
      9.52     -16.35       1.94        0.00      66.32       1.31       2.78       4.05       ----

> <Gold.Chemscore.Fitness>
9.5185

> <Gold.Chemscore.DG>
-16.3523

> <Gold.Chemscore.ZeroCoef>
-5.4800

> <Gold.Chemscore.Hbond>
1.9354

> <Gold.Chemscore.Metal>
0.0000

> <Gold.Chemscore.Lipo>
66.3172

> <Gold.Chemscore.Internal_Hbond>
0.0000

> <Gold.Chemscore.DEClash>
2.7805

> <Gold.Chemscore.DEInternal>
4.0532

> <Gold.Chemscore.Rot>
1.3090

> <Gold.Chemscore.Internal.Correction>
   9.000000E+99

> <Gold.Chemscore.Hbonds>
donor molecule, donor type, donor heavy atom, donor atom, acceptor molecule, acceptor atom, score
      L1  H     7    26       P1 10175  1.00
      L1  H    10    27       P1 10171  0.27
      L1  H    16    37       P1 10957  0.91

> <Gold.Chemscore.Hbond.Weighted>
-6.4641

> <Gold.Chemscore.Metal.Weighted>
-0.0000

> <Gold.Chemscore.Lipo.Weighted>
-7.7591

> <Gold.Chemscore.Internal_Hbond.Weighted>
0.0000

> <Gold.Chemscore.DEClash.Weighted>
2.7805

> <Gold.Chemscore.DEInternal.Weighted>
4.0532

> <Gold.Chemscore.Rot.Weighted>
3.3509

> <Gold.Chemscore.Internal.Correction.Weighted>
   9.000000E+99

> <Gold.Protein.RotatedTorsions>
[ 6907 6896 6895 6894 ] final  124.07 input  -60.11 | X-H torsion
[ 7974 7965 7964 7962 ] final  141.44 input  175.53 | X-H torsion
[ 8008 7997 7996 7995 ] final   99.19 input   59.86 | X-H torsion
[ 10167 10162 10161 10158 ] final -169.20 input  -65.29 | X-H torsion
[ 10718 10713 10712 10709 ] final  130.58 input   66.30 | X-H torsion
[ 10763 10752 10751 10750 ] final   51.25 input  -60.55 | X-H torsion
[ 11005 11000 10999 10996 ] final   59.95 input  -57.11 | X-H torsion

> <Gold.Protein.ActiveResidues>
 VAL166  LYS551  ARG553  GLY616  TRP617  ASP618  TYR619  PRO620  LYS621  CYS622 
 ASP623  PHE694  ASN695  SER759  ASP760  ASP761  ALA762  ILE779  LEU786  VAL792 
 PHE793  MET794  SER795  GLU796  ALA797  LYS798  CYS799  TRP800  GLU811  SER814 

> <Gold.Protein.RotatedAtoms>
  152.4109  133.6962  159.6396 H   0  0  0  0  0  0  0  0  0  0  0  0  # atno 6907 bound_to 6896
  150.7989  133.8626  159.3245 H   0  0  0  0  0  0  0  0  0  0  0  0  # atno 6908 bound_to 6896
  151.6368  135.1019  160.0184 H   0  0  0  0  0  0  0  0  0  0  0  0  # atno 6909 bound_to 6896
  144.9096  139.5311  143.5715 H   0  0  0  0  0  0  0  0  0  0  0  0  # atno 7974 bound_to 7965
  156.1080  140.3232  155.8034 H   0  0  0  0  0  0  0  0  0  0  0  0  # atno 8008 bound_to 7997
  155.4721  140.0547  157.2995 H   0  0  0  0  0  0  0  0  0  0  0  0  # atno 8009 bound_to 7997
  154.4741  140.2024  155.9936 H   0  0  0  0  0  0  0  0  0  0  0  0  # atno 8010 bound_to 7997
  139.5937  144.1157  152.1665 H   0  0  0  0  0  0  0  0  0  0  0  0  # atno 10167 bound_to 10162
  157.5048  131.1095  150.9376 H   0  0  0  0  0  0  0  0  0  0  0  0  # atno 10718 bound_to 10713
  152.9785  135.5852  154.4385 H   0  0  0  0  0  0  0  0  0  0  0  0  # atno 10763 bound_to 10752
  154.3989  135.2768  155.2110 H   0  0  0  0  0  0  0  0  0  0  0  0  # atno 10764 bound_to 10752
  154.3950  135.6116  153.5919 H   0  0  0  0  0  0  0  0  0  0  0  0  # atno 10765 bound_to 10752
  140.0267  134.6073  155.9563 H   0  0  0  0  0  0  0  0  0  0  0  0  # atno 11005 bound_to 11000
  146.3152  139.7892  142.8989 LP  0  0  0  0  0  0  0  0  0  0  0  0  # atno 17320 bound_to 7965
  145.3477  141.0301  143.3356 LP  0  0  0  0  0  0  0  0  0  0  0  0  # atno 17321 bound_to 7965
  140.0738  144.5758  150.7172 LP  0  0  0  0  0  0  0  0  0  0  0  0  # atno 17342 bound_to 10162
  140.7194  143.2575  151.4327 LP  0  0  0  0  0  0  0  0  0  0  0  0  # atno 17343 bound_to 10162
  157.0035  130.5609  149.5314 LP  0  0  0  0  0  0  0  0  0  0  0  0  # atno 17370 bound_to 10713
  156.0251  130.5345  150.8385 LP  0  0  0  0  0  0  0  0  0  0  0  0  # atno 17371 bound_to 10713
  141.1807  133.6546  156.5007 LP  0  0  0  0  0  0  0  0  0  0  0  0  # atno 17394 bound_to 11000
  140.4295  134.7115  157.4934 LP  0  0  0  0  0  0  0  0  0  0  0  0  # atno 17395 bound_to 11000

$$$$
