AV-unprocessed.smi:1606|AV-procd|sdf|6461|dock1
  -GOLD-   22720 7113D 1   1.00000     0.00000
 Structure written by MMmdl.
 35 36  0  0  0  0  0  0  0  0  1 V2000
  150.8688  140.3882  155.0294 O   0  0  0  0  0  0  0  0  0  0  0  0
  150.1960  140.8434  155.9548 C   0  0  0  0  0  0  0  0  0  0  0  0
  150.6246  140.8798  157.2257 N   0  0  0  0  0  0  0  0  0  0  0  0
  151.9439  140.4502  157.6782 C   0  0  0  0  0  0  0  0  0  0  0  0
  152.3218  141.0153  159.0632 C   0  0  0  0  0  0  0  0  0  0  0  0
  152.0191  142.4964  159.2262 C   0  0  0  0  0  0  0  0  0  0  0  0
  152.2688  143.1471  160.4531 C   0  0  0  0  0  0  0  0  0  0  0  0
  151.9592  144.5168  160.5620 C   0  0  0  0  0  0  0  0  0  0  0  0
  151.4122  145.1796  159.4466 C   0  0  0  0  0  0  0  0  0  0  0  0
  151.1993  144.4406  158.2660 C   0  0  0  0  0  0  0  0  0  0  0  0
  151.4939  143.1279  158.1511 N   0  0  0  0  0  0  0  0  0  0  0  0
  148.8008  141.4230  155.6895 C   0  0  0  0  0  0  0  0  0  0  0  0
  147.7049  140.6177  156.4105 C   0  0  0  0  0  0  0  0  0  0  0  0
  146.3129  141.1602  156.0482 C   0  0  0  0  0  0  0  0  0  0  0  0
  146.1291  141.1268  154.6367 O   0  0  0  0  0  0  0  0  0  0  0  0
  147.0579  141.9464  153.9347 C   0  0  0  0  0  0  0  0  0  0  0  0
  148.4909  141.4485  154.1824 C   0  0  0  0  0  0  0  0  0  0  0  0
  150.0078  141.2709  157.9230 H   0  0  0  0  0  0  0  0  0  0  0  0
  151.9365  139.3609  157.7222 H   0  0  0  0  0  0  0  0  0  0  0  0
  152.6996  140.7219  156.9398 H   0  0  0  0  0  0  0  0  0  0  0  0
  151.7939  140.4591  159.8387 H   0  0  0  0  0  0  0  0  0  0  0  0
  153.3838  140.8504  159.2518 H   0  0  0  0  0  0  0  0  0  0  0  0
  152.6848  142.6100  161.2927 H   0  0  0  0  0  0  0  0  0  0  0  0
  152.1362  145.0486  161.4851 H   0  0  0  0  0  0  0  0  0  0  0  0
  151.1616  146.2290  159.4944 H   0  0  0  0  0  0  0  0  0  0  0  0
  150.7806  144.9151  157.3909 H   0  0  0  0  0  0  0  0  0  0  0  0
  148.7722  142.4483  156.0630 H   0  0  0  0  0  0  0  0  0  0  0  0
  147.7590  139.5642  156.1313 H   0  0  0  0  0  0  0  0  0  0  0  0
  147.8498  140.6624  157.4906 H   0  0  0  0  0  0  0  0  0  0  0  0
  145.5405  140.5508  156.5174 H   0  0  0  0  0  0  0  0  0  0  0  0
  146.1835  142.1786  156.4180 H   0  0  0  0  0  0  0  0  0  0  0  0
  146.8273  141.9073  152.8701 H   0  0  0  0  0  0  0  0  0  0  0  0
  146.9478  142.9865  154.2455 H   0  0  0  0  0  0  0  0  0  0  0  0
  149.2006  142.0919  153.6604 H   0  0  0  0  0  0  0  0  0  0  0  0
  148.6017  140.4509  153.7548 H   0  0  0  0  0  0  0  0  0  0  0  0
  1  2  2  0  0  0  0
  2  3  1  0  0  0  0
  2 12  1  0  0  0  0
  3  4  1  0  0  0  0
  3 18  1  0  0  0  0
  4  5  1  0  0  0  0
  4 19  1  0  0  0  0
  4 20  1  0  0  0  0
  5  6  1  0  0  0  0
  5 21  1  0  0  0  0
  5 22  1  0  0  0  0
  6 11  1  0  0  0  0
  6  7  2  0  0  0  0
  7  8  1  0  0  0  0
  7 23  1  0  0  0  0
  8  9  2  0  0  0  0
  8 24  1  0  0  0  0
  9 10  1  0  0  0  0
  9 25  1  0  0  0  0
 10 11  2  0  0  0  0
 10 26  1  0  0  0  0
 12 17  1  0  0  0  0
 12 13  1  0  0  0  0
 12 27  1  0  0  0  0
 13 14  1  0  0  0  0
 13 28  1  0  0  0  0
 13 29  1  0  0  0  0
 14 15  1  0  0  0  0
 14 30  1  0  0  0  0
 14 31  1  0  0  0  0
 15 16  1  0  0  0  0
 16 17  1  0  0  0  0
 16 32  1  0  0  0  0
 16 33  1  0  0  0  0
 17 34  1  0  0  0  0
 17 35  1  0  0  0  0
M  END
> <s_m_source_file>
AV-unprocessed.smi

> <i_m_source_file_index>
1606

> <i_lp_mmshare_version>
43012

> <i_f3d_flags>
0

> <s_epik_input>
W0NIMl0xW0NIMl1PW0NIMl1bQ0gyXVtDSF0xQyg9TylbTkhdW0NIMl1bQ0gyXWMyW2NIXVtjSF1bY0hdW2NIXW4y

> <s_epik_cmdline>
J2VwaWtfcHl0aG9uJywgJy1waCcsICc3LjAnLCAnLXRuJywgJzgnLCAnLW1hJywgJzIwMCcsICctbWV0YWxfYmluZGluZycsICctaW1hZScsICc8aW5maWxlLm1hZT4nLCAnLW9tYWUnLCAnPG91dGZpbGUubWFlPic=

> <r_epik_Ionization_Penalty>
0.0277532

> <r_epik_Ionization_Penalty_Charging>
0

> <r_epik_Ionization_Penalty_Neutral>
0.0277532

> <r_epik_State_Penalty>
0.022734

> <r_epik_Charging_Adjusted_Penalty>
0.022734

> <i_epik_Tot_Q>
0

> <i_epik_Tot_abs_Q>
0

> <r_epik_Metal_State_Penalty>
0.0217131

> <b_epik_Metal_Only>
0

> <s_lp_Force_Field>
OPLS_2005

> <r_lp_Energy>
8.37046

> <b_lp_Chiralities_Consistent>
1

> <s_lp_Variant>
AV-unprocessed.smi:1606-1

> <Gold.Version>
5.8.1

> <Gold.Id.Protein>
6NUR|6NUR_protein|mol2

> <Gold.PLP.Fitness>
41.9655

> <Gold.PLP.PLP>
-36.3833

> <Gold.PLP.part.hbond>
-1.0000

> <Gold.PLP.part.metal>
0.0000

> <Gold.PLP.part.buried>
-5.9217

> <Gold.PLP.part.nonpolar>
-30.2356

> <Gold.PLP.part.repulsive>
0.2993

> <Gold.PLP.ligand.clash>
0.0000

> <Gold.PLP.ligand.torsion>
0.2275

> <Gold.PLP.Chemscore.Hbond>
1.0000

> <Gold.PLP.Chemscore.CHOScore>
1.0000

> <Gold.PLP.Chemscore.Metal>
0.0000

> <Gold.Chemscore.Hbonds>
donor molecule, donor type, donor heavy atom, donor atom, acceptor molecule, acceptor atom, score
      P1  H  7989  7998       L1     1  1.00
      L1  C    10    26       P1  8028  1.00

> <Gold.PLP.Chemscore.Internal.Correction>
0.0372

> <Gold.Rescore>
     Score         DG    S(hbond)    S(metal)    S(lipo)     H(rot)  DE(clash)    DE(int)     intcor
     15.08     -16.91       0.99        0.00     101.66       1.47       0.09       1.74       ----

> <Gold.Chemscore.Fitness>
15.0778

> <Gold.Chemscore.DG>
-16.9081

> <Gold.Chemscore.ZeroCoef>
-5.4800

> <Gold.Chemscore.Hbond>
0.9850

> <Gold.Chemscore.Metal>
0.0000

> <Gold.Chemscore.Lipo>
101.6640

> <Gold.Chemscore.Internal_Hbond>
0.0000

> <Gold.Chemscore.DEClash>
0.0855

> <Gold.Chemscore.DEInternal>
1.7448

> <Gold.Chemscore.Rot>
1.4674

> <Gold.Chemscore.Internal.Correction>
   9.000000E+99

> <Gold.Chemscore.Hbonds>
donor molecule, donor type, donor heavy atom, donor atom, acceptor molecule, acceptor atom, score
      P1  H  7989  7998       L1     1  0.98

> <Gold.Chemscore.Hbond.Weighted>
-3.2901

> <Gold.Chemscore.Metal.Weighted>
-0.0000

> <Gold.Chemscore.Lipo.Weighted>
-11.8947

> <Gold.Chemscore.Internal_Hbond.Weighted>
0.0000

> <Gold.Chemscore.DEClash.Weighted>
0.0855

> <Gold.Chemscore.DEInternal.Weighted>
1.7448

> <Gold.Chemscore.Rot.Weighted>
3.7567

> <Gold.Chemscore.Internal.Correction.Weighted>
   9.000000E+99

> <Gold.Protein.RotatedTorsions>
[ 6907 6896 6895 6894 ] final  -78.01 input  -60.11 | X-H torsion
[ 7974 7965 7964 7962 ] final  125.24 input  175.53 | X-H torsion
[ 8008 7997 7996 7995 ] final   73.46 input   59.86 | X-H torsion
[ 10167 10162 10161 10158 ] final  -77.34 input  -65.29 | X-H torsion
[ 10718 10713 10712 10709 ] final -105.20 input   66.30 | X-H torsion
[ 10763 10752 10751 10750 ] final -134.66 input  -60.55 | X-H torsion
[ 11005 11000 10999 10996 ] final  134.24 input  -57.11 | X-H torsion

> <Gold.Protein.ActiveResidues>
 VAL166  LYS551  ARG553  GLY616  TRP617  ASP618  TYR619  PRO620  LYS621  CYS622 
 ASP623  PHE694  ASN695  SER759  ASP760  ASP761  ALA762  ILE779  LEU786  VAL792 
 PHE793  MET794  SER795  GLU796  ALA797  LYS798  CYS799  TRP800  GLU811  SER814 

> <Gold.Protein.RotatedAtoms>
  150.6984  134.4337  159.5259 H   0  0  0  0  0  0  0  0  0  0  0  0  # atno 6907 bound_to 6896
  152.2059  134.8543  160.0512 H   0  0  0  0  0  0  0  0  0  0  0  0  # atno 6908 bound_to 6896
  151.9446  133.3613  159.4014 H   0  0  0  0  0  0  0  0  0  0  0  0  # atno 6909 bound_to 6896
  145.0752  139.3699  143.4937 H   0  0  0  0  0  0  0  0  0  0  0  0  # atno 7974 bound_to 7965
  155.7839  140.3481  155.5312 H   0  0  0  0  0  0  0  0  0  0  0  0  # atno 8008 bound_to 7997
  155.8701  140.0985  157.1577 H   0  0  0  0  0  0  0  0  0  0  0  0  # atno 8009 bound_to 7997
  154.4017  140.1342  156.4054 H   0  0  0  0  0  0  0  0  0  0  0  0  # atno 8010 bound_to 7997
  140.4778  143.2410  151.8105 H   0  0  0  0  0  0  0  0  0  0  0  0  # atno 10167 bound_to 10162
  156.0336  130.5552  150.7505 H   0  0  0  0  0  0  0  0  0  0  0  0  # atno 10718 bound_to 10713
  154.8716  135.3727  154.4772 H   0  0  0  0  0  0  0  0  0  0  0  0  # atno 10763 bound_to 10752
  153.5428  135.7026  153.5633 H   0  0  0  0  0  0  0  0  0  0  0  0  # atno 10764 bound_to 10752
  153.3788  135.4002  155.1806 H   0  0  0  0  0  0  0  0  0  0  0  0  # atno 10765 bound_to 10752
  139.9902  134.9517  156.9839 H   0  0  0  0  0  0  0  0  0  0  0  0  # atno 11005 bound_to 11000
  146.3530  140.0517  142.8635 LP  0  0  0  0  0  0  0  0  0  0  0  0  # atno 17320 bound_to 7965
  145.1244  140.9481  143.4581 LP  0  0  0  0  0  0  0  0  0  0  0  0  # atno 17321 bound_to 7965
  139.4828  144.4811  151.9306 LP  0  0  0  0  0  0  0  0  0  0  0  0  # atno 17342 bound_to 10162
  140.3896  144.2632  150.5901 LP  0  0  0  0  0  0  0  0  0  0  0  0  # atno 17343 bound_to 10162
  157.5050  131.0921  151.0268 LP  0  0  0  0  0  0  0  0  0  0  0  0  # atno 17370 bound_to 10713
  157.0638  130.5836  149.5390 LP  0  0  0  0  0  0  0  0  0  0  0  0  # atno 17371 bound_to 10713
  140.4922  134.1181  155.7235 LP  0  0  0  0  0  0  0  0  0  0  0  0  # atno 17394 bound_to 11000
  141.1560  133.8882  157.1977 LP  0  0  0  0  0  0  0  0  0  0  0  0  # atno 17395 bound_to 11000

$$$$
