AV-unprocessed.smi:999|AV-procd|sdf|4353|dock4
  -GOLD-   22720 2253D 1   1.00000     0.00000
 Structure written by MMmdl.
 37 38  0  0  0  0  0  0  0  0  2 V2000
  150.2807  144.4661  159.5675 C   0  0  0  0  0  0  0  0  0  0  0  0
  151.4732  143.6380  159.0460 C   0  0  2  0  0  0  0  0  0  0  0  0
  151.0440  142.5347  158.0665 C   0  0  0  0  0  0  0  0  0  0  0  0
  151.8502  141.6876  157.6794 O   0  0  0  0  0  0  0  0  0  0  0  0
  149.7604  142.5609  157.6750 N   0  0  0  0  0  0  0  0  0  0  0  0
  149.1330  141.6201  156.7533 C   0  0  2  0  0  0  0  0  0  0  0  0
  149.2208  140.1989  157.3416 C   0  0  0  0  0  0  0  0  0  0  0  0
  148.6580  139.1466  156.3678 C   0  0  0  0  0  0  0  0  0  0  0  0
  149.3490  139.1971  154.9833 C   0  0  2  0  0  0  0  0  0  0  0  0
  150.8051  138.6760  155.0259 C   0  0  0  0  0  0  0  0  0  0  0  0
  151.7185  139.4620  154.6897 O   0  0  0  0  0  0  0  0  0  0  0  0
  150.9893  137.4860  155.3659 O   0  5  0  0  0  0  0  0  0  0  0  0
  149.2425  140.6303  154.4064 C   0  0  0  0  0  0  0  0  0  0  0  0
  149.8064  141.6945  155.3669 C   0  0  0  0  0  0  0  0  0  0  0  0
  152.2742  143.0706  160.1248 N   0  0  0  0  0  0  0  0  0  0  0  0
  153.4055  142.2870  160.0175 C   0  0  0  0  0  0  0  0  0  0  0  0
  153.7944  141.9496  161.2821 C   0  0  0  0  0  0  0  0  0  0  0  0
  152.8179  142.5674  162.1113 C   0  0  0  0  0  0  0  0  0  0  0  0
  151.9054  143.2271  161.4176 N   0  0  0  0  0  0  0  0  0  0  0  0
  149.7263  144.9157  158.7431 H   0  0  0  0  0  0  0  0  0  0  0  0
  150.6233  145.2772  160.2102 H   0  0  0  0  0  0  0  0  0  0  0  0
  149.5796  143.8614  160.1439 H   0  0  0  0  0  0  0  0  0  0  0  0
  152.1201  144.3251  158.4975 H   0  0  0  0  0  0  0  0  0  0  0  0
  149.1681  143.2893  158.0463 H   0  0  0  0  0  0  0  0  0  0  0  0
  148.0768  141.8737  156.6445 H   0  0  0  0  0  0  0  0  0  0  0  0
  150.2576  139.9599  157.5824 H   0  0  0  0  0  0  0  0  0  0  0  0
  148.6722  140.1531  158.2829 H   0  0  0  0  0  0  0  0  0  0  0  0
  148.7329  138.1523  156.8095 H   0  0  0  0  0  0  0  0  0  0  0  0
  147.5902  139.3233  156.2352 H   0  0  0  0  0  0  0  0  0  0  0  0
  148.8147  138.5226  154.3135 H   0  0  0  0  0  0  0  0  0  0  0  0
  149.7370  140.7023  153.4369 H   0  0  0  0  0  0  0  0  0  0  0  0
  148.1929  140.8537  154.2117 H   0  0  0  0  0  0  0  0  0  0  0  0
  149.6624  142.6848  154.9338 H   0  0  0  0  0  0  0  0  0  0  0  0
  150.8842  141.5625  155.4708 H   0  0  0  0  0  0  0  0  0  0  0  0
  153.8356  142.0370  159.0587 H   0  0  0  0  0  0  0  0  0  0  0  0
  154.6432  141.3477  161.5709 H   0  0  0  0  0  0  0  0  0  0  0  0
  152.7422  142.5517  163.1885 H   0  0  0  0  0  0  0  0  0  0  0  0
  1  2  1  0  0  0  0
  1 20  1  0  0  0  0
  1 21  1  0  0  0  0
  1 22  1  0  0  0  0
  2  3  1  0  0  0  0
  2 15  1  0  0  0  0
  2 23  1  0  0  0  0
  3  4  2  0  0  0  0
  3  5  1  0  0  0  0
  5  6  1  0  0  0  0
  5 24  1  0  0  0  0
  6 14  1  0  0  0  0
  6  7  1  0  0  0  0
  6 25  1  0  0  0  0
  7  8  1  0  0  0  0
  7 26  1  0  0  0  0
  7 27  1  0  0  0  0
  8  9  1  0  0  0  0
  8 28  1  0  0  0  0
  8 29  1  0  0  0  0
  9 10  1  0  0  0  0
  9 13  1  0  0  0  0
  9 30  1  0  0  0  0
 10 11  2  0  0  0  0
 10 12  1  0  0  0  0
 13 14  1  0  0  0  0
 13 31  1  0  0  0  0
 13 32  1  0  0  0  0
 14 33  1  0  0  0  0
 14 34  1  0  0  0  0
 15 19  1  0  0  0  0
 15 16  1  0  0  0  0
 16 17  2  0  0  0  0
 16 35  1  0  0  0  0
 17 18  1  0  0  0  0
 17 36  1  0  0  0  0
 18 19  2  0  0  0  0
 18 37  1  0  0  0  0
M  CHG  1  12  -1
M  END
> <s_m_source_file>
AV-unprocessed.smi

> <i_m_source_file_index>
999

> <i_lp_mmshare_version>
43012

> <i_f3d_flags>
0

> <s_epik_input>
bjFbY0hdW2NIXVtjSF1uMVtDQEhdKFtDSDNdKUMoPU8pW05IXVtDQEBIXTJbQ0gyXVtDSDJdW0NAQEhdKEMoPU8pW09IXSlbQ0gyXVtDSDJdMg==

> <s_epik_cmdline>
J2VwaWtfcHl0aG9uJywgJy1waCcsICc3LjAnLCAnLXRuJywgJzgnLCAnLW1hJywgJzIwMCcsICctbWV0YWxfYmluZGluZycsICctaW1hZScsICc8aW5maWxlLm1hZT4nLCAnLW9tYWUnLCAnPG91dGZpbGUubWFlPic=

> <r_lp_tautomer_probability>
1

> <r_epik_Ionization_Penalty>
0.00221712

> <r_epik_Ionization_Penalty_Charging>
0.00217268

> <r_epik_Ionization_Penalty_Neutral>
4.44343e-05

> <r_epik_State_Penalty>
0.0014925

> <r_epik_Charging_Adjusted_Penalty>
0.00366518

> <i_epik_Tot_Q>
-1

> <i_epik_Tot_abs_Q>
1

> <r_epik_Metal_State_Penalty>
-0

> <b_epik_Metal_Only>
0

> <s_lp_Force_Field>
OPLS_2005

> <r_lp_Energy>
7.42219

> <b_lp_Chiralities_Consistent>
1

> <s_lp_Variant>
AV-unprocessed.smi:999-3

> <Gold.Version>
5.8.1

> <Gold.Id.Protein>
6NUR|6NUR_protein|mol2

> <Gold.PLP.Fitness>
40.3582

> <Gold.PLP.PLP>
-38.4013

> <Gold.PLP.part.hbond>
-2.4907

> <Gold.PLP.part.metal>
0.0000

> <Gold.PLP.part.buried>
-4.8179

> <Gold.PLP.part.nonpolar>
-31.3146

> <Gold.PLP.part.repulsive>
0.3377

> <Gold.PLP.ligand.clash>
0.5322

> <Gold.PLP.ligand.torsion>
0.3254

> <Gold.PLP.Chemscore.Hbond>
1.0000

> <Gold.PLP.Chemscore.CHOScore>
0.0000

> <Gold.PLP.Chemscore.Metal>
0.0000

> <Gold.Chemscore.Hbonds>
donor molecule, donor type, donor heavy atom, donor atom, acceptor molecule, acceptor atom, score
      P1  H  7989  7998       L1    11  1.00

> <Gold.PLP.Chemscore.Internal.Correction>
0.1399

> <Gold.Rescore>
     Score         DG    S(hbond)    S(metal)    S(lipo)     H(rot)  DE(clash)    DE(int)     intcor
      9.64     -12.96       1.00        0.00      78.58       1.98       0.00       3.31       ----

> <Gold.Chemscore.Fitness>
9.6437

> <Gold.Chemscore.DG>
-12.9569

> <Gold.Chemscore.ZeroCoef>
-5.4800

> <Gold.Chemscore.Hbond>
1.0014

> <Gold.Chemscore.Metal>
0.0000

> <Gold.Chemscore.Lipo>
78.5840

> <Gold.Chemscore.Internal_Hbond>
0.0000

> <Gold.Chemscore.DEClash>
0.0029

> <Gold.Chemscore.DEInternal>
3.3103

> <Gold.Chemscore.Rot>
1.9774

> <Gold.Chemscore.Internal.Correction>
   9.000000E+99

> <Gold.Chemscore.Hbonds>
donor molecule, donor type, donor heavy atom, donor atom, acceptor molecule, acceptor atom, score
      P1  H  7989  7998       L1    11  0.98

> <Gold.Chemscore.Hbond.Weighted>
-3.3446

> <Gold.Chemscore.Metal.Weighted>
-0.0000

> <Gold.Chemscore.Lipo.Weighted>
-9.1943

> <Gold.Chemscore.Internal_Hbond.Weighted>
0.0000

> <Gold.Chemscore.DEClash.Weighted>
0.0029

> <Gold.Chemscore.DEInternal.Weighted>
3.3103

> <Gold.Chemscore.Rot.Weighted>
5.0620

> <Gold.Chemscore.Internal.Correction.Weighted>
   9.000000E+99

> <Gold.Protein.RotatedTorsions>
[ 6907 6896 6895 6894 ] final  108.04 input  -60.11 | X-H torsion
[ 7974 7965 7964 7962 ] final  -40.47 input  175.53 | X-H torsion
[ 8008 7997 7996 7995 ] final   46.36 input   59.86 | X-H torsion
[ 10167 10162 10161 10158 ] final   61.01 input  -65.29 | X-H torsion
[ 10718 10713 10712 10709 ] final  106.85 input   66.30 | X-H torsion
[ 10763 10752 10751 10750 ] final  -77.34 input  -60.55 | X-H torsion
[ 11005 11000 10999 10996 ] final  176.81 input  -57.11 | X-H torsion

> <Gold.Protein.ActiveResidues>
 VAL166  LYS551  ARG553  GLY616  TRP617  ASP618  TYR619  PRO620  LYS621  CYS622 
 ASP623  PHE694  ASN695  SER759  ASP760  ASP761  ALA762  ILE779  LEU786  VAL792 
 PHE793  MET794  SER795  GLU796  ALA797  LYS798  CYS799  TRP800  GLU811  SER814 

> <Gold.Protein.RotatedAtoms>
  152.5129  133.9147  159.7504 H   0  0  0  0  0  0  0  0  0  0  0  0  # atno 6907 bound_to 6896
  150.9532  133.6517  159.2775 H   0  0  0  0  0  0  0  0  0  0  0  0  # atno 6908 bound_to 6896
  151.3788  135.0941  159.9542 H   0  0  0  0  0  0  0  0  0  0  0  0  # atno 6909 bound_to 6896
  146.0301  140.6742  142.9136 H   0  0  0  0  0  0  0  0  0  0  0  0  # atno 7974 bound_to 7965
  155.3512  140.3413  155.4239 H   0  0  0  0  0  0  0  0  0  0  0  0  # atno 8008 bound_to 7997
  156.1763  140.1648  156.8392 H   0  0  0  0  0  0  0  0  0  0  0  0  # atno 8009 bound_to 7997
  154.5285  140.0750  156.8285 H   0  0  0  0  0  0  0  0  0  0  0  0  # atno 8010 bound_to 7997
  140.1594  144.4385  150.6717 H   0  0  0  0  0  0  0  0  0  0  0  0  # atno 10167 bound_to 10162
  157.6652  131.0860  150.6068 H   0  0  0  0  0  0  0  0  0  0  0  0  # atno 10718 bound_to 10713
  154.5116  135.5767  153.6609 H   0  0  0  0  0  0  0  0  0  0  0  0  # atno 10763 bound_to 10752
  152.9898  135.6160  154.2871 H   0  0  0  0  0  0  0  0  0  0  0  0  # atno 10764 bound_to 10752
  154.2786  135.2851  155.2686 H   0  0  0  0  0  0  0  0  0  0  0  0  # atno 10765 bound_to 10752
  140.3772  134.6978  157.4429 H   0  0  0  0  0  0  0  0  0  0  0  0  # atno 11005 bound_to 11000
  144.7027  140.3721  143.7143 LP  0  0  0  0  0  0  0  0  0  0  0  0  # atno 17320 bound_to 7965
  145.7054  139.1671  143.2569 LP  0  0  0  0  0  0  0  0  0  0  0  0  # atno 17321 bound_to 7965
  140.6652  143.2265  151.5759 LP  0  0  0  0  0  0  0  0  0  0  0  0  # atno 17342 bound_to 10162
  139.5388  144.2705  152.1308 LP  0  0  0  0  0  0  0  0  0  0  0  0  # atno 17343 bound_to 10162
  156.6369  130.4447  149.5766 LP  0  0  0  0  0  0  0  0  0  0  0  0  # atno 17370 bound_to 10713
  156.2239  130.6754  151.1396 LP  0  0  0  0  0  0  0  0  0  0  0  0  # atno 17371 bound_to 10713
  140.0506  134.6136  155.8866 LP  0  0  0  0  0  0  0  0  0  0  0  0  # atno 17394 bound_to 11000
  141.1935  133.6579  156.5553 LP  0  0  0  0  0  0  0  0  0  0  0  0  # atno 17395 bound_to 11000

$$$$
