AV-unprocessed.smi:240|AV-procd|sdf|1832|dock4
  -GOLD-   2262020433D 1   1.00000     0.00000
 Structure written by MMmdl.
 55 59  0  0  0  0  0  0  0  0  1 V2000
  150.4515  133.1288  157.5899 O   0  0  0  0  0  0  0  0  0  0  0  0
  149.0755  132.8103  157.5914 C   0  0  2  0  0  0  0  0  0  0  0  0
  148.5482  132.5951  156.1729 C   0  0  0  0  0  0  0  0  0  0  0  0
  147.0350  132.8103  156.2873 C   0  0  0  0  0  0  0  0  0  0  0  0
  146.8126  133.6739  157.5398 C   0  0  0  0  0  0  0  0  0  0  0  0
  148.2096  133.9624  158.1206 C   0  0  1  0  0  0  0  0  0  0  0  0
  148.2728  134.2207  159.6571 C   0  0  2  0  0  0  0  0  0  0  0  0
  147.7827  133.0224  160.5107 C   0  0  0  0  0  0  0  0  0  0  0  0
  147.8775  133.3278  161.8974 O   0  0  0  0  0  0  0  0  0  0  0  0
  147.0636  134.4366  162.2539 C   0  0  0  0  0  0  0  0  0  0  0  0
  147.5553  135.6764  161.4965 C   0  0  0  0  0  0  0  0  0  0  0  0
  147.5412  135.4307  160.0592 N   0  0  0  0  0  0  0  0  0  0  0  0
  147.8050  136.5703  159.3804 C   0  0  0  0  0  0  0  0  0  0  0  0
  146.7566  137.1803  158.7750 N   0  0  0  0  0  0  0  0  0  0  0  0
  146.9473  138.3092  158.0860 C   0  0  0  0  0  0  0  0  0  0  0  0
  148.0807  138.9862  157.8887 N   0  0  0  0  0  0  0  0  0  0  0  0
  149.1344  138.3818  158.5098 C   0  0  0  0  0  0  0  0  0  0  0  0
  149.0871  137.1803  159.2714 C   0  0  0  0  0  0  0  0  0  0  0  0
  150.3547  136.8746  159.7515 N   0  0  0  0  0  0  0  0  0  0  0  0
  151.1083  137.8384  159.2977 C   0  0  0  0  0  0  0  0  0  0  0  0
  150.4557  138.7923  158.5494 N   0  0  0  0  0  0  0  0  0  0  0  0
  151.0462  139.9675  157.9263 C   0  0  0  0  0  0  0  0  0  0  0  0
  151.3004  139.8166  156.4046 C   0  0  2  0  0  0  0  0  0  0  0  0
  152.6374  139.3997  156.1965 O   0  0  0  0  0  0  0  0  0  0  0  0
  151.0406  141.0884  155.5962 C   0  0  0  0  0  0  0  0  0  0  0  0
  149.6167  140.8857  155.1023 C   0  0  0  0  0  0  0  0  0  0  0  0
  149.6080  139.5099  154.7648 O   0  0  0  0  0  0  0  0  0  0  0  0
  150.3297  138.8014  155.7662 C   0  0  0  0  0  0  0  0  0  0  0  0
  150.5725  133.9393  157.1192 H   0  0  0  0  0  0  0  0  0  0  0  0
  148.9160  131.8969  158.1629 H   0  0  0  0  0  0  0  0  0  0  0  0
  148.9673  133.3450  155.5002 H   0  0  0  0  0  0  0  0  0  0  0  0
  148.8039  131.6132  155.7733 H   0  0  0  0  0  0  0  0  0  0  0  0
  146.6317  133.2818  155.3908 H   0  0  0  0  0  0  0  0  0  0  0  0
  146.5285  131.8521  156.4073 H   0  0  0  0  0  0  0  0  0  0  0  0
  146.2884  134.5992  157.2998 H   0  0  0  0  0  0  0  0  0  0  0  0
  146.1860  133.1295  158.2444 H   0  0  0  0  0  0  0  0  0  0  0  0
  148.5722  134.8564  157.6108 H   0  0  0  0  0  0  0  0  0  0  0  0
  149.3202  134.3733  159.9177 H   0  0  0  0  0  0  0  0  0  0  0  0
  146.7556  132.7451  160.2737 H   0  0  0  0  0  0  0  0  0  0  0  0
  148.3986  132.1419  160.3347 H   0  0  0  0  0  0  0  0  0  0  0  0
  146.0165  134.2283  162.0285 H   0  0  0  0  0  0  0  0  0  0  0  0
  147.1347  134.5996  163.3293 H   0  0  0  0  0  0  0  0  0  0  0  0
  146.9205  136.5304  161.7380 H   0  0  0  0  0  0  0  0  0  0  0  0
  148.5682  135.9279  161.8149 H   0  0  0  0  0  0  0  0  0  0  0  0
  146.0648  138.7314  157.6283 H   0  0  0  0  0  0  0  0  0  0  0  0
  152.1682  137.8839  159.5025 H   0  0  0  0  0  0  0  0  0  0  0  0
  150.3874  140.8165  158.1140 H   0  0  0  0  0  0  0  0  0  0  0  0
  151.9812  140.1916  158.4415 H   0  0  0  0  0  0  0  0  0  0  0  0
  152.6407  138.7308  155.5287 H   0  0  0  0  0  0  0  0  0  0  0  0
  151.1673  142.0158  156.1524 H   0  0  0  0  0  0  0  0  0  0  0  0
  151.7038  141.1377  154.7310 H   0  0  0  0  0  0  0  0  0  0  0  0
  148.8923  141.0802  155.8949 H   0  0  0  0  0  0  0  0  0  0  0  0
  149.3727  141.5135  154.2451 H   0  0  0  0  0  0  0  0  0  0  0  0
  150.8380  137.9462  155.3184 H   0  0  0  0  0  0  0  0  0  0  0  0
  149.6221  138.4111  156.4988 H   0  0  0  0  0  0  0  0  0  0  0  0
  1  2  1  0  0  0  0
  1 29  1  0  0  0  0
  2  6  1  0  0  0  0
  2  3  1  0  0  0  0
  2 30  1  0  0  0  0
  3  4  1  0  0  0  0
  3 31  1  0  0  0  0
  3 32  1  0  0  0  0
  4  5  1  0  0  0  0
  4 33  1  0  0  0  0
  4 34  1  0  0  0  0
  5  6  1  0  0  0  0
  5 35  1  0  0  0  0
  5 36  1  0  0  0  0
  6  7  1  0  0  0  0
  6 37  1  0  0  0  0
  7 12  1  0  0  0  0
  7  8  1  0  0  0  0
  7 38  1  0  0  0  0
  8  9  1  0  0  0  0
  8 39  1  0  0  0  0
  8 40  1  0  0  0  0
  9 10  1  0  0  0  0
 10 11  1  0  0  0  0
 10 41  1  0  0  0  0
 10 42  1  0  0  0  0
 11 12  1  0  0  0  0
 11 43  1  0  0  0  0
 11 44  1  0  0  0  0
 12 13  1  0  0  0  0
 13 18  1  0  0  0  0
 13 14  2  0  0  0  0
 14 15  1  0  0  0  0
 15 16  2  0  0  0  0
 15 45  1  0  0  0  0
 16 17  1  0  0  0  0
 17 21  1  0  0  0  0
 17 18  2  0  0  0  0
 18 19  1  0  0  0  0
 19 20  2  0  0  0  0
 20 21  1  0  0  0  0
 20 46  1  0  0  0  0
 21 22  1  0  0  0  0
 22 23  1  0  0  0  0
 22 47  1  0  0  0  0
 22 48  1  0  0  0  0
 23 28  1  0  0  0  0
 23 24  1  0  0  0  0
 23 25  1  0  0  0  0
 24 49  1  0  0  0  0
 25 26  1  0  0  0  0
 25 50  1  0  0  0  0
 25 51  1  0  0  0  0
 26 27  1  0  0  0  0
 26 52  1  0  0  0  0
 26 53  1  0  0  0  0
 27 28  1  0  0  0  0
 28 54  1  0  0  0  0
 28 55  1  0  0  0  0
M  END
> <s_m_source_file>
AV-unprocessed.smi

> <i_m_source_file_index>
240

> <i_lp_mmshare_version>
43012

> <i_f3d_flags>
0

> <s_epik_input>
W09IXVtDQEBIXTFbQ0gyXVtDSDJdW0NIMl1bQ0BIXTFbQ0BASF0yW0NIMl1PW0NIMl1bQ0gyXU4yYyhuW2NIXW4zKWMoYzM0KW5bY0hdbjRbQ0gyXVtDQEBdNShbT0hdKVtDSDJdW0NIMl1PW0NIMl01

> <s_epik_cmdline>
J2VwaWtfcHl0aG9uJywgJy1waCcsICc3LjAnLCAnLXRuJywgJzgnLCAnLW1hJywgJzIwMCcsICctbWV0YWxfYmluZGluZycsICctaW1hZScsICc8aW5maWxlLm1hZT4nLCAnLW9tYWUnLCAnPG91dGZpbGUubWFlPic=

> <r_lp_tautomer_probability>
1

> <r_epik_Ionization_Penalty>
0.000130618

> <r_epik_Ionization_Penalty_Charging>
0

> <r_epik_Ionization_Penalty_Neutral>
0.000130618

> <r_epik_State_Penalty>
-0

> <r_epik_Charging_Adjusted_Penalty>
0

> <i_epik_Tot_Q>
0

> <i_epik_Tot_abs_Q>
0

> <r_epik_Metal_State_Penalty>
-0

> <b_epik_Metal_Only>
0

> <s_lp_Force_Field>
OPLS_2005

> <r_lp_Energy>
62.3789

> <b_lp_Chiralities_Consistent>
1

> <s_lp_Variant>
AV-unprocessed.smi:240-9

> <Gold.Version>
5.8.1

> <Gold.Id.Protein>
6NUR|6NUR_protein|mol2

> <Gold.PLP.Fitness>
37.2527

> <Gold.PLP.PLP>
-30.3903

> <Gold.PLP.part.hbond>
-3.2469

> <Gold.PLP.part.metal>
0.0000

> <Gold.PLP.part.buried>
-4.8403

> <Gold.PLP.part.nonpolar>
-23.2060

> <Gold.PLP.part.repulsive>
0.0995

> <Gold.PLP.ligand.clash>
0.0000

> <Gold.PLP.ligand.torsion>
1.1699

> <Gold.PLP.Chemscore.Hbond>
3.0000

> <Gold.PLP.Chemscore.CHOScore>
0.0000

> <Gold.PLP.Chemscore.Metal>
0.0000

> <Gold.Chemscore.Hbonds>
donor molecule, donor type, donor heavy atom, donor atom, acceptor molecule, acceptor atom, score
      P1  H  6896  6907       L1     1  1.00
      P1  H  6896  6908       L1    19  1.00
      P1  H  7997  8009       L1    24  1.00

> <Gold.PLP.Chemscore.Internal.Correction>
0.2022

> <Gold.Rescore>
     Score         DG    S(hbond)    S(metal)    S(lipo)     H(rot)  DE(clash)    DE(int)     intcor
     12.65     -14.13       2.51        0.00      68.09       3.00       0.31       1.17       ----

> <Gold.Chemscore.Fitness>
12.6545

> <Gold.Chemscore.DG>
-14.1330

> <Gold.Chemscore.ZeroCoef>
-5.4800

> <Gold.Chemscore.Hbond>
2.5078

> <Gold.Chemscore.Metal>
0.0000

> <Gold.Chemscore.Lipo>
68.0928

> <Gold.Chemscore.Internal_Hbond>
0.0000

> <Gold.Chemscore.DEClash>
0.3057

> <Gold.Chemscore.DEInternal>
1.1728

> <Gold.Chemscore.Rot>
3.0039

> <Gold.Chemscore.Internal.Correction>
   9.000000E+99

> <Gold.Chemscore.Hbonds>
donor molecule, donor type, donor heavy atom, donor atom, acceptor molecule, acceptor atom, score
      P1  H  6896  6907       L1     1  0.39
      P1  H  6896  6908       L1    19  0.96
      P1  H  7997  8009       L1    24  0.70

> <Gold.Chemscore.Hbond.Weighted>
-8.3761

> <Gold.Chemscore.Metal.Weighted>
-0.0000

> <Gold.Chemscore.Lipo.Weighted>
-7.9669

> <Gold.Chemscore.Internal_Hbond.Weighted>
0.0000

> <Gold.Chemscore.DEClash.Weighted>
0.3057

> <Gold.Chemscore.DEInternal.Weighted>
1.1728

> <Gold.Chemscore.Rot.Weighted>
7.6899

> <Gold.Chemscore.Internal.Correction.Weighted>
   9.000000E+99

> <Gold.Protein.RotatedTorsions>
[ 6907 6896 6895 6894 ] final -149.65 input  -60.11 | X-H torsion
[ 7974 7965 7964 7962 ] final  150.94 input  175.53 | X-H torsion
[ 8008 7997 7996 7995 ] final -161.67 input   59.86 | X-H torsion
[ 10167 10162 10161 10158 ] final  -43.10 input  -65.29 | X-H torsion
[ 10718 10713 10712 10709 ] final   83.01 input   66.30 | X-H torsion
[ 10763 10752 10751 10750 ] final  -88.72 input  -60.55 | X-H torsion
[ 11005 11000 10999 10996 ] final  163.61 input  -57.11 | X-H torsion

> <Gold.Protein.ActiveResidues>
 VAL166  LYS551  ARG553  GLY616  TRP617  ASP618  TYR619  PRO620  LYS621  CYS622 
 ASP623  PHE694  ASN695  SER759  ASP760  ASP761  ALA762  ILE779  LEU786  VAL792 
 PHE793  MET794  SER795  GLU796  ALA797  LYS798  CYS799  TRP800  GLU811  SER814 

> <Gold.Protein.RotatedAtoms>
  151.1871  133.4689  159.2594 H   0  0  0  0  0  0  0  0  0  0  0  0  # atno 6907 bound_to 6896
  151.1200  135.0074  159.8544 H   0  0  0  0  0  0  0  0  0  0  0  0  # atno 6908 bound_to 6896
  152.5455  134.1783  159.8678 H   0  0  0  0  0  0  0  0  0  0  0  0  # atno 6909 bound_to 6896
  144.8328  139.6473  143.6051 H   0  0  0  0  0  0  0  0  0  0  0  0  # atno 7974 bound_to 7965
  155.7956  140.0884  157.1985 H   0  0  0  0  0  0  0  0  0  0  0  0  # atno 8008 bound_to 7997
  154.3983  140.1482  156.3272 H   0  0  0  0  0  0  0  0  0  0  0  0  # atno 8009 bound_to 7997
  155.8515  140.3434  155.5699 H   0  0  0  0  0  0  0  0  0  0  0  0  # atno 8010 bound_to 7997
  140.6946  143.3001  151.3304 H   0  0  0  0  0  0  0  0  0  0  0  0  # atno 10167 bound_to 10162
  157.6870  131.0072  150.2459 H   0  0  0  0  0  0  0  0  0  0  0  0  # atno 10718 bound_to 10713
  154.6476  135.5367  153.7863 H   0  0  0  0  0  0  0  0  0  0  0  0  # atno 10763 bound_to 10752
  153.0368  135.6474  154.1065 H   0  0  0  0  0  0  0  0  0  0  0  0  # atno 10764 bound_to 10752
  154.0985  135.2935  155.3236 H   0  0  0  0  0  0  0  0  0  0  0  0  # atno 10765 bound_to 10752
  140.2375  134.8076  157.3378 H   0  0  0  0  0  0  0  0  0  0  0  0  # atno 11005 bound_to 11000
  146.2629  139.6453  142.9349 LP  0  0  0  0  0  0  0  0  0  0  0  0  # atno 17320 bound_to 7965
  145.4859  141.0438  143.2620 LP  0  0  0  0  0  0  0  0  0  0  0  0  # atno 17321 bound_to 7965
  139.6386  144.0583  152.2536 LP  0  0  0  0  0  0  0  0  0  0  0  0  # atno 17342 bound_to 10162
  140.0081  144.6244  150.7671 LP  0  0  0  0  0  0  0  0  0  0  0  0  # atno 17343 bound_to 10162
  156.3065  130.3766  149.7701 LP  0  0  0  0  0  0  0  0  0  0  0  0  # atno 17370 bound_to 10713
  156.5315  130.8260  151.3238 LP  0  0  0  0  0  0  0  0  0  0  0  0  # atno 17371 bound_to 10713
  140.1687  134.4636  155.7846 LP  0  0  0  0  0  0  0  0  0  0  0  0  # atno 17394 bound_to 11000
  141.2213  133.6932  156.7670 LP  0  0  0  0  0  0  0  0  0  0  0  0  # atno 17395 bound_to 11000

$$$$
