AV-unprocessed.smi:1227|AV-procd|sdf|5146|dock2
  -GOLD-   22720 4213D 1   1.00000     0.00000
 Structure written by MMmdl.
 44 45  0  0  0  0  0  0  0  0  1 V2000
  148.2324  132.3354  152.3971 C   0  0  0  0  0  0  0  0  0  0  0  0
  148.9826  133.4094  152.9539 O   0  0  0  0  0  0  0  0  0  0  0  0
  149.9782  133.1161  153.8666 C   0  0  0  0  0  0  0  0  0  0  0  0
  150.2646  131.8125  154.1097 N   0  0  0  0  0  0  0  0  0  0  0  0
  151.2325  131.5223  155.0024 C   0  0  0  0  0  0  0  0  0  0  0  0
  151.9578  132.5065  155.6975 C   0  0  0  0  0  0  0  0  0  0  0  0
  151.6629  133.8596  155.4481 C   0  0  0  0  0  0  0  0  0  0  0  0
  150.6546  134.1822  154.5061 C   0  0  0  0  0  0  0  0  0  0  0  0
  150.2570  135.5098  154.1789 N   0  0  0  0  0  0  0  0  0  0  0  0
  150.4168  136.6485  154.8749 C   0  0  0  0  0  0  0  0  0  0  0  0
  150.9714  136.7504  155.9687 O   0  0  0  0  0  0  0  0  0  0  0  0
  149.8958  137.6916  154.2138 N   0  0  0  0  0  0  0  0  0  0  0  0
  149.8905  139.0686  154.6922 C   0  0  0  0  0  0  0  0  0  0  0  0
  151.2975  139.5300  155.1172 C   0  0  0  0  0  0  0  0  0  0  0  0
  151.2806  140.1130  156.4670 N   0  0  0  0  0  0  0  0  0  0  0  0
  150.1167  140.9557  156.7821 C   0  0  0  0  0  0  0  0  0  0  0  0
  150.4984  142.4287  157.0269 C   0  0  0  0  0  0  0  0  0  0  0  0
  151.0258  142.7119  158.4415 C   0  0  0  0  0  0  0  0  0  0  0  0
  152.3356  141.9883  158.7851 C   0  0  0  0  0  0  0  0  0  0  0  0
  152.2069  140.4563  158.7568 C   0  0  0  0  0  0  0  0  0  0  0  0
  152.2935  139.8829  157.3366 C   0  0  0  0  0  0  0  0  0  0  0  0
  153.2840  139.2133  157.0401 O   0  0  0  0  0  0  0  0  0  0  0  0
  147.4917  132.7345  151.7041 H   0  0  0  0  0  0  0  0  0  0  0  0
  147.6969  131.7812  153.1692 H   0  0  0  0  0  0  0  0  0  0  0  0
  148.8705  131.6484  151.8397 H   0  0  0  0  0  0  0  0  0  0  0  0
  151.4314  130.4742  155.1709 H   0  0  0  0  0  0  0  0  0  0  0  0
  152.7209  132.2301  156.4099 H   0  0  0  0  0  0  0  0  0  0  0  0
  152.2098  134.6114  155.9936 H   0  0  0  0  0  0  0  0  0  0  0  0
  149.8196  135.6090  153.2744 H   0  0  0  0  0  0  0  0  0  0  0  0
  149.4644  137.5200  153.3173 H   0  0  0  0  0  0  0  0  0  0  0  0
  149.5138  139.6979  153.8855 H   0  0  0  0  0  0  0  0  0  0  0  0
  149.1873  139.1731  155.5202 H   0  0  0  0  0  0  0  0  0  0  0  0
  151.9989  138.6967  155.0661 H   0  0  0  0  0  0  0  0  0  0  0  0
  151.6813  140.2562  154.3983 H   0  0  0  0  0  0  0  0  0  0  0  0
  149.4035  140.9343  155.9577 H   0  0  0  0  0  0  0  0  0  0  0  0
  149.5756  140.5470  157.6365 H   0  0  0  0  0  0  0  0  0  0  0  0
  151.2197  142.7616  156.2792 H   0  0  0  0  0  0  0  0  0  0  0  0
  149.6097  143.0421  156.8749 H   0  0  0  0  0  0  0  0  0  0  0  0
  151.1815  143.7859  158.5483 H   0  0  0  0  0  0  0  0  0  0  0  0
  150.2616  142.4480  159.1737 H   0  0  0  0  0  0  0  0  0  0  0  0
  153.1293  142.3161  158.1119 H   0  0  0  0  0  0  0  0  0  0  0  0
  152.6487  142.2945  159.7837 H   0  0  0  0  0  0  0  0  0  0  0  0
  153.0218  140.0265  159.3409 H   0  0  0  0  0  0  0  0  0  0  0  0
  151.2889  140.1276  159.2452 H   0  0  0  0  0  0  0  0  0  0  0  0
  1  2  1  0  0  0  0
  1 23  1  0  0  0  0
  1 24  1  0  0  0  0
  1 25  1  0  0  0  0
  2  3  1  0  0  0  0
  3  8  1  0  0  0  0
  3  4  2  0  0  0  0
  4  5  1  0  0  0  0
  5  6  2  0  0  0  0
  5 26  1  0  0  0  0
  6  7  1  0  0  0  0
  6 27  1  0  0  0  0
  7  8  2  0  0  0  0
  7 28  1  0  0  0  0
  8  9  1  0  0  0  0
  9 10  1  0  0  0  0
  9 29  1  0  0  0  0
 10 11  2  0  0  0  0
 10 12  1  0  0  0  0
 12 13  1  0  0  0  0
 12 30  1  0  0  0  0
 13 14  1  0  0  0  0
 13 31  1  0  0  0  0
 13 32  1  0  0  0  0
 14 15  1  0  0  0  0
 14 33  1  0  0  0  0
 14 34  1  0  0  0  0
 15 21  1  0  0  0  0
 15 16  1  0  0  0  0
 16 17  1  0  0  0  0
 16 35  1  0  0  0  0
 16 36  1  0  0  0  0
 17 18  1  0  0  0  0
 17 37  1  0  0  0  0
 17 38  1  0  0  0  0
 18 19  1  0  0  0  0
 18 39  1  0  0  0  0
 18 40  1  0  0  0  0
 19 20  1  0  0  0  0
 19 41  1  0  0  0  0
 19 42  1  0  0  0  0
 20 21  1  0  0  0  0
 20 43  1  0  0  0  0
 20 44  1  0  0  0  0
 21 22  2  0  0  0  0
M  END
> <s_m_source_file>
AV-unprocessed.smi

> <i_m_source_file_index>
1227

> <i_lp_mmshare_version>
43012

> <i_f3d_flags>
0

> <s_epik_input>
W0NIM11PYzFuW2NIXVtjSF1bY0hdYzFbTkhdQyg9TylbTkhdW0NIMl1bQ0gyXU4yW0NIMl1bQ0gyXVtDSDJdW0NIMl1bQ0gyXUMyPU8=

> <s_epik_cmdline>
J2VwaWtfcHl0aG9uJywgJy1waCcsICc3LjAnLCAnLXRuJywgJzgnLCAnLW1hJywgJzIwMCcsICctbWV0YWxfYmluZGluZycsICctaW1hZScsICc8aW5maWxlLm1hZT4nLCAnLW9tYWUnLCAnPG91dGZpbGUubWFlPic=

> <r_lp_tautomer_probability>
1

> <r_epik_Ionization_Penalty>
8.86757e-05

> <r_epik_Ionization_Penalty_Charging>
0

> <r_epik_Ionization_Penalty_Neutral>
8.86757e-05

> <r_epik_State_Penalty>
-0

> <r_epik_Charging_Adjusted_Penalty>
0

> <i_epik_Tot_Q>
0

> <i_epik_Tot_abs_Q>
0

> <r_epik_Metal_State_Penalty>
-0

> <b_epik_Metal_Only>
0

> <s_lp_Force_Field>
OPLS_2005

> <r_lp_Energy>
20.5681

> <b_lp_Chiralities_Consistent>
1

> <s_lp_Variant>
AV-unprocessed.smi:1227-1

> <Gold.Version>
5.8.1

> <Gold.Id.Protein>
6NUR|6NUR_protein|mol2

> <Gold.PLP.Fitness>
44.3309

> <Gold.PLP.PLP>
-37.1671

> <Gold.PLP.part.hbond>
-3.3301

> <Gold.PLP.part.metal>
0.0000

> <Gold.PLP.part.buried>
-3.4247

> <Gold.PLP.part.nonpolar>
-31.5357

> <Gold.PLP.part.repulsive>
1.2452

> <Gold.PLP.ligand.clash>
0.0000

> <Gold.PLP.ligand.torsion>
0.8072

> <Gold.PLP.Chemscore.Hbond>
2.9100

> <Gold.PLP.Chemscore.CHOScore>
0.0000

> <Gold.PLP.Chemscore.Metal>
0.0000

> <Gold.Chemscore.Hbonds>
donor molecule, donor type, donor heavy atom, donor atom, acceptor molecule, acceptor atom, score
      L1  H     9    29       P1  7948  0.35
      L1  H    12    30       P1  7948  0.99
      P1  H  7997  8008       L1    22  0.86

> <Gold.PLP.Chemscore.Internal.Correction>
0.0482

> <Gold.Rescore>
     Score         DG    S(hbond)    S(metal)    S(lipo)     H(rot)  DE(clash)    DE(int)     intcor
     14.64     -17.61       2.58        0.00      69.16       1.79       0.04       2.93       ----

> <Gold.Chemscore.Fitness>
14.6427

> <Gold.Chemscore.DG>
-17.6052

> <Gold.Chemscore.ZeroCoef>
-5.4800

> <Gold.Chemscore.Hbond>
2.5788

> <Gold.Chemscore.Metal>
0.0000

> <Gold.Chemscore.Lipo>
69.1613

> <Gold.Chemscore.Internal_Hbond>
0.0000

> <Gold.Chemscore.DEClash>
0.0354

> <Gold.Chemscore.DEInternal>
2.9271

> <Gold.Chemscore.Rot>
1.7890

> <Gold.Chemscore.Internal.Correction>
   9.000000E+99

> <Gold.Chemscore.Hbonds>
donor molecule, donor type, donor heavy atom, donor atom, acceptor molecule, acceptor atom, score
      L1  H     9    29       P1  7948  0.01
      L1  H    12    30       P1  7948  0.85
      P1  H  7997  8008       L1    22  0.65

> <Gold.Chemscore.Hbond.Weighted>
-8.6132

> <Gold.Chemscore.Metal.Weighted>
-0.0000

> <Gold.Chemscore.Lipo.Weighted>
-8.0919

> <Gold.Chemscore.Internal_Hbond.Weighted>
0.0000

> <Gold.Chemscore.DEClash.Weighted>
0.0354

> <Gold.Chemscore.DEInternal.Weighted>
2.9271

> <Gold.Chemscore.Rot.Weighted>
4.5799

> <Gold.Chemscore.Internal.Correction.Weighted>
   9.000000E+99

> <Gold.Protein.RotatedTorsions>
[ 6907 6896 6895 6894 ] final -113.19 input  -60.11 | X-H torsion
[ 7974 7965 7964 7962 ] final   53.68 input  175.53 | X-H torsion
[ 8008 7997 7996 7995 ] final  -52.18 input   59.86 | X-H torsion
[ 10167 10162 10161 10158 ] final   39.81 input  -65.29 | X-H torsion
[ 10718 10713 10712 10709 ] final  -38.18 input   66.30 | X-H torsion
[ 10763 10752 10751 10750 ] final -146.15 input  -60.55 | X-H torsion
[ 11005 11000 10999 10996 ] final   -5.70 input  -57.11 | X-H torsion

> <Gold.Protein.ActiveResidues>
 VAL166  LYS551  ARG553  GLY616  TRP617  ASP618  TYR619  PRO620  LYS621  CYS622 
 ASP623  PHE694  ASN695  SER759  ASP760  ASP761  ALA762  ILE779  LEU786  VAL792 
 PHE793  MET794  SER795  GLU796  ALA797  LYS798  CYS799  TRP800  GLU811  SER814 

> <Gold.Protein.RotatedAtoms>
  150.7811  133.8981  159.3332 H   0  0  0  0  0  0  0  0  0  0  0  0  # atno 6907 bound_to 6896
  151.6843  135.0955  160.0231 H   0  0  0  0  0  0  0  0  0  0  0  0  # atno 6908 bound_to 6896
  152.3863  133.6577  159.6236 H   0  0  0  0  0  0  0  0  0  0  0  0  # atno 6909 bound_to 6896
  145.9687  139.4128  143.0203 H   0  0  0  0  0  0  0  0  0  0  0  0  # atno 7974 bound_to 7965
  154.4100  140.1230  156.4949 H   0  0  0  0  0  0  0  0  0  0  0  0  # atno 8008 bound_to 7997
  155.6953  140.3495  155.4891 H   0  0  0  0  0  0  0  0  0  0  0  0  # atno 8009 bound_to 7997
  155.9433  140.1091  157.1027 H   0  0  0  0  0  0  0  0  0  0  0  0  # atno 8010 bound_to 7997
  140.3804  144.1988  150.6131 H   0  0  0  0  0  0  0  0  0  0  0  0  # atno 10167 bound_to 10162
  156.3067  130.4247  149.8090 H   0  0  0  0  0  0  0  0  0  0  0  0  # atno 10718 bound_to 10713
  154.8350  135.3394  154.6617 H   0  0  0  0  0  0  0  0  0  0  0  0  # atno 10763 bound_to 10752
  153.7232  135.6957  153.5012 H   0  0  0  0  0  0  0  0  0  0  0  0  # atno 10764 bound_to 10752
  153.2366  135.4398  155.0605 H   0  0  0  0  0  0  0  0  0  0  0  0  # atno 10765 bound_to 10752
  140.6940  133.9046  155.8637 H   0  0  0  0  0  0  0  0  0  0  0  0  # atno 11005 bound_to 11000
  145.7937  140.9803  143.1035 LP  0  0  0  0  0  0  0  0  0  0  0  0  # atno 17320 bound_to 7965
  144.6831  139.9714  143.7482 LP  0  0  0  0  0  0  0  0  0  0  0  0  # atno 17321 bound_to 7965
  140.4944  143.2337  151.8772 LP  0  0  0  0  0  0  0  0  0  0  0  0  # atno 17342 bound_to 10162
  139.4796  144.5130  151.8906 LP  0  0  0  0  0  0  0  0  0  0  0  0  # atno 17343 bound_to 10162
  156.5448  130.8316  151.3281 LP  0  0  0  0  0  0  0  0  0  0  0  0  # atno 17370 bound_to 10713
  157.7381  130.9808  150.2233 LP  0  0  0  0  0  0  0  0  0  0  0  0  # atno 17371 bound_to 10713
  141.0218  134.0878  157.4112 LP  0  0  0  0  0  0  0  0  0  0  0  0  # atno 17394 bound_to 11000
  139.8915  135.0119  156.6796 LP  0  0  0  0  0  0  0  0  0  0  0  0  # atno 17395 bound_to 11000

$$$$
