AV-unprocessed.smi:1677|AV-procd|sdf|6727|dock3
  -GOLD-   22720 7473D 1   1.00000     0.00000
 Structure written by MMmdl.
 36 37  0  0  0  0  0  0  0  0  1 V2000
  147.7522  141.5963  154.9705 C   0  0  0  0  0  0  0  0  0  0  0  0
  148.9272  140.7286  155.4506 C   0  0  1  0  0  0  0  0  0  0  0  0
  149.8001  140.1908  154.2961 C   0  0  0  0  0  0  0  0  0  0  0  0
  150.7977  139.2375  154.7437 N   0  0  0  0  0  0  0  0  0  0  0  0
  151.8516  139.4780  155.6154 C   0  0  0  0  0  0  0  0  0  0  0  0
  152.5333  138.2892  155.7457 C   0  0  0  0  0  0  0  0  0  0  0  0
  151.9217  137.3102  154.9657 N   0  0  0  0  0  0  0  0  0  0  0  0
  150.9040  137.9463  154.4001 C   0  0  0  0  0  0  0  0  0  0  0  0
  149.7451  141.5054  156.3771 N   0  0  0  0  0  0  0  0  0  0  0  0
  149.9357  141.2214  157.6751 C   0  0  0  0  0  0  0  0  0  0  0  0
  149.4380  140.2427  158.2328 O   0  0  0  0  0  0  0  0  0  0  0  0
  150.8292  142.1898  158.4613 C   0  0  1  0  0  0  0  0  0  0  0  0
  151.9417  141.4303  159.2192 C   0  0  0  0  0  0  0  0  0  0  0  0
  152.9799  142.3719  159.8037 C   0  0  0  0  0  0  0  0  0  0  0  0
  153.1132  143.6537  159.4220 C   0  0  0  0  0  0  0  0  0  0  0  0
  152.2453  144.3039  158.3588 C   0  0  0  0  0  0  0  0  0  0  0  0
  151.4431  143.2689  157.5464 C   0  0  0  0  0  0  0  0  0  0  0  0
  147.0634  141.0276  154.3457 H   0  0  0  0  0  0  0  0  0  0  0  0
  148.1011  142.4510  154.3900 H   0  0  0  0  0  0  0  0  0  0  0  0
  147.1784  141.9794  155.8150 H   0  0  0  0  0  0  0  0  0  0  0  0
  148.5028  139.8788  155.9890 H   0  0  0  0  0  0  0  0  0  0  0  0
  149.1763  139.7113  153.5402 H   0  0  0  0  0  0  0  0  0  0  0  0
  150.3194  141.0103  153.7972 H   0  0  0  0  0  0  0  0  0  0  0  0
  152.0228  140.4480  156.0589 H   0  0  0  0  0  0  0  0  0  0  0  0
  153.4100  138.0652  156.3354 H   0  0  0  0  0  0  0  0  0  0  0  0
  150.2161  137.4600  153.7240 H   0  0  0  0  0  0  0  0  0  0  0  0
  150.1966  142.3278  156.0037 H   0  0  0  0  0  0  0  0  0  0  0  0
  150.2077  142.7018  159.1987 H   0  0  0  0  0  0  0  0  0  0  0  0
  151.5037  140.8488  160.0313 H   0  0  0  0  0  0  0  0  0  0  0  0
  152.4573  140.7251  158.5657 H   0  0  0  0  0  0  0  0  0  0  0  0
  153.6405  141.9635  160.5546 H   0  0  0  0  0  0  0  0  0  0  0  0
  153.8631  144.2769  159.8868 H   0  0  0  0  0  0  0  0  0  0  0  0
  151.5688  145.0001  158.8555 H   0  0  0  0  0  0  0  0  0  0  0  0
  152.8743  144.8932  157.6913 H   0  0  0  0  0  0  0  0  0  0  0  0
  152.1069  142.7962  156.8203 H   0  0  0  0  0  0  0  0  0  0  0  0
  150.6683  143.7757  156.9695 H   0  0  0  0  0  0  0  0  0  0  0  0
  1  2  1  0  0  0  0
  1 18  1  0  0  0  0
  1 19  1  0  0  0  0
  1 20  1  0  0  0  0
  2  3  1  0  0  0  0
  2  9  1  0  0  0  0
  2 21  1  0  0  0  0
  3  4  1  0  0  0  0
  3 22  1  0  0  0  0
  3 23  1  0  0  0  0
  4  8  1  0  0  0  0
  4  5  1  0  0  0  0
  5  6  2  0  0  0  0
  5 24  1  0  0  0  0
  6  7  1  0  0  0  0
  6 25  1  0  0  0  0
  7  8  2  0  0  0  0
  8 26  1  0  0  0  0
  9 10  1  0  0  0  0
  9 27  1  0  0  0  0
 10 11  2  0  0  0  0
 10 12  1  0  0  0  0
 12 17  1  0  0  0  0
 12 13  1  0  0  0  0
 12 28  1  0  0  0  0
 13 14  1  0  0  0  0
 13 29  1  0  0  0  0
 13 30  1  0  0  0  0
 14 15  2  0  0  0  0
 14 31  1  0  0  0  0
 15 16  1  0  0  0  0
 15 32  1  0  0  0  0
 16 17  1  0  0  0  0
 16 33  1  0  0  0  0
 16 34  1  0  0  0  0
 17 35  1  0  0  0  0
 17 36  1  0  0  0  0
M  END
> <s_m_source_file>
AV-unprocessed.smi

> <i_m_source_file_index>
1677

> <i_lp_mmshare_version>
43012

> <i_f3d_flags>
0

> <s_epik_input>
W2NIXTFuW2NIXVtjSF1uMVtDSDJdW0NAQEhdKFtDSDNdKVtOSF1DKD1PKVtDQEBIXTJbQ0gyXVtDSF09W0NIXVtDSDJdW0NIMl0y

> <s_epik_cmdline>
J2VwaWtfcHl0aG9uJywgJy1waCcsICc3LjAnLCAnLXRuJywgJzgnLCAnLW1hJywgJzIwMCcsICctbWV0YWxfYmluZGluZycsICctaW1hZScsICc8aW5maWxlLm1hZT4nLCAnLW9tYWUnLCAnPG91dGZpbGUubWFlPic=

> <r_lp_tautomer_probability>
1

> <r_epik_Ionization_Penalty>
0.640435

> <r_epik_Ionization_Penalty_Charging>
0.640435

> <r_epik_Ionization_Penalty_Neutral>
2.11108e-08

> <r_epik_State_Penalty>
0.658069

> <r_epik_Charging_Adjusted_Penalty>
1.2985

> <i_epik_Tot_Q>
0

> <i_epik_Tot_abs_Q>
0

> <r_epik_Metal_State_Penalty>
0.311689

> <b_epik_Metal_Only>
0

> <s_lp_Force_Field>
OPLS_2005

> <r_lp_Energy>
10.2331

> <b_lp_Chiralities_Consistent>
1

> <s_lp_Variant>
AV-unprocessed.smi:1677-8

> <Gold.Version>
5.8.1

> <Gold.Id.Protein>
6NUR|6NUR_protein|mol2

> <Gold.PLP.Fitness>
42.8008

> <Gold.PLP.PLP>
-38.5066

> <Gold.PLP.part.hbond>
-1.0000

> <Gold.PLP.part.metal>
0.0000

> <Gold.PLP.part.buried>
-1.5581

> <Gold.PLP.part.nonpolar>
-36.0546

> <Gold.PLP.part.repulsive>
0.1508

> <Gold.PLP.ligand.clash>
1.3358

> <Gold.PLP.ligand.torsion>
0.1341

> <Gold.PLP.Chemscore.Hbond>
0.8564

> <Gold.PLP.Chemscore.CHOScore>
1.0943

> <Gold.PLP.Chemscore.Metal>
0.0000

> <Gold.Chemscore.Hbonds>
donor molecule, donor type, donor heavy atom, donor atom, acceptor molecule, acceptor atom, score
      P1  H 10752 10765       L1     7  0.93
      L1  C     8    26       P1  7948  1.00
      L1  C     8    26       P1  7949  0.06

> <Gold.PLP.Chemscore.Internal.Correction>
0.0458

> <Gold.Rescore>
     Score         DG    S(hbond)    S(metal)    S(lipo)     H(rot)  DE(clash)    DE(int)     intcor
     15.31     -15.58       0.89        0.00      99.25       1.75       0.04       0.23       ----

> <Gold.Chemscore.Fitness>
15.3088

> <Gold.Chemscore.DG>
-15.5826

> <Gold.Chemscore.ZeroCoef>
-5.4800

> <Gold.Chemscore.Hbond>
0.8874

> <Gold.Chemscore.Metal>
0.0000

> <Gold.Chemscore.Lipo>
99.2503

> <Gold.Chemscore.Internal_Hbond>
0.0000

> <Gold.Chemscore.DEClash>
0.0413

> <Gold.Chemscore.DEInternal>
0.2324

> <Gold.Chemscore.Rot>
1.7475

> <Gold.Chemscore.Internal.Correction>
   9.000000E+99

> <Gold.Chemscore.Hbonds>
donor molecule, donor type, donor heavy atom, donor atom, acceptor molecule, acceptor atom, score
      P1  H 10752 10765       L1     7  0.83

> <Gold.Chemscore.Hbond.Weighted>
-2.9638

> <Gold.Chemscore.Metal.Weighted>
-0.0000

> <Gold.Chemscore.Lipo.Weighted>
-11.6123

> <Gold.Chemscore.Internal_Hbond.Weighted>
0.0000

> <Gold.Chemscore.DEClash.Weighted>
0.0413

> <Gold.Chemscore.DEInternal.Weighted>
0.2324

> <Gold.Chemscore.Rot.Weighted>
4.4735

> <Gold.Chemscore.Internal.Correction.Weighted>
   9.000000E+99

> <Gold.Protein.RotatedTorsions>
[ 6907 6896 6895 6894 ] final -116.40 input  -60.11 | X-H torsion
[ 7974 7965 7964 7962 ] final   17.37 input  175.53 | X-H torsion
[ 8008 7997 7996 7995 ] final -104.04 input   59.86 | X-H torsion
[ 10167 10162 10161 10158 ] final -108.59 input  -65.29 | X-H torsion
[ 10718 10713 10712 10709 ] final   70.96 input   66.30 | X-H torsion
[ 10763 10752 10751 10750 ] final  170.51 input  -60.55 | X-H torsion
[ 11005 11000 10999 10996 ] final -129.56 input  -57.11 | X-H torsion

> <Gold.Protein.ActiveResidues>
 VAL166  LYS551  ARG553  GLY616  TRP617  ASP618  TYR619  PRO620  LYS621  CYS622 
 ASP623  PHE694  ASN695  SER759  ASP760  ASP761  ALA762  ILE779  LEU786  VAL792 
 PHE793  MET794  SER795  GLU796  ALA797  LYS798  CYS799  TRP800  GLU811  SER814 

> <Gold.Protein.RotatedAtoms>
  150.8053  133.8522  159.3208 H   0  0  0  0  0  0  0  0  0  0  0  0  # atno 6907 bound_to 6896
  151.6323  135.1020  160.0134 H   0  0  0  0  0  0  0  0  0  0  0  0  # atno 6908 bound_to 6896
  152.4143  133.6973  159.6460 H   0  0  0  0  0  0  0  0  0  0  0  0  # atno 6909 bound_to 6896
  146.2220  139.8612  142.8604 H   0  0  0  0  0  0  0  0  0  0  0  0  # atno 7974 bound_to 7965
  154.8796  140.0420  157.1774 H   0  0  0  0  0  0  0  0  0  0  0  0  # atno 8008 bound_to 7997
  154.8653  140.2950  155.5493 H   0  0  0  0  0  0  0  0  0  0  0  0  # atno 8009 bound_to 7997
  156.2999  140.2439  156.3633 H   0  0  0  0  0  0  0  0  0  0  0  0  # atno 8010 bound_to 7997
  140.1645  143.4093  152.1401 H   0  0  0  0  0  0  0  0  0  0  0  0  # atno 10167 bound_to 10162
  157.6427  130.9504  150.0722 H   0  0  0  0  0  0  0  0  0  0  0  0  # atno 10718 bound_to 10713
  154.3986  135.2754  155.2110 H   0  0  0  0  0  0  0  0  0  0  0  0  # atno 10763 bound_to 10752
  154.4146  135.6014  153.5976 H   0  0  0  0  0  0  0  0  0  0  0  0  # atno 10764 bound_to 10752
  152.9831  135.5957  154.4251 H   0  0  0  0  0  0  0  0  0  0  0  0  # atno 10765 bound_to 10752
  140.9421  134.1179  157.4141 H   0  0  0  0  0  0  0  0  0  0  0  0  # atno 11005 bound_to 11000
  145.2702  141.0106  143.3776 LP  0  0  0  0  0  0  0  0  0  0  0  0  # atno 17320 bound_to 7965
  144.9229  139.4390  143.6532 LP  0  0  0  0  0  0  0  0  0  0  0  0  # atno 17321 bound_to 7965
  139.5366  144.7215  151.4873 LP  0  0  0  0  0  0  0  0  0  0  0  0  # atno 17342 bound_to 10162
  140.6622  143.8475  150.6900 LP  0  0  0  0  0  0  0  0  0  0  0  0  # atno 17343 bound_to 10162
  156.1723  130.3647  149.9148 LP  0  0  0  0  0  0  0  0  0  0  0  0  # atno 17370 bound_to 10713
  156.7120  130.8974  151.3610 LP  0  0  0  0  0  0  0  0  0  0  0  0  # atno 17371 bound_to 10713
  139.8823  135.0040  156.6220 LP  0  0  0  0  0  0  0  0  0  0  0  0  # atno 17394 bound_to 11000
  140.7720  133.8730  155.8499 LP  0  0  0  0  0  0  0  0  0  0  0  0  # atno 17395 bound_to 11000

$$$$
