AV-unprocessed.smi:2044|AV-procd|sdf|8300|dock4
  -GOLD-   2272010563D 1   1.00000     0.00000
 Structure written by MMmdl.
 40 41  0  0  0  0  0  0  0  0  2 V2000
  151.0271  142.2751  156.1923 C   0  0  0  0  0  0  0  0  0  0  0  0
  150.6104  141.0926  155.3870 C   0  0  0  0  0  0  0  0  0  0  0  0
  149.3979  140.6611  154.9285 C   0  0  0  0  0  0  0  0  0  0  0  0
  149.7283  139.4613  154.2336 C   0  0  0  0  0  0  0  0  0  0  0  0
  148.8204  138.5989  153.5666 N   0  0  0  0  0  0  0  0  0  0  0  0
  147.4816  138.6876  153.4993 C   0  0  0  0  0  0  0  0  0  0  0  0
  146.7991  139.5747  154.0111 O   0  0  0  0  0  0  0  0  0  0  0  0
  146.9633  137.6797  152.7812 N   0  0  0  0  0  0  0  0  0  0  0  0
  145.5405  137.4688  152.5214 C   0  0  0  0  0  0  0  0  0  0  0  0
  145.2640  136.2908  151.5493 C   0  0  2  0  0  0  0  0  0  0  0  0
  143.7732  135.8735  151.5975 C   0  0  0  0  0  0  0  0  0  0  0  0
  146.2066  135.1583  151.8341 N   0  3  0  0  0  0  0  0  0  0  0  0
  146.2673  134.7094  153.2532 C   0  0  0  0  0  0  0  0  0  0  0  0
  147.2906  133.5746  153.4339 C   0  0  0  0  0  0  0  0  0  0  0  0
  146.9722  132.4927  152.5719 O   0  0  0  0  0  0  0  0  0  0  0  0
  147.0201  132.8841  151.2080 C   0  0  0  0  0  0  0  0  0  0  0  0
  145.9737  133.9808  150.9535 C   0  0  0  0  0  0  0  0  0  0  0  0
  151.0206  139.1928  154.2678 N   0  0  0  0  0  0  0  0  0  0  0  0
  151.5949  140.2354  155.0045 O   0  0  0  0  0  0  0  0  0  0  0  0
  150.1598  142.8532  156.5123 H   0  0  0  0  0  0  0  0  0  0  0  0
  151.6743  142.9304  155.6094 H   0  0  0  0  0  0  0  0  0  0  0  0
  151.5727  141.9640  157.0831 H   0  0  0  0  0  0  0  0  0  0  0  0
  148.4410  141.1377  155.0791 H   0  0  0  0  0  0  0  0  0  0  0  0
  149.2448  137.8223  153.0814 H   0  0  0  0  0  0  0  0  0  0  0  0
  147.6007  136.9974  152.3965 H   0  0  0  0  0  0  0  0  0  0  0  0
  145.0896  137.2884  153.4952 H   0  0  0  0  0  0  0  0  0  0  0  0
  145.0736  138.3800  152.1431 H   0  0  0  0  0  0  0  0  0  0  0  0
  145.4566  136.6325  150.5309 H   0  0  0  0  0  0  0  0  0  0  0  0
  143.1106  136.7119  151.3863 H   0  0  0  0  0  0  0  0  0  0  0  0
  143.5004  135.4796  152.5771 H   0  0  0  0  0  0  0  0  0  0  0  0
  143.5304  135.1232  150.8451 H   0  0  0  0  0  0  0  0  0  0  0  0
  146.5722  135.5252  153.9079 H   0  0  0  0  0  0  0  0  0  0  0  0
  145.2790  134.3783  153.5764 H   0  0  0  0  0  0  0  0  0  0  0  0
  148.3035  133.9287  153.2341 H   0  0  0  0  0  0  0  0  0  0  0  0
  147.2768  133.2197  154.4645 H   0  0  0  0  0  0  0  0  0  0  0  0
  148.0218  133.2292  150.9460 H   0  0  0  0  0  0  0  0  0  0  0  0
  146.8099  132.0147  150.5850 H   0  0  0  0  0  0  0  0  0  0  0  0
  144.9737  133.5826  151.1338 H   0  0  0  0  0  0  0  0  0  0  0  0
  146.0182  134.2573  149.9021 H   0  0  0  0  0  0  0  0  0  0  0  0
  147.1310  135.5052  151.6202 H   0  0  0  0  0  0  0  0  0  0  0  0
  1  2  1  0  0  0  0
  1 20  1  0  0  0  0
  1 21  1  0  0  0  0
  1 22  1  0  0  0  0
  2 19  1  0  0  0  0
  2  3  2  0  0  0  0
  3  4  1  0  0  0  0
  3 23  1  0  0  0  0
  4  5  1  0  0  0  0
  4 18  2  0  0  0  0
  5  6  1  0  0  0  0
  5 24  1  0  0  0  0
  6  7  2  0  0  0  0
  6  8  1  0  0  0  0
  8  9  1  0  0  0  0
  8 25  1  0  0  0  0
  9 10  1  0  0  0  0
  9 26  1  0  0  0  0
  9 27  1  0  0  0  0
 10 11  1  0  0  0  0
 10 12  1  0  0  0  0
 10 28  1  0  0  0  0
 11 29  1  0  0  0  0
 11 30  1  0  0  0  0
 11 31  1  0  0  0  0
 12 17  1  0  0  0  0
 12 13  1  0  0  0  0
 12 40  1  0  0  0  0
 13 14  1  0  0  0  0
 13 32  1  0  0  0  0
 13 33  1  0  0  0  0
 14 15  1  0  0  0  0
 14 34  1  0  0  0  0
 14 35  1  0  0  0  0
 15 16  1  0  0  0  0
 16 17  1  0  0  0  0
 16 36  1  0  0  0  0
 16 37  1  0  0  0  0
 17 38  1  0  0  0  0
 17 39  1  0  0  0  0
 18 19  1  0  0  0  0
M  CHG  1  12   1
M  END
> <s_m_source_file>
AV-unprocessed.smi

> <i_m_source_file_index>
2044

> <i_lp_mmshare_version>
43012

> <i_f3d_flags>
0

> <s_epik_input>
W0NIM11jMVtjSF1jKG5vMSlbTkhdQyg9TylbTkhdW0NIMl1bQ0BIXShbQ0gzXSlOMltDSDJdW0NIMl1PW0NIMl1bQ0gyXTI=

> <s_epik_cmdline>
J2VwaWtfcHl0aG9uJywgJy1waCcsICc3LjAnLCAnLXRuJywgJzgnLCAnLW1hJywgJzIwMCcsICctbWV0YWxfYmluZGluZycsICctaW1hZScsICc8aW5maWxlLm1hZT4nLCAnLW9tYWUnLCAnPG91dGZpbGUubWFlPic=

> <r_epik_Ionization_Penalty>
0.707076

> <r_epik_Ionization_Penalty_Charging>
0.707039

> <r_epik_Ionization_Penalty_Neutral>
3.67886e-05

> <r_epik_State_Penalty>
0.730276

> <r_epik_Charging_Adjusted_Penalty>
1.43732

> <i_epik_Tot_Q>
1

> <i_epik_Tot_abs_Q>
1

> <r_epik_Metal_State_Penalty>
0.743216

> <b_epik_Metal_Only>
0

> <s_lp_Force_Field>
OPLS_2005

> <r_lp_Energy>
20.903

> <b_lp_Chiralities_Consistent>
1

> <s_lp_Variant>
AV-unprocessed.smi:2044-3

> <Gold.Version>
5.8.1

> <Gold.Id.Protein>
6NUR|6NUR_protein|mol2

> <Gold.PLP.Fitness>
41.1755

> <Gold.PLP.PLP>
-29.8483

> <Gold.PLP.part.hbond>
-6.0000

> <Gold.PLP.part.metal>
0.0000

> <Gold.PLP.part.buried>
-2.1262

> <Gold.PLP.part.nonpolar>
-21.9828

> <Gold.PLP.part.repulsive>
0.5750

> <Gold.PLP.ligand.clash>
0.0000

> <Gold.PLP.ligand.torsion>
0.2415

> <Gold.PLP.Chemscore.Hbond>
3.9204

> <Gold.PLP.Chemscore.CHOScore>
0.0000

> <Gold.PLP.Chemscore.Metal>
0.0000

> <Gold.Chemscore.Hbonds>
donor molecule, donor type, donor heavy atom, donor atom, acceptor molecule, acceptor atom, score
      L1  H     5    24       P1  7948  0.96
      L1  H     8    25       P1  7948  1.00
      L1  H    12    40       P1  7948  2.00

> <Gold.PLP.Chemscore.Internal.Correction>
0.0491

> <Gold.Rescore>
     Score         DG    S(hbond)    S(metal)    S(lipo)     H(rot)  DE(clash)    DE(int)     intcor
     15.63     -17.32       2.76        0.00      57.88       1.62       0.34       1.35       ----

> <Gold.Chemscore.Fitness>
15.6257

> <Gold.Chemscore.DG>
-17.3172

> <Gold.Chemscore.ZeroCoef>
-5.4800

> <Gold.Chemscore.Hbond>
2.7594

> <Gold.Chemscore.Metal>
0.0000

> <Gold.Chemscore.Lipo>
57.8756

> <Gold.Chemscore.Internal_Hbond>
0.0000

> <Gold.Chemscore.DEClash>
0.3423

> <Gold.Chemscore.DEInternal>
1.3492

> <Gold.Chemscore.Rot>
1.6213

> <Gold.Chemscore.Internal.Correction>
   9.000000E+99

> <Gold.Chemscore.Hbonds>
donor molecule, donor type, donor heavy atom, donor atom, acceptor molecule, acceptor atom, score
      L1  H     5    24       P1  7948  0.88
      L1  H     8    25       P1  7948  0.99
      L1  H    12    40       P1  7948  0.98

> <Gold.Chemscore.Hbond.Weighted>
-9.2164

> <Gold.Chemscore.Metal.Weighted>
-0.0000

> <Gold.Chemscore.Lipo.Weighted>
-6.7714

> <Gold.Chemscore.Internal_Hbond.Weighted>
0.0000

> <Gold.Chemscore.DEClash.Weighted>
0.3423

> <Gold.Chemscore.DEInternal.Weighted>
1.3492

> <Gold.Chemscore.Rot.Weighted>
4.1506

> <Gold.Chemscore.Internal.Correction.Weighted>
   9.000000E+99

> <Gold.Protein.RotatedTorsions>
[ 6907 6896 6895 6894 ] final -100.28 input  -60.11 | X-H torsion
[ 7974 7965 7964 7962 ] final   65.81 input  175.53 | X-H torsion
[ 8008 7997 7996 7995 ] final  -23.25 input   59.86 | X-H torsion
[ 10167 10162 10161 10158 ] final   -3.24 input  -65.29 | X-H torsion
[ 10718 10713 10712 10709 ] final   42.45 input   66.30 | X-H torsion
[ 10763 10752 10751 10750 ] final   16.92 input  -60.55 | X-H torsion
[ 11005 11000 10999 10996 ] final   61.97 input  -57.11 | X-H torsion

> <Gold.Protein.ActiveResidues>
 VAL166  LYS551  ARG553  GLY616  TRP617  ASP618  TYR619  PRO620  LYS621  CYS622 
 ASP623  PHE694  ASN695  SER759  ASP760  ASP761  ALA762  ILE779  LEU786  VAL792 
 PHE793  MET794  SER795  GLU796  ALA797  LYS798  CYS799  TRP800  GLU811  SER814 

> <Gold.Protein.RotatedAtoms>
  150.7110  134.0911  159.3931 H   0  0  0  0  0  0  0  0  0  0  0  0  # atno 6907 bound_to 6896
  151.8897  135.0419  160.0506 H   0  0  0  0  0  0  0  0  0  0  0  0  # atno 6908 bound_to 6896
  152.2502  133.5173  159.5357 H   0  0  0  0  0  0  0  0  0  0  0  0  # atno 6909 bound_to 6896
  145.8340  139.3156  143.0970 H   0  0  0  0  0  0  0  0  0  0  0  0  # atno 7974 bound_to 7965
  154.4596  140.1986  156.0281 H   0  0  0  0  0  0  0  0  0  0  0  0  # atno 8008 bound_to 7997
  156.0814  140.3271  155.7671 H   0  0  0  0  0  0  0  0  0  0  0  0  # atno 8009 bound_to 7997
  155.5105  140.0561  157.2915 H   0  0  0  0  0  0  0  0  0  0  0  0  # atno 8010 bound_to 7997
  140.6882  143.6562  150.8306 H   0  0  0  0  0  0  0  0  0  0  0  0  # atno 10167 bound_to 10162
  157.4049  130.7881  149.7380 H   0  0  0  0  0  0  0  0  0  0  0  0  # atno 10718 bound_to 10713
  153.1387  135.6755  153.9062 H   0  0  0  0  0  0  0  0  0  0  0  0  # atno 10763 bound_to 10752
  153.8526  135.3091  155.3434 H   0  0  0  0  0  0  0  0  0  0  0  0  # atno 10764 bound_to 10752
  154.7769  135.4909  153.9846 H   0  0  0  0  0  0  0  0  0  0  0  0  # atno 10765 bound_to 10752
  140.0124  134.6276  155.9760 H   0  0  0  0  0  0  0  0  0  0  0  0  # atno 11005 bound_to 11000
  145.9539  140.8887  143.0245 LP  0  0  0  0  0  0  0  0  0  0  0  0  # atno 17320 bound_to 7965
  144.6738  140.1718  143.7413 LP  0  0  0  0  0  0  0  0  0  0  0  0  # atno 17321 bound_to 7965
  140.0272  143.5481  152.2775 LP  0  0  0  0  0  0  0  0  0  0  0  0  # atno 17342 bound_to 10162
  139.6260  144.7637  151.2637 LP  0  0  0  0  0  0  0  0  0  0  0  0  # atno 17343 bound_to 10162
  155.9834  130.4001  150.3367 LP  0  0  0  0  0  0  0  0  0  0  0  0  # atno 17370 bound_to 10713
  157.1499  131.0318  151.2890 LP  0  0  0  0  0  0  0  0  0  0  0  0  # atno 17371 bound_to 10713
  141.1720  133.6538  156.4687 LP  0  0  0  0  0  0  0  0  0  0  0  0  # atno 17394 bound_to 11000
  140.4530  134.6911  157.5049 LP  0  0  0  0  0  0  0  0  0  0  0  0  # atno 17395 bound_to 11000

$$$$
