AV-unprocessed.smi:3176|AV-procd|sdf|12127|dock2
  -GOLD-   2272017563D 1   1.00000     0.00000
 Structure written by MMmdl.
 33 34  0  0  0  0  0  0  0  0  2 V2000
  153.1394  140.0860  158.2324 O   0  0  0  0  0  0  0  0  0  0  0  0
  152.6234  141.1298  158.6321 C   0  0  0  0  0  0  0  0  0  0  0  0
  151.4031  141.5325  158.2449 N   0  0  0  0  0  0  0  0  0  0  0  0
  150.5623  140.8548  157.2629 C   0  0  0  0  0  0  0  0  0  0  0  0
  150.4875  141.6089  155.9191 C   0  0  0  0  0  0  0  0  0  0  0  0
  149.2909  141.2167  155.0688 C   0  0  0  0  0  0  0  0  0  0  0  0
  149.1445  139.9182  154.5331 C   0  0  0  0  0  0  0  0  0  0  0  0
  148.0205  139.6247  153.7338 C   0  0  0  0  0  0  0  0  0  0  0  0
  147.0658  140.6336  153.4894 C   0  0  0  0  0  0  0  0  0  0  0  0
  147.2597  141.9119  154.0519 C   0  0  0  0  0  0  0  0  0  0  0  0
  148.3507  142.1544  154.8114 N   0  3  0  0  0  0  0  0  0  0  0  0
  153.3645  142.0581  159.6097 C   0  0  1  0  0  0  0  0  0  0  0  0
  153.3197  143.5474  159.2307 C   0  0  0  0  0  0  0  0  0  0  0  0
  152.0852  144.0371  159.9552 C   0  0  0  0  0  0  0  0  0  0  0  0
  152.1651  143.2396  161.2504 C   0  0  0  0  0  0  0  0  0  0  0  0
  152.7228  141.9801  160.8866 O   0  0  0  0  0  0  0  0  0  0  0  0
  151.0503  142.3961  158.6324 H   0  0  0  0  0  0  0  0  0  0  0  0
  150.9073  139.8312  157.1089 H   0  0  0  0  0  0  0  0  0  0  0  0
  149.5629  140.7813  157.6921 H   0  0  0  0  0  0  0  0  0  0  0  0
  150.4464  142.6831  156.1042 H   0  0  0  0  0  0  0  0  0  0  0  0
  151.4020  141.4390  155.3496 H   0  0  0  0  0  0  0  0  0  0  0  0
  149.8887  139.1585  154.7240 H   0  0  0  0  0  0  0  0  0  0  0  0
  147.8943  138.6387  153.3114 H   0  0  0  0  0  0  0  0  0  0  0  0
  146.1980  140.4299  152.8791 H   0  0  0  0  0  0  0  0  0  0  0  0
  146.5817  142.7420  153.9165 H   0  0  0  0  0  0  0  0  0  0  0  0
  154.3962  141.7146  159.6920 H   0  0  0  0  0  0  0  0  0  0  0  0
  154.2034  144.0517  159.6237 H   0  0  0  0  0  0  0  0  0  0  0  0
  153.2857  143.7456  158.1588 H   0  0  0  0  0  0  0  0  0  0  0  0
  152.0813  145.1151  160.1175 H   0  0  0  0  0  0  0  0  0  0  0  0
  151.1873  143.7698  159.3971 H   0  0  0  0  0  0  0  0  0  0  0  0
  152.8385  143.7282  161.9557 H   0  0  0  0  0  0  0  0  0  0  0  0
  151.1943  143.1232  161.7322 H   0  0  0  0  0  0  0  0  0  0  0  0
  148.4724  143.0876  155.2055 H   0  0  0  0  0  0  0  0  0  0  0  0
  1  2  2  0  0  0  0
  2  3  1  0  0  0  0
  2 12  1  0  0  0  0
  3  4  1  0  0  0  0
  3 17  1  0  0  0  0
  4  5  1  0  0  0  0
  4 18  1  0  0  0  0
  4 19  1  0  0  0  0
  5  6  1  0  0  0  0
  5 20  1  0  0  0  0
  5 21  1  0  0  0  0
  6 11  1  0  0  0  0
  6  7  2  0  0  0  0
  7  8  1  0  0  0  0
  7 22  1  0  0  0  0
  8  9  2  0  0  0  0
  8 23  1  0  0  0  0
  9 10  1  0  0  0  0
  9 24  1  0  0  0  0
 10 11  2  0  0  0  0
 10 25  1  0  0  0  0
 11 33  1  0  0  0  0
 12 16  1  0  0  0  0
 12 13  1  0  0  0  0
 12 26  1  0  0  0  0
 13 14  1  0  0  0  0
 13 27  1  0  0  0  0
 13 28  1  0  0  0  0
 14 15  1  0  0  0  0
 14 29  1  0  0  0  0
 14 30  1  0  0  0  0
 15 16  1  0  0  0  0
 15 31  1  0  0  0  0
 15 32  1  0  0  0  0
M  CHG  1  11   1
M  END
> <s_m_source_file>
AV-unprocessed.smi

> <i_m_source_file_index>
3176

> <i_lp_mmshare_version>
43012

> <i_f3d_flags>
0

> <s_epik_input>
TzFbQ0gyXVtDSDJdW0NIMl1bQ0BIXTFDKD1PKVtOSF1bQ0gyXVtDSDJdYzJbY0hdW2NIXVtjSF1bY0hdbjI=

> <s_epik_cmdline>
J2VwaWtfcHl0aG9uJywgJy1waCcsICc3LjAnLCAnLXRuJywgJzgnLCAnLW1hJywgJzIwMCcsICctbWV0YWxfYmluZGluZycsICctaW1hZScsICc8aW5maWxlLm1hZT4nLCAnLW9tYWUnLCAnPG91dGZpbGUubWFlPic=

> <r_epik_Ionization_Penalty>
1.81664

> <r_epik_Ionization_Penalty_Charging>
1.81664

> <r_epik_Ionization_Penalty_Neutral>
5.71603e-08

> <r_epik_State_Penalty>
1.93152

> <r_epik_Charging_Adjusted_Penalty>
3.74817

> <i_epik_Tot_Q>
1

> <i_epik_Tot_abs_Q>
1

> <r_epik_Metal_State_Penalty>
1.95876

> <b_epik_Metal_Only>
0

> <s_lp_Force_Field>
OPLS_2005

> <r_lp_Energy>
22.6844

> <b_lp_Chiralities_Consistent>
1

> <s_lp_Variant>
AV-unprocessed.smi:3176-4

> <Gold.Version>
5.8.1

> <Gold.Id.Protein>
6NUR|6NUR_protein|mol2

> <Gold.PLP.Fitness>
45.5569

> <Gold.PLP.PLP>
-37.4624

> <Gold.PLP.part.hbond>
-2.0000

> <Gold.PLP.part.metal>
0.0000

> <Gold.PLP.part.buried>
-5.0036

> <Gold.PLP.part.nonpolar>
-29.9203

> <Gold.PLP.part.repulsive>
0.3056

> <Gold.PLP.ligand.clash>
0.0000

> <Gold.PLP.ligand.torsion>
0.4681

> <Gold.PLP.Chemscore.Hbond>
3.0000

> <Gold.PLP.Chemscore.CHOScore>
0.0000

> <Gold.PLP.Chemscore.Metal>
0.0000

> <Gold.Chemscore.Hbonds>
donor molecule, donor type, donor heavy atom, donor atom, acceptor molecule, acceptor atom, score
      L1  H    11    33       P1  8028  2.00
      P1  H  7997  8010       L1     1  1.00

> <Gold.PLP.Chemscore.Internal.Correction>
0.0308

> <Gold.Rescore>
     Score         DG    S(hbond)    S(metal)    S(lipo)     H(rot)  DE(clash)    DE(int)     intcor
     18.82     -19.14       1.95        0.00      96.33       1.61       0.17       0.15       ----

> <Gold.Chemscore.Fitness>
18.8183

> <Gold.Chemscore.DG>
-19.1426

> <Gold.Chemscore.ZeroCoef>
-5.4800

> <Gold.Chemscore.Hbond>
1.9467

> <Gold.Chemscore.Metal>
0.0000

> <Gold.Chemscore.Lipo>
96.3291

> <Gold.Chemscore.Internal_Hbond>
0.0000

> <Gold.Chemscore.DEClash>
0.1700

> <Gold.Chemscore.DEInternal>
0.1543

> <Gold.Chemscore.Rot>
1.6054

> <Gold.Chemscore.Internal.Correction>
   9.000000E+99

> <Gold.Chemscore.Hbonds>
donor molecule, donor type, donor heavy atom, donor atom, acceptor molecule, acceptor atom, score
      L1  H    11    33       P1  8028  1.00
      P1  H  7997  8010       L1     1  0.95

> <Gold.Chemscore.Hbond.Weighted>
-6.5018

> <Gold.Chemscore.Metal.Weighted>
-0.0000

> <Gold.Chemscore.Lipo.Weighted>
-11.2705

> <Gold.Chemscore.Internal_Hbond.Weighted>
0.0000

> <Gold.Chemscore.DEClash.Weighted>
0.1700

> <Gold.Chemscore.DEInternal.Weighted>
0.1543

> <Gold.Chemscore.Rot.Weighted>
4.1097

> <Gold.Chemscore.Internal.Correction.Weighted>
   9.000000E+99

> <Gold.Protein.RotatedTorsions>
[ 6907 6896 6895 6894 ] final -154.94 input  -60.11 | X-H torsion
[ 7974 7965 7964 7962 ] final -129.81 input  175.53 | X-H torsion
[ 8008 7997 7996 7995 ] final   31.97 input   59.86 | X-H torsion
[ 10167 10162 10161 10158 ] final   77.05 input  -65.29 | X-H torsion
[ 10718 10713 10712 10709 ] final   28.57 input   66.30 | X-H torsion
[ 10763 10752 10751 10750 ] final   70.05 input  -60.55 | X-H torsion
[ 11005 11000 10999 10996 ] final   93.27 input  -57.11 | X-H torsion

> <Gold.Protein.ActiveResidues>
 VAL166  LYS551  ARG553  GLY616  TRP617  ASP618  TYR619  PRO620  LYS621  CYS622 
 ASP623  PHE694  ASN695  SER759  ASP760  ASP761  ALA762  ILE779  LEU786  VAL792 
 PHE793  MET794  SER795  GLU796  ALA797  LYS798  CYS799  TRP800  GLU811  SER814 

> <Gold.Protein.RotatedAtoms>
  151.2650  133.4283  159.2617 H   0  0  0  0  0  0  0  0  0  0  0  0  # atno 6907 bound_to 6896
  151.0496  134.9664  159.8215 H   0  0  0  0  0  0  0  0  0  0  0  0  # atno 6908 bound_to 6896
  152.5380  134.2605  159.8986 H   0  0  0  0  0  0  0  0  0  0  0  0  # atno 6909 bound_to 6896
  144.9536  140.7371  143.4773 H   0  0  0  0  0  0  0  0  0  0  0  0  # atno 7974 bound_to 7965
  155.1149  140.3242  155.4512 H   0  0  0  0  0  0  0  0  0  0  0  0  # atno 8008 bound_to 7997
  156.2680  140.2037  156.6220 H   0  0  0  0  0  0  0  0  0  0  0  0  # atno 8009 bound_to 7997
  154.6728  140.0534  157.0170 H   0  0  0  0  0  0  0  0  0  0  0  0  # atno 8010 bound_to 7997
  139.9857  144.5794  150.7862 H   0  0  0  0  0  0  0  0  0  0  0  0  # atno 10167 bound_to 10162
  157.2352  130.7043  149.6332 H   0  0  0  0  0  0  0  0  0  0  0  0  # atno 10718 bound_to 10713
  153.0320  135.5188  154.7382 H   0  0  0  0  0  0  0  0  0  0  0  0  # atno 10763 bound_to 10752
  154.6389  135.2910  155.0129 H   0  0  0  0  0  0  0  0  0  0  0  0  # atno 10764 bound_to 10752
  154.1054  135.6630  153.4928 H   0  0  0  0  0  0  0  0  0  0  0  0  # atno 10765 bound_to 10752
  139.8812  134.8780  156.3694 H   0  0  0  0  0  0  0  0  0  0  0  0  # atno 11005 bound_to 11000
  145.2807  139.1919  143.4792 LP  0  0  0  0  0  0  0  0  0  0  0  0  # atno 17320 bound_to 7965
  146.3329  140.2768  142.8608 LP  0  0  0  0  0  0  0  0  0  0  0  0  # atno 17321 bound_to 7965
  140.7473  143.2904  151.3346 LP  0  0  0  0  0  0  0  0  0  0  0  0  # atno 17342 bound_to 10162
  139.6377  144.0599  152.2529 LP  0  0  0  0  0  0  0  0  0  0  0  0  # atno 17343 bound_to 10162
  155.9673  130.4476  150.5585 LP  0  0  0  0  0  0  0  0  0  0  0  0  # atno 17370 bound_to 10713
  157.3436  131.0721  151.1769 LP  0  0  0  0  0  0  0  0  0  0  0  0  # atno 17371 bound_to 10713
  140.9475  133.7473  156.0227 LP  0  0  0  0  0  0  0  0  0  0  0  0  # atno 17394 bound_to 11000
  140.8146  134.3360  157.5401 LP  0  0  0  0  0  0  0  0  0  0  0  0  # atno 17395 bound_to 11000

$$$$
