AV-unprocessed.smi:3337|AV-procd|sdf|12868|dock10
  -GOLD-   2272019263D 1   1.00000     0.00000
 Structure written by MMmdl.
 46 47  0  0  0  0  0  0  0  0  2 V2000
  150.2636  140.1393  154.2726 C   0  0  0  0  0  0  0  0  0  0  0  0
  148.8700  139.8114  154.8372 C   0  0  1  0  0  0  0  0  0  0  0  0
  148.0624  141.0680  155.2100 C   0  0  0  0  0  0  0  0  0  0  0  0
  147.5396  141.8003  153.9611 C   0  0  2  0  0  0  0  0  0  0  0  0
  146.6807  143.0138  154.3443 C   0  0  0  0  0  0  0  0  0  0  0  0
  146.7645  140.8245  153.0546 C   0  0  0  0  0  0  0  0  0  0  0  0
  147.5953  139.6488  152.6858 N   0  3  2  0  0  0  0  0  0  0  0  0
  146.9276  138.7824  151.6817 C   0  0  0  0  0  0  0  0  0  0  0  0
  145.9241  137.8041  152.3219 C   0  0  0  0  0  0  0  0  0  0  0  0
  146.2563  136.4185  152.0137 N   0  0  0  0  0  0  0  0  0  0  0  0
  145.3862  135.4999  151.5629 C   0  0  0  0  0  0  0  0  0  0  0  0
  144.1888  135.7409  151.4040 O   0  0  0  0  0  0  0  0  0  0  0  0
  145.9577  134.1026  151.2579 C   0  0  1  0  0  0  0  0  0  0  0  0
  146.6422  133.4504  152.4760 C   0  0  0  0  0  0  0  0  0  0  0  0
  144.9339  133.2298  150.6946 N   0  0  0  0  0  0  0  0  0  0  0  0
  144.8375  132.6918  149.4768 C   0  0  0  0  0  0  0  0  0  0  0  0
  143.7466  131.9607  149.2960 N   0  0  0  0  0  0  0  0  0  0  0  0
  143.1726  132.0983  150.5279 C   0  0  0  0  0  0  0  0  0  0  0  0
  143.8395  132.8520  151.4018 N   0  0  0  0  0  0  0  0  0  0  0  0
  148.0554  138.9077  153.8910 C   0  0  0  0  0  0  0  0  0  0  0  0
  150.2060  140.6787  153.3274 H   0  0  0  0  0  0  0  0  0  0  0  0
  150.8369  139.2287  154.0958 H   0  0  0  0  0  0  0  0  0  0  0  0
  150.8341  140.7531  154.9703 H   0  0  0  0  0  0  0  0  0  0  0  0
  149.0382  139.2511  155.7579 H   0  0  0  0  0  0  0  0  0  0  0  0
  147.2167  140.7737  155.8333 H   0  0  0  0  0  0  0  0  0  0  0  0
  148.6691  141.7391  155.8194 H   0  0  0  0  0  0  0  0  0  0  0  0
  148.3945  142.1773  153.3989 H   0  0  0  0  0  0  0  0  0  0  0  0
  145.7976  142.7138  154.9093 H   0  0  0  0  0  0  0  0  0  0  0  0
  146.3423  143.5519  153.4584 H   0  0  0  0  0  0  0  0  0  0  0  0
  147.2454  143.7158  154.9583 H   0  0  0  0  0  0  0  0  0  0  0  0
  145.8536  140.4843  153.5503 H   0  0  0  0  0  0  0  0  0  0  0  0
  146.4549  141.3498  152.1501 H   0  0  0  0  0  0  0  0  0  0  0  0
  146.4399  139.3996  150.9254 H   0  0  0  0  0  0  0  0  0  0  0  0
  147.6871  138.1986  151.1591 H   0  0  0  0  0  0  0  0  0  0  0  0
  145.8856  137.9482  153.4033 H   0  0  0  0  0  0  0  0  0  0  0  0
  144.9154  137.9798  151.9509 H   0  0  0  0  0  0  0  0  0  0  0  0
  147.2221  136.1439  152.1219 H   0  0  0  0  0  0  0  0  0  0  0  0
  146.7210  134.2393  150.4903 H   0  0  0  0  0  0  0  0  0  0  0  0
  147.4540  134.0721  152.8552 H   0  0  0  0  0  0  0  0  0  0  0  0
  147.0714  132.4841  152.2086 H   0  0  0  0  0  0  0  0  0  0  0  0
  145.9413  133.2835  153.2950 H   0  0  0  0  0  0  0  0  0  0  0  0
  145.5788  132.8403  148.7051 H   0  0  0  0  0  0  0  0  0  0  0  0
  142.2327  131.6335  150.7865 H   0  0  0  0  0  0  0  0  0  0  0  0
  148.6625  138.0481  153.6105 H   0  0  0  0  0  0  0  0  0  0  0  0
  147.1857  138.5110  154.4177 H   0  0  0  0  0  0  0  0  0  0  0  0
  148.4199  140.0203  152.2358 H   0  0  0  0  0  0  0  0  0  0  0  0
  1  2  1  0  0  0  0
  1 21  1  0  0  0  0
  1 22  1  0  0  0  0
  1 23  1  0  0  0  0
  2 20  1  0  0  0  0
  2  3  1  0  0  0  0
  2 24  1  0  0  0  0
  3  4  1  0  0  0  0
  3 25  1  0  0  0  0
  3 26  1  0  0  0  0
  4  5  1  0  0  0  0
  4  6  1  0  0  0  0
  4 27  1  0  0  0  0
  5 28  1  0  0  0  0
  5 29  1  0  0  0  0
  5 30  1  0  0  0  0
  6  7  1  0  0  0  0
  6 31  1  0  0  0  0
  6 32  1  0  0  0  0
  7  8  1  0  0  0  0
  7 20  1  0  0  0  0
  7 46  1  0  0  0  0
  8  9  1  0  0  0  0
  8 33  1  0  0  0  0
  8 34  1  0  0  0  0
  9 10  1  0  0  0  0
  9 35  1  0  0  0  0
  9 36  1  0  0  0  0
 10 11  1  0  0  0  0
 10 37  1  0  0  0  0
 11 12  2  0  0  0  0
 11 13  1  0  0  0  0
 13 14  1  0  0  0  0
 13 15  1  0  0  0  0
 13 38  1  0  0  0  0
 14 39  1  0  0  0  0
 14 40  1  0  0  0  0
 14 41  1  0  0  0  0
 15 19  1  0  0  0  0
 15 16  1  0  0  0  0
 16 17  2  0  0  0  0
 16 42  1  0  0  0  0
 17 18  1  0  0  0  0
 18 19  2  0  0  0  0
 18 43  1  0  0  0  0
 20 44  1  0  0  0  0
 20 45  1  0  0  0  0
M  CHG  1   7   1
M  END
> <s_m_source_file>
AV-unprocessed.smi

> <i_m_source_file_index>
3337

> <i_lp_mmshare_version>
43012

> <i_f3d_flags>
0

> <s_epik_input>
W0NIM11bQ0BASF0xW0NIMl1bQ0BASF0oW0NIM10pW0NIMl1OKFtDSDJdMSlbQ0gyXVtDSDJdW05IXUMoPU8pW0NASF0oW0NIM10pbjJbY0hdbltjSF1uMg==

> <s_epik_cmdline>
J2VwaWtfcHl0aG9uJywgJy1waCcsICc3LjAnLCAnLXRuJywgJzgnLCAnLW1hJywgJzIwMCcsICctbWV0YWxfYmluZGluZycsICctaW1hZScsICc8aW5maWxlLm1hZT4nLCAnLW9tYWUnLCAnPG91dGZpbGUubWFlPic=

> <r_lp_tautomer_probability>
1

> <r_epik_Ionization_Penalty>
0.00175613

> <r_epik_Ionization_Penalty_Charging>
0.00174812

> <r_epik_Ionization_Penalty_Neutral>
8.01354e-06

> <r_epik_State_Penalty>
0.00118332

> <r_epik_Charging_Adjusted_Penalty>
0.00293143

> <i_epik_Tot_Q>
1

> <i_epik_Tot_abs_Q>
1

> <r_epik_Metal_State_Penalty>
-0

> <b_epik_Metal_Only>
0

> <s_lp_Force_Field>
OPLS_2005

> <r_lp_Energy>
24.7561

> <b_lp_Chiralities_Consistent>
1

> <s_lp_Variant>
AV-unprocessed.smi:3337-8

> <Gold.Version>
5.8.1

> <Gold.Id.Protein>
6NUR|6NUR_protein|mol2

> <Gold.PLP.Fitness>
46.0828

> <Gold.PLP.PLP>
-34.9236

> <Gold.PLP.part.hbond>
-3.0000

> <Gold.PLP.part.metal>
0.0000

> <Gold.PLP.part.buried>
2.5848

> <Gold.PLP.part.nonpolar>
-35.6449

> <Gold.PLP.part.repulsive>
0.7396

> <Gold.PLP.ligand.clash>
0.0000

> <Gold.PLP.ligand.torsion>
0.6617

> <Gold.PLP.Chemscore.Hbond>
2.8000

> <Gold.PLP.Chemscore.CHOScore>
1.3244

> <Gold.PLP.Chemscore.Metal>
0.0000

> <Gold.Chemscore.Hbonds>
donor molecule, donor type, donor heavy atom, donor atom, acceptor molecule, acceptor atom, score
      L1  H     7    46       P1  7957  1.00
      L1  H    10    37       P1  7948  1.00
      P1  H 10785 10796       L1    17  0.85
      L1  C    16    42       P1  7921  0.46
      L1  C    18    43       P1 10952  0.82

> <Gold.PLP.Chemscore.Internal.Correction>
0.1094

> <Gold.Rescore>
     Score         DG    S(hbond)    S(metal)    S(lipo)     H(rot)  DE(clash)    DE(int)     intcor
     12.35     -16.04       2.72        0.00      67.67       2.51       1.63       2.07       ----

> <Gold.Chemscore.Fitness>
12.3486

> <Gold.Chemscore.DG>
-16.0450

> <Gold.Chemscore.ZeroCoef>
-5.4800

> <Gold.Chemscore.Hbond>
2.7188

> <Gold.Chemscore.Metal>
0.0000

> <Gold.Chemscore.Lipo>
67.6681

> <Gold.Chemscore.Internal_Hbond>
0.0000

> <Gold.Chemscore.DEClash>
1.6260

> <Gold.Chemscore.DEInternal>
2.0704

> <Gold.Chemscore.Rot>
2.5129

> <Gold.Chemscore.Internal.Correction>
   9.000000E+99

> <Gold.Chemscore.Hbonds>
donor molecule, donor type, donor heavy atom, donor atom, acceptor molecule, acceptor atom, score
      L1  H     7    46       P1  7957  0.96
      L1  H    10    37       P1  7948  0.99
      P1  H 10785 10796       L1    17  0.36

> <Gold.Chemscore.Hbond.Weighted>
-9.0809

> <Gold.Chemscore.Metal.Weighted>
-0.0000

> <Gold.Chemscore.Lipo.Weighted>
-7.9172

> <Gold.Chemscore.Internal_Hbond.Weighted>
0.0000

> <Gold.Chemscore.DEClash.Weighted>
1.6260

> <Gold.Chemscore.DEInternal.Weighted>
2.0704

> <Gold.Chemscore.Rot.Weighted>
6.4331

> <Gold.Chemscore.Internal.Correction.Weighted>
   9.000000E+99

> <Gold.Protein.RotatedTorsions>
[ 6907 6896 6895 6894 ] final  103.20 input  -60.11 | X-H torsion
[ 7974 7965 7964 7962 ] final  121.84 input  175.53 | X-H torsion
[ 8008 7997 7996 7995 ] final  -45.73 input   59.86 | X-H torsion
[ 10167 10162 10161 10158 ] final  -17.61 input  -65.29 | X-H torsion
[ 10718 10713 10712 10709 ] final   37.13 input   66.30 | X-H torsion
[ 10763 10752 10751 10750 ] final  166.25 input  -60.55 | X-H torsion
[ 11005 11000 10999 10996 ] final   -3.61 input  -57.11 | X-H torsion

> <Gold.Protein.ActiveResidues>
 VAL166  LYS551  ARG553  GLY616  TRP617  ASP618  TYR619  PRO620  LYS621  CYS622 
 ASP623  PHE694  ASN695  SER759  ASP760  ASP761  ALA762  ILE779  LEU786  VAL792 
 PHE793  MET794  SER795  GLU796  ALA797  LYS798  CYS799  TRP800  GLU811  SER814 

> <Gold.Protein.RotatedAtoms>
  152.5302  133.9861  159.7828 H   0  0  0  0  0  0  0  0  0  0  0  0  # atno 6907 bound_to 6896
  151.0105  133.5961  159.2690 H   0  0  0  0  0  0  0  0  0  0  0  0  # atno 6908 bound_to 6896
  151.3037  135.0782  159.9301 H   0  0  0  0  0  0  0  0  0  0  0  0  # atno 6909 bound_to 6896
  145.1145  139.3430  143.4746 H   0  0  0  0  0  0  0  0  0  0  0  0  # atno 7974 bound_to 7965
  154.4002  140.1389  156.3895 H   0  0  0  0  0  0  0  0  0  0  0  0  # atno 8008 bound_to 7997
  155.7927  140.3478  155.5338 H   0  0  0  0  0  0  0  0  0  0  0  0  # atno 8009 bound_to 7997
  155.8563  140.0949  157.1633 H   0  0  0  0  0  0  0  0  0  0  0  0  # atno 8010 bound_to 7997
  140.7249  143.4999  150.9883 H   0  0  0  0  0  0  0  0  0  0  0  0  # atno 10167 bound_to 10162
  157.3432  130.7559  149.6926 H   0  0  0  0  0  0  0  0  0  0  0  0  # atno 10718 bound_to 10713
  154.3361  135.2754  155.2447 H   0  0  0  0  0  0  0  0  0  0  0  0  # atno 10763 bound_to 10752
  154.4737  135.5876  153.6343 H   0  0  0  0  0  0  0  0  0  0  0  0  # atno 10764 bound_to 10752
  152.9862  135.6094  154.3558 H   0  0  0  0  0  0  0  0  0  0  0  0  # atno 10765 bound_to 10752
  140.6712  133.9235  155.8496 H   0  0  0  0  0  0  0  0  0  0  0  0  # atno 11005 bound_to 11000
  146.3524  140.1078  142.8605 LP  0  0  0  0  0  0  0  0  0  0  0  0  # atno 17320 bound_to 7965
  145.0809  140.9220  143.4826 LP  0  0  0  0  0  0  0  0  0  0  0  0  # atno 17321 bound_to 7965
  139.8707  143.7195  152.3166 LP  0  0  0  0  0  0  0  0  0  0  0  0  # atno 17342 bound_to 10162
  139.7443  144.7551  151.0603 LP  0  0  0  0  0  0  0  0  0  0  0  0  # atno 17343 bound_to 10162
  155.9710  130.4161  150.4217 LP  0  0  0  0  0  0  0  0  0  0  0  0  # atno 17370 bound_to 10713
  157.2268  131.0495  151.2515 LP  0  0  0  0  0  0  0  0  0  0  0  0  # atno 17371 bound_to 10713
  141.0391  134.0648  157.3924 LP  0  0  0  0  0  0  0  0  0  0  0  0  # atno 17394 bound_to 11000
  139.8981  135.0153  156.7132 LP  0  0  0  0  0  0  0  0  0  0  0  0  # atno 17395 bound_to 11000

$$$$
