AV-unprocessed.smi:2624|AV-procd|sdf|10234|dock8
  -GOLD-   2272014243D 1   1.00000     0.00000
 Structure written by MMmdl.
 38 39  0  0  0  0  0  0  0  0  2 V2000
  146.5302  142.8953  154.0136 C   0  0  0  0  0  0  0  0  0  0  0  0
  145.8546  142.2995  155.1072 O   0  0  0  0  0  0  0  0  0  0  0  0
  146.7387  141.9087  156.1438 C   0  0  0  0  0  0  0  0  0  0  0  0
  147.7081  140.8510  155.5957 C   0  0  0  0  0  0  0  0  0  0  0  0
  148.7014  140.4595  156.6046 N   0  0  0  0  0  0  0  0  0  0  0  0
  149.5892  141.4602  157.0437 C   0  0  0  0  0  0  0  0  0  0  0  0
  150.5398  141.2223  157.9669 C   0  0  0  0  0  0  0  0  0  0  0  0
  151.4583  142.3050  158.3955 C   0  0  0  0  0  0  0  0  0  0  0  0
  151.4885  143.3840  157.8012 O   0  0  0  0  0  0  0  0  0  0  0  0
  152.3251  142.0559  159.5870 C   0  0  0  0  0  0  0  0  0  0  0  0
  152.2229  142.9234  160.7003 C   0  0  0  0  0  0  0  0  0  0  0  0
  153.0275  142.7359  161.8413 C   0  0  0  0  0  0  0  0  0  0  0  0
  152.8993  143.6823  163.0168 C   0  0  0  0  0  0  0  0  0  0  0  0
  153.9463  141.6697  161.8792 C   0  0  0  0  0  0  0  0  0  0  0  0
  154.0558  140.7971  160.7812 C   0  0  0  0  0  0  0  0  0  0  0  0
  153.2536  140.9809  159.6366 C   0  0  0  0  0  0  0  0  0  0  0  0
  153.3891  140.0869  158.6097 O   0  5  0  0  0  0  0  0  0  0  0  0
  150.6394  139.8765  158.4980 C   0  0  0  0  0  0  0  0  0  0  0  0
  149.7999  138.9114  158.0735 C   0  0  0  0  0  0  0  0  0  0  0  0
  149.8864  137.5800  158.5750 C   0  0  0  0  0  0  0  0  0  0  0  0
  149.9669  136.5059  158.9992 N   0  0  0  0  0  0  0  0  0  0  0  0
  148.7594  139.1747  157.0696 C   0  0  0  0  0  0  0  0  0  0  0  0
  147.9889  138.3019  156.6657 O   0  0  0  0  0  0  0  0  0  0  0  0
  145.8090  143.1733  153.2453 H   0  0  0  0  0  0  0  0  0  0  0  0
  147.2465  142.2036  153.5682 H   0  0  0  0  0  0  0  0  0  0  0  0
  147.0593  143.7982  154.3210 H   0  0  0  0  0  0  0  0  0  0  0  0
  147.2904  142.7769  156.5078 H   0  0  0  0  0  0  0  0  0  0  0  0
  146.1724  141.5011  156.9829 H   0  0  0  0  0  0  0  0  0  0  0  0
  147.1443  139.9774  155.2652 H   0  0  0  0  0  0  0  0  0  0  0  0
  148.1986  141.2261  154.6959 H   0  0  0  0  0  0  0  0  0  0  0  0
  149.4429  142.4260  156.5800 H   0  0  0  0  0  0  0  0  0  0  0  0
  151.5275  143.7504  160.6812 H   0  0  0  0  0  0  0  0  0  0  0  0
  153.6030  143.4291  163.8104 H   0  0  0  0  0  0  0  0  0  0  0  0
  151.8907  143.6379  163.4279 H   0  0  0  0  0  0  0  0  0  0  0  0
  153.0972  144.7068  162.7003 H   0  0  0  0  0  0  0  0  0  0  0  0
  154.5690  141.5145  162.7478 H   0  0  0  0  0  0  0  0  0  0  0  0
  154.7591  139.9780  160.8216 H   0  0  0  0  0  0  0  0  0  0  0  0
  151.3972  139.6309  159.2285 H   0  0  0  0  0  0  0  0  0  0  0  0
  1  2  1  0  0  0  0
  1 24  1  0  0  0  0
  1 25  1  0  0  0  0
  1 26  1  0  0  0  0
  2  3  1  0  0  0  0
  3  4  1  0  0  0  0
  3 27  1  0  0  0  0
  3 28  1  0  0  0  0
  4  5  1  0  0  0  0
  4 29  1  0  0  0  0
  4 30  1  0  0  0  0
  5 22  1  0  0  0  0
  5  6  1  0  0  0  0
  6  7  2  0  0  0  0
  6 31  1  0  0  0  0
  7  8  1  0  0  0  0
  7 18  1  0  0  0  0
  8  9  2  0  0  0  0
  8 10  1  0  0  0  0
 10 16  1  0  0  0  0
 10 11  2  0  0  0  0
 11 12  1  0  0  0  0
 11 32  1  0  0  0  0
 12 13  1  0  0  0  0
 12 14  2  0  0  0  0
 13 33  1  0  0  0  0
 13 34  1  0  0  0  0
 13 35  1  0  0  0  0
 14 15  1  0  0  0  0
 14 36  1  0  0  0  0
 15 16  2  0  0  0  0
 15 37  1  0  0  0  0
 16 17  1  0  0  0  0
 18 19  2  0  0  0  0
 18 38  1  0  0  0  0
 19 20  1  0  0  0  0
 19 22  1  0  0  0  0
 20 21  3  0  0  0  0
 22 23  2  0  0  0  0
M  CHG  1  17  -1
M  END
> <s_m_source_file>
AV-unprocessed.smi

> <i_m_source_file_index>
2624

> <i_lp_mmshare_version>
43012

> <i_f3d_flags>
0

> <s_epik_input>
W0NIM11PW0NIMl1bQ0gyXW4xW2NIXWMoW2NIXWMoQyNOKWMxPU8pQyg9TyljMltjSF1jKFtDSDNdKVtjSF1bY0hdYzJbT0hd

> <s_epik_cmdline>
J2VwaWtfcHl0aG9uJywgJy1waCcsICc3LjAnLCAnLXRuJywgJzgnLCAnLW1hJywgJzIwMCcsICctbWV0YWxfYmluZGluZycsICctaW1hZScsICc8aW5maWxlLm1hZT4nLCAnLW9tYWUnLCAnPG91dGZpbGUubWFlPic=

> <r_epik_Ionization_Penalty>
0.985482

> <r_epik_Ionization_Penalty_Charging>
0.985482

> <r_epik_Ionization_Penalty_Neutral>
1.08437e-11

> <r_epik_State_Penalty>
1.03272

> <r_epik_Charging_Adjusted_Penalty>
2.0182

> <i_epik_Tot_Q>
-1

> <i_epik_Tot_abs_Q>
1

> <r_epik_Metal_State_Penalty>
1.03272

> <b_epik_Metal_Only>
0

> <s_lp_Force_Field>
OPLS_2005

> <r_lp_Energy>
23.2451

> <b_lp_Chiralities_Consistent>
1

> <s_lp_Variant>
AV-unprocessed.smi:2624-2

> <Gold.Version>
5.8.1

> <Gold.Id.Protein>
6NUR|6NUR_protein|mol2

> <Gold.PLP.Fitness>
52.0688

> <Gold.PLP.PLP>
-40.6472

> <Gold.PLP.part.hbond>
-2.0000

> <Gold.PLP.part.metal>
0.0000

> <Gold.PLP.part.buried>
-4.9598

> <Gold.PLP.part.nonpolar>
-32.7681

> <Gold.PLP.part.repulsive>
0.2693

> <Gold.PLP.ligand.clash>
0.0000

> <Gold.PLP.ligand.torsion>
1.1457

> <Gold.PLP.Chemscore.Hbond>
3.0000

> <Gold.PLP.Chemscore.CHOScore>
1.0000

> <Gold.PLP.Chemscore.Metal>
0.0000

> <Gold.Chemscore.Hbonds>
donor molecule, donor type, donor heavy atom, donor atom, acceptor molecule, acceptor atom, score
      P1  H  6896  6907       L1    21  1.00
      P1  H  7997  8010       L1    17  2.00
      L1  C     6    31       P1  8028  0.99

> <Gold.PLP.Chemscore.Internal.Correction>
1.7130

> <Gold.Rescore>
     Score         DG    S(hbond)    S(metal)    S(lipo)     H(rot)  DE(clash)    DE(int)     intcor
     17.36     -20.01       1.95        0.00      99.36       1.41       0.11       2.54       ----

> <Gold.Chemscore.Fitness>
17.3609

> <Gold.Chemscore.DG>
-20.0130

> <Gold.Chemscore.ZeroCoef>
-5.4800

> <Gold.Chemscore.Hbond>
1.9491

> <Gold.Chemscore.Metal>
0.0000

> <Gold.Chemscore.Lipo>
99.3609

> <Gold.Chemscore.Internal_Hbond>
0.0000

> <Gold.Chemscore.DEClash>
0.1111

> <Gold.Chemscore.DEInternal>
2.5410

> <Gold.Chemscore.Rot>
1.4071

> <Gold.Chemscore.Internal.Correction>
   9.000000E+99

> <Gold.Chemscore.Hbonds>
donor molecule, donor type, donor heavy atom, donor atom, acceptor molecule, acceptor atom, score
      P1  H  6896  6907       L1    21  0.97
      P1  H  7997  8010       L1    17  0.92

> <Gold.Chemscore.Hbond.Weighted>
-6.5100

> <Gold.Chemscore.Metal.Weighted>
-0.0000

> <Gold.Chemscore.Lipo.Weighted>
-11.6252

> <Gold.Chemscore.Internal_Hbond.Weighted>
0.0000

> <Gold.Chemscore.DEClash.Weighted>
0.1111

> <Gold.Chemscore.DEInternal.Weighted>
2.5410

> <Gold.Chemscore.Rot.Weighted>
3.6022

> <Gold.Chemscore.Internal.Correction.Weighted>
   9.000000E+99

> <Gold.Protein.RotatedTorsions>
[ 6907 6896 6895 6894 ] final  -52.79 input  -60.11 | X-H torsion
[ 7974 7965 7964 7962 ] final   50.88 input  175.53 | X-H torsion
[ 8008 7997 7996 7995 ] final   29.62 input   59.86 | X-H torsion
[ 10167 10162 10161 10158 ] final -101.91 input  -65.29 | X-H torsion
[ 10718 10713 10712 10709 ] final  166.00 input   66.30 | X-H torsion
[ 10763 10752 10751 10750 ] final   10.09 input  -60.55 | X-H torsion
[ 11005 11000 10999 10996 ] final  -51.84 input  -57.11 | X-H torsion

> <Gold.Protein.ActiveResidues>
 VAL166  LYS551  ARG553  GLY616  TRP617  ASP618  TYR619  PRO620  LYS621  CYS622 
 ASP623  PHE694  ASN695  SER759  ASP760  ASP761  ALA762  ILE779  LEU786  VAL792 
 PHE793  MET794  SER795  GLU796  ALA797  LYS798  CYS799  TRP800  GLU811  SER814 

> <Gold.Protein.RotatedAtoms>
  150.8485  134.7802  159.6989 H   0  0  0  0  0  0  0  0  0  0  0  0  # atno 6907 bound_to 6896
  152.4556  134.5295  159.9816 H   0  0  0  0  0  0  0  0  0  0  0  0  # atno 6908 bound_to 6896
  151.5421  133.3393  159.2973 H   0  0  0  0  0  0  0  0  0  0  0  0  # atno 6909 bound_to 6896
  145.9969  139.4397  143.0039 H   0  0  0  0  0  0  0  0  0  0  0  0  # atno 7974 bound_to 7965
  155.0774  140.3206  155.4612 H   0  0  0  0  0  0  0  0  0  0  0  0  # atno 8008 bound_to 7997
  156.2775  140.2101  156.5847 H   0  0  0  0  0  0  0  0  0  0  0  0  # atno 8009 bound_to 7997
  154.7006  140.0507  157.0441 H   0  0  0  0  0  0  0  0  0  0  0  0  # atno 8010 bound_to 7997
  140.2363  143.3571  152.0842 H   0  0  0  0  0  0  0  0  0  0  0  0  # atno 10167 bound_to 10162
  157.0721  131.0369  151.2607 H   0  0  0  0  0  0  0  0  0  0  0  0  # atno 10718 bound_to 10713
  153.2069  135.6864  153.8161 H   0  0  0  0  0  0  0  0  0  0  0  0  # atno 10763 bound_to 10752
  153.7407  135.3238  155.3304 H   0  0  0  0  0  0  0  0  0  0  0  0  # atno 10764 bound_to 10752
  154.8202  135.4657  154.0860 H   0  0  0  0  0  0  0  0  0  0  0  0  # atno 10765 bound_to 10752
  141.0892  133.6636  156.3936 H   0  0  0  0  0  0  0  0  0  0  0  0  # atno 11005 bound_to 11000
  145.7547  140.9959  143.1232 LP  0  0  0  0  0  0  0  0  0  0  0  0  # atno 17320 bound_to 7965
  144.6906  139.9257  143.7469 LP  0  0  0  0  0  0  0  0  0  0  0  0  # atno 17321 bound_to 7965
  139.5092  144.6864  151.5876 LP  0  0  0  0  0  0  0  0  0  0  0  0  # atno 17342 bound_to 10162
  140.6147  143.9370  150.6480 LP  0  0  0  0  0  0  0  0  0  0  0  0  # atno 17343 bound_to 10162
  157.4869  130.7798  149.7469 LP  0  0  0  0  0  0  0  0  0  0  0  0  # atno 17370 bound_to 10713
  155.9947  130.3916  150.2847 LP  0  0  0  0  0  0  0  0  0  0  0  0  # atno 17371 bound_to 10713
  140.5291  134.6230  157.5344 LP  0  0  0  0  0  0  0  0  0  0  0  0  # atno 17394 bound_to 11000
  139.9715  134.7284  156.0031 LP  0  0  0  0  0  0  0  0  0  0  0  0  # atno 17395 bound_to 11000

$$$$
