AV-unprocessed.smi:1856|AV-procd|sdf|7540|dock5
  -GOLD-   22720 9253D 1   1.00000     0.00000
 Structure written by MMmdl.
 45 46  0  0  0  0  0  0  0  0  2 V2000
  144.8527  143.7765  153.4555 C   0  0  0  0  0  0  0  0  0  0  0  0
  145.4855  142.7104  154.3568 C   0  0  0  0  0  0  0  0  0  0  0  0
  146.8604  142.2470  153.8423 C   0  0  0  0  0  0  0  0  0  0  0  0
  147.5081  141.1809  154.7314 C   0  0  0  0  0  0  0  0  0  0  0  0
  146.9836  140.0759  154.8720 O   0  0  0  0  0  0  0  0  0  0  0  0
  148.6577  141.5284  155.3313 N   0  0  0  0  0  0  0  0  0  0  0  0
  149.4433  140.6646  156.2085 C   0  0  1  0  0  0  0  0  0  0  0  0
  150.2650  139.6805  155.3660 C   0  0  0  0  0  0  0  0  0  0  0  0
  150.3388  141.4475  157.1240 C   0  0  0  0  0  0  0  0  0  0  0  0
  150.5120  142.8004  157.1084 N   0  3  0  0  0  0  0  0  0  0  0  0
  151.4120  143.1749  158.1055 C   0  0  0  0  0  0  0  0  0  0  0  0
  151.8900  144.4283  158.4749 C   0  0  0  0  0  0  0  0  0  0  0  0
  152.8048  144.4653  159.5475 C   0  0  0  0  0  0  0  0  0  0  0  0
  153.2078  143.2873  160.2089 C   0  0  0  0  0  0  0  0  0  0  0  0
  152.7160  142.0225  159.8248 C   0  0  0  0  0  0  0  0  0  0  0  0
  151.8148  141.9930  158.7602 C   0  0  0  0  0  0  0  0  0  0  0  0
  151.1346  140.9515  158.1156 N   0  0  0  0  0  0  0  0  0  0  0  0
  151.3502  139.5619  158.5536 C   0  0  0  0  0  0  0  0  0  0  0  0
  152.7811  139.0584  158.2824 C   0  0  1  0  0  0  0  0  0  0  0  0
  152.9133  137.5480  158.5109 C   0  0  0  0  0  0  0  0  0  0  0  0
  153.1622  139.3474  156.9527 O   0  0  0  0  0  0  0  0  0  0  0  0
  143.8798  144.0826  153.8404 H   0  0  0  0  0  0  0  0  0  0  0  0
  144.7064  143.3994  152.4428 H   0  0  0  0  0  0  0  0  0  0  0  0
  145.4812  144.6653  153.3956 H   0  0  0  0  0  0  0  0  0  0  0  0
  145.5840  143.1103  155.3670 H   0  0  0  0  0  0  0  0  0  0  0  0
  144.8070  141.8589  154.4259 H   0  0  0  0  0  0  0  0  0  0  0  0
  146.7638  141.8407  152.8349 H   0  0  0  0  0  0  0  0  0  0  0  0
  147.5290  143.1065  153.7703 H   0  0  0  0  0  0  0  0  0  0  0  0
  149.0207  142.4547  155.1585 H   0  0  0  0  0  0  0  0  0  0  0  0
  148.7440  140.0856  156.8131 H   0  0  0  0  0  0  0  0  0  0  0  0
  150.8169  138.9881  156.0026 H   0  0  0  0  0  0  0  0  0  0  0  0
  150.9875  140.2001  154.7352 H   0  0  0  0  0  0  0  0  0  0  0  0
  149.6212  139.0873  154.7158 H   0  0  0  0  0  0  0  0  0  0  0  0
  151.5796  145.3320  157.9712 H   0  0  0  0  0  0  0  0  0  0  0  0
  153.2035  145.4161  159.8707 H   0  0  0  0  0  0  0  0  0  0  0  0
  153.9076  143.3542  161.0292 H   0  0  0  0  0  0  0  0  0  0  0  0
  153.0280  141.1294  160.3456 H   0  0  0  0  0  0  0  0  0  0  0  0
  151.1378  139.5220  159.6224 H   0  0  0  0  0  0  0  0  0  0  0  0
  150.6108  138.9154  158.0812 H   0  0  0  0  0  0  0  0  0  0  0  0
  153.4778  139.5729  158.9440 H   0  0  0  0  0  0  0  0  0  0  0  0
  152.6534  137.2842  159.5364 H   0  0  0  0  0  0  0  0  0  0  0  0
  153.9353  137.2115  158.3335 H   0  0  0  0  0  0  0  0  0  0  0  0
  152.2568  136.9860  157.8456 H   0  0  0  0  0  0  0  0  0  0  0  0
  153.0938  138.5540  156.4441 H   0  0  0  0  0  0  0  0  0  0  0  0
  150.0396  143.4207  156.4636 H   0  0  0  0  0  0  0  0  0  0  0  0
  1  2  1  0  0  0  0
  1 22  1  0  0  0  0
  1 23  1  0  0  0  0
  1 24  1  0  0  0  0
  2  3  1  0  0  0  0
  2 25  1  0  0  0  0
  2 26  1  0  0  0  0
  3  4  1  0  0  0  0
  3 27  1  0  0  0  0
  3 28  1  0  0  0  0
  4  5  2  0  0  0  0
  4  6  1  0  0  0  0
  6  7  1  0  0  0  0
  6 29  1  0  0  0  0
  7  8  1  0  0  0  0
  7  9  1  0  0  0  0
  7 30  1  0  0  0  0
  8 31  1  0  0  0  0
  8 32  1  0  0  0  0
  8 33  1  0  0  0  0
  9 17  1  0  0  0  0
  9 10  2  0  0  0  0
 10 11  1  0  0  0  0
 10 45  1  0  0  0  0
 11 16  2  0  0  0  0
 11 12  1  0  0  0  0
 12 13  2  0  0  0  0
 12 34  1  0  0  0  0
 13 14  1  0  0  0  0
 13 35  1  0  0  0  0
 14 15  2  0  0  0  0
 14 36  1  0  0  0  0
 15 16  1  0  0  0  0
 15 37  1  0  0  0  0
 16 17  1  0  0  0  0
 17 18  1  0  0  0  0
 18 19  1  0  0  0  0
 18 38  1  0  0  0  0
 18 39  1  0  0  0  0
 19 20  1  0  0  0  0
 19 21  1  0  0  0  0
 19 40  1  0  0  0  0
 20 41  1  0  0  0  0
 20 42  1  0  0  0  0
 20 43  1  0  0  0  0
 21 44  1  0  0  0  0
M  CHG  1  10   1
M  END
> <s_m_source_file>
AV-unprocessed.smi

> <i_m_source_file_index>
1856

> <i_lp_mmshare_version>
43012

> <i_f3d_flags>
0

> <s_epik_input>
W0NIM11bQ0gyXVtDSDJdQyg9TylbTkhdW0NASF0oW0NIM10pYyhuMSluKFtDSDJdW0NASF0oW0NIM10pW09IXSljKGMxMilbY0hdW2NIXVtjSF1bY0hdMg==

> <s_epik_cmdline>
J2VwaWtfcHl0aG9uJywgJy1waCcsICc3LjAnLCAnLXRuJywgJzgnLCAnLW1hJywgJzIwMCcsICctbWV0YWxfYmluZGluZycsICctaW1hZScsICc8aW5maWxlLm1hZT4nLCAnLW9tYWUnLCAnPG91dGZpbGUubWFlPic=

> <r_epik_Ionization_Penalty>
0.945588

> <r_epik_Ionization_Penalty_Charging>
0.945588

> <r_epik_Ionization_Penalty_Neutral>
8.64698e-08

> <r_epik_State_Penalty>
0.989378

> <r_epik_Charging_Adjusted_Penalty>
1.93497

> <i_epik_Tot_Q>
1

> <i_epik_Tot_abs_Q>
1

> <r_epik_Metal_State_Penalty>
1.10045

> <b_epik_Metal_Only>
0

> <s_lp_Force_Field>
OPLS_2005

> <r_lp_Energy>
6.75026

> <b_lp_Chiralities_Consistent>
1

> <s_lp_Variant>
AV-unprocessed.smi:1856-8

> <Gold.Version>
5.8.1

> <Gold.Id.Protein>
6NUR|6NUR_protein|mol2

> <Gold.PLP.Fitness>
57.3856

> <Gold.PLP.PLP>
-46.1947

> <Gold.PLP.part.hbond>
-3.0000

> <Gold.PLP.part.metal>
0.0000

> <Gold.PLP.part.buried>
-7.0095

> <Gold.PLP.part.nonpolar>
-37.2894

> <Gold.PLP.part.repulsive>
0.3064

> <Gold.PLP.ligand.clash>
0.0000

> <Gold.PLP.ligand.torsion>
0.4288

> <Gold.PLP.Chemscore.Hbond>
4.0000

> <Gold.PLP.Chemscore.CHOScore>
0.0000

> <Gold.PLP.Chemscore.Metal>
0.0000

> <Gold.Chemscore.Hbonds>
donor molecule, donor type, donor heavy atom, donor atom, acceptor molecule, acceptor atom, score
      L1  H     6    29       P1  8028  0.28
      L1  H    10    45       P1  8028  2.00
      P1  H  7997  8010       L1    21  0.36

> <Gold.PLP.Chemscore.Internal.Correction>
0.0484

> <Gold.Rescore>
     Score         DG    S(hbond)    S(metal)    S(lipo)     H(rot)  DE(clash)    DE(int)     intcor
     19.55     -20.45       2.73        0.00     105.03       2.52       0.07       0.84       ----

> <Gold.Chemscore.Fitness>
19.5471

> <Gold.Chemscore.DG>
-20.4487

> <Gold.Chemscore.ZeroCoef>
-5.4800

> <Gold.Chemscore.Hbond>
2.7310

> <Gold.Chemscore.Metal>
0.0000

> <Gold.Chemscore.Lipo>
105.0285

> <Gold.Chemscore.Internal_Hbond>
0.0000

> <Gold.Chemscore.DEClash>
0.0650

> <Gold.Chemscore.DEInternal>
0.8365

> <Gold.Chemscore.Rot>
2.5161

> <Gold.Chemscore.Internal.Correction>
   9.000000E+99

> <Gold.Chemscore.Hbonds>
donor molecule, donor type, donor heavy atom, donor atom, acceptor molecule, acceptor atom, score
      L1  H     6    29       P1  8028  0.26
      L1  H    10    45       P1  8028  1.00
      P1  H  7997  8010       L1    21  0.09

> <Gold.Chemscore.Hbond.Weighted>
-9.1215

> <Gold.Chemscore.Metal.Weighted>
-0.0000

> <Gold.Chemscore.Lipo.Weighted>
-12.2883

> <Gold.Chemscore.Internal_Hbond.Weighted>
0.0000

> <Gold.Chemscore.DEClash.Weighted>
0.0650

> <Gold.Chemscore.DEInternal.Weighted>
0.8365

> <Gold.Chemscore.Rot.Weighted>
6.4412

> <Gold.Chemscore.Internal.Correction.Weighted>
   9.000000E+99

> <Gold.Protein.RotatedTorsions>
[ 6907 6896 6895 6894 ] final  139.92 input  -60.11 | X-H torsion
[ 7974 7965 7964 7962 ] final  -56.47 input  175.53 | X-H torsion
[ 8008 7997 7996 7995 ] final  101.76 input   59.86 | X-H torsion
[ 10167 10162 10161 10158 ] final   19.25 input  -65.29 | X-H torsion
[ 10718 10713 10712 10709 ] final   51.13 input   66.30 | X-H torsion
[ 10763 10752 10751 10750 ] final  -72.18 input  -60.55 | X-H torsion
[ 11005 11000 10999 10996 ] final  -50.16 input  -57.11 | X-H torsion

> <Gold.Protein.ActiveResidues>
 VAL166  LYS551  ARG553  GLY616  TRP617  ASP618  TYR619  PRO620  LYS621  CYS622 
 ASP623  PHE694  ASN695  SER759  ASP760  ASP761  ALA762  ILE779  LEU786  VAL792 
 PHE793  MET794  SER795  GLU796  ALA797  LYS798  CYS799  TRP800  GLU811  SER814 

> <Gold.Protein.RotatedAtoms>
  152.2492  133.5201  159.5315 H   0  0  0  0  0  0  0  0  0  0  0  0  # atno 6907 bound_to 6896
  150.7088  134.0983  159.3965 H   0  0  0  0  0  0  0  0  0  0  0  0  # atno 6908 bound_to 6896
  151.8903  135.0419  160.0548 H   0  0  0  0  0  0  0  0  0  0  0  0  # atno 6909 bound_to 6896
  145.8623  140.8277  142.9931 H   0  0  0  0  0  0  0  0  0  0  0  0  # atno 7974 bound_to 7965
  156.1330  140.3192  155.8378 H   0  0  0  0  0  0  0  0  0  0  0  0  # atno 8008 bound_to 7997
  155.4297  140.0518  157.3036 H   0  0  0  0  0  0  0  0  0  0  0  0  # atno 8009 bound_to 7997
  154.4914  140.2094  155.9553 H   0  0  0  0  0  0  0  0  0  0  0  0  # atno 8010 bound_to 7997
  140.5593  143.9367  150.6631 H   0  0  0  0  0  0  0  0  0  0  0  0  # atno 10167 bound_to 10162
  157.4951  130.8401  149.8249 H   0  0  0  0  0  0  0  0  0  0  0  0  # atno 10718 bound_to 10713
  154.4421  135.5938  153.6136 H   0  0  0  0  0  0  0  0  0  0  0  0  # atno 10763 bound_to 10752
  152.9806  135.6000  154.3709 H   0  0  0  0  0  0  0  0  0  0  0  0  # atno 10764 bound_to 10752
  154.3560  135.2841  155.2325 H   0  0  0  0  0  0  0  0  0  0  0  0  # atno 10765 bound_to 10752
  141.0800  133.6656  156.3691 H   0  0  0  0  0  0  0  0  0  0  0  0  # atno 11005 bound_to 11000
  144.6726  140.1113  143.7455 LP  0  0  0  0  0  0  0  0  0  0  0  0  # atno 17320 bound_to 7965
  145.9234  139.2560  143.1368 LP  0  0  0  0  0  0  0  0  0  0  0  0  # atno 17321 bound_to 7965
  140.2813  143.3387  152.1148 LP  0  0  0  0  0  0  0  0  0  0  0  0  # atno 17342 bound_to 10162
  139.5062  144.6810  151.6009 LP  0  0  0  0  0  0  0  0  0  0  0  0  # atno 17343 bound_to 10162
  156.0196  130.3800  150.2003 LP  0  0  0  0  0  0  0  0  0  0  0  0  # atno 17370 bound_to 10713
  157.0192  130.9974  151.3344 LP  0  0  0  0  0  0  0  0  0  0  0  0  # atno 17371 bound_to 10713
  140.5489  134.6047  157.5402 LP  0  0  0  0  0  0  0  0  0  0  0  0  # atno 17394 bound_to 11000
  139.9614  134.7446  156.0229 LP  0  0  0  0  0  0  0  0  0  0  0  0  # atno 17395 bound_to 11000

$$$$
