AV-unprocessed.smi:2329|AV-procd|sdf|9306|dock5
  -GOLD-   2272012523D 1   1.00000     0.00000
 Structure written by MMmdl.
 45 48  0  0  0  0  0  0  0  0  1 V2000
  152.4756  142.9396  162.4990 C   0  0  0  0  0  0  0  0  0  0  0  0
  151.9869  143.7169  161.2949 C   0  0  0  0  0  0  0  0  0  0  0  0
  152.0568  145.1235  161.2653 C   0  0  0  0  0  0  0  0  0  0  0  0
  151.5893  145.7862  160.1163 C   0  0  0  0  0  0  0  0  0  0  0  0
  151.0762  145.0206  159.0516 C   0  0  0  0  0  0  0  0  0  0  0  0
  151.0434  143.6124  159.1612 C   0  0  0  0  0  0  0  0  0  0  0  0
  150.5137  142.9359  158.0320 N   0  0  0  0  0  0  0  0  0  0  0  0
  150.4287  141.6092  157.8115 C   0  0  0  0  0  0  0  0  0  0  0  0
  150.7605  140.7401  158.6158 O   0  0  0  0  0  0  0  0  0  0  0  0
  149.9412  141.2886  156.5997 N   0  0  0  0  0  0  0  0  0  0  0  0
  149.7247  139.9476  156.0526 C   0  0  2  0  0  0  0  0  0  0  0  0
  150.8679  139.5143  155.1202 C   0  0  1  0  0  0  0  0  0  0  0  0
  151.7563  138.3644  155.5102 C   0  0  0  0  0  0  0  0  0  0  0  0
  151.1120  137.1764  154.7907 C   0  0  0  0  0  0  0  0  0  0  0  0
  149.7675  137.5862  154.5510 O   0  0  0  0  0  0  0  0  0  0  0  0
  149.7955  138.9658  154.1920 C   0  0  1  0  0  0  0  0  0  0  0  0
  148.7423  139.8775  154.8569 C   0  0  0  0  0  0  0  0  0  0  0  0
  147.3522  139.2843  155.0737 C   0  0  0  0  0  0  0  0  0  0  0  0
  146.5230  139.6126  153.8286 C   0  0  0  0  0  0  0  0  0  0  0  0
  147.2200  140.8057  153.1670 C   0  0  0  0  0  0  0  0  0  0  0  0
  148.3961  141.1527  154.0826 C   0  0  0  0  0  0  0  0  0  0  0  0
  151.4964  142.9820  160.2734 N   0  0  0  0  0  0  0  0  0  0  0  0
  152.5734  143.5871  163.3708 H   0  0  0  0  0  0  0  0  0  0  0  0
  153.4493  142.4958  162.2905 H   0  0  0  0  0  0  0  0  0  0  0  0
  151.7790  142.1387  162.7493 H   0  0  0  0  0  0  0  0  0  0  0  0
  152.4579  145.6818  162.0986 H   0  0  0  0  0  0  0  0  0  0  0  0
  151.6240  146.8637  160.0515 H   0  0  0  0  0  0  0  0  0  0  0  0
  150.7142  145.5137  158.1611 H   0  0  0  0  0  0  0  0  0  0  0  0
  150.1889  143.5301  157.2835 H   0  0  0  0  0  0  0  0  0  0  0  0
  149.7043  142.0576  155.9897 H   0  0  0  0  0  0  0  0  0  0  0  0
  149.5121  139.1858  156.8062 H   0  0  0  0  0  0  0  0  0  0  0  0
  151.3885  140.3614  154.6695 H   0  0  0  0  0  0  0  0  0  0  0  0
  152.7913  138.5090  155.1991 H   0  0  0  0  0  0  0  0  0  0  0  0
  151.7489  138.2153  156.5904 H   0  0  0  0  0  0  0  0  0  0  0  0
  151.6041  136.9952  153.8340 H   0  0  0  0  0  0  0  0  0  0  0  0
  151.1530  136.2571  155.3754 H   0  0  0  0  0  0  0  0  0  0  0  0
  149.9883  139.1398  153.1325 H   0  0  0  0  0  0  0  0  0  0  0  0
  147.3748  138.2112  155.2642 H   0  0  0  0  0  0  0  0  0  0  0  0
  146.8837  139.7429  155.9443 H   0  0  0  0  0  0  0  0  0  0  0  0
  146.5131  138.7633  153.1448 H   0  0  0  0  0  0  0  0  0  0  0  0
  145.4885  139.8368  154.0897 H   0  0  0  0  0  0  0  0  0  0  0  0
  147.5846  140.5192  152.1801 H   0  0  0  0  0  0  0  0  0  0  0  0
  146.5482  141.6546  153.0363 H   0  0  0  0  0  0  0  0  0  0  0  0
  148.0806  141.9424  154.7651 H   0  0  0  0  0  0  0  0  0  0  0  0
  149.2424  141.5436  153.5164 H   0  0  0  0  0  0  0  0  0  0  0  0
  1  2  1  0  0  0  0
  1 23  1  0  0  0  0
  1 24  1  0  0  0  0
  1 25  1  0  0  0  0
  2 22  1  0  0  0  0
  2  3  2  0  0  0  0
  3  4  1  0  0  0  0
  3 26  1  0  0  0  0
  4  5  2  0  0  0  0
  4 27  1  0  0  0  0
  5  6  1  0  0  0  0
  5 28  1  0  0  0  0
  6  7  1  0  0  0  0
  6 22  2  0  0  0  0
  7  8  1  0  0  0  0
  7 29  1  0  0  0  0
  8  9  2  0  0  0  0
  8 10  1  0  0  0  0
 10 11  1  0  0  0  0
 10 30  1  0  0  0  0
 11 17  1  0  0  0  0
 11 12  1  0  0  0  0
 11 31  1  0  0  0  0
 12 16  1  0  0  0  0
 12 13  1  0  0  0  0
 12 32  1  0  0  0  0
 13 14  1  0  0  0  0
 13 33  1  0  0  0  0
 13 34  1  0  0  0  0
 14 15  1  0  0  0  0
 14 35  1  0  0  0  0
 14 36  1  0  0  0  0
 15 16  1  0  0  0  0
 16 17  1  0  0  0  0
 16 37  1  0  0  0  0
 17 21  1  0  0  0  0
 17 18  1  0  0  0  0
 18 19  1  0  0  0  0
 18 38  1  0  0  0  0
 18 39  1  0  0  0  0
 19 20  1  0  0  0  0
 19 40  1  0  0  0  0
 19 41  1  0  0  0  0
 20 21  1  0  0  0  0
 20 42  1  0  0  0  0
 20 43  1  0  0  0  0
 21 44  1  0  0  0  0
 21 45  1  0  0  0  0
M  END
> <s_m_source_file>
AV-unprocessed.smi

> <i_m_source_file_index>
2329

> <i_lp_mmshare_version>
43012

> <i_f3d_flags>
0

> <s_epik_input>
W0NIM11jMVtjSF1bY0hdW2NIXWMobjEpW05IXUMoPU8pW05IXVtDQEBIXTJbQ0BASF0oW0NIMl1bQ0gyXU8zKVtDQEhdM0MyNFtDSDJdW0NIMl1bQ0gyXVtDSDJdNA==

> <s_epik_cmdline>
J2VwaWtfcHl0aG9uJywgJy1waCcsICc3LjAnLCAnLXRuJywgJzgnLCAnLW1hJywgJzIwMCcsICctbWV0YWxfYmluZGluZycsICctaW1hZScsICc8aW5maWxlLm1hZT4nLCAnLW9tYWUnLCAnPG91dGZpbGUubWFlPic=

> <r_lp_tautomer_probability>
1

> <r_epik_Ionization_Penalty>
8.97002e-05

> <r_epik_Ionization_Penalty_Charging>
0

> <r_epik_Ionization_Penalty_Neutral>
8.97002e-05

> <r_epik_State_Penalty>
-0

> <r_epik_Charging_Adjusted_Penalty>
0

> <i_epik_Tot_Q>
0

> <i_epik_Tot_abs_Q>
0

> <r_epik_Metal_State_Penalty>
-0

> <b_epik_Metal_Only>
0

> <s_lp_Force_Field>
OPLS_2005

> <r_lp_Energy>
64.3151

> <b_lp_Chiralities_Consistent>
1

> <s_lp_Variant>
AV-unprocessed.smi:2329-5

> <Gold.Version>
5.8.1

> <Gold.Id.Protein>
6NUR|6NUR_protein|mol2

> <Gold.PLP.Fitness>
41.6287

> <Gold.PLP.PLP>
-41.4827

> <Gold.PLP.part.hbond>
-0.0408

> <Gold.PLP.part.metal>
0.0000

> <Gold.PLP.part.buried>
-2.6005

> <Gold.PLP.part.nonpolar>
-40.6778

> <Gold.PLP.part.repulsive>
1.1048

> <Gold.PLP.ligand.clash>
0.0000

> <Gold.PLP.ligand.torsion>
0.2868

> <Gold.PLP.Chemscore.Hbond>
0.1787

> <Gold.PLP.Chemscore.CHOScore>
0.0000

> <Gold.PLP.Chemscore.Metal>
0.0000

> <Gold.Chemscore.Hbonds>
donor molecule, donor type, donor heavy atom, donor atom, acceptor molecule, acceptor atom, score
      L1  H     7    29       P1  8028  0.11

> <Gold.PLP.Chemscore.Internal.Correction>
0.1834

> <Gold.Rescore>
     Score         DG    S(hbond)    S(metal)    S(lipo)     H(rot)  DE(clash)    DE(int)     intcor
     16.13     -19.97       0.89        0.00     120.28       1.00       2.28       1.56       ----

> <Gold.Chemscore.Fitness>
16.1280

> <Gold.Chemscore.DG>
-19.9697

> <Gold.Chemscore.ZeroCoef>
-5.4800

> <Gold.Chemscore.Hbond>
0.8913

> <Gold.Chemscore.Metal>
0.0000

> <Gold.Chemscore.Lipo>
120.2798

> <Gold.Chemscore.Internal_Hbond>
0.0000

> <Gold.Chemscore.DEClash>
2.2779

> <Gold.Chemscore.DEInternal>
1.5638

> <Gold.Chemscore.Rot>
1.0000

> <Gold.Chemscore.Internal.Correction>
   9.000000E+99

> <Gold.Chemscore.Hbonds>
donor molecule, donor type, donor heavy atom, donor atom, acceptor molecule, acceptor atom, score
      L1  H     7    29       P1  8028  0.14

> <Gold.Chemscore.Hbond.Weighted>
-2.9770

> <Gold.Chemscore.Metal.Weighted>
-0.0000

> <Gold.Chemscore.Lipo.Weighted>
-14.0727

> <Gold.Chemscore.Internal_Hbond.Weighted>
0.0000

> <Gold.Chemscore.DEClash.Weighted>
2.2779

> <Gold.Chemscore.DEInternal.Weighted>
1.5638

> <Gold.Chemscore.Rot.Weighted>
2.5600

> <Gold.Chemscore.Internal.Correction.Weighted>
   9.000000E+99

> <Gold.Protein.RotatedTorsions>
[ 6907 6896 6895 6894 ] final  -22.60 input  -60.11 | X-H torsion
[ 7974 7965 7964 7962 ] final  128.66 input  175.53 | X-H torsion
[ 8008 7997 7996 7995 ] final -100.31 input   59.86 | X-H torsion
[ 10167 10162 10161 10158 ] final  141.45 input  -65.29 | X-H torsion
[ 10718 10713 10712 10709 ] final  112.77 input   66.30 | X-H torsion
[ 10763 10752 10751 10750 ] final    8.86 input  -60.55 | X-H torsion
[ 11005 11000 10999 10996 ] final  107.27 input  -57.11 | X-H torsion

> <Gold.Protein.ActiveResidues>
 VAL166  LYS551  ARG553  GLY616  TRP617  ASP618  TYR619  PRO620  LYS621  CYS622 
 ASP623  PHE694  ASN695  SER759  ASP760  ASP761  ALA762  ILE779  LEU786  VAL792 
 PHE793  MET794  SER795  GLU796  ALA797  LYS798  CYS799  TRP800  GLU811  SER814 

> <Gold.Protein.RotatedAtoms>
  151.2163  135.0501  159.8931 H   0  0  0  0  0  0  0  0  0  0  0  0  # atno 6907 bound_to 6896
  152.5420  134.0690  159.8195 H   0  0  0  0  0  0  0  0  0  0  0  0  # atno 6908 bound_to 6896
  151.0850  133.5312  159.2650 H   0  0  0  0  0  0  0  0  0  0  0  0  # atno 6909 bound_to 6896
  145.0372  139.3995  143.5120 H   0  0  0  0  0  0  0  0  0  0  0  0  # atno 7974 bound_to 7965
  154.8269  140.0442  157.1450 H   0  0  0  0  0  0  0  0  0  0  0  0  # atno 8008 bound_to 7997
  154.9196  140.3025  155.5203 H   0  0  0  0  0  0  0  0  0  0  0  0  # atno 8009 bound_to 7997
  156.2984  140.2343  156.4245 H   0  0  0  0  0  0  0  0  0  0  0  0  # atno 8010 bound_to 7997
  139.5020  144.6170  151.6140 H   0  0  0  0  0  0  0  0  0  0  0  0  # atno 10167 bound_to 10162
  157.6375  131.0973  150.6943 H   0  0  0  0  0  0  0  0  0  0  0  0  # atno 10718 bound_to 10713
  153.2203  135.6880  153.8008 H   0  0  0  0  0  0  0  0  0  0  0  0  # atno 10763 bound_to 10752
  153.7209  135.3267  155.3267 H   0  0  0  0  0  0  0  0  0  0  0  0  # atno 10764 bound_to 10752
  154.8266  135.4613  154.1048 H   0  0  0  0  0  0  0  0  0  0  0  0  # atno 10765 bound_to 10752
  139.8826  134.9395  156.5794 H   0  0  0  0  0  0  0  0  0  0  0  0  # atno 11005 bound_to 11000
  146.3505  139.9953  142.8681 LP  0  0  0  0  0  0  0  0  0  0  0  0  # atno 17320 bound_to 7965
  145.1695  140.9713  143.4330 LP  0  0  0  0  0  0  0  0  0  0  0  0  # atno 17321 bound_to 7965
  140.5861  143.9861  150.6296 LP  0  0  0  0  0  0  0  0  0  0  0  0  # atno 17342 bound_to 10162
  140.3026  143.3250  152.0957 LP  0  0  0  0  0  0  0  0  0  0  0  0  # atno 17343 bound_to 10162
  156.7272  130.4699  149.5508 LP  0  0  0  0  0  0  0  0  0  0  0  0  # atno 17370 bound_to 10713
  156.1626  130.6384  151.0738 LP  0  0  0  0  0  0  0  0  0  0  0  0  # atno 17371 bound_to 10713
  140.8039  133.8483  155.8750 LP  0  0  0  0  0  0  0  0  0  0  0  0  # atno 17394 bound_to 11000
  140.9568  134.1708  157.4685 LP  0  0  0  0  0  0  0  0  0  0  0  0  # atno 17395 bound_to 11000

$$$$
