AV-unprocessed.smi:508|AV-procd|sdf|2759|dock10
  -GOLD-   2262023223D 1   1.00000     0.00000
 Structure written by MMmdl.
 48 50  0  0  0  0  0  0  0  0  2 V2000
  147.7034  141.5646  154.0396 C   0  0  0  0  0  0  0  0  0  0  0  0
  148.5781  140.3088  154.0511 C   0  0  0  0  0  0  0  0  0  0  0  0
  149.8852  140.6629  154.4694 O   0  0  0  0  0  0  0  0  0  0  0  0
  150.1540  140.2822  155.8084 C   0  0  0  0  0  0  0  0  0  0  0  0
  151.6620  140.4210  156.0613 C   0  0  0  0  0  0  0  0  0  0  0  0
  152.0852  139.8179  157.3214 N   0  0  0  0  0  0  0  0  0  0  0  0
  152.1291  140.3885  158.5564 C   0  0  0  0  0  0  0  0  0  0  0  0
  151.6857  141.6923  158.7906 N   0  0  0  0  0  0  0  0  0  0  0  0
  150.4999  142.2771  158.1688 C   0  0  0  0  0  0  0  0  0  0  0  0
  150.7297  143.6365  157.4789 C   0  0  0  0  0  0  0  0  0  0  0  0
  150.8869  144.7962  158.4736 C   0  0  0  0  0  0  0  0  0  0  0  0
  152.3008  144.9640  159.0587 C   0  0  0  0  0  0  0  0  0  0  0  0
  153.0573  143.6674  159.4021 C   0  0  0  0  0  0  0  0  0  0  0  0
  152.1802  142.5065  159.8976 C   0  0  0  0  0  0  0  0  0  0  0  0
  152.6470  139.6112  159.5104 N   0  0  0  0  0  0  0  0  0  0  0  0
  152.9290  138.4359  158.8317 C   0  0  0  0  0  0  0  0  0  0  0  0
  152.6010  138.5330  157.5165 C   0  0  0  0  0  0  0  0  0  0  0  0
  152.8047  137.4444  156.5369 C   0  0  0  0  0  0  0  0  0  0  0  0
  152.5045  137.5903  155.3537 O   0  0  0  0  0  0  0  0  0  0  0  0
  153.3419  136.3237  157.1155 N   0  5  0  0  0  0  0  0  0  0  0  0
  153.6851  136.1804  158.4435 C   0  0  0  0  0  0  0  0  0  0  0  0
  154.1611  135.1303  158.8754 O   0  0  0  0  0  0  0  0  0  0  0  0
  153.4951  137.2256  159.3117 N   0  0  0  0  0  0  0  0  0  0  0  0
  153.8432  137.1574  160.7344 C   0  0  0  0  0  0  0  0  0  0  0  0
  146.6875  141.3290  153.7220 H   0  0  0  0  0  0  0  0  0  0  0  0
  148.1033  142.3131  153.3552 H   0  0  0  0  0  0  0  0  0  0  0  0
  147.6488  142.0120  155.0320 H   0  0  0  0  0  0  0  0  0  0  0  0
  148.1541  139.5676  154.7300 H   0  0  0  0  0  0  0  0  0  0  0  0
  148.6085  139.8669  153.0541 H   0  0  0  0  0  0  0  0  0  0  0  0
  149.5867  140.9147  156.4893 H   0  0  0  0  0  0  0  0  0  0  0  0
  149.8287  139.2554  155.9777 H   0  0  0  0  0  0  0  0  0  0  0  0
  152.2240  139.9615  155.2487 H   0  0  0  0  0  0  0  0  0  0  0  0
  151.9571  141.4676  156.0481 H   0  0  0  0  0  0  0  0  0  0  0  0
  150.1084  141.5673  157.4431 H   0  0  0  0  0  0  0  0  0  0  0  0
  149.7168  142.3709  158.9221 H   0  0  0  0  0  0  0  0  0  0  0  0
  151.5662  143.6065  156.7824 H   0  0  0  0  0  0  0  0  0  0  0  0
  149.8492  143.8412  156.8694 H   0  0  0  0  0  0  0  0  0  0  0  0
  150.6116  145.7292  157.9808 H   0  0  0  0  0  0  0  0  0  0  0  0
  150.1663  144.6741  159.2832 H   0  0  0  0  0  0  0  0  0  0  0  0
  152.9119  145.5392  158.3623 H   0  0  0  0  0  0  0  0  0  0  0  0
  152.2228  145.5800  159.9551 H   0  0  0  0  0  0  0  0  0  0  0  0
  153.6389  143.3383  158.5391 H   0  0  0  0  0  0  0  0  0  0  0  0
  153.7946  143.9047  160.1695 H   0  0  0  0  0  0  0  0  0  0  0  0
  151.3604  142.8668  160.5203 H   0  0  0  0  0  0  0  0  0  0  0  0
  152.7850  141.8686  160.5430 H   0  0  0  0  0  0  0  0  0  0  0  0
  154.3360  136.2322  161.0338 H   0  0  0  0  0  0  0  0  0  0  0  0
  152.9430  137.2598  161.3408 H   0  0  0  0  0  0  0  0  0  0  0  0
  154.5154  137.9766  160.9919 H   0  0  0  0  0  0  0  0  0  0  0  0
  1  2  1  0  0  0  0
  1 25  1  0  0  0  0
  1 26  1  0  0  0  0
  1 27  1  0  0  0  0
  2  3  1  0  0  0  0
  2 28  1  0  0  0  0
  2 29  1  0  0  0  0
  3  4  1  0  0  0  0
  4  5  1  0  0  0  0
  4 30  1  0  0  0  0
  4 31  1  0  0  0  0
  5  6  1  0  0  0  0
  5 32  1  0  0  0  0
  5 33  1  0  0  0  0
  6 17  1  0  0  0  0
  6  7  1  0  0  0  0
  7  8  1  0  0  0  0
  7 15  2  0  0  0  0
  8 14  1  0  0  0  0
  8  9  1  0  0  0  0
  9 10  1  0  0  0  0
  9 34  1  0  0  0  0
  9 35  1  0  0  0  0
 10 11  1  0  0  0  0
 10 36  1  0  0  0  0
 10 37  1  0  0  0  0
 11 12  1  0  0  0  0
 11 38  1  0  0  0  0
 11 39  1  0  0  0  0
 12 13  1  0  0  0  0
 12 40  1  0  0  0  0
 12 41  1  0  0  0  0
 13 14  1  0  0  0  0
 13 42  1  0  0  0  0
 13 43  1  0  0  0  0
 14 44  1  0  0  0  0
 14 45  1  0  0  0  0
 15 16  1  0  0  0  0
 16 23  1  0  0  0  0
 16 17  2  0  0  0  0
 17 18  1  0  0  0  0
 18 19  2  0  0  0  0
 18 20  1  0  0  0  0
 20 21  1  0  0  0  0
 21 22  2  0  0  0  0
 21 23  1  0  0  0  0
 23 24  1  0  0  0  0
 24 46  1  0  0  0  0
 24 47  1  0  0  0  0
 24 48  1  0  0  0  0
M  CHG  1  20  -1
M  END
> <s_m_source_file>
AV-unprocessed.smi

> <i_m_source_file_index>
508

> <i_lp_mmshare_version>
43012

> <i_f3d_flags>
0

> <s_epik_input>
W0NIM11uMWMoPU8pW25IXWMoPU8pYyhjMTIpbihbQ0gyXVtDSDJdT1tDSDJdW0NIM10pYyhuMilOM1tDSDJdW0NIMl1bQ0gyXVtDSDJdW0NIMl1bQ0gyXTM=

> <s_epik_cmdline>
J2VwaWtfcHl0aG9uJywgJy1waCcsICc3LjAnLCAnLXRuJywgJzgnLCAnLW1hJywgJzIwMCcsICctbWV0YWxfYmluZGluZycsICctaW1hZScsICc8aW5maWxlLm1hZT4nLCAnLW9tYWUnLCAnPG91dGZpbGUubWFlPic=

> <r_lp_tautomer_probability>
1

> <r_epik_Ionization_Penalty>
6.1764

> <r_epik_Ionization_Penalty_Charging>
0.0751667

> <r_epik_Ionization_Penalty_Neutral>
6.10123

> <r_epik_State_Penalty>
6.09793

> <r_epik_Charging_Adjusted_Penalty>
6.17309

> <i_epik_Tot_Q>
-1

> <i_epik_Tot_abs_Q>
1

> <r_epik_Metal_State_Penalty>
2.04406

> <b_epik_Metal_Only>
1

> <s_lp_Force_Field>
OPLS_2005

> <r_lp_Energy>
49.0985

> <b_lp_Chiralities_Consistent>
1

> <s_lp_Variant>
AV-unprocessed.smi:508-2

> <Gold.Version>
5.8.1

> <Gold.Id.Protein>
6NUR|6NUR_protein|mol2

> <Gold.PLP.Fitness>
52.0284

> <Gold.PLP.PLP>
-42.6760

> <Gold.PLP.part.hbond>
-4.0000

> <Gold.PLP.part.metal>
0.0000

> <Gold.PLP.part.buried>
-3.1348

> <Gold.PLP.part.nonpolar>
-37.0670

> <Gold.PLP.part.repulsive>
0.1549

> <Gold.PLP.ligand.clash>
0.0000

> <Gold.PLP.ligand.torsion>
1.1628

> <Gold.PLP.Chemscore.Hbond>
3.6418

> <Gold.PLP.Chemscore.CHOScore>
0.0000

> <Gold.PLP.Chemscore.Metal>
0.0000

> <Gold.Chemscore.Hbonds>
donor molecule, donor type, donor heavy atom, donor atom, acceptor molecule, acceptor atom, score
      P1  H  6896  6907       L1    22  0.98
      P1  H  7989  7998       L1     3  0.75
      P1  H 10752 10764       L1    20  1.70

> <Gold.PLP.Chemscore.Internal.Correction>
0.7526

> <Gold.Rescore>
     Score         DG    S(hbond)    S(metal)    S(lipo)     H(rot)  DE(clash)    DE(int)     intcor
     14.48     -17.56       1.27        0.00     100.93       1.55       0.89       2.20       ----

> <Gold.Chemscore.Fitness>
14.4774

> <Gold.Chemscore.DG>
-17.5615

> <Gold.Chemscore.ZeroCoef>
-5.4800

> <Gold.Chemscore.Hbond>
1.2722

> <Gold.Chemscore.Metal>
0.0000

> <Gold.Chemscore.Lipo>
100.9325

> <Gold.Chemscore.Internal_Hbond>
0.0000

> <Gold.Chemscore.DEClash>
0.8880

> <Gold.Chemscore.DEInternal>
2.1961

> <Gold.Chemscore.Rot>
1.5534

> <Gold.Chemscore.Internal.Correction>
   9.000000E+99

> <Gold.Chemscore.Hbonds>
donor molecule, donor type, donor heavy atom, donor atom, acceptor molecule, acceptor atom, score
      P1  H  6896  6907       L1    22  0.35
      P1  H  7989  7998       L1     3  0.55
      P1  H 10752 10763       L1    19  0.01
      P1  H 10752 10764       L1    20  0.14

> <Gold.Chemscore.Hbond.Weighted>
-4.2492

> <Gold.Chemscore.Metal.Weighted>
-0.0000

> <Gold.Chemscore.Lipo.Weighted>
-11.8091

> <Gold.Chemscore.Internal_Hbond.Weighted>
0.0000

> <Gold.Chemscore.DEClash.Weighted>
0.8880

> <Gold.Chemscore.DEInternal.Weighted>
2.1961

> <Gold.Chemscore.Rot.Weighted>
3.9768

> <Gold.Chemscore.Internal.Correction.Weighted>
   9.000000E+99

> <Gold.Protein.RotatedTorsions>
[ 6907 6896 6895 6894 ] final   84.63 input  -60.11 | X-H torsion
[ 7974 7965 7964 7962 ] final -163.00 input  175.53 | X-H torsion
[ 8008 7997 7996 7995 ] final   36.51 input   59.86 | X-H torsion
[ 10167 10162 10161 10158 ] final   23.79 input  -65.29 | X-H torsion
[ 10718 10713 10712 10709 ] final  166.09 input   66.30 | X-H torsion
[ 10763 10752 10751 10750 ] final   13.98 input  -60.55 | X-H torsion
[ 11005 11000 10999 10996 ] final -111.17 input  -57.11 | X-H torsion

> <Gold.Protein.ActiveResidues>
 VAL166  LYS551  ARG553  GLY616  TRP617  ASP618  TYR619  PRO620  LYS621  CYS622 
 ASP623  PHE694  ASN695  SER759  ASP760  ASP761  ALA762  ILE779  LEU786  VAL792 
 PHE793  MET794  SER795  GLU796  ALA797  LYS798  CYS799  TRP800  GLU811  SER814 

> <Gold.Protein.RotatedAtoms>
  152.5357  134.2711  159.8971 H   0  0  0  0  0  0  0  0  0  0  0  0  # atno 6907 bound_to 6896
  151.2668  133.4268  159.2626 H   0  0  0  0  0  0  0  0  0  0  0  0  # atno 6908 bound_to 6896
  151.0404  134.9617  159.8215 H   0  0  0  0  0  0  0  0  0  0  0  0  # atno 6909 bound_to 6896
  144.7339  140.3171  143.6177 H   0  0  0  0  0  0  0  0  0  0  0  0  # atno 7974 bound_to 7965
  155.1885  140.3306  155.4362 H   0  0  0  0  0  0  0  0  0  0  0  0  # atno 8008 bound_to 7997
  156.2451  140.1914  156.6930 H   0  0  0  0  0  0  0  0  0  0  0  0  # atno 8009 bound_to 7997
  154.6222  140.0594  156.9615 H   0  0  0  0  0  0  0  0  0  0  0  0  # atno 8010 bound_to 7997
  140.5240  143.9954  150.6431 H   0  0  0  0  0  0  0  0  0  0  0  0  # atno 10167 bound_to 10162
  157.0708  131.0365  151.2612 H   0  0  0  0  0  0  0  0  0  0  0  0  # atno 10718 bound_to 10713
  153.1667  135.6805  153.8665 H   0  0  0  0  0  0  0  0  0  0  0  0  # atno 10763 bound_to 10752
  153.8042  135.3151  155.3395 H   0  0  0  0  0  0  0  0  0  0  0  0  # atno 10764 bound_to 10752
  154.7970  135.4801  154.0276 H   0  0  0  0  0  0  0  0  0  0  0  0  # atno 10765 bound_to 10752
  141.0750  133.9317  157.2409 H   0  0  0  0  0  0  0  0  0  0  0  0  # atno 11005 bound_to 11000
  145.7607  139.1823  143.2269 LP  0  0  0  0  0  0  0  0  0  0  0  0  # atno 17320 bound_to 7965
  146.0989  140.7568  142.9559 LP  0  0  0  0  0  0  0  0  0  0  0  0  # atno 17321 bound_to 7965
  140.3311  143.3077  152.0686 LP  0  0  0  0  0  0  0  0  0  0  0  0  # atno 17342 bound_to 10162
  139.4932  144.6508  151.6679 LP  0  0  0  0  0  0  0  0  0  0  0  0  # atno 17343 bound_to 10162
  157.4880  130.7805  149.7479 LP  0  0  0  0  0  0  0  0  0  0  0  0  # atno 17370 bound_to 10713
  155.9951  130.3914  150.2832 LP  0  0  0  0  0  0  0  0  0  0  0  0  # atno 17371 bound_to 10713
  139.9562  135.0165  156.9134 LP  0  0  0  0  0  0  0  0  0  0  0  0  # atno 17394 bound_to 11000
  140.5594  134.0550  155.7394 LP  0  0  0  0  0  0  0  0  0  0  0  0  # atno 17395 bound_to 11000

$$$$
