AV-unprocessed.smi:254|AV-procd|sdf|1945|dock4
  -GOLD-   2262021 73D 1   1.00000     0.00000
 Structure written by MMmdl.
 50 53  0  0  0  0  0  0  0  0  1 V2000
  149.4463  133.4470  153.4856 O   0  0  0  0  0  0  0  0  0  0  0  0
  149.5908  133.8575  154.6360 C   0  0  0  0  0  0  0  0  0  0  0  0
  149.9014  135.3058  154.9659 C   0  0  0  0  0  0  0  0  0  0  0  0
  149.9397  135.2670  156.4228 N   0  0  0  0  0  0  0  0  0  0  0  0
  150.1877  136.3609  157.1884 C   0  0  0  0  0  0  0  0  0  0  0  0
  149.9745  136.2661  158.5272 N   0  0  0  0  0  0  0  0  0  0  0  0
  150.1985  137.3115  159.3269 C   0  0  0  0  0  0  0  0  0  0  0  0
  150.6341  138.5287  159.0025 N   0  0  0  0  0  0  0  0  0  0  0  0
  150.8588  138.6360  157.6627 C   0  0  0  0  0  0  0  0  0  0  0  0
  150.6585  137.6129  156.6900 C   0  0  0  0  0  0  0  0  0  0  0  0
  150.9823  138.1030  155.4299 N   0  0  0  0  0  0  0  0  0  0  0  0
  151.3484  139.3359  155.6444 C   0  0  0  0  0  0  0  0  0  0  0  0
  151.3225  139.7368  156.9609 N   0  0  0  0  0  0  0  0  0  0  0  0
  151.6816  141.0522  157.4765 C   0  0  0  0  0  0  0  0  0  0  0  0
  150.4727  141.9190  157.9204 C   0  0  2  0  0  0  0  0  0  0  0  0
  149.2505  141.6591  157.0064 C   0  0  0  0  0  0  0  0  0  0  0  0
  149.4956  142.0481  155.6711 O   0  0  0  0  0  0  0  0  0  0  0  0
  150.8411  143.4256  158.0178 C   0  0  2  0  0  0  0  0  0  0  0  0
  152.2653  143.6967  158.4763 C   0  0  0  0  0  0  0  0  0  0  0  0
  152.2042  145.1653  158.8811 C   0  0  0  0  0  0  0  0  0  0  0  0
  150.8754  145.3826  159.3413 O   0  0  0  0  0  0  0  0  0  0  0  0
  150.0789  144.2336  159.0732 C   0  0  0  0  0  0  0  0  0  0  0  0
  149.6869  133.9347  156.9534 C   0  0  0  0  0  0  0  0  0  0  0  0
  149.4955  133.1323  155.7563 N   0  0  0  0  0  0  0  0  0  0  0  0
  149.1914  131.7062  155.8513 C   0  0  0  0  0  0  0  0  0  0  0  0
  150.4303  130.8237  155.6159 C   0  0  0  0  0  0  0  0  0  0  0  0
  150.3321  129.7304  156.3708 F   0  0  0  0  0  0  0  0  0  0  0  0
  150.5216  130.4491  154.3402 F   0  0  0  0  0  0  0  0  0  0  0  0
  151.5387  131.4793  155.9609 F   0  0  0  0  0  0  0  0  0  0  0  0
  150.8634  135.6013  154.5453 H   0  0  0  0  0  0  0  0  0  0  0  0
  149.1154  135.9669  154.5990 H   0  0  0  0  0  0  0  0  0  0  0  0
  150.0015  137.1490  160.3762 H   0  0  0  0  0  0  0  0  0  0  0  0
  151.6540  139.9890  154.8401 H   0  0  0  0  0  0  0  0  0  0  0  0
  152.3522  140.9043  158.3239 H   0  0  0  0  0  0  0  0  0  0  0  0
  152.2757  141.5709  156.7243 H   0  0  0  0  0  0  0  0  0  0  0  0
  150.2068  141.5761  158.9216 H   0  0  0  0  0  0  0  0  0  0  0  0
  148.9560  140.6094  157.0328 H   0  0  0  0  0  0  0  0  0  0  0  0
  148.3941  142.2412  157.3468 H   0  0  0  0  0  0  0  0  0  0  0  0
  149.4211  142.9885  155.6126 H   0  0  0  0  0  0  0  0  0  0  0  0
  150.6831  143.9054  157.0510 H   0  0  0  0  0  0  0  0  0  0  0  0
  152.5072  143.0824  159.3449 H   0  0  0  0  0  0  0  0  0  0  0  0
  153.0205  143.5106  157.7148 H   0  0  0  0  0  0  0  0  0  0  0  0
  152.9386  145.4173  159.6462 H   0  0  0  0  0  0  0  0  0  0  0  0
  152.3799  145.8059  158.0162 H   0  0  0  0  0  0  0  0  0  0  0  0
  149.0809  144.5212  158.7422 H   0  0  0  0  0  0  0  0  0  0  0  0
  149.9801  143.6655  159.9992 H   0  0  0  0  0  0  0  0  0  0  0  0
  150.5389  133.5689  157.5282 H   0  0  0  0  0  0  0  0  0  0  0  0
  148.7902  133.9191  157.5746 H   0  0  0  0  0  0  0  0  0  0  0  0
  148.7770  131.4980  156.8385 H   0  0  0  0  0  0  0  0  0  0  0  0
  148.4094  131.4519  155.1341 H   0  0  0  0  0  0  0  0  0  0  0  0
  1  2  2  0  0  0  0
  2 24  1  0  0  0  0
  2  3  1  0  0  0  0
  3  4  1  0  0  0  0
  3 30  1  0  0  0  0
  3 31  1  0  0  0  0
  4  5  1  0  0  0  0
  4 23  1  0  0  0  0
  5 10  1  0  0  0  0
  5  6  2  0  0  0  0
  6  7  1  0  0  0  0
  7  8  2  0  0  0  0
  7 32  1  0  0  0  0
  8  9  1  0  0  0  0
  9 13  1  0  0  0  0
  9 10  2  0  0  0  0
 10 11  1  0  0  0  0
 11 12  2  0  0  0  0
 12 13  1  0  0  0  0
 12 33  1  0  0  0  0
 13 14  1  0  0  0  0
 14 15  1  0  0  0  0
 14 34  1  0  0  0  0
 14 35  1  0  0  0  0
 15 16  1  0  0  0  0
 15 18  1  0  0  0  0
 15 36  1  0  0  0  0
 16 17  1  0  0  0  0
 16 37  1  0  0  0  0
 16 38  1  0  0  0  0
 17 39  1  0  0  0  0
 18 22  1  0  0  0  0
 18 19  1  0  0  0  0
 18 40  1  0  0  0  0
 19 20  1  0  0  0  0
 19 41  1  0  0  0  0
 19 42  1  0  0  0  0
 20 21  1  0  0  0  0
 20 43  1  0  0  0  0
 20 44  1  0  0  0  0
 21 22  1  0  0  0  0
 22 45  1  0  0  0  0
 22 46  1  0  0  0  0
 23 24  1  0  0  0  0
 23 47  1  0  0  0  0
 23 48  1  0  0  0  0
 24 25  1  0  0  0  0
 25 26  1  0  0  0  0
 25 49  1  0  0  0  0
 25 50  1  0  0  0  0
 26 27  1  0  0  0  0
 26 28  1  0  0  0  0
 26 29  1  0  0  0  0
M  END
> <s_m_source_file>
AV-unprocessed.smi

> <i_m_source_file_index>
254

> <i_lp_mmshare_version>
43012

> <i_f3d_flags>
0

> <s_epik_input>
RkMoRikoRilbQ0gyXU4xW0NIMl1OKFtDSDJdQzE9TyljKG5bY0hdbjIpYyhjMjMpbltjSF1uM1tDSDJdW0NASF0oW0NIMl1bT0hdKVtDQEBIXTRbQ0gyXVtDSDJdT1tDSDJdNA==

> <s_epik_cmdline>
J2VwaWtfcHl0aG9uJywgJy1waCcsICc3LjAnLCAnLXRuJywgJzgnLCAnLW1hJywgJzIwMCcsICctbWV0YWxfYmluZGluZycsICctaW1hZScsICc8aW5maWxlLm1hZT4nLCAnLW9tYWUnLCAnPG91dGZpbGUubWFlPic=

> <r_lp_tautomer_probability>
1

> <r_epik_Ionization_Penalty>
0.000292924

> <r_epik_Ionization_Penalty_Charging>
0

> <r_epik_Ionization_Penalty_Neutral>
0.000292924

> <r_epik_State_Penalty>
-0

> <r_epik_Charging_Adjusted_Penalty>
0

> <i_epik_Tot_Q>
0

> <i_epik_Tot_abs_Q>
0

> <r_epik_Metal_State_Penalty>
-0

> <b_epik_Metal_Only>
0

> <s_epik_Chemistry_Notes>
This compound contains an acetal/aminal-like group ( X-CH(R)-Y where X, Y are N, S, or O) that may be acid/base labile, releasing an aldehyde.

> <s_lp_Force_Field>
OPLS_2005

> <r_lp_Energy>
38.7096

> <b_lp_Chiralities_Consistent>
1

> <s_lp_Variant>
AV-unprocessed.smi:254-1

> <Gold.Version>
5.8.1

> <Gold.Id.Protein>
6NUR|6NUR_protein|mol2

> <Gold.PLP.Fitness>
44.8080

> <Gold.PLP.PLP>
-42.2188

> <Gold.PLP.part.hbond>
-2.5057

> <Gold.PLP.part.metal>
0.0000

> <Gold.PLP.part.buried>
-7.5888

> <Gold.PLP.part.nonpolar>
-33.4910

> <Gold.PLP.part.repulsive>
0.4299

> <Gold.PLP.ligand.clash>
0.0000

> <Gold.PLP.ligand.torsion>
1.9707

> <Gold.PLP.Chemscore.Hbond>
2.0000

> <Gold.PLP.Chemscore.CHOScore>
0.0000

> <Gold.PLP.Chemscore.Metal>
0.0000

> <Gold.Chemscore.Hbonds>
donor molecule, donor type, donor heavy atom, donor atom, acceptor molecule, acceptor atom, score
      L1  H    17    39       P1  8028  1.00
      P1  H  6896  6907       L1     6  0.95

> <Gold.PLP.Chemscore.Internal.Correction>
0.5306

> <Gold.Rescore>
     Score         DG    S(hbond)    S(metal)    S(lipo)     H(rot)  DE(clash)    DE(int)     intcor
      9.06     -11.87       1.68        0.00      78.73       3.30       0.02       2.79       ----

> <Gold.Chemscore.Fitness>
9.0574

> <Gold.Chemscore.DG>
-11.8692

> <Gold.Chemscore.ZeroCoef>
-5.4800

> <Gold.Chemscore.Hbond>
1.6823

> <Gold.Chemscore.Metal>
0.0000

> <Gold.Chemscore.Lipo>
78.7337

> <Gold.Chemscore.Internal_Hbond>
0.0000

> <Gold.Chemscore.DEClash>
0.0206

> <Gold.Chemscore.DEInternal>
2.7912

> <Gold.Chemscore.Rot>
3.2974

> <Gold.Chemscore.Internal.Correction>
   9.000000E+99

> <Gold.Chemscore.Hbonds>
donor molecule, donor type, donor heavy atom, donor atom, acceptor molecule, acceptor atom, score
      L1  H    17    39       P1  8028  1.00
      P1  H  6896  6907       L1     6  0.20

> <Gold.Chemscore.Hbond.Weighted>
-5.6188

> <Gold.Chemscore.Metal.Weighted>
-0.0000

> <Gold.Chemscore.Lipo.Weighted>
-9.2118

> <Gold.Chemscore.Internal_Hbond.Weighted>
0.0000

> <Gold.Chemscore.DEClash.Weighted>
0.0206

> <Gold.Chemscore.DEInternal.Weighted>
2.7912

> <Gold.Chemscore.Rot.Weighted>
8.4414

> <Gold.Chemscore.Internal.Correction.Weighted>
   9.000000E+99

> <Gold.Protein.RotatedTorsions>
[ 6907 6896 6895 6894 ] final  -53.02 input  -60.11 | X-H torsion
[ 7974 7965 7964 7962 ] final  -21.60 input  175.53 | X-H torsion
[ 8008 7997 7996 7995 ] final  -83.70 input   59.86 | X-H torsion
[ 10167 10162 10161 10158 ] final  132.17 input  -65.29 | X-H torsion
[ 10718 10713 10712 10709 ] final  125.22 input   66.30 | X-H torsion
[ 10763 10752 10751 10750 ] final -124.78 input  -60.55 | X-H torsion
[ 11005 11000 10999 10996 ] final    6.09 input  -57.11 | X-H torsion

> <Gold.Protein.ActiveResidues>
 VAL166  LYS551  ARG553  GLY616  TRP617  ASP618  TYR619  PRO620  LYS621  CYS622 
 ASP623  PHE694  ASN695  SER759  ASP760  ASP761  ALA762  ILE779  LEU786  VAL792 
 PHE793  MET794  SER795  GLU796  ALA797  LYS798  CYS799  TRP800  GLU811  SER814 

> <Gold.Protein.RotatedAtoms>
  150.8464  134.7774  159.6973 H   0  0  0  0  0  0  0  0  0  0  0  0  # atno 6907 bound_to 6896
  152.4540  134.5329  159.9826 H   0  0  0  0  0  0  0  0  0  0  0  0  # atno 6908 bound_to 6896
  151.5459  133.3387  159.2979 H   0  0  0  0  0  0  0  0  0  0  0  0  # atno 6909 bound_to 6896
  146.1724  140.4363  142.8527 H   0  0  0  0  0  0  0  0  0  0  0  0  # atno 7974 bound_to 7965
  154.6219  140.0615  156.9625 H   0  0  0  0  0  0  0  0  0  0  0  0  # atno 8008 bound_to 7997
  155.1804  140.3298  155.4358 H   0  0  0  0  0  0  0  0  0  0  0  0  # atno 8009 bound_to 7997
  156.2436  140.1898  156.6901 H   0  0  0  0  0  0  0  0  0  0  0  0  # atno 8010 bound_to 7997
  139.5351  144.6674  151.4813 H   0  0  0  0  0  0  0  0  0  0  0  0  # atno 10167 bound_to 10162
  157.5521  131.1093  150.8684 H   0  0  0  0  0  0  0  0  0  0  0  0  # atno 10718 bound_to 10713
  154.8728  135.4052  154.3160 H   0  0  0  0  0  0  0  0  0  0  0  0  # atno 10763 bound_to 10752
  153.3996  135.7017  153.6441 H   0  0  0  0  0  0  0  0  0  0  0  0  # atno 10764 bound_to 10752
  153.5189  135.3691  155.2593 H   0  0  0  0  0  0  0  0  0  0  0  0  # atno 10765 bound_to 10752
  140.5634  134.0171  155.7980 H   0  0  0  0  0  0  0  0  0  0  0  0  # atno 11005 bound_to 11000
  144.8183  140.6506  143.6369 LP  0  0  0  0  0  0  0  0  0  0  0  0  # atno 17320 bound_to 7965
  145.4304  139.1550  143.4025 LP  0  0  0  0  0  0  0  0  0  0  0  0  # atno 17321 bound_to 7965
  140.6553  143.8612  150.6829 LP  0  0  0  0  0  0  0  0  0  0  0  0  # atno 17342 bound_to 10162
  140.1989  143.3975  152.1806 LP  0  0  0  0  0  0  0  0  0  0  0  0  # atno 17343 bound_to 10162
  156.9206  130.5314  149.5279 LP  0  0  0  0  0  0  0  0  0  0  0  0  # atno 17370 bound_to 10713
  156.0586  130.5643  150.9144 LP  0  0  0  0  0  0  0  0  0  0  0  0  # atno 17371 bound_to 10713
  141.1101  133.9631  157.2926 LP  0  0  0  0  0  0  0  0  0  0  0  0  # atno 17394 bound_to 11000
  139.9397  135.0192  156.8668 LP  0  0  0  0  0  0  0  0  0  0  0  0  # atno 17395 bound_to 11000

$$$$
