AV-unprocessed.smi:2241|AV-procd|sdf|9059|dock4
  -GOLD-   2272012263D 1   1.00000     0.00000
 Structure written by MMmdl.
 45 47  0  0  0  0  0  0  0  0  1 V2000
  151.3436  144.7513  160.5137 C   0  0  0  0  0  0  0  0  0  0  0  0
  152.2077  143.5663  160.8934 C   0  0  0  0  0  0  0  0  0  0  0  0
  152.4343  142.5259  159.9709 C   0  0  0  0  0  0  0  0  0  0  0  0
  153.2380  141.4296  160.3328 C   0  0  0  0  0  0  0  0  0  0  0  0
  153.8162  141.3685  161.6154 C   0  0  0  0  0  0  0  0  0  0  0  0
  154.7960  140.0095  162.0370 Cl  0  0  0  0  0  0  0  0  0  0  0  0
  153.5981  142.4034  162.5514 C   0  0  0  0  0  0  0  0  0  0  0  0
  154.1938  142.2724  163.7876 O   0  0  0  0  0  0  0  0  0  0  0  0
  154.3668  143.4333  164.5884 C   0  0  0  0  0  0  0  0  0  0  0  0
  155.3928  143.1102  165.6849 C   0  0  1  0  0  0  0  0  0  0  0  0
  156.6783  143.2929  165.1265 O   0  0  0  0  0  0  0  0  0  0  0  0
  155.2439  144.0409  166.9104 C   0  0  0  0  0  0  0  0  0  0  0  0
  156.1302  143.6473  168.0160 N   0  0  0  0  0  0  0  0  0  0  0  0
  157.1378  144.5646  168.3679 C   0  0  0  0  0  0  0  0  0  0  0  0
  157.9600  144.3332  169.3412 N   0  0  0  0  0  0  0  0  0  0  0  0
  157.8602  143.1408  170.0677 C   0  0  0  0  0  0  0  0  0  0  0  0
  158.8578  142.9171  171.1959 C   0  0  0  0  0  0  0  0  0  0  0  0
  160.1017  143.8218  171.1948 C   0  0  0  0  0  0  0  0  0  0  0  0
  160.9098  142.6004  171.6465 C   0  0  0  0  0  0  0  0  0  0  0  0
  159.8157  141.7278  171.0206 C   0  0  0  0  0  0  0  0  0  0  0  0
  156.9234  142.2160  169.7490 C   0  0  0  0  0  0  0  0  0  0  0  0
  155.9816  142.4499  168.6543 C   0  0  0  0  0  0  0  0  0  0  0  0
  155.1200  141.6309  168.3335 O   0  0  0  0  0  0  0  0  0  0  0  0
  152.7892  143.5061  162.1761 C   0  0  0  0  0  0  0  0  0  0  0  0
  150.8418  144.5889  159.5593 H   0  0  0  0  0  0  0  0  0  0  0  0
  151.9535  145.6510  160.4306 H   0  0  0  0  0  0  0  0  0  0  0  0
  150.5796  144.9226  161.2728 H   0  0  0  0  0  0  0  0  0  0  0  0
  151.9943  142.5637  158.9850 H   0  0  0  0  0  0  0  0  0  0  0  0
  153.4104  140.6329  159.6242 H   0  0  0  0  0  0  0  0  0  0  0  0
  154.7303  144.2503  163.9624 H   0  0  0  0  0  0  0  0  0  0  0  0
  153.4229  143.7434  165.0405 H   0  0  0  0  0  0  0  0  0  0  0  0
  155.2862  142.0620  165.9684 H   0  0  0  0  0  0  0  0  0  0  0  0
  157.2526  143.6297  165.7969 H   0  0  0  0  0  0  0  0  0  0  0  0
  155.3811  145.0858  166.6240 H   0  0  0  0  0  0  0  0  0  0  0  0
  154.2159  144.0055  167.2757 H   0  0  0  0  0  0  0  0  0  0  0  0
  157.1756  145.4741  167.7657 H   0  0  0  0  0  0  0  0  0  0  0  0
  158.3671  142.9026  172.1708 H   0  0  0  0  0  0  0  0  0  0  0  0
  160.3942  144.1661  170.2009 H   0  0  0  0  0  0  0  0  0  0  0  0
  160.0706  144.6412  171.9132 H   0  0  0  0  0  0  0  0  0  0  0  0
  161.8922  142.5048  171.1832 H   0  0  0  0  0  0  0  0  0  0  0  0
  160.9609  142.5038  172.7323 H   0  0  0  0  0  0  0  0  0  0  0  0
  159.5529  140.8405  171.5971 H   0  0  0  0  0  0  0  0  0  0  0  0
  160.0224  141.4852  169.9766 H   0  0  0  0  0  0  0  0  0  0  0  0
  156.8590  141.2941  170.3087 H   0  0  0  0  0  0  0  0  0  0  0  0
  152.6002  144.3209  162.8582 H   0  0  0  0  0  0  0  0  0  0  0  0
  1  2  1  0  0  0  0
  1 25  1  0  0  0  0
  1 26  1  0  0  0  0
  1 27  1  0  0  0  0
  2 24  1  0  0  0  0
  2  3  2  0  0  0  0
  3  4  1  0  0  0  0
  3 28  1  0  0  0  0
  4  5  2  0  0  0  0
  4 29  1  0  0  0  0
  5  6  1  0  0  0  0
  5  7  1  0  0  0  0
  7  8  1  0  0  0  0
  7 24  2  0  0  0  0
  8  9  1  0  0  0  0
  9 10  1  0  0  0  0
  9 30  1  0  0  0  0
  9 31  1  0  0  0  0
 10 11  1  0  0  0  0
 10 12  1  0  0  0  0
 10 32  1  0  0  0  0
 11 33  1  0  0  0  0
 12 13  1  0  0  0  0
 12 34  1  0  0  0  0
 12 35  1  0  0  0  0
 13 22  1  0  0  0  0
 13 14  1  0  0  0  0
 14 15  2  0  0  0  0
 14 36  1  0  0  0  0
 15 16  1  0  0  0  0
 16 17  1  0  0  0  0
 16 21  2  0  0  0  0
 17 20  1  0  0  0  0
 17 18  1  0  0  0  0
 17 37  1  0  0  0  0
 18 19  1  0  0  0  0
 18 38  1  0  0  0  0
 18 39  1  0  0  0  0
 19 20  1  0  0  0  0
 19 40  1  0  0  0  0
 19 41  1  0  0  0  0
 20 42  1  0  0  0  0
 20 43  1  0  0  0  0
 21 22  1  0  0  0  0
 21 44  1  0  0  0  0
 22 23  2  0  0  0  0
 24 45  1  0  0  0  0
M  END
> <s_m_source_file>
AV-unprocessed.smi

> <i_m_source_file_index>
2241

> <i_lp_mmshare_version>
43012

> <i_f3d_flags>
0

> <s_epik_input>
W0NIM11jMVtjSF1bY0hdYyhDbCljKFtjSF0xKU9bQ0gyXVtDQEhdKFtPSF0pW0NIMl1uMltjSF1uYyhbY0hdYzI9TylbQ0hdM1tDSDJdW0NIMl1bQ0gyXTM=

> <s_epik_cmdline>
J2VwaWtfcHl0aG9uJywgJy1waCcsICc3LjAnLCAnLXRuJywgJzgnLCAnLW1hJywgJzIwMCcsICctbWV0YWxfYmluZGluZycsICctaW1hZScsICc8aW5maWxlLm1hZT4nLCAnLW9tYWUnLCAnPG91dGZpbGUubWFlPic=

> <r_lp_tautomer_probability>
1

> <r_epik_Ionization_Penalty>
1.78212e-05

> <r_epik_Ionization_Penalty_Charging>
5.61663e-08

> <r_epik_Ionization_Penalty_Neutral>
1.7765e-05

> <r_epik_State_Penalty>
-0

> <r_epik_Charging_Adjusted_Penalty>
5.61663e-08

> <i_epik_Tot_Q>
0

> <i_epik_Tot_abs_Q>
0

> <r_epik_Metal_State_Penalty>
-0

> <b_epik_Metal_Only>
0

> <s_lp_Force_Field>
OPLS_2005

> <r_lp_Energy>
30.2703

> <b_lp_Chiralities_Consistent>
1

> <s_lp_Variant>
AV-unprocessed.smi:2241-2

> <Gold.Version>
5.8.1

> <Gold.Id.Protein>
6NUR|6NUR_protein|mol2

> <Gold.PLP.Fitness>
45.4969

> <Gold.PLP.PLP>
-46.7605

> <Gold.PLP.part.hbond>
-1.7047

> <Gold.PLP.part.metal>
0.0000

> <Gold.PLP.part.buried>
-7.0962

> <Gold.PLP.part.nonpolar>
-38.2289

> <Gold.PLP.part.repulsive>
0.2960

> <Gold.PLP.ligand.clash>
0.0000

> <Gold.PLP.ligand.torsion>
0.8663

> <Gold.PLP.Chemscore.Hbond>
0.0000

> <Gold.PLP.Chemscore.CHOScore>
0.0000

> <Gold.PLP.Chemscore.Metal>
0.0000

> <Gold.PLP.Chemscore.Internal.Correction>
0.4690

> <Gold.Rescore>
     Score         DG    S(hbond)    S(metal)    S(lipo)     H(rot)  DE(clash)    DE(int)     intcor
     13.23     -14.26       0.00        0.00     127.16       2.38       0.16       0.87       ----

> <Gold.Chemscore.Fitness>
13.2333

> <Gold.Chemscore.DG>
-14.2641

> <Gold.Chemscore.ZeroCoef>
-5.4800

> <Gold.Chemscore.Hbond>
0.0000

> <Gold.Chemscore.Metal>
0.0000

> <Gold.Chemscore.Lipo>
127.1553

> <Gold.Chemscore.Internal_Hbond>
0.0000

> <Gold.Chemscore.DEClash>
0.1597

> <Gold.Chemscore.DEInternal>
0.8711

> <Gold.Chemscore.Rot>
2.3801

> <Gold.Chemscore.Internal.Correction>
   9.000000E+99

> <Gold.Chemscore.Hbond.Weighted>
-0.0000

> <Gold.Chemscore.Metal.Weighted>
-0.0000

> <Gold.Chemscore.Lipo.Weighted>
-14.8772

> <Gold.Chemscore.Internal_Hbond.Weighted>
0.0000

> <Gold.Chemscore.DEClash.Weighted>
0.1597

> <Gold.Chemscore.DEInternal.Weighted>
0.8711

> <Gold.Chemscore.Rot.Weighted>
6.0931

> <Gold.Chemscore.Internal.Correction.Weighted>
   9.000000E+99

> <Gold.Protein.RotatedTorsions>
[ 6907 6896 6895 6894 ] final  -25.06 input  -60.11 | X-H torsion
[ 7974 7965 7964 7962 ] final   -5.88 input  175.53 | X-H torsion
[ 8008 7997 7996 7995 ] final -110.76 input   59.86 | X-H torsion
[ 10167 10162 10161 10158 ] final  -83.03 input  -65.29 | X-H torsion
[ 10718 10713 10712 10709 ] final   31.38 input   66.30 | X-H torsion
[ 10763 10752 10751 10750 ] final -157.49 input  -60.55 | X-H torsion
[ 11005 11000 10999 10996 ] final  137.51 input  -57.11 | X-H torsion

> <Gold.Protein.ActiveResidues>
 VAL166  LYS551  ARG553  GLY616  TRP617  ASP618  TYR619  PRO620  LYS621  CYS622 
 ASP623  PHE694  ASN695  SER759  ASP760  ASP761  ALA762  ILE779  LEU786  VAL792 
 PHE793  MET794  SER795  GLU796  ALA797  LYS798  CYS799  TRP800  GLU811  SER814 

> <Gold.Protein.RotatedAtoms>
  151.1806  135.0359  159.8790 H   0  0  0  0  0  0  0  0  0  0  0  0  # atno 6907 bound_to 6896
  152.5445  134.1067  159.8351 H   0  0  0  0  0  0  0  0  0  0  0  0  # atno 6908 bound_to 6896
  151.1184  133.5075  159.2635 H   0  0  0  0  0  0  0  0  0  0  0  0  # atno 6909 bound_to 6896
  146.2343  140.2088  142.8335 H   0  0  0  0  0  0  0  0  0  0  0  0  # atno 7974 bound_to 7965
  154.9794  140.0396  157.2271 H   0  0  0  0  0  0  0  0  0  0  0  0  # atno 8008 bound_to 7997
  154.7728  140.2805  155.6102 H   0  0  0  0  0  0  0  0  0  0  0  0  # atno 8009 bound_to 7997
  156.2924  140.2607  156.2534 H   0  0  0  0  0  0  0  0  0  0  0  0  # atno 8010 bound_to 7997
  140.4265  143.2564  151.8819 H   0  0  0  0  0  0  0  0  0  0  0  0  # atno 10167 bound_to 10162
  157.2717  130.7211  149.6508 H   0  0  0  0  0  0  0  0  0  0  0  0  # atno 10718 bound_to 10713
  154.7632  135.3123  154.8338 H   0  0  0  0  0  0  0  0  0  0  0  0  # atno 10763 bound_to 10752
  153.9093  135.6807  153.4756 H   0  0  0  0  0  0  0  0  0  0  0  0  # atno 10764 bound_to 10752
  153.1234  135.4812  154.9165 H   0  0  0  0  0  0  0  0  0  0  0  0  # atno 10765 bound_to 10752
  140.0119  134.9435  157.0296 H   0  0  0  0  0  0  0  0  0  0  0  0  # atno 11005 bound_to 11000
  144.9723  140.8381  143.5447 LP  0  0  0  0  0  0  0  0  0  0  0  0  # atno 17320 bound_to 7965
  145.2071  139.2223  143.5162 LP  0  0  0  0  0  0  0  0  0  0  0  0  # atno 17321 bound_to 7965
  139.4783  144.5381  151.8568 LP  0  0  0  0  0  0  0  0  0  0  0  0  # atno 17342 bound_to 10162
  140.4475  144.1901  150.5895 LP  0  0  0  0  0  0  0  0  0  0  0  0  # atno 17343 bound_to 10162
  155.9663  130.4365  150.5138 LP  0  0  0  0  0  0  0  0  0  0  0  0  # atno 17370 bound_to 10713
  157.3064  131.0655  151.2032 LP  0  0  0  0  0  0  0  0  0  0  0  0  # atno 17371 bound_to 10713
  140.4539  134.1554  155.7184 LP  0  0  0  0  0  0  0  0  0  0  0  0  # atno 17394 bound_to 11000
  141.1717  133.8596  157.1550 LP  0  0  0  0  0  0  0  0  0  0  0  0  # atno 17395 bound_to 11000

$$$$
