AV-unprocessed.smi:276|AV-procd|sdf|2074|dock3
  -GOLD-   2262021333D 1   1.00000     0.00000
 Structure written by MMmdl.
 57 61  0  0  0  0  0  0  0  0  1 V2000
  144.0560  132.6342  149.0622 C   0  0  0  0  0  0  0  0  0  0  0  0
  143.9050  131.6026  150.0212 O   0  0  0  0  0  0  0  0  0  0  0  0
  145.1343  131.2375  150.6281 C   0  0  2  0  0  0  0  0  0  0  0  0
  144.9993  130.2703  151.8113 C   0  0  0  0  0  0  0  0  0  0  0  0
  146.0802  131.0886  152.5457 C   0  0  1  0  0  0  0  0  0  0  0  0
  147.4235  130.5385  152.3112 N   0  0  0  0  0  0  0  0  0  0  0  0
  147.4841  129.1161  151.9899 C   0  0  0  0  0  0  0  0  0  0  0  0
  148.3417  130.8253  153.2596 C   0  0  0  0  0  0  0  0  0  0  0  0
  149.0591  129.7878  153.7577 N   0  0  0  0  0  0  0  0  0  0  0  0
  149.9891  130.0074  154.6918 C   0  0  0  0  0  0  0  0  0  0  0  0
  150.3459  131.1612  155.2604 N   0  0  0  0  0  0  0  0  0  0  0  0
  149.6118  132.2025  154.7738 C   0  0  0  0  0  0  0  0  0  0  0  0
  148.5960  132.1261  153.7804 C   0  0  0  0  0  0  0  0  0  0  0  0
  148.0685  133.3901  153.5440 N   0  0  0  0  0  0  0  0  0  0  0  0
  148.7337  134.1690  154.3523 C   0  0  0  0  0  0  0  0  0  0  0  0
  149.6731  133.5366  155.1347 N   0  0  0  0  0  0  0  0  0  0  0  0
  150.5396  134.1532  156.1227 C   0  0  0  0  0  0  0  0  0  0  0  0
  150.1232  135.5951  156.4876 C   0  0  1  0  0  0  0  0  0  0  0  0
  150.0208  135.6523  157.8963 O   0  0  0  0  0  0  0  0  0  0  0  0
  151.1000  136.6940  156.0091 C   0  0  2  0  0  0  0  0  0  0  0  0
  150.7531  138.0993  156.5123 C   0  0  0  0  0  0  0  0  0  0  0  0
  151.3688  138.9799  155.4505 C   0  0  0  0  0  0  0  0  0  0  0  0
  151.0658  138.1830  154.1889 C   0  0  0  0  0  0  0  0  0  0  0  0
  151.0884  136.8161  154.5858 O   0  0  0  0  0  0  0  0  0  0  0  0
  145.6679  132.2755  151.6319 C   0  0  0  0  0  0  0  0  0  0  0  0
  144.7249  133.3619  152.1823 C   0  0  0  0  0  0  0  0  0  0  0  0
  145.3616  134.3407  151.1918 C   0  0  0  0  0  0  0  0  0  0  0  0
  146.5878  133.4252  151.1790 C   0  0  0  0  0  0  0  0  0  0  0  0
  143.0836  132.8824  148.6371 H   0  0  0  0  0  0  0  0  0  0  0  0
  144.7103  132.3253  148.2462 H   0  0  0  0  0  0  0  0  0  0  0  0
  144.4651  133.5373  149.5164 H   0  0  0  0  0  0  0  0  0  0  0  0
  145.9013  130.9325  149.9128 H   0  0  0  0  0  0  0  0  0  0  0  0
  144.0247  130.3393  152.2977 H   0  0  0  0  0  0  0  0  0  0  0  0
  145.2434  129.2356  151.5724 H   0  0  0  0  0  0  0  0  0  0  0  0
  145.8388  131.2420  153.5977 H   0  0  0  0  0  0  0  0  0  0  0  0
  148.5023  128.7275  152.0509 H   0  0  0  0  0  0  0  0  0  0  0  0
  147.1328  128.9352  150.9748 H   0  0  0  0  0  0  0  0  0  0  0  0
  146.8601  128.5404  152.6747 H   0  0  0  0  0  0  0  0  0  0  0  0
  150.5241  129.1335  155.0328 H   0  0  0  0  0  0  0  0  0  0  0  0
  148.5475  135.2316  154.4075 H   0  0  0  0  0  0  0  0  0  0  0  0
  150.5338  133.5230  157.0131 H   0  0  0  0  0  0  0  0  0  0  0  0
  151.5610  134.1422  155.7393 H   0  0  0  0  0  0  0  0  0  0  0  0
  149.1320  135.7999  156.0822 H   0  0  0  0  0  0  0  0  0  0  0  0
  149.1814  136.0233  158.1210 H   0  0  0  0  0  0  0  0  0  0  0  0
  152.1197  136.4496  156.3117 H   0  0  0  0  0  0  0  0  0  0  0  0
  149.6720  138.2454  156.5311 H   0  0  0  0  0  0  0  0  0  0  0  0
  151.1413  138.3017  157.5109 H   0  0  0  0  0  0  0  0  0  0  0  0
  150.9511  139.9870  155.4305 H   0  0  0  0  0  0  0  0  0  0  0  0
  152.4464  139.0554  155.6018 H   0  0  0  0  0  0  0  0  0  0  0  0
  150.0668  138.4182  153.8196 H   0  0  0  0  0  0  0  0  0  0  0  0
  151.7797  138.3785  153.3885 H   0  0  0  0  0  0  0  0  0  0  0  0
  143.6597  133.1845  152.0319 H   0  0  0  0  0  0  0  0  0  0  0  0
  144.9415  133.6187  153.2207 H   0  0  0  0  0  0  0  0  0  0  0  0
  144.8447  134.3684  150.2311 H   0  0  0  0  0  0  0  0  0  0  0  0
  145.5408  135.3408  151.5869 H   0  0  0  0  0  0  0  0  0  0  0  0
  147.3164  133.7328  151.9294 H   0  0  0  0  0  0  0  0  0  0  0  0
  147.0484  133.2888  150.2003 H   0  0  0  0  0  0  0  0  0  0  0  0
  1  2  1  0  0  0  0
  1 29  1  0  0  0  0
  1 30  1  0  0  0  0
  1 31  1  0  0  0  0
  2  3  1  0  0  0  0
  3 25  1  0  0  0  0
  3  4  1  0  0  0  0
  3 32  1  0  0  0  0
  4  5  1  0  0  0  0
  4 33  1  0  0  0  0
  4 34  1  0  0  0  0
  5  6  1  0  0  0  0
  5 25  1  0  0  0  0
  5 35  1  0  0  0  0
  6  7  1  0  0  0  0
  6  8  1  0  0  0  0
  7 36  1  0  0  0  0
  7 37  1  0  0  0  0
  7 38  1  0  0  0  0
  8 13  1  0  0  0  0
  8  9  2  0  0  0  0
  9 10  1  0  0  0  0
 10 11  2  0  0  0  0
 10 39  1  0  0  0  0
 11 12  1  0  0  0  0
 12 16  1  0  0  0  0
 12 13  2  0  0  0  0
 13 14  1  0  0  0  0
 14 15  2  0  0  0  0
 15 16  1  0  0  0  0
 15 40  1  0  0  0  0
 16 17  1  0  0  0  0
 17 18  1  0  0  0  0
 17 41  1  0  0  0  0
 17 42  1  0  0  0  0
 18 19  1  0  0  0  0
 18 20  1  0  0  0  0
 18 43  1  0  0  0  0
 19 44  1  0  0  0  0
 20 24  1  0  0  0  0
 20 21  1  0  0  0  0
 20 45  1  0  0  0  0
 21 22  1  0  0  0  0
 21 46  1  0  0  0  0
 21 47  1  0  0  0  0
 22 23  1  0  0  0  0
 22 48  1  0  0  0  0
 22 49  1  0  0  0  0
 23 24  1  0  0  0  0
 23 50  1  0  0  0  0
 23 51  1  0  0  0  0
 25 28  1  0  0  0  0
 25 26  1  0  0  0  0
 26 27  1  0  0  0  0
 26 52  1  0  0  0  0
 26 53  1  0  0  0  0
 27 28  1  0  0  0  0
 27 54  1  0  0  0  0
 27 55  1  0  0  0  0
 28 56  1  0  0  0  0
 28 57  1  0  0  0  0
M  END
> <s_m_source_file>
AV-unprocessed.smi

> <i_m_source_file_index>
276

> <i_lp_mmshare_version>
43012

> <i_f3d_flags>
0

> <s_epik_input>
W0NIMl0xW0NIMl1bQ0gyXUMxMltDQEhdKE9bQ0gzXSlbQ0gyXVtDQEhdMk4oW0NIM10pYyhuW2NIXW4zKWMoYzM0KW5bY0hdbjRbQ0gyXVtDQEhdKFtPSF0pW0NAQEhdNVtDSDJdW0NIMl1bQ0gyXU81

> <s_epik_cmdline>
J2VwaWtfcHl0aG9uJywgJy1waCcsICc3LjAnLCAnLXRuJywgJzgnLCAnLW1hJywgJzIwMCcsICctbWV0YWxfYmluZGluZycsICctaW1hZScsICc8aW5maWxlLm1hZT4nLCAnLW9tYWUnLCAnPG91dGZpbGUubWFlPic=

> <r_lp_tautomer_probability>
1

> <r_epik_Ionization_Penalty>
0.00204117

> <r_epik_Ionization_Penalty_Charging>
0

> <r_epik_Ionization_Penalty_Neutral>
0.00204117

> <r_epik_State_Penalty>
0.00127401

> <r_epik_Charging_Adjusted_Penalty>
0.00127401

> <i_epik_Tot_Q>
0

> <i_epik_Tot_abs_Q>
0

> <r_epik_Metal_State_Penalty>
-0

> <b_epik_Metal_Only>
0

> <s_lp_Force_Field>
OPLS_2005

> <r_lp_Energy>
56.3497

> <b_lp_Chiralities_Consistent>
1

> <s_lp_Variant>
AV-unprocessed.smi:276-5

> <Gold.Version>
5.8.1

> <Gold.Id.Protein>
6NUR|6NUR_protein|mol2

> <Gold.PLP.Fitness>
45.5720

> <Gold.PLP.PLP>
-42.7642

> <Gold.PLP.part.hbond>
-3.0000

> <Gold.PLP.part.metal>
0.0000

> <Gold.PLP.part.buried>
-4.4606

> <Gold.PLP.part.nonpolar>
-39.1241

> <Gold.PLP.part.repulsive>
4.2444

> <Gold.PLP.ligand.clash>
1.7047

> <Gold.PLP.ligand.torsion>
2.1600

> <Gold.PLP.Chemscore.Hbond>
2.3268

> <Gold.PLP.Chemscore.CHOScore>
0.3869

> <Gold.PLP.Chemscore.Metal>
0.0000

> <Gold.Chemscore.Hbonds>
donor molecule, donor type, donor heavy atom, donor atom, acceptor molecule, acceptor atom, score
      P1  H  6896  6909       L1    19  0.79
      P1  H 10752 10765       L1    24  0.42
      P1  H 10785 10796       L1     2  0.64
      L1  C    15    40       P1  7948  0.24

> <Gold.PLP.Chemscore.Internal.Correction>
0.6914

> <Gold.Rescore>
     Score         DG    S(hbond)    S(metal)    S(lipo)     H(rot)  DE(clash)    DE(int)     intcor
      8.75     -16.32       1.62        0.00     105.87       2.72       2.93       4.64       ----

> <Gold.Chemscore.Fitness>
8.7517

> <Gold.Chemscore.DG>
-16.3225

> <Gold.Chemscore.ZeroCoef>
-5.4800

> <Gold.Chemscore.Hbond>
1.6204

> <Gold.Chemscore.Metal>
0.0000

> <Gold.Chemscore.Lipo>
105.8671

> <Gold.Chemscore.Internal_Hbond>
0.0000

> <Gold.Chemscore.DEClash>
2.9327

> <Gold.Chemscore.DEInternal>
4.6381

> <Gold.Chemscore.Rot>
2.7172

> <Gold.Chemscore.Internal.Correction>
   9.000000E+99

> <Gold.Chemscore.Hbonds>
donor molecule, donor type, donor heavy atom, donor atom, acceptor molecule, acceptor atom, score
      P1  H  6896  6909       L1    19  0.49
      P1  H 10752 10765       L1    24  0.08
      P1  H 10785 10796       L1     2  0.09

> <Gold.Chemscore.Hbond.Weighted>
-5.4121

> <Gold.Chemscore.Metal.Weighted>
-0.0000

> <Gold.Chemscore.Lipo.Weighted>
-12.3864

> <Gold.Chemscore.Internal_Hbond.Weighted>
0.0000

> <Gold.Chemscore.DEClash.Weighted>
2.9327

> <Gold.Chemscore.DEInternal.Weighted>
4.6381

> <Gold.Chemscore.Rot.Weighted>
6.9560

> <Gold.Chemscore.Internal.Correction.Weighted>
   9.000000E+99

> <Gold.Protein.RotatedTorsions>
[ 6907 6896 6895 6894 ] final   50.56 input  -60.11 | X-H torsion
[ 7974 7965 7964 7962 ] final -163.42 input  175.53 | X-H torsion
[ 8008 7997 7996 7995 ] final -147.08 input   59.86 | X-H torsion
[ 10167 10162 10161 10158 ] final   27.52 input  -65.29 | X-H torsion
[ 10718 10713 10712 10709 ] final   72.59 input   66.30 | X-H torsion
[ 10763 10752 10751 10750 ] final  152.38 input  -60.55 | X-H torsion
[ 11005 11000 10999 10996 ] final -144.83 input  -57.11 | X-H torsion

> <Gold.Protein.ActiveResidues>
 VAL166  LYS551  ARG553  GLY616  TRP617  ASP618  TYR619  PRO620  LYS621  CYS622 
 ASP623  PHE694  ASN695  SER759  ASP760  ASP761  ALA762  ILE779  LEU786  VAL792 
 PHE793  MET794  SER795  GLU796  ALA797  LYS798  CYS799  TRP800  GLU811  SER814 

> <Gold.Protein.RotatedAtoms>
  152.3031  134.7587  160.0353 H   0  0  0  0  0  0  0  0  0  0  0  0  # atno 6907 bound_to 6896
  151.8093  133.3374  159.3558 H   0  0  0  0  0  0  0  0  0  0  0  0  # atno 6908 bound_to 6896
  150.7283  134.5609  159.5886 H   0  0  0  0  0  0  0  0  0  0  0  0  # atno 6909 bound_to 6896
  144.7326  140.3110  143.6188 H   0  0  0  0  0  0  0  0  0  0  0  0  # atno 7974 bound_to 7965
  155.5698  140.0633  157.2809 H   0  0  0  0  0  0  0  0  0  0  0  0  # atno 8008 bound_to 7997
  154.4364  140.1871  156.0913 H   0  0  0  0  0  0  0  0  0  0  0  0  # atno 8009 bound_to 7997
  156.0385  140.3298  155.7221 H   0  0  0  0  0  0  0  0  0  0  0  0  # atno 8010 bound_to 7997
  140.4931  144.0435  150.6304 H   0  0  0  0  0  0  0  0  0  0  0  0  # atno 10167 bound_to 10162
  157.6508  130.9586  150.0950 H   0  0  0  0  0  0  0  0  0  0  0  0  # atno 10718 bound_to 10713
  154.1191  135.2834  155.3212 H   0  0  0  0  0  0  0  0  0  0  0  0  # atno 10763 bound_to 10752
  154.6435  135.5394  153.7821 H   0  0  0  0  0  0  0  0  0  0  0  0  # atno 10764 bound_to 10752
  153.0319  135.6492  154.1346 H   0  0  0  0  0  0  0  0  0  0  0  0  # atno 10765 bound_to 10752
  140.7984  134.2886  157.4988 H   0  0  0  0  0  0  0  0  0  0  0  0  # atno 11005 bound_to 11000
  145.7665  139.1842  143.2237 LP  0  0  0  0  0  0  0  0  0  0  0  0  # atno 17320 bound_to 7965
  146.0945  140.7617  142.9579 LP  0  0  0  0  0  0  0  0  0  0  0  0  # atno 17321 bound_to 7965
  140.3710  143.2855  152.0279 LP  0  0  0  0  0  0  0  0  0  0  0  0  # atno 17342 bound_to 10162
  139.4855  144.6230  151.7218 LP  0  0  0  0  0  0  0  0  0  0  0  0  # atno 17343 bound_to 10162
  156.1888  130.3653  149.8937 LP  0  0  0  0  0  0  0  0  0  0  0  0  # atno 17370 bound_to 10713
  156.6871  130.8881  151.3583 LP  0  0  0  0  0  0  0  0  0  0  0  0  # atno 17371 bound_to 10713
  139.8724  134.9415  156.3799 LP  0  0  0  0  0  0  0  0  0  0  0  0  # atno 17394 bound_to 11000
  140.9319  133.7573  156.0036 LP  0  0  0  0  0  0  0  0  0  0  0  0  # atno 17395 bound_to 11000

$$$$
