AV-unprocessed.smi:234|AV-procd|sdf|1790|dock7
  -GOLD-   2262020353D 1   1.00000     0.00000
 Structure written by MMmdl.
 59 62  0  0  0  0  0  0  0  0  1 V2000
  151.4446  141.6565  157.6127 C   0  0  0  0  0  0  0  0  0  0  0  0
  150.3608  141.6348  156.5327 C   0  0  0  0  0  0  0  0  0  0  0  0
  150.7151  140.6789  155.5479 O   0  0  0  0  0  0  0  0  0  0  0  0
  150.9102  139.3792  156.0837 C   0  0  1  0  0  0  0  0  0  0  0  0
  149.8415  138.9365  157.0867 C   0  0  0  0  0  0  0  0  0  0  0  0
  149.9890  137.5498  156.4551 C   0  0  1  0  0  0  0  0  0  0  0  0
  148.7317  136.8024  156.3702 N   0  0  0  0  0  0  0  0  0  0  0  0
  147.9836  136.6483  157.6111 C   0  0  0  0  0  0  0  0  0  0  0  0
  148.7980  135.6238  155.7079 C   0  0  0  0  0  0  0  0  0  0  0  0
  149.9853  135.1800  155.2160 N   0  0  0  0  0  0  0  0  0  0  0  0
  150.0450  134.0162  154.5618 C   0  0  0  0  0  0  0  0  0  0  0  0
  149.0594  133.1557  154.2964 N   0  0  0  0  0  0  0  0  0  0  0  0
  147.8692  133.5967  154.7965 C   0  0  0  0  0  0  0  0  0  0  0  0
  147.6540  134.8047  155.5158 C   0  0  0  0  0  0  0  0  0  0  0  0
  146.3158  134.9179  155.8704 N   0  0  0  0  0  0  0  0  0  0  0  0
  145.7684  133.8378  155.3829 C   0  0  0  0  0  0  0  0  0  0  0  0
  146.6272  132.9927  154.7158 N   0  0  0  0  0  0  0  0  0  0  0  0
  146.2883  131.7336  154.0726 C   0  0  0  0  0  0  0  0  0  0  0  0
  146.4839  131.7534  152.5377 C   0  0  2  0  0  0  0  0  0  0  0  0
  147.8730  131.6925  152.2536 O   0  0  0  0  0  0  0  0  0  0  0  0
  145.9153  132.9898  151.8564 C   0  0  0  0  0  0  0  0  0  0  0  0
  145.6645  132.4972  150.4369 C   0  0  0  0  0  0  0  0  0  0  0  0
  145.2138  131.1601  150.6011 O   0  0  0  0  0  0  0  0  0  0  0  0
  145.7220  130.6160  151.8185 C   0  0  1  0  0  0  0  0  0  0  0  0
  146.5090  129.3227  151.5514 C   0  0  0  0  0  0  0  0  0  0  0  0
  150.4390  138.2471  155.1375 C   0  0  0  0  0  0  0  0  0  0  0  0
  149.3456  138.6434  154.1279 C   0  0  0  0  0  0  0  0  0  0  0  0
  151.5482  137.5531  154.3474 C   0  0  0  0  0  0  0  0  0  0  0  0
  151.2082  142.3865  158.3869 H   0  0  0  0  0  0  0  0  0  0  0  0
  152.4138  141.9200  157.1885 H   0  0  0  0  0  0  0  0  0  0  0  0
  151.5411  140.6812  158.0904 H   0  0  0  0  0  0  0  0  0  0  0  0
  149.3980  141.3777  156.9762 H   0  0  0  0  0  0  0  0  0  0  0  0
  150.2650  142.6247  156.0847 H   0  0  0  0  0  0  0  0  0  0  0  0
  151.9268  139.2147  156.4497 H   0  0  0  0  0  0  0  0  0  0  0  0
  150.1454  138.9962  158.1319 H   0  0  0  0  0  0  0  0  0  0  0  0
  148.8693  139.4030  156.9186 H   0  0  0  0  0  0  0  0  0  0  0  0
  150.8019  136.9919  156.9253 H   0  0  0  0  0  0  0  0  0  0  0  0
  147.0509  136.1063  157.4489 H   0  0  0  0  0  0  0  0  0  0  0  0
  147.7284  137.6224  158.0282 H   0  0  0  0  0  0  0  0  0  0  0  0
  148.5726  136.1047  158.3506 H   0  0  0  0  0  0  0  0  0  0  0  0
  151.0219  133.7350  154.1973 H   0  0  0  0  0  0  0  0  0  0  0  0
  144.7141  133.6294  155.4924 H   0  0  0  0  0  0  0  0  0  0  0  0
  146.8920  130.9429  154.5202 H   0  0  0  0  0  0  0  0  0  0  0  0
  145.2514  131.5002  154.3182 H   0  0  0  0  0  0  0  0  0  0  0  0
  147.9917  131.2491  151.4275 H   0  0  0  0  0  0  0  0  0  0  0  0
  144.9637  133.2681  152.3115 H   0  0  0  0  0  0  0  0  0  0  0  0
  146.5736  133.8586  151.8985 H   0  0  0  0  0  0  0  0  0  0  0  0
  144.9333  133.1040  149.9027 H   0  0  0  0  0  0  0  0  0  0  0  0
  146.5907  132.4923  149.8605 H   0  0  0  0  0  0  0  0  0  0  0  0
  144.8407  130.3580  152.4073 H   0  0  0  0  0  0  0  0  0  0  0  0
  146.9078  128.9076  152.4773 H   0  0  0  0  0  0  0  0  0  0  0  0
  147.3420  129.4911  150.8683 H   0  0  0  0  0  0  0  0  0  0  0  0
  145.8656  128.5672  151.1001 H   0  0  0  0  0  0  0  0  0  0  0  0
  148.9870  137.7845  153.5604 H   0  0  0  0  0  0  0  0  0  0  0  0
  149.7174  139.3702  153.4051 H   0  0  0  0  0  0  0  0  0  0  0  0
  148.4783  139.0908  154.6134 H   0  0  0  0  0  0  0  0  0  0  0  0
  151.1700  136.6962  153.7891 H   0  0  0  0  0  0  0  0  0  0  0  0
  152.3373  137.1864  155.0042 H   0  0  0  0  0  0  0  0  0  0  0  0
  152.0113  138.2329  153.6316 H   0  0  0  0  0  0  0  0  0  0  0  0
  1  2  1  0  0  0  0
  1 29  1  0  0  0  0
  1 30  1  0  0  0  0
  1 31  1  0  0  0  0
  2  3  1  0  0  0  0
  2 32  1  0  0  0  0
  2 33  1  0  0  0  0
  3  4  1  0  0  0  0
  4 26  1  0  0  0  0
  4  5  1  0  0  0  0
  4 34  1  0  0  0  0
  5  6  1  0  0  0  0
  5 35  1  0  0  0  0
  5 36  1  0  0  0  0
  6  7  1  0  0  0  0
  6 26  1  0  0  0  0
  6 37  1  0  0  0  0
  7  8  1  0  0  0  0
  7  9  1  0  0  0  0
  8 38  1  0  0  0  0
  8 39  1  0  0  0  0
  8 40  1  0  0  0  0
  9 14  1  0  0  0  0
  9 10  2  0  0  0  0
 10 11  1  0  0  0  0
 11 12  2  0  0  0  0
 11 41  1  0  0  0  0
 12 13  1  0  0  0  0
 13 17  1  0  0  0  0
 13 14  2  0  0  0  0
 14 15  1  0  0  0  0
 15 16  2  0  0  0  0
 16 17  1  0  0  0  0
 16 42  1  0  0  0  0
 17 18  1  0  0  0  0
 18 19  1  0  0  0  0
 18 43  1  0  0  0  0
 18 44  1  0  0  0  0
 19 24  1  0  0  0  0
 19 20  1  0  0  0  0
 19 21  1  0  0  0  0
 20 45  1  0  0  0  0
 21 22  1  0  0  0  0
 21 46  1  0  0  0  0
 21 47  1  0  0  0  0
 22 23  1  0  0  0  0
 22 48  1  0  0  0  0
 22 49  1  0  0  0  0
 23 24  1  0  0  0  0
 24 25  1  0  0  0  0
 24 50  1  0  0  0  0
 25 51  1  0  0  0  0
 25 52  1  0  0  0  0
 25 53  1  0  0  0  0
 26 27  1  0  0  0  0
 26 28  1  0  0  0  0
 27 54  1  0  0  0  0
 27 55  1  0  0  0  0
 27 56  1  0  0  0  0
 28 57  1  0  0  0  0
 28 58  1  0  0  0  0
 28 59  1  0  0  0  0
M  END
> <s_m_source_file>
AV-unprocessed.smi

> <i_m_source_file_index>
234

> <i_lp_mmshare_version>
43012

> <i_f3d_flags>
0

> <s_epik_input>
W0NIM11bQ0gyXU9bQ0BASF0oQzEoW0NIM10pW0NIM10pW0NIMl1bQ0BIXTFOKFtDSDNdKWMobltjSF1uMiljKGMyMyluW2NIXW4zW0NIMl1bQ0BAXTQoW09IXSlbQ0gyXVtDSDJdT1tDQEhdNFtDSDNd

> <s_epik_cmdline>
J2VwaWtfcHl0aG9uJywgJy1waCcsICc3LjAnLCAnLXRuJywgJzgnLCAnLW1hJywgJzIwMCcsICctbWV0YWxfYmluZGluZycsICctaW1hZScsICc8aW5maWxlLm1hZT4nLCAnLW9tYWUnLCAnPG91dGZpbGUubWFlPic=

> <r_lp_tautomer_probability>
1

> <r_epik_Ionization_Penalty>
0.00349132

> <r_epik_Ionization_Penalty_Charging>
0

> <r_epik_Ionization_Penalty_Neutral>
0.00349132

> <r_epik_State_Penalty>
0.00242418

> <r_epik_Charging_Adjusted_Penalty>
0.00242418

> <i_epik_Tot_Q>
0

> <i_epik_Tot_abs_Q>
0

> <r_epik_Metal_State_Penalty>
-0

> <b_epik_Metal_Only>
0

> <s_lp_Force_Field>
OPLS_2005

> <r_lp_Energy>
47.69

> <b_lp_Chiralities_Consistent>
1

> <s_lp_Variant>
AV-unprocessed.smi:234-6

> <Gold.Version>
5.8.1

> <Gold.Id.Protein>
6NUR|6NUR_protein|mol2

> <Gold.PLP.Fitness>
37.8985

> <Gold.PLP.PLP>
-32.7195

> <Gold.PLP.part.hbond>
-1.8259

> <Gold.PLP.part.metal>
0.0000

> <Gold.PLP.part.buried>
-3.2602

> <Gold.PLP.part.nonpolar>
-28.4466

> <Gold.PLP.part.repulsive>
0.4055

> <Gold.PLP.ligand.clash>
0.0000

> <Gold.PLP.ligand.torsion>
0.8718

> <Gold.PLP.Chemscore.Hbond>
1.8406

> <Gold.PLP.Chemscore.CHOScore>
0.2072

> <Gold.PLP.Chemscore.Metal>
0.0000

> <Gold.Chemscore.Hbonds>
donor molecule, donor type, donor heavy atom, donor atom, acceptor molecule, acceptor atom, score
      L1  H    20    45       P1 10747  0.93
      P1  H  7989  7998       L1     3  0.40
      L1  C    16    42       P1 10957  0.21

> <Gold.PLP.Chemscore.Internal.Correction>
0.7794

> <Gold.Rescore>
     Score         DG    S(hbond)    S(metal)    S(lipo)     H(rot)  DE(clash)    DE(int)     intcor
     12.59     -13.55       1.19        0.00      92.30       2.62       0.23       0.74       ----

> <Gold.Chemscore.Fitness>
12.5868

> <Gold.Chemscore.DG>
-13.5501

> <Gold.Chemscore.ZeroCoef>
-5.4800

> <Gold.Chemscore.Hbond>
1.1924

> <Gold.Chemscore.Metal>
0.0000

> <Gold.Chemscore.Lipo>
92.3027

> <Gold.Chemscore.Internal_Hbond>
0.0000

> <Gold.Chemscore.DEClash>
0.2264

> <Gold.Chemscore.DEInternal>
0.7369

> <Gold.Chemscore.Rot>
2.6219

> <Gold.Chemscore.Internal.Correction>
   9.000000E+99

> <Gold.Chemscore.Hbonds>
donor molecule, donor type, donor heavy atom, donor atom, acceptor molecule, acceptor atom, score
      L1  H    20    45       P1 10747  0.87
      P1  H  7989  7998       L1     3  0.32

> <Gold.Chemscore.Hbond.Weighted>
-3.9828

> <Gold.Chemscore.Metal.Weighted>
-0.0000

> <Gold.Chemscore.Lipo.Weighted>
-10.7994

> <Gold.Chemscore.Internal_Hbond.Weighted>
0.0000

> <Gold.Chemscore.DEClash.Weighted>
0.2264

> <Gold.Chemscore.DEInternal.Weighted>
0.7369

> <Gold.Chemscore.Rot.Weighted>
6.7121

> <Gold.Chemscore.Internal.Correction.Weighted>
   9.000000E+99

> <Gold.Protein.RotatedTorsions>
[ 6907 6896 6895 6894 ] final   27.03 input  -60.11 | X-H torsion
[ 7974 7965 7964 7962 ] final -153.54 input  175.53 | X-H torsion
[ 8008 7997 7996 7995 ] final  -99.32 input   59.86 | X-H torsion
[ 10167 10162 10161 10158 ] final -112.98 input  -65.29 | X-H torsion
[ 10718 10713 10712 10709 ] final  -80.48 input   66.30 | X-H torsion
[ 10763 10752 10751 10750 ] final -150.21 input  -60.55 | X-H torsion
[ 11005 11000 10999 10996 ] final -110.74 input  -57.11 | X-H torsion

> <Gold.Protein.ActiveResidues>
 VAL166  LYS551  ARG553  GLY616  TRP617  ASP618  TYR619  PRO620  LYS621  CYS622 
 ASP623  PHE694  ASN695  SER759  ASP760  ASP761  ALA762  ILE779  LEU786  VAL792 
 PHE793  MET794  SER795  GLU796  ALA797  LYS798  CYS799  TRP800  GLU811  SER814 

> <Gold.Protein.RotatedAtoms>
  151.9963  134.9952  160.0563 H   0  0  0  0  0  0  0  0  0  0  0  0  # atno 6907 bound_to 6896
  152.1561  133.4548  159.4846 H   0  0  0  0  0  0  0  0  0  0  0  0  # atno 6908 bound_to 6896
  150.6881  134.2047  159.4379 H   0  0  0  0  0  0  0  0  0  0  0  0  # atno 6909 bound_to 6896
  144.7736  140.4512  143.5890 H   0  0  0  0  0  0  0  0  0  0  0  0  # atno 7974 bound_to 7965
  154.8132  140.0448  157.1358 H   0  0  0  0  0  0  0  0  0  0  0  0  # atno 8008 bound_to 7997
  154.9344  140.3044  155.5132 H   0  0  0  0  0  0  0  0  0  0  0  0  # atno 8009 bound_to 7997
  156.2973  140.2317  156.4407 H   0  0  0  0  0  0  0  0  0  0  0  0  # atno 8010 bound_to 7997
  140.1168  143.4479  152.1717 H   0  0  0  0  0  0  0  0  0  0  0  0  # atno 10167 bound_to 10162
  156.0069  130.4575  150.3807 H   0  0  0  0  0  0  0  0  0  0  0  0  # atno 10718 bound_to 10713
  154.8132  135.3290  154.7248 H   0  0  0  0  0  0  0  0  0  0  0  0  # atno 10763 bound_to 10752
  153.7893  135.6912  153.4879 H   0  0  0  0  0  0  0  0  0  0  0  0  # atno 10764 bound_to 10752
  153.1927  135.4545  155.0116 H   0  0  0  0  0  0  0  0  0  0  0  0  # atno 10765 bound_to 10752
  141.0774  133.9277  157.2360 H   0  0  0  0  0  0  0  0  0  0  0  0  # atno 11005 bound_to 11000
  145.6252  139.1529  143.3000 LP  0  0  0  0  0  0  0  0  0  0  0  0  # atno 17320 bound_to 7965
  146.1899  140.6360  142.9150 LP  0  0  0  0  0  0  0  0  0  0  0  0  # atno 17321 bound_to 7965
  139.5590  144.7392  151.4211 LP  0  0  0  0  0  0  0  0  0  0  0  0  # atno 17342 bound_to 10162
  140.6895  143.7896  150.7234 LP  0  0  0  0  0  0  0  0  0  0  0  0  # atno 17343 bound_to 10162
  157.1887  131.0410  151.2711 LP  0  0  0  0  0  0  0  0  0  0  0  0  # atno 17370 bound_to 10713
  157.4081  130.7370  149.6818 LP  0  0  0  0  0  0  0  0  0  0  0  0  # atno 17371 bound_to 10713
  139.9587  135.0159  156.9201 LP  0  0  0  0  0  0  0  0  0  0  0  0  # atno 17394 bound_to 11000
  140.5542  134.0597  155.7378 LP  0  0  0  0  0  0  0  0  0  0  0  0  # atno 17395 bound_to 11000

$$$$
