AV-unprocessed.smi:1889|AV-procd|sdf|7661|dock8
  -GOLD-   22720 9393D 1   1.00000     0.00000
 Structure written by MMmdl.
 35 36  0  0  0  0  0  0  0  0  2 V2000
  152.6167  143.2899  159.2332 C   0  0  0  0  0  0  0  0  0  0  0  0
  151.8720  142.5417  158.1221 C   0  0  0  0  0  0  0  0  0  0  0  0
  151.8334  141.0250  158.3570 C   0  0  0  0  0  0  0  0  0  0  0  0
  151.5738  140.2567  157.1043 C   0  0  0  0  0  0  0  0  0  0  0  0
  151.3507  140.8444  155.9258 N   0  0  0  0  0  0  0  0  0  0  0  0
  151.1097  139.9214  154.9185 N   0  0  0  0  0  0  0  0  0  0  0  0
  151.1450  138.6522  155.3488 C   0  0  0  0  0  0  0  0  0  0  0  0
  150.9296  137.6076  154.5323 N   0  5  0  0  0  0  0  0  0  0  0  0
  151.0649  136.3456  154.9998 C   0  0  0  0  0  0  0  0  0  0  0  0
  151.8116  135.9815  155.9111 O   0  0  0  0  0  0  0  0  0  0  0  0
  150.2807  135.4534  154.3775 N   0  0  0  0  0  0  0  0  0  0  0  0
  150.1956  134.0246  154.6681 C   0  0  0  0  0  0  0  0  0  0  0  0
  149.3296  133.2788  153.6351 C   0  0  2  0  0  0  0  0  0  0  0  0
  147.8676  133.6811  153.6023 C   0  0  0  0  0  0  0  0  0  0  0  0
  147.2240  132.4914  152.8960 C   0  0  0  0  0  0  0  0  0  0  0  0
  148.0326  131.3611  153.2124 O   0  0  0  0  0  0  0  0  0  0  0  0
  149.2064  131.7796  153.9020 C   0  0  0  0  0  0  0  0  0  0  0  0
  151.4692  138.5045  157.0759 S   0  0  0  0  0  0  0  0  0  0  0  0
  152.6279  144.3624  159.0385 H   0  0  0  0  0  0  0  0  0  0  0  0
  153.6514  142.9542  159.3085 H   0  0  0  0  0  0  0  0  0  0  0  0
  152.1407  143.1322  160.2014 H   0  0  0  0  0  0  0  0  0  0  0  0
  150.8537  142.9257  158.0517 H   0  0  0  0  0  0  0  0  0  0  0  0
  152.3490  142.7516  157.1641 H   0  0  0  0  0  0  0  0  0  0  0  0
  152.7777  140.6873  158.7861 H   0  0  0  0  0  0  0  0  0  0  0  0
  151.0561  140.7781  159.0807 H   0  0  0  0  0  0  0  0  0  0  0  0
  149.6881  135.8009  153.6376 H   0  0  0  0  0  0  0  0  0  0  0  0
  151.2095  133.6250  154.6453 H   0  0  0  0  0  0  0  0  0  0  0  0
  149.8259  133.8527  155.6804 H   0  0  0  0  0  0  0  0  0  0  0  0
  149.7526  133.4192  152.6387 H   0  0  0  0  0  0  0  0  0  0  0  0
  147.4753  133.7690  154.6167 H   0  0  0  0  0  0  0  0  0  0  0  0
  147.6917  134.6255  153.0862 H   0  0  0  0  0  0  0  0  0  0  0  0
  146.1889  132.3385  153.2022 H   0  0  0  0  0  0  0  0  0  0  0  0
  147.2395  132.6361  151.8150 H   0  0  0  0  0  0  0  0  0  0  0  0
  150.0827  131.2220  153.5705 H   0  0  0  0  0  0  0  0  0  0  0  0
  149.0666  131.5871  154.9667 H   0  0  0  0  0  0  0  0  0  0  0  0
  1  2  1  0  0  0  0
  1 19  1  0  0  0  0
  1 20  1  0  0  0  0
  1 21  1  0  0  0  0
  2  3  1  0  0  0  0
  2 22  1  0  0  0  0
  2 23  1  0  0  0  0
  3  4  1  0  0  0  0
  3 24  1  0  0  0  0
  3 25  1  0  0  0  0
  4 18  1  0  0  0  0
  4  5  2  0  0  0  0
  5  6  1  0  0  0  0
  6  7  2  0  0  0  0
  7  8  1  0  0  0  0
  7 18  1  0  0  0  0
  8  9  1  0  0  0  0
  9 10  2  0  0  0  0
  9 11  1  0  0  0  0
 11 12  1  0  0  0  0
 11 26  1  0  0  0  0
 12 13  1  0  0  0  0
 12 27  1  0  0  0  0
 12 28  1  0  0  0  0
 13 17  1  0  0  0  0
 13 14  1  0  0  0  0
 13 29  1  0  0  0  0
 14 15  1  0  0  0  0
 14 30  1  0  0  0  0
 14 31  1  0  0  0  0
 15 16  1  0  0  0  0
 15 32  1  0  0  0  0
 15 33  1  0  0  0  0
 16 17  1  0  0  0  0
 17 34  1  0  0  0  0
 17 35  1  0  0  0  0
M  CHG  1   8  -1
M  END
> <s_m_source_file>
AV-unprocessed.smi

> <i_m_source_file_index>
1889

> <i_lp_mmshare_version>
43012

> <i_f3d_flags>
0

> <s_epik_input>
W0NIM11bQ0gyXVtDSDJdYzFubmMoczEpW05IXUMoPU8pW05IXVtDSDJdW0NAQEhdMltDSDJdW0NIMl1PW0NIMl0y

> <s_epik_cmdline>
J2VwaWtfcHl0aG9uJywgJy1waCcsICc3LjAnLCAnLXRuJywgJzgnLCAnLW1hJywgJzIwMCcsICctbWV0YWxfYmluZGluZycsICctaW1hZScsICc8aW5maWxlLm1hZT4nLCAnLW9tYWUnLCAnPG91dGZpbGUubWFlPic=

> <r_lp_tautomer_probability>
1

> <r_epik_Ionization_Penalty>
4.29669

> <r_epik_Ionization_Penalty_Charging>
4.28522

> <r_epik_Ionization_Penalty_Neutral>
0.0114689

> <r_epik_State_Penalty>
4.28479

> <r_epik_Charging_Adjusted_Penalty>
8.57002

> <i_epik_Tot_Q>
-1

> <i_epik_Tot_abs_Q>
1

> <r_epik_Metal_State_Penalty>
0.72177

> <b_epik_Metal_Only>
1

> <s_lp_Force_Field>
OPLS_2005

> <r_lp_Energy>
11.5011

> <b_lp_Chiralities_Consistent>
1

> <s_lp_Variant>
AV-unprocessed.smi:1889-3

> <Gold.Version>
5.8.1

> <Gold.Id.Protein>
6NUR|6NUR_protein|mol2

> <Gold.PLP.Fitness>
37.8288

> <Gold.PLP.PLP>
-29.5685

> <Gold.PLP.part.hbond>
-4.0904

> <Gold.PLP.part.metal>
0.0000

> <Gold.PLP.part.buried>
-4.0770

> <Gold.PLP.part.nonpolar>
-22.2351

> <Gold.PLP.part.repulsive>
0.4584

> <Gold.PLP.ligand.clash>
0.0000

> <Gold.PLP.ligand.torsion>
0.3161

> <Gold.PLP.Chemscore.Hbond>
2.9500

> <Gold.PLP.Chemscore.CHOScore>
0.0000

> <Gold.PLP.Chemscore.Metal>
0.0000

> <Gold.Chemscore.Hbonds>
donor molecule, donor type, donor heavy atom, donor atom, acceptor molecule, acceptor atom, score
      L1  H    11    26       P1  7948  0.90
      P1  H  7989  7998       L1     6  1.00
      P1  H 10752 10765       L1    10  1.00

> <Gold.PLP.Chemscore.Internal.Correction>
0.0425

> <Gold.Rescore>
     Score         DG    S(hbond)    S(metal)    S(lipo)     H(rot)  DE(clash)    DE(int)     intcor
     15.12     -16.83       2.28        0.00      66.91       1.59       0.03       1.68       ----

> <Gold.Chemscore.Fitness>
15.1206

> <Gold.Chemscore.DG>
-16.8318

> <Gold.Chemscore.ZeroCoef>
-5.4800

> <Gold.Chemscore.Hbond>
2.2752

> <Gold.Chemscore.Metal>
0.0000

> <Gold.Chemscore.Lipo>
66.9108

> <Gold.Chemscore.Internal_Hbond>
0.0000

> <Gold.Chemscore.DEClash>
0.0284

> <Gold.Chemscore.DEInternal>
1.6828

> <Gold.Chemscore.Rot>
1.5922

> <Gold.Chemscore.Internal.Correction>
   9.000000E+99

> <Gold.Chemscore.Hbonds>
donor molecule, donor type, donor heavy atom, donor atom, acceptor molecule, acceptor atom, score
      L1  H    11    26       P1  7948  0.18
      P1  H  7989  7998       L1     6  0.26
      P1  H 10752 10765       L1    10  0.58

> <Gold.Chemscore.Hbond.Weighted>
-7.5993

> <Gold.Chemscore.Metal.Weighted>
-0.0000

> <Gold.Chemscore.Lipo.Weighted>
-7.8286

> <Gold.Chemscore.Internal_Hbond.Weighted>
0.0000

> <Gold.Chemscore.DEClash.Weighted>
0.0284

> <Gold.Chemscore.DEInternal.Weighted>
1.6828

> <Gold.Chemscore.Rot.Weighted>
4.0761

> <Gold.Chemscore.Internal.Correction.Weighted>
   9.000000E+99

> <Gold.Protein.RotatedTorsions>
[ 6907 6896 6895 6894 ] final   95.58 input  -60.11 | X-H torsion
[ 7974 7965 7964 7962 ] final  176.66 input  175.53 | X-H torsion
[ 8008 7997 7996 7995 ] final  137.19 input   59.86 | X-H torsion
[ 10167 10162 10161 10158 ] final  -76.34 input  -65.29 | X-H torsion
[ 10718 10713 10712 10709 ] final  133.20 input   66.30 | X-H torsion
[ 10763 10752 10751 10750 ] final -137.89 input  -60.55 | X-H torsion
[ 11005 11000 10999 10996 ] final  -43.29 input  -57.11 | X-H torsion

> <Gold.Protein.ActiveResidues>
 VAL166  LYS551  ARG553  GLY616  TRP617  ASP618  TYR619  PRO620  LYS621  CYS622 
 ASP623  PHE694  ASN695  SER759  ASP760  ASP761  ALA762  ILE779  LEU786  VAL792 
 PHE793  MET794  SER795  GLU796  ALA797  LYS798  CYS799  TRP800  GLU811  SER814 

> <Gold.Protein.RotatedAtoms>
  152.5442  134.1018  159.8320 H   0  0  0  0  0  0  0  0  0  0  0  0  # atno 6907 bound_to 6896
  151.1095  133.5176  159.2613 H   0  0  0  0  0  0  0  0  0  0  0  0  # atno 6908 bound_to 6896
  151.1900  135.0408  159.8883 H   0  0  0  0  0  0  0  0  0  0  0  0  # atno 6909 bound_to 6896
  144.7181  140.0130  143.6440 H   0  0  0  0  0  0  0  0  0  0  0  0  # atno 7974 bound_to 7965
  156.3003  140.2426  156.3869 H   0  0  0  0  0  0  0  0  0  0  0  0  # atno 8008 bound_to 7997
  154.8650  140.0418  157.1708 H   0  0  0  0  0  0  0  0  0  0  0  0  # atno 8009 bound_to 7997
  154.8856  140.2955  155.5404 H   0  0  0  0  0  0  0  0  0  0  0  0  # atno 8010 bound_to 7997
  140.4865  143.2390  151.7975 H   0  0  0  0  0  0  0  0  0  0  0  0  # atno 10167 bound_to 10162
  157.4796  131.1085  150.9699 H   0  0  0  0  0  0  0  0  0  0  0  0  # atno 10718 bound_to 10713
  154.8650  135.3628  154.5297 H   0  0  0  0  0  0  0  0  0  0  0  0  # atno 10763 bound_to 10752
  153.5923  135.7015  153.5423 H   0  0  0  0  0  0  0  0  0  0  0  0  # atno 10764 bound_to 10752
  153.3362  135.4110  155.1497 H   0  0  0  0  0  0  0  0  0  0  0  0  # atno 10765 bound_to 10752
  141.0373  133.6794  156.2712 H   0  0  0  0  0  0  0  0  0  0  0  0  # atno 11005 bound_to 11000
  146.0243  139.3278  143.0794 LP  0  0  0  0  0  0  0  0  0  0  0  0  # atno 17320 bound_to 7965
  145.8530  140.9518  143.0739 LP  0  0  0  0  0  0  0  0  0  0  0  0  # atno 17321 bound_to 7965
  139.4843  144.4705  151.9431 LP  0  0  0  0  0  0  0  0  0  0  0  0  # atno 17342 bound_to 10162
  140.3791  144.2759  150.5910 LP  0  0  0  0  0  0  0  0  0  0  0  0  # atno 17343 bound_to 10162
  157.0436  130.5759  149.5360 LP  0  0  0  0  0  0  0  0  0  0  0  0  # atno 17370 bound_to 10713
  156.0114  130.5206  150.8002 LP  0  0  0  0  0  0  0  0  0  0  0  0  # atno 17371 bound_to 10713
  140.6298  134.5276  157.5558 LP  0  0  0  0  0  0  0  0  0  0  0  0  # atno 17394 bound_to 11000
  139.9250  134.8073  156.1095 LP  0  0  0  0  0  0  0  0  0  0  0  0  # atno 17395 bound_to 11000

$$$$
