AV-unprocessed.smi:2171|AV-procd|sdf|8832|dock2
  -GOLD-   2272012 23D 1   1.00000     0.00000
 Structure written by MMmdl.
 39 41  0  0  0  0  0  0  0  0  2 V2000
  152.7150  139.8367  156.3260 O   0  0  0  0  0  0  0  0  0  0  0  0
  151.7421  139.7856  157.0792 C   0  0  0  0  0  0  0  0  0  0  0  0
  151.9153  139.4195  158.5566 C   0  0  0  0  0  0  0  0  0  0  0  0
  152.4305  140.5315  159.3373 N   0  0  0  0  0  0  0  0  0  0  0  0
  153.5959  140.5960  160.0730 C   0  0  0  0  0  0  0  0  0  0  0  0
  153.6575  141.8413  160.6293 C   0  0  0  0  0  0  0  0  0  0  0  0
  152.4689  142.4753  160.1708 C   0  0  0  0  0  0  0  0  0  0  0  0
  151.7376  141.6900  159.3964 N   0  0  0  0  0  0  0  0  0  0  0  0
  150.4872  140.0258  156.6690 N   0  0  0  0  0  0  0  0  0  0  0  0
  150.1127  140.3838  155.3034 C   0  0  2  0  0  0  0  0  0  0  0  0
  149.3737  141.7123  155.2067 C   0  0  0  0  0  0  0  0  0  0  0  0
  148.6997  141.6330  153.8327 C   0  0  0  0  0  0  0  0  0  0  0  0
  148.5035  140.1931  153.5319 N   0  3  2  0  0  0  0  0  0  0  0  0
  147.0961  139.8260  153.2190 C   0  0  0  0  0  0  0  0  0  0  0  0
  146.8876  138.3079  153.3216 C   0  0  0  0  0  0  0  0  0  0  0  0
  147.1543  137.7984  154.7508 C   0  0  0  0  0  0  0  0  0  0  0  0
  148.1027  138.7228  155.5386 C   0  0  0  0  0  0  0  0  0  0  0  0
  149.1476  139.3979  154.6160 C   0  0  2  0  0  0  0  0  0  0  0  0
  150.9618  139.1109  158.9879 H   0  0  0  0  0  0  0  0  0  0  0  0
  152.5955  138.5705  158.6393 H   0  0  0  0  0  0  0  0  0  0  0  0
  154.2762  139.7596  160.1384 H   0  0  0  0  0  0  0  0  0  0  0  0
  154.4333  142.2393  161.2664 H   0  0  0  0  0  0  0  0  0  0  0  0
  152.1187  143.4764  160.3750 H   0  0  0  0  0  0  0  0  0  0  0  0
  149.7430  139.9598  157.3486 H   0  0  0  0  0  0  0  0  0  0  0  0
  151.0195  140.4646  154.7000 H   0  0  0  0  0  0  0  0  0  0  0  0
  148.6139  141.7815  155.9868 H   0  0  0  0  0  0  0  0  0  0  0  0
  150.0340  142.5749  155.3029 H   0  0  0  0  0  0  0  0  0  0  0  0
  147.7732  142.2083  153.8075 H   0  0  0  0  0  0  0  0  0  0  0  0
  149.3585  142.0472  153.0688 H   0  0  0  0  0  0  0  0  0  0  0  0
  146.4136  140.3269  153.9079 H   0  0  0  0  0  0  0  0  0  0  0  0
  146.8511  140.1815  152.2176 H   0  0  0  0  0  0  0  0  0  0  0  0
  145.8778  138.0371  153.0117 H   0  0  0  0  0  0  0  0  0  0  0  0
  147.5636  137.8102  152.6248 H   0  0  0  0  0  0  0  0  0  0  0  0
  146.2154  137.7073  155.2981 H   0  0  0  0  0  0  0  0  0  0  0  0
  147.5709  136.7917  154.6967 H   0  0  0  0  0  0  0  0  0  0  0  0
  147.5184  139.4928  156.0442 H   0  0  0  0  0  0  0  0  0  0  0  0
  148.5856  138.1440  156.3259 H   0  0  0  0  0  0  0  0  0  0  0  0
  149.7319  138.6042  154.1478 H   0  0  0  0  0  0  0  0  0  0  0  0
  149.0422  140.0032  152.6988 H   0  0  0  0  0  0  0  0  0  0  0  0
  1  2  2  0  0  0  0
  2  3  1  0  0  0  0
  2  9  1  0  0  0  0
  3  4  1  0  0  0  0
  3 19  1  0  0  0  0
  3 20  1  0  0  0  0
  4  8  1  0  0  0  0
  4  5  1  0  0  0  0
  5  6  2  0  0  0  0
  5 21  1  0  0  0  0
  6  7  1  0  0  0  0
  6 22  1  0  0  0  0
  7  8  2  0  0  0  0
  7 23  1  0  0  0  0
  9 10  1  0  0  0  0
  9 24  1  0  0  0  0
 10 18  1  0  0  0  0
 10 11  1  0  0  0  0
 10 25  1  0  0  0  0
 11 12  1  0  0  0  0
 11 26  1  0  0  0  0
 11 27  1  0  0  0  0
 12 13  1  0  0  0  0
 12 28  1  0  0  0  0
 12 29  1  0  0  0  0
 13 18  1  0  0  0  0
 13 14  1  0  0  0  0
 13 39  1  0  0  0  0
 14 15  1  0  0  0  0
 14 30  1  0  0  0  0
 14 31  1  0  0  0  0
 15 16  1  0  0  0  0
 15 32  1  0  0  0  0
 15 33  1  0  0  0  0
 16 17  1  0  0  0  0
 16 34  1  0  0  0  0
 16 35  1  0  0  0  0
 17 18  1  0  0  0  0
 17 36  1  0  0  0  0
 17 37  1  0  0  0  0
 18 38  1  0  0  0  0
M  CHG  1  13   1
M  END
> <s_m_source_file>
AV-unprocessed.smi

> <i_m_source_file_index>
2171

> <i_lp_mmshare_version>
43012

> <i_f3d_flags>
0

> <s_epik_input>
bjFbY0hdW2NIXVtjSF1uMVtDSDJdQyg9TylbTkhdW0NASF0oW0NIMl1bQ0gyXTIpW0NAQEhdKE4yMylbQ0gyXVtDSDJdW0NIMl1bQ0gyXTM=

> <s_epik_cmdline>
J2VwaWtfcHl0aG9uJywgJy1waCcsICc3LjAnLCAnLXRuJywgJzgnLCAnLW1hJywgJzIwMCcsICctbWV0YWxfYmluZGluZycsICctaW1hZScsICc8aW5maWxlLm1hZT4nLCAnLW9tYWUnLCAnPG91dGZpbGUubWFlPic=

> <r_lp_tautomer_probability>
1

> <r_epik_Ionization_Penalty>
0.00204179

> <r_epik_Ionization_Penalty_Charging>
0.00203239

> <r_epik_Ionization_Penalty_Neutral>
9.40205e-06

> <r_epik_State_Penalty>
0.00138983

> <r_epik_Charging_Adjusted_Penalty>
0.00342221

> <i_epik_Tot_Q>
1

> <i_epik_Tot_abs_Q>
1

> <r_epik_Metal_State_Penalty>
-0

> <b_epik_Metal_Only>
0

> <s_lp_Force_Field>
OPLS_2005

> <r_lp_Energy>
41.0306

> <b_lp_Chiralities_Consistent>
1

> <s_lp_Variant>
AV-unprocessed.smi:2171-7

> <Gold.Version>
5.8.1

> <Gold.Id.Protein>
6NUR|6NUR_protein|mol2

> <Gold.PLP.Fitness>
35.6415

> <Gold.PLP.PLP>
-30.0920

> <Gold.PLP.part.hbond>
-2.0000

> <Gold.PLP.part.metal>
0.0000

> <Gold.PLP.part.buried>
1.2815

> <Gold.PLP.part.nonpolar>
-28.4826

> <Gold.PLP.part.repulsive>
0.1634

> <Gold.PLP.ligand.clash>
0.0000

> <Gold.PLP.ligand.torsion>
0.2278

> <Gold.PLP.Chemscore.Hbond>
2.0000

> <Gold.PLP.Chemscore.CHOScore>
0.0000

> <Gold.PLP.Chemscore.Metal>
0.0000

> <Gold.Chemscore.Hbonds>
donor molecule, donor type, donor heavy atom, donor atom, acceptor molecule, acceptor atom, score
      L1  H    13    39       P1  7957  1.00
      P1  H  7997  8010       L1     1  1.00

> <Gold.PLP.Chemscore.Internal.Correction>
0.0050

> <Gold.Rescore>
     Score         DG    S(hbond)    S(metal)    S(lipo)     H(rot)  DE(clash)    DE(int)     intcor
     16.31     -17.63       1.98        0.00      78.84       1.44       1.09       0.24       ----

> <Gold.Chemscore.Fitness>
16.3108

> <Gold.Chemscore.DG>
-17.6329

> <Gold.Chemscore.ZeroCoef>
-5.4800

> <Gold.Chemscore.Hbond>
1.9813

> <Gold.Chemscore.Metal>
0.0000

> <Gold.Chemscore.Lipo>
78.8403

> <Gold.Chemscore.Internal_Hbond>
0.0000

> <Gold.Chemscore.DEClash>
1.0867

> <Gold.Chemscore.DEInternal>
0.2354

> <Gold.Chemscore.Rot>
1.4410

> <Gold.Chemscore.Internal.Correction>
   9.000000E+99

> <Gold.Chemscore.Hbonds>
donor molecule, donor type, donor heavy atom, donor atom, acceptor molecule, acceptor atom, score
      L1  H    13    39       P1  7957  0.99
      P1  H  7997  8010       L1     1  0.99

> <Gold.Chemscore.Hbond.Weighted>
-6.6176

> <Gold.Chemscore.Metal.Weighted>
-0.0000

> <Gold.Chemscore.Lipo.Weighted>
-9.2243

> <Gold.Chemscore.Internal_Hbond.Weighted>
0.0000

> <Gold.Chemscore.DEClash.Weighted>
1.0867

> <Gold.Chemscore.DEInternal.Weighted>
0.2354

> <Gold.Chemscore.Rot.Weighted>
3.6889

> <Gold.Chemscore.Internal.Correction.Weighted>
   9.000000E+99

> <Gold.Protein.RotatedTorsions>
[ 6907 6896 6895 6894 ] final  -87.32 input  -60.11 | X-H torsion
[ 7974 7965 7964 7962 ] final   93.01 input  175.53 | X-H torsion
[ 8008 7997 7996 7995 ] final   88.43 input   59.86 | X-H torsion
[ 10167 10162 10161 10158 ] final   95.47 input  -65.29 | X-H torsion
[ 10718 10713 10712 10709 ] final   83.62 input   66.30 | X-H torsion
[ 10763 10752 10751 10750 ] final   53.80 input  -60.55 | X-H torsion
[ 11005 11000 10999 10996 ] final   88.18 input  -57.11 | X-H torsion

> <Gold.Protein.ActiveResidues>
 VAL166  LYS551  ARG553  GLY616  TRP617  ASP618  TYR619  PRO620  LYS621  CYS622 
 ASP623  PHE694  ASN695  SER759  ASP760  ASP761  ALA762  ILE779  LEU786  VAL792 
 PHE793  MET794  SER795  GLU796  ALA797  LYS798  CYS799  TRP800  GLU811  SER814 

> <Gold.Protein.RotatedAtoms>
  150.6866  134.2914  159.4668 H   0  0  0  0  0  0  0  0  0  0  0  0  # atno 6907 bound_to 6896
  152.0819  134.9463  160.0582 H   0  0  0  0  0  0  0  0  0  0  0  0  # atno 6908 bound_to 6896
  152.0812  133.4119  159.4539 H   0  0  0  0  0  0  0  0  0  0  0  0  # atno 6909 bound_to 6896
  145.4847  139.2277  143.2863 H   0  0  0  0  0  0  0  0  0  0  0  0  # atno 7974 bound_to 7965
  155.9877  140.3371  155.6723 H   0  0  0  0  0  0  0  0  0  0  0  0  # atno 8008 bound_to 7997
  155.6463  140.0700  157.2620 H   0  0  0  0  0  0  0  0  0  0  0  0  # atno 8009 bound_to 7997
  154.4210  140.1733  156.1614 H   0  0  0  0  0  0  0  0  0  0  0  0  # atno 8010 bound_to 7997
  139.7985  144.6823  150.9796 H   0  0  0  0  0  0  0  0  0  0  0  0  # atno 10167 bound_to 10162
  157.6882  131.0098  150.2550 H   0  0  0  0  0  0  0  0  0  0  0  0  # atno 10718 bound_to 10713
  152.9798  135.5766  154.4800 H   0  0  0  0  0  0  0  0  0  0  0  0  # atno 10763 bound_to 10752
  154.4351  135.2774  155.1888 H   0  0  0  0  0  0  0  0  0  0  0  0  # atno 10764 bound_to 10752
  154.3580  135.6195  153.5730 H   0  0  0  0  0  0  0  0  0  0  0  0  # atno 10765 bound_to 10752
  139.8902  134.8471  156.2965 H   0  0  0  0  0  0  0  0  0  0  0  0  # atno 11005 bound_to 11000
  146.2320  140.5636  142.8971 LP  0  0  0  0  0  0  0  0  0  0  0  0  # atno 17320 bound_to 7965
  144.7868  140.5953  143.6568 LP  0  0  0  0  0  0  0  0  0  0  0  0  # atno 17321 bound_to 7965
  140.7820  143.4306  151.0701 LP  0  0  0  0  0  0  0  0  0  0  0  0  # atno 17342 bound_to 10162
  139.7979  143.8126  152.3159 LP  0  0  0  0  0  0  0  0  0  0  0  0  # atno 17343 bound_to 10162
  156.3140  130.3776  149.7635 LP  0  0  0  0  0  0  0  0  0  0  0  0  # atno 17370 bound_to 10713
  156.5227  130.8222  151.3209 LP  0  0  0  0  0  0  0  0  0  0  0  0  # atno 17371 bound_to 10713
  140.9942  133.7190  156.0860 LP  0  0  0  0  0  0  0  0  0  0  0  0  # atno 17394 bound_to 11000
  140.7585  134.3966  157.5530 LP  0  0  0  0  0  0  0  0  0  0  0  0  # atno 17395 bound_to 11000

$$$$
