AV-unprocessed.smi:3172|AV-procd|sdf|12115|dock5
  -GOLD-   2272017553D 1   1.00000     0.00000
 Structure written by MMmdl.
 43 44  0  0  0  0  0  0  0  0  2 V2000
  146.4625  138.7916  152.3361 C   0  0  0  0  0  0  0  0  0  0  0  0
  147.5252  139.3359  153.2394 C   0  0  0  0  0  0  0  0  0  0  0  0
  148.5458  138.5226  153.7248 N   0  0  0  0  0  0  0  0  0  0  0  0
  149.2748  139.3403  154.4697 C   0  0  0  0  0  0  0  0  0  0  0  0
  148.8188  140.5995  154.5250 N   0  0  0  0  0  0  0  0  0  0  0  0
  149.3994  141.6938  155.2872 C   0  0  0  0  0  0  0  0  0  0  0  0
  148.9723  141.6551  156.7666 C   0  0  2  0  0  0  0  0  0  0  0  0
  147.4492  141.5273  156.9086 C   0  0  0  0  0  0  0  0  0  0  0  0
  149.4502  142.8685  157.4696 N   0  3  0  0  0  0  0  0  0  0  0  0
  150.8934  142.8949  157.7917 C   0  0  0  0  0  0  0  0  0  0  0  0
  151.1992  141.8715  158.9014 C   0  0  0  0  0  0  0  0  0  0  0  0
  152.6850  141.8944  159.2952 C   0  0  0  0  0  0  0  0  0  0  0  0
  153.1233  143.3026  159.7260 C   0  0  0  0  0  0  0  0  0  0  0  0
  152.8193  144.3362  158.6309 C   0  0  0  0  0  0  0  0  0  0  0  0
  151.3350  144.3079  158.2328 C   0  0  0  0  0  0  0  0  0  0  0  0
  147.6833  140.6201  153.7164 C   0  0  0  0  0  0  0  0  0  0  0  0
  146.8528  141.8406  153.4772 C   0  0  0  0  0  0  0  0  0  0  0  0
  146.6787  139.0234  151.2932 H   0  0  0  0  0  0  0  0  0  0  0  0
  145.4866  139.2152  152.5738 H   0  0  0  0  0  0  0  0  0  0  0  0
  146.3789  137.7080  152.4242 H   0  0  0  0  0  0  0  0  0  0  0  0
  150.1563  139.0105  155.0002 H   0  0  0  0  0  0  0  0  0  0  0  0
  150.4862  141.6453  155.2008 H   0  0  0  0  0  0  0  0  0  0  0  0
  149.0960  142.6338  154.8257 H   0  0  0  0  0  0  0  0  0  0  0  0
  149.4214  140.7721  157.2204 H   0  0  0  0  0  0  0  0  0  0  0  0
  147.0845  140.6265  156.4143 H   0  0  0  0  0  0  0  0  0  0  0  0
  146.9356  142.3806  156.4644 H   0  0  0  0  0  0  0  0  0  0  0  0
  147.1523  141.4681  157.9561 H   0  0  0  0  0  0  0  0  0  0  0  0
  149.2575  143.6722  156.8888 H   0  0  0  0  0  0  0  0  0  0  0  0
  151.4521  142.6025  156.9010 H   0  0  0  0  0  0  0  0  0  0  0  0
  150.5894  142.0842  159.7808 H   0  0  0  0  0  0  0  0  0  0  0  0
  150.9257  140.8686  158.5710 H   0  0  0  0  0  0  0  0  0  0  0  0
  152.8667  141.1857  160.1038 H   0  0  0  0  0  0  0  0  0  0  0  0
  153.2930  141.5638  158.4520 H   0  0  0  0  0  0  0  0  0  0  0  0
  152.6070  143.5812  160.6455 H   0  0  0  0  0  0  0  0  0  0  0  0
  154.1890  143.3072  159.9566 H   0  0  0  0  0  0  0  0  0  0  0  0
  153.0921  145.3338  158.9770 H   0  0  0  0  0  0  0  0  0  0  0  0
  153.4367  144.1336  157.7550 H   0  0  0  0  0  0  0  0  0  0  0  0
  151.1666  145.0338  157.4375 H   0  0  0  0  0  0  0  0  0  0  0  0
  150.7277  144.6368  159.0776 H   0  0  0  0  0  0  0  0  0  0  0  0
  146.2151  141.7131  152.6026 H   0  0  0  0  0  0  0  0  0  0  0  0
  147.4762  142.7171  153.3022 H   0  0  0  0  0  0  0  0  0  0  0  0
  146.2079  142.0451  154.3313 H   0  0  0  0  0  0  0  0  0  0  0  0
  148.9209  142.9598  158.3250 H   0  0  0  0  0  0  0  0  0  0  0  0
  1  2  1  0  0  0  0
  1 18  1  0  0  0  0
  1 19  1  0  0  0  0
  1 20  1  0  0  0  0
  2 16  2  0  0  0  0
  2  3  1  0  0  0  0
  3  4  2  0  0  0  0
  4  5  1  0  0  0  0
  4 21  1  0  0  0  0
  5  6  1  0  0  0  0
  5 16  1  0  0  0  0
  6  7  1  0  0  0  0
  6 22  1  0  0  0  0
  6 23  1  0  0  0  0
  7  8  1  0  0  0  0
  7  9  1  0  0  0  0
  7 24  1  0  0  0  0
  8 25  1  0  0  0  0
  8 26  1  0  0  0  0
  8 27  1  0  0  0  0
  9 10  1  0  0  0  0
  9 28  1  0  0  0  0
  9 43  1  0  0  0  0
 10 15  1  0  0  0  0
 10 11  1  0  0  0  0
 10 29  1  0  0  0  0
 11 12  1  0  0  0  0
 11 30  1  0  0  0  0
 11 31  1  0  0  0  0
 12 13  1  0  0  0  0
 12 32  1  0  0  0  0
 12 33  1  0  0  0  0
 13 14  1  0  0  0  0
 13 34  1  0  0  0  0
 13 35  1  0  0  0  0
 14 15  1  0  0  0  0
 14 36  1  0  0  0  0
 14 37  1  0  0  0  0
 15 38  1  0  0  0  0
 15 39  1  0  0  0  0
 16 17  1  0  0  0  0
 17 40  1  0  0  0  0
 17 41  1  0  0  0  0
 17 42  1  0  0  0  0
M  CHG  1   9   1
M  END
> <s_m_source_file>
AV-unprocessed.smi

> <i_m_source_file_index>
3172

> <i_lp_mmshare_version>
43012

> <i_f3d_flags>
0

> <s_epik_input>
W0NIM11jMW5bY0hdbihjMVtDSDNdKVtDSDJdW0NASF0oW0NIM10pW05IXVtDSF0yW0NIMl1bQ0gyXVtDSDJdW0NIMl1bQ0gyXTI=

> <s_epik_cmdline>
J2VwaWtfcHl0aG9uJywgJy1waCcsICc3LjAnLCAnLXRuJywgJzgnLCAnLW1hJywgJzIwMCcsICctbWV0YWxfYmluZGluZycsICctaW1hZScsICc8aW5maWxlLm1hZT4nLCAnLW9tYWUnLCAnPG91dGZpbGUubWFlPic=

> <r_lp_tautomer_probability>
1

> <r_epik_Ionization_Penalty>
0.328572

> <r_epik_Ionization_Penalty_Charging>
0.328572

> <r_epik_Ionization_Penalty_Neutral>
3.58496e-13

> <r_epik_State_Penalty>
0.596179

> <r_epik_Charging_Adjusted_Penalty>
0.924751

> <i_epik_Tot_Q>
1

> <i_epik_Tot_abs_Q>
1

> <r_epik_Metal_State_Penalty>
0.00102252

> <b_epik_Metal_Only>
0

> <s_lp_Force_Field>
OPLS_2005

> <r_lp_Energy>
15.8324

> <b_lp_Chiralities_Consistent>
1

> <s_lp_Variant>
AV-unprocessed.smi:3172-3

> <Gold.Version>
5.8.1

> <Gold.Id.Protein>
6NUR|6NUR_protein|mol2

> <Gold.PLP.Fitness>
42.2980

> <Gold.PLP.PLP>
-37.3710

> <Gold.PLP.part.hbond>
-1.0000

> <Gold.PLP.part.metal>
0.0000

> <Gold.PLP.part.buried>
-2.1405

> <Gold.PLP.part.nonpolar>
-36.4148

> <Gold.PLP.part.repulsive>
1.3989

> <Gold.PLP.ligand.clash>
0.0000

> <Gold.PLP.ligand.torsion>
0.5521

> <Gold.PLP.Chemscore.Hbond>
2.0000

> <Gold.PLP.Chemscore.CHOScore>
0.0000

> <Gold.PLP.Chemscore.Metal>
0.0000

> <Gold.Chemscore.Hbonds>
donor molecule, donor type, donor heavy atom, donor atom, acceptor molecule, acceptor atom, score
      L1  H     9    28       P1  8028  2.00

> <Gold.PLP.Chemscore.Internal.Correction>
0.0311

> <Gold.Rescore>
     Score         DG    S(hbond)    S(metal)    S(lipo)     H(rot)  DE(clash)    DE(int)     intcor
     17.12     -17.85       0.96        0.00     111.14       1.50       0.24       0.49       ----

> <Gold.Chemscore.Fitness>
17.1226

> <Gold.Chemscore.DG>
-17.8524

> <Gold.Chemscore.ZeroCoef>
-5.4800

> <Gold.Chemscore.Hbond>
0.9605

> <Gold.Chemscore.Metal>
0.0000

> <Gold.Chemscore.Lipo>
111.1445

> <Gold.Chemscore.Internal_Hbond>
0.0000

> <Gold.Chemscore.DEClash>
0.2434

> <Gold.Chemscore.DEInternal>
0.4864

> <Gold.Chemscore.Rot>
1.4999

> <Gold.Chemscore.Internal.Correction>
   9.000000E+99

> <Gold.Chemscore.Hbonds>
donor molecule, donor type, donor heavy atom, donor atom, acceptor molecule, acceptor atom, score
      L1  H     9    28       P1  8028  0.82

> <Gold.Chemscore.Hbond.Weighted>
-3.2082

> <Gold.Chemscore.Metal.Weighted>
-0.0000

> <Gold.Chemscore.Lipo.Weighted>
-13.0039

> <Gold.Chemscore.Internal_Hbond.Weighted>
0.0000

> <Gold.Chemscore.DEClash.Weighted>
0.2434

> <Gold.Chemscore.DEInternal.Weighted>
0.4864

> <Gold.Chemscore.Rot.Weighted>
3.8397

> <Gold.Chemscore.Internal.Correction.Weighted>
   9.000000E+99

> <Gold.Protein.RotatedTorsions>
[ 6907 6896 6895 6894 ] final   67.21 input  -60.11 | X-H torsion
[ 7974 7965 7964 7962 ] final  -43.50 input  175.53 | X-H torsion
[ 8008 7997 7996 7995 ] final   79.71 input   59.86 | X-H torsion
[ 10167 10162 10161 10158 ] final   33.93 input  -65.29 | X-H torsion
[ 10718 10713 10712 10709 ] final -126.28 input   66.30 | X-H torsion
[ 10763 10752 10751 10750 ] final  147.88 input  -60.55 | X-H torsion
[ 11005 11000 10999 10996 ] final -142.13 input  -57.11 | X-H torsion

> <Gold.Protein.ActiveResidues>
 VAL166  LYS551  ARG553  GLY616  TRP617  ASP618  TYR619  PRO620  LYS621  CYS622 
 ASP623  PHE694  ASN695  SER759  ASP760  ASP761  ALA762  ILE779  LEU786  VAL792 
 PHE793  MET794  SER795  GLU796  ALA797  LYS798  CYS799  TRP800  GLU811  SER814 

> <Gold.Protein.RotatedAtoms>
  152.4536  134.5340  159.9819 H   0  0  0  0  0  0  0  0  0  0  0  0  # atno 6907 bound_to 6896
  151.5406  133.3427  159.2942 H   0  0  0  0  0  0  0  0  0  0  0  0  # atno 6908 bound_to 6896
  150.8473  134.7817  159.7043 H   0  0  0  0  0  0  0  0  0  0  0  0  # atno 6909 bound_to 6896
  146.0013  140.7071  142.9269 H   0  0  0  0  0  0  0  0  0  0  0  0  # atno 7974 bound_to 7965
  155.8735  140.3448  155.5838 H   0  0  0  0  0  0  0  0  0  0  0  0  # atno 8008 bound_to 7997
  155.7800  140.0857  157.2083 H   0  0  0  0  0  0  0  0  0  0  0  0  # atno 8009 bound_to 7997
  154.4019  140.1502  156.3029 H   0  0  0  0  0  0  0  0  0  0  0  0  # atno 8010 bound_to 7997
  140.4362  144.1254  150.6166 H   0  0  0  0  0  0  0  0  0  0  0  0  # atno 10167 bound_to 10162
  156.1751  130.6694  151.0231 H   0  0  0  0  0  0  0  0  0  0  0  0  # atno 10718 bound_to 10713
  154.0456  135.2886  155.3348 H   0  0  0  0  0  0  0  0  0  0  0  0  # atno 10763 bound_to 10752
  154.6902  135.5229  153.8384 H   0  0  0  0  0  0  0  0  0  0  0  0  # atno 10764 bound_to 10752
  153.0582  135.6603  154.0656 H   0  0  0  0  0  0  0  0  0  0  0  0  # atno 10765 bound_to 10752
  140.8255  134.2579  157.4881 H   0  0  0  0  0  0  0  0  0  0  0  0  # atno 11005 bound_to 11000
  144.6920  140.3238  143.7228 LP  0  0  0  0  0  0  0  0  0  0  0  0  # atno 17320 bound_to 7965
  145.7483  139.1785  143.2336 LP  0  0  0  0  0  0  0  0  0  0  0  0  # atno 17321 bound_to 7965
  140.4371  143.2542  151.9521 LP  0  0  0  0  0  0  0  0  0  0  0  0  # atno 17342 bound_to 10162
  139.4787  144.5689  151.8119 LP  0  0  0  0  0  0  0  0  0  0  0  0  # atno 17343 bound_to 10162
  157.6830  131.0833  150.7319 LP  0  0  0  0  0  0  0  0  0  0  0  0  # atno 17370 bound_to 10713
  156.7377  130.4729  149.5484 LP  0  0  0  0  0  0  0  0  0  0  0  0  # atno 17371 bound_to 10713
  139.8706  134.9558  156.4219 LP  0  0  0  0  0  0  0  0  0  0  0  0  # atno 17394 bound_to 11000
  140.9053  133.7750  155.9728 LP  0  0  0  0  0  0  0  0  0  0  0  0  # atno 17395 bound_to 11000

$$$$
