AV-unprocessed.smi:1433|AV-procd|sdf|5840|dock3
  -GOLD-   22720 5503D 1   1.00000     0.00000
 Structure written by MMmdl.
 44 45  0  0  0  0  0  0  0  0  1 V2000
  153.6286  142.1195  161.5759 C   0  0  0  0  0  0  0  0  0  0  0  0
  153.0562  142.4726  160.1991 C   0  0  1  0  0  0  0  0  0  0  0  0
  152.0224  141.4374  159.7201 C   0  0  0  0  0  0  0  0  0  0  0  0
  151.4006  141.8004  158.4432 N   0  0  0  0  0  0  0  0  0  0  0  0
  150.4160  140.7961  157.9759 C   0  0  1  0  0  0  0  0  0  0  0  0
  150.0675  140.9555  156.4725 C   0  0  0  0  0  0  0  0  0  0  0  0
  150.8613  139.3299  158.2339 C   0  0  0  0  0  0  0  0  0  0  0  0
  149.7286  138.4474  158.4852 N   0  0  0  0  0  0  0  0  0  0  0  0
  149.6970  137.4750  159.4080 C   0  0  0  0  0  0  0  0  0  0  0  0
  150.6172  137.2545  160.1947 O   0  0  0  0  0  0  0  0  0  0  0  0
  148.4318  136.6156  159.4467 C   0  0  0  0  0  0  0  0  0  0  0  0
  148.0151  136.3548  160.8140 N   0  0  0  0  0  0  0  0  0  0  0  0
  147.8000  135.1373  161.4259 C   0  0  0  0  0  0  0  0  0  0  0  0
  147.4045  135.3909  162.7080 C   0  0  0  0  0  0  0  0  0  0  0  0
  147.4082  136.8115  162.7885 C   0  0  0  0  0  0  0  0  0  0  0  0
  147.7734  137.3861  161.6537 N   0  0  0  0  0  0  0  0  0  0  0  0
  150.8113  143.1362  158.5924 C   0  0  0  0  0  0  0  0  0  0  0  0
  151.8051  144.1994  159.1005 C   0  0  2  0  0  0  0  0  0  0  0  0
  152.8245  144.6399  158.0357 C   0  0  0  0  0  0  0  0  0  0  0  0
  152.4415  143.7527  160.2950 O   0  0  0  0  0  0  0  0  0  0  0  0
  154.1251  141.1491  161.5582 H   0  0  0  0  0  0  0  0  0  0  0  0
  152.8435  142.0801  162.3314 H   0  0  0  0  0  0  0  0  0  0  0  0
  154.3611  142.8614  161.8950 H   0  0  0  0  0  0  0  0  0  0  0  0
  153.8819  142.5175  159.4884 H   0  0  0  0  0  0  0  0  0  0  0  0
  152.5492  140.4892  159.6355 H   0  0  0  0  0  0  0  0  0  0  0  0
  151.2518  141.3065  160.4816 H   0  0  0  0  0  0  0  0  0  0  0  0
  149.4910  140.9486  158.5344 H   0  0  0  0  0  0  0  0  0  0  0  0
  149.3868  140.1839  156.1136 H   0  0  0  0  0  0  0  0  0  0  0  0
  150.9647  140.9111  155.8540 H   0  0  0  0  0  0  0  0  0  0  0  0
  149.5595  141.8955  156.2628 H   0  0  0  0  0  0  0  0  0  0  0  0
  151.4419  138.9665  157.3837 H   0  0  0  0  0  0  0  0  0  0  0  0
  151.4949  139.2474  159.1153 H   0  0  0  0  0  0  0  0  0  0  0  0
  148.9237  138.5552  157.8845 H   0  0  0  0  0  0  0  0  0  0  0  0
  147.6187  137.1209  158.9237 H   0  0  0  0  0  0  0  0  0  0  0  0
  148.6091  135.6708  158.9302 H   0  0  0  0  0  0  0  0  0  0  0  0
  147.9416  134.2035  160.9015 H   0  0  0  0  0  0  0  0  0  0  0  0
  147.1507  134.6712  163.4718 H   0  0  0  0  0  0  0  0  0  0  0  0
  147.1570  137.4380  163.6317 H   0  0  0  0  0  0  0  0  0  0  0  0
  150.4136  143.4943  157.6445 H   0  0  0  0  0  0  0  0  0  0  0  0
  149.9683  143.0831  159.2832 H   0  0  0  0  0  0  0  0  0  0  0  0
  151.2329  145.0859  159.3751 H   0  0  0  0  0  0  0  0  0  0  0  0
  152.3203  145.0937  157.1823 H   0  0  0  0  0  0  0  0  0  0  0  0
  153.4117  143.8032  157.6575 H   0  0  0  0  0  0  0  0  0  0  0  0
  153.5160  145.3785  158.4413 H   0  0  0  0  0  0  0  0  0  0  0  0
  1  2  1  0  0  0  0
  1 21  1  0  0  0  0
  1 22  1  0  0  0  0
  1 23  1  0  0  0  0
  2 20  1  0  0  0  0
  2  3  1  0  0  0  0
  2 24  1  0  0  0  0
  3  4  1  0  0  0  0
  3 25  1  0  0  0  0
  3 26  1  0  0  0  0
  4  5  1  0  0  0  0
  4 17  1  0  0  0  0
  5  6  1  0  0  0  0
  5  7  1  0  0  0  0
  5 27  1  0  0  0  0
  6 28  1  0  0  0  0
  6 29  1  0  0  0  0
  6 30  1  0  0  0  0
  7  8  1  0  0  0  0
  7 31  1  0  0  0  0
  7 32  1  0  0  0  0
  8  9  1  0  0  0  0
  8 33  1  0  0  0  0
  9 10  2  0  0  0  0
  9 11  1  0  0  0  0
 11 12  1  0  0  0  0
 11 34  1  0  0  0  0
 11 35  1  0  0  0  0
 12 16  1  0  0  0  0
 12 13  1  0  0  0  0
 13 14  2  0  0  0  0
 13 36  1  0  0  0  0
 14 15  1  0  0  0  0
 14 37  1  0  0  0  0
 15 16  2  0  0  0  0
 15 38  1  0  0  0  0
 17 18  1  0  0  0  0
 17 39  1  0  0  0  0
 17 40  1  0  0  0  0
 18 19  1  0  0  0  0
 18 20  1  0  0  0  0
 18 41  1  0  0  0  0
 19 42  1  0  0  0  0
 19 43  1  0  0  0  0
 19 44  1  0  0  0  0
M  END
> <s_m_source_file>
AV-unprocessed.smi

> <i_m_source_file_index>
1433

> <i_lp_mmshare_version>
43012

> <i_f3d_flags>
0

> <s_epik_input>
W0NIM11bQ0BASF0xW0NIMl1OKFtDSDJdW0NASF0oTzEpW0NIM10pW0NASF0oW0NIM10pW0NIMl1bTkhdQyg9TylbQ0gyXW4yW2NIXVtjSF1bY0hdbjI=

> <s_epik_cmdline>
J2VwaWtfcHl0aG9uJywgJy1waCcsICc3LjAnLCAnLXRuJywgJzgnLCAnLW1hJywgJzIwMCcsICctbWV0YWxfYmluZGluZycsICctaW1hZScsICc8aW5maWxlLm1hZT4nLCAnLW9tYWUnLCAnPG91dGZpbGUubWFlPic=

> <r_lp_tautomer_probability>
1

> <r_epik_Ionization_Penalty>
0.196927

> <r_epik_Ionization_Penalty_Charging>
0

> <r_epik_Ionization_Penalty_Neutral>
0.196927

> <r_epik_State_Penalty>
0.186684

> <r_epik_Charging_Adjusted_Penalty>
0.186684

> <i_epik_Tot_Q>
0

> <i_epik_Tot_abs_Q>
0

> <r_epik_Metal_State_Penalty>
0.186682

> <b_epik_Metal_Only>
0

> <s_lp_Force_Field>
OPLS_2005

> <r_lp_Energy>
30.3055

> <b_lp_Chiralities_Consistent>
1

> <s_lp_Variant>
AV-unprocessed.smi:1433-6

> <Gold.Version>
5.8.1

> <Gold.Id.Protein>
6NUR|6NUR_protein|mol2

> <Gold.PLP.Fitness>
50.9349

> <Gold.PLP.PLP>
-44.9751

> <Gold.PLP.part.hbond>
-3.1592

> <Gold.PLP.part.metal>
0.0000

> <Gold.PLP.part.buried>
-6.9044

> <Gold.PLP.part.nonpolar>
-35.6706

> <Gold.PLP.part.repulsive>
0.1714

> <Gold.PLP.ligand.clash>
0.0000

> <Gold.PLP.ligand.torsion>
1.0484

> <Gold.PLP.Chemscore.Hbond>
2.6690

> <Gold.PLP.Chemscore.CHOScore>
0.0000

> <Gold.PLP.Chemscore.Metal>
0.0000

> <Gold.Chemscore.Hbonds>
donor molecule, donor type, donor heavy atom, donor atom, acceptor molecule, acceptor atom, score
      P1  H  6896  6908       L1    10  0.49
      P1  H  6931  6943       L1    16  0.94
      P1  H  6934  6947       L1    16  0.64

> <Gold.PLP.Chemscore.Internal.Correction>
0.0496

> <Gold.Rescore>
     Score         DG    S(hbond)    S(metal)    S(lipo)     H(rot)  DE(clash)    DE(int)     intcor
     18.06     -19.09       1.77        0.00     105.12       1.80       0.06       0.97       ----

> <Gold.Chemscore.Fitness>
18.0590

> <Gold.Chemscore.DG>
-19.0898

> <Gold.Chemscore.ZeroCoef>
-5.4800

> <Gold.Chemscore.Hbond>
1.7749

> <Gold.Chemscore.Metal>
0.0000

> <Gold.Chemscore.Lipo>
105.1223

> <Gold.Chemscore.Internal_Hbond>
0.0000

> <Gold.Chemscore.DEClash>
0.0576

> <Gold.Chemscore.DEInternal>
0.9732

> <Gold.Chemscore.Rot>
1.8038

> <Gold.Chemscore.Internal.Correction>
   9.000000E+99

> <Gold.Chemscore.Hbonds>
donor molecule, donor type, donor heavy atom, donor atom, acceptor molecule, acceptor atom, score
      P1  H  6896  6908       L1    10  0.26
      P1  H  6931  6943       L1    16  0.51
      P1  H  6934  6947       L1    16  0.62

> <Gold.Chemscore.Hbond.Weighted>
-5.9283

> <Gold.Chemscore.Metal.Weighted>
-0.0000

> <Gold.Chemscore.Lipo.Weighted>
-12.2993

> <Gold.Chemscore.Internal_Hbond.Weighted>
0.0000

> <Gold.Chemscore.DEClash.Weighted>
0.0576

> <Gold.Chemscore.DEInternal.Weighted>
0.9732

> <Gold.Chemscore.Rot.Weighted>
4.6178

> <Gold.Chemscore.Internal.Correction.Weighted>
   9.000000E+99

> <Gold.Protein.RotatedTorsions>
[ 6907 6896 6895 6894 ] final -143.44 input  -60.11 | X-H torsion
[ 7974 7965 7964 7962 ] final   46.93 input  175.53 | X-H torsion
[ 8008 7997 7996 7995 ] final -106.36 input   59.86 | X-H torsion
[ 10167 10162 10161 10158 ] final   -3.04 input  -65.29 | X-H torsion
[ 10718 10713 10712 10709 ] final  163.88 input   66.30 | X-H torsion
[ 10763 10752 10751 10750 ] final -156.07 input  -60.55 | X-H torsion
[ 11005 11000 10999 10996 ] final   -2.94 input  -57.11 | X-H torsion

> <Gold.Protein.ActiveResidues>
 VAL166  LYS551  ARG553  GLY616  TRP617  ASP618  TYR619  PRO620  LYS621  CYS622 
 ASP623  PHE694  ASN695  SER759  ASP760  ASP761  ALA762  ILE779  LEU786  VAL792 
 PHE793  MET794  SER795  GLU796  ALA797  LYS798  CYS799  TRP800  GLU811  SER814 

> <Gold.Protein.RotatedAtoms>
  151.1005  133.5247  159.2610 H   0  0  0  0  0  0  0  0  0  0  0  0  # atno 6907 bound_to 6896
  151.2080  135.0469  159.8909 H   0  0  0  0  0  0  0  0  0  0  0  0  # atno 6908 bound_to 6896
  152.5442  134.0824  159.8295 H   0  0  0  0  0  0  0  0  0  0  0  0  # atno 6909 bound_to 6896
  146.0345  139.4803  142.9817 H   0  0  0  0  0  0  0  0  0  0  0  0  # atno 7974 bound_to 7965
  154.9134  140.0409  157.1959 H   0  0  0  0  0  0  0  0  0  0  0  0  # atno 8008 bound_to 7997
  154.8325  140.2901  155.5691 H   0  0  0  0  0  0  0  0  0  0  0  0  # atno 8009 bound_to 7997
  156.2987  140.2498  156.3253 H   0  0  0  0  0  0  0  0  0  0  0  0  # atno 8010 bound_to 7997
  140.6874  143.6587  150.8286 H   0  0  0  0  0  0  0  0  0  0  0  0  # atno 10167 bound_to 10162
  157.1023  131.0446  151.2493 H   0  0  0  0  0  0  0  0  0  0  0  0  # atno 10718 bound_to 10713
  154.7740  135.3154  154.8131 H   0  0  0  0  0  0  0  0  0  0  0  0  # atno 10763 bound_to 10752
  153.8859  135.6830  153.4768 H   0  0  0  0  0  0  0  0  0  0  0  0  # atno 10764 bound_to 10752
  153.1359  135.4760  154.9357 H   0  0  0  0  0  0  0  0  0  0  0  0  # atno 10765 bound_to 10752
  140.6639  133.9296  155.8453 H   0  0  0  0  0  0  0  0  0  0  0  0  # atno 11005 bound_to 11000
  145.6987  141.0142  143.1516 LP  0  0  0  0  0  0  0  0  0  0  0  0  # atno 17320 bound_to 7965
  144.7045  139.8618  143.7434 LP  0  0  0  0  0  0  0  0  0  0  0  0  # atno 17321 bound_to 7965
  140.0295  143.5458  152.2766 LP  0  0  0  0  0  0  0  0  0  0  0  0  # atno 17342 bound_to 10162
  139.6246  144.7635  151.2667 LP  0  0  0  0  0  0  0  0  0  0  0  0  # atno 17343 bound_to 10162
  157.4630  130.7664  149.7253 LP  0  0  0  0  0  0  0  0  0  0  0  0  # atno 17370 bound_to 10713
  155.9870  130.3970  150.3183 LP  0  0  0  0  0  0  0  0  0  0  0  0  # atno 17371 bound_to 10713
  141.0444  134.0575  157.3862 LP  0  0  0  0  0  0  0  0  0  0  0  0  # atno 17394 bound_to 11000
  139.9004  135.0162  156.7239 LP  0  0  0  0  0  0  0  0  0  0  0  0  # atno 17395 bound_to 11000

$$$$
