AV-unprocessed.smi:3181|AV-procd|sdf|12148|dock8
  -GOLD-   2272017583D 1   1.00000     0.00000
 Structure written by MMmdl.
 42 43  0  0  0  0  0  0  0  0  2 V2000
  148.2215  140.6699  156.9971 C   0  0  0  0  0  0  0  0  0  0  0  0
  149.5892  141.2069  156.5444 C   0  0  1  0  0  0  0  0  0  0  0  0
  149.7243  141.2454  155.0064 C   0  0  0  0  0  0  0  0  0  0  0  0
  148.4811  141.5835  154.3392 N   0  0  0  0  0  0  0  0  0  0  0  0
  147.7657  142.7098  154.3500 C   0  0  0  0  0  0  0  0  0  0  0  0
  146.6717  142.6552  153.6035 N   0  0  0  0  0  0  0  0  0  0  0  0
  146.7869  141.3819  153.1208 C   0  0  0  0  0  0  0  0  0  0  0  0
  147.8563  140.6978  153.5284 N   0  0  0  0  0  0  0  0  0  0  0  0
  149.8007  142.5590  157.1102 N   0  3  0  0  0  0  0  0  0  0  0  0
  151.1537  142.8413  157.6440 C   0  0  2  0  0  0  0  0  0  0  0  0
  151.6202  141.6616  158.5155 C   0  0  0  0  0  0  0  0  0  0  0  0
  153.0108  141.9177  159.1201 C   0  0  0  0  0  0  0  0  0  0  0  0
  153.0625  143.2269  159.9334 C   0  0  2  0  0  0  0  0  0  0  0  0
  152.3085  143.0964  161.2722 C   0  0  0  0  0  0  0  0  0  0  0  0
  152.5935  144.4139  159.0542 C   0  0  2  0  0  0  0  0  0  0  0  0
  152.6642  145.7700  159.7756 C   0  0  0  0  0  0  0  0  0  0  0  0
  151.1991  144.1605  158.4454 C   0  0  0  0  0  0  0  0  0  0  0  0
  148.0614  139.6457  156.6594 H   0  0  0  0  0  0  0  0  0  0  0  0
  147.4059  141.2798  156.6070 H   0  0  0  0  0  0  0  0  0  0  0  0
  148.1431  140.6658  158.0848 H   0  0  0  0  0  0  0  0  0  0  0  0
  150.3469  140.5330  156.9473 H   0  0  0  0  0  0  0  0  0  0  0  0
  150.4798  141.9760  154.7136 H   0  0  0  0  0  0  0  0  0  0  0  0
  150.0606  140.2832  154.6196 H   0  0  0  0  0  0  0  0  0  0  0  0
  148.0473  143.5848  154.9175 H   0  0  0  0  0  0  0  0  0  0  0  0
  146.0617  140.9464  152.4492 H   0  0  0  0  0  0  0  0  0  0  0  0
  149.5630  143.2521  156.4150 H   0  0  0  0  0  0  0  0  0  0  0  0
  151.8381  142.9196  156.7973 H   0  0  0  0  0  0  0  0  0  0  0  0
  150.8997  141.4798  159.3139 H   0  0  0  0  0  0  0  0  0  0  0  0
  151.6487  140.7487  157.9193 H   0  0  0  0  0  0  0  0  0  0  0  0
  153.3073  141.0734  159.7436 H   0  0  0  0  0  0  0  0  0  0  0  0
  153.7444  141.9673  158.3142 H   0  0  0  0  0  0  0  0  0  0  0  0
  154.1091  143.4009  160.1876 H   0  0  0  0  0  0  0  0  0  0  0  0
  151.2339  142.9844  161.1320 H   0  0  0  0  0  0  0  0  0  0  0  0
  152.4701  143.9669  161.9076 H   0  0  0  0  0  0  0  0  0  0  0  0
  152.6579  142.2284  161.8316 H   0  0  0  0  0  0  0  0  0  0  0  0
  153.2941  144.4796  158.2200 H   0  0  0  0  0  0  0  0  0  0  0  0
  151.9288  145.8410  160.5772 H   0  0  0  0  0  0  0  0  0  0  0  0
  152.4710  146.5898  159.0832 H   0  0  0  0  0  0  0  0  0  0  0  0
  153.6510  145.9337  160.2094 H   0  0  0  0  0  0  0  0  0  0  0  0
  150.9467  144.9980  157.7948 H   0  0  0  0  0  0  0  0  0  0  0  0
  150.4433  144.1462  159.2316 H   0  0  0  0  0  0  0  0  0  0  0  0
  149.1584  142.6568  157.8834 H   0  0  0  0  0  0  0  0  0  0  0  0
  1  2  1  0  0  0  0
  1 18  1  0  0  0  0
  1 19  1  0  0  0  0
  1 20  1  0  0  0  0
  2  3  1  0  0  0  0
  2  9  1  0  0  0  0
  2 21  1  0  0  0  0
  3  4  1  0  0  0  0
  3 22  1  0  0  0  0
  3 23  1  0  0  0  0
  4  8  1  0  0  0  0
  4  5  1  0  0  0  0
  5  6  2  0  0  0  0
  5 24  1  0  0  0  0
  6  7  1  0  0  0  0
  7  8  2  0  0  0  0
  7 25  1  0  0  0  0
  9 10  1  0  0  0  0
  9 26  1  0  0  0  0
  9 42  1  0  0  0  0
 10 17  1  0  0  0  0
 10 11  1  0  0  0  0
 10 27  1  0  0  0  0
 11 12  1  0  0  0  0
 11 28  1  0  0  0  0
 11 29  1  0  0  0  0
 12 13  1  0  0  0  0
 12 30  1  0  0  0  0
 12 31  1  0  0  0  0
 13 14  1  0  0  0  0
 13 15  1  0  0  0  0
 13 32  1  0  0  0  0
 14 33  1  0  0  0  0
 14 34  1  0  0  0  0
 14 35  1  0  0  0  0
 15 16  1  0  0  0  0
 15 17  1  0  0  0  0
 15 36  1  0  0  0  0
 16 37  1  0  0  0  0
 16 38  1  0  0  0  0
 16 39  1  0  0  0  0
 17 40  1  0  0  0  0
 17 41  1  0  0  0  0
M  CHG  1   9   1
M  END
> <s_m_source_file>
AV-unprocessed.smi

> <i_m_source_file_index>
3181

> <i_lp_mmshare_version>
43012

> <i_f3d_flags>
0

> <s_epik_input>
bjFbY0hdbltjSF1uMVtDSDJdW0NAQEhdKFtDSDNdKVtOSF1bQ0BASF0yW0NIMl1bQ0gyXVtDQEBIXShbQ0gzXSlbQ0BASF0oW0NIM10pW0NIMl0y

> <s_epik_cmdline>
J2VwaWtfcHl0aG9uJywgJy1waCcsICc3LjAnLCAnLXRuJywgJzgnLCAnLW1hJywgJzIwMCcsICctbWV0YWxfYmluZGluZycsICctaW1hZScsICc8aW5maWxlLm1hZT4nLCAnLW9tYWUnLCAnPG91dGZpbGUubWFlPic=

> <r_lp_tautomer_probability>
1

> <r_epik_Ionization_Penalty>
0.000617007

> <r_epik_Ionization_Penalty_Charging>
0.000616215

> <r_epik_Ionization_Penalty_Neutral>
7.92544e-07

> <r_epik_State_Penalty>
0.000388807

> <r_epik_Charging_Adjusted_Penalty>
0.00100502

> <i_epik_Tot_Q>
1

> <i_epik_Tot_abs_Q>
1

> <r_epik_Metal_State_Penalty>
-0

> <b_epik_Metal_Only>
0

> <s_lp_Force_Field>
OPLS_2005

> <r_lp_Energy>
20.8152

> <b_lp_Chiralities_Consistent>
1

> <s_lp_Variant>
AV-unprocessed.smi:3181-14

> <Gold.Version>
5.8.1

> <Gold.Id.Protein>
6NUR|6NUR_protein|mol2

> <Gold.PLP.Fitness>
48.9568

> <Gold.PLP.PLP>
-39.0827

> <Gold.PLP.part.hbond>
-1.0000

> <Gold.PLP.part.metal>
0.0000

> <Gold.PLP.part.buried>
-2.8885

> <Gold.PLP.part.nonpolar>
-36.3709

> <Gold.PLP.part.repulsive>
1.7131

> <Gold.PLP.ligand.clash>
0.0000

> <Gold.PLP.ligand.torsion>
0.9618

> <Gold.PLP.Chemscore.Hbond>
2.0000

> <Gold.PLP.Chemscore.CHOScore>
1.9248

> <Gold.PLP.Chemscore.Metal>
0.0000

> <Gold.Chemscore.Hbonds>
donor molecule, donor type, donor heavy atom, donor atom, acceptor molecule, acceptor atom, score
      L1  H     9    26       P1  8028  2.00
      L1  C     7    25       P1 10175  0.78

> <Gold.PLP.Chemscore.Internal.Correction>
0.0234

> <Gold.Rescore>
     Score         DG    S(hbond)    S(metal)    S(lipo)     H(rot)  DE(clash)    DE(int)     intcor
     12.32     -15.08       0.91        0.00     102.37       2.11       1.94       0.82       ----

> <Gold.Chemscore.Fitness>
12.3228

> <Gold.Chemscore.DG>
-15.0805

> <Gold.Chemscore.ZeroCoef>
-5.4800

> <Gold.Chemscore.Hbond>
0.9051

> <Gold.Chemscore.Metal>
0.0000

> <Gold.Chemscore.Lipo>
102.3728

> <Gold.Chemscore.Internal_Hbond>
0.0000

> <Gold.Chemscore.DEClash>
1.9380

> <Gold.Chemscore.DEInternal>
0.8196

> <Gold.Chemscore.Rot>
2.1095

> <Gold.Chemscore.Internal.Correction>
   9.000000E+99

> <Gold.Chemscore.Hbonds>
donor molecule, donor type, donor heavy atom, donor atom, acceptor molecule, acceptor atom, score
      L1  H     9    26       P1  8028  1.00

> <Gold.Chemscore.Hbond.Weighted>
-3.0232

> <Gold.Chemscore.Metal.Weighted>
-0.0000

> <Gold.Chemscore.Lipo.Weighted>
-11.9776

> <Gold.Chemscore.Internal_Hbond.Weighted>
0.0000

> <Gold.Chemscore.DEClash.Weighted>
1.9380

> <Gold.Chemscore.DEInternal.Weighted>
0.8196

> <Gold.Chemscore.Rot.Weighted>
5.4003

> <Gold.Chemscore.Internal.Correction.Weighted>
   9.000000E+99

> <Gold.Protein.RotatedTorsions>
[ 6907 6896 6895 6894 ] final   -4.46 input  -60.11 | X-H torsion
[ 7974 7965 7964 7962 ] final  -46.28 input  175.53 | X-H torsion
[ 8008 7997 7996 7995 ] final   60.72 input   59.86 | X-H torsion
[ 10167 10162 10161 10158 ] final  102.02 input  -65.29 | X-H torsion
[ 10718 10713 10712 10709 ] final   -7.17 input   66.30 | X-H torsion
[ 10763 10752 10751 10750 ] final  -29.15 input  -60.55 | X-H torsion
[ 11005 11000 10999 10996 ] final  152.38 input  -57.11 | X-H torsion

> <Gold.Protein.ActiveResidues>
 VAL166  LYS551  ARG553  GLY616  TRP617  ASP618  TYR619  PRO620  LYS621  CYS622 
 ASP623  PHE694  ASN695  SER759  ASP760  ASP761  ALA762  ILE779  LEU786  VAL792 
 PHE793  MET794  SER795  GLU796  ALA797  LYS798  CYS799  TRP800  GLU811  SER814 

> <Gold.Protein.RotatedAtoms>
  151.4973  135.1060  159.9819 H   0  0  0  0  0  0  0  0  0  0  0  0  # atno 6907 bound_to 6896
  152.4716  133.8039  159.6978 H   0  0  0  0  0  0  0  0  0  0  0  0  # atno 6908 bound_to 6896
  150.8729  133.7418  159.2981 H   0  0  0  0  0  0  0  0  0  0  0  0  # atno 6909 bound_to 6896
  145.9735  140.7359  142.9399 H   0  0  0  0  0  0  0  0  0  0  0  0  # atno 7974 bound_to 7965
  155.5868  140.3492  155.4555 H   0  0  0  0  0  0  0  0  0  0  0  0  # atno 8008 bound_to 7997
  156.0331  140.1279  157.0261 H   0  0  0  0  0  0  0  0  0  0  0  0  # atno 8009 bound_to 7997
  154.4360  140.1039  156.6114 H   0  0  0  0  0  0  0  0  0  0  0  0  # atno 8010 bound_to 7997
  139.7386  144.7017  151.0610 H   0  0  0  0  0  0  0  0  0  0  0  0  # atno 10167 bound_to 10162
  156.7211  130.5151  149.5868 H   0  0  0  0  0  0  0  0  0  0  0  0  # atno 10718 bound_to 10713
  153.7600  135.6920  153.4927 H   0  0  0  0  0  0  0  0  0  0  0  0  # atno 10763 bound_to 10752
  153.1945  135.4459  155.0189 H   0  0  0  0  0  0  0  0  0  0  0  0  # atno 10764 bound_to 10752
  154.8156  135.3397  154.7116 H   0  0  0  0  0  0  0  0  0  0  0  0  # atno 10765 bound_to 10752
  140.1303  134.8806  157.2194 H   0  0  0  0  0  0  0  0  0  0  0  0  # atno 11005 bound_to 11000
  144.6843  140.2788  143.7295 LP  0  0  0  0  0  0  0  0  0  0  0  0  # atno 17320 bound_to 7965
  145.7873  139.1913  143.2123 LP  0  0  0  0  0  0  0  0  0  0  0  0  # atno 17321 bound_to 7965
  140.7782  143.4952  150.9841 LP  0  0  0  0  0  0  0  0  0  0  0  0  # atno 17342 bound_to 10162
  139.8640  143.7277  152.3171 LP  0  0  0  0  0  0  0  0  0  0  0  0  # atno 17343 bound_to 10162
  156.1593  130.6363  151.0698 LP  0  0  0  0  0  0  0  0  0  0  0  0  # atno 17370 bound_to 10713
  157.6897  131.0814  150.7142 LP  0  0  0  0  0  0  0  0  0  0  0  0  # atno 17371 bound_to 10713
  140.2851  134.3305  155.7331 LP  0  0  0  0  0  0  0  0  0  0  0  0  # atno 17394 bound_to 11000
  141.2169  133.7501  156.9421 LP  0  0  0  0  0  0  0  0  0  0  0  0  # atno 17395 bound_to 11000

$$$$
