AV-unprocessed.smi:514|AV-procd|sdf|2777|dock7
  -GOLD-   2262023243D 1   1.00000     0.00000
 Structure written by MMmdl.
 45 47  0  0  0  0  0  0  0  0  1 V2000
  148.2891  140.7830  156.7984 C   0  0  0  0  0  0  0  0  0  0  0  0
  149.5574  141.1046  156.0050 C   0  0  0  0  0  0  0  0  0  0  0  0
  150.3739  141.9698  156.7753 O   0  0  0  0  0  0  0  0  0  0  0  0
  150.8712  141.3507  157.9489 C   0  0  0  0  0  0  0  0  0  0  0  0
  152.2581  140.7701  157.6518 C   0  0  0  0  0  0  0  0  0  0  0  0
  152.8134  140.0959  158.8220 N   0  0  0  0  0  0  0  0  0  0  0  0
  153.1668  140.6302  160.0237 C   0  0  0  0  0  0  0  0  0  0  0  0
  153.0008  141.9842  160.3156 N   0  0  0  0  0  0  0  0  0  0  0  0
  153.2799  143.0712  159.3822 C   0  0  0  0  0  0  0  0  0  0  0  0
  152.0972  144.0592  159.3248 C   0  0  0  0  0  0  0  0  0  0  0  0
  151.8706  144.6391  160.6447 N   0  0  0  0  0  0  0  0  0  0  0  0
  151.5831  143.5622  161.5863 C   0  0  0  0  0  0  0  0  0  0  0  0
  152.7759  142.5870  161.6276 C   0  0  0  0  0  0  0  0  0  0  0  0
  153.7316  139.7664  160.8717 N   0  0  0  0  0  0  0  0  0  0  0  0
  153.7167  138.5749  160.1640 C   0  0  0  0  0  0  0  0  0  0  0  0
  153.1809  138.7528  158.9294 C   0  0  0  0  0  0  0  0  0  0  0  0
  153.0848  137.6613  157.9497 C   0  0  0  0  0  0  0  0  0  0  0  0
  152.6351  137.8036  156.8150 O   0  0  0  0  0  0  0  0  0  0  0  0
  153.5496  136.4794  158.4229 N   0  0  0  0  0  0  0  0  0  0  0  0
  154.0866  136.2305  159.6560 C   0  0  0  0  0  0  0  0  0  0  0  0
  154.4621  135.0947  159.9456 O   0  0  0  0  0  0  0  0  0  0  0  0
  154.1852  137.2812  160.5317 N   0  0  0  0  0  0  0  0  0  0  0  0
  154.7609  137.0747  161.8620 C   0  0  0  0  0  0  0  0  0  0  0  0
  153.4974  135.6931  157.7918 H   0  0  0  0  0  0  0  0  0  0  0  0
  147.6353  140.1170  156.2350 H   0  0  0  0  0  0  0  0  0  0  0  0
  147.7285  141.6904  157.0236 H   0  0  0  0  0  0  0  0  0  0  0  0
  148.5314  140.2947  157.7426 H   0  0  0  0  0  0  0  0  0  0  0  0
  150.0959  140.1839  155.7759 H   0  0  0  0  0  0  0  0  0  0  0  0
  149.2935  141.5787  155.0587 H   0  0  0  0  0  0  0  0  0  0  0  0
  150.9330  142.0768  158.7610 H   0  0  0  0  0  0  0  0  0  0  0  0
  150.1929  140.5565  158.2654 H   0  0  0  0  0  0  0  0  0  0  0  0
  152.1985  140.0819  156.8146 H   0  0  0  0  0  0  0  0  0  0  0  0
  152.9385  141.5521  157.3202 H   0  0  0  0  0  0  0  0  0  0  0  0
  154.1975  143.5835  159.6752 H   0  0  0  0  0  0  0  0  0  0  0  0
  153.4570  142.6584  158.3884 H   0  0  0  0  0  0  0  0  0  0  0  0
  152.3115  144.8613  158.6185 H   0  0  0  0  0  0  0  0  0  0  0  0
  151.1919  143.5584  158.9783 H   0  0  0  0  0  0  0  0  0  0  0  0
  151.0875  145.2759  160.6069 H   0  0  0  0  0  0  0  0  0  0  0  0
  151.4145  143.9924  162.5735 H   0  0  0  0  0  0  0  0  0  0  0  0
  150.6653  143.0483  161.2973 H   0  0  0  0  0  0  0  0  0  0  0  0
  152.6216  141.8156  162.3807 H   0  0  0  0  0  0  0  0  0  0  0  0
  153.6790  143.1168  161.9349 H   0  0  0  0  0  0  0  0  0  0  0  0
  154.1163  136.4263  162.4565 H   0  0  0  0  0  0  0  0  0  0  0  0
  154.8886  138.0065  162.4126 H   0  0  0  0  0  0  0  0  0  0  0  0
  155.7438  136.6067  161.7913 H   0  0  0  0  0  0  0  0  0  0  0  0
  1  2  1  0  0  0  0
  1 25  1  0  0  0  0
  1 26  1  0  0  0  0
  1 27  1  0  0  0  0
  2  3  1  0  0  0  0
  2 28  1  0  0  0  0
  2 29  1  0  0  0  0
  3  4  1  0  0  0  0
  4  5  1  0  0  0  0
  4 30  1  0  0  0  0
  4 31  1  0  0  0  0
  5  6  1  0  0  0  0
  5 32  1  0  0  0  0
  5 33  1  0  0  0  0
  6 16  1  0  0  0  0
  6  7  1  0  0  0  0
  7  8  1  0  0  0  0
  7 14  2  0  0  0  0
  8 13  1  0  0  0  0
  8  9  1  0  0  0  0
  9 10  1  0  0  0  0
  9 34  1  0  0  0  0
  9 35  1  0  0  0  0
 10 11  1  0  0  0  0
 10 36  1  0  0  0  0
 10 37  1  0  0  0  0
 11 12  1  0  0  0  0
 11 38  1  0  0  0  0
 12 13  1  0  0  0  0
 12 39  1  0  0  0  0
 12 40  1  0  0  0  0
 13 41  1  0  0  0  0
 13 42  1  0  0  0  0
 14 15  1  0  0  0  0
 15 22  1  0  0  0  0
 15 16  2  0  0  0  0
 16 17  1  0  0  0  0
 17 18  2  0  0  0  0
 17 19  1  0  0  0  0
 19 24  1  0  0  0  0
 19 20  1  0  0  0  0
 20 21  2  0  0  0  0
 20 22  1  0  0  0  0
 22 23  1  0  0  0  0
 23 43  1  0  0  0  0
 23 44  1  0  0  0  0
 23 45  1  0  0  0  0
M  END
> <s_m_source_file>
AV-unprocessed.smi

> <i_m_source_file_index>
514

> <i_lp_mmshare_version>
43012

> <i_f3d_flags>
0

> <s_epik_input>
W0NIM11uMWMoPU8pW25IXWMoPU8pYyhjMTIpbihbQ0gyXVtDSDJdT1tDSDJdW0NIM10pYyhuMilOM1tDSDJdW0NIMl1bTkhdW0NIMl1bQ0gyXTM=

> <s_epik_cmdline>
J2VwaWtfcHl0aG9uJywgJy1waCcsICc3LjAnLCAnLXRuJywgJzgnLCAnLW1hJywgJzIwMCcsICctbWV0YWxfYmluZGluZycsICctaW1hZScsICc8aW5maWxlLm1hZT4nLCAnLW9tYWUnLCAnPG91dGZpbGUubWFlPic=

> <r_epik_Ionization_Penalty>
2.51413

> <r_epik_Ionization_Penalty_Charging>
1.58739e-05

> <r_epik_Ionization_Penalty_Neutral>
2.51411

> <r_epik_State_Penalty>
2.67993

> <r_epik_Charging_Adjusted_Penalty>
2.67995

> <i_epik_Tot_Q>
0

> <i_epik_Tot_abs_Q>
0

> <r_epik_Metal_State_Penalty>
2.70758

> <b_epik_Metal_Only>
0

> <s_lp_Force_Field>
OPLS_2005

> <r_lp_Energy>
49.2261

> <b_lp_Chiralities_Consistent>
1

> <s_lp_Variant>
AV-unprocessed.smi:514-2

> <Gold.Version>
5.8.1

> <Gold.Id.Protein>
6NUR|6NUR_protein|mol2

> <Gold.PLP.Fitness>
41.0206

> <Gold.PLP.PLP>
-39.3452

> <Gold.PLP.part.hbond>
-1.0000

> <Gold.PLP.part.metal>
0.0000

> <Gold.PLP.part.buried>
-6.2557

> <Gold.PLP.part.nonpolar>
-32.1639

> <Gold.PLP.part.repulsive>
0.6500

> <Gold.PLP.ligand.clash>
0.0000

> <Gold.PLP.ligand.torsion>
0.7763

> <Gold.PLP.Chemscore.Hbond>
0.9417

> <Gold.PLP.Chemscore.CHOScore>
0.0000

> <Gold.PLP.Chemscore.Metal>
0.0000

> <Gold.Chemscore.Hbonds>
donor molecule, donor type, donor heavy atom, donor atom, acceptor molecule, acceptor atom, score
      P1  H  6896  6907       L1    21  0.45

> <Gold.PLP.Chemscore.Internal.Correction>
0.4029

> <Gold.Rescore>
     Score         DG    S(hbond)    S(metal)    S(lipo)     H(rot)  DE(clash)    DE(int)     intcor
     10.47     -11.52       0.00        0.00      89.25       1.72       0.05       1.00       ----

> <Gold.Chemscore.Fitness>
10.4726

> <Gold.Chemscore.DG>
-11.5231

> <Gold.Chemscore.ZeroCoef>
-5.4800

> <Gold.Chemscore.Hbond>
0.0022

> <Gold.Chemscore.Metal>
0.0000

> <Gold.Chemscore.Lipo>
89.2534

> <Gold.Chemscore.Internal_Hbond>
0.0000

> <Gold.Chemscore.DEClash>
0.0500

> <Gold.Chemscore.DEInternal>
1.0006

> <Gold.Chemscore.Rot>
1.7214

> <Gold.Chemscore.Internal.Correction>
   9.000000E+99

> <Gold.Chemscore.Hbonds>
donor molecule, donor type, donor heavy atom, donor atom, acceptor molecule, acceptor atom, score
      P1  H  6896  6907       L1    21  0.02

> <Gold.Chemscore.Hbond.Weighted>
-0.0073

> <Gold.Chemscore.Metal.Weighted>
-0.0000

> <Gold.Chemscore.Lipo.Weighted>
-10.4427

> <Gold.Chemscore.Internal_Hbond.Weighted>
0.0000

> <Gold.Chemscore.DEClash.Weighted>
0.0500

> <Gold.Chemscore.DEInternal.Weighted>
1.0006

> <Gold.Chemscore.Rot.Weighted>
4.4069

> <Gold.Chemscore.Internal.Correction.Weighted>
   9.000000E+99

> <Gold.Protein.RotatedTorsions>
[ 6907 6896 6895 6894 ] final   71.51 input  -60.11 | X-H torsion
[ 7974 7965 7964 7962 ] final   10.55 input  175.53 | X-H torsion
[ 8008 7997 7996 7995 ] final  -57.68 input   59.86 | X-H torsion
[ 10167 10162 10161 10158 ] final -134.18 input  -65.29 | X-H torsion
[ 10718 10713 10712 10709 ] final  169.45 input   66.30 | X-H torsion
[ 10763 10752 10751 10750 ] final  -19.69 input  -60.55 | X-H torsion
[ 11005 11000 10999 10996 ] final   -6.05 input  -57.11 | X-H torsion

> <Gold.Protein.ActiveResidues>
 VAL166  LYS551  ARG553  GLY616  TRP617  ASP618  TYR619  PRO620  LYS621  CYS622 
 ASP623  PHE694  ASN695  SER759  ASP760  ASP761  ALA762  ILE779  LEU786  VAL792 
 PHE793  MET794  SER795  GLU796  ALA797  LYS798  CYS799  TRP800  GLU811  SER814 

> <Gold.Protein.RotatedAtoms>
  152.4814  134.4709  159.9634 H   0  0  0  0  0  0  0  0  0  0  0  0  # atno 6907 bound_to 6896
  151.4714  133.3562  159.2832 H   0  0  0  0  0  0  0  0  0  0  0  0  # atno 6908 bound_to 6896
  150.8890  134.8317  159.7340 H   0  0  0  0  0  0  0  0  0  0  0  0  # atno 6909 bound_to 6896
  146.2386  139.9617  142.8457 H   0  0  0  0  0  0  0  0  0  0  0  0  # atno 7974 bound_to 7965
  154.4278  140.1101  156.5836 H   0  0  0  0  0  0  0  0  0  0  0  0  # atno 8008 bound_to 7997
  155.6086  140.3494  155.4596 H   0  0  0  0  0  0  0  0  0  0  0  0  # atno 8009 bound_to 7997
  156.0117  140.1220  157.0436 H   0  0  0  0  0  0  0  0  0  0  0  0  # atno 8010 bound_to 7997
  139.8907  143.6726  152.2612 H   0  0  0  0  0  0  0  0  0  0  0  0  # atno 10167 bound_to 10162
  157.0225  131.0236  151.2770 H   0  0  0  0  0  0  0  0  0  0  0  0  # atno 10718 bound_to 10713
  153.6087  135.6997  153.5355 H   0  0  0  0  0  0  0  0  0  0  0  0  # atno 10763 bound_to 10752
  153.3035  135.4122  155.1273 H   0  0  0  0  0  0  0  0  0  0  0  0  # atno 10764 bound_to 10752
  154.8568  135.3654  154.5625 H   0  0  0  0  0  0  0  0  0  0  0  0  # atno 10765 bound_to 10752
  140.6977  133.9016  155.8662 H   0  0  0  0  0  0  0  0  0  0  0  0  # atno 11005 bound_to 11000
  145.1764  140.9746  143.4291 LP  0  0  0  0  0  0  0  0  0  0  0  0  # atno 17320 bound_to 7965
  144.9981  139.3624  143.6181 LP  0  0  0  0  0  0  0  0  0  0  0  0  # atno 17321 bound_to 7965
  139.7112  144.7620  151.1109 LP  0  0  0  0  0  0  0  0  0  0  0  0  # atno 17342 bound_to 10162
  140.7727  143.5328  150.9403 LP  0  0  0  0  0  0  0  0  0  0  0  0  # atno 17343 bound_to 10162
  157.5239  130.8015  149.7839 LP  0  0  0  0  0  0  0  0  0  0  0  0  # atno 17370 bound_to 10713
  156.0097  130.3839  150.2307 LP  0  0  0  0  0  0  0  0  0  0  0  0  # atno 17371 bound_to 10713
  141.0189  134.0917  157.4142 LP  0  0  0  0  0  0  0  0  0  0  0  0  # atno 17394 bound_to 11000
  139.8905  135.0112  156.6741 LP  0  0  0  0  0  0  0  0  0  0  0  0  # atno 17395 bound_to 11000

$$$$
