AV-unprocessed.smi:3343|AV-procd|sdf|12896|dock8
  -GOLD-   2272019303D 1   1.00000     0.00000
 Structure written by MMmdl.
 42 43  0  0  0  0  0  0  0  0  2 V2000
  148.4076  132.7498  151.8555 C   0  0  0  0  0  0  0  0  0  0  0  0
  147.0864  132.4386  152.5832 C   0  0  1  0  0  0  0  0  0  0  0  0
  146.8301  133.3784  153.7708 C   0  0  0  0  0  0  0  0  0  0  0  0
  146.2629  132.9704  154.7853 O   0  0  0  0  0  0  0  0  0  0  0  0
  147.2583  134.6430  153.6310 N   0  0  0  0  0  0  0  0  0  0  0  0
  147.1255  135.6887  154.6384 C   0  0  0  0  0  0  0  0  0  0  0  0
  148.4760  136.0026  155.3105 C   0  0  0  0  0  0  0  0  0  0  0  0
  149.1422  137.1871  154.7145 N   0  3  0  0  0  0  0  0  0  0  0  0
  150.6089  137.1831  154.9345 C   0  0  0  0  0  0  0  0  0  0  0  0
  151.2701  138.3782  154.2156 C   0  0  0  0  0  0  0  0  0  0  0  0
  150.7060  139.6595  154.6430 N   0  0  0  0  0  0  0  0  0  0  0  0
  151.0951  140.0339  155.9983 C   0  0  0  0  0  0  0  0  0  0  0  0
  149.2564  139.6587  154.4394 C   0  0  0  0  0  0  0  0  0  0  0  0
  148.5662  138.4809  155.1596 C   0  0  0  0  0  0  0  0  0  0  0  0
  145.9576  132.4717  151.6640 N   0  0  0  0  0  0  0  0  0  0  0  0
  145.7546  131.8458  150.5011 C   0  0  0  0  0  0  0  0  0  0  0  0
  144.5962  132.1393  149.9279 N   0  0  0  0  0  0  0  0  0  0  0  0
  144.1004  133.0150  150.8518 C   0  0  0  0  0  0  0  0  0  0  0  0
  144.8783  133.2533  151.9079 N   0  0  0  0  0  0  0  0  0  0  0  0
  149.2539  132.7178  152.5427 H   0  0  0  0  0  0  0  0  0  0  0  0
  148.3945  133.7363  151.3903 H   0  0  0  0  0  0  0  0  0  0  0  0
  148.5981  132.0183  151.0697 H   0  0  0  0  0  0  0  0  0  0  0  0
  147.1676  131.4243  152.9797 H   0  0  0  0  0  0  0  0  0  0  0  0
  147.7217  134.8928  152.7688 H   0  0  0  0  0  0  0  0  0  0  0  0
  146.7037  136.5887  154.1874 H   0  0  0  0  0  0  0  0  0  0  0  0
  146.3991  135.3393  155.3712 H   0  0  0  0  0  0  0  0  0  0  0  0
  148.3512  136.1481  156.3846 H   0  0  0  0  0  0  0  0  0  0  0  0
  149.1294  135.1371  155.1918 H   0  0  0  0  0  0  0  0  0  0  0  0
  150.8280  137.1946  156.0029 H   0  0  0  0  0  0  0  0  0  0  0  0
  151.0319  136.2581  154.5411 H   0  0  0  0  0  0  0  0  0  0  0  0
  152.3475  138.3767  154.3852 H   0  0  0  0  0  0  0  0  0  0  0  0
  151.1276  138.2792  153.1386 H   0  0  0  0  0  0  0  0  0  0  0  0
  150.7020  141.0208  156.2438 H   0  0  0  0  0  0  0  0  0  0  0  0
  152.1816  140.0828  156.0782 H   0  0  0  0  0  0  0  0  0  0  0  0
  150.7337  139.3316  156.7483 H   0  0  0  0  0  0  0  0  0  0  0  0
  148.8389  140.6083  154.7761 H   0  0  0  0  0  0  0  0  0  0  0  0
  149.0574  139.5970  153.3685 H   0  0  0  0  0  0  0  0  0  0  0  0
  147.5013  138.5135  154.9324 H   0  0  0  0  0  0  0  0  0  0  0  0
  148.6538  138.5781  156.2424 H   0  0  0  0  0  0  0  0  0  0  0  0
  146.4695  131.1636  150.0645 H   0  0  0  0  0  0  0  0  0  0  0  0
  143.1386  133.4940  150.7408 H   0  0  0  0  0  0  0  0  0  0  0  0
  149.0065  137.1273  153.7155 H   0  0  0  0  0  0  0  0  0  0  0  0
  1  2  1  0  0  0  0
  1 20  1  0  0  0  0
  1 21  1  0  0  0  0
  1 22  1  0  0  0  0
  2  3  1  0  0  0  0
  2 15  1  0  0  0  0
  2 23  1  0  0  0  0
  3  4  2  0  0  0  0
  3  5  1  0  0  0  0
  5  6  1  0  0  0  0
  5 24  1  0  0  0  0
  6  7  1  0  0  0  0
  6 25  1  0  0  0  0
  6 26  1  0  0  0  0
  7  8  1  0  0  0  0
  7 27  1  0  0  0  0
  7 28  1  0  0  0  0
  8 14  1  0  0  0  0
  8  9  1  0  0  0  0
  8 42  1  0  0  0  0
  9 10  1  0  0  0  0
  9 29  1  0  0  0  0
  9 30  1  0  0  0  0
 10 11  1  0  0  0  0
 10 31  1  0  0  0  0
 10 32  1  0  0  0  0
 11 12  1  0  0  0  0
 11 13  1  0  0  0  0
 12 33  1  0  0  0  0
 12 34  1  0  0  0  0
 12 35  1  0  0  0  0
 13 14  1  0  0  0  0
 13 36  1  0  0  0  0
 13 37  1  0  0  0  0
 14 38  1  0  0  0  0
 14 39  1  0  0  0  0
 15 19  1  0  0  0  0
 15 16  1  0  0  0  0
 16 17  2  0  0  0  0
 16 40  1  0  0  0  0
 17 18  1  0  0  0  0
 18 19  2  0  0  0  0
 18 41  1  0  0  0  0
M  CHG  1   8   1
M  END
> <s_m_source_file>
AV-unprocessed.smi

> <i_m_source_file_index>
3343

> <i_lp_mmshare_version>
43012

> <i_f3d_flags>
0

> <s_epik_input>
bjFbY0hdbltjSF1uMVtDQEhdKFtDSDNdKUMoPU8pW05IXVtDSDJdW0NIMl1OMltDSDJdW0NIMl1OKFtDSDNdKVtDSDJdW0NIMl0y

> <s_epik_cmdline>
J2VwaWtfcHl0aG9uJywgJy1waCcsICc3LjAnLCAnLXRuJywgJzgnLCAnLW1hJywgJzIwMCcsICctbWV0YWxfYmluZGluZycsICctaW1hZScsICc8aW5maWxlLm1hZT4nLCAnLW9tYWUnLCAnPG91dGZpbGUubWFlPic=

> <r_epik_Ionization_Penalty>
0.559944

> <r_epik_Ionization_Penalty_Charging>
0.558624

> <r_epik_Ionization_Penalty_Neutral>
0.00131959

> <r_epik_State_Penalty>
2.08679

> <r_epik_Charging_Adjusted_Penalty>
2.64542

> <i_epik_Tot_Q>
1

> <i_epik_Tot_abs_Q>
1

> <r_epik_Metal_State_Penalty>
2.0868

> <b_epik_Metal_Only>
0

> <s_lp_Force_Field>
OPLS_2005

> <r_lp_Energy>
21.6118

> <b_lp_Chiralities_Consistent>
1

> <s_lp_Variant>
AV-unprocessed.smi:3343-6

> <Gold.Version>
5.8.1

> <Gold.Id.Protein>
6NUR|6NUR_protein|mol2

> <Gold.PLP.Fitness>
40.5969

> <Gold.PLP.PLP>
-25.4241

> <Gold.PLP.part.hbond>
-3.0000

> <Gold.PLP.part.metal>
0.0000

> <Gold.PLP.part.buried>
-0.9534

> <Gold.PLP.part.nonpolar>
-22.3958

> <Gold.PLP.part.repulsive>
0.4616

> <Gold.PLP.ligand.clash>
0.0000

> <Gold.PLP.ligand.torsion>
1.3056

> <Gold.PLP.Chemscore.Hbond>
3.8960

> <Gold.PLP.Chemscore.CHOScore>
2.0000

> <Gold.PLP.Chemscore.Metal>
0.0000

> <Gold.Chemscore.Hbonds>
donor molecule, donor type, donor heavy atom, donor atom, acceptor molecule, acceptor atom, score
      L1  H     5    24       P1  7948  0.93
      L1  H     8    42       P1  7948  1.95
      P1  H  7989  7998       L1    11  1.00
      L1  C    16    40       P1 10747  1.00
      L1  C    18    41       P1 10186  0.80

> <Gold.PLP.Chemscore.Internal.Correction>
0.0961

> <Gold.Rescore>
     Score         DG    S(hbond)    S(metal)    S(lipo)     H(rot)  DE(clash)    DE(int)     intcor
      7.83     -10.69       2.01        0.00      44.79       2.63       1.59       1.27       ----

> <Gold.Chemscore.Fitness>
7.8332

> <Gold.Chemscore.DG>
-10.6914

> <Gold.Chemscore.ZeroCoef>
-5.4800

> <Gold.Chemscore.Hbond>
2.0055

> <Gold.Chemscore.Metal>
0.0000

> <Gold.Chemscore.Lipo>
44.7872

> <Gold.Chemscore.Internal_Hbond>
0.0000

> <Gold.Chemscore.DEClash>
1.5897

> <Gold.Chemscore.DEInternal>
1.2684

> <Gold.Chemscore.Rot>
2.6278

> <Gold.Chemscore.Internal.Correction>
   9.000000E+99

> <Gold.Chemscore.Hbonds>
donor molecule, donor type, donor heavy atom, donor atom, acceptor molecule, acceptor atom, score
      L1  H     5    24       P1  7948  0.85
      L1  H     8    42       P1  7948  0.90
      P1  H  7989  7998       L1    11  0.14

> <Gold.Chemscore.Hbond.Weighted>
-6.6984

> <Gold.Chemscore.Metal.Weighted>
-0.0000

> <Gold.Chemscore.Lipo.Weighted>
-5.2401

> <Gold.Chemscore.Internal_Hbond.Weighted>
0.0000

> <Gold.Chemscore.DEClash.Weighted>
1.5897

> <Gold.Chemscore.DEInternal.Weighted>
1.2684

> <Gold.Chemscore.Rot.Weighted>
6.7271

> <Gold.Chemscore.Internal.Correction.Weighted>
   9.000000E+99

> <Gold.Protein.RotatedTorsions>
[ 6907 6896 6895 6894 ] final -129.76 input  -60.11 | X-H torsion
[ 7974 7965 7964 7962 ] final  175.72 input  175.53 | X-H torsion
[ 8008 7997 7996 7995 ] final -118.28 input   59.86 | X-H torsion
[ 10167 10162 10161 10158 ] final  161.50 input  -65.29 | X-H torsion
[ 10718 10713 10712 10709 ] final  -44.04 input   66.30 | X-H torsion
[ 10763 10752 10751 10750 ] final   -1.72 input  -60.55 | X-H torsion
[ 11005 11000 10999 10996 ] final  147.41 input  -57.11 | X-H torsion

> <Gold.Protein.ActiveResidues>
 VAL166  LYS551  ARG553  GLY616  TRP617  ASP618  TYR619  PRO620  LYS621  CYS622 
 ASP623  PHE694  ASN695  SER759  ASP760  ASP761  ALA762  ILE779  LEU786  VAL792 
 PHE793  MET794  SER795  GLU796  ALA797  LYS798  CYS799  TRP800  GLU811  SER814 

> <Gold.Protein.RotatedAtoms>
  150.9323  133.6752  159.2807 H   0  0  0  0  0  0  0  0  0  0  0  0  # atno 6907 bound_to 6896
  151.4170  135.0991  159.9612 H   0  0  0  0  0  0  0  0  0  0  0  0  # atno 6908 bound_to 6896
  152.5031  133.8783  159.7388 H   0  0  0  0  0  0  0  0  0  0  0  0  # atno 6909 bound_to 6896
  144.7197  139.9988  143.6440 H   0  0  0  0  0  0  0  0  0  0  0  0  # atno 7974 bound_to 7965
  155.0971  140.0395  157.2686 H   0  0  0  0  0  0  0  0  0  0  0  0  # atno 8008 bound_to 7997
  154.6787  140.2628  155.6906 H   0  0  0  0  0  0  0  0  0  0  0  0  # atno 8009 bound_to 7997
  156.2686  140.2783  156.1323 H   0  0  0  0  0  0  0  0  0  0  0  0  # atno 8010 bound_to 7997
  139.4850  144.4530  151.8805 H   0  0  0  0  0  0  0  0  0  0  0  0  # atno 10167 bound_to 10162
  156.2427  130.4181  149.8741 H   0  0  0  0  0  0  0  0  0  0  0  0  # atno 10718 bound_to 10713
  153.3486  135.6984  153.6807 H   0  0  0  0  0  0  0  0  0  0  0  0  # atno 10763 bound_to 10752
  153.5543  135.3547  155.2773 H   0  0  0  0  0  0  0  0  0  0  0  0  # atno 10764 bound_to 10752
  154.8649  135.4234  154.2716 H   0  0  0  0  0  0  0  0  0  0  0  0  # atno 10765 bound_to 10752
  140.0874  134.9061  157.1596 H   0  0  0  0  0  0  0  0  0  0  0  0  # atno 11005 bound_to 11000
  146.0352  139.3371  143.0731 LP  0  0  0  0  0  0  0  0  0  0  0  0  # atno 17320 bound_to 7965
  145.8403  140.9584  143.0802 LP  0  0  0  0  0  0  0  0  0  0  0  0  # atno 17321 bound_to 7965
  140.3988  144.2520  150.5894 LP  0  0  0  0  0  0  0  0  0  0  0  0  # atno 17342 bound_to 10162
  140.5077  143.2299  151.8583 LP  0  0  0  0  0  0  0  0  0  0  0  0  # atno 17343 bound_to 10162
  156.6317  130.8668  151.3496 LP  0  0  0  0  0  0  0  0  0  0  0  0  # atno 17370 bound_to 10713
  157.7182  130.9524  150.1335 LP  0  0  0  0  0  0  0  0  0  0  0  0  # atno 17371 bound_to 10713
  140.3401  134.2713  155.7213 LP  0  0  0  0  0  0  0  0  0  0  0  0  # atno 17394 bound_to 11000
  141.2067  133.7826  157.0163 LP  0  0  0  0  0  0  0  0  0  0  0  0  # atno 17395 bound_to 11000

$$$$
