AV-unprocessed.smi:2795|AV-procd|sdf|10780|dock1
  -GOLD-   2272015213D 1   1.00000     0.00000
 Structure written by MMmdl.
 36 37  0  0  0  0  0  0  0  0  1 V2000
  153.1175  142.7841  160.7721 C   0  0  0  0  0  0  0  0  0  0  0  0
  152.2773  143.8273  160.2191 N   0  0  0  0  0  0  0  0  0  0  0  0
  152.1653  145.0878  160.6599 C   0  0  0  0  0  0  0  0  0  0  0  0
  151.3198  145.8388  159.9675 N   0  0  0  0  0  0  0  0  0  0  0  0
  150.8406  144.9766  158.9850 C   0  0  0  0  0  0  0  0  0  0  0  0
  151.4194  143.7328  159.1269 C   0  0  0  0  0  0  0  0  0  0  0  0
  151.2446  142.4725  158.3362 C   0  0  0  0  0  0  0  0  0  0  0  0
  151.3687  142.6567  156.8131 C   0  0  0  0  0  0  0  0  0  0  0  0
  150.1743  142.1904  156.1183 N   0  0  0  0  0  0  0  0  0  0  0  0
  150.0881  141.0533  155.4108 C   0  0  0  0  0  0  0  0  0  0  0  0
  151.0359  140.2827  155.2556 O   0  0  0  0  0  0  0  0  0  0  0  0
  148.7263  140.7422  154.7814 C   0  0  2  0  0  0  0  0  0  0  0  0
  148.7157  139.3616  154.0897 C   0  0  0  0  0  0  0  0  0  0  0  0
  147.3716  139.1227  153.3935 C   0  0  0  0  0  0  0  0  0  0  0  0
  147.0615  140.2965  152.4588 C   0  0  0  0  0  0  0  0  0  0  0  0
  147.1571  141.6276  153.2213 C   0  0  0  0  0  0  0  0  0  0  0  0
  148.4433  141.7573  153.8204 O   0  0  0  0  0  0  0  0  0  0  0  0
  153.7373  143.1837  161.5755 H   0  0  0  0  0  0  0  0  0  0  0  0
  153.7656  142.3808  159.9936 H   0  0  0  0  0  0  0  0  0  0  0  0
  152.4939  141.9831  161.1699 H   0  0  0  0  0  0  0  0  0  0  0  0
  152.7165  145.4651  161.5089 H   0  0  0  0  0  0  0  0  0  0  0  0
  150.1199  145.3167  158.2559 H   0  0  0  0  0  0  0  0  0  0  0  0
  151.9815  141.7430  158.6738 H   0  0  0  0  0  0  0  0  0  0  0  0
  150.2682  142.0437  158.5651 H   0  0  0  0  0  0  0  0  0  0  0  0
  151.5036  143.7123  156.5756 H   0  0  0  0  0  0  0  0  0  0  0  0
  152.2483  142.1352  156.4318 H   0  0  0  0  0  0  0  0  0  0  0  0
  149.3500  142.7695  156.1870 H   0  0  0  0  0  0  0  0  0  0  0  0
  147.9605  140.7668  155.5597 H   0  0  0  0  0  0  0  0  0  0  0  0
  149.5161  139.3018  153.3503 H   0  0  0  0  0  0  0  0  0  0  0  0
  148.9023  138.5707  154.8171 H   0  0  0  0  0  0  0  0  0  0  0  0
  147.3932  138.1862  152.8355 H   0  0  0  0  0  0  0  0  0  0  0  0
  146.5819  139.0268  154.1399 H   0  0  0  0  0  0  0  0  0  0  0  0
  147.7694  140.3011  151.6292 H   0  0  0  0  0  0  0  0  0  0  0  0
  146.0688  140.1802  152.0230 H   0  0  0  0  0  0  0  0  0  0  0  0
  147.0025  142.4623  152.5374 H   0  0  0  0  0  0  0  0  0  0  0  0
  146.3811  141.6946  153.9852 H   0  0  0  0  0  0  0  0  0  0  0  0
  1  2  1  0  0  0  0
  1 18  1  0  0  0  0
  1 19  1  0  0  0  0
  1 20  1  0  0  0  0
  2  6  1  0  0  0  0
  2  3  1  0  0  0  0
  3  4  2  0  0  0  0
  3 21  1  0  0  0  0
  4  5  1  0  0  0  0
  5  6  2  0  0  0  0
  5 22  1  0  0  0  0
  6  7  1  0  0  0  0
  7  8  1  0  0  0  0
  7 23  1  0  0  0  0
  7 24  1  0  0  0  0
  8  9  1  0  0  0  0
  8 25  1  0  0  0  0
  8 26  1  0  0  0  0
  9 10  1  0  0  0  0
  9 27  1  0  0  0  0
 10 11  2  0  0  0  0
 10 12  1  0  0  0  0
 12 17  1  0  0  0  0
 12 13  1  0  0  0  0
 12 28  1  0  0  0  0
 13 14  1  0  0  0  0
 13 29  1  0  0  0  0
 13 30  1  0  0  0  0
 14 15  1  0  0  0  0
 14 31  1  0  0  0  0
 14 32  1  0  0  0  0
 15 16  1  0  0  0  0
 15 33  1  0  0  0  0
 15 34  1  0  0  0  0
 16 17  1  0  0  0  0
 16 35  1  0  0  0  0
 16 36  1  0  0  0  0
M  END
> <s_m_source_file>
AV-unprocessed.smi

> <i_m_source_file_index>
2795

> <i_lp_mmshare_version>
43012

> <i_f3d_flags>
0

> <s_epik_input>
W0NIM11uMVtjSF1uW2NIXWMxW0NIMl1bQ0gyXVtOSF1DKD1PKVtDQEBIXTJbQ0gyXVtDSDJdW0NIMl1bQ0gyXU8y

> <s_epik_cmdline>
J2VwaWtfcHl0aG9uJywgJy1waCcsICc3LjAnLCAnLXRuJywgJzgnLCAnLW1hJywgJzIwMCcsICctbWV0YWxfYmluZGluZycsICctaW1hZScsICc8aW5maWxlLm1hZT4nLCAnLW9tYWUnLCAnPG91dGZpbGUubWFlPic=

> <r_lp_tautomer_probability>
1

> <r_epik_Ionization_Penalty>
0.870864

> <r_epik_Ionization_Penalty_Charging>
0.870864

> <r_epik_Ionization_Penalty_Neutral>
4.06047e-08

> <r_epik_State_Penalty>
0.90819

> <r_epik_Charging_Adjusted_Penalty>
1.77905

> <i_epik_Tot_Q>
0

> <i_epik_Tot_abs_Q>
0

> <r_epik_Metal_State_Penalty>
0.360563

> <b_epik_Metal_Only>
0

> <s_lp_Force_Field>
OPLS_2005

> <r_lp_Energy>
9.35516

> <b_lp_Chiralities_Consistent>
1

> <s_lp_Variant>
AV-unprocessed.smi:2795-3

> <Gold.Version>
5.8.1

> <Gold.Id.Protein>
6NUR|6NUR_protein|mol2

> <Gold.PLP.Fitness>
45.4318

> <Gold.PLP.PLP>
-37.1552

> <Gold.PLP.part.hbond>
-4.9325

> <Gold.PLP.part.metal>
0.0000

> <Gold.PLP.part.buried>
-2.6537

> <Gold.PLP.part.nonpolar>
-28.5479

> <Gold.PLP.part.repulsive>
0.5380

> <Gold.PLP.ligand.clash>
0.0000

> <Gold.PLP.ligand.torsion>
0.5976

> <Gold.PLP.Chemscore.Hbond>
2.1226

> <Gold.PLP.Chemscore.CHOScore>
1.0264

> <Gold.PLP.Chemscore.Metal>
0.0000

> <Gold.Chemscore.Hbonds>
donor molecule, donor type, donor heavy atom, donor atom, acceptor molecule, acceptor atom, score
      L1  H     9    27       P1  8028  0.63
      P1  H  7989  7998       L1    11  0.95
      P1  H  8011  8017       L1    17  0.44
      L1  C     5    22       P1  8028  0.02
      L1  C     5    22       P1  8029  1.00

> <Gold.PLP.Chemscore.Internal.Correction>
0.0251

> <Gold.Rescore>
     Score         DG    S(hbond)    S(metal)    S(lipo)     H(rot)  DE(clash)    DE(int)     intcor
     13.70     -15.66       1.41        0.00      85.26       1.76       1.31       0.66       ----

> <Gold.Chemscore.Fitness>
13.6981

> <Gold.Chemscore.DG>
-15.6601

> <Gold.Chemscore.ZeroCoef>
-5.4800

> <Gold.Chemscore.Hbond>
1.4093

> <Gold.Chemscore.Metal>
0.0000

> <Gold.Chemscore.Lipo>
85.2556

> <Gold.Chemscore.Internal_Hbond>
0.0000

> <Gold.Chemscore.DEClash>
1.3061

> <Gold.Chemscore.DEInternal>
0.6559

> <Gold.Chemscore.Rot>
1.7585

> <Gold.Chemscore.Internal.Correction>
   9.000000E+99

> <Gold.Chemscore.Hbonds>
donor molecule, donor type, donor heavy atom, donor atom, acceptor molecule, acceptor atom, score
      L1  H     9    27       P1  8028  0.61
      P1  H  7989  7998       L1    11  0.21
      P1  H  8011  8017       L1    17  0.28

> <Gold.Chemscore.Hbond.Weighted>
-4.7069

> <Gold.Chemscore.Metal.Weighted>
-0.0000

> <Gold.Chemscore.Lipo.Weighted>
-9.9749

> <Gold.Chemscore.Internal_Hbond.Weighted>
0.0000

> <Gold.Chemscore.DEClash.Weighted>
1.3061

> <Gold.Chemscore.DEInternal.Weighted>
0.6559

> <Gold.Chemscore.Rot.Weighted>
4.5018

> <Gold.Chemscore.Internal.Correction.Weighted>
   9.000000E+99

> <Gold.Protein.RotatedTorsions>
[ 6907 6896 6895 6894 ] final  -49.48 input  -60.11 | X-H torsion
[ 7974 7965 7964 7962 ] final   -1.48 input  175.53 | X-H torsion
[ 8008 7997 7996 7995 ] final  -70.70 input   59.86 | X-H torsion
[ 10167 10162 10161 10158 ] final   86.91 input  -65.29 | X-H torsion
[ 10718 10713 10712 10709 ] final   26.61 input   66.30 | X-H torsion
[ 10763 10752 10751 10750 ] final  -77.73 input  -60.55 | X-H torsion
[ 11005 11000 10999 10996 ] final    0.52 input  -57.11 | X-H torsion

> <Gold.Protein.ActiveResidues>
 VAL166  LYS551  ARG553  GLY616  TRP617  ASP618  TYR619  PRO620  LYS621  CYS622 
 ASP623  PHE694  ASN695  SER759  ASP760  ASP761  ALA762  ILE779  LEU786  VAL792 
 PHE793  MET794  SER795  GLU796  ALA797  LYS798  CYS799  TRP800  GLU811  SER814 

> <Gold.Protein.RotatedAtoms>
  150.8801  134.8190  159.7218 H   0  0  0  0  0  0  0  0  0  0  0  0  # atno 6907 bound_to 6896
  152.4772  134.4810  159.9675 H   0  0  0  0  0  0  0  0  0  0  0  0  # atno 6908 bound_to 6896
  151.4886  133.3491  159.2885 H   0  0  0  0  0  0  0  0  0  0  0  0  # atno 6909 bound_to 6896
  146.2416  140.1427  142.8335 H   0  0  0  0  0  0  0  0  0  0  0  0  # atno 7974 bound_to 7965
  154.5031  140.0829  156.7839 H   0  0  0  0  0  0  0  0  0  0  0  0  # atno 8008 bound_to 7997
  155.3956  140.3434  155.4235 H   0  0  0  0  0  0  0  0  0  0  0  0  # atno 8009 bound_to 7997
  156.1482  140.1550  156.8800 H   0  0  0  0  0  0  0  0  0  0  0  0  # atno 8010 bound_to 7997
  139.8827  144.6431  150.8825 H   0  0  0  0  0  0  0  0  0  0  0  0  # atno 10167 bound_to 10162
  157.2092  130.6926  149.6221 H   0  0  0  0  0  0  0  0  0  0  0  0  # atno 10718 bound_to 10713
  154.5168  135.5754  153.6648 H   0  0  0  0  0  0  0  0  0  0  0  0  # atno 10763 bound_to 10752
  152.9908  135.6172  154.2807 H   0  0  0  0  0  0  0  0  0  0  0  0  # atno 10764 bound_to 10752
  154.2725  135.2853  155.2711 H   0  0  0  0  0  0  0  0  0  0  0  0  # atno 10765 bound_to 10752
  140.6256  133.9621  155.8247 H   0  0  0  0  0  0  0  0  0  0  0  0  # atno 11005 bound_to 11000
  145.0233  140.8812  143.5153 LP  0  0  0  0  0  0  0  0  0  0  0  0  # atno 17320 bound_to 7965
  145.1479  139.2532  143.5456 LP  0  0  0  0  0  0  0  0  0  0  0  0  # atno 17321 bound_to 7965
  140.7741  143.3573  151.1897 LP  0  0  0  0  0  0  0  0  0  0  0  0  # atno 17342 bound_to 10162
  139.7181  143.9267  152.2974 LP  0  0  0  0  0  0  0  0  0  0  0  0  # atno 17343 bound_to 10162
  155.9692  130.4557  150.5897 LP  0  0  0  0  0  0  0  0  0  0  0  0  # atno 17370 bound_to 10713
  157.3690  131.0762  151.1574 LP  0  0  0  0  0  0  0  0  0  0  0  0  # atno 17371 bound_to 10713
  141.0711  134.0203  157.3524 LP  0  0  0  0  0  0  0  0  0  0  0  0  # atno 17394 bound_to 11000
  139.9136  135.0194  156.7792 LP  0  0  0  0  0  0  0  0  0  0  0  0  # atno 17395 bound_to 11000

$$$$
