AV-unprocessed.smi:2069|AV-procd|sdf|8437|dock7
  -GOLD-   2272011133D 1   1.00000     0.00000
 Structure written by MMmdl.
 38 39  0  0  0  0  0  0  0  0  3 V2000
  147.2169  135.2669  162.3111 C   0  0  0  0  0  0  0  0  0  0  0  0
  147.7204  135.8413  161.0315 C   0  0  0  0  0  0  0  0  0  0  0  0
  147.8763  137.1537  160.8410 N   0  0  0  0  0  0  0  0  0  0  0  0
  148.3546  137.4442  159.5714 N   0  0  0  0  0  0  0  0  0  0  0  0
  148.5411  136.3520  158.8169 C   0  0  0  0  0  0  0  0  0  0  0  0
  148.9989  136.4178  157.5556 N   0  5  0  0  0  0  0  0  0  0  0  0
  149.4147  135.2942  156.9293 C   0  0  0  0  0  0  0  0  0  0  0  0
  150.1390  134.4157  157.4028 O   0  0  0  0  0  0  0  0  0  0  0  0
  148.9652  135.1808  155.6731 N   0  0  0  0  0  0  0  0  0  0  0  0
  149.2597  134.0712  154.7737 C   0  0  0  0  0  0  0  0  0  0  0  0
  147.9866  133.5263  154.0741 C   0  0  2  0  0  0  0  0  0  0  0  0
  148.3296  132.2617  153.2504 C   0  0  0  0  0  0  0  0  0  0  0  0
  147.3035  134.5498  153.2140 N   0  3  0  0  0  0  0  0  0  0  0  0
  146.4383  133.9410  152.1654 C   0  0  0  0  0  0  0  0  0  0  0  0
  145.7988  135.0157  151.2713 C   0  0  0  0  0  0  0  0  0  0  0  0
  145.0467  135.9147  152.0711 O   0  0  0  0  0  0  0  0  0  0  0  0
  145.8763  136.5940  153.0003 C   0  0  0  0  0  0  0  0  0  0  0  0
  146.5293  135.5829  153.9579 C   0  0  0  0  0  0  0  0  0  0  0  0
  148.1527  134.8473  159.6506 S   0  0  0  0  0  0  0  0  0  0  0  0
  146.1336  135.3735  162.3655 H   0  0  0  0  0  0  0  0  0  0  0  0
  147.6651  135.7839  163.1598 H   0  0  0  0  0  0  0  0  0  0  0  0
  147.4687  134.2082  162.3758 H   0  0  0  0  0  0  0  0  0  0  0  0
  148.3740  135.9194  155.3205 H   0  0  0  0  0  0  0  0  0  0  0  0
  149.9734  134.4560  154.0450 H   0  0  0  0  0  0  0  0  0  0  0  0
  149.7536  133.2734  155.3311 H   0  0  0  0  0  0  0  0  0  0  0  0
  147.2876  133.2403  154.8621 H   0  0  0  0  0  0  0  0  0  0  0  0
  148.8451  131.5108  153.8487 H   0  0  0  0  0  0  0  0  0  0  0  0
  148.9760  132.5051  152.4068 H   0  0  0  0  0  0  0  0  0  0  0  0
  147.4456  131.7606  152.8607 H   0  0  0  0  0  0  0  0  0  0  0  0
  147.0065  133.2714  151.5235 H   0  0  0  0  0  0  0  0  0  0  0  0
  145.6577  133.3432  152.6386 H   0  0  0  0  0  0  0  0  0  0  0  0
  146.5584  135.5558  150.7038 H   0  0  0  0  0  0  0  0  0  0  0  0
  145.1316  134.5498  150.5459 H   0  0  0  0  0  0  0  0  0  0  0  0
  146.6339  137.1768  152.4735 H   0  0  0  0  0  0  0  0  0  0  0  0
  145.2673  137.3018  153.5628 H   0  0  0  0  0  0  0  0  0  0  0  0
  145.7672  135.0989  154.5707 H   0  0  0  0  0  0  0  0  0  0  0  0
  147.1766  136.1505  154.6249 H   0  0  0  0  0  0  0  0  0  0  0  0
  148.0384  135.0493  152.7338 H   0  0  0  0  0  0  0  0  0  0  0  0
  1  2  1  0  0  0  0
  1 20  1  0  0  0  0
  1 21  1  0  0  0  0
  1 22  1  0  0  0  0
  2 19  1  0  0  0  0
  2  3  2  0  0  0  0
  3  4  1  0  0  0  0
  4  5  2  0  0  0  0
  5  6  1  0  0  0  0
  5 19  1  0  0  0  0
  6  7  1  0  0  0  0
  7  8  2  0  0  0  0
  7  9  1  0  0  0  0
  9 10  1  0  0  0  0
  9 23  1  0  0  0  0
 10 11  1  0  0  0  0
 10 24  1  0  0  0  0
 10 25  1  0  0  0  0
 11 12  1  0  0  0  0
 11 13  1  0  0  0  0
 11 26  1  0  0  0  0
 12 27  1  0  0  0  0
 12 28  1  0  0  0  0
 12 29  1  0  0  0  0
 13 18  1  0  0  0  0
 13 14  1  0  0  0  0
 13 38  1  0  0  0  0
 14 15  1  0  0  0  0
 14 30  1  0  0  0  0
 14 31  1  0  0  0  0
 15 16  1  0  0  0  0
 15 32  1  0  0  0  0
 15 33  1  0  0  0  0
 16 17  1  0  0  0  0
 17 18  1  0  0  0  0
 17 34  1  0  0  0  0
 17 35  1  0  0  0  0
 18 36  1  0  0  0  0
 18 37  1  0  0  0  0
M  CHG  1   6  -1
M  CHG  1  13   1
M  END
> <s_m_source_file>
AV-unprocessed.smi

> <i_m_source_file_index>
2069

> <i_lp_mmshare_version>
43012

> <i_f3d_flags>
0

> <s_epik_input>
W0NIM11jMW5uYyhzMSlbTkhdQyg9TylbTkhdW0NIMl1bQ0BIXShbQ0gzXSlOMltDSDJdW0NIMl1PW0NIMl1bQ0gyXTI=

> <s_epik_cmdline>
J2VwaWtfcHl0aG9uJywgJy1waCcsICc3LjAnLCAnLXRuJywgJzgnLCAnLW1hJywgJzIwMCcsICctbWV0YWxfYmluZGluZycsICctaW1hZScsICc8aW5maWxlLm1hZT4nLCAnLW9tYWUnLCAnPG91dGZpbGUubWFlPic=

> <r_lp_tautomer_probability>
1

> <r_epik_Ionization_Penalty>
3.53072

> <r_epik_Ionization_Penalty_Charging>
3.4216

> <r_epik_Ionization_Penalty_Neutral>
0.109115

> <r_epik_State_Penalty>
3.61496

> <r_epik_Charging_Adjusted_Penalty>
7.03656

> <i_epik_Tot_Q>
0

> <i_epik_Tot_abs_Q>
2

> <r_epik_Metal_State_Penalty>
1.13918

> <b_epik_Metal_Only>
1

> <s_lp_Force_Field>
OPLS_2005

> <r_lp_Energy>
13.5119

> <b_lp_Chiralities_Consistent>
1

> <s_lp_Variant>
AV-unprocessed.smi:2069-7

> <Gold.Version>
5.8.1

> <Gold.Id.Protein>
6NUR|6NUR_protein|mol2

> <Gold.PLP.Fitness>
38.4958

> <Gold.PLP.PLP>
-28.1355

> <Gold.PLP.part.hbond>
-5.6056

> <Gold.PLP.part.metal>
0.0000

> <Gold.PLP.part.buried>
-3.3053

> <Gold.PLP.part.nonpolar>
-19.1708

> <Gold.PLP.part.repulsive>
0.1520

> <Gold.PLP.ligand.clash>
0.0000

> <Gold.PLP.ligand.torsion>
0.9004

> <Gold.PLP.Chemscore.Hbond>
4.0312

> <Gold.PLP.Chemscore.CHOScore>
0.0000

> <Gold.PLP.Chemscore.Metal>
0.0000

> <Gold.Chemscore.Hbonds>
donor molecule, donor type, donor heavy atom, donor atom, acceptor molecule, acceptor atom, score
      L1  H    13    38       P1  7948  2.00
      P1  H  6896  6909       L1     8  0.80
      P1  H  6931  6943       L1     3  0.88
      P1  H  6934  6947       L1     3  0.33

> <Gold.PLP.Chemscore.Internal.Correction>
0.0674

> <Gold.Rescore>
     Score         DG    S(hbond)    S(metal)    S(lipo)     H(rot)  DE(clash)    DE(int)     intcor
     13.18     -15.84       2.66        0.00      48.01       1.62       0.09       2.58       ----

> <Gold.Chemscore.Fitness>
13.1762

> <Gold.Chemscore.DG>
-15.8436

> <Gold.Chemscore.ZeroCoef>
-5.4800

> <Gold.Chemscore.Hbond>
2.6623

> <Gold.Chemscore.Metal>
0.0000

> <Gold.Chemscore.Lipo>
48.0073

> <Gold.Chemscore.Internal_Hbond>
0.0000

> <Gold.Chemscore.DEClash>
0.0859

> <Gold.Chemscore.DEInternal>
2.5815

> <Gold.Chemscore.Rot>
1.6192

> <Gold.Chemscore.Internal.Correction>
   9.000000E+99

> <Gold.Chemscore.Hbonds>
donor molecule, donor type, donor heavy atom, donor atom, acceptor molecule, acceptor atom, score
      L1  H    13    38       P1  7948  0.94
      P1  H  6896  6909       L1     8  0.74
      P1  H  6931  6943       L1     3  0.22
      P1  H  6934  6947       L1     3  0.01

> <Gold.Chemscore.Hbond.Weighted>
-8.8920

> <Gold.Chemscore.Metal.Weighted>
-0.0000

> <Gold.Chemscore.Lipo.Weighted>
-5.6169

> <Gold.Chemscore.Internal_Hbond.Weighted>
0.0000

> <Gold.Chemscore.DEClash.Weighted>
0.0859

> <Gold.Chemscore.DEInternal.Weighted>
2.5815

> <Gold.Chemscore.Rot.Weighted>
4.1452

> <Gold.Chemscore.Internal.Correction.Weighted>
   9.000000E+99

> <Gold.Protein.RotatedTorsions>
[ 6907 6896 6895 6894 ] final   15.60 input  -60.11 | X-H torsion
[ 7974 7965 7964 7962 ] final  141.84 input  175.53 | X-H torsion
[ 8008 7997 7996 7995 ] final -146.57 input   59.86 | X-H torsion
[ 10167 10162 10161 10158 ] final  -15.90 input  -65.29 | X-H torsion
[ 10718 10713 10712 10709 ] final -143.50 input   66.30 | X-H torsion
[ 10763 10752 10751 10750 ] final  -39.74 input  -60.55 | X-H torsion
[ 11005 11000 10999 10996 ] final   53.39 input  -57.11 | X-H torsion

> <Gold.Protein.ActiveResidues>
 VAL166  LYS551  ARG553  GLY616  TRP617  ASP618  TYR619  PRO620  LYS621  CYS622 
 ASP623  PHE694  ASN695  SER759  ASP760  ASP761  ALA762  ILE779  LEU786  VAL792 
 PHE793  MET794  SER795  GLU796  ALA797  LYS798  CYS799  TRP800  GLU811  SER814 

> <Gold.Protein.RotatedAtoms>
  151.8206  135.0653  160.0424 H   0  0  0  0  0  0  0  0  0  0  0  0  # atno 6907 bound_to 6896
  152.2954  133.5597  159.5592 H   0  0  0  0  0  0  0  0  0  0  0  0  # atno 6908 bound_to 6896
  150.7248  134.0285  159.3767 H   0  0  0  0  0  0  0  0  0  0  0  0  # atno 6909 bound_to 6896
  144.9061  139.5356  143.5731 H   0  0  0  0  0  0  0  0  0  0  0  0  # atno 7974 bound_to 7965
  155.5616  140.0626  157.2827 H   0  0  0  0  0  0  0  0  0  0  0  0  # atno 8008 bound_to 7997
  154.4388  140.1884  156.0833 H   0  0  0  0  0  0  0  0  0  0  0  0  # atno 8009 bound_to 7997
  156.0442  140.3292  155.7282 H   0  0  0  0  0  0  0  0  0  0  0  0  # atno 8010 bound_to 7997
  140.7225  143.5171  150.9678 H   0  0  0  0  0  0  0  0  0  0  0  0  # atno 10167 bound_to 10162
  156.3587  130.7726  151.1891 H   0  0  0  0  0  0  0  0  0  0  0  0  # atno 10718 bound_to 10713
  153.9345  135.6768  153.4745 H   0  0  0  0  0  0  0  0  0  0  0  0  # atno 10763 bound_to 10752
  153.0963  135.4850  154.8781 H   0  0  0  0  0  0  0  0  0  0  0  0  # atno 10764 bound_to 10752
  154.7410  135.3161  154.8685 H   0  0  0  0  0  0  0  0  0  0  0  0  # atno 10765 bound_to 10752
  140.0771  134.5390  155.8985 H   0  0  0  0  0  0  0  0  0  0  0  0  # atno 11005 bound_to 11000
  146.3134  139.7830  142.9002 LP  0  0  0  0  0  0  0  0  0  0  0  0  # atno 17320 bound_to 7965
  145.3534  141.0312  143.3326 LP  0  0  0  0  0  0  0  0  0  0  0  0  # atno 17321 bound_to 7965
  139.8887  143.6980  152.3148 LP  0  0  0  0  0  0  0  0  0  0  0  0  # atno 17342 bound_to 10162
  139.7288  144.7587  151.0835 LP  0  0  0  0  0  0  0  0  0  0  0  0  # atno 17343 bound_to 10162
  157.7471  131.0406  150.4608 LP  0  0  0  0  0  0  0  0  0  0  0  0  # atno 17370 bound_to 10713
  156.4815  130.4075  149.6459 LP  0  0  0  0  0  0  0  0  0  0  0  0  # atno 17371 bound_to 10713
  141.2033  133.6631  156.6057 LP  0  0  0  0  0  0  0  0  0  0  0  0  # atno 17394 bound_to 11000
  140.3542  134.7743  157.4488 LP  0  0  0  0  0  0  0  0  0  0  0  0  # atno 17395 bound_to 11000

$$$$
