AV-unprocessed.smi:2718|AV-procd|sdf|10489|dock4
  -GOLD-   2272014533D 1   1.00000     0.00000
 Structure written by MMmdl.
 47 48  0  0  0  0  0  0  0  0  1 V2000
  152.3275  144.1054  159.7745 C   0  0  0  0  0  0  0  0  0  0  0  0
  152.3181  142.6182  159.4815 C   0  0  0  0  0  0  0  0  0  0  0  0
  153.2863  141.8002  160.3182 C   0  0  0  0  0  0  0  0  0  0  0  0
  151.5085  142.0867  158.5457 C   0  0  0  0  0  0  0  0  0  0  0  0
  151.4146  140.6537  158.1616 C   0  0  1  0  0  0  0  0  0  0  0  0
  150.0759  139.9398  158.1711 C   0  0  2  0  0  0  0  0  0  0  0  0
  150.0141  138.5321  158.6759 C   0  0  0  0  0  0  0  0  0  0  0  0
  150.9677  137.9469  159.1902 O   0  0  0  0  0  0  0  0  0  0  0  0
  148.8044  137.9695  158.5406 N   0  0  0  0  0  0  0  0  0  0  0  0
  148.4378  136.6332  159.0009 C   0  0  0  0  0  0  0  0  0  0  0  0
  147.0131  136.5737  159.5964 C   0  0  2  0  0  0  0  0  0  0  0  0
  146.1124  137.6811  159.0299 C   0  0  0  0  0  0  0  0  0  0  0  0
  147.0134  136.5739  161.1026 C   0  0  0  0  0  0  0  0  0  0  0  0
  147.3604  137.6374  161.8401 N   0  0  0  0  0  0  0  0  0  0  0  0
  147.2527  137.2332  163.1553 N   0  0  0  0  0  0  0  0  0  0  0  0
  146.8518  135.9649  163.0835 C   0  0  0  0  0  0  0  0  0  0  0  0
  146.6833  135.4914  161.8399 N   0  0  0  0  0  0  0  0  0  0  0  0
  146.2620  134.1650  161.4336 C   0  0  0  0  0  0  0  0  0  0  0  0
  150.7766  140.2286  156.8483 C   0  0  0  0  0  0  0  0  0  0  0  0
  150.1189  141.2391  155.9203 C   0  0  0  0  0  0  0  0  0  0  0  0
  151.4679  139.1553  156.0156 C   0  0  0  0  0  0  0  0  0  0  0  0
  152.0658  144.2875  160.8171 H   0  0  0  0  0  0  0  0  0  0  0  0
  151.6158  144.6434  159.1474 H   0  0  0  0  0  0  0  0  0  0  0  0
  153.3197  144.5193  159.5927 H   0  0  0  0  0  0  0  0  0  0  0  0
  154.3108  142.1167  160.1218 H   0  0  0  0  0  0  0  0  0  0  0  0
  153.2193  140.7328  160.1107 H   0  0  0  0  0  0  0  0  0  0  0  0
  153.0818  141.9464  161.3788 H   0  0  0  0  0  0  0  0  0  0  0  0
  150.8469  142.7476  158.0048 H   0  0  0  0  0  0  0  0  0  0  0  0
  152.2818  140.0913  158.5038 H   0  0  0  0  0  0  0  0  0  0  0  0
  149.1981  140.5481  158.3868 H   0  0  0  0  0  0  0  0  0  0  0  0
  148.0733  138.5183  158.1112 H   0  0  0  0  0  0  0  0  0  0  0  0
  148.5014  135.9693  158.1384 H   0  0  0  0  0  0  0  0  0  0  0  0
  149.1722  136.2702  159.7218 H   0  0  0  0  0  0  0  0  0  0  0  0
  146.5757  135.6336  159.2617 H   0  0  0  0  0  0  0  0  0  0  0  0
  145.0901  137.5788  159.3950 H   0  0  0  0  0  0  0  0  0  0  0  0
  146.0797  137.6413  157.9408 H   0  0  0  0  0  0  0  0  0  0  0  0
  146.4709  138.6710  159.3148 H   0  0  0  0  0  0  0  0  0  0  0  0
  146.6781  135.3644  163.9644 H   0  0  0  0  0  0  0  0  0  0  0  0
  146.0261  133.5613  162.3105 H   0  0  0  0  0  0  0  0  0  0  0  0
  147.0614  133.6779  160.8752 H   0  0  0  0  0  0  0  0  0  0  0  0
  145.3737  134.2355  160.8056 H   0  0  0  0  0  0  0  0  0  0  0  0
  149.4039  140.7406  155.2650 H   0  0  0  0  0  0  0  0  0  0  0  0
  150.8688  141.7359  155.3043 H   0  0  0  0  0  0  0  0  0  0  0  0
  149.5835  142.0020  156.4862 H   0  0  0  0  0  0  0  0  0  0  0  0
  150.7283  138.5082  155.5439 H   0  0  0  0  0  0  0  0  0  0  0  0
  152.1321  138.5408  156.6222 H   0  0  0  0  0  0  0  0  0  0  0  0
  152.0750  139.6135  155.2343 H   0  0  0  0  0  0  0  0  0  0  0  0
  1  2  1  0  0  0  0
  1 22  1  0  0  0  0
  1 23  1  0  0  0  0
  1 24  1  0  0  0  0
  2  3  1  0  0  0  0
  2  4  2  0  0  0  0
  3 25  1  0  0  0  0
  3 26  1  0  0  0  0
  3 27  1  0  0  0  0
  4  5  1  0  0  0  0
  4 28  1  0  0  0  0
  5 19  1  0  0  0  0
  5  6  1  0  0  0  0
  5 29  1  0  0  0  0
  6  7  1  0  0  0  0
  6 19  1  0  0  0  0
  6 30  1  0  0  0  0
  7  8  2  0  0  0  0
  7  9  1  0  0  0  0
  9 10  1  0  0  0  0
  9 31  1  0  0  0  0
 10 11  1  0  0  0  0
 10 32  1  0  0  0  0
 10 33  1  0  0  0  0
 11 12  1  0  0  0  0
 11 13  1  0  0  0  0
 11 34  1  0  0  0  0
 12 35  1  0  0  0  0
 12 36  1  0  0  0  0
 12 37  1  0  0  0  0
 13 17  1  0  0  0  0
 13 14  2  0  0  0  0
 14 15  1  0  0  0  0
 15 16  2  0  0  0  0
 16 17  1  0  0  0  0
 16 38  1  0  0  0  0
 17 18  1  0  0  0  0
 18 39  1  0  0  0  0
 18 40  1  0  0  0  0
 18 41  1  0  0  0  0
 19 20  1  0  0  0  0
 19 21  1  0  0  0  0
 20 42  1  0  0  0  0
 20 43  1  0  0  0  0
 20 44  1  0  0  0  0
 21 45  1  0  0  0  0
 21 46  1  0  0  0  0
 21 47  1  0  0  0  0
M  END
> <s_m_source_file>
AV-unprocessed.smi

> <i_m_source_file_index>
2718

> <i_lp_mmshare_version>
43012

> <i_f3d_flags>
0

> <s_epik_input>
W0NIM11DKFtDSDNdKT1bQ0hdW0NAQEhdKEMxKFtDSDNdKVtDSDNdKVtDQEhdMUMoPU8pW05IXVtDSDJdW0NASF0oW0NIM10pYzJubltjSF1uMltDSDNd

> <s_epik_cmdline>
J2VwaWtfcHl0aG9uJywgJy1waCcsICc3LjAnLCAnLXRuJywgJzgnLCAnLW1hJywgJzIwMCcsICctbWV0YWxfYmluZGluZycsICctaW1hZScsICc8aW5maWxlLm1hZT4nLCAnLW9tYWUnLCAnPG91dGZpbGUubWFlPic=

> <r_lp_tautomer_probability>
1

> <r_epik_Ionization_Penalty>
0.000449586

> <r_epik_Ionization_Penalty_Charging>
0

> <r_epik_Ionization_Penalty_Neutral>
0.000449586

> <r_epik_State_Penalty>
0.000243372

> <r_epik_Charging_Adjusted_Penalty>
0.000243372

> <i_epik_Tot_Q>
0

> <i_epik_Tot_abs_Q>
0

> <r_epik_Metal_State_Penalty>
-0

> <b_epik_Metal_Only>
0

> <s_lp_Force_Field>
OPLS_2005

> <r_lp_Energy>
15.8619

> <b_lp_Chiralities_Consistent>
1

> <s_lp_Variant>
AV-unprocessed.smi:2718-4

> <Gold.Version>
5.8.1

> <Gold.Id.Protein>
6NUR|6NUR_protein|mol2

> <Gold.PLP.Fitness>
46.6294

> <Gold.PLP.PLP>
-43.8431

> <Gold.PLP.part.hbond>
-2.7717

> <Gold.PLP.part.metal>
0.0000

> <Gold.PLP.part.buried>
-5.9791

> <Gold.PLP.part.nonpolar>
-36.8064

> <Gold.PLP.part.repulsive>
0.1752

> <Gold.PLP.ligand.clash>
0.0000

> <Gold.PLP.ligand.torsion>
1.1437

> <Gold.PLP.Chemscore.Hbond>
1.6084

> <Gold.PLP.Chemscore.CHOScore>
0.0000

> <Gold.PLP.Chemscore.Metal>
0.0000

> <Gold.Chemscore.Hbonds>
donor molecule, donor type, donor heavy atom, donor atom, acceptor molecule, acceptor atom, score
      P1  H  6931  6943       L1    14  0.60
      P1  H  6934  6947       L1    14  0.67

> <Gold.PLP.Chemscore.Internal.Correction>
0.2486

> <Gold.Rescore>
     Score         DG    S(hbond)    S(metal)    S(lipo)     H(rot)  DE(clash)    DE(int)     intcor
     13.35     -14.65       1.18        0.00      87.29       1.95       0.04       1.25       ----

> <Gold.Chemscore.Fitness>
13.3536

> <Gold.Chemscore.DG>
-14.6467

> <Gold.Chemscore.ZeroCoef>
-5.4800

> <Gold.Chemscore.Hbond>
1.1841

> <Gold.Chemscore.Metal>
0.0000

> <Gold.Chemscore.Lipo>
87.2857

> <Gold.Chemscore.Internal_Hbond>
0.0000

> <Gold.Chemscore.DEClash>
0.0414

> <Gold.Chemscore.DEInternal>
1.2518

> <Gold.Chemscore.Rot>
1.9533

> <Gold.Chemscore.Internal.Correction>
   9.000000E+99

> <Gold.Chemscore.Hbonds>
donor molecule, donor type, donor heavy atom, donor atom, acceptor molecule, acceptor atom, score
      P1  H  6931  6943       L1    14  0.12
      P1  H  6934  6947       L1    14  0.52

> <Gold.Chemscore.Hbond.Weighted>
-3.9548

> <Gold.Chemscore.Metal.Weighted>
-0.0000

> <Gold.Chemscore.Lipo.Weighted>
-10.2124

> <Gold.Chemscore.Internal_Hbond.Weighted>
0.0000

> <Gold.Chemscore.DEClash.Weighted>
0.0414

> <Gold.Chemscore.DEInternal.Weighted>
1.2518

> <Gold.Chemscore.Rot.Weighted>
5.0005

> <Gold.Chemscore.Internal.Correction.Weighted>
   9.000000E+99

> <Gold.Protein.RotatedTorsions>
[ 6907 6896 6895 6894 ] final  105.84 input  -60.11 | X-H torsion
[ 7974 7965 7964 7962 ] final  161.21 input  175.53 | X-H torsion
[ 8008 7997 7996 7995 ] final  117.71 input   59.86 | X-H torsion
[ 10167 10162 10161 10158 ] final   20.27 input  -65.29 | X-H torsion
[ 10718 10713 10712 10709 ] final  -27.05 input   66.30 | X-H torsion
[ 10763 10752 10751 10750 ] final -166.51 input  -60.55 | X-H torsion
[ 11005 11000 10999 10996 ] final  -33.65 input  -57.11 | X-H torsion

> <Gold.Protein.ActiveResidues>
 VAL166  LYS551  ARG553  GLY616  TRP617  ASP618  TYR619  PRO620  LYS621  CYS622 
 ASP623  PHE694  ASN695  SER759  ASP760  ASP761  ALA762  ILE779  LEU786  VAL792 
 PHE793  MET794  SER795  GLU796  ALA797  LYS798  CYS799  TRP800  GLU811  SER814 

> <Gold.Protein.RotatedAtoms>
  152.5216  133.9470  159.7653 H   0  0  0  0  0  0  0  0  0  0  0  0  # atno 6907 bound_to 6896
  150.9788  133.6259  159.2733 H   0  0  0  0  0  0  0  0  0  0  0  0  # atno 6908 bound_to 6896
  151.3444  135.0876  159.9435 H   0  0  0  0  0  0  0  0  0  0  0  0  # atno 6909 bound_to 6896
  144.7697  139.7866  143.6301 H   0  0  0  0  0  0  0  0  0  0  0  0  # atno 7974 bound_to 7965
  156.2509  140.2890  156.0721 H   0  0  0  0  0  0  0  0  0  0  0  0  # atno 8008 bound_to 7997
  155.1659  140.0400  157.2870 H   0  0  0  0  0  0  0  0  0  0  0  0  # atno 8009 bound_to 7997
  154.6360  140.2511  155.7385 H   0  0  0  0  0  0  0  0  0  0  0  0  # atno 8010 bound_to 7997
  140.5516  143.9499  150.6582 H   0  0  0  0  0  0  0  0  0  0  0  0  # atno 10167 bound_to 10162
  156.4432  130.4468  149.7039 H   0  0  0  0  0  0  0  0  0  0  0  0  # atno 10718 bound_to 10713
  154.6826  135.2957  154.9592 H   0  0  0  0  0  0  0  0  0  0  0  0  # atno 10763 bound_to 10752
  154.0582  135.6635  153.4812 H   0  0  0  0  0  0  0  0  0  0  0  0  # atno 10764 bound_to 10752
  153.0557  135.5146  154.7877 H   0  0  0  0  0  0  0  0  0  0  0  0  # atno 10765 bound_to 10752
  140.9652  133.7141  156.1434 H   0  0  0  0  0  0  0  0  0  0  0  0  # atno 11005 bound_to 11000
  146.1834  139.5037  142.9852 LP  0  0  0  0  0  0  0  0  0  0  0  0  # atno 17320 bound_to 7965
  145.6361  141.0294  143.1837 LP  0  0  0  0  0  0  0  0  0  0  0  0  # atno 17321 bound_to 7965
  140.2926  143.3314  152.1047 LP  0  0  0  0  0  0  0  0  0  0  0  0  # atno 17342 bound_to 10162
  139.5030  144.6746  151.6161 LP  0  0  0  0  0  0  0  0  0  0  0  0  # atno 17343 bound_to 10162
  156.3895  130.7620  151.2620 LP  0  0  0  0  0  0  0  0  0  0  0  0  # atno 17370 bound_to 10713
  157.7505  131.0272  150.3995 LP  0  0  0  0  0  0  0  0  0  0  0  0  # atno 17371 bound_to 10713
  140.7409  134.4151  157.5555 LP  0  0  0  0  0  0  0  0  0  0  0  0  # atno 17394 bound_to 11000
  139.8892  134.8836  156.2433 LP  0  0  0  0  0  0  0  0  0  0  0  0  # atno 17395 bound_to 11000

$$$$
