AV-unprocessed.smi:3243|AV-procd|sdf|12395|dock6
  -GOLD-   2272018263D 1   1.00000     0.00000
 Structure written by MMmdl.
 37 38  0  0  0  0  0  0  0  0  1 V2000
  150.1988  143.2543  158.5715 C   0  0  0  0  0  0  0  0  0  0  0  0
  151.4125  144.0178  159.1207 C   0  0  0  0  0  0  0  0  0  0  0  0
  152.2077  144.7278  158.0156 C   0  0  0  0  0  0  0  0  0  0  0  0
  152.2862  143.1408  159.9632 C   0  0  0  0  0  0  0  0  0  0  0  0
  152.9365  142.0759  159.4853 N   0  0  0  0  0  0  0  0  0  0  0  0
  153.6931  141.4196  160.4614 C   0  0  0  0  0  0  0  0  0  0  0  0
  154.4920  140.2049  160.0980 C   0  0  0  0  0  0  0  0  0  0  0  0
  153.6066  138.9614  159.9118 C   0  0  0  0  0  0  0  0  0  0  0  0
  152.4668  139.2376  159.0449 N   0  0  0  0  0  0  0  0  0  0  0  0
  152.4858  139.1875  157.7044 C   0  0  0  0  0  0  0  0  0  0  0  0
  153.4984  138.9074  157.0615 O   0  0  0  0  0  0  0  0  0  0  0  0
  151.1654  139.5013  157.0725 C   0  0  1  0  0  0  0  0  0  0  0  0
  151.0738  140.7176  156.1715 C   0  0  0  0  0  0  0  0  0  0  0  0
  150.9851  139.3356  155.5694 C   0  0  1  0  0  0  0  0  0  0  0  0
  152.0654  138.8249  154.6319 C   0  0  0  0  0  0  0  0  0  0  0  0
  153.6076  142.0074  161.6985 C   0  0  0  0  0  0  0  0  0  0  0  0
  152.5728  143.4084  161.6816 S   0  0  0  0  0  0  0  0  0  0  0  0
  149.6090  142.8228  159.3808 H   0  0  0  0  0  0  0  0  0  0  0  0
  150.5042  142.4418  157.9116 H   0  0  0  0  0  0  0  0  0  0  0  0
  149.5441  143.9149  158.0027 H   0  0  0  0  0  0  0  0  0  0  0  0
  151.0212  144.7987  159.7749 H   0  0  0  0  0  0  0  0  0  0  0  0
  153.0237  145.3160  158.4363 H   0  0  0  0  0  0  0  0  0  0  0  0
  151.5705  145.4069  157.4487 H   0  0  0  0  0  0  0  0  0  0  0  0
  152.6385  144.0142  157.3127 H   0  0  0  0  0  0  0  0  0  0  0  0
  155.0542  140.3960  159.1829 H   0  0  0  0  0  0  0  0  0  0  0  0
  155.2375  140.0084  160.8694 H   0  0  0  0  0  0  0  0  0  0  0  0
  154.1860  138.1566  159.4584 H   0  0  0  0  0  0  0  0  0  0  0  0
  153.2617  138.5889  160.8780 H   0  0  0  0  0  0  0  0  0  0  0  0
  151.5969  139.4778  159.4981 H   0  0  0  0  0  0  0  0  0  0  0  0
  150.2887  139.2694  157.6756 H   0  0  0  0  0  0  0  0  0  0  0  0
  150.1608  141.3066  156.2292 H   0  0  0  0  0  0  0  0  0  0  0  0
  151.9765  141.2952  155.9799 H   0  0  0  0  0  0  0  0  0  0  0  0
  149.9929  138.9955  155.2790 H   0  0  0  0  0  0  0  0  0  0  0  0
  153.0119  139.3408  154.7894 H   0  0  0  0  0  0  0  0  0  0  0  0
  151.7639  138.9881  153.5972 H   0  0  0  0  0  0  0  0  0  0  0  0
  152.2179  137.7562  154.7824 H   0  0  0  0  0  0  0  0  0  0  0  0
  154.0909  141.7032  162.6152 H   0  0  0  0  0  0  0  0  0  0  0  0
  1  2  1  0  0  0  0
  1 18  1  0  0  0  0
  1 19  1  0  0  0  0
  1 20  1  0  0  0  0
  2  3  1  0  0  0  0
  2  4  1  0  0  0  0
  2 21  1  0  0  0  0
  3 22  1  0  0  0  0
  3 23  1  0  0  0  0
  3 24  1  0  0  0  0
  4 17  1  0  0  0  0
  4  5  2  0  0  0  0
  5  6  1  0  0  0  0
  6  7  1  0  0  0  0
  6 16  2  0  0  0  0
  7  8  1  0  0  0  0
  7 25  1  0  0  0  0
  7 26  1  0  0  0  0
  8  9  1  0  0  0  0
  8 27  1  0  0  0  0
  8 28  1  0  0  0  0
  9 10  1  0  0  0  0
  9 29  1  0  0  0  0
 10 11  2  0  0  0  0
 10 12  1  0  0  0  0
 12 14  1  0  0  0  0
 12 13  1  0  0  0  0
 12 30  1  0  0  0  0
 13 14  1  0  0  0  0
 13 31  1  0  0  0  0
 13 32  1  0  0  0  0
 14 15  1  0  0  0  0
 14 33  1  0  0  0  0
 15 34  1  0  0  0  0
 15 35  1  0  0  0  0
 15 36  1  0  0  0  0
 16 17  1  0  0  0  0
 16 37  1  0  0  0  0
M  END
> <s_m_source_file>
AV-unprocessed.smi

> <i_m_source_file_index>
3243

> <i_lp_mmshare_version>
43012

> <i_f3d_flags>
0

> <s_epik_input>
W0NIM11bQ0hdKFtDSDNdKWMxbmMoW2NIXXMxKVtDSDJdW0NIMl1bTkhdQyg9TylbQ0BASF0yW0NIMl1bQ0BIXTJbQ0gzXQ==

> <s_epik_cmdline>
J2VwaWtfcHl0aG9uJywgJy1waCcsICc3LjAnLCAnLXRuJywgJzgnLCAnLW1hJywgJzIwMCcsICctbWV0YWxfYmluZGluZycsICctaW1hZScsICc8aW5maWxlLm1hZT4nLCAnLW9tYWUnLCAnPG91dGZpbGUubWFlPic=

> <r_epik_Ionization_Penalty>
0.00084212

> <r_epik_Ionization_Penalty_Charging>
0

> <r_epik_Ionization_Penalty_Neutral>
0.00084212

> <r_epik_State_Penalty>
0.000542609

> <r_epik_Charging_Adjusted_Penalty>
0.000542609

> <i_epik_Tot_Q>
0

> <i_epik_Tot_abs_Q>
0

> <r_epik_Metal_State_Penalty>
-0

> <b_epik_Metal_Only>
0

> <s_lp_Force_Field>
OPLS_2005

> <r_lp_Energy>
-2.57645

> <b_lp_Chiralities_Consistent>
1

> <s_lp_Variant>
AV-unprocessed.smi:3243-2

> <Gold.Version>
5.8.1

> <Gold.Id.Protein>
6NUR|6NUR_protein|mol2

> <Gold.PLP.Fitness>
46.3347

> <Gold.PLP.PLP>
-44.1131

> <Gold.PLP.part.hbond>
-0.9144

> <Gold.PLP.part.metal>
0.0000

> <Gold.PLP.part.buried>
-5.4204

> <Gold.PLP.part.nonpolar>
-37.5208

> <Gold.PLP.part.repulsive>
0.1033

> <Gold.PLP.ligand.clash>
0.0000

> <Gold.PLP.ligand.torsion>
0.4686

> <Gold.PLP.Chemscore.Hbond>
1.0000

> <Gold.PLP.Chemscore.CHOScore>
0.0000

> <Gold.PLP.Chemscore.Metal>
0.0000

> <Gold.Chemscore.Hbonds>
donor molecule, donor type, donor heavy atom, donor atom, acceptor molecule, acceptor atom, score
      P1  H  7997  8008       L1    11  0.99

> <Gold.PLP.Chemscore.Internal.Correction>
0.1589

> <Gold.Rescore>
     Score         DG    S(hbond)    S(metal)    S(lipo)     H(rot)  DE(clash)    DE(int)     intcor
     17.71     -19.71       0.98        0.00     126.23       1.49       0.07       1.93       ----

> <Gold.Chemscore.Fitness>
17.7073

> <Gold.Chemscore.DG>
-19.7121

> <Gold.Chemscore.ZeroCoef>
-5.4800

> <Gold.Chemscore.Hbond>
0.9789

> <Gold.Chemscore.Metal>
0.0000

> <Gold.Chemscore.Lipo>
126.2328

> <Gold.Chemscore.Internal_Hbond>
0.0000

> <Gold.Chemscore.DEClash>
0.0701

> <Gold.Chemscore.DEInternal>
1.9346

> <Gold.Chemscore.Rot>
1.4870

> <Gold.Chemscore.Internal.Correction>
   9.000000E+99

> <Gold.Chemscore.Hbonds>
donor molecule, donor type, donor heavy atom, donor atom, acceptor molecule, acceptor atom, score
      P1  H  7997  8008       L1    11  0.83

> <Gold.Chemscore.Hbond.Weighted>
-3.2695

> <Gold.Chemscore.Metal.Weighted>
-0.0000

> <Gold.Chemscore.Lipo.Weighted>
-14.7692

> <Gold.Chemscore.Internal_Hbond.Weighted>
0.0000

> <Gold.Chemscore.DEClash.Weighted>
0.0701

> <Gold.Chemscore.DEInternal.Weighted>
1.9346

> <Gold.Chemscore.Rot.Weighted>
3.8067

> <Gold.Chemscore.Internal.Correction.Weighted>
   9.000000E+99

> <Gold.Protein.RotatedTorsions>
[ 6907 6896 6895 6894 ] final -109.44 input  -60.11 | X-H torsion
[ 7974 7965 7964 7962 ] final -131.88 input  175.53 | X-H torsion
[ 8008 7997 7996 7995 ] final  -80.94 input   59.86 | X-H torsion
[ 10167 10162 10161 10158 ] final  -39.33 input  -65.29 | X-H torsion
[ 10718 10713 10712 10709 ] final  143.35 input   66.30 | X-H torsion
[ 10763 10752 10751 10750 ] final  177.09 input  -60.55 | X-H torsion
[ 11005 11000 10999 10996 ] final  -68.97 input  -57.11 | X-H torsion

> <Gold.Protein.ActiveResidues>
 VAL166  LYS551  ARG553  GLY616  TRP617  ASP618  TYR619  PRO620  LYS621  CYS622 
 ASP623  PHE694  ASN695  SER759  ASP760  ASP761  ALA762  ILE779  LEU786  VAL792 
 PHE793  MET794  SER795  GLU796  ALA797  LYS798  CYS799  TRP800  GLU811  SER814 

> <Gold.Protein.RotatedAtoms>
  150.7562  133.9530  159.3491 H   0  0  0  0  0  0  0  0  0  0  0  0  # atno 6907 bound_to 6896
  151.7448  135.0844  160.0331 H   0  0  0  0  0  0  0  0  0  0  0  0  # atno 6908 bound_to 6896
  152.3505  133.6136  159.5977 H   0  0  0  0  0  0  0  0  0  0  0  0  # atno 6909 bound_to 6896
  144.9337  140.7159  143.4890 H   0  0  0  0  0  0  0  0  0  0  0  0  # atno 7974 bound_to 7965
  154.5933  140.0655  156.9269 H   0  0  0  0  0  0  0  0  0  0  0  0  # atno 8008 bound_to 7997
  155.2258  140.3333  155.4291 H   0  0  0  0  0  0  0  0  0  0  0  0  # atno 8009 bound_to 7997
  156.2270  140.1824  156.7322 H   0  0  0  0  0  0  0  0  0  0  0  0  # atno 8010 bound_to 7997
  140.7067  143.3221  151.2768 H   0  0  0  0  0  0  0  0  0  0  0  0  # atno 10167 bound_to 10162
  157.3699  131.0977  151.0837 H   0  0  0  0  0  0  0  0  0  0  0  0  # atno 10718 bound_to 10713
  154.4898  135.2778  155.1506 H   0  0  0  0  0  0  0  0  0  0  0  0  # atno 10763 bound_to 10752
  154.3182  135.6215  153.5499 H   0  0  0  0  0  0  0  0  0  0  0  0  # atno 10764 bound_to 10752
  152.9886  135.5736  154.5317 H   0  0  0  0  0  0  0  0  0  0  0  0  # atno 10765 bound_to 10752
  141.1544  133.6753  156.6528 H   0  0  0  0  0  0  0  0  0  0  0  0  # atno 11005 bound_to 11000
  145.3100  139.1822  143.4643 LP  0  0  0  0  0  0  0  0  0  0  0  0  # atno 17320 bound_to 7965
  146.3258  140.3103  142.8626 LP  0  0  0  0  0  0  0  0  0  0  0  0  # atno 17321 bound_to 7965
  139.6678  144.0074  152.2734 LP  0  0  0  0  0  0  0  0  0  0  0  0  # atno 17342 bound_to 10162
  139.9663  144.6524  150.8031 LP  0  0  0  0  0  0  0  0  0  0  0  0  # atno 17343 bound_to 10162
  157.1945  130.6367  149.5716 LP  0  0  0  0  0  0  0  0  0  0  0  0  # atno 17370 bound_to 10713
  155.9753  130.4711  150.6453 LP  0  0  0  0  0  0  0  0  0  0  0  0  # atno 17371 bound_to 10713
  140.3307  134.7931  157.4324 LP  0  0  0  0  0  0  0  0  0  0  0  0  # atno 17394 bound_to 11000
  140.1019  134.5461  155.8345 LP  0  0  0  0  0  0  0  0  0  0  0  0  # atno 17395 bound_to 11000

$$$$
