AV-unprocessed.smi:1645|AV-procd|sdf|6620|dock1
  -GOLD-   22720 7313D 1   1.00000     0.00000
 Structure written by MMmdl.
 55 58  0  0  0  0  0  0  0  0  4 V2000
  153.8618  141.3676  160.9998 O   0  0  0  0  0  0  0  0  0  0  0  0
  152.9333  142.1507  160.7763 C   0  0  0  0  0  0  0  0  0  0  0  0
  152.5318  143.0327  161.7094 N   0  0  0  0  0  0  0  0  0  0  0  0
  152.9985  143.2590  163.0347 C   0  0  0  0  0  0  0  0  0  0  0  0
  152.6165  144.4693  163.6492 C   0  0  0  0  0  0  0  0  0  0  0  0
  153.0397  144.7598  164.9619 C   0  0  0  0  0  0  0  0  0  0  0  0
  153.8500  143.8324  165.6631 C   0  0  0  0  0  0  0  0  0  0  0  0
  154.3256  144.0354  166.9784 N   0  0  0  0  0  0  0  0  0  0  0  0
  154.3986  142.8441  167.8307 C   0  0  0  0  0  0  0  0  0  0  0  0
  155.2966  143.0817  169.0566 C   0  0  0  0  0  0  0  0  0  0  0  0
  154.8635  144.3379  169.8247 C   0  0  0  0  0  0  0  0  0  0  0  0
  154.8474  145.5457  168.8784 C   0  0  0  0  0  0  0  0  0  0  0  0
  153.9554  145.2811  167.6536 C   0  0  0  0  0  0  0  0  0  0  0  0
  154.1954  142.6858  165.0296 N   0  3  0  0  0  0  0  0  0  0  0  0
  153.8136  142.3681  163.7737 C   0  0  0  0  0  0  0  0  0  0  0  0
  152.1947  142.2506  159.6385 N   0  5  0  0  0  0  0  0  0  0  0  0
  152.4350  143.2191  158.5609 C   0  0  2  0  0  0  0  0  0  0  0  0
  152.0028  144.6152  159.0238 C   0  0  0  0  0  0  0  0  0  0  0  0
  150.4953  144.7073  158.7189 C   0  0  0  0  0  0  0  0  0  0  0  0
  150.1787  143.6415  157.7336 N   0  3  2  0  0  0  0  0  0  0  0  0
  149.1117  142.7162  158.2121 C   0  0  0  0  0  0  0  0  0  0  0  0
  148.9489  141.4933  157.3022 C   0  0  0  0  0  0  0  0  0  0  0  0
  150.2636  140.7139  157.2386 C   0  0  0  0  0  0  0  0  0  0  0  0
  151.3705  141.6168  156.6779 C   0  0  0  0  0  0  0  0  0  0  0  0
  151.4756  143.0060  157.3686 C   0  0  2  0  0  0  0  0  0  0  0  0
  151.7621  143.6204  161.4242 H   0  0  0  0  0  0  0  0  0  0  0  0
  151.9956  145.1767  163.1189 H   0  0  0  0  0  0  0  0  0  0  0  0
  152.7218  145.6893  165.4087 H   0  0  0  0  0  0  0  0  0  0  0  0
  153.3890  142.5872  168.1539 H   0  0  0  0  0  0  0  0  0  0  0  0
  154.7819  141.9814  167.2865 H   0  0  0  0  0  0  0  0  0  0  0  0
  155.2669  142.2122  169.7138 H   0  0  0  0  0  0  0  0  0  0  0  0
  156.3330  143.1906  168.7341 H   0  0  0  0  0  0  0  0  0  0  0  0
  153.8710  144.1880  170.2517 H   0  0  0  0  0  0  0  0  0  0  0  0
  155.5403  144.5219  170.6597 H   0  0  0  0  0  0  0  0  0  0  0  0
  154.4989  146.4324  169.4084 H   0  0  0  0  0  0  0  0  0  0  0  0
  155.8644  145.7630  168.5484 H   0  0  0  0  0  0  0  0  0  0  0  0
  154.0535  146.1251  166.9703 H   0  0  0  0  0  0  0  0  0  0  0  0
  152.9090  145.2254  167.9564 H   0  0  0  0  0  0  0  0  0  0  0  0
  154.1840  141.4164  163.4275 H   0  0  0  0  0  0  0  0  0  0  0  0
  153.4743  143.2323  158.2301 H   0  0  0  0  0  0  0  0  0  0  0  0
  152.2336  144.8162  160.0710 H   0  0  0  0  0  0  0  0  0  0  0  0
  152.5318  145.3641  158.4330 H   0  0  0  0  0  0  0  0  0  0  0  0
  149.9156  144.5860  159.6362 H   0  0  0  0  0  0  0  0  0  0  0  0
  150.2380  145.6846  158.3094 H   0  0  0  0  0  0  0  0  0  0  0  0
  149.3378  142.3760  159.2239 H   0  0  0  0  0  0  0  0  0  0  0  0
  148.1712  143.2650  158.2712 H   0  0  0  0  0  0  0  0  0  0  0  0
  148.1561  140.8502  157.6853 H   0  0  0  0  0  0  0  0  0  0  0  0
  148.6449  141.8046  156.3021 H   0  0  0  0  0  0  0  0  0  0  0  0
  150.5311  140.3508  158.2309 H   0  0  0  0  0  0  0  0  0  0  0  0
  150.1483  139.8318  156.6083 H   0  0  0  0  0  0  0  0  0  0  0  0
  152.3274  141.0915  156.6797 H   0  0  0  0  0  0  0  0  0  0  0  0
  151.1430  141.7861  155.6245 H   0  0  0  0  0  0  0  0  0  0  0  0
  151.8763  143.6612  156.5926 H   0  0  0  0  0  0  0  0  0  0  0  0
  149.8246  144.0786  156.8953 H   0  0  0  0  0  0  0  0  0  0  0  0
  154.7838  142.0197  165.5298 H   0  0  0  0  0  0  0  0  0  0  0  0
  1  2  2  0  0  0  0
  2  3  1  0  0  0  0
  2 16  1  0  0  0  0
  3  4  1  0  0  0  0
  3 26  1  0  0  0  0
  4 15  1  0  0  0  0
  4  5  2  0  0  0  0
  5  6  1  0  0  0  0
  5 27  1  0  0  0  0
  6  7  2  0  0  0  0
  6 28  1  0  0  0  0
  7  8  1  0  0  0  0
  7 14  1  0  0  0  0
  8 13  1  0  0  0  0
  8  9  1  0  0  0  0
  9 10  1  0  0  0  0
  9 29  1  0  0  0  0
  9 30  1  0  0  0  0
 10 11  1  0  0  0  0
 10 31  1  0  0  0  0
 10 32  1  0  0  0  0
 11 12  1  0  0  0  0
 11 33  1  0  0  0  0
 11 34  1  0  0  0  0
 12 13  1  0  0  0  0
 12 35  1  0  0  0  0
 12 36  1  0  0  0  0
 13 37  1  0  0  0  0
 13 38  1  0  0  0  0
 14 15  2  0  0  0  0
 14 55  1  0  0  0  0
 15 39  1  0  0  0  0
 16 17  1  0  0  0  0
 17 25  1  0  0  0  0
 17 18  1  0  0  0  0
 17 40  1  0  0  0  0
 18 19  1  0  0  0  0
 18 41  1  0  0  0  0
 18 42  1  0  0  0  0
 19 20  1  0  0  0  0
 19 43  1  0  0  0  0
 19 44  1  0  0  0  0
 20 25  1  0  0  0  0
 20 21  1  0  0  0  0
 20 54  1  0  0  0  0
 21 22  1  0  0  0  0
 21 45  1  0  0  0  0
 21 46  1  0  0  0  0
 22 23  1  0  0  0  0
 22 47  1  0  0  0  0
 22 48  1  0  0  0  0
 23 24  1  0  0  0  0
 23 49  1  0  0  0  0
 23 50  1  0  0  0  0
 24 25  1  0  0  0  0
 24 51  1  0  0  0  0
 24 52  1  0  0  0  0
 25 53  1  0  0  0  0
M  CHG  1  14   1
M  CHG  1  16  -1
M  CHG  1  20   1
M  END
> <s_m_source_file>
AV-unprocessed.smi

> <i_m_source_file_index>
1645

> <i_lp_mmshare_version>
43012

> <i_f3d_flags>
0

> <s_epik_input>
W0NIMl0xW0NIMl1bQ0gyXVtDSDJdW0NASF0oTjEyKVtDQEBIXShbQ0gyXVtDSDJdMilbTkhdQyg9TylbTkhdYzNbY0hdW2NIXWMobltjSF0zKU40W0NIMl1bQ0gyXVtDSDJdW0NIMl1bQ0gyXTQ=

> <s_epik_cmdline>
J2VwaWtfcHl0aG9uJywgJy1waCcsICc3LjAnLCAnLXRuJywgJzgnLCAnLW1hJywgJzIwMCcsICctbWV0YWxfYmluZGluZycsICctaW1hZScsICc8aW5maWxlLm1hZT4nLCAnLW9tYWUnLCAnPG91dGZpbGUubWFlPic=

> <r_lp_tautomer_probability>
0.999994

> <r_epik_Ionization_Penalty>
8.55589

> <r_epik_Ionization_Penalty_Charging>
8.55589

> <r_epik_Ionization_Penalty_Neutral>
3.8092e-06

> <r_epik_State_Penalty>
8.15703

> <r_epik_Charging_Adjusted_Penalty>
16.7129

> <i_epik_Tot_Q>
1

> <i_epik_Tot_abs_Q>
3

> <r_epik_Metal_State_Penalty>
4.13781

> <b_epik_Metal_Only>
1

> <s_lp_Force_Field>
OPLS_2005

> <r_lp_Energy>
58.0783

> <b_lp_Chiralities_Consistent>
1

> <s_lp_Variant>
AV-unprocessed.smi:1645-21

> <Gold.Version>
5.8.1

> <Gold.Id.Protein>
6NUR|6NUR_protein|mol2

> <Gold.PLP.Fitness>
55.2317

> <Gold.PLP.PLP>
-51.0521

> <Gold.PLP.part.hbond>
-1.8859

> <Gold.PLP.part.metal>
0.0000

> <Gold.PLP.part.buried>
-7.9058

> <Gold.PLP.part.nonpolar>
-41.1157

> <Gold.PLP.part.repulsive>
0.1757

> <Gold.PLP.ligand.clash>
0.0000

> <Gold.PLP.ligand.torsion>
1.2136

> <Gold.PLP.Chemscore.Hbond>
2.0000

> <Gold.PLP.Chemscore.CHOScore>
0.0000

> <Gold.PLP.Chemscore.Metal>
0.0000

> <Gold.Chemscore.Hbonds>
donor molecule, donor type, donor heavy atom, donor atom, acceptor molecule, acceptor atom, score
      L1  H    20    54       P1  8028  2.00

> <Gold.PLP.Chemscore.Internal.Correction>
0.6068

> <Gold.Rescore>
     Score         DG    S(hbond)    S(metal)    S(lipo)     H(rot)  DE(clash)    DE(int)     intcor
     17.10     -21.17       0.97        0.00     132.21       1.17       1.49       2.58       ----

> <Gold.Chemscore.Fitness>
17.1018

> <Gold.Chemscore.DG>
-21.1733

> <Gold.Chemscore.ZeroCoef>
-5.4800

> <Gold.Chemscore.Hbond>
0.9666

> <Gold.Chemscore.Metal>
0.0000

> <Gold.Chemscore.Lipo>
132.2070

> <Gold.Chemscore.Internal_Hbond>
0.0000

> <Gold.Chemscore.DEClash>
1.4936

> <Gold.Chemscore.DEInternal>
2.5779

> <Gold.Chemscore.Rot>
1.1731

> <Gold.Chemscore.Internal.Correction>
   9.000000E+99

> <Gold.Chemscore.Hbonds>
donor molecule, donor type, donor heavy atom, donor atom, acceptor molecule, acceptor atom, score
      L1  H    20    54       P1  8028  0.90

> <Gold.Chemscore.Hbond.Weighted>
-3.2283

> <Gold.Chemscore.Metal.Weighted>
-0.0000

> <Gold.Chemscore.Lipo.Weighted>
-15.4682

> <Gold.Chemscore.Internal_Hbond.Weighted>
0.0000

> <Gold.Chemscore.DEClash.Weighted>
1.4936

> <Gold.Chemscore.DEInternal.Weighted>
2.5779

> <Gold.Chemscore.Rot.Weighted>
3.0032

> <Gold.Chemscore.Internal.Correction.Weighted>
   9.000000E+99

> <Gold.Protein.RotatedTorsions>
[ 6907 6896 6895 6894 ] final -113.53 input  -60.11 | X-H torsion
[ 7974 7965 7964 7962 ] final  171.10 input  175.53 | X-H torsion
[ 8008 7997 7996 7995 ] final -109.00 input   59.86 | X-H torsion
[ 10167 10162 10161 10158 ] final -101.02 input  -65.29 | X-H torsion
[ 10718 10713 10712 10709 ] final   39.59 input   66.30 | X-H torsion
[ 10763 10752 10751 10750 ] final -101.93 input  -60.55 | X-H torsion
[ 11005 11000 10999 10996 ] final -120.44 input  -57.11 | X-H torsion

> <Gold.Protein.ActiveResidues>
 VAL166  LYS551  ARG553  GLY616  TRP617  ASP618  TYR619  PRO620  LYS621  CYS622 
 ASP623  PHE694  ASN695  SER759  ASP760  ASP761  ALA762  ILE779  LEU786  VAL792 
 PHE793  MET794  SER795  GLU796  ALA797  LYS798  CYS799  TRP800  GLU811  SER814 

> <Gold.Protein.RotatedAtoms>
  150.7836  133.8931  159.3318 H   0  0  0  0  0  0  0  0  0  0  0  0  # atno 6907 bound_to 6896
  151.6787  135.0963  160.0221 H   0  0  0  0  0  0  0  0  0  0  0  0  # atno 6908 bound_to 6896
  152.3894  133.6619  159.6260 H   0  0  0  0  0  0  0  0  0  0  0  0  # atno 6909 bound_to 6896
  144.7304  139.9301  143.6424 H   0  0  0  0  0  0  0  0  0  0  0  0  # atno 7974 bound_to 7965
  154.9528  140.0400  157.2152 H   0  0  0  0  0  0  0  0  0  0  0  0  # atno 8008 bound_to 7997
  154.7962  140.2844  155.5932 H   0  0  0  0  0  0  0  0  0  0  0  0  # atno 8009 bound_to 7997
  156.2956  140.2564  156.2821 H   0  0  0  0  0  0  0  0  0  0  0  0  # atno 8010 bound_to 7997
  140.2457  143.3507  152.0761 H   0  0  0  0  0  0  0  0  0  0  0  0  # atno 10167 bound_to 10162
  157.3723  130.7708  149.7128 H   0  0  0  0  0  0  0  0  0  0  0  0  # atno 10718 bound_to 10713
  154.7695  135.4879  153.9621 H   0  0  0  0  0  0  0  0  0  0  0  0  # atno 10763 bound_to 10752
  153.1350  135.6761  153.9125 H   0  0  0  0  0  0  0  0  0  0  0  0  # atno 10764 bound_to 10752
  153.8816  135.3131  155.3424 H   0  0  0  0  0  0  0  0  0  0  0  0  # atno 10765 bound_to 10752
  141.0143  134.0218  157.3371 H   0  0  0  0  0  0  0  0  0  0  0  0  # atno 11005 bound_to 11000
  146.0864  139.3853  143.0433 LP  0  0  0  0  0  0  0  0  0  0  0  0  # atno 17320 bound_to 7965
  145.7771  140.9872  143.1119 LP  0  0  0  0  0  0  0  0  0  0  0  0  # atno 17321 bound_to 7965
  139.5062  144.6810  151.6008 LP  0  0  0  0  0  0  0  0  0  0  0  0  # atno 17342 bound_to 10162
  140.6079  143.9490  150.6432 LP  0  0  0  0  0  0  0  0  0  0  0  0  # atno 17343 bound_to 10162
  155.9758  130.4084  150.3824 LP  0  0  0  0  0  0  0  0  0  0  0  0  # atno 17370 bound_to 10713
  157.1916  131.0416  151.2697 LP  0  0  0  0  0  0  0  0  0  0  0  0  # atno 17371 bound_to 10713
  139.9108  135.0189  156.7682 LP  0  0  0  0  0  0  0  0  0  0  0  0  # atno 17394 bound_to 11000
  140.6681  133.9584  155.7841 LP  0  0  0  0  0  0  0  0  0  0  0  0  # atno 17395 bound_to 11000

$$$$
