AV-unprocessed.smi:1912|AV-procd|sdf|7748|dock4
  -GOLD-   22720 9483D 1   1.00000     0.00000
 Structure written by MMmdl.
 43 45  0  0  0  0  0  0  0  0  1 V2000
  145.3940  135.9345  151.0504 C   0  0  0  0  0  0  0  0  0  0  0  0
  144.9659  134.6888  150.5193 O   0  0  0  0  0  0  0  0  0  0  0  0
  145.4547  133.5347  151.0936 C   0  0  0  0  0  0  0  0  0  0  0  0
  145.0217  132.3138  150.5445 C   0  0  0  0  0  0  0  0  0  0  0  0
  145.4789  131.0877  151.0602 C   0  0  0  0  0  0  0  0  0  0  0  0
  146.3825  131.0551  152.1508 C   0  0  0  0  0  0  0  0  0  0  0  0
  146.8801  129.8854  152.6893 O   0  0  0  0  0  0  0  0  0  0  0  0
  146.4976  128.6514  152.1010 C   0  0  0  0  0  0  0  0  0  0  0  0
  146.8104  132.2793  152.7208 C   0  0  0  0  0  0  0  0  0  0  0  0
  147.7868  132.2710  153.8941 C   0  0  2  0  0  0  0  0  0  0  0  0
  147.1948  132.6823  155.1126 O   0  0  0  0  0  0  0  0  0  0  0  0
  149.0217  133.1424  153.5920 C   0  0  0  0  0  0  0  0  0  0  0  0
  149.9607  133.1911  154.7037 N   0  0  0  0  0  0  0  0  0  0  0  0
  150.3469  134.2775  155.4167 C   0  0  0  0  0  0  0  0  0  0  0  0
  149.8109  135.6442  155.1261 C   0  0  0  0  0  0  0  0  0  0  0  0
  151.2273  134.0506  156.3916 N   0  0  0  0  0  0  0  0  0  0  0  0
  151.4293  132.6863  156.3053 C   0  0  0  0  0  0  0  0  0  0  0  0
  152.2539  131.8302  157.0697 C   0  0  0  0  0  0  0  0  0  0  0  0
  152.2967  130.4474  156.7946 C   0  0  0  0  0  0  0  0  0  0  0  0
  151.5186  129.9023  155.7527 C   0  0  0  0  0  0  0  0  0  0  0  0
  150.6910  130.7378  154.9783 C   0  0  0  0  0  0  0  0  0  0  0  0
  150.6502  132.1170  155.2580 C   0  0  0  0  0  0  0  0  0  0  0  0
  146.3554  133.5062  152.1855 C   0  0  0  0  0  0  0  0  0  0  0  0
  144.9285  136.7442  150.4885 H   0  0  0  0  0  0  0  0  0  0  0  0
  146.4749  136.0543  150.9651 H   0  0  0  0  0  0  0  0  0  0  0  0
  145.0988  136.0455  152.0946 H   0  0  0  0  0  0  0  0  0  0  0  0
  144.3341  132.3166  149.7114 H   0  0  0  0  0  0  0  0  0  0  0  0
  145.1206  130.1822  150.5953 H   0  0  0  0  0  0  0  0  0  0  0  0
  146.9831  127.8346  152.6350 H   0  0  0  0  0  0  0  0  0  0  0  0
  146.8088  128.5931  151.0571 H   0  0  0  0  0  0  0  0  0  0  0  0
  145.4203  128.4946  152.1681 H   0  0  0  0  0  0  0  0  0  0  0  0
  148.1071  131.2434  154.0652 H   0  0  0  0  0  0  0  0  0  0  0  0
  146.2634  132.5330  155.0577 H   0  0  0  0  0  0  0  0  0  0  0  0
  149.5460  132.7626  152.7148 H   0  0  0  0  0  0  0  0  0  0  0  0
  148.7173  134.1596  153.3418 H   0  0  0  0  0  0  0  0  0  0  0  0
  150.2606  136.3812  155.7926 H   0  0  0  0  0  0  0  0  0  0  0  0
  148.7309  135.6658  155.2721 H   0  0  0  0  0  0  0  0  0  0  0  0
  150.0344  135.9316  154.0990 H   0  0  0  0  0  0  0  0  0  0  0  0
  152.8541  132.2381  157.8695 H   0  0  0  0  0  0  0  0  0  0  0  0
  152.9299  129.8019  157.3856 H   0  0  0  0  0  0  0  0  0  0  0  0
  151.5577  128.8424  155.5478 H   0  0  0  0  0  0  0  0  0  0  0  0
  150.0965  130.3240  154.1774 H   0  0  0  0  0  0  0  0  0  0  0  0
  146.7131  134.4248  152.6245 H   0  0  0  0  0  0  0  0  0  0  0  0
  1  2  1  0  0  0  0
  1 24  1  0  0  0  0
  1 25  1  0  0  0  0
  1 26  1  0  0  0  0
  2  3  1  0  0  0  0
  3 23  1  0  0  0  0
  3  4  2  0  0  0  0
  4  5  1  0  0  0  0
  4 27  1  0  0  0  0
  5  6  2  0  0  0  0
  5 28  1  0  0  0  0
  6  7  1  0  0  0  0
  6  9  1  0  0  0  0
  7  8  1  0  0  0  0
  8 29  1  0  0  0  0
  8 30  1  0  0  0  0
  8 31  1  0  0  0  0
  9 10  1  0  0  0  0
  9 23  2  0  0  0  0
 10 11  1  0  0  0  0
 10 12  1  0  0  0  0
 10 32  1  0  0  0  0
 11 33  1  0  0  0  0
 12 13  1  0  0  0  0
 12 34  1  0  0  0  0
 12 35  1  0  0  0  0
 13 22  1  0  0  0  0
 13 14  1  0  0  0  0
 14 15  1  0  0  0  0
 14 16  2  0  0  0  0
 15 36  1  0  0  0  0
 15 37  1  0  0  0  0
 15 38  1  0  0  0  0
 16 17  1  0  0  0  0
 17 22  2  0  0  0  0
 17 18  1  0  0  0  0
 18 19  2  0  0  0  0
 18 39  1  0  0  0  0
 19 20  1  0  0  0  0
 19 40  1  0  0  0  0
 20 21  2  0  0  0  0
 20 41  1  0  0  0  0
 21 22  1  0  0  0  0
 21 42  1  0  0  0  0
 23 43  1  0  0  0  0
M  END
> <s_m_source_file>
AV-unprocessed.smi

> <i_m_source_file_index>
1912

> <i_lp_mmshare_version>
43012

> <i_f3d_flags>
0

> <s_epik_input>
W0NIM11PYzFbY0hdW2NIXWMoT1tDSDNdKWMoW2NIXTEpW0NASF0oW09IXSlbQ0gyXW4oYyhuMilbQ0gzXSljKGMyMylbY0hdW2NIXVtjSF1bY0hdMw==

> <s_epik_cmdline>
J2VwaWtfcHl0aG9uJywgJy1waCcsICc3LjAnLCAnLXRuJywgJzgnLCAnLW1hJywgJzIwMCcsICctbWV0YWxfYmluZGluZycsICctaW1hZScsICc8aW5maWxlLm1hZT4nLCAnLW9tYWUnLCAnPG91dGZpbGUubWFlPic=

> <r_lp_tautomer_probability>
1

> <r_epik_Ionization_Penalty>
0.129663

> <r_epik_Ionization_Penalty_Charging>
0

> <r_epik_Ionization_Penalty_Neutral>
0.129663

> <r_epik_State_Penalty>
0.119073

> <r_epik_Charging_Adjusted_Penalty>
0.119073

> <i_epik_Tot_Q>
0

> <i_epik_Tot_abs_Q>
0

> <r_epik_Metal_State_Penalty>
0.000131867

> <b_epik_Metal_Only>
0

> <s_lp_Force_Field>
OPLS_2005

> <r_lp_Energy>
18.8247

> <b_lp_Chiralities_Consistent>
1

> <s_lp_Variant>
AV-unprocessed.smi:1912-1

> <Gold.Version>
5.8.1

> <Gold.Id.Protein>
6NUR|6NUR_protein|mol2

> <Gold.PLP.Fitness>
40.3231

> <Gold.PLP.PLP>
-40.5910

> <Gold.PLP.part.hbond>
0.0000

> <Gold.PLP.part.metal>
0.0000

> <Gold.PLP.part.buried>
-6.5253

> <Gold.PLP.part.nonpolar>
-34.4213

> <Gold.PLP.part.repulsive>
0.6723

> <Gold.PLP.ligand.clash>
0.0000

> <Gold.PLP.ligand.torsion>
0.1677

> <Gold.PLP.Chemscore.Hbond>
0.0000

> <Gold.PLP.Chemscore.CHOScore>
0.0000

> <Gold.PLP.Chemscore.Metal>
0.0000

> <Gold.PLP.Chemscore.Internal.Correction>
0.0674

> <Gold.Rescore>
     Score         DG    S(hbond)    S(metal)    S(lipo)     H(rot)  DE(clash)    DE(int)     intcor
     12.18     -12.30       0.00        0.00     105.78       2.17       0.01       0.11       ----

> <Gold.Chemscore.Fitness>
12.1800

> <Gold.Chemscore.DG>
-12.3041

> <Gold.Chemscore.ZeroCoef>
-5.4800

> <Gold.Chemscore.Hbond>
0.0000

> <Gold.Chemscore.Metal>
0.0000

> <Gold.Chemscore.Lipo>
105.7836

> <Gold.Chemscore.Internal_Hbond>
0.0000

> <Gold.Chemscore.DEClash>
0.0109

> <Gold.Chemscore.DEInternal>
0.1132

> <Gold.Chemscore.Rot>
2.1690

> <Gold.Chemscore.Internal.Correction>
   9.000000E+99

> <Gold.Chemscore.Hbond.Weighted>
-0.0000

> <Gold.Chemscore.Metal.Weighted>
-0.0000

> <Gold.Chemscore.Lipo.Weighted>
-12.3767

> <Gold.Chemscore.Internal_Hbond.Weighted>
0.0000

> <Gold.Chemscore.DEClash.Weighted>
0.0109

> <Gold.Chemscore.DEInternal.Weighted>
0.1132

> <Gold.Chemscore.Rot.Weighted>
5.5526

> <Gold.Chemscore.Internal.Correction.Weighted>
   9.000000E+99

> <Gold.Protein.RotatedTorsions>
[ 6907 6896 6895 6894 ] final -143.38 input  -60.11 | X-H torsion
[ 7974 7965 7964 7962 ] final   34.04 input  175.53 | X-H torsion
[ 8008 7997 7996 7995 ] final  -86.30 input   59.86 | X-H torsion
[ 10167 10162 10161 10158 ] final  139.98 input  -65.29 | X-H torsion
[ 10718 10713 10712 10709 ] final  130.13 input   66.30 | X-H torsion
[ 10763 10752 10751 10750 ] final  147.81 input  -60.55 | X-H torsion
[ 11005 11000 10999 10996 ] final  132.68 input  -57.11 | X-H torsion

> <Gold.Protein.ActiveResidues>
 VAL166  LYS551  ARG553  GLY616  TRP617  ASP618  TYR619  PRO620  LYS621  CYS622 
 ASP623  PHE694  ASN695  SER759  ASP760  ASP761  ALA762  ILE779  LEU786  VAL792 
 PHE793  MET794  SER795  GLU796  ALA797  LYS798  CYS799  TRP800  GLU811  SER814 

> <Gold.Protein.RotatedAtoms>
  151.0996  133.5253  159.2610 H   0  0  0  0  0  0  0  0  0  0  0  0  # atno 6907 bound_to 6896
  151.2089  135.0472  159.8913 H   0  0  0  0  0  0  0  0  0  0  0  0  # atno 6908 bound_to 6896
  152.5442  134.0815  159.8291 H   0  0  0  0  0  0  0  0  0  0  0  0  # atno 6909 bound_to 6896
  146.1380  139.6320  142.9182 H   0  0  0  0  0  0  0  0  0  0  0  0  # atno 7974 bound_to 7965
  154.6503  140.0580  156.9948 H   0  0  0  0  0  0  0  0  0  0  0  0  # atno 8008 bound_to 7997
  155.1381  140.3263  155.4440 H   0  0  0  0  0  0  0  0  0  0  0  0  # atno 8009 bound_to 7997
  156.2573  140.1969  156.6497 H   0  0  0  0  0  0  0  0  0  0  0  0  # atno 8010 bound_to 7997
  139.5062  144.6262  151.5931 H   0  0  0  0  0  0  0  0  0  0  0  0  # atno 10167 bound_to 10162
  157.5090  131.1096  150.9320 H   0  0  0  0  0  0  0  0  0  0  0  0  # atno 10718 bound_to 10713
  154.0444  135.2887  155.3350 H   0  0  0  0  0  0  0  0  0  0  0  0  # atno 10763 bound_to 10752
  154.6909  135.5227  153.8394 H   0  0  0  0  0  0  0  0  0  0  0  0  # atno 10764 bound_to 10752
  153.0586  135.6605  154.0645 H   0  0  0  0  0  0  0  0  0  0  0  0  # atno 10765 bound_to 10752
  139.9805  134.9549  156.9617 H   0  0  0  0  0  0  0  0  0  0  0  0  # atno 11005 bound_to 11000
  145.5112  141.0435  143.2487 LP  0  0  0  0  0  0  0  0  0  0  0  0  # atno 17320 bound_to 7965
  144.7761  139.6627  143.7174 LP  0  0  0  0  0  0  0  0  0  0  0  0  # atno 17321 bound_to 7965
  140.5980  143.9661  150.6367 LP  0  0  0  0  0  0  0  0  0  0  0  0  # atno 17342 bound_to 10162
  140.2864  143.3354  152.1104 LP  0  0  0  0  0  0  0  0  0  0  0  0  # atno 17343 bound_to 10162
  156.9966  130.5584  149.5308 LP  0  0  0  0  0  0  0  0  0  0  0  0  # atno 17370 bound_to 10713
  156.0277  130.5370  150.8450 LP  0  0  0  0  0  0  0  0  0  0  0  0  # atno 17371 bound_to 10713
  140.5106  134.1005  155.7269 LP  0  0  0  0  0  0  0  0  0  0  0  0  # atno 17394 bound_to 11000
  141.1477  133.9025  157.2174 LP  0  0  0  0  0  0  0  0  0  0  0  0  # atno 17395 bound_to 11000

$$$$
