AV-unprocessed.smi:2156|AV-procd|sdf|8781|dock1
  -GOLD-   2272011563D 1   1.00000     0.00000
 Structure written by MMmdl.
 33 33  0  0  0  0  0  0  0  0  2 V2000
  145.9713  136.9533  150.6798 C   0  0  0  0  0  0  0  0  0  0  0  0
  146.0489  137.6326  152.0517 C   0  0  0  0  0  0  0  0  0  0  0  0
  146.7177  139.0166  151.9845 C   0  0  0  0  0  0  0  0  0  0  0  0
  147.3071  139.4918  153.3264 C   0  0  2  0  0  0  0  0  0  0  0  0
  147.2213  141.0209  153.4646 C   0  0  0  0  0  0  0  0  0  0  0  0
  148.6938  139.0492  153.4545 N   0  0  0  0  0  0  0  0  0  0  0  0
  149.1918  138.3326  154.4737 C   0  0  0  0  0  0  0  0  0  0  0  0
  148.5190  137.9855  155.4456 O   0  0  0  0  0  0  0  0  0  0  0  0
  150.6844  137.9848  154.3810 C   0  0  0  0  0  0  0  0  0  0  0  0
  151.4059  138.1703  155.6507 N   0  0  0  0  0  0  0  0  0  0  0  0
  151.0239  137.3695  156.7414 C   0  0  0  0  0  0  0  0  0  0  0  0
  151.6300  137.4653  157.9401 C   0  0  0  0  0  0  0  0  0  0  0  0
  152.7105  138.4319  158.0917 C   0  0  0  0  0  0  0  0  0  0  0  0
  153.2721  138.5365  159.1805 O   0  0  0  0  0  0  0  0  0  0  0  0
  153.0478  139.1828  157.0026 N   0  5  0  0  0  0  0  0  0  0  0  0
  152.4233  139.0731  155.7888 C   0  0  0  0  0  0  0  0  0  0  0  0
  152.7443  139.7593  154.8179 O   0  0  0  0  0  0  0  0  0  0  0  0
  145.4922  135.9771  150.7562 H   0  0  0  0  0  0  0  0  0  0  0  0
  146.9656  136.8037  150.2583 H   0  0  0  0  0  0  0  0  0  0  0  0
  145.3944  137.5524  149.9748 H   0  0  0  0  0  0  0  0  0  0  0  0
  145.0425  137.7324  152.4599 H   0  0  0  0  0  0  0  0  0  0  0  0
  146.5955  136.9838  152.7368 H   0  0  0  0  0  0  0  0  0  0  0  0
  147.5009  139.0058  151.2251 H   0  0  0  0  0  0  0  0  0  0  0  0
  145.9792  139.7446  151.6462 H   0  0  0  0  0  0  0  0  0  0  0  0
  146.7188  139.0423  154.1288 H   0  0  0  0  0  0  0  0  0  0  0  0
  146.1902  141.3641  153.3780 H   0  0  0  0  0  0  0  0  0  0  0  0
  147.8054  141.5225  152.6923 H   0  0  0  0  0  0  0  0  0  0  0  0
  147.5943  141.3540  154.4336 H   0  0  0  0  0  0  0  0  0  0  0  0
  149.3200  139.2926  152.7009 H   0  0  0  0  0  0  0  0  0  0  0  0
  150.7982  136.9563  154.0331 H   0  0  0  0  0  0  0  0  0  0  0  0
  151.1281  138.6017  153.5985 H   0  0  0  0  0  0  0  0  0  0  0  0
  150.2203  136.6754  156.5433 H   0  0  0  0  0  0  0  0  0  0  0  0
  151.3263  136.8409  158.7674 H   0  0  0  0  0  0  0  0  0  0  0  0
  1  2  1  0  0  0  0
  1 18  1  0  0  0  0
  1 19  1  0  0  0  0
  1 20  1  0  0  0  0
  2  3  1  0  0  0  0
  2 21  1  0  0  0  0
  2 22  1  0  0  0  0
  3  4  1  0  0  0  0
  3 23  1  0  0  0  0
  3 24  1  0  0  0  0
  4  5  1  0  0  0  0
  4  6  1  0  0  0  0
  4 25  1  0  0  0  0
  5 26  1  0  0  0  0
  5 27  1  0  0  0  0
  5 28  1  0  0  0  0
  6  7  1  0  0  0  0
  6 29  1  0  0  0  0
  7  8  2  0  0  0  0
  7  9  1  0  0  0  0
  9 10  1  0  0  0  0
  9 30  1  0  0  0  0
  9 31  1  0  0  0  0
 10 16  1  0  0  0  0
 10 11  1  0  0  0  0
 11 12  2  0  0  0  0
 11 32  1  0  0  0  0
 12 13  1  0  0  0  0
 12 33  1  0  0  0  0
 13 14  2  0  0  0  0
 13 15  1  0  0  0  0
 15 16  1  0  0  0  0
 16 17  2  0  0  0  0
M  CHG  1  15  -1
M  END
> <s_m_source_file>
AV-unprocessed.smi

> <i_m_source_file_index>
2156

> <i_lp_mmshare_version>
43012

> <i_f3d_flags>
0

> <s_epik_input>
W0NIM11bQ0gyXVtDSDJdW0NASF0oW0NIM10pW05IXUMoPU8pW0NIMl1uMVtjSF1bY0hdYyg9TylbbkhdYzE9Tw==

> <s_epik_cmdline>
J2VwaWtfcHl0aG9uJywgJy1waCcsICc3LjAnLCAnLXRuJywgJzgnLCAnLW1hJywgJzIwMCcsICctbWV0YWxfYmluZGluZycsICctaW1hZScsICc8aW5maWxlLm1hZT4nLCAnLW9tYWUnLCAnPG91dGZpbGUubWFlPic=

> <r_lp_tautomer_probability>
0.999537

> <r_epik_Ionization_Penalty>
3.08607

> <r_epik_Ionization_Penalty_Charging>
2.78879e-08

> <r_epik_Ionization_Penalty_Neutral>
3.08607

> <r_epik_State_Penalty>
3.08511

> <r_epik_Charging_Adjusted_Penalty>
3.08511

> <i_epik_Tot_Q>
-1

> <i_epik_Tot_abs_Q>
1

> <r_epik_Metal_State_Penalty>
0.460479

> <b_epik_Metal_Only>
1

> <s_lp_Force_Field>
OPLS_2005

> <r_lp_Energy>
12.6721

> <b_lp_Chiralities_Consistent>
1

> <s_lp_Variant>
AV-unprocessed.smi:2156-3

> <Gold.Version>
5.8.1

> <Gold.Id.Protein>
6NUR|6NUR_protein|mol2

> <Gold.PLP.Fitness>
36.1961

> <Gold.PLP.PLP>
-27.3436

> <Gold.PLP.part.hbond>
-4.3077

> <Gold.PLP.part.metal>
0.0000

> <Gold.PLP.part.buried>
0.6029

> <Gold.PLP.part.nonpolar>
-24.7189

> <Gold.PLP.part.repulsive>
0.1632

> <Gold.PLP.ligand.clash>
0.0000

> <Gold.PLP.ligand.torsion>
0.7910

> <Gold.PLP.Chemscore.Hbond>
3.4720

> <Gold.PLP.Chemscore.CHOScore>
0.0000

> <Gold.PLP.Chemscore.Metal>
0.0000

> <Gold.Chemscore.Hbonds>
donor molecule, donor type, donor heavy atom, donor atom, acceptor molecule, acceptor atom, score
      L1  H     6    29       P1  7957  1.00
      P1  H  7989  7998       L1    17  0.50
      P1  H  7997  8010       L1    15  2.00

> <Gold.PLP.Chemscore.Internal.Correction>
0.0186

> <Gold.Rescore>
     Score         DG    S(hbond)    S(metal)    S(lipo)     H(rot)  DE(clash)    DE(int)     intcor
     12.84     -14.23       2.44        0.00      51.99       2.14       0.26       1.14       ----

> <Gold.Chemscore.Fitness>
12.8376

> <Gold.Chemscore.DG>
-14.2346

> <Gold.Chemscore.ZeroCoef>
-5.4800

> <Gold.Chemscore.Hbond>
2.4381

> <Gold.Chemscore.Metal>
0.0000

> <Gold.Chemscore.Lipo>
51.9883

> <Gold.Chemscore.Internal_Hbond>
0.0000

> <Gold.Chemscore.DEClash>
0.2581

> <Gold.Chemscore.DEInternal>
1.1389

> <Gold.Chemscore.Rot>
2.1372

> <Gold.Chemscore.Internal.Correction>
   9.000000E+99

> <Gold.Chemscore.Hbonds>
donor molecule, donor type, donor heavy atom, donor atom, acceptor molecule, acceptor atom, score
      L1  H     6    29       P1  7957  0.95
      P1  H  7989  7998       L1    17  0.45
      P1  H  7997  8010       L1    15  0.25

> <Gold.Chemscore.Hbond.Weighted>
-8.1433

> <Gold.Chemscore.Metal.Weighted>
-0.0000

> <Gold.Chemscore.Lipo.Weighted>
-6.0826

> <Gold.Chemscore.Internal_Hbond.Weighted>
0.0000

> <Gold.Chemscore.DEClash.Weighted>
0.2581

> <Gold.Chemscore.DEInternal.Weighted>
1.1389

> <Gold.Chemscore.Rot.Weighted>
5.4713

> <Gold.Chemscore.Internal.Correction.Weighted>
   9.000000E+99

> <Gold.Protein.RotatedTorsions>
[ 6907 6896 6895 6894 ] final -114.48 input  -60.11 | X-H torsion
[ 7974 7965 7964 7962 ] final   62.58 input  175.53 | X-H torsion
[ 8008 7997 7996 7995 ] final   64.18 input   59.86 | X-H torsion
[ 10167 10162 10161 10158 ] final    6.91 input  -65.29 | X-H torsion
[ 10718 10713 10712 10709 ] final -129.50 input   66.30 | X-H torsion
[ 10763 10752 10751 10750 ] final  173.51 input  -60.55 | X-H torsion
[ 11005 11000 10999 10996 ] final  -34.27 input  -57.11 | X-H torsion

> <Gold.Protein.ActiveResidues>
 VAL166  LYS551  ARG553  GLY616  TRP617  ASP618  TYR619  PRO620  LYS621  CYS622 
 ASP623  PHE694  ASN695  SER759  ASP760  ASP761  ALA762  ILE779  LEU786  VAL792 
 PHE793  MET794  SER795  GLU796  ALA797  LYS798  CYS799  TRP800  GLU811  SER814 

> <Gold.Protein.RotatedAtoms>
  150.7905  133.8795  159.3281 H   0  0  0  0  0  0  0  0  0  0  0  0  # atno 6907 bound_to 6896
  151.6634  135.0984  160.0193 H   0  0  0  0  0  0  0  0  0  0  0  0  # atno 6908 bound_to 6896
  152.3978  133.6734  159.6326 H   0  0  0  0  0  0  0  0  0  0  0  0  # atno 6909 bound_to 6896
  145.8717  139.3382  143.0759 H   0  0  0  0  0  0  0  0  0  0  0  0  # atno 7974 bound_to 7965
  155.6419  140.3497  155.4718 H   0  0  0  0  0  0  0  0  0  0  0  0  # atno 8008 bound_to 7997
  155.9919  140.1195  157.0654 H   0  0  0  0  0  0  0  0  0  0  0  0  # atno 8009 bound_to 7997
  154.4221  140.1118  156.5563 H   0  0  0  0  0  0  0  0  0  0  0  0  # atno 8010 bound_to 7997
  140.6401  143.7793  150.7416 H   0  0  0  0  0  0  0  0  0  0  0  0  # atno 10167 bound_to 10162
  156.2053  130.6883  151.0586 H   0  0  0  0  0  0  0  0  0  0  0  0  # atno 10718 bound_to 10713
  154.4411  135.2762  155.1847 H   0  0  0  0  0  0  0  0  0  0  0  0  # atno 10763 bound_to 10752
  154.3713  135.6108  153.5745 H   0  0  0  0  0  0  0  0  0  0  0  0  # atno 10764 bound_to 10752
  152.9841  135.5858  154.4739 H   0  0  0  0  0  0  0  0  0  0  0  0  # atno 10765 bound_to 10752
  140.9702  133.7114  156.1512 H   0  0  0  0  0  0  0  0  0  0  0  0  # atno 11005 bound_to 11000
  145.9129  140.9167  143.0444 LP  0  0  0  0  0  0  0  0  0  0  0  0  # atno 17320 bound_to 7965
  144.6726  140.1185  143.7451 LP  0  0  0  0  0  0  0  0  0  0  0  0  # atno 17321 bound_to 7965
  140.1423  143.4430  152.2185 LP  0  0  0  0  0  0  0  0  0  0  0  0  # atno 17342 bound_to 10162
  139.5611  144.7406  151.4153 LP  0  0  0  0  0  0  0  0  0  0  0  0  # atno 17343 bound_to 10162
  157.7008  131.0776  150.6825 LP  0  0  0  0  0  0  0  0  0  0  0  0  # atno 17370 bound_to 10713
  156.6883  130.4587  149.5607 LP  0  0  0  0  0  0  0  0  0  0  0  0  # atno 17371 bound_to 10713
  140.7340  134.4224  157.5563 LP  0  0  0  0  0  0  0  0  0  0  0  0  # atno 17394 bound_to 11000
  139.8909  134.8792  156.2344 LP  0  0  0  0  0  0  0  0  0  0  0  0  # atno 17395 bound_to 11000

$$$$
