AV-unprocessed.smi:3311|AV-procd|sdf|12719|dock6
  -GOLD-   2272019 53D 1   1.00000     0.00000
 Structure written by MMmdl.
 44 45  0  0  0  0  0  0  0  0  2 V2000
  153.8177  139.9355  160.2536 C   0  0  0  0  0  0  0  0  0  0  0  0
  152.7869  141.0000  159.8430 C   0  0  2  0  0  0  0  0  0  0  0  0
  152.5997  140.9375  158.3753 N   0  3  0  0  0  0  0  0  0  0  0  0
  151.7540  139.8225  157.8973 C   0  0  0  0  0  0  0  0  0  0  0  0
  151.4874  139.9038  156.3785 C   0  0  0  0  0  0  0  0  0  0  0  0
  152.6509  140.4477  155.7793 O   0  0  0  0  0  0  0  0  0  0  0  0
  151.1922  138.5106  155.7691 C   0  0  0  0  0  0  0  0  0  0  0  0
  150.7918  138.5782  154.2844 C   0  0  0  0  0  0  0  0  0  0  0  0
  149.6058  139.5279  154.0670 C   0  0  0  0  0  0  0  0  0  0  0  0
  149.9170  140.9278  154.6137 C   0  0  0  0  0  0  0  0  0  0  0  0
  150.3130  140.8721  156.1004 C   0  0  0  0  0  0  0  0  0  0  0  0
  153.1949  142.4364  160.2682 C   0  0  2  0  0  0  0  0  0  0  0  0
  153.2375  142.6320  161.7958 C   0  0  0  0  0  0  0  0  0  0  0  0
  152.3193  143.4359  159.6660 N   0  0  0  0  0  0  0  0  0  0  0  0
  152.4021  144.8103  159.7585 C   0  0  0  0  0  0  0  0  0  0  0  0
  151.3791  145.3321  159.0202 C   0  0  0  0  0  0  0  0  0  0  0  0
  150.7110  144.1852  158.5088 C   0  0  0  0  0  0  0  0  0  0  0  0
  151.2750  143.0532  158.8966 N   0  0  0  0  0  0  0  0  0  0  0  0
  153.9056  139.8568  161.3369 H   0  0  0  0  0  0  0  0  0  0  0  0
  154.8063  140.1604  159.8517 H   0  0  0  0  0  0  0  0  0  0  0  0
  153.5266  138.9498  159.8884 H   0  0  0  0  0  0  0  0  0  0  0  0
  151.8456  140.7476  160.3348 H   0  0  0  0  0  0  0  0  0  0  0  0
  152.1635  141.7985  158.0773 H   0  0  0  0  0  0  0  0  0  0  0  0
  152.2419  138.8786  158.1446 H   0  0  0  0  0  0  0  0  0  0  0  0
  150.8067  139.8392  158.4382 H   0  0  0  0  0  0  0  0  0  0  0  0
  152.6200  141.3888  155.8657 H   0  0  0  0  0  0  0  0  0  0  0  0
  152.0541  137.8515  155.8774 H   0  0  0  0  0  0  0  0  0  0  0  0
  150.3810  138.0408  156.3269 H   0  0  0  0  0  0  0  0  0  0  0  0
  151.6416  138.9105  153.6869 H   0  0  0  0  0  0  0  0  0  0  0  0
  150.5367  137.5808  153.9252 H   0  0  0  0  0  0  0  0  0  0  0  0
  149.3663  139.5877  153.0048 H   0  0  0  0  0  0  0  0  0  0  0  0
  148.7196  139.1285  154.5621 H   0  0  0  0  0  0  0  0  0  0  0  0
  150.7214  141.3787  154.0314 H   0  0  0  0  0  0  0  0  0  0  0  0
  149.0488  141.5752  154.4868 H   0  0  0  0  0  0  0  0  0  0  0  0
  149.4430  140.5577  156.6786 H   0  0  0  0  0  0  0  0  0  0  0  0
  150.5586  141.8757  156.4510 H   0  0  0  0  0  0  0  0  0  0  0  0
  154.2001  142.6288  159.8892 H   0  0  0  0  0  0  0  0  0  0  0  0
  154.0085  142.0177  162.2599 H   0  0  0  0  0  0  0  0  0  0  0  0
  152.2837  142.3778  162.2591 H   0  0  0  0  0  0  0  0  0  0  0  0
  153.4625  143.6685  162.0496 H   0  0  0  0  0  0  0  0  0  0  0  0
  153.1751  145.2991  160.3333 H   0  0  0  0  0  0  0  0  0  0  0  0
  151.1426  146.3749  158.8692 H   0  0  0  0  0  0  0  0  0  0  0  0
  149.8399  144.1416  157.8719 H   0  0  0  0  0  0  0  0  0  0  0  0
  153.5050  140.8698  157.9335 H   0  0  0  0  0  0  0  0  0  0  0  0
  1  2  1  0  0  0  0
  1 19  1  0  0  0  0
  1 20  1  0  0  0  0
  1 21  1  0  0  0  0
  2  3  1  0  0  0  0
  2 12  1  0  0  0  0
  2 22  1  0  0  0  0
  3  4  1  0  0  0  0
  3 23  1  0  0  0  0
  3 44  1  0  0  0  0
  4  5  1  0  0  0  0
  4 24  1  0  0  0  0
  4 25  1  0  0  0  0
  5 11  1  0  0  0  0
  5  6  1  0  0  0  0
  5  7  1  0  0  0  0
  6 26  1  0  0  0  0
  7  8  1  0  0  0  0
  7 27  1  0  0  0  0
  7 28  1  0  0  0  0
  8  9  1  0  0  0  0
  8 29  1  0  0  0  0
  8 30  1  0  0  0  0
  9 10  1  0  0  0  0
  9 31  1  0  0  0  0
  9 32  1  0  0  0  0
 10 11  1  0  0  0  0
 10 33  1  0  0  0  0
 10 34  1  0  0  0  0
 11 35  1  0  0  0  0
 11 36  1  0  0  0  0
 12 13  1  0  0  0  0
 12 14  1  0  0  0  0
 12 37  1  0  0  0  0
 13 38  1  0  0  0  0
 13 39  1  0  0  0  0
 13 40  1  0  0  0  0
 14 18  1  0  0  0  0
 14 15  1  0  0  0  0
 15 16  2  0  0  0  0
 15 41  1  0  0  0  0
 16 17  1  0  0  0  0
 16 42  1  0  0  0  0
 17 18  2  0  0  0  0
 17 43  1  0  0  0  0
M  CHG  1   3   1
M  END
> <s_m_source_file>
AV-unprocessed.smi

> <i_m_source_file_index>
3311

> <i_lp_mmshare_version>
43012

> <i_f3d_flags>
0

> <s_epik_input>
bjFbY0hdW2NIXVtjSF1uMVtDQEBIXShbQ0gzXSlbQ0BIXShbQ0gzXSlbTkhdW0NIMl1DMihbT0hdKVtDSDJdW0NIMl1bQ0gyXVtDSDJdW0NIMl0y

> <s_epik_cmdline>
J2VwaWtfcHl0aG9uJywgJy1waCcsICc3LjAnLCAnLXRuJywgJzgnLCAnLW1hJywgJzIwMCcsICctbWV0YWxfYmluZGluZycsICctaW1hZScsICc8aW5maWxlLm1hZT4nLCAnLW9tYWUnLCAnPG91dGZpbGUubWFlPic=

> <r_lp_tautomer_probability>
1

> <r_epik_Ionization_Penalty>
0.0141403

> <r_epik_Ionization_Penalty_Charging>
0.0141276

> <r_epik_Ionization_Penalty_Neutral>
1.27139e-05

> <r_epik_State_Penalty>
0.0110334

> <r_epik_Charging_Adjusted_Penalty>
0.025161

> <i_epik_Tot_Q>
1

> <i_epik_Tot_abs_Q>
1

> <r_epik_Metal_State_Penalty>
0.0110573

> <b_epik_Metal_Only>
0

> <s_lp_Force_Field>
OPLS_2005

> <r_lp_Energy>
21.8269

> <b_lp_Chiralities_Consistent>
1

> <s_lp_Variant>
AV-unprocessed.smi:3311-1

> <Gold.Version>
5.8.1

> <Gold.Id.Protein>
6NUR|6NUR_protein|mol2

> <Gold.PLP.Fitness>
44.9845

> <Gold.PLP.PLP>
-39.8774

> <Gold.PLP.part.hbond>
-1.8344

> <Gold.PLP.part.metal>
0.0000

> <Gold.PLP.part.buried>
-0.5826

> <Gold.PLP.part.nonpolar>
-37.5285

> <Gold.PLP.part.repulsive>
0.1424

> <Gold.PLP.ligand.clash>
0.0000

> <Gold.PLP.ligand.torsion>
0.7029

> <Gold.PLP.Chemscore.Hbond>
1.0154

> <Gold.PLP.Chemscore.CHOScore>
1.1331

> <Gold.PLP.Chemscore.Metal>
0.0000

> <Gold.Chemscore.Hbonds>
donor molecule, donor type, donor heavy atom, donor atom, acceptor molecule, acceptor atom, score
      P1  H  7997  8008       L1     6  0.95
      L1  C    17    43       P1  8028  0.94
      L1  C    17    43       P1  8029  0.19

> <Gold.PLP.Chemscore.Internal.Correction>
0.0671

> <Gold.Rescore>
     Score         DG    S(hbond)    S(metal)    S(lipo)     H(rot)  DE(clash)    DE(int)     intcor
     12.59     -16.49       0.84        0.00     116.85       2.14       1.36       2.54       ----

> <Gold.Chemscore.Fitness>
12.5884

> <Gold.Chemscore.DG>
-16.4881

> <Gold.Chemscore.ZeroCoef>
-5.4800

> <Gold.Chemscore.Hbond>
0.8448

> <Gold.Chemscore.Metal>
0.0000

> <Gold.Chemscore.Lipo>
116.8460

> <Gold.Chemscore.Internal_Hbond>
0.0000

> <Gold.Chemscore.DEClash>
1.3627

> <Gold.Chemscore.DEInternal>
2.5371

> <Gold.Chemscore.Rot>
2.1424

> <Gold.Chemscore.Internal.Correction>
   9.000000E+99

> <Gold.Chemscore.Hbonds>
donor molecule, donor type, donor heavy atom, donor atom, acceptor molecule, acceptor atom, score
      P1  H  7997  8008       L1     6  0.21

> <Gold.Chemscore.Hbond.Weighted>
-2.8218

> <Gold.Chemscore.Metal.Weighted>
-0.0000

> <Gold.Chemscore.Lipo.Weighted>
-13.6710

> <Gold.Chemscore.Internal_Hbond.Weighted>
0.0000

> <Gold.Chemscore.DEClash.Weighted>
1.3627

> <Gold.Chemscore.DEInternal.Weighted>
2.5371

> <Gold.Chemscore.Rot.Weighted>
5.4846

> <Gold.Chemscore.Internal.Correction.Weighted>
   9.000000E+99

> <Gold.Protein.RotatedTorsions>
[ 6907 6896 6895 6894 ] final -130.66 input  -60.11 | X-H torsion
[ 7974 7965 7964 7962 ] final -129.14 input  175.53 | X-H torsion
[ 8008 7997 7996 7995 ] final  -33.77 input   59.86 | X-H torsion
[ 10167 10162 10161 10158 ] final  178.44 input  -65.29 | X-H torsion
[ 10718 10713 10712 10709 ] final   76.86 input   66.30 | X-H torsion
[ 10763 10752 10751 10750 ] final   32.28 input  -60.55 | X-H torsion
[ 11005 11000 10999 10996 ] final  108.34 input  -57.11 | X-H torsion

> <Gold.Protein.ActiveResidues>
 VAL166  LYS551  ARG553  GLY616  TRP617  ASP618  TYR619  PRO620  LYS621  CYS622 
 ASP623  PHE694  ASN695  SER759  ASP760  ASP761  ALA762  ILE779  LEU786  VAL792 
 PHE793  MET794  SER795  GLU796  ALA797  LYS798  CYS799  TRP800  GLU811  SER814 

> <Gold.Protein.RotatedAtoms>
  150.9422  133.6643  159.2788 H   0  0  0  0  0  0  0  0  0  0  0  0  # atno 6907 bound_to 6896
  151.4028  135.0972  159.9571 H   0  0  0  0  0  0  0  0  0  0  0  0  # atno 6908 bound_to 6896
  152.5074  133.8912  159.7450 H   0  0  0  0  0  0  0  0  0  0  0  0  # atno 6909 bound_to 6896
  144.9601  140.7437  143.4734 H   0  0  0  0  0  0  0  0  0  0  0  0  # atno 7974 bound_to 7965
  154.4139  140.1702  156.1942 H   0  0  0  0  0  0  0  0  0  0  0  0  # atno 8008 bound_to 7997
  155.9578  140.3396  155.6440 H   0  0  0  0  0  0  0  0  0  0  0  0  # atno 8009 bound_to 7997
  155.6787  140.0720  157.2483 H   0  0  0  0  0  0  0  0  0  0  0  0  # atno 8010 bound_to 7997
  139.5294  144.2679  152.0652 H   0  0  0  0  0  0  0  0  0  0  0  0  # atno 10167 bound_to 10162
  157.6689  130.9794  150.1558 H   0  0  0  0  0  0  0  0  0  0  0  0  # atno 10718 bound_to 10713
  153.0271  135.6417  154.1330 H   0  0  0  0  0  0  0  0  0  0  0  0  # atno 10763 bound_to 10752
  154.1057  135.2856  155.3243 H   0  0  0  0  0  0  0  0  0  0  0  0  # atno 10764 bound_to 10752
  154.6367  135.5474  153.7805 H   0  0  0  0  0  0  0  0  0  0  0  0  # atno 10765 bound_to 10752
  139.8842  134.9427  156.5958 H   0  0  0  0  0  0  0  0  0  0  0  0  # atno 11005 bound_to 11000
  145.2713  139.1953  143.4840 LP  0  0  0  0  0  0  0  0  0  0  0  0  # atno 17320 bound_to 7965
  146.3350  140.2660  142.8604 LP  0  0  0  0  0  0  0  0  0  0  0  0  # atno 17321 bound_to 7965
  140.2141  144.4533  150.6372 LP  0  0  0  0  0  0  0  0  0  0  0  0  # atno 17342 bound_to 10162
  140.6461  143.2214  151.6181 LP  0  0  0  0  0  0  0  0  0  0  0  0  # atno 17343 bound_to 10162
  156.2346  130.3685  149.8405 LP  0  0  0  0  0  0  0  0  0  0  0  0  # atno 17370 bound_to 10713
  156.6222  130.8631  151.3478 LP  0  0  0  0  0  0  0  0  0  0  0  0  # atno 17371 bound_to 10713
  140.7921  133.8574  155.8655 LP  0  0  0  0  0  0  0  0  0  0  0  0  # atno 17394 bound_to 11000
  140.9668  134.1584  157.4609 LP  0  0  0  0  0  0  0  0  0  0  0  0  # atno 17395 bound_to 11000

$$$$
