AV-unprocessed.smi:2800|AV-procd|sdf|10796|dock4
  -GOLD-   2272015233D 1   1.00000     0.00000
 Structure written by MMmdl.
 52 53  0  0  0  0  0  0  0  0  2 V2000
  151.1181  137.8809  154.3973 C   0  0  0  0  0  0  0  0  0  0  0  0
  150.4022  139.1398  154.8517 C   0  0  0  0  0  0  0  0  0  0  0  0
  151.0808  139.9798  155.6644 N   0  3  0  0  0  0  0  0  0  0  0  0
  150.5748  141.1378  156.1492 C   0  0  0  0  0  0  0  0  0  0  0  0
  151.3827  141.9289  156.9883 N   0  0  0  0  0  0  0  0  0  0  0  0
  151.0941  143.3359  157.2122 C   0  0  0  0  0  0  0  0  0  0  0  0
  152.0734  143.7637  158.3046 C   0  0  0  0  0  0  0  0  0  0  0  0
  152.2397  142.4934  159.1385 C   0  0  0  0  0  0  0  0  0  0  0  0
  152.1050  141.3574  158.1180 C   0  0  0  0  0  0  0  0  0  0  0  0
  149.2623  141.5066  155.7757 C   0  0  0  0  0  0  0  0  0  0  0  0
  148.5131  140.6658  154.9285 C   0  0  0  0  0  0  0  0  0  0  0  0
  149.0775  139.4516  154.4630 C   0  0  0  0  0  0  0  0  0  0  0  0
  148.3988  138.5458  153.5990 N   0  0  0  0  0  0  0  0  0  0  0  0
  147.0799  138.4128  153.3768 C   0  0  0  0  0  0  0  0  0  0  0  0
  146.1966  139.0882  153.9033 O   0  0  0  0  0  0  0  0  0  0  0  0
  146.8383  137.4221  152.5060 N   0  0  0  0  0  0  0  0  0  0  0  0
  145.5227  137.0300  151.9907 C   0  0  1  0  0  0  0  0  0  0  0  0
  145.6833  136.7467  150.4783 C   0  0  0  0  0  0  0  0  0  0  0  0
  146.2454  137.8694  149.8306 O   0  0  0  0  0  0  0  0  0  0  0  0
  144.9330  135.8400  152.8208 C   0  0  0  0  0  0  0  0  0  0  0  0
  144.7404  136.2226  154.3046 C   0  0  0  0  0  0  0  0  0  0  0  0
  145.8568  134.6047  152.7370 C   0  0  0  0  0  0  0  0  0  0  0  0
  143.5613  135.4174  152.2459 C   0  0  0  0  0  0  0  0  0  0  0  0
  144.8220  137.8616  152.0920 H   0  0  0  0  0  0  0  0  0  0  0  0
  150.5764  136.9945  154.7286 H   0  0  0  0  0  0  0  0  0  0  0  0
  152.1298  137.8297  154.8015 H   0  0  0  0  0  0  0  0  0  0  0  0
  151.1883  137.8559  153.3097 H   0  0  0  0  0  0  0  0  0  0  0  0
  151.2244  143.9258  156.3044 H   0  0  0  0  0  0  0  0  0  0  0  0
  150.0641  143.4460  157.5539 H   0  0  0  0  0  0  0  0  0  0  0  0
  153.0299  144.0381  157.8578 H   0  0  0  0  0  0  0  0  0  0  0  0
  151.7162  144.6145  158.8855 H   0  0  0  0  0  0  0  0  0  0  0  0
  153.1830  142.4625  159.6843 H   0  0  0  0  0  0  0  0  0  0  0  0
  151.4297  142.4283  159.8665 H   0  0  0  0  0  0  0  0  0  0  0  0
  151.5898  140.5014  158.5552 H   0  0  0  0  0  0  0  0  0  0  0  0
  153.0864  141.0280  157.7753 H   0  0  0  0  0  0  0  0  0  0  0  0
  148.8194  142.4283  156.1226 H   0  0  0  0  0  0  0  0  0  0  0  0
  147.5222  140.9828  154.6452 H   0  0  0  0  0  0  0  0  0  0  0  0
  148.9905  137.8735  153.1333 H   0  0  0  0  0  0  0  0  0  0  0  0
  147.6296  136.9154  152.1376 H   0  0  0  0  0  0  0  0  0  0  0  0
  146.3036  135.8682  150.2966 H   0  0  0  0  0  0  0  0  0  0  0  0
  144.7259  136.5629  149.9955 H   0  0  0  0  0  0  0  0  0  0  0  0
  145.5460  138.4529  149.5789 H   0  0  0  0  0  0  0  0  0  0  0  0
  144.3168  135.3929  154.8716 H   0  0  0  0  0  0  0  0  0  0  0  0
  144.0641  137.0697  154.4213 H   0  0  0  0  0  0  0  0  0  0  0  0
  145.6852  136.4858  154.7801 H   0  0  0  0  0  0  0  0  0  0  0  0
  146.8052  134.7566  153.2509 H   0  0  0  0  0  0  0  0  0  0  0  0
  146.0772  134.3418  151.7017 H   0  0  0  0  0  0  0  0  0  0  0  0
  145.3935  133.7328  153.2003 H   0  0  0  0  0  0  0  0  0  0  0  0
  143.1701  134.5364  152.7560 H   0  0  0  0  0  0  0  0  0  0  0  0
  143.6339  135.1745  151.1852 H   0  0  0  0  0  0  0  0  0  0  0  0
  142.8109  136.2008  152.3536 H   0  0  0  0  0  0  0  0  0  0  0  0
  152.0323  139.7242  155.9284 H   0  0  0  0  0  0  0  0  0  0  0  0
  1  2  1  0  0  0  0
  1 25  1  0  0  0  0
  1 26  1  0  0  0  0
  1 27  1  0  0  0  0
  2 12  1  0  0  0  0
  2  3  2  0  0  0  0
  3  4  1  0  0  0  0
  3 52  1  0  0  0  0
  4  5  1  0  0  0  0
  4 10  2  0  0  0  0
  5  9  1  0  0  0  0
  5  6  1  0  0  0  0
  6  7  1  0  0  0  0
  6 28  1  0  0  0  0
  6 29  1  0  0  0  0
  7  8  1  0  0  0  0
  7 30  1  0  0  0  0
  7 31  1  0  0  0  0
  8  9  1  0  0  0  0
  8 32  1  0  0  0  0
  8 33  1  0  0  0  0
  9 34  1  0  0  0  0
  9 35  1  0  0  0  0
 10 11  1  0  0  0  0
 10 36  1  0  0  0  0
 11 12  2  0  0  0  0
 11 37  1  0  0  0  0
 12 13  1  0  0  0  0
 13 14  1  0  0  0  0
 13 38  1  0  0  0  0
 14 15  2  0  0  0  0
 14 16  1  0  0  0  0
 16 17  1  0  0  0  0
 16 39  1  0  0  0  0
 17 24  1  0  0  0  0
 17 18  1  0  0  0  0
 17 20  1  0  0  0  0
 18 19  1  0  0  0  0
 18 40  1  0  0  0  0
 18 41  1  0  0  0  0
 19 42  1  0  0  0  0
 20 21  1  0  0  0  0
 20 22  1  0  0  0  0
 20 23  1  0  0  0  0
 21 43  1  0  0  0  0
 21 44  1  0  0  0  0
 21 45  1  0  0  0  0
 22 46  1  0  0  0  0
 22 47  1  0  0  0  0
 22 48  1  0  0  0  0
 23 49  1  0  0  0  0
 23 50  1  0  0  0  0
 23 51  1  0  0  0  0
M  CHG  1   3   1
M  END
> <s_m_source_file>
AV-unprocessed.smi

> <i_m_source_file_index>
2800

> <i_lp_mmshare_version>
43012

> <i_f3d_flags>
0

> <s_epik_input>
W0NIMl0xW0NIMl1bQ0gyXVtDSDJdTjFjKG5jMltDSDNdKVtjSF1bY0hdYzJbTkhdQyg9TylbTkhdW0NASF0oW0NIMl1bT0hdKUMoW0NIM10pKFtDSDNdKVtDSDNd

> <s_epik_cmdline>
J2VwaWtfcHl0aG9uJywgJy1waCcsICc3LjAnLCAnLXRuJywgJzgnLCAnLW1hJywgJzIwMCcsICctbWV0YWxfYmluZGluZycsICctaW1hZScsICc8aW5maWxlLm1hZT4nLCAnLW9tYWUnLCAnPG91dGZpbGUubWFlPic=

> <r_lp_tautomer_probability>
0.999994

> <r_epik_Ionization_Penalty>
0.536494

> <r_epik_Ionization_Penalty_Charging>
0.536474

> <r_epik_Ionization_Penalty_Neutral>
1.97788e-05

> <r_epik_State_Penalty>
0.545692

> <r_epik_Charging_Adjusted_Penalty>
1.08217

> <i_epik_Tot_Q>
1

> <i_epik_Tot_abs_Q>
1

> <r_epik_Metal_State_Penalty>
0.748506

> <b_epik_Metal_Only>
0

> <s_lp_Force_Field>
OPLS_2005

> <r_lp_Energy>
41.3448

> <b_lp_Chiralities_Consistent>
1

> <s_lp_Variant>
AV-unprocessed.smi:2800-4

> <Gold.Version>
5.8.1

> <Gold.Id.Protein>
6NUR|6NUR_protein|mol2

> <Gold.PLP.Fitness>
46.2684

> <Gold.PLP.PLP>
-38.3017

> <Gold.PLP.part.hbond>
-4.2345

> <Gold.PLP.part.metal>
0.0000

> <Gold.PLP.part.buried>
-2.3565

> <Gold.PLP.part.nonpolar>
-34.1151

> <Gold.PLP.part.repulsive>
0.3659

> <Gold.PLP.ligand.clash>
0.0000

> <Gold.PLP.ligand.torsion>
0.8905

> <Gold.PLP.Chemscore.Hbond>
3.1423

> <Gold.PLP.Chemscore.CHOScore>
0.0000

> <Gold.PLP.Chemscore.Metal>
0.0000

> <Gold.Chemscore.Hbonds>
donor molecule, donor type, donor heavy atom, donor atom, acceptor molecule, acceptor atom, score
      L1  H    13    38       P1  7948  0.83
      L1  H    16    39       P1  7948  0.93
      L1  H    19    42       P1 10171  0.80
      P1  H  7954  7966       L1    19  0.51

> <Gold.PLP.Chemscore.Internal.Correction>
0.3209

> <Gold.Rescore>
     Score         DG    S(hbond)    S(metal)    S(lipo)     H(rot)  DE(clash)    DE(int)     intcor
     19.43     -22.87       3.31        0.00      96.89       1.95       1.21       2.23       ----

> <Gold.Chemscore.Fitness>
19.4286

> <Gold.Chemscore.DG>
-22.8684

> <Gold.Chemscore.ZeroCoef>
-5.4800

> <Gold.Chemscore.Hbond>
3.3064

> <Gold.Chemscore.Metal>
0.0000

> <Gold.Chemscore.Lipo>
96.8939

> <Gold.Chemscore.Internal_Hbond>
0.0000

> <Gold.Chemscore.DEClash>
1.2141

> <Gold.Chemscore.DEInternal>
2.2257

> <Gold.Chemscore.Rot>
1.9499

> <Gold.Chemscore.Internal.Correction>
   9.000000E+99

> <Gold.Chemscore.Hbonds>
donor molecule, donor type, donor heavy atom, donor atom, acceptor molecule, acceptor atom, score
      L1  H    13    38       P1  7948  0.78
      L1  H    16    39       P1  7948  0.89
      L1  H    19    42       P1 10171  0.79
      P1  H  7954  7966       L1    19  0.44

> <Gold.Chemscore.Hbond.Weighted>
-11.0435

> <Gold.Chemscore.Metal.Weighted>
-0.0000

> <Gold.Chemscore.Lipo.Weighted>
-11.3366

> <Gold.Chemscore.Internal_Hbond.Weighted>
0.0000

> <Gold.Chemscore.DEClash.Weighted>
1.2141

> <Gold.Chemscore.DEInternal.Weighted>
2.2257

> <Gold.Chemscore.Rot.Weighted>
4.9916

> <Gold.Chemscore.Internal.Correction.Weighted>
   9.000000E+99

> <Gold.Protein.RotatedTorsions>
[ 6907 6896 6895 6894 ] final -141.95 input  -60.11 | X-H torsion
[ 7974 7965 7964 7962 ] final   -9.56 input  175.53 | X-H torsion
[ 8008 7997 7996 7995 ] final   -7.00 input   59.86 | X-H torsion
[ 10167 10162 10161 10158 ] final -156.04 input  -65.29 | X-H torsion
[ 10718 10713 10712 10709 ] final  121.41 input   66.30 | X-H torsion
[ 10763 10752 10751 10750 ] final  137.55 input  -60.55 | X-H torsion
[ 11005 11000 10999 10996 ] final -118.18 input  -57.11 | X-H torsion

> <Gold.Protein.ActiveResidues>
 VAL166  LYS551  ARG553  GLY616  TRP617  ASP618  TYR619  PRO620  LYS621  CYS622 
 ASP623  PHE694  ASN695  SER759  ASP760  ASP761  ALA762  ILE779  LEU786  VAL792 
 PHE793  MET794  SER795  GLU796  ALA797  LYS798  CYS799  TRP800  GLU811  SER814 

> <Gold.Protein.RotatedAtoms>
  151.0806  133.5393  159.2620 H   0  0  0  0  0  0  0  0  0  0  0  0  # atno 6907 bound_to 6896
  151.2298  135.0549  159.8993 H   0  0  0  0  0  0  0  0  0  0  0  0  # atno 6908 bound_to 6896
  152.5423  134.0596  159.8200 H   0  0  0  0  0  0  0  0  0  0  0  0  # atno 6909 bound_to 6896
  146.2248  140.2635  142.8353 H   0  0  0  0  0  0  0  0  0  0  0  0  # atno 7974 bound_to 7965
  154.5881  140.2418  155.7958 H   0  0  0  0  0  0  0  0  0  0  0  0  # atno 8008 bound_to 7997
  156.2228  140.2992  155.9948 H   0  0  0  0  0  0  0  0  0  0  0  0  # atno 8009 bound_to 7997
  155.2421  140.0407  157.2967 H   0  0  0  0  0  0  0  0  0  0  0  0  # atno 8010 bound_to 7997
  139.6882  143.9465  152.2372 H   0  0  0  0  0  0  0  0  0  0  0  0  # atno 10167 bound_to 10162
  157.5819  131.1074  150.8170 H   0  0  0  0  0  0  0  0  0  0  0  0  # atno 10718 bound_to 10713
  153.8749  135.3051  155.3443 H   0  0  0  0  0  0  0  0  0  0  0  0  # atno 10763 bound_to 10752
  154.7788  135.4846  153.9804 H   0  0  0  0  0  0  0  0  0  0  0  0  # atno 10764 bound_to 10752
  153.1384  135.6819  153.9162 H   0  0  0  0  0  0  0  0  0  0  0  0  # atno 10765 bound_to 10752
  141.0304  133.9990  157.3152 H   0  0  0  0  0  0  0  0  0  0  0  0  # atno 11005 bound_to 11000
  144.9322  140.7987  143.5682 LP  0  0  0  0  0  0  0  0  0  0  0  0  # atno 17320 bound_to 7965
  145.2579  139.2004  143.4907 LP  0  0  0  0  0  0  0  0  0  0  0  0  # atno 17321 bound_to 7965
  139.9274  144.6762  150.8398 LP  0  0  0  0  0  0  0  0  0  0  0  0  # atno 17342 bound_to 10162
  140.7674  143.3332  151.2364 LP  0  0  0  0  0  0  0  0  0  0  0  0  # atno 17343 bound_to 10162
  156.8614  130.5114  149.5303 LP  0  0  0  0  0  0  0  0  0  0  0  0  # atno 17370 bound_to 10713
  156.0866  130.5862  150.9658 LP  0  0  0  0  0  0  0  0  0  0  0  0  # atno 17371 bound_to 10713
  139.9204  135.0200  156.8041 LP  0  0  0  0  0  0  0  0  0  0  0  0  # atno 17394 bound_to 11000
  140.6417  133.9812  155.7711 LP  0  0  0  0  0  0  0  0  0  0  0  0  # atno 17395 bound_to 11000

$$$$
