AV-unprocessed.smi:114|AV-procd|sdf|1121|dock4
  -GOLD-   2262018243D 1   1.00000     0.00000
 Structure written by MMmdl.
 32 34  0  0  0  0  0  0  0  0  1 V2000
  153.1533  136.9079  161.9819 N   0  0  0  0  0  0  0  0  0  0  0  0
  153.4614  137.7389  160.9764 C   0  0  0  0  0  0  0  0  0  0  0  0
  154.5012  138.5882  161.1399 N   0  0  0  0  0  0  0  0  0  0  0  0
  154.8432  139.4305  160.1588 C   0  0  0  0  0  0  0  0  0  0  0  0
  155.8942  140.2471  160.4054 F   0  0  0  0  0  0  0  0  0  0  0  0
  154.2609  139.5576  158.9625 N   0  0  0  0  0  0  0  0  0  0  0  0
  153.2085  138.7056  158.7867 C   0  0  0  0  0  0  0  0  0  0  0  0
  152.7506  137.7666  159.7517 C   0  0  0  0  0  0  0  0  0  0  0  0
  151.6685  137.0589  159.2522 N   0  0  0  0  0  0  0  0  0  0  0  0
  151.5034  137.5491  158.0542 C   0  0  0  0  0  0  0  0  0  0  0  0
  152.3739  138.5541  157.6896 N   0  0  0  0  0  0  0  0  0  0  0  0
  152.4026  139.2457  156.3524 C   0  0  2  0  0  0  0  0  0  0  0  0
  151.1111  139.6646  156.0487 O   0  0  0  0  0  0  0  0  0  0  0  0
  150.4719  138.6937  155.2333 C   0  0  1  0  0  0  0  0  0  0  0  0
  149.3273  139.3497  154.4468 C   0  0  0  0  0  0  0  0  0  0  0  0
  149.8392  140.3429  153.5838 O   0  0  0  0  0  0  0  0  0  0  0  0
  151.6160  138.1891  154.3400 C   0  0  2  0  0  0  0  0  0  0  0  0
  151.4092  136.8334  153.9977 O   0  0  0  0  0  0  0  0  0  0  0  0
  152.8770  138.3482  155.1956 C   0  0  1  0  0  0  0  0  0  0  0  0
  153.8964  138.9776  154.4457 O   0  0  0  0  0  0  0  0  0  0  0  0
  153.0469  140.1099  156.5209 H   0  0  0  0  0  0  0  0  0  0  0  0
  150.0888  137.8883  155.8603 H   0  0  0  0  0  0  0  0  0  0  0  0
  151.6815  138.7955  153.4347 H   0  0  0  0  0  0  0  0  0  0  0  0
  153.2697  137.4042  155.5718 H   0  0  0  0  0  0  0  0  0  0  0  0
  152.3821  136.2634  161.8823 H   0  0  0  0  0  0  0  0  0  0  0  0
  153.6971  136.9218  162.8325 H   0  0  0  0  0  0  0  0  0  0  0  0
  150.7312  137.1834  157.3929 H   0  0  0  0  0  0  0  0  0  0  0  0
  148.7572  138.6110  153.8827 H   0  0  0  0  0  0  0  0  0  0  0  0
  148.6355  139.8390  155.1329 H   0  0  0  0  0  0  0  0  0  0  0  0
  149.6410  140.0988  152.6928 H   0  0  0  0  0  0  0  0  0  0  0  0
  151.1664  136.7884  153.0856 H   0  0  0  0  0  0  0  0  0  0  0  0
  153.7337  138.8207  153.5280 H   0  0  0  0  0  0  0  0  0  0  0  0
  1  2  1  0  0  0  0
  1 25  1  0  0  0  0
  1 26  1  0  0  0  0
  2  8  1  0  0  0  0
  2  3  2  0  0  0  0
  3  4  1  0  0  0  0
  4  5  1  0  0  0  0
  4  6  2  0  0  0  0
  6  7  1  0  0  0  0
  7 11  1  0  0  0  0
  7  8  2  0  0  0  0
  8  9  1  0  0  0  0
  9 10  2  0  0  0  0
 10 11  1  0  0  0  0
 10 27  1  0  0  0  0
 11 12  1  0  0  0  0
 12 21  1  0  0  0  0
 12 19  1  0  0  0  0
 12 13  1  0  0  0  0
 13 14  1  0  0  0  0
 14 22  1  0  0  0  0
 14 15  1  0  0  0  0
 14 17  1  0  0  0  0
 15 16  1  0  0  0  0
 15 28  1  0  0  0  0
 15 29  1  0  0  0  0
 16 30  1  0  0  0  0
 17 23  1  0  0  0  0
 17 18  1  0  0  0  0
 17 19  1  0  0  0  0
 18 31  1  0  0  0  0
 19 24  1  0  0  0  0
 19 20  1  0  0  0  0
 20 32  1  0  0  0  0
M  END
> <s_m_source_file>
AV-unprocessed.smi

> <i_m_source_file_index>
114

> <i_lp_mmshare_version>
43012

> <i_f3d_flags>
0

> <s_epik_input>
RmMobjEpbmMoW05IMl0pYyhjMTIpbltjSF1uMltDQEBIXTNPW0NASF0oW0NIMl1bT0hdKVtDQEBIXShbT0hdKVtDQEBIXTNbT0hd

> <s_epik_cmdline>
J2VwaWtfcHl0aG9uJywgJy1waCcsICc3LjAnLCAnLXRuJywgJzgnLCAnLW1hJywgJzIwMCcsICctbWV0YWxfYmluZGluZycsICctaW1hZScsICc8aW5maWxlLm1hZT4nLCAnLW9tYWUnLCAnPG91dGZpbGUubWFlPic=

> <r_lp_tautomer_probability>
1

> <r_epik_Ionization_Penalty>
1.13199e-05

> <r_epik_Ionization_Penalty_Charging>
0

> <r_epik_Ionization_Penalty_Neutral>
1.13199e-05

> <r_epik_State_Penalty>
-0

> <r_epik_Charging_Adjusted_Penalty>
0

> <i_epik_Tot_Q>
0

> <i_epik_Tot_abs_Q>
0

> <r_epik_Metal_State_Penalty>
-0

> <b_epik_Metal_Only>
0

> <s_epik_Chemistry_Notes>
This compound contains an acetal/aminal-like group ( X-CH(R)-Y where X, Y are N, S, or O) that may be acid/base labile, releasing an aldehyde.

> <s_lp_Force_Field>
OPLS_2005

> <r_lp_Energy>
32.4154

> <b_lp_Chiralities_Consistent>
1

> <s_lp_Variant>
AV-unprocessed.smi:114-15

> <Gold.Version>
5.8.1

> <Gold.Id.Protein>
6NUR|6NUR_protein|mol2

> <Gold.PLP.Fitness>
49.0224

> <Gold.PLP.PLP>
-29.4179

> <Gold.PLP.part.hbond>
-7.0000

> <Gold.PLP.part.metal>
0.0000

> <Gold.PLP.part.buried>
-3.5957

> <Gold.PLP.part.nonpolar>
-18.6658

> <Gold.PLP.part.repulsive>
0.0612

> <Gold.PLP.ligand.clash>
0.0000

> <Gold.PLP.ligand.torsion>
0.2400

> <Gold.PLP.Chemscore.Hbond>
6.6880

> <Gold.PLP.Chemscore.CHOScore>
0.0000

> <Gold.PLP.Chemscore.Metal>
0.0000

> <Gold.Chemscore.Hbonds>
donor molecule, donor type, donor heavy atom, donor atom, acceptor molecule, acceptor atom, score
      L1  H    16    30       P1  7957  1.00
      L1  H    18    31       P1  7949  1.00
      P1  H  6896  6908       L1     9  1.00
      P1  H  7989  7998       L1    16  0.58
      P1  H  7997  8009       L1     6  1.00
      P1  H  7997  8010       L1    20  1.00
      P1  H 10752 10764       L1    18  0.95

> <Gold.PLP.Chemscore.Internal.Correction>
0.0205

> <Gold.Rescore>
     Score         DG    S(hbond)    S(metal)    S(lipo)     H(rot)  DE(clash)    DE(int)     intcor
     14.99     -15.39       4.84        0.00      34.69       4.03       0.04       0.36       ----

> <Gold.Chemscore.Fitness>
14.9890

> <Gold.Chemscore.DG>
-15.3901

> <Gold.Chemscore.ZeroCoef>
-5.4800

> <Gold.Chemscore.Hbond>
4.8392

> <Gold.Chemscore.Metal>
0.0000

> <Gold.Chemscore.Lipo>
34.6860

> <Gold.Chemscore.Internal_Hbond>
0.0000

> <Gold.Chemscore.DEClash>
0.0433

> <Gold.Chemscore.DEInternal>
0.3578

> <Gold.Chemscore.Rot>
4.0277

> <Gold.Chemscore.Internal.Correction>
   9.000000E+99

> <Gold.Chemscore.Hbonds>
donor molecule, donor type, donor heavy atom, donor atom, acceptor molecule, acceptor atom, score
      L1  H    16    30       P1  7957  0.93
      L1  H    18    31       P1  7949  0.48
      P1  H  6896  6908       L1     9  0.84
      P1  H  7989  7998       L1    16  0.20
      P1  H  7997  8009       L1     6  0.82
      P1  H  7997  8010       L1    20  0.48
      P1  H 10752 10764       L1    18  0.19

> <Gold.Chemscore.Hbond.Weighted>
-16.1628

> <Gold.Chemscore.Metal.Weighted>
-0.0000

> <Gold.Chemscore.Lipo.Weighted>
-4.0583

> <Gold.Chemscore.Internal_Hbond.Weighted>
0.0000

> <Gold.Chemscore.DEClash.Weighted>
0.0433

> <Gold.Chemscore.DEInternal.Weighted>
0.3578

> <Gold.Chemscore.Rot.Weighted>
10.3110

> <Gold.Chemscore.Internal.Correction.Weighted>
   9.000000E+99

> <Gold.Protein.RotatedTorsions>
[ 6907 6896 6895 6894 ] final -125.30 input  -60.11 | X-H torsion
[ 7974 7965 7964 7962 ] final   37.60 input  175.53 | X-H torsion
[ 8008 7997 7996 7995 ] final  122.48 input   59.86 | X-H torsion
[ 10167 10162 10161 10158 ] final  -61.10 input  -65.29 | X-H torsion
[ 10718 10713 10712 10709 ] final  -57.62 input   66.30 | X-H torsion
[ 10763 10752 10751 10750 ] final  -99.05 input  -60.55 | X-H torsion
[ 11005 11000 10999 10996 ] final  105.80 input  -57.11 | X-H torsion

> <Gold.Protein.ActiveResidues>
 VAL166  LYS551  ARG553  GLY616  TRP617  ASP618  TYR619  PRO620  LYS621  CYS622 
 ASP623  PHE694  ASN695  SER759  ASP760  ASP761  ALA762  ILE779  LEU786  VAL792 
 PHE793  MET794  SER795  GLU796  ALA797  LYS798  CYS799  TRP800  GLU811  SER814 

> <Gold.Protein.RotatedAtoms>
  150.8853  133.7316  159.2919 H   0  0  0  0  0  0  0  0  0  0  0  0  # atno 6907 bound_to 6896
  151.4883  135.1054  159.9806 H   0  0  0  0  0  0  0  0  0  0  0  0  # atno 6908 bound_to 6896
  152.4786  133.8153  159.7080 H   0  0  0  0  0  0  0  0  0  0  0  0  # atno 6909 bound_to 6896
  146.1125  139.5874  142.9343 H   0  0  0  0  0  0  0  0  0  0  0  0  # atno 7974 bound_to 7965
  156.2729  140.2785  156.1474 H   0  0  0  0  0  0  0  0  0  0  0  0  # atno 8008 bound_to 7997
  155.0889  140.0388  157.2680 H   0  0  0  0  0  0  0  0  0  0  0  0  # atno 8009 bound_to 7997
  154.6905  140.2628  155.6823 H   0  0  0  0  0  0  0  0  0  0  0  0  # atno 8010 bound_to 7997
  140.6028  143.2366  151.5889 H   0  0  0  0  0  0  0  0  0  0  0  0  # atno 10167 bound_to 10162
  156.1197  130.4167  150.0466 H   0  0  0  0  0  0  0  0  0  0  0  0  # atno 10718 bound_to 10713
  154.7466  135.4986  153.9215 H   0  0  0  0  0  0  0  0  0  0  0  0  # atno 10763 bound_to 10752
  153.1098  135.6706  153.9528 H   0  0  0  0  0  0  0  0  0  0  0  0  # atno 10764 bound_to 10752
  153.9290  135.3080  155.3425 H   0  0  0  0  0  0  0  0  0  0  0  0  # atno 10765 bound_to 10752
  139.8806  134.9348  156.5569 H   0  0  0  0  0  0  0  0  0  0  0  0  # atno 11005 bound_to 11000
  145.5634  141.0402  143.2213 LP  0  0  0  0  0  0  0  0  0  0  0  0  # atno 17320 bound_to 7965
  144.7524  139.7160  143.7268 LP  0  0  0  0  0  0  0  0  0  0  0  0  # atno 17321 bound_to 7965
  139.5303  144.2935  152.1132 LP  0  0  0  0  0  0  0  0  0  0  0  0  # atno 17342 bound_to 10162
  140.2119  144.4554  150.6382 LP  0  0  0  0  0  0  0  0  0  0  0  0  # atno 17343 bound_to 10162
  156.8407  130.9425  151.3632 LP  0  0  0  0  0  0  0  0  0  0  0  0  # atno 17370 bound_to 10713
  157.6380  130.8782  149.9395 LP  0  0  0  0  0  0  0  0  0  0  0  0  # atno 17371 bound_to 10713
  140.8198  133.8362  155.8885 LP  0  0  0  0  0  0  0  0  0  0  0  0  # atno 17394 bound_to 11000
  140.9428  134.1878  157.4785 LP  0  0  0  0  0  0  0  0  0  0  0  0  # atno 17395 bound_to 11000

$$$$
