AV-unprocessed.smi:2716|AV-procd|sdf|10483|dock5
  -GOLD-   2272014523D 1   1.00000     0.00000
 Structure written by MMmdl.
 19 19  0  0  0  0  0  0  0  0  1 V2000
  150.8447  137.9740  153.1370 N   0  0  0  0  0  0  0  0  0  0  0  0
  151.3059  138.0794  154.3862 C   0  0  0  0  0  0  0  0  0  0  0  0
  151.8920  137.1584  154.9518 O   0  0  0  0  0  0  0  0  0  0  0  0
  151.0525  139.3923  155.0403 C   0  0  0  0  0  0  0  0  0  0  0  0
  151.4556  139.7552  156.2948 C   0  0  0  0  0  0  0  0  0  0  0  0
  150.9792  141.0429  156.4272 N   0  0  0  0  0  0  0  0  0  0  0  0
  151.1064  141.9428  157.5594 C   0  0  0  0  0  0  0  0  0  0  0  0
  149.7563  142.2443  158.2316 C   0  0  0  0  0  0  0  0  0  0  0  0
  148.7703  142.5552  157.2686 O   0  0  0  0  0  0  0  0  0  0  0  0
  150.3261  141.4484  155.3120 N   0  0  0  0  0  0  0  0  0  0  0  0
  150.3606  140.4642  154.4694 N   0  0  0  0  0  0  0  0  0  0  0  0
  150.9744  137.1152  152.6226 H   0  0  0  0  0  0  0  0  0  0  0  0
  150.3667  138.7571  152.7150 H   0  0  0  0  0  0  0  0  0  0  0  0
  152.0066  139.2358  157.0649 H   0  0  0  0  0  0  0  0  0  0  0  0
  151.7954  141.4998  158.2798 H   0  0  0  0  0  0  0  0  0  0  0  0
  151.5682  142.8689  157.2146 H   0  0  0  0  0  0  0  0  0  0  0  0
  149.4236  141.3808  158.8076 H   0  0  0  0  0  0  0  0  0  0  0  0
  149.8498  143.0780  158.9282 H   0  0  0  0  0  0  0  0  0  0  0  0
  149.0718  143.2892  156.7552 H   0  0  0  0  0  0  0  0  0  0  0  0
  1  2  1  0  0  0  0
  1 12  1  0  0  0  0
  1 13  1  0  0  0  0
  2  3  2  0  0  0  0
  2  4  1  0  0  0  0
  4 11  1  0  0  0  0
  4  5  2  0  0  0  0
  5  6  1  0  0  0  0
  5 14  1  0  0  0  0
  6  7  1  0  0  0  0
  6 10  1  0  0  0  0
  7  8  1  0  0  0  0
  7 15  1  0  0  0  0
  7 16  1  0  0  0  0
  8  9  1  0  0  0  0
  8 17  1  0  0  0  0
  8 18  1  0  0  0  0
  9 19  1  0  0  0  0
 10 11  2  0  0  0  0
M  END
> <s_m_source_file>
AV-unprocessed.smi

> <i_m_source_file_index>
2716

> <i_lp_mmshare_version>
43012

> <i_f3d_flags>
0

> <s_epik_input>
W05IMl1DKD1PKWMxW2NIXW4obm4xKVtDSDJdW0NIMl1bT0hd

> <s_epik_cmdline>
J2VwaWtfcHl0aG9uJywgJy1waCcsICc3LjAnLCAnLXRuJywgJzgnLCAnLW1hJywgJzIwMCcsICctbWV0YWxfYmluZGluZycsICctaW1hZScsICc8aW5maWxlLm1hZT4nLCAnLW9tYWUnLCAnPG91dGZpbGUubWFlPic=

> <r_lp_tautomer_probability>
1

> <r_epik_Ionization_Penalty>
2.94119e-06

> <r_epik_Ionization_Penalty_Charging>
0

> <r_epik_Ionization_Penalty_Neutral>
2.94119e-06

> <r_epik_State_Penalty>
-0

> <r_epik_Charging_Adjusted_Penalty>
0

> <i_epik_Tot_Q>
0

> <i_epik_Tot_abs_Q>
0

> <r_epik_Metal_State_Penalty>
-0

> <b_epik_Metal_Only>
0

> <s_lp_Force_Field>
OPLS_2005

> <r_lp_Energy>
2.94202

> <b_lp_Chiralities_Consistent>
1

> <s_lp_Variant>
AV-unprocessed.smi:2716-1

> <Gold.Version>
5.8.1

> <Gold.Id.Protein>
6NUR|6NUR_protein|mol2

> <Gold.PLP.Fitness>
30.7748

> <Gold.PLP.PLP>
-17.7474

> <Gold.PLP.part.hbond>
-6.5223

> <Gold.PLP.part.metal>
0.0000

> <Gold.PLP.part.buried>
2.4563

> <Gold.PLP.part.nonpolar>
-13.1727

> <Gold.PLP.part.repulsive>
0.4328

> <Gold.PLP.ligand.clash>
0.0000

> <Gold.PLP.ligand.torsion>
0.0902

> <Gold.PLP.Chemscore.Hbond>
4.4025

> <Gold.PLP.Chemscore.CHOScore>
0.0000

> <Gold.PLP.Chemscore.Metal>
0.0000

> <Gold.Chemscore.Hbonds>
donor molecule, donor type, donor heavy atom, donor atom, acceptor molecule, acceptor atom, score
      L1  H     1    12       P1  7949  0.95
      L1  H     1    13       P1  7957  0.75
      L1  H     9    19       P1  8028  1.00
      P1  H  7989  7998       L1    11  0.68
      P1  H 10752 10765       L1     3  0.99

> <Gold.PLP.Chemscore.Internal.Correction>
0.0003

> <Gold.Rescore>
     Score         DG    S(hbond)    S(metal)    S(lipo)     H(rot)  DE(clash)    DE(int)     intcor
     10.78     -13.90       3.43        0.00      20.77       2.14       1.51       1.62       ----

> <Gold.Chemscore.Fitness>
10.7815

> <Gold.Chemscore.DG>
-13.9042

> <Gold.Chemscore.ZeroCoef>
-5.4800

> <Gold.Chemscore.Hbond>
3.4347

> <Gold.Chemscore.Metal>
0.0000

> <Gold.Chemscore.Lipo>
20.7711

> <Gold.Chemscore.Internal_Hbond>
0.0000

> <Gold.Chemscore.DEClash>
1.5069

> <Gold.Chemscore.DEInternal>
1.6159

> <Gold.Chemscore.Rot>
2.1398

> <Gold.Chemscore.Internal.Correction>
   9.000000E+99

> <Gold.Chemscore.Hbonds>
donor molecule, donor type, donor heavy atom, donor atom, acceptor molecule, acceptor atom, score
      L1  H     1    12       P1  7949  0.21
      L1  H     1    13       P1  7957  0.19
      L1  H     9    19       P1  8028  0.93
      P1  H  7989  7998       L1    11  0.02
      P1  H 10752 10765       L1     3  0.93

> <Gold.Chemscore.Hbond.Weighted>
-11.4718

> <Gold.Chemscore.Metal.Weighted>
-0.0000

> <Gold.Chemscore.Lipo.Weighted>
-2.4302

> <Gold.Chemscore.Internal_Hbond.Weighted>
0.0000

> <Gold.Chemscore.DEClash.Weighted>
1.5069

> <Gold.Chemscore.DEInternal.Weighted>
1.6159

> <Gold.Chemscore.Rot.Weighted>
5.4778

> <Gold.Chemscore.Internal.Correction.Weighted>
   9.000000E+99

> <Gold.Protein.RotatedTorsions>
[ 6907 6896 6895 6894 ] final   10.71 input  -60.11 | X-H torsion
[ 7974 7965 7964 7962 ] final   43.67 input  175.53 | X-H torsion
[ 8008 7997 7996 7995 ] final -177.21 input   59.86 | X-H torsion
[ 10167 10162 10161 10158 ] final   71.60 input  -65.29 | X-H torsion
[ 10718 10713 10712 10709 ] final   86.07 input   66.30 | X-H torsion
[ 10763 10752 10751 10750 ] final -179.92 input  -60.55 | X-H torsion
[ 11005 11000 10999 10996 ] final   94.80 input  -57.11 | X-H torsion

> <Gold.Protein.ActiveResidues>
 VAL166  LYS551  ARG553  GLY616  TRP617  ASP618  TYR619  PRO620  LYS621  CYS622 
 ASP623  PHE694  ASN695  SER759  ASP760  ASP761  ALA762  ILE779  LEU786  VAL792 
 PHE793  MET794  SER795  GLU796  ALA797  LYS798  CYS799  TRP800  GLU811  SER814 

> <Gold.Protein.RotatedAtoms>
  151.7427  135.0850  160.0317 H   0  0  0  0  0  0  0  0  0  0  0  0  # atno 6907 bound_to 6896
  152.3469  133.6128  159.5925 H   0  0  0  0  0  0  0  0  0  0  0  0  # atno 6908 bound_to 6896
  150.7514  133.9552  159.3540 H   0  0  0  0  0  0  0  0  0  0  0  0  # atno 6909 bound_to 6896
  146.0635  139.5160  142.9643 H   0  0  0  0  0  0  0  0  0  0  0  0  # atno 7974 bound_to 7965
  156.0042  140.1227  157.0518 H   0  0  0  0  0  0  0  0  0  0  0  0  # atno 8008 bound_to 7997
  154.4253  140.1100  156.5808 H   0  0  0  0  0  0  0  0  0  0  0  0  # atno 8009 bound_to 7997
  155.6170  140.3472  155.4642 H   0  0  0  0  0  0  0  0  0  0  0  0  # atno 8010 bound_to 7997
  140.0443  144.5364  150.7410 H   0  0  0  0  0  0  0  0  0  0  0  0  # atno 10167 bound_to 10162
  157.6924  131.0201  150.2918 H   0  0  0  0  0  0  0  0  0  0  0  0  # atno 10718 bound_to 10713
  154.5290  135.2798  155.1197 H   0  0  0  0  0  0  0  0  0  0  0  0  # atno 10763 bound_to 10752
  154.2724  135.6301  153.5319 H   0  0  0  0  0  0  0  0  0  0  0  0  # atno 10764 bound_to 10752
  152.9952  135.5631  154.5798 H   0  0  0  0  0  0  0  0  0  0  0  0  # atno 10765 bound_to 10752
  139.8795  134.8865  156.3917 H   0  0  0  0  0  0  0  0  0  0  0  0  # atno 11005 bound_to 11000
  145.6518  141.0261  143.1756 LP  0  0  0  0  0  0  0  0  0  0  0  0  # atno 17320 bound_to 7965
  144.7189  139.8100  143.7389 LP  0  0  0  0  0  0  0  0  0  0  0  0  # atno 17321 bound_to 7965
  140.7246  143.2623  151.4164 LP  0  0  0  0  0  0  0  0  0  0  0  0  # atno 17342 bound_to 10162
  139.5994  144.1329  152.2180 LP  0  0  0  0  0  0  0  0  0  0  0  0  # atno 17343 bound_to 10162
  156.3448  130.3821  149.7379 LP  0  0  0  0  0  0  0  0  0  0  0  0  # atno 17370 bound_to 10713
  156.4876  130.8070  151.3081 LP  0  0  0  0  0  0  0  0  0  0  0  0  # atno 17371 bound_to 10713
  140.9328  133.7567  156.0046 LP  0  0  0  0  0  0  0  0  0  0  0  0  # atno 17394 bound_to 11000
  140.8310  134.3178  157.5348 LP  0  0  0  0  0  0  0  0  0  0  0  0  # atno 17395 bound_to 11000

$$$$
