AV-unprocessed.smi:1002|AV-procd|sdf|4359|dock2
  -GOLD-   22720 2263D 1   1.00000     0.00000
 Structure written by MMmdl.
 36 37  0  0  0  0  0  0  0  0  2 V2000
  146.7679  140.2062  153.4773 O   0  0  0  0  0  0  0  0  0  0  0  0
  147.1372  139.2281  152.8275 C   0  0  0  0  0  0  0  0  0  0  0  0
  146.4338  138.8710  151.5175 C   0  0  0  0  0  0  0  0  0  0  0  0
  145.6800  137.5606  151.6603 C   0  0  0  0  0  0  0  0  0  0  0  0
  145.7826  136.5583  150.6730 C   0  0  0  0  0  0  0  0  0  0  0  0
  145.0629  135.3602  150.8533 C   0  0  0  0  0  0  0  0  0  0  0  0
  144.2768  135.1209  151.9250 N   0  0  0  0  0  0  0  0  0  0  0  0
  144.1814  136.0852  152.8655 C   0  0  0  0  0  0  0  0  0  0  0  0
  144.8578  137.3187  152.7811 C   0  0  0  0  0  0  0  0  0  0  0  0
  148.1482  138.4275  153.2000 N   0  0  0  0  0  0  0  0  0  0  0  0
  148.9595  138.5901  154.4019 C   0  0  2  0  0  0  0  0  0  0  0  0
  149.8488  139.8390  154.2533 C   0  0  0  0  0  0  0  0  0  0  0  0
  150.7860  140.0126  155.4637 C   0  0  0  0  0  0  0  0  0  0  0  0
  151.6587  138.7591  155.7210 C   0  0  2  0  0  0  0  0  0  0  0  0
  152.7618  138.5649  154.6536 C   0  0  0  0  0  0  0  0  0  0  0  0
  153.6575  139.4350  154.5782 O   0  0  0  0  0  0  0  0  0  0  0  0
  152.6841  137.5659  153.9040 O   0  5  0  0  0  0  0  0  0  0  0  0
  150.7472  137.5156  155.8654 C   0  0  0  0  0  0  0  0  0  0  0  0
  149.8122  137.3294  154.6558 C   0  0  0  0  0  0  0  0  0  0  0  0
  145.7446  139.6670  151.2312 H   0  0  0  0  0  0  0  0  0  0  0  0
  147.1701  138.7903  150.7166 H   0  0  0  0  0  0  0  0  0  0  0  0
  146.4002  136.7009  149.7983 H   0  0  0  0  0  0  0  0  0  0  0  0
  145.1204  134.5731  150.1161 H   0  0  0  0  0  0  0  0  0  0  0  0
  143.5463  135.8676  153.7115 H   0  0  0  0  0  0  0  0  0  0  0  0
  144.7497  138.0578  153.5614 H   0  0  0  0  0  0  0  0  0  0  0  0
  148.3778  137.6462  152.6030 H   0  0  0  0  0  0  0  0  0  0  0  0
  148.2998  138.7466  155.2578 H   0  0  0  0  0  0  0  0  0  0  0  0
  150.4383  139.7680  153.3383 H   0  0  0  0  0  0  0  0  0  0  0  0
  149.2261  140.7280  154.1450 H   0  0  0  0  0  0  0  0  0  0  0  0
  151.4045  140.9015  155.3333 H   0  0  0  0  0  0  0  0  0  0  0  0
  150.1827  140.2092  156.3506 H   0  0  0  0  0  0  0  0  0  0  0  0
  152.1863  138.9031  156.6644 H   0  0  0  0  0  0  0  0  0  0  0  0
  151.3361  136.6114  156.0230 H   0  0  0  0  0  0  0  0  0  0  0  0
  150.1419  137.6257  156.7658 H   0  0  0  0  0  0  0  0  0  0  0  0
  149.1656  136.4683  154.8287 H   0  0  0  0  0  0  0  0  0  0  0  0
  150.4004  137.0941  153.7677 H   0  0  0  0  0  0  0  0  0  0  0  0
  1  2  2  0  0  0  0
  2  3  1  0  0  0  0
  2 10  1  0  0  0  0
  3  4  1  0  0  0  0
  3 20  1  0  0  0  0
  3 21  1  0  0  0  0
  4  9  1  0  0  0  0
  4  5  2  0  0  0  0
  5  6  1  0  0  0  0
  5 22  1  0  0  0  0
  6  7  2  0  0  0  0
  6 23  1  0  0  0  0
  7  8  1  0  0  0  0
  8  9  2  0  0  0  0
  8 24  1  0  0  0  0
  9 25  1  0  0  0  0
 10 11  1  0  0  0  0
 10 26  1  0  0  0  0
 11 19  1  0  0  0  0
 11 12  1  0  0  0  0
 11 27  1  0  0  0  0
 12 13  1  0  0  0  0
 12 28  1  0  0  0  0
 12 29  1  0  0  0  0
 13 14  1  0  0  0  0
 13 30  1  0  0  0  0
 13 31  1  0  0  0  0
 14 15  1  0  0  0  0
 14 18  1  0  0  0  0
 14 32  1  0  0  0  0
 15 16  2  0  0  0  0
 15 17  1  0  0  0  0
 18 19  1  0  0  0  0
 18 33  1  0  0  0  0
 18 34  1  0  0  0  0
 19 35  1  0  0  0  0
 19 36  1  0  0  0  0
M  CHG  1  17  -1
M  END
> <s_m_source_file>
AV-unprocessed.smi

> <i_m_source_file_index>
1002

> <i_lp_mmshare_version>
43012

> <i_f3d_flags>
0

> <s_epik_input>
Tz1DKFtPSF0pW0NAQEhdKFtDSDJdW0NIMl0xKVtDSDJdW0NIMl1bQ0BIXTFbTkhdQyg9TylbQ0gyXWMyW2NIXVtjSF1uW2NIXVtjSF0y

> <s_epik_cmdline>
J2VwaWtfcHl0aG9uJywgJy1waCcsICc3LjAnLCAnLXRuJywgJzgnLCAnLW1hJywgJzIwMCcsICctbWV0YWxfYmluZGluZycsICctaW1hZScsICc8aW5maWxlLm1hZT4nLCAnLW9tYWUnLCAnPG91dGZpbGUubWFlPic=

> <r_lp_tautomer_probability>
1

> <r_epik_Ionization_Penalty>
0.0065671

> <r_epik_Ionization_Penalty_Charging>
0.00222897

> <r_epik_Ionization_Penalty_Neutral>
0.00433813

> <r_epik_State_Penalty>
-0

> <r_epik_Charging_Adjusted_Penalty>
0.00222897

> <i_epik_Tot_Q>
-1

> <i_epik_Tot_abs_Q>
1

> <r_epik_Metal_State_Penalty>
-0

> <b_epik_Metal_Only>
0

> <s_lp_Force_Field>
OPLS_2005

> <r_lp_Energy>
6.9224

> <b_lp_Chiralities_Consistent>
1

> <s_lp_Variant>
AV-unprocessed.smi:1002-2

> <Gold.Version>
5.8.1

> <Gold.Id.Protein>
6NUR|6NUR_protein|mol2

> <Gold.PLP.Fitness>
46.2932

> <Gold.PLP.PLP>
-31.7129

> <Gold.PLP.part.hbond>
-4.1364

> <Gold.PLP.part.metal>
0.0000

> <Gold.PLP.part.buried>
3.2788

> <Gold.PLP.part.nonpolar>
-32.6519

> <Gold.PLP.part.repulsive>
0.4764

> <Gold.PLP.ligand.clash>
0.0000

> <Gold.PLP.ligand.torsion>
0.4365

> <Gold.PLP.Chemscore.Hbond>
4.1840

> <Gold.PLP.Chemscore.CHOScore>
0.9560

> <Gold.PLP.Chemscore.Metal>
0.0000

> <Gold.Chemscore.Hbonds>
donor molecule, donor type, donor heavy atom, donor atom, acceptor molecule, acceptor atom, score
      L1  H    10    26       P1  7948  1.00
      P1  H  7997  8010       L1    16  2.00
      P1  H 10752 10765       L1    17  1.28
      L1  C     6    23       P1  7921  0.55

> <Gold.PLP.Chemscore.Internal.Correction>
0.0334

> <Gold.Rescore>
     Score         DG    S(hbond)    S(metal)    S(lipo)     H(rot)  DE(clash)    DE(int)     intcor
     15.07     -17.37       2.54        0.00      70.31       1.88       1.07       1.23       ----

> <Gold.Chemscore.Fitness>
15.0705

> <Gold.Chemscore.DG>
-17.3667

> <Gold.Chemscore.ZeroCoef>
-5.4800

> <Gold.Chemscore.Hbond>
2.5392

> <Gold.Chemscore.Metal>
0.0000

> <Gold.Chemscore.Lipo>
70.3058

> <Gold.Chemscore.Internal_Hbond>
0.0000

> <Gold.Chemscore.DEClash>
1.0698

> <Gold.Chemscore.DEInternal>
1.2264

> <Gold.Chemscore.Rot>
1.8828

> <Gold.Chemscore.Internal.Correction>
   9.000000E+99

> <Gold.Chemscore.Hbonds>
donor molecule, donor type, donor heavy atom, donor atom, acceptor molecule, acceptor atom, score
      L1  H    10    26       P1  7948  1.00
      P1  H  7997  8010       L1    16  1.00
      P1  H 10752 10765       L1    17  0.64

> <Gold.Chemscore.Hbond.Weighted>
-8.4808

> <Gold.Chemscore.Metal.Weighted>
-0.0000

> <Gold.Chemscore.Lipo.Weighted>
-8.2258

> <Gold.Chemscore.Internal_Hbond.Weighted>
0.0000

> <Gold.Chemscore.DEClash.Weighted>
1.0698

> <Gold.Chemscore.DEInternal.Weighted>
1.2264

> <Gold.Chemscore.Rot.Weighted>
4.8199

> <Gold.Chemscore.Internal.Correction.Weighted>
   9.000000E+99

> <Gold.Protein.RotatedTorsions>
[ 6907 6896 6895 6894 ] final   98.52 input  -60.11 | X-H torsion
[ 7974 7965 7964 7962 ] final -164.44 input  175.53 | X-H torsion
[ 8008 7997 7996 7995 ] final  112.82 input   59.86 | X-H torsion
[ 10167 10162 10161 10158 ] final   96.31 input  -65.29 | X-H torsion
[ 10718 10713 10712 10709 ] final  136.99 input   66.30 | X-H torsion
[ 10763 10752 10751 10750 ] final  146.44 input  -60.55 | X-H torsion
[ 11005 11000 10999 10996 ] final  161.77 input  -57.11 | X-H torsion

> <Gold.Protein.ActiveResidues>
 VAL166  LYS551  ARG553  GLY616  TRP617  ASP618  TYR619  PRO620  LYS621  CYS622 
 ASP623  PHE694  ASN695  SER759  ASP760  ASP761  ALA762  ILE779  LEU786  VAL792 
 PHE793  MET794  SER795  GLU796  ALA797  LYS798  CYS799  TRP800  GLU811  SER814 

> <Gold.Protein.RotatedAtoms>
  152.5408  134.0568  159.8134 H   0  0  0  0  0  0  0  0  0  0  0  0  # atno 6907 bound_to 6896
  151.0701  133.5465  159.2635 H   0  0  0  0  0  0  0  0  0  0  0  0  # atno 6908 bound_to 6896
  151.2331  135.0570  159.9049 H   0  0  0  0  0  0  0  0  0  0  0  0  # atno 6909 bound_to 6896
  144.7297  140.2960  143.6212 H   0  0  0  0  0  0  0  0  0  0  0  0  # atno 7974 bound_to 7965
  156.2217  140.2992  155.9969 H   0  0  0  0  0  0  0  0  0  0  0  0  # atno 8008 bound_to 7997
  155.2463  140.0424  157.2998 H   0  0  0  0  0  0  0  0  0  0  0  0  # atno 8009 bound_to 7997
  154.5851  140.2386  155.8006 H   0  0  0  0  0  0  0  0  0  0  0  0  # atno 8010 bound_to 7997
  139.7906  144.6853  150.9897 H   0  0  0  0  0  0  0  0  0  0  0  0  # atno 10167 bound_to 10162
  157.4408  131.1057  151.0145 H   0  0  0  0  0  0  0  0  0  0  0  0  # atno 10718 bound_to 10713
  154.0219  135.2905  155.3380 H   0  0  0  0  0  0  0  0  0  0  0  0  # atno 10763 bound_to 10752
  154.7041  135.5176  153.8572 H   0  0  0  0  0  0  0  0  0  0  0  0  # atno 10764 bound_to 10752
  153.0677  135.6637  154.0440 H   0  0  0  0  0  0  0  0  0  0  0  0  # atno 10765 bound_to 10752
  140.2191  134.8210  157.3202 H   0  0  0  0  0  0  0  0  0  0  0  0  # atno 11005 bound_to 11000
  145.7808  139.1890  143.2159 LP  0  0  0  0  0  0  0  0  0  0  0  0  # atno 17320 bound_to 7965
  146.0836  140.7736  142.9630 LP  0  0  0  0  0  0  0  0  0  0  0  0  # atno 17321 bound_to 7965
  140.7820  143.4384  151.0588 LP  0  0  0  0  0  0  0  0  0  0  0  0  # atno 17342 bound_to 10162
  139.8061  143.8015  152.3167 LP  0  0  0  0  0  0  0  0  0  0  0  0  # atno 17343 bound_to 10162
  157.1008  130.5981  149.5460 LP  0  0  0  0  0  0  0  0  0  0  0  0  # atno 17370 bound_to 10713
  155.9948  130.5013  150.7434 LP  0  0  0  0  0  0  0  0  0  0  0  0  # atno 17371 bound_to 10713
  140.1869  134.4420  155.7739 LP  0  0  0  0  0  0  0  0  0  0  0  0  # atno 17394 bound_to 11000
  141.2224  133.7009  156.7961 LP  0  0  0  0  0  0  0  0  0  0  0  0  # atno 17395 bound_to 11000

$$$$
