AV-unprocessed.smi:2945|AV-procd|sdf|11277|dock6
  -GOLD-   2272016173D 1   1.00000     0.00000
 Structure written by MMmdl.
 36 37  0  0  0  0  0  0  0  0  1 V2000
  137.8577  137.2383  153.6637 C   0  0  0  0  0  0  0  0  0  0  0  0
  139.2776  137.4205  154.0785 C   0  0  0  0  0  0  0  0  0  0  0  0
  140.1866  138.4194  153.8709 C   0  0  0  0  0  0  0  0  0  0  0  0
  141.3445  137.9425  154.5409 C   0  0  0  0  0  0  0  0  0  0  0  0
  142.5398  138.7051  154.5577 N   0  0  0  0  0  0  0  0  0  0  0  0
  143.4250  138.8220  155.5617 C   0  0  0  0  0  0  0  0  0  0  0  0
  143.3236  138.2806  156.6629 O   0  0  0  0  0  0  0  0  0  0  0  0
  144.4471  139.6170  155.2117 N   0  0  0  0  0  0  0  0  0  0  0  0
  145.6005  139.9633  156.0453 C   0  0  1  0  0  0  0  0  0  0  0  0
  146.8547  139.2293  155.5294 C   0  0  0  0  0  0  0  0  0  0  0  0
  147.3334  139.7783  154.1742 C   0  0  0  0  0  0  0  0  0  0  0  0
  147.5692  141.2946  154.2406 C   0  0  0  0  0  0  0  0  0  0  0  0
  146.3156  142.0356  154.7331 C   0  0  0  0  0  0  0  0  0  0  0  0
  145.8348  141.4949  156.0959 C   0  0  1  0  0  0  0  0  0  0  0  0
  144.6150  142.2744  156.6159 C   0  0  0  0  0  0  0  0  0  0  0  0
  141.1589  136.7605  155.1080 N   0  0  0  0  0  0  0  0  0  0  0  0
  139.8330  136.4200  154.8150 O   0  0  0  0  0  0  0  0  0  0  0  0
  137.5379  138.0445  153.0033 H   0  0  0  0  0  0  0  0  0  0  0  0
  137.1995  137.2314  154.5327 H   0  0  0  0  0  0  0  0  0  0  0  0
  137.7276  136.2955  153.1322 H   0  0  0  0  0  0  0  0  0  0  0  0
  140.0438  139.3404  153.3254 H   0  0  0  0  0  0  0  0  0  0  0  0
  142.7484  139.2098  153.7092 H   0  0  0  0  0  0  0  0  0  0  0  0
  144.4333  140.0164  154.2848 H   0  0  0  0  0  0  0  0  0  0  0  0
  145.4236  139.6169  157.0650 H   0  0  0  0  0  0  0  0  0  0  0  0
  147.6576  139.3382  156.2596 H   0  0  0  0  0  0  0  0  0  0  0  0
  146.6606  138.1589  155.4518 H   0  0  0  0  0  0  0  0  0  0  0  0
  148.2518  139.2733  153.8738 H   0  0  0  0  0  0  0  0  0  0  0  0
  146.5955  139.5560  153.4025 H   0  0  0  0  0  0  0  0  0  0  0  0
  148.4041  141.5047  154.9103 H   0  0  0  0  0  0  0  0  0  0  0  0
  147.8601  141.6683  153.2584 H   0  0  0  0  0  0  0  0  0  0  0  0
  146.5335  143.1012  154.8122 H   0  0  0  0  0  0  0  0  0  0  0  0
  145.5208  141.9412  153.9922 H   0  0  0  0  0  0  0  0  0  0  0  0
  146.6406  141.6682  156.8110 H   0  0  0  0  0  0  0  0  0  0  0  0
  143.7709  142.2110  155.9288 H   0  0  0  0  0  0  0  0  0  0  0  0
  144.8532  143.3303  156.7457 H   0  0  0  0  0  0  0  0  0  0  0  0
  144.2880  141.8899  157.5822 H   0  0  0  0  0  0  0  0  0  0  0  0
  1  2  1  0  0  0  0
  1 18  1  0  0  0  0
  1 19  1  0  0  0  0
  1 20  1  0  0  0  0
  2 17  1  0  0  0  0
  2  3  2  0  0  0  0
  3  4  1  0  0  0  0
  3 21  1  0  0  0  0
  4  5  1  0  0  0  0
  4 16  2  0  0  0  0
  5  6  1  0  0  0  0
  5 22  1  0  0  0  0
  6  7  2  0  0  0  0
  6  8  1  0  0  0  0
  8  9  1  0  0  0  0
  8 23  1  0  0  0  0
  9 14  1  0  0  0  0
  9 10  1  0  0  0  0
  9 24  1  0  0  0  0
 10 11  1  0  0  0  0
 10 25  1  0  0  0  0
 10 26  1  0  0  0  0
 11 12  1  0  0  0  0
 11 27  1  0  0  0  0
 11 28  1  0  0  0  0
 12 13  1  0  0  0  0
 12 29  1  0  0  0  0
 12 30  1  0  0  0  0
 13 14  1  0  0  0  0
 13 31  1  0  0  0  0
 13 32  1  0  0  0  0
 14 15  1  0  0  0  0
 14 33  1  0  0  0  0
 15 34  1  0  0  0  0
 15 35  1  0  0  0  0
 15 36  1  0  0  0  0
 16 17  1  0  0  0  0
M  END
> <s_m_source_file>
AV-unprocessed.smi

> <i_m_source_file_index>
2945

> <i_lp_mmshare_version>
43012

> <i_f3d_flags>
0

> <s_epik_input>
W0NIM11jMVtjSF1jKG5vMSlbTkhdQyg9TylbTkhdW0NAQEhdMltDSDJdW0NIMl1bQ0gyXVtDSDJdW0NASF0yW0NIM10=

> <s_epik_cmdline>
J2VwaWtfcHl0aG9uJywgJy1waCcsICc3LjAnLCAnLXRuJywgJzgnLCAnLW1hJywgJzIwMCcsICctbWV0YWxfYmluZGluZycsICctaW1hZScsICc8aW5maWxlLm1hZT4nLCAnLW9tYWUnLCAnPG91dGZpbGUubWFlPic=

> <r_lp_tautomer_probability>
1

> <r_epik_Ionization_Penalty>
2.357e-05

> <r_epik_Ionization_Penalty_Charging>
0

> <r_epik_Ionization_Penalty_Neutral>
2.357e-05

> <r_epik_State_Penalty>
-0

> <r_epik_Charging_Adjusted_Penalty>
0

> <i_epik_Tot_Q>
0

> <i_epik_Tot_abs_Q>
0

> <r_epik_Metal_State_Penalty>
-0

> <b_epik_Metal_Only>
0

> <s_lp_Force_Field>
OPLS_2005

> <r_lp_Energy>
7.46694

> <b_lp_Chiralities_Consistent>
1

> <s_lp_Variant>
AV-unprocessed.smi:2945-2

> <Gold.Version>
5.8.1

> <Gold.Id.Protein>
6NUR|6NUR_protein|mol2

> <Gold.PLP.Fitness>
31.6550

> <Gold.PLP.PLP>
-23.4002

> <Gold.PLP.part.hbond>
-3.0143

> <Gold.PLP.part.metal>
0.0000

> <Gold.PLP.part.buried>
-4.8220

> <Gold.PLP.part.nonpolar>
-15.8448

> <Gold.PLP.part.repulsive>
0.0511

> <Gold.PLP.ligand.clash>
0.0000

> <Gold.PLP.ligand.torsion>
0.3760

> <Gold.PLP.Chemscore.Hbond>
3.0000

> <Gold.PLP.Chemscore.CHOScore>
0.0000

> <Gold.PLP.Chemscore.Metal>
0.0000

> <Gold.Chemscore.Hbonds>
donor molecule, donor type, donor heavy atom, donor atom, acceptor molecule, acceptor atom, score
      L1  H     5    22       P1 10175  1.00
      L1  H     8    23       P1 10175  1.00
      P1  H 11000 11005       L1    17  0.52

> <Gold.PLP.Chemscore.Internal.Correction>
0.0068

> <Gold.Rescore>
     Score         DG    S(hbond)    S(metal)    S(lipo)     H(rot)  DE(clash)    DE(int)     intcor
     17.21     -17.86       2.78        0.00      48.46       1.00       0.00       0.65       ----

> <Gold.Chemscore.Fitness>
17.2127

> <Gold.Chemscore.DG>
-17.8622

> <Gold.Chemscore.ZeroCoef>
-5.4800

> <Gold.Chemscore.Hbond>
2.7760

> <Gold.Chemscore.Metal>
0.0000

> <Gold.Chemscore.Lipo>
48.4632

> <Gold.Chemscore.Internal_Hbond>
0.0000

> <Gold.Chemscore.DEClash>
0.0000

> <Gold.Chemscore.DEInternal>
0.6494

> <Gold.Chemscore.Rot>
1.0000

> <Gold.Chemscore.Internal.Correction>
   9.000000E+99

> <Gold.Chemscore.Hbonds>
donor molecule, donor type, donor heavy atom, donor atom, acceptor molecule, acceptor atom, score
      L1  H     5    22       P1 10175  0.99
      L1  H     8    23       P1 10175  0.95
      P1  H 11000 11005       L1    17  0.03

> <Gold.Chemscore.Hbond.Weighted>
-9.2720

> <Gold.Chemscore.Metal.Weighted>
-0.0000

> <Gold.Chemscore.Lipo.Weighted>
-5.6702

> <Gold.Chemscore.Internal_Hbond.Weighted>
0.0000

> <Gold.Chemscore.DEClash.Weighted>
0.0000

> <Gold.Chemscore.DEInternal.Weighted>
0.6494

> <Gold.Chemscore.Rot.Weighted>
2.5600

> <Gold.Chemscore.Internal.Correction.Weighted>
   9.000000E+99

> <Gold.Protein.RotatedTorsions>
[ 6907 6896 6895 6894 ] final  141.27 input  -60.11 | X-H torsion
[ 7974 7965 7964 7962 ] final  -33.36 input  175.53 | X-H torsion
[ 8008 7997 7996 7995 ] final -132.15 input   59.86 | X-H torsion
[ 10167 10162 10161 10158 ] final  -96.40 input  -65.29 | X-H torsion
[ 10718 10713 10712 10709 ] final -155.16 input   66.30 | X-H torsion
[ 10763 10752 10751 10750 ] final   72.24 input  -60.55 | X-H torsion
[ 11005 11000 10999 10996 ] final   76.03 input  -57.11 | X-H torsion

> <Gold.Protein.ActiveResidues>
 VAL166  LYS551  ARG553  GLY616  TRP617  ASP618  TYR619  PRO620  LYS621  CYS622 
 ASP623  PHE694  ASN695  SER759  ASP760  ASP761  ALA762  ILE779  LEU786  VAL792 
 PHE793  MET794  SER795  GLU796  ALA797  LYS798  CYS799  TRP800  GLU811  SER814 

> <Gold.Protein.RotatedAtoms>
  152.2330  133.5073  159.5226 H   0  0  0  0  0  0  0  0  0  0  0  0  # atno 6907 bound_to 6896
  150.7042  134.1191  159.4037 H   0  0  0  0  0  0  0  0  0  0  0  0  # atno 6908 bound_to 6896
  151.9113  135.0338  160.0565 H   0  0  0  0  0  0  0  0  0  0  0  0  # atno 6909 bound_to 6896
  146.0917  140.5906  142.8861 H   0  0  0  0  0  0  0  0  0  0  0  0  # atno 7974 bound_to 7965
  155.3241  140.0463  157.3040 H   0  0  0  0  0  0  0  0  0  0  0  0  # atno 8008 bound_to 7997
  154.5364  140.2273  155.8682 H   0  0  0  0  0  0  0  0  0  0  0  0  # atno 8009 bound_to 7997
  156.1839  140.3067  155.9207 H   0  0  0  0  0  0  0  0  0  0  0  0  # atno 8010 bound_to 7997
  140.2942  143.3202  152.0315 H   0  0  0  0  0  0  0  0  0  0  0  0  # atno 10167 bound_to 10162
  156.5091  130.8427  151.2639 H   0  0  0  0  0  0  0  0  0  0  0  0  # atno 10718 bound_to 10713
  153.0447  135.5107  154.7714 H   0  0  0  0  0  0  0  0  0  0  0  0  # atno 10763 bound_to 10752
  154.6624  135.2940  154.9852 H   0  0  0  0  0  0  0  0  0  0  0  0  # atno 10764 bound_to 10752
  154.0698  135.6679  153.4875 H   0  0  0  0  0  0  0  0  0  0  0  0  # atno 10765 bound_to 10752
  139.9317  134.7567  156.1344 H   0  0  0  0  0  0  0  0  0  0  0  0  # atno 11005 bound_to 11000
  144.7365  140.4823  143.6900 LP  0  0  0  0  0  0  0  0  0  0  0  0  # atno 17320 bound_to 7965
  145.6026  139.1505  143.3120 LP  0  0  0  0  0  0  0  0  0  0  0  0  # atno 17321 bound_to 7965
  139.4930  144.6503  151.6690 LP  0  0  0  0  0  0  0  0  0  0  0  0  # atno 17342 bound_to 10162
  140.5706  144.0115  150.6215 LP  0  0  0  0  0  0  0  0  0  0  0  0  # atno 17343 bound_to 10162
  157.7453  130.9955  150.2748 LP  0  0  0  0  0  0  0  0  0  0  0  0  # atno 17370 bound_to 10713
  156.3257  130.3792  149.7535 LP  0  0  0  0  0  0  0  0  0  0  0  0  # atno 17371 bound_to 10713
  141.0909  133.6715  156.2538 LP  0  0  0  0  0  0  0  0  0  0  0  0  # atno 17394 bound_to 11000
  140.6185  134.5386  157.5544 LP  0  0  0  0  0  0  0  0  0  0  0  0  # atno 17395 bound_to 11000

$$$$
