AV-unprocessed.smi:1196|AV-procd|sdf|5003|dock1
  -GOLD-   22720 4 13D 1   1.00000     0.00000
 Structure written by MMmdl.
 36 37  0  0  0  0  0  0  0  0  2 V2000
  148.8773  132.3996  153.1187 C   0  0  0  0  0  0  0  0  0  0  0  0
  147.6739  133.1288  152.5003 C   0  0  1  0  0  0  0  0  0  0  0  0
  146.3644  132.3491  152.7270 C   0  0  0  0  0  0  0  0  0  0  0  0
  145.3426  132.6913  151.7531 N   0  0  0  0  0  0  0  0  0  0  0  0
  145.4024  132.5883  150.3794 C   0  0  0  0  0  0  0  0  0  0  0  0
  144.2087  133.0319  149.8865 C   0  0  0  0  0  0  0  0  0  0  0  0
  143.4750  133.3924  151.0514 C   0  0  0  0  0  0  0  0  0  0  0  0
  144.1550  133.1847  152.1672 N   0  0  0  0  0  0  0  0  0  0  0  0
  147.5620  134.4732  153.0622 N   0  0  0  0  0  0  0  0  0  0  0  0
  147.3339  134.7642  154.3517 C   0  0  0  0  0  0  0  0  0  0  0  0
  147.1676  133.9045  155.2178 O   0  0  0  0  0  0  0  0  0  0  0  0
  147.2865  136.2550  154.6998 C   0  0  0  0  0  0  0  0  0  0  0  0
  148.5235  136.7458  155.4773 C   0  0  0  0  0  0  0  0  0  0  0  0
  148.6149  138.2847  155.5484 C   0  0  1  0  0  0  0  0  0  0  0  0
  149.9687  138.7268  155.8358 N   0  5  0  0  0  0  0  0  0  0  0  0
  150.3802  139.5317  154.8280 C   0  0  0  0  0  0  0  0  0  0  0  0
  151.4607  140.1069  154.7185 O   0  0  0  0  0  0  0  0  0  0  0  0
  149.4292  139.6462  153.8951 N   0  0  0  0  0  0  0  0  0  0  0  0
  148.3470  138.9410  154.2075 C   0  0  0  0  0  0  0  0  0  0  0  0
  147.3119  138.8294  153.5519 O   0  0  0  0  0  0  0  0  0  0  0  0
  148.9836  131.3973  152.7030 H   0  0  0  0  0  0  0  0  0  0  0  0
  148.7697  132.3013  154.1994 H   0  0  0  0  0  0  0  0  0  0  0  0
  149.8073  132.9348  152.9234 H   0  0  0  0  0  0  0  0  0  0  0  0
  147.8392  133.2018  151.4236 H   0  0  0  0  0  0  0  0  0  0  0  0
  146.5502  131.2771  152.6489 H   0  0  0  0  0  0  0  0  0  0  0  0
  145.9780  132.5243  153.7326 H   0  0  0  0  0  0  0  0  0  0  0  0
  146.2804  132.2142  149.8737 H   0  0  0  0  0  0  0  0  0  0  0  0
  143.9065  133.0917  148.8516 H   0  0  0  0  0  0  0  0  0  0  0  0
  142.4749  133.7947  151.1185 H   0  0  0  0  0  0  0  0  0  0  0  0
  147.6918  135.2445  152.4232 H   0  0  0  0  0  0  0  0  0  0  0  0
  147.1901  136.8268  153.7758 H   0  0  0  0  0  0  0  0  0  0  0  0
  146.3820  136.4421  155.2794 H   0  0  0  0  0  0  0  0  0  0  0  0
  148.5215  136.3260  156.4852 H   0  0  0  0  0  0  0  0  0  0  0  0
  149.4199  136.3582  154.9899 H   0  0  0  0  0  0  0  0  0  0  0  0
  147.8901  138.6691  156.2673 H   0  0  0  0  0  0  0  0  0  0  0  0
  149.5266  140.1936  153.0532 H   0  0  0  0  0  0  0  0  0  0  0  0
  1  2  1  0  0  0  0
  1 21  1  0  0  0  0
  1 22  1  0  0  0  0
  1 23  1  0  0  0  0
  2  3  1  0  0  0  0
  2  9  1  0  0  0  0
  2 24  1  0  0  0  0
  3  4  1  0  0  0  0
  3 25  1  0  0  0  0
  3 26  1  0  0  0  0
  4  8  1  0  0  0  0
  4  5  1  0  0  0  0
  5  6  2  0  0  0  0
  5 27  1  0  0  0  0
  6  7  1  0  0  0  0
  6 28  1  0  0  0  0
  7  8  2  0  0  0  0
  7 29  1  0  0  0  0
  9 10  1  0  0  0  0
  9 30  1  0  0  0  0
 10 11  2  0  0  0  0
 10 12  1  0  0  0  0
 12 13  1  0  0  0  0
 12 31  1  0  0  0  0
 12 32  1  0  0  0  0
 13 14  1  0  0  0  0
 13 33  1  0  0  0  0
 13 34  1  0  0  0  0
 14 19  1  0  0  0  0
 14 15  1  0  0  0  0
 14 35  1  0  0  0  0
 15 16  1  0  0  0  0
 16 17  2  0  0  0  0
 16 18  1  0  0  0  0
 18 19  1  0  0  0  0
 18 36  1  0  0  0  0
 19 20  2  0  0  0  0
M  CHG  1  15  -1
M  END
> <s_m_source_file>
AV-unprocessed.smi

> <i_m_source_file_index>
1196

> <i_lp_mmshare_version>
43012

> <i_f3d_flags>
0

> <s_epik_input>
bjFbY0hdW2NIXVtjSF1uMVtDSDJdW0NAQEhdKFtDSDNdKVtOSF1DKD1PKVtDSDJdW0NIMl1bQ0BASF0yW05IXUMoPU8pW05IXUMyPU8=

> <s_epik_cmdline>
J2VwaWtfcHl0aG9uJywgJy1waCcsICc3LjAnLCAnLXRuJywgJzgnLCAnLW1hJywgJzIwMCcsICctbWV0YWxfYmluZGluZycsICctaW1hZScsICc8aW5maWxlLm1hZT4nLCAnLW9tYWUnLCAnPG91dGZpbGUubWFlPic=

> <r_lp_tautomer_probability>
1

> <r_epik_Ionization_Penalty>
5.79547

> <r_epik_Ionization_Penalty_Charging>
5.79516

> <r_epik_Ionization_Penalty_Neutral>
0.000313087

> <r_epik_State_Penalty>
5.80096

> <r_epik_Charging_Adjusted_Penalty>
11.5961

> <i_epik_Tot_Q>
-1

> <i_epik_Tot_abs_Q>
1

> <r_epik_Metal_State_Penalty>
2.14443

> <b_epik_Metal_Only>
1

> <s_lp_Force_Field>
OPLS_2005

> <r_lp_Energy>
12.8227

> <b_lp_Chiralities_Consistent>
1

> <s_lp_Variant>
AV-unprocessed.smi:1196-8

> <Gold.Version>
5.8.1

> <Gold.Id.Protein>
6NUR|6NUR_protein|mol2

> <Gold.PLP.Fitness>
43.3070

> <Gold.PLP.PLP>
-29.6722

> <Gold.PLP.part.hbond>
-2.9649

> <Gold.PLP.part.metal>
0.0000

> <Gold.PLP.part.buried>
-5.4408

> <Gold.PLP.part.nonpolar>
-22.0792

> <Gold.PLP.part.repulsive>
0.6662

> <Gold.PLP.ligand.clash>
0.0000

> <Gold.PLP.ligand.torsion>
0.5593

> <Gold.PLP.Chemscore.Hbond>
2.8960

> <Gold.PLP.Chemscore.CHOScore>
2.0000

> <Gold.PLP.Chemscore.Metal>
0.0000

> <Gold.Chemscore.Hbonds>
donor molecule, donor type, donor heavy atom, donor atom, acceptor molecule, acceptor atom, score
      L1  H     9    30       P1  7948  0.77
      L1  H    18    36       P1  7957  0.85
      P1  H  7989  7998       L1    17  0.78
      L1  C     7    29       P1 10186  1.00

> <Gold.PLP.Chemscore.Internal.Correction>
0.0654

> <Gold.Rescore>
     Score         DG    S(hbond)    S(metal)    S(lipo)     H(rot)  DE(clash)    DE(int)     intcor
     10.58     -13.37       2.87        0.00      48.75       2.89       0.00       2.79       ----

> <Gold.Chemscore.Fitness>
10.5764

> <Gold.Chemscore.DG>
-13.3684

> <Gold.Chemscore.ZeroCoef>
-5.4800

> <Gold.Chemscore.Hbond>
2.8728

> <Gold.Chemscore.Metal>
0.0000

> <Gold.Chemscore.Lipo>
48.7477

> <Gold.Chemscore.Internal_Hbond>
0.0000

> <Gold.Chemscore.DEClash>
0.0000

> <Gold.Chemscore.DEInternal>
2.7919

> <Gold.Chemscore.Rot>
2.8946

> <Gold.Chemscore.Internal.Correction>
   9.000000E+99

> <Gold.Chemscore.Hbonds>
donor molecule, donor type, donor heavy atom, donor atom, acceptor molecule, acceptor atom, score
      L1  H     9    30       P1  7948  0.75
      L1  H    18    36       P1  7957  0.85
      P1  H  7989  7998       L1    17  0.72

> <Gold.Chemscore.Hbond.Weighted>
-9.5950

> <Gold.Chemscore.Metal.Weighted>
-0.0000

> <Gold.Chemscore.Lipo.Weighted>
-5.7035

> <Gold.Chemscore.Internal_Hbond.Weighted>
0.0000

> <Gold.Chemscore.DEClash.Weighted>
0.0000

> <Gold.Chemscore.DEInternal.Weighted>
2.7919

> <Gold.Chemscore.Rot.Weighted>
7.4101

> <Gold.Chemscore.Internal.Correction.Weighted>
   9.000000E+99

> <Gold.Protein.RotatedTorsions>
[ 6907 6896 6895 6894 ] final  143.33 input  -60.11 | X-H torsion
[ 7974 7965 7964 7962 ] final   97.59 input  175.53 | X-H torsion
[ 8008 7997 7996 7995 ] final   85.46 input   59.86 | X-H torsion
[ 10167 10162 10161 10158 ] final  -77.57 input  -65.29 | X-H torsion
[ 10718 10713 10712 10709 ] final  155.80 input   66.30 | X-H torsion
[ 10763 10752 10751 10750 ] final  -90.00 input  -60.55 | X-H torsion
[ 11005 11000 10999 10996 ] final  -82.06 input  -57.11 | X-H torsion

> <Gold.Protein.ActiveResidues>
 VAL166  LYS551  ARG553  GLY616  TRP617  ASP618  TYR619  PRO620  LYS621  CYS622 
 ASP623  PHE694  ASN695  SER759  ASP760  ASP761  ALA762  ILE779  LEU786  VAL792 
 PHE793  MET794  SER795  GLU796  ALA797  LYS798  CYS799  TRP800  GLU811  SER814 

> <Gold.Protein.RotatedAtoms>
  152.2076  133.4887  159.5092 H   0  0  0  0  0  0  0  0  0  0  0  0  # atno 6907 bound_to 6896
  150.6983  134.1508  159.4149 H   0  0  0  0  0  0  0  0  0  0  0  0  # atno 6908 bound_to 6896
  151.9427  135.0205  160.0587 H   0  0  0  0  0  0  0  0  0  0  0  0  # atno 6909 bound_to 6896
  145.4234  139.2319  143.3183 H   0  0  0  0  0  0  0  0  0  0  0  0  # atno 7974 bound_to 7965
  155.9503  140.3401  155.6402 H   0  0  0  0  0  0  0  0  0  0  0  0  # atno 8008 bound_to 7997
  155.6928  140.0751  157.2460 H   0  0  0  0  0  0  0  0  0  0  0  0  # atno 8009 bound_to 7997
  154.4120  140.1654  156.2093 H   0  0  0  0  0  0  0  0  0  0  0  0  # atno 8010 bound_to 7997
  140.4759  143.2414  151.8134 H   0  0  0  0  0  0  0  0  0  0  0  0  # atno 10167 bound_to 10162
  157.2135  131.0703  151.1955 H   0  0  0  0  0  0  0  0  0  0  0  0  # atno 10718 bound_to 10713
  154.6612  135.5320  153.8020 H   0  0  0  0  0  0  0  0  0  0  0  0  # atno 10763 bound_to 10752
  153.0443  135.6506  154.0869 H   0  0  0  0  0  0  0  0  0  0  0  0  # atno 10764 bound_to 10752
  154.0778  135.2949  155.3276 H   0  0  0  0  0  0  0  0  0  0  0  0  # atno 10765 bound_to 10752
  141.1664  133.7226  156.8516 H   0  0  0  0  0  0  0  0  0  0  0  0  # atno 11005 bound_to 11000
  146.2644  140.4962  142.8840 LP  0  0  0  0  0  0  0  0  0  0  0  0  # atno 17320 bound_to 7965
  144.8230  140.6581  143.6340 LP  0  0  0  0  0  0  0  0  0  0  0  0  # atno 17321 bound_to 7965
  139.4825  144.4834  151.9277 LP  0  0  0  0  0  0  0  0  0  0  0  0  # atno 17342 bound_to 10162
  140.3919  144.2604  150.5899 LP  0  0  0  0  0  0  0  0  0  0  0  0  # atno 17343 bound_to 10162
  157.3648  130.7150  149.6526 LP  0  0  0  0  0  0  0  0  0  0  0  0  # atno 17370 bound_to 10713
  155.9688  130.4215  150.4473 LP  0  0  0  0  0  0  0  0  0  0  0  0  # atno 17371 bound_to 10713
  140.1912  134.8964  157.3062 LP  0  0  0  0  0  0  0  0  0  0  0  0  # atno 17394 bound_to 11000
  140.2288  134.3934  155.7531 LP  0  0  0  0  0  0  0  0  0  0  0  0  # atno 17395 bound_to 11000

$$$$
