AV-unprocessed.smi:1023|AV-procd|sdf|4462|dock8
  -GOLD-   22720 2433D 1   1.00000     0.00000
 Structure written by MMmdl.
 32 33  0  0  0  0  0  0  0  0  1 V2000
  144.9541  135.8623  151.4756 C   0  0  0  0  0  0  0  0  0  0  0  0
  146.1106  136.5383  152.2330 C   0  0  0  0  0  0  0  0  0  0  0  0
  146.0622  136.1748  153.7244 C   0  0  0  0  0  0  0  0  0  0  0  0
  146.1316  138.0698  152.0475 C   0  0  0  0  0  0  0  0  0  0  0  0
  147.4286  138.6480  152.3870 N   0  0  0  0  0  0  0  0  0  0  0  0
  147.7868  139.1296  153.5893 C   0  0  0  0  0  0  0  0  0  0  0  0
  147.0364  139.1149  154.5634 O   0  0  0  0  0  0  0  0  0  0  0  0
  149.0341  139.6384  153.6844 N   0  0  0  0  0  0  0  0  0  0  0  0
  149.7396  140.2226  154.7765 C   0  0  0  0  0  0  0  0  0  0  0  0
  151.0364  140.0136  155.0465 N   0  0  0  0  0  0  0  0  0  0  0  0
  151.4579  140.7220  156.1621 N   0  0  0  0  0  0  0  0  0  0  0  0
  150.4745  141.4518  156.7014 C   0  0  0  0  0  0  0  0  0  0  0  0
  150.6843  142.3016  157.9103 C   0  0  0  0  0  0  0  0  0  0  0  0
  151.6028  143.5008  157.8618 C   0  0  0  0  0  0  0  0  0  0  0  0
  151.9933  142.2898  158.6695 C   0  0  0  0  0  0  0  0  0  0  0  0
  148.9277  141.3304  155.8702 S   0  0  0  0  0  0  0  0  0  0  0  0
  143.9890  136.2561  151.7956 H   0  0  0  0  0  0  0  0  0  0  0  0
  144.9483  134.7859  151.6488 H   0  0  0  0  0  0  0  0  0  0  0  0
  145.0357  136.0131  150.3992 H   0  0  0  0  0  0  0  0  0  0  0  0
  147.0438  136.1396  151.8324 H   0  0  0  0  0  0  0  0  0  0  0  0
  145.1482  136.5421  154.1925 H   0  0  0  0  0  0  0  0  0  0  0  0
  146.9076  136.6051  154.2618 H   0  0  0  0  0  0  0  0  0  0  0  0
  146.0987  135.0945  153.8677 H   0  0  0  0  0  0  0  0  0  0  0  0
  145.8339  138.3329  151.0311 H   0  0  0  0  0  0  0  0  0  0  0  0
  145.3925  138.5278  152.7055 H   0  0  0  0  0  0  0  0  0  0  0  0
  148.1085  138.6994  151.6415 H   0  0  0  0  0  0  0  0  0  0  0  0
  149.5773  139.5612  152.8370 H   0  0  0  0  0  0  0  0  0  0  0  0
  149.7637  142.3873  158.4844 H   0  0  0  0  0  0  0  0  0  0  0  0
  152.1475  143.6840  156.9375 H   0  0  0  0  0  0  0  0  0  0  0  0
  151.2931  144.3912  158.4051 H   0  0  0  0  0  0  0  0  0  0  0  0
  151.9452  142.3723  159.7533 H   0  0  0  0  0  0  0  0  0  0  0  0
  152.8072  141.6783  158.2850 H   0  0  0  0  0  0  0  0  0  0  0  0
  1  2  1  0  0  0  0
  1 17  1  0  0  0  0
  1 18  1  0  0  0  0
  1 19  1  0  0  0  0
  2  3  1  0  0  0  0
  2  4  1  0  0  0  0
  2 20  1  0  0  0  0
  3 21  1  0  0  0  0
  3 22  1  0  0  0  0
  3 23  1  0  0  0  0
  4  5  1  0  0  0  0
  4 24  1  0  0  0  0
  4 25  1  0  0  0  0
  5  6  1  0  0  0  0
  5 26  1  0  0  0  0
  6  7  2  0  0  0  0
  6  8  1  0  0  0  0
  8  9  1  0  0  0  0
  8 27  1  0  0  0  0
  9 16  1  0  0  0  0
  9 10  2  0  0  0  0
 10 11  1  0  0  0  0
 11 12  2  0  0  0  0
 12 13  1  0  0  0  0
 12 16  1  0  0  0  0
 13 15  1  0  0  0  0
 13 14  1  0  0  0  0
 13 28  1  0  0  0  0
 14 15  1  0  0  0  0
 14 29  1  0  0  0  0
 14 30  1  0  0  0  0
 15 31  1  0  0  0  0
 15 32  1  0  0  0  0
M  END
> <s_m_source_file>
AV-unprocessed.smi

> <i_m_source_file_index>
1023

> <i_lp_mmshare_version>
43012

> <i_f3d_flags>
0

> <s_epik_input>
W0NIM11bQ0hdKFtDSDNdKVtDSDJdW05IXUMoPU8pW05IXWMxbm5jKHMxKVtDSF0yW0NIMl1bQ0gyXTI=

> <s_epik_cmdline>
J2VwaWtfcHl0aG9uJywgJy1waCcsICc3LjAnLCAnLXRuJywgJzgnLCAnLW1hJywgJzIwMCcsICctbWV0YWxfYmluZGluZycsICctaW1hZScsICc8aW5maWxlLm1hZT4nLCAnLW9tYWUnLCAnPG91dGZpbGUubWFlPic=

> <r_lp_tautomer_probability>
1

> <r_epik_Ionization_Penalty>
0.000943136

> <r_epik_Ionization_Penalty_Charging>
0

> <r_epik_Ionization_Penalty_Neutral>
0.000943136

> <r_epik_State_Penalty>
-0

> <r_epik_Charging_Adjusted_Penalty>
0

> <i_epik_Tot_Q>
0

> <i_epik_Tot_abs_Q>
0

> <r_epik_Metal_State_Penalty>
0.281646

> <b_epik_Metal_Only>
0

> <s_lp_Force_Field>
OPLS_2005

> <r_lp_Energy>
5.4251

> <b_lp_Chiralities_Consistent>
1

> <s_lp_Variant>
AV-unprocessed.smi:1023-1

> <Gold.Version>
5.8.1

> <Gold.Id.Protein>
6NUR|6NUR_protein|mol2

> <Gold.PLP.Fitness>
33.6464

> <Gold.PLP.PLP>
-26.7018

> <Gold.PLP.part.hbond>
-4.1746

> <Gold.PLP.part.metal>
0.0000

> <Gold.PLP.part.buried>
0.3814

> <Gold.PLP.part.nonpolar>
-23.0491

> <Gold.PLP.part.repulsive>
0.3894

> <Gold.PLP.ligand.clash>
0.0000

> <Gold.PLP.ligand.torsion>
0.6977

> <Gold.PLP.Chemscore.Hbond>
2.7360

> <Gold.PLP.Chemscore.CHOScore>
0.0000

> <Gold.PLP.Chemscore.Metal>
0.0000

> <Gold.Chemscore.Hbonds>
donor molecule, donor type, donor heavy atom, donor atom, acceptor molecule, acceptor atom, score
      L1  H     5    26       P1  7957  0.70
      L1  H     8    27       P1  7957  0.86
      P1  H  7989  7998       L1    10  0.70

> <Gold.PLP.Chemscore.Internal.Correction>
0.1320

> <Gold.Rescore>
     Score         DG    S(hbond)    S(metal)    S(lipo)     H(rot)  DE(clash)    DE(int)     intcor
     15.36     -16.97       2.45        0.00      59.34       1.42       0.94       0.66       ----

> <Gold.Chemscore.Fitness>
15.3603

> <Gold.Chemscore.DG>
-16.9686

> <Gold.Chemscore.ZeroCoef>
-5.4800

> <Gold.Chemscore.Hbond>
2.4487

> <Gold.Chemscore.Metal>
0.0000

> <Gold.Chemscore.Lipo>
59.3428

> <Gold.Chemscore.Internal_Hbond>
0.0000

> <Gold.Chemscore.DEClash>
0.9442

> <Gold.Chemscore.DEInternal>
0.6640

> <Gold.Chemscore.Rot>
1.4193

> <Gold.Chemscore.Internal.Correction>
   9.000000E+99

> <Gold.Chemscore.Hbonds>
donor molecule, donor type, donor heavy atom, donor atom, acceptor molecule, acceptor atom, score
      L1  H     5    26       P1  7957  0.43
      L1  H     8    27       P1  7957  0.85
      P1  H  7989  7998       L1    10  0.05

> <Gold.Chemscore.Hbond.Weighted>
-8.1788

> <Gold.Chemscore.Metal.Weighted>
-0.0000

> <Gold.Chemscore.Lipo.Weighted>
-6.9431

> <Gold.Chemscore.Internal_Hbond.Weighted>
0.0000

> <Gold.Chemscore.DEClash.Weighted>
0.9442

> <Gold.Chemscore.DEInternal.Weighted>
0.6640

> <Gold.Chemscore.Rot.Weighted>
3.6333

> <Gold.Chemscore.Internal.Correction.Weighted>
   9.000000E+99

> <Gold.Protein.RotatedTorsions>
[ 6907 6896 6895 6894 ] final  128.74 input  -60.11 | X-H torsion
[ 7974 7965 7964 7962 ] final   33.53 input  175.53 | X-H torsion
[ 8008 7997 7996 7995 ] final   43.14 input   59.86 | X-H torsion
[ 10167 10162 10161 10158 ] final  -74.60 input  -65.29 | X-H torsion
[ 10718 10713 10712 10709 ] final   79.66 input   66.30 | X-H torsion
[ 10763 10752 10751 10750 ] final  155.88 input  -60.55 | X-H torsion
[ 11005 11000 10999 10996 ] final  -71.80 input  -57.11 | X-H torsion

> <Gold.Protein.ActiveResidues>
 VAL166  LYS551  ARG553  GLY616  TRP617  ASP618  TYR619  PRO620  LYS621  CYS622 
 ASP623  PHE694  ASN695  SER759  ASP760  ASP761  ALA762  ILE779  LEU786  VAL792 
 PHE793  MET794  SER795  GLU796  ALA797  LYS798  CYS799  TRP800  GLU811  SER814 

> <Gold.Protein.RotatedAtoms>
  152.3691  133.6395  159.6072 H   0  0  0  0  0  0  0  0  0  0  0  0  # atno 6907 bound_to 6896
  150.7655  133.9300  159.3433 H   0  0  0  0  0  0  0  0  0  0  0  0  # atno 6908 bound_to 6896
  151.7125  135.0911  160.0321 H   0  0  0  0  0  0  0  0  0  0  0  0  # atno 6909 bound_to 6896
  146.1414  139.6385  142.9160 H   0  0  0  0  0  0  0  0  0  0  0  0  # atno 7974 bound_to 7965
  155.2977  140.3383  155.4249 H   0  0  0  0  0  0  0  0  0  0  0  0  # atno 8008 bound_to 7997
  156.2016  140.1735  156.7927 H   0  0  0  0  0  0  0  0  0  0  0  0  # atno 8009 bound_to 7997
  154.5566  140.0695  156.8737 H   0  0  0  0  0  0  0  0  0  0  0  0  # atno 8010 bound_to 7997
  140.5013  143.2360  151.7747 H   0  0  0  0  0  0  0  0  0  0  0  0  # atno 10167 bound_to 10162
  157.6783  130.9924  150.1965 H   0  0  0  0  0  0  0  0  0  0  0  0  # atno 10718 bound_to 10713
  154.1755  135.2802  155.3068 H   0  0  0  0  0  0  0  0  0  0  0  0  # atno 10763 bound_to 10752
  154.6042  135.5519  153.7409 H   0  0  0  0  0  0  0  0  0  0  0  0  # atno 10764 bound_to 10752
  153.0152  135.6399  154.1895 H   0  0  0  0  0  0  0  0  0  0  0  0  # atno 10765 bound_to 10752
  141.1598  133.6828  156.6961 H   0  0  0  0  0  0  0  0  0  0  0  0  # atno 11005 bound_to 11000
  145.5038  141.0437  143.2526 LP  0  0  0  0  0  0  0  0  0  0  0  0  # atno 17320 bound_to 7965
  144.7797  139.6553  143.7160 LP  0  0  0  0  0  0  0  0  0  0  0  0  # atno 17321 bound_to 7965
  139.4873  144.4518  151.9645 LP  0  0  0  0  0  0  0  0  0  0  0  0  # atno 17342 bound_to 10162
  140.3607  144.2977  150.5934 LP  0  0  0  0  0  0  0  0  0  0  0  0  # atno 17343 bound_to 10162
  156.2665  130.3717  149.8076 LP  0  0  0  0  0  0  0  0  0  0  0  0  # atno 17370 bound_to 10713
  156.5806  130.8464  151.3382 LP  0  0  0  0  0  0  0  0  0  0  0  0  # atno 17371 bound_to 10713
  140.2994  134.8176  157.4085 LP  0  0  0  0  0  0  0  0  0  0  0  0  # atno 17394 bound_to 11000
  140.1275  134.5138  155.8132 LP  0  0  0  0  0  0  0  0  0  0  0  0  # atno 17395 bound_to 11000

$$$$
