AV-unprocessed.smi:1746|AV-procd|sdf|7033|dock1
  -GOLD-   22720 8253D 1   1.00000     0.00000
 Structure written by MMmdl.
 35 36  0  0  0  0  0  0  0  0  1 V2000
  154.4945  140.6630  160.0338 C   0  0  0  0  0  0  0  0  0  0  0  0
  153.5565  141.7355  160.6005 C   0  0  0  0  0  0  0  0  0  0  0  0
  152.8254  142.4183  159.5510 N   0  0  0  0  0  0  0  0  0  0  0  0
  151.9223  141.8840  158.6533 C   0  0  0  0  0  0  0  0  0  0  0  0
  151.5084  142.9305  157.8783 C   0  0  0  0  0  0  0  0  0  0  0  0
  150.5828  142.9441  156.8043 N   0  0  0  0  0  0  0  0  0  0  0  0
  150.2249  141.9111  156.0240 C   0  0  0  0  0  0  0  0  0  0  0  0
  150.6621  140.7644  156.1230 O   0  0  0  0  0  0  0  0  0  0  0  0
  149.3187  142.2817  155.1086 N   0  0  0  0  0  0  0  0  0  0  0  0
  148.7239  141.3939  154.1159 C   0  0  0  0  0  0  0  0  0  0  0  0
  147.2031  141.5962  154.0117 C   0  0  2  0  0  0  0  0  0  0  0  0
  146.8003  143.0161  153.6173 C   0  0  0  0  0  0  0  0  0  0  0  0
  145.4063  143.1090  154.1931 C   0  0  0  0  0  0  0  0  0  0  0  0
  145.5644  142.3485  155.5060 C   0  0  0  0  0  0  0  0  0  0  0  0
  146.5783  141.3735  155.2746 O   0  0  0  0  0  0  0  0  0  0  0  0
  152.2040  144.0690  158.3620 C   0  0  0  0  0  0  0  0  0  0  0  0
  152.9980  143.7518  159.3734 N   0  0  0  0  0  0  0  0  0  0  0  0
  155.0389  140.1613  160.8340 H   0  0  0  0  0  0  0  0  0  0  0  0
  155.2276  141.1005  159.3554 H   0  0  0  0  0  0  0  0  0  0  0  0
  153.9389  139.9033  159.4832 H   0  0  0  0  0  0  0  0  0  0  0  0
  152.8424  141.2883  161.2935 H   0  0  0  0  0  0  0  0  0  0  0  0
  154.1269  142.4736  161.1657 H   0  0  0  0  0  0  0  0  0  0  0  0
  151.6655  140.8349  158.6538 H   0  0  0  0  0  0  0  0  0  0  0  0
  150.1432  143.8326  156.6132 H   0  0  0  0  0  0  0  0  0  0  0  0
  149.0102  143.2429  155.1024 H   0  0  0  0  0  0  0  0  0  0  0  0
  149.1949  141.5891  153.1520 H   0  0  0  0  0  0  0  0  0  0  0  0
  148.9507  140.3560  154.3660 H   0  0  0  0  0  0  0  0  0  0  0  0
  146.7696  140.8971  153.2944 H   0  0  0  0  0  0  0  0  0  0  0  0
  147.4506  143.7502  154.0958 H   0  0  0  0  0  0  0  0  0  0  0  0
  146.8306  143.1826  152.5400 H   0  0  0  0  0  0  0  0  0  0  0  0
  145.0647  144.1352  154.3320 H   0  0  0  0  0  0  0  0  0  0  0  0
  144.6969  142.5957  153.5425 H   0  0  0  0  0  0  0  0  0  0  0  0
  145.9050  143.0195  156.2956 H   0  0  0  0  0  0  0  0  0  0  0  0
  144.6330  141.8863  155.8334 H   0  0  0  0  0  0  0  0  0  0  0  0
  152.1600  145.0933  158.0220 H   0  0  0  0  0  0  0  0  0  0  0  0
  1  2  1  0  0  0  0
  1 18  1  0  0  0  0
  1 19  1  0  0  0  0
  1 20  1  0  0  0  0
  2  3  1  0  0  0  0
  2 21  1  0  0  0  0
  2 22  1  0  0  0  0
  3 17  1  0  0  0  0
  3  4  1  0  0  0  0
  4  5  2  0  0  0  0
  4 23  1  0  0  0  0
  5  6  1  0  0  0  0
  5 16  1  0  0  0  0
  6  7  1  0  0  0  0
  6 24  1  0  0  0  0
  7  8  2  0  0  0  0
  7  9  1  0  0  0  0
  9 10  1  0  0  0  0
  9 25  1  0  0  0  0
 10 11  1  0  0  0  0
 10 26  1  0  0  0  0
 10 27  1  0  0  0  0
 11 15  1  0  0  0  0
 11 12  1  0  0  0  0
 11 28  1  0  0  0  0
 12 13  1  0  0  0  0
 12 29  1  0  0  0  0
 12 30  1  0  0  0  0
 13 14  1  0  0  0  0
 13 31  1  0  0  0  0
 13 32  1  0  0  0  0
 14 15  1  0  0  0  0
 14 33  1  0  0  0  0
 14 34  1  0  0  0  0
 16 17  2  0  0  0  0
 16 35  1  0  0  0  0
M  END
> <s_m_source_file>
AV-unprocessed.smi

> <i_m_source_file_index>
1746

> <i_lp_mmshare_version>
43012

> <i_f3d_flags>
0

> <s_epik_input>
W0NIM11bQ0gyXW4xW2NIXWMoW2NIXW4xKVtOSF1DKD1PKVtOSF1bQ0gyXVtDQEBIXTJbQ0gyXVtDSDJdW0NIMl1PMg==

> <s_epik_cmdline>
J2VwaWtfcHl0aG9uJywgJy1waCcsICc3LjAnLCAnLXRuJywgJzgnLCAnLW1hJywgJzIwMCcsICctbWV0YWxfYmluZGluZycsICctaW1hZScsICc8aW5maWxlLm1hZT4nLCAnLW9tYWUnLCAnPG91dGZpbGUubWFlPic=

> <r_lp_tautomer_probability>
1

> <r_epik_Ionization_Penalty>
0.000176839

> <r_epik_Ionization_Penalty_Charging>
0

> <r_epik_Ionization_Penalty_Neutral>
0.000176839

> <r_epik_State_Penalty>
-0

> <r_epik_Charging_Adjusted_Penalty>
0

> <i_epik_Tot_Q>
0

> <i_epik_Tot_abs_Q>
0

> <r_epik_Metal_State_Penalty>
-0

> <b_epik_Metal_Only>
0

> <s_lp_Force_Field>
OPLS_2005

> <r_lp_Energy>
20.4647

> <b_lp_Chiralities_Consistent>
1

> <s_lp_Variant>
AV-unprocessed.smi:1746-1

> <Gold.Version>
5.8.1

> <Gold.Id.Protein>
6NUR|6NUR_protein|mol2

> <Gold.PLP.Fitness>
44.7478

> <Gold.PLP.PLP>
-39.1560

> <Gold.PLP.part.hbond>
-2.0000

> <Gold.PLP.part.metal>
0.0000

> <Gold.PLP.part.buried>
-5.8686

> <Gold.PLP.part.nonpolar>
-31.4335

> <Gold.PLP.part.repulsive>
0.3510

> <Gold.PLP.ligand.clash>
0.0000

> <Gold.PLP.ligand.torsion>
0.2174

> <Gold.PLP.Chemscore.Hbond>
1.9920

> <Gold.PLP.Chemscore.CHOScore>
0.0000

> <Gold.PLP.Chemscore.Metal>
0.0000

> <Gold.Chemscore.Hbonds>
donor molecule, donor type, donor heavy atom, donor atom, acceptor molecule, acceptor atom, score
      L1  H     6    24       P1  8028  0.96
      L1  H     9    25       P1  8028  1.00

> <Gold.PLP.Chemscore.Internal.Correction>
0.0506

> <Gold.Rescore>
     Score         DG    S(hbond)    S(metal)    S(lipo)     H(rot)  DE(clash)    DE(int)     intcor
     17.35     -17.90       1.90        0.00      82.79       1.41       0.07       0.48       ----

> <Gold.Chemscore.Fitness>
17.3456

> <Gold.Chemscore.DG>
-17.8977

> <Gold.Chemscore.ZeroCoef>
-5.4800

> <Gold.Chemscore.Hbond>
1.8958

> <Gold.Chemscore.Metal>
0.0000

> <Gold.Chemscore.Lipo>
82.7864

> <Gold.Chemscore.Internal_Hbond>
0.0000

> <Gold.Chemscore.DEClash>
0.0747

> <Gold.Chemscore.DEInternal>
0.4774

> <Gold.Chemscore.Rot>
1.4064

> <Gold.Chemscore.Internal.Correction>
   9.000000E+99

> <Gold.Chemscore.Hbonds>
donor molecule, donor type, donor heavy atom, donor atom, acceptor molecule, acceptor atom, score
      L1  H     6    24       P1  8028  0.92
      L1  H     9    25       P1  8028  0.96

> <Gold.Chemscore.Hbond.Weighted>
-6.3321

> <Gold.Chemscore.Metal.Weighted>
-0.0000

> <Gold.Chemscore.Lipo.Weighted>
-9.6860

> <Gold.Chemscore.Internal_Hbond.Weighted>
0.0000

> <Gold.Chemscore.DEClash.Weighted>
0.0747

> <Gold.Chemscore.DEInternal.Weighted>
0.4774

> <Gold.Chemscore.Rot.Weighted>
3.6004

> <Gold.Chemscore.Internal.Correction.Weighted>
   9.000000E+99

> <Gold.Protein.RotatedTorsions>
[ 6907 6896 6895 6894 ] final -102.49 input  -60.11 | X-H torsion
[ 7974 7965 7964 7962 ] final  -90.64 input  175.53 | X-H torsion
[ 8008 7997 7996 7995 ] final  -10.22 input   59.86 | X-H torsion
[ 10167 10162 10161 10158 ] final  -95.11 input  -65.29 | X-H torsion
[ 10718 10713 10712 10709 ] final -100.37 input   66.30 | X-H torsion
[ 10763 10752 10751 10750 ] final -101.78 input  -60.55 | X-H torsion
[ 11005 11000 10999 10996 ] final -109.48 input  -57.11 | X-H torsion

> <Gold.Protein.ActiveResidues>
 VAL166  LYS551  ARG553  GLY616  TRP617  ASP618  TYR619  PRO620  LYS621  CYS622 
 ASP623  PHE694  ASN695  SER759  ASP760  ASP761  ALA762  ILE779  LEU786  VAL792 
 PHE793  MET794  SER795  GLU796  ALA797  LYS798  CYS799  TRP800  GLU811  SER814 

> <Gold.Protein.RotatedAtoms>
  150.7198  134.0573  159.3818 H   0  0  0  0  0  0  0  0  0  0  0  0  # atno 6907 bound_to 6896
  151.8551  135.0541  160.0472 H   0  0  0  0  0  0  0  0  0  0  0  0  # atno 6908 bound_to 6896
  152.2760  133.5390  159.5505 H   0  0  0  0  0  0  0  0  0  0  0  0  # atno 6909 bound_to 6896
  145.4238  140.9552  143.2166 H   0  0  0  0  0  0  0  0  0  0  0  0  # atno 7974 bound_to 7965
  154.5574  140.2334  155.8388 H   0  0  0  0  0  0  0  0  0  0  0  0  # atno 8008 bound_to 7997
  156.2000  140.3055  155.9467 H   0  0  0  0  0  0  0  0  0  0  0  0  # atno 8009 bound_to 7997
  155.2953  140.0428  157.3016 H   0  0  0  0  0  0  0  0  0  0  0  0  # atno 8010 bound_to 7997
  140.3075  143.3125  152.0183 H   0  0  0  0  0  0  0  0  0  0  0  0  # atno 10167 bound_to 10162
  156.0161  130.5325  150.6808 H   0  0  0  0  0  0  0  0  0  0  0  0  # atno 10718 bound_to 10713
  154.7684  135.4885  153.9599 H   0  0  0  0  0  0  0  0  0  0  0  0  # atno 10763 bound_to 10752
  153.1336  135.6758  153.9146 H   0  0  0  0  0  0  0  0  0  0  0  0  # atno 10764 bound_to 10752
  153.8841  135.3128  155.3424 H   0  0  0  0  0  0  0  0  0  0  0  0  # atno 10765 bound_to 10752
  141.0845  133.9163  157.2216 H   0  0  0  0  0  0  0  0  0  0  0  0  # atno 11005 bound_to 11000
  144.8228  139.5763  143.6979 LP  0  0  0  0  0  0  0  0  0  0  0  0  # atno 17320 bound_to 7965
  146.2643  139.6482  142.9340 LP  0  0  0  0  0  0  0  0  0  0  0  0  # atno 17321 bound_to 7965
  139.4901  144.6409  151.6878 LP  0  0  0  0  0  0  0  0  0  0  0  0  # atno 17342 bound_to 10162
  140.5597  144.0289  150.6164 LP  0  0  0  0  0  0  0  0  0  0  0  0  # atno 17343 bound_to 10162
  157.4510  131.0872  151.0845 LP  0  0  0  0  0  0  0  0  0  0  0  0  # atno 17370 bound_to 10713
  157.1361  130.6123  149.5542 LP  0  0  0  0  0  0  0  0  0  0  0  0  # atno 17371 bound_to 10713
  139.9662  135.0141  156.9392 LP  0  0  0  0  0  0  0  0  0  0  0  0  # atno 17394 bound_to 11000
  140.5394  134.0735  155.7337 LP  0  0  0  0  0  0  0  0  0  0  0  0  # atno 17395 bound_to 11000

$$$$
