AV-unprocessed.smi:3287|AV-procd|sdf|12597|dock7
  -GOLD-   2272018523D 1   1.00000     0.00000
 Structure written by MMmdl.
 43 44  0  0  0  0  0  0  0  0  2 V2000
  153.5588  142.2558  160.3265 C   0  0  0  0  0  0  0  0  0  0  0  0
  152.8391  142.2162  158.9684 C   0  0  1  0  0  0  0  0  0  0  0  0
  151.8099  141.0716  158.8981 C   0  0  0  0  0  0  0  0  0  0  0  0
  151.1561  140.9822  157.5097 C   0  0  0  0  0  0  0  0  0  0  0  0
  150.5117  142.3212  157.0941 C   0  0  2  0  0  0  0  0  0  0  0  0
  149.9497  142.2607  155.7261 N   0  3  0  0  0  0  0  0  0  0  0  0
  148.7195  141.4531  155.5743 C   0  0  0  0  0  0  0  0  0  0  0  0
  148.8996  140.3472  154.5198 C   0  0  1  0  0  0  0  0  0  0  0  0
  149.4900  140.9072  153.3625 O   0  0  0  0  0  0  0  0  0  0  0  0
  149.7193  139.1909  155.0720 C   0  0  0  0  0  0  0  0  0  0  0  0
  149.2886  138.4600  156.2011 C   0  0  0  0  0  0  0  0  0  0  0  0
  150.0900  137.3962  156.6617 C   0  0  0  0  0  0  0  0  0  0  0  0
  151.2508  137.0351  156.0745 N   0  0  0  0  0  0  0  0  0  0  0  0
  151.6562  137.7345  154.9934 C   0  0  0  0  0  0  0  0  0  0  0  0
  150.9302  138.8153  154.4538 C   0  0  0  0  0  0  0  0  0  0  0  0
  151.5481  143.4604  157.1760 C   0  0  0  0  0  0  0  0  0  0  0  0
  152.2080  143.5736  158.5667 C   0  0  1  0  0  0  0  0  0  0  0  0
  151.2366  144.1558  159.6135 C   0  0  0  0  0  0  0  0  0  0  0  0
  152.8592  142.3860  161.1524 H   0  0  0  0  0  0  0  0  0  0  0  0
  154.2814  143.0713  160.3658 H   0  0  0  0  0  0  0  0  0  0  0  0
  154.1030  141.3279  160.5052 H   0  0  0  0  0  0  0  0  0  0  0  0
  153.6077  141.9957  158.2256 H   0  0  0  0  0  0  0  0  0  0  0  0
  152.2956  140.1226  159.1282 H   0  0  0  0  0  0  0  0  0  0  0  0
  151.0413  141.2095  159.6590 H   0  0  0  0  0  0  0  0  0  0  0  0
  151.9074  140.6900  156.7744 H   0  0  0  0  0  0  0  0  0  0  0  0
  150.4130  140.1850  157.5259 H   0  0  0  0  0  0  0  0  0  0  0  0
  149.6931  142.5503  157.7776 H   0  0  0  0  0  0  0  0  0  0  0  0
  149.7265  143.2053  155.4470 H   0  0  0  0  0  0  0  0  0  0  0  0
  148.4396  141.0122  156.5314 H   0  0  0  0  0  0  0  0  0  0  0  0
  147.9033  142.1113  155.2732 H   0  0  0  0  0  0  0  0  0  0  0  0
  147.9200  139.9643  154.2294 H   0  0  0  0  0  0  0  0  0  0  0  0
  149.5514  140.2335  152.7017 H   0  0  0  0  0  0  0  0  0  0  0  0
  148.3661  138.7042  156.7071 H   0  0  0  0  0  0  0  0  0  0  0  0
  149.7893  136.8191  157.5236 H   0  0  0  0  0  0  0  0  0  0  0  0
  152.5871  137.4231  154.5431 H   0  0  0  0  0  0  0  0  0  0  0  0
  151.2995  139.3400  153.5849 H   0  0  0  0  0  0  0  0  0  0  0  0
  152.3272  143.2896  156.4312 H   0  0  0  0  0  0  0  0  0  0  0  0
  151.0834  144.4104  156.9088 H   0  0  0  0  0  0  0  0  0  0  0  0
  153.0211  144.2948  158.4726 H   0  0  0  0  0  0  0  0  0  0  0  0
  150.4137  143.4773  159.8366 H   0  0  0  0  0  0  0  0  0  0  0  0
  150.8032  145.0926  159.2621 H   0  0  0  0  0  0  0  0  0  0  0  0
  151.7464  144.3764  160.5511 H   0  0  0  0  0  0  0  0  0  0  0  0
  150.6534  141.9018  155.0963 H   0  0  0  0  0  0  0  0  0  0  0  0
  1  2  1  0  0  0  0
  1 19  1  0  0  0  0
  1 20  1  0  0  0  0
  1 21  1  0  0  0  0
  2 17  1  0  0  0  0
  2  3  1  0  0  0  0
  2 22  1  0  0  0  0
  3  4  1  0  0  0  0
  3 23  1  0  0  0  0
  3 24  1  0  0  0  0
  4  5  1  0  0  0  0
  4 25  1  0  0  0  0
  4 26  1  0  0  0  0
  5  6  1  0  0  0  0
  5 16  1  0  0  0  0
  5 27  1  0  0  0  0
  6  7  1  0  0  0  0
  6 28  1  0  0  0  0
  6 43  1  0  0  0  0
  7  8  1  0  0  0  0
  7 29  1  0  0  0  0
  7 30  1  0  0  0  0
  8  9  1  0  0  0  0
  8 10  1  0  0  0  0
  8 31  1  0  0  0  0
  9 32  1  0  0  0  0
 10 15  1  0  0  0  0
 10 11  2  0  0  0  0
 11 12  1  0  0  0  0
 11 33  1  0  0  0  0
 12 13  2  0  0  0  0
 12 34  1  0  0  0  0
 13 14  1  0  0  0  0
 14 15  2  0  0  0  0
 14 35  1  0  0  0  0
 15 36  1  0  0  0  0
 16 17  1  0  0  0  0
 16 37  1  0  0  0  0
 16 38  1  0  0  0  0
 17 18  1  0  0  0  0
 17 39  1  0  0  0  0
 18 40  1  0  0  0  0
 18 41  1  0  0  0  0
 18 42  1  0  0  0  0
M  CHG  1   6   1
M  END
> <s_m_source_file>
AV-unprocessed.smi

> <i_m_source_file_index>
3287

> <i_lp_mmshare_version>
43012

> <i_f3d_flags>
0

> <s_epik_input>
W0NIM11bQ0BASF0xW0NIMl1bQ0gyXVtDQEhdKFtDSDJdW0NASF0xW0NIM10pW05IXVtDSDJdW0NASF0oW09IXSljMltjSF1bY0hdbltjSF1bY0hdMg==

> <s_epik_cmdline>
J2VwaWtfcHl0aG9uJywgJy1waCcsICc3LjAnLCAnLXRuJywgJzgnLCAnLW1hJywgJzIwMCcsICctbWV0YWxfYmluZGluZycsICctaW1hZScsICc8aW5maWxlLm1hZT4nLCAnLW9tYWUnLCAnPG91dGZpbGUubWFlPic=

> <r_lp_tautomer_probability>
1

> <r_epik_Ionization_Penalty>
0.00537262

> <r_epik_Ionization_Penalty_Charging>
0.00321624

> <r_epik_Ionization_Penalty_Neutral>
0.00215638

> <r_epik_State_Penalty>
-0

> <r_epik_Charging_Adjusted_Penalty>
0.00321624

> <i_epik_Tot_Q>
1

> <i_epik_Tot_abs_Q>
1

> <r_epik_Metal_State_Penalty>
-0

> <b_epik_Metal_Only>
0

> <s_lp_Force_Field>
OPLS_2005

> <r_lp_Energy>
18.2577

> <b_lp_Chiralities_Consistent>
1

> <s_lp_Variant>
AV-unprocessed.smi:3287-8

> <Gold.Version>
5.8.1

> <Gold.Id.Protein>
6NUR|6NUR_protein|mol2

> <Gold.PLP.Fitness>
48.4074

> <Gold.PLP.PLP>
-37.9212

> <Gold.PLP.part.hbond>
-3.4919

> <Gold.PLP.part.metal>
0.0000

> <Gold.PLP.part.buried>
-4.3424

> <Gold.PLP.part.nonpolar>
-30.2448

> <Gold.PLP.part.repulsive>
0.1803

> <Gold.PLP.ligand.clash>
0.0000

> <Gold.PLP.ligand.torsion>
0.5678

> <Gold.PLP.Chemscore.Hbond>
3.8677

> <Gold.PLP.Chemscore.CHOScore>
0.0000

> <Gold.PLP.Chemscore.Metal>
0.0000

> <Gold.Chemscore.Hbonds>
donor molecule, donor type, donor heavy atom, donor atom, acceptor molecule, acceptor atom, score
      L1  H     6    28       P1  8028  2.00
      L1  H     9    32       P1  7957  0.83
      P1  H  7989  7998       L1     9  0.08
      P1  H  8011  8017       L1     9  1.00

> <Gold.PLP.Chemscore.Internal.Correction>
0.0187

> <Gold.Rescore>
     Score         DG    S(hbond)    S(metal)    S(lipo)     H(rot)  DE(clash)    DE(int)     intcor
     19.97     -21.01       1.97        0.00     118.05       1.90       0.46       0.58       ----

> <Gold.Chemscore.Fitness>
19.9701

> <Gold.Chemscore.DG>
-21.0123

> <Gold.Chemscore.ZeroCoef>
-5.4800

> <Gold.Chemscore.Hbond>
1.9740

> <Gold.Chemscore.Metal>
0.0000

> <Gold.Chemscore.Lipo>
118.0522

> <Gold.Chemscore.Internal_Hbond>
0.0000

> <Gold.Chemscore.DEClash>
0.4622

> <Gold.Chemscore.DEInternal>
0.5801

> <Gold.Chemscore.Rot>
1.9035

> <Gold.Chemscore.Internal.Correction>
   9.000000E+99

> <Gold.Chemscore.Hbonds>
donor molecule, donor type, donor heavy atom, donor atom, acceptor molecule, acceptor atom, score
      L1  H     6    28       P1  8028  0.97
      L1  H     9    32       P1  7957  0.78
      P1  H  8011  8017       L1     9  0.25

> <Gold.Chemscore.Hbond.Weighted>
-6.5931

> <Gold.Chemscore.Metal.Weighted>
-0.0000

> <Gold.Chemscore.Lipo.Weighted>
-13.8121

> <Gold.Chemscore.Internal_Hbond.Weighted>
0.0000

> <Gold.Chemscore.DEClash.Weighted>
0.4622

> <Gold.Chemscore.DEInternal.Weighted>
0.5801

> <Gold.Chemscore.Rot.Weighted>
4.8729

> <Gold.Chemscore.Internal.Correction.Weighted>
   9.000000E+99

> <Gold.Protein.RotatedTorsions>
[ 6907 6896 6895 6894 ] final  173.26 input  -60.11 | X-H torsion
[ 7974 7965 7964 7962 ] final   88.08 input  175.53 | X-H torsion
[ 8008 7997 7996 7995 ] final -101.69 input   59.86 | X-H torsion
[ 10167 10162 10161 10158 ] final  101.98 input  -65.29 | X-H torsion
[ 10718 10713 10712 10709 ] final   -9.31 input   66.30 | X-H torsion
[ 10763 10752 10751 10750 ] final   74.33 input  -60.55 | X-H torsion
[ 11005 11000 10999 10996 ] final   37.68 input  -57.11 | X-H torsion

> <Gold.Protein.ActiveResidues>
 VAL166  LYS551  ARG553  GLY616  TRP617  ASP618  TYR619  PRO620  LYS621  CYS622 
 ASP623  PHE694  ASN695  SER759  ASP760  ASP761  ALA762  ILE779  LEU786  VAL792 
 PHE793  MET794  SER795  GLU796  ALA797  LYS798  CYS799  TRP800  GLU811  SER814 

> <Gold.Protein.RotatedAtoms>
  151.7712  133.3341  159.3444 H   0  0  0  0  0  0  0  0  0  0  0  0  # atno 6907 bound_to 6896
  150.7461  134.6017  159.6049 H   0  0  0  0  0  0  0  0  0  0  0  0  # atno 6908 bound_to 6896
  152.3340  134.7224  160.0333 H   0  0  0  0  0  0  0  0  0  0  0  0  # atno 6909 bound_to 6896
  145.5505  139.2295  143.2515 H   0  0  0  0  0  0  0  0  0  0  0  0  # atno 7974 bound_to 7965
  154.8462  140.0433  157.1574 H   0  0  0  0  0  0  0  0  0  0  0  0  # atno 8008 bound_to 7997
  154.8993  140.2998  155.5306 H   0  0  0  0  0  0  0  0  0  0  0  0  # atno 8009 bound_to 7997
  156.2994  140.2379  156.4018 H   0  0  0  0  0  0  0  0  0  0  0  0  # atno 8010 bound_to 7997
  139.7390  144.7016  151.0604 H   0  0  0  0  0  0  0  0  0  0  0  0  # atno 10167 bound_to 10162
  156.6899  130.5062  149.5946 H   0  0  0  0  0  0  0  0  0  0  0  0  # atno 10718 bound_to 10713
  153.0580  135.5029  154.8027 H   0  0  0  0  0  0  0  0  0  0  0  0  # atno 10763 bound_to 10752
  154.6838  135.2972  154.9579 H   0  0  0  0  0  0  0  0  0  0  0  0  # atno 10764 bound_to 10752
  154.0356  135.6724  153.4837 H   0  0  0  0  0  0  0  0  0  0  0  0  # atno 10765 bound_to 10752
  140.2202  134.3650  155.8008 H   0  0  0  0  0  0  0  0  0  0  0  0  # atno 11005 bound_to 11000
  146.1920  140.6328  142.9141 LP  0  0  0  0  0  0  0  0  0  0  0  0  # atno 17320 bound_to 7965
  144.7532  140.5242  143.6787 LP  0  0  0  0  0  0  0  0  0  0  0  0  # atno 17321 bound_to 7965
  140.7783  143.4948  150.9847 LP  0  0  0  0  0  0  0  0  0  0  0  0  # atno 17342 bound_to 10162
  139.8636  143.7283  152.3171 LP  0  0  0  0  0  0  0  0  0  0  0  0  # atno 17343 bound_to 10162
  156.1805  130.6496  151.0945 LP  0  0  0  0  0  0  0  0  0  0  0  0  # atno 17370 bound_to 10713
  157.7012  131.0775  150.6812 LP  0  0  0  0  0  0  0  0  0  0  0  0  # atno 17371 bound_to 10713
  141.2223  133.7189  156.8562 LP  0  0  0  0  0  0  0  0  0  0  0  0  # atno 17394 bound_to 11000
  140.1858  134.9001  157.3002 LP  0  0  0  0  0  0  0  0  0  0  0  0  # atno 17395 bound_to 11000

$$$$
