AV-unprocessed.smi:2831|AV-procd|sdf|10908|dock7
  -GOLD-   2272015353D 1   1.00000     0.00000
 Structure written by MMmdl.
 30 31  0  0  0  0  0  0  0  0  1 V2000
  144.2302  132.0683  149.2780 C   0  0  0  0  0  0  0  0  0  0  0  0
  144.6382  133.0234  150.3471 C   0  0  0  0  0  0  0  0  0  0  0  0
  143.9808  133.1341  151.5079 N   0  0  0  0  0  0  0  0  0  0  0  0
  144.5417  134.0921  152.3409 N   0  0  0  0  0  0  0  0  0  0  0  0
  145.6083  134.6790  151.7805 C   0  0  0  0  0  0  0  0  0  0  0  0
  146.3697  135.6992  152.4098 N   0  0  0  0  0  0  0  0  0  0  0  0
  145.9804  136.5610  153.3656 C   0  0  0  0  0  0  0  0  0  0  0  0
  144.8606  136.5973  153.8759 O   0  0  0  0  0  0  0  0  0  0  0  0
  146.9810  137.3922  153.7014 N   0  0  0  0  0  0  0  0  0  0  0  0
  146.9512  138.4571  154.7109 C   0  0  1  0  0  0  0  0  0  0  0  0
  148.3182  139.1716  154.7793 C   0  0  0  0  0  0  0  0  0  0  0  0
  145.8366  139.4555  154.3635 C   0  0  0  0  0  0  0  0  0  0  0  0
  144.8242  139.3197  155.4977 C   0  0  0  0  0  0  0  0  0  0  0  0
  145.6214  138.9133  156.5935 O   0  0  0  0  0  0  0  0  0  0  0  0
  146.5095  137.9284  156.0931 C   0  0  0  0  0  0  0  0  0  0  0  0
  146.0187  134.1007  150.1747 S   0  0  0  0  0  0  0  0  0  0  0  0
  143.7205  131.2063  149.7097 H   0  0  0  0  0  0  0  0  0  0  0  0
  145.1063  131.7168  148.7325 H   0  0  0  0  0  0  0  0  0  0  0  0
  143.5555  132.5608  148.5778 H   0  0  0  0  0  0  0  0  0  0  0  0
  147.3234  135.7853  152.0913 H   0  0  0  0  0  0  0  0  0  0  0  0
  147.8577  137.2755  153.2150 H   0  0  0  0  0  0  0  0  0  0  0  0
  148.2979  139.9925  155.4971 H   0  0  0  0  0  0  0  0  0  0  0  0
  148.5958  139.5873  153.8101 H   0  0  0  0  0  0  0  0  0  0  0  0
  149.1156  138.4961  155.0892 H   0  0  0  0  0  0  0  0  0  0  0  0
  146.2217  140.4760  154.3481 H   0  0  0  0  0  0  0  0  0  0  0  0
  145.3740  139.2775  153.3917 H   0  0  0  0  0  0  0  0  0  0  0  0
  144.2956  140.2502  155.7055 H   0  0  0  0  0  0  0  0  0  0  0  0
  144.0872  138.5468  155.2739 H   0  0  0  0  0  0  0  0  0  0  0  0
  145.9613  136.9883  156.0098 H   0  0  0  0  0  0  0  0  0  0  0  0
  147.3433  137.7652  156.7765 H   0  0  0  0  0  0  0  0  0  0  0  0
  1  2  1  0  0  0  0
  1 17  1  0  0  0  0
  1 18  1  0  0  0  0
  1 19  1  0  0  0  0
  2 16  1  0  0  0  0
  2  3  2  0  0  0  0
  3  4  1  0  0  0  0
  4  5  2  0  0  0  0
  5  6  1  0  0  0  0
  5 16  1  0  0  0  0
  6  7  1  0  0  0  0
  6 20  1  0  0  0  0
  7  8  2  0  0  0  0
  7  9  1  0  0  0  0
  9 10  1  0  0  0  0
  9 21  1  0  0  0  0
 10 15  1  0  0  0  0
 10 11  1  0  0  0  0
 10 12  1  0  0  0  0
 11 22  1  0  0  0  0
 11 23  1  0  0  0  0
 11 24  1  0  0  0  0
 12 13  1  0  0  0  0
 12 25  1  0  0  0  0
 12 26  1  0  0  0  0
 13 14  1  0  0  0  0
 13 27  1  0  0  0  0
 13 28  1  0  0  0  0
 14 15  1  0  0  0  0
 15 29  1  0  0  0  0
 15 30  1  0  0  0  0
M  END
> <s_m_source_file>
AV-unprocessed.smi

> <i_m_source_file_index>
2831

> <i_lp_mmshare_version>
43012

> <i_f3d_flags>
0

> <s_epik_input>
W0NIM11jMW5uYyhzMSlbTkhdQyg9TylbTkhdW0NAQF0yKFtDSDNdKVtDSDJdW0NIMl1PW0NIMl0y

> <s_epik_cmdline>
J2VwaWtfcHl0aG9uJywgJy1waCcsICc3LjAnLCAnLXRuJywgJzgnLCAnLW1hJywgJzIwMCcsICctbWV0YWxfYmluZGluZycsICctaW1hZScsICc8aW5maWxlLm1hZT4nLCAnLW9tYWUnLCAnPG91dGZpbGUubWFlPic=

> <r_lp_tautomer_probability>
1

> <r_epik_Ionization_Penalty>
0.00277018

> <r_epik_Ionization_Penalty_Charging>
0

> <r_epik_Ionization_Penalty_Neutral>
0.00277018

> <r_epik_State_Penalty>
-0

> <r_epik_Charging_Adjusted_Penalty>
0

> <i_epik_Tot_Q>
0

> <i_epik_Tot_abs_Q>
0

> <r_epik_Metal_State_Penalty>
0.356997

> <b_epik_Metal_Only>
0

> <s_lp_Force_Field>
OPLS_2005

> <r_lp_Energy>
15.109

> <b_lp_Chiralities_Consistent>
1

> <s_lp_Variant>
AV-unprocessed.smi:2831-1

> <Gold.Version>
5.8.1

> <Gold.Id.Protein>
6NUR|6NUR_protein|mol2

> <Gold.PLP.Fitness>
31.1566

> <Gold.PLP.PLP>
-22.4973

> <Gold.PLP.part.hbond>
-3.0000

> <Gold.PLP.part.metal>
0.0000

> <Gold.PLP.part.buried>
-4.3267

> <Gold.PLP.part.nonpolar>
-15.6247

> <Gold.PLP.part.repulsive>
0.2784

> <Gold.PLP.ligand.clash>
0.0000

> <Gold.PLP.ligand.torsion>
0.1481

> <Gold.PLP.Chemscore.Hbond>
2.9760

> <Gold.PLP.Chemscore.CHOScore>
0.0000

> <Gold.PLP.Chemscore.Metal>
0.0000

> <Gold.Chemscore.Hbonds>
donor molecule, donor type, donor heavy atom, donor atom, acceptor molecule, acceptor atom, score
      L1  H     6    20       P1  7948  1.00
      L1  H     9    21       P1  7948  0.98

> <Gold.PLP.Chemscore.Internal.Correction>
0.0275

> <Gold.Rescore>
     Score         DG    S(hbond)    S(metal)    S(lipo)     H(rot)  DE(clash)    DE(int)     intcor
     13.27     -15.76       2.27        0.00      45.01       1.00       0.12       2.38       ----

> <Gold.Chemscore.Fitness>
13.2697

> <Gold.Chemscore.DG>
-15.7646

> <Gold.Chemscore.ZeroCoef>
-5.4800

> <Gold.Chemscore.Hbond>
2.2691

> <Gold.Chemscore.Metal>
0.0000

> <Gold.Chemscore.Lipo>
45.0077

> <Gold.Chemscore.Internal_Hbond>
0.0000

> <Gold.Chemscore.DEClash>
0.1171

> <Gold.Chemscore.DEInternal>
2.3778

> <Gold.Chemscore.Rot>
1.0000

> <Gold.Chemscore.Internal.Correction>
   9.000000E+99

> <Gold.Chemscore.Hbonds>
donor molecule, donor type, donor heavy atom, donor atom, acceptor molecule, acceptor atom, score
      L1  H     6    20       P1  7948  1.00
      L1  H     9    21       P1  7948  0.87

> <Gold.Chemscore.Hbond.Weighted>
-7.5787

> <Gold.Chemscore.Metal.Weighted>
-0.0000

> <Gold.Chemscore.Lipo.Weighted>
-5.2659

> <Gold.Chemscore.Internal_Hbond.Weighted>
0.0000

> <Gold.Chemscore.DEClash.Weighted>
0.1171

> <Gold.Chemscore.DEInternal.Weighted>
2.3778

> <Gold.Chemscore.Rot.Weighted>
2.5600

> <Gold.Chemscore.Internal.Correction.Weighted>
   9.000000E+99

> <Gold.Protein.RotatedTorsions>
[ 6907 6896 6895 6894 ] final -144.46 input  -60.11 | X-H torsion
[ 7974 7965 7964 7962 ] final -111.25 input  175.53 | X-H torsion
[ 8008 7997 7996 7995 ] final   16.15 input   59.86 | X-H torsion
[ 10167 10162 10161 10158 ] final   17.53 input  -65.29 | X-H torsion
[ 10718 10713 10712 10709 ] final  169.73 input   66.30 | X-H torsion
[ 10763 10752 10751 10750 ] final   78.33 input  -60.55 | X-H torsion
[ 11005 11000 10999 10996 ] final  147.05 input  -57.11 | X-H torsion

> <Gold.Protein.ActiveResidues>
 VAL166  LYS551  ARG553  GLY616  TRP617  ASP618  TYR619  PRO620  LYS621  CYS622 
 ASP623  PHE694  ASN695  SER759  ASP760  ASP761  ALA762  ILE779  LEU786  VAL792 
 PHE793  MET794  SER795  GLU796  ALA797  LYS798  CYS799  TRP800  GLU811  SER814 

> <Gold.Protein.RotatedAtoms>
  151.1143  133.5150  159.2604 H   0  0  0  0  0  0  0  0  0  0  0  0  # atno 6907 bound_to 6896
  151.1932  135.0411  159.8851 H   0  0  0  0  0  0  0  0  0  0  0  0  # atno 6908 bound_to 6896
  152.5452  134.0981  159.8359 H   0  0  0  0  0  0  0  0  0  0  0  0  # atno 6909 bound_to 6896
  145.1584  140.8865  143.3605 H   0  0  0  0  0  0  0  0  0  0  0  0  # atno 7974 bound_to 7965
  154.8728  140.2961  155.5471 H   0  0  0  0  0  0  0  0  0  0  0  0  # atno 8008 bound_to 7997
  156.3021  140.2457  156.3652 H   0  0  0  0  0  0  0  0  0  0  0  0  # atno 8009 bound_to 7997
  154.8799  140.0398  157.1765 H   0  0  0  0  0  0  0  0  0  0  0  0  # atno 8010 bound_to 7997
  140.5719  143.9145  150.6720 H   0  0  0  0  0  0  0  0  0  0  0  0  # atno 10167 bound_to 10162
  157.0185  131.0225  151.2782 H   0  0  0  0  0  0  0  0  0  0  0  0  # atno 10718 bound_to 10713
  153.0866  135.4881  154.8609 H   0  0  0  0  0  0  0  0  0  0  0  0  # atno 10763 bound_to 10752
  154.7218  135.3041  154.9037 H   0  0  0  0  0  0  0  0  0  0  0  0  # atno 10764 bound_to 10752
  153.9699  135.6802  153.4800 H   0  0  0  0  0  0  0  0  0  0  0  0  # atno 10765 bound_to 10752
  140.0844  134.9078  157.1552 H   0  0  0  0  0  0  0  0  0  0  0  0  # atno 11005 bound_to 11000
  145.0357  139.3303  143.6002 LP  0  0  0  0  0  0  0  0  0  0  0  0  # atno 17320 bound_to 7965
  146.3485  139.9711  142.8706 LP  0  0  0  0  0  0  0  0  0  0  0  0  # atno 17321 bound_to 7965
  140.2622  143.3516  152.1312 LP  0  0  0  0  0  0  0  0  0  0  0  0  # atno 17342 bound_to 10162
  139.5122  144.6913  151.5752 LP  0  0  0  0  0  0  0  0  0  0  0  0  # atno 17343 bound_to 10162
  157.5268  130.8033  149.7871 LP  0  0  0  0  0  0  0  0  0  0  0  0  # atno 17370 bound_to 10713
  156.0111  130.3833  150.2263 LP  0  0  0  0  0  0  0  0  0  0  0  0  # atno 17371 bound_to 10713
  140.3442  134.2670  155.7207 LP  0  0  0  0  0  0  0  0  0  0  0  0  # atno 17394 bound_to 11000
  141.2057  133.7852  157.0216 LP  0  0  0  0  0  0  0  0  0  0  0  0  # atno 17395 bound_to 11000

$$$$
