AV-unprocessed.smi:101|AV-procd|sdf|934|dock2
  -GOLD-   2262017453D 1   1.00000     0.00000
 Structure written by MMmdl.
 43 45  0  0  0  0  0  0  0  0  2 V2000
  143.9676  145.1234  154.5503 C   0  0  0  0  0  0  0  0  0  0  0  0
  144.7626  143.9175  155.0198 C   0  0  0  0  0  0  0  0  0  0  0  0
  145.7996  143.4181  154.3122 C   0  0  0  0  0  0  0  0  0  0  0  0
  146.5217  142.3192  154.7432 N   0  0  0  0  0  0  0  0  0  0  0  0
  147.6721  141.7969  153.9075 C   0  0  1  0  0  0  0  0  0  0  0  0
  148.8056  141.7589  154.7195 O   0  0  0  0  0  0  0  0  0  0  0  0
  149.5143  140.5486  154.5016 C   0  0  1  0  0  0  0  0  0  0  0  0
  150.3064  140.1835  155.7621 C   0  0  0  0  0  0  0  0  0  0  0  0
  150.9140  141.3518  156.2879 O   0  0  0  0  0  0  0  0  0  0  0  0
  151.8959  141.2466  157.2043 C   0  0  0  0  0  0  0  0  0  0  0  0
  152.6151  140.2522  157.3224 O   0  0  0  0  0  0  0  0  0  0  0  0
  152.0215  142.4595  158.0629 C   0  0  0  0  0  0  0  0  0  0  0  0
  151.4744  143.6850  157.6150 C   0  0  0  0  0  0  0  0  0  0  0  0
  151.5789  144.8476  158.4031 C   0  0  0  0  0  0  0  0  0  0  0  0
  152.2314  144.7992  159.6487 C   0  0  0  0  0  0  0  0  0  0  0  0
  152.7800  143.5866  160.1056 C   0  0  0  0  0  0  0  0  0  0  0  0
  152.6767  142.4227  159.3188 C   0  0  0  0  0  0  0  0  0  0  0  0
  148.4162  139.5393  154.1612 C   0  0  2  0  0  0  0  0  0  0  0  0
  148.9408  138.4865  153.3769 O   0  0  0  0  0  0  0  0  0  0  0  0
  147.4239  140.3725  153.3605 C   0  0  1  0  0  0  0  0  0  0  0  0
  146.1035  139.8925  153.5396 O   0  0  0  0  0  0  0  0  0  0  0  0
  146.1862  141.6956  155.9738 C   0  0  0  0  0  0  0  0  0  0  0  0
  146.8642  140.7384  156.3471 O   0  0  0  0  0  0  0  0  0  0  0  0
  145.1372  142.1898  156.6918 N   0  5  0  0  0  0  0  0  0  0  0  0
  144.4028  143.2651  156.2845 C   0  0  0  0  0  0  0  0  0  0  0  0
  143.4577  143.6989  156.9427 O   0  0  0  0  0  0  0  0  0  0  0  0
  144.3394  145.4960  153.5956 H   0  0  0  0  0  0  0  0  0  0  0  0
  144.0363  145.9318  155.2786 H   0  0  0  0  0  0  0  0  0  0  0  0
  142.9168  144.8613  154.4239 H   0  0  0  0  0  0  0  0  0  0  0  0
  146.0757  143.8942  153.3829 H   0  0  0  0  0  0  0  0  0  0  0  0
  147.8539  142.5249  153.1166 H   0  0  0  0  0  0  0  0  0  0  0  0
  150.1785  140.6850  153.6458 H   0  0  0  0  0  0  0  0  0  0  0  0
  149.6504  139.7217  156.5016 H   0  0  0  0  0  0  0  0  0  0  0  0
  151.0862  139.4616  155.5163 H   0  0  0  0  0  0  0  0  0  0  0  0
  150.9689  143.7470  156.6620 H   0  0  0  0  0  0  0  0  0  0  0  0
  151.1578  145.7777  158.0505 H   0  0  0  0  0  0  0  0  0  0  0  0
  152.3117  145.6911  160.2527 H   0  0  0  0  0  0  0  0  0  0  0  0
  153.2822  143.5483  161.0610 H   0  0  0  0  0  0  0  0  0  0  0  0
  153.1098  141.5089  159.6987 H   0  0  0  0  0  0  0  0  0  0  0  0
  147.9582  139.1534  155.0738 H   0  0  0  0  0  0  0  0  0  0  0  0
  149.2769  138.8510  152.5724 H   0  0  0  0  0  0  0  0  0  0  0  0
  147.6782  140.3745  152.2994 H   0  0  0  0  0  0  0  0  0  0  0  0
  145.5077  140.4946  153.1205 H   0  0  0  0  0  0  0  0  0  0  0  0
  1  2  1  0  0  0  0
  1 27  1  0  0  0  0
  1 28  1  0  0  0  0
  1 29  1  0  0  0  0
  2 25  1  0  0  0  0
  2  3  2  0  0  0  0
  3  4  1  0  0  0  0
  3 30  1  0  0  0  0
  4  5  1  0  0  0  0
  4 22  1  0  0  0  0
  5 20  1  0  0  0  0
  5  6  1  0  0  0  0
  5 31  1  0  0  0  0
  6  7  1  0  0  0  0
  7  8  1  0  0  0  0
  7 18  1  0  0  0  0
  7 32  1  0  0  0  0
  8  9  1  0  0  0  0
  8 33  1  0  0  0  0
  8 34  1  0  0  0  0
  9 10  1  0  0  0  0
 10 11  2  0  0  0  0
 10 12  1  0  0  0  0
 12 17  1  0  0  0  0
 12 13  2  0  0  0  0
 13 14  1  0  0  0  0
 13 35  1  0  0  0  0
 14 15  2  0  0  0  0
 14 36  1  0  0  0  0
 15 16  1  0  0  0  0
 15 37  1  0  0  0  0
 16 17  2  0  0  0  0
 16 38  1  0  0  0  0
 17 39  1  0  0  0  0
 18 19  1  0  0  0  0
 18 20  1  0  0  0  0
 18 40  1  0  0  0  0
 19 41  1  0  0  0  0
 20 21  1  0  0  0  0
 20 42  1  0  0  0  0
 21 43  1  0  0  0  0
 22 23  2  0  0  0  0
 22 24  1  0  0  0  0
 24 25  1  0  0  0  0
 25 26  2  0  0  0  0
M  CHG  1  24  -1
M  END
> <s_m_source_file>
AV-unprocessed.smi

> <i_m_source_file_index>
101

> <i_lp_mmshare_version>
43012

> <i_f3d_flags>
0

> <s_epik_input>
Tz1jMVtuSF1jKD1PKW4oW2NIXWMxW0NIM10pW0NAQEhdMk9bQ0BIXShbQ0BASF0oW09IXSlbQ0BIXTJbT0hdKVtDSDJdT0MoPU8pYzNbY0hdW2NIXVtjSF1bY0hdW2NIXTM=

> <s_epik_cmdline>
J2VwaWtfcHl0aG9uJywgJy1waCcsICc3LjAnLCAnLXRuJywgJzgnLCAnLW1hJywgJzIwMCcsICctbWV0YWxfYmluZGluZycsICctaW1hZScsICc8aW5maWxlLm1hZT4nLCAnLW9tYWUnLCAnPG91dGZpbGUubWFlPic=

> <r_lp_tautomer_probability>
0.999537

> <r_epik_Ionization_Penalty>
3.21006

> <r_epik_Ionization_Penalty_Charging>
5.75142e-08

> <r_epik_Ionization_Penalty_Neutral>
3.21006

> <r_epik_State_Penalty>
3.20925

> <r_epik_Charging_Adjusted_Penalty>
3.20925

> <i_epik_Tot_Q>
-1

> <i_epik_Tot_abs_Q>
1

> <r_epik_Metal_State_Penalty>
0.119957

> <b_epik_Metal_Only>
1

> <s_epik_Chemistry_Notes>
This compound has an ester and may undergo hydrolysis at high or low pH. This compound contains an acetal/aminal-like group ( X-CH(R)-Y where X, Y are N, S, or O) that may be acid/base labile, releasing an aldehyde.

> <s_lp_Force_Field>
OPLS_2005

> <r_lp_Energy>
44.7852

> <b_lp_Chiralities_Consistent>
1

> <s_lp_Variant>
AV-unprocessed.smi:101-22

> <Gold.Version>
5.8.1

> <Gold.Id.Protein>
6NUR|6NUR_protein|mol2

> <Gold.PLP.Fitness>
59.3832

> <Gold.PLP.PLP>
-52.6999

> <Gold.PLP.part.hbond>
-4.1999

> <Gold.PLP.part.metal>
0.0000

> <Gold.PLP.part.buried>
-5.9376

> <Gold.PLP.part.nonpolar>
-42.5520

> <Gold.PLP.part.repulsive>
0.3009

> <Gold.PLP.ligand.clash>
0.0000

> <Gold.PLP.ligand.torsion>
0.8111

> <Gold.PLP.Chemscore.Hbond>
2.7193

> <Gold.PLP.Chemscore.CHOScore>
0.0000

> <Gold.PLP.Chemscore.Metal>
0.0000

> <Gold.Chemscore.Hbonds>
donor molecule, donor type, donor heavy atom, donor atom, acceptor molecule, acceptor atom, score
      L1  H    19    41       P1  7957  1.00
      L1  H    21    43       P1 10175  0.77
      P1  H  7997  8009       L1    11  0.96

> <Gold.PLP.Chemscore.Internal.Correction>
0.1475

> <Gold.Rescore>
     Score         DG    S(hbond)    S(metal)    S(lipo)     H(rot)  DE(clash)    DE(int)     intcor
     15.73     -19.27       2.89        0.00     106.97       3.27       0.03       3.51       ----

> <Gold.Chemscore.Fitness>
15.7289

> <Gold.Chemscore.DG>
-19.2722

> <Gold.Chemscore.ZeroCoef>
-5.4800

> <Gold.Chemscore.Hbond>
2.8852

> <Gold.Chemscore.Metal>
0.0000

> <Gold.Chemscore.Lipo>
106.9687

> <Gold.Chemscore.Internal_Hbond>
0.0000

> <Gold.Chemscore.DEClash>
0.0336

> <Gold.Chemscore.DEInternal>
3.5097

> <Gold.Chemscore.Rot>
3.2656

> <Gold.Chemscore.Internal.Correction>
   9.000000E+99

> <Gold.Chemscore.Hbonds>
donor molecule, donor type, donor heavy atom, donor atom, acceptor molecule, acceptor atom, score
      L1  H    19    41       P1  7957  0.93
      L1  H    21    43       P1 10175  0.68
      P1  H  7997  8009       L1    11  0.92

> <Gold.Chemscore.Hbond.Weighted>
-9.6367

> <Gold.Chemscore.Metal.Weighted>
-0.0000

> <Gold.Chemscore.Lipo.Weighted>
-12.5153

> <Gold.Chemscore.Internal_Hbond.Weighted>
0.0000

> <Gold.Chemscore.DEClash.Weighted>
0.0336

> <Gold.Chemscore.DEInternal.Weighted>
3.5097

> <Gold.Chemscore.Rot.Weighted>
8.3598

> <Gold.Chemscore.Internal.Correction.Weighted>
   9.000000E+99

> <Gold.Protein.RotatedTorsions>
[ 6907 6896 6895 6894 ] final  -56.48 input  -60.11 | X-H torsion
[ 7974 7965 7964 7962 ] final  129.84 input  175.53 | X-H torsion
[ 8008 7997 7996 7995 ] final  168.82 input   59.86 | X-H torsion
[ 10167 10162 10161 10158 ] final   99.99 input  -65.29 | X-H torsion
[ 10718 10713 10712 10709 ] final -147.90 input   66.30 | X-H torsion
[ 10763 10752 10751 10750 ] final    3.76 input  -60.55 | X-H torsion
[ 11005 11000 10999 10996 ] final   73.04 input  -57.11 | X-H torsion

> <Gold.Protein.ActiveResidues>
 VAL166  LYS551  ARG553  GLY616  TRP617  ASP618  TYR619  PRO620  LYS621  CYS622 
 ASP623  PHE694  ASN695  SER759  ASP760  ASP761  ALA762  ILE779  LEU786  VAL792 
 PHE793  MET794  SER795  GLU796  ALA797  LYS798  CYS799  TRP800  GLU811  SER814 

> <Gold.Protein.RotatedAtoms>
  150.8164  134.7348  159.6733 H   0  0  0  0  0  0  0  0  0  0  0  0  # atno 6907 bound_to 6896
  152.4283  134.5824  159.9961 H   0  0  0  0  0  0  0  0  0  0  0  0  # atno 6908 bound_to 6896
  151.6019  133.3318  159.3085 H   0  0  0  0  0  0  0  0  0  0  0  0  # atno 6909 bound_to 6896
  145.0243  139.4103  143.5182 H   0  0  0  0  0  0  0  0  0  0  0  0  # atno 7974 bound_to 7965
  156.1513  140.1580  156.8765 H   0  0  0  0  0  0  0  0  0  0  0  0  # atno 8008 bound_to 7997
  154.5073  140.0810  156.7957 H   0  0  0  0  0  0  0  0  0  0  0  0  # atno 8009 bound_to 7997
  155.3891  140.3409  155.4252 H   0  0  0  0  0  0  0  0  0  0  0  0  # atno 8010 bound_to 7997
  139.7567  144.6967  151.0352 H   0  0  0  0  0  0  0  0  0  0  0  0  # atno 10167 bound_to 10162
  156.4134  130.7993  151.2211 H   0  0  0  0  0  0  0  0  0  0  0  0  # atno 10718 bound_to 10713
  153.2794  135.6939  153.7401 H   0  0  0  0  0  0  0  0  0  0  0  0  # atno 10763 bound_to 10752
  153.6394  135.3396  155.3067 H   0  0  0  0  0  0  0  0  0  0  0  0  # atno 10764 bound_to 10752
  154.8490  135.4428  154.1842 H   0  0  0  0  0  0  0  0  0  0  0  0  # atno 10765 bound_to 10752
  139.9460  134.7312  156.0978 H   0  0  0  0  0  0  0  0  0  0  0  0  # atno 11005 bound_to 11000
  146.3490  139.9758  142.8701 LP  0  0  0  0  0  0  0  0  0  0  0  0  # atno 17320 bound_to 7965
  145.1854  140.9787  143.4242 LP  0  0  0  0  0  0  0  0  0  0  0  0  # atno 17321 bound_to 7965
  140.7803  143.4744  151.0102 LP  0  0  0  0  0  0  0  0  0  0  0  0  # atno 17342 bound_to 10162
  139.8431  143.7537  152.3180 LP  0  0  0  0  0  0  0  0  0  0  0  0  # atno 17343 bound_to 10162
  157.7507  131.0250  150.3902 LP  0  0  0  0  0  0  0  0  0  0  0  0  # atno 17370 bound_to 10713
  156.4205  130.3952  149.6828 LP  0  0  0  0  0  0  0  0  0  0  0  0  # atno 17371 bound_to 10713
  141.1110  133.6643  156.2980 LP  0  0  0  0  0  0  0  0  0  0  0  0  # atno 17394 bound_to 11000
  140.5833  134.5723  157.5484 LP  0  0  0  0  0  0  0  0  0  0  0  0  # atno 17395 bound_to 11000

$$$$
