AV-unprocessed.smi:2456|AV-procd|sdf|9700|dock3
  -GOLD-   2272013343D 1   1.00000     0.00000
 Structure written by MMmdl.
 34 35  0  0  0  0  0  0  0  0  1 V2000
  150.6310  137.4472  155.2156 C   0  0  0  0  0  0  0  0  0  0  0  0
  150.8633  138.1382  156.5700 C   0  0  2  0  0  0  0  0  0  0  0  0
  149.6918  137.8844  157.4090 N   0  0  0  0  0  0  0  0  0  0  0  0
  149.6982  137.1787  158.5501 C   0  0  0  0  0  0  0  0  0  0  0  0
  150.7070  136.6416  159.0088 O   0  0  0  0  0  0  0  0  0  0  0  0
  148.4761  137.1460  159.1094 N   0  0  0  0  0  0  0  0  0  0  0  0
  148.0792  136.5087  160.3140 C   0  0  0  0  0  0  0  0  0  0  0  0
  147.7252  137.1568  161.4301 N   0  0  0  0  0  0  0  0  0  0  0  0
  147.3808  136.2778  162.4601 C   0  0  0  0  0  0  0  0  0  0  0  0
  147.4812  134.9545  162.1089 C   0  0  0  0  0  0  0  0  0  0  0  0
  148.0127  134.7586  160.4599 S   0  0  0  0  0  0  0  0  0  0  0  0
  151.0307  139.6524  156.3123 C   0  0  0  0  0  0  0  0  0  0  0  0
  150.9712  140.0759  155.1559 O   0  0  0  0  0  0  0  0  0  0  0  0
  151.2563  140.4756  157.3590 N   0  0  0  0  0  0  0  0  0  0  0  0
  151.4171  141.9221  157.2199 C   0  0  0  0  0  0  0  0  0  0  0  0
  151.3982  142.4821  158.6422 C   0  0  0  0  0  0  0  0  0  0  0  0
  151.8728  141.3206  159.5033 C   0  0  0  0  0  0  0  0  0  0  0  0
  151.3754  140.0796  158.7623 C   0  0  0  0  0  0  0  0  0  0  0  0
  151.4814  137.5865  154.5469 H   0  0  0  0  0  0  0  0  0  0  0  0
  149.7443  137.8321  154.7093 H   0  0  0  0  0  0  0  0  0  0  0  0
  150.4949  136.3732  155.3453 H   0  0  0  0  0  0  0  0  0  0  0  0
  151.7403  137.7093  157.0557 H   0  0  0  0  0  0  0  0  0  0  0  0
  148.8212  138.2970  157.1081 H   0  0  0  0  0  0  0  0  0  0  0  0
  147.7443  137.6380  158.6182 H   0  0  0  0  0  0  0  0  0  0  0  0
  147.0749  136.6812  163.4140 H   0  0  0  0  0  0  0  0  0  0  0  0
  147.2746  134.0868  162.7175 H   0  0  0  0  0  0  0  0  0  0  0  0
  152.3750  142.1280  156.7398 H   0  0  0  0  0  0  0  0  0  0  0  0
  150.6295  142.3661  156.6092 H   0  0  0  0  0  0  0  0  0  0  0  0
  152.0163  143.3731  158.7546 H   0  0  0  0  0  0  0  0  0  0  0  0
  150.3765  142.7462  158.9182 H   0  0  0  0  0  0  0  0  0  0  0  0
  152.9632  141.3137  159.5366 H   0  0  0  0  0  0  0  0  0  0  0  0
  151.5072  141.3765  160.5290 H   0  0  0  0  0  0  0  0  0  0  0  0
  150.3927  139.7850  159.1333 H   0  0  0  0  0  0  0  0  0  0  0  0
  152.0602  139.2422  158.9018 H   0  0  0  0  0  0  0  0  0  0  0  0
  1  2  1  0  0  0  0
  1 19  1  0  0  0  0
  1 20  1  0  0  0  0
  1 21  1  0  0  0  0
  2  3  1  0  0  0  0
  2 12  1  0  0  0  0
  2 22  1  0  0  0  0
  3  4  1  0  0  0  0
  3 23  1  0  0  0  0
  4  5  2  0  0  0  0
  4  6  1  0  0  0  0
  6  7  1  0  0  0  0
  6 24  1  0  0  0  0
  7 11  1  0  0  0  0
  7  8  2  0  0  0  0
  8  9  1  0  0  0  0
  9 10  2  0  0  0  0
  9 25  1  0  0  0  0
 10 11  1  0  0  0  0
 10 26  1  0  0  0  0
 12 13  2  0  0  0  0
 12 14  1  0  0  0  0
 14 18  1  0  0  0  0
 14 15  1  0  0  0  0
 15 16  1  0  0  0  0
 15 27  1  0  0  0  0
 15 28  1  0  0  0  0
 16 17  1  0  0  0  0
 16 29  1  0  0  0  0
 16 30  1  0  0  0  0
 17 18  1  0  0  0  0
 17 31  1  0  0  0  0
 17 32  1  0  0  0  0
 18 33  1  0  0  0  0
 18 34  1  0  0  0  0
M  END
> <s_m_source_file>
AV-unprocessed.smi

> <i_m_source_file_index>
2456

> <i_lp_mmshare_version>
43012

> <i_f3d_flags>
0

> <s_epik_input>
W0NIMl0xW0NIMl1bQ0gyXVtDSDJdTjFDKD1PKVtDQEhdKFtDSDNdKVtOSF1DKD1PKVtOSF1jMm5bY0hdW2NIXXMy

> <s_epik_cmdline>
J2VwaWtfcHl0aG9uJywgJy1waCcsICc3LjAnLCAnLXRuJywgJzgnLCAnLW1hJywgJzIwMCcsICctbWV0YWxfYmluZGluZycsICctaW1hZScsICc8aW5maWxlLm1hZT4nLCAnLW9tYWUnLCAnPG91dGZpbGUubWFlPic=

> <r_lp_tautomer_probability>
1

> <r_epik_Ionization_Penalty>
0.000150201

> <r_epik_Ionization_Penalty_Charging>
0

> <r_epik_Ionization_Penalty_Neutral>
0.000150201

> <r_epik_State_Penalty>
-0

> <r_epik_Charging_Adjusted_Penalty>
0

> <i_epik_Tot_Q>
0

> <i_epik_Tot_abs_Q>
0

> <r_epik_Metal_State_Penalty>
0.0705602

> <b_epik_Metal_Only>
0

> <s_lp_Force_Field>
OPLS_2005

> <r_lp_Energy>
26.5881

> <b_lp_Chiralities_Consistent>
1

> <s_lp_Variant>
AV-unprocessed.smi:2456-1

> <Gold.Version>
5.8.1

> <Gold.Id.Protein>
6NUR|6NUR_protein|mol2

> <Gold.PLP.Fitness>
40.5420

> <Gold.PLP.PLP>
-30.6146

> <Gold.PLP.part.hbond>
-4.0000

> <Gold.PLP.part.metal>
0.0000

> <Gold.PLP.part.buried>
-5.2564

> <Gold.PLP.part.nonpolar>
-20.8983

> <Gold.PLP.part.repulsive>
0.2532

> <Gold.PLP.ligand.clash>
0.0000

> <Gold.PLP.ligand.torsion>
0.6939

> <Gold.PLP.Chemscore.Hbond>
3.7680

> <Gold.PLP.Chemscore.CHOScore>
0.0000

> <Gold.PLP.Chemscore.Metal>
0.0000

> <Gold.Chemscore.Hbonds>
donor molecule, donor type, donor heavy atom, donor atom, acceptor molecule, acceptor atom, score
      P1  H  6896  6909       L1     5  1.00
      P1  H  6931  6943       L1     8  1.00
      P1  H  6934  6947       L1     8  0.78
      P1  H  7989  7998       L1    13  1.00

> <Gold.PLP.Chemscore.Internal.Correction>
0.0112

> <Gold.Rescore>
     Score         DG    S(hbond)    S(metal)    S(lipo)     H(rot)  DE(clash)    DE(int)     intcor
     19.14     -19.96       3.18        0.00      62.35       1.34       0.10       0.72       ----

> <Gold.Chemscore.Fitness>
19.1416

> <Gold.Chemscore.DG>
-19.9614

> <Gold.Chemscore.ZeroCoef>
-5.4800

> <Gold.Chemscore.Hbond>
3.1825

> <Gold.Chemscore.Metal>
0.0000

> <Gold.Chemscore.Lipo>
62.3458

> <Gold.Chemscore.Internal_Hbond>
0.0000

> <Gold.Chemscore.DEClash>
0.1007

> <Gold.Chemscore.DEInternal>
0.7191

> <Gold.Chemscore.Rot>
1.3448

> <Gold.Chemscore.Internal.Correction>
   9.000000E+99

> <Gold.Chemscore.Hbonds>
donor molecule, donor type, donor heavy atom, donor atom, acceptor molecule, acceptor atom, score
      P1  H  6896  6909       L1     5  0.95
      P1  H  6931  6943       L1     8  0.55
      P1  H  6934  6947       L1     8  0.52
      P1  H  7989  7998       L1    13  0.99

> <Gold.Chemscore.Hbond.Weighted>
-10.6297

> <Gold.Chemscore.Metal.Weighted>
-0.0000

> <Gold.Chemscore.Lipo.Weighted>
-7.2945

> <Gold.Chemscore.Internal_Hbond.Weighted>
0.0000

> <Gold.Chemscore.DEClash.Weighted>
0.1007

> <Gold.Chemscore.DEInternal.Weighted>
0.7191

> <Gold.Chemscore.Rot.Weighted>
3.4427

> <Gold.Chemscore.Internal.Correction.Weighted>
   9.000000E+99

> <Gold.Protein.RotatedTorsions>
[ 6907 6896 6895 6894 ] final   77.95 input  -60.11 | X-H torsion
[ 7974 7965 7964 7962 ] final  124.47 input  175.53 | X-H torsion
[ 8008 7997 7996 7995 ] final  -41.78 input   59.86 | X-H torsion
[ 10167 10162 10161 10158 ] final  -61.27 input  -65.29 | X-H torsion
[ 10718 10713 10712 10709 ] final   -1.60 input   66.30 | X-H torsion
[ 10763 10752 10751 10750 ] final  -98.22 input  -60.55 | X-H torsion
[ 11005 11000 10999 10996 ] final  155.41 input  -57.11 | X-H torsion

> <Gold.Protein.ActiveResidues>
 VAL166  LYS551  ARG553  GLY616  TRP617  ASP618  TYR619  PRO620  LYS621  CYS622 
 ASP623  PHE694  ASN695  SER759  ASP760  ASP761  ALA762  ILE779  LEU786  VAL792 
 PHE793  MET794  SER795  GLU796  ALA797  LYS798  CYS799  TRP800  GLU811  SER814 

> <Gold.Protein.RotatedAtoms>
  152.5139  134.3738  159.9327 H   0  0  0  0  0  0  0  0  0  0  0  0  # atno 6907 bound_to 6896
  151.3694  133.3854  159.2706 H   0  0  0  0  0  0  0  0  0  0  0  0  # atno 6908 bound_to 6896
  150.9590  134.9000  159.7777 H   0  0  0  0  0  0  0  0  0  0  0  0  # atno 6909 bound_to 6896
  145.0840  139.3635  143.4894 H   0  0  0  0  0  0  0  0  0  0  0  0  # atno 7974 bound_to 7965
  154.4002  140.1490  156.3246 H   0  0  0  0  0  0  0  0  0  0  0  0  # atno 8008 bound_to 7997
  155.8498  140.3458  155.5665 H   0  0  0  0  0  0  0  0  0  0  0  0  # atno 8009 bound_to 7997
  155.7996  140.0868  157.1955 H   0  0  0  0  0  0  0  0  0  0  0  0  # atno 8010 bound_to 7997
  140.6017  143.2363  151.5913 H   0  0  0  0  0  0  0  0  0  0  0  0  # atno 10167 bound_to 10162
  156.8032  130.5400  149.5719 H   0  0  0  0  0  0  0  0  0  0  0  0  # atno 10718 bound_to 10713
  154.7396  135.5017  153.9099 H   0  0  0  0  0  0  0  0  0  0  0  0  # atno 10763 bound_to 10752
  153.1029  135.6690  153.9647 H   0  0  0  0  0  0  0  0  0  0  0  0  # atno 10764 bound_to 10752
  153.9428  135.3066  155.3421 H   0  0  0  0  0  0  0  0  0  0  0  0  # atno 10765 bound_to 10752
  140.1579  134.8630  157.2537 H   0  0  0  0  0  0  0  0  0  0  0  0  # atno 11005 bound_to 11000
  146.3531  140.0644  142.8627 LP  0  0  0  0  0  0  0  0  0  0  0  0  # atno 17320 bound_to 7965
  145.1144  140.9424  143.4637 LP  0  0  0  0  0  0  0  0  0  0  0  0  # atno 17321 bound_to 7965
  139.5296  144.2956  152.1116 LP  0  0  0  0  0  0  0  0  0  0  0  0  # atno 17342 bound_to 10162
  140.2138  144.4536  150.6373 LP  0  0  0  0  0  0  0  0  0  0  0  0  # atno 17343 bound_to 10162
  156.1089  130.6025  151.0015 LP  0  0  0  0  0  0  0  0  0  0  0  0  # atno 17370 bound_to 10713
  157.6543  131.0892  150.7982 LP  0  0  0  0  0  0  0  0  0  0  0  0  # atno 17371 bound_to 10713
  140.2525  134.3666  155.7437 LP  0  0  0  0  0  0  0  0  0  0  0  0  # atno 17394 bound_to 11000
  141.2206  133.7324  156.8957 LP  0  0  0  0  0  0  0  0  0  0  0  0  # atno 17395 bound_to 11000

$$$$
