AV-unprocessed.smi:1029|AV-procd|sdf|4475|dock5
  -GOLD-   22720 2453D 1   1.00000     0.00000
 Structure written by MMmdl.
 46 47  0  0  0  0  0  0  0  0  2 V2000
  152.1478  144.7215  159.5583 C   0  0  0  0  0  0  0  0  0  0  0  0
  152.0334  143.2744  159.1796 C   0  0  0  0  0  0  0  0  0  0  0  0
  151.4816  142.7118  157.9947 C   0  0  0  0  0  0  0  0  0  0  0  0
  151.6470  141.3668  158.1927 C   0  0  0  0  0  0  0  0  0  0  0  0
  151.2913  140.3421  157.3745 N   0  0  0  0  0  0  0  0  0  0  0  0
  151.1931  139.0312  157.6570 C   0  0  0  0  0  0  0  0  0  0  0  0
  151.3938  138.5194  158.7588 O   0  0  0  0  0  0  0  0  0  0  0  0
  150.8378  138.3277  156.5721 N   0  0  0  0  0  0  0  0  0  0  0  0
  150.6524  136.8808  156.5366 C   0  0  0  0  0  0  0  0  0  0  0  0
  150.2945  136.3798  155.1224 C   0  0  1  0  0  0  0  0  0  0  0  0
  151.4351  136.5058  154.2950 O   0  0  0  0  0  0  0  0  0  0  0  0
  149.8995  134.8884  155.1331 C   0  0  0  0  0  0  0  0  0  0  0  0
  148.8270  134.5745  154.1534 N   0  3  2  0  0  0  0  0  0  0  0  0
  147.4682  134.9580  154.6208 C   0  0  0  0  0  0  0  0  0  0  0  0
  146.4198  134.7374  153.5174 C   0  0  0  0  0  0  0  0  0  0  0  0
  146.4250  133.2811  153.0230 C   0  0  1  0  0  0  0  0  0  0  0  0
  145.4041  133.0586  151.8983 C   0  0  0  0  0  0  0  0  0  0  0  0
  147.8487  132.9019  152.5827 C   0  0  0  0  0  0  0  0  0  0  0  0
  148.8684  133.1590  153.7049 C   0  0  0  0  0  0  0  0  0  0  0  0
  152.2363  141.1148  159.3866 O   0  0  0  0  0  0  0  0  0  0  0  0
  152.4824  142.3440  160.0093 N   0  0  0  0  0  0  0  0  0  0  0  0
  151.7874  145.3676  158.7577 H   0  0  0  0  0  0  0  0  0  0  0  0
  153.1836  144.9938  159.7628 H   0  0  0  0  0  0  0  0  0  0  0  0
  151.5620  144.9412  160.4513 H   0  0  0  0  0  0  0  0  0  0  0  0
  151.0425  143.2268  157.1539 H   0  0  0  0  0  0  0  0  0  0  0  0
  151.0693  140.6100  156.4272 H   0  0  0  0  0  0  0  0  0  0  0  0
  150.6866  138.8286  155.7086 H   0  0  0  0  0  0  0  0  0  0  0  0
  151.5173  136.3532  156.9434 H   0  0  0  0  0  0  0  0  0  0  0  0
  149.8260  136.6683  157.2157 H   0  0  0  0  0  0  0  0  0  0  0  0
  149.4854  136.9852  154.7146 H   0  0  0  0  0  0  0  0  0  0  0  0
  151.1878  136.3092  153.4040 H   0  0  0  0  0  0  0  0  0  0  0  0
  150.7885  134.2953  154.9117 H   0  0  0  0  0  0  0  0  0  0  0  0
  149.5735  134.5830  156.1285 H   0  0  0  0  0  0  0  0  0  0  0  0
  147.2078  134.3753  155.5059 H   0  0  0  0  0  0  0  0  0  0  0  0
  147.4490  136.0058  154.9181 H   0  0  0  0  0  0  0  0  0  0  0  0
  145.4307  135.0005  153.8938 H   0  0  0  0  0  0  0  0  0  0  0  0
  146.6216  135.4125  152.6843 H   0  0  0  0  0  0  0  0  0  0  0  0
  146.1440  132.6372  153.8579 H   0  0  0  0  0  0  0  0  0  0  0  0
  145.6305  133.6746  151.0274 H   0  0  0  0  0  0  0  0  0  0  0  0
  144.3955  133.3079  152.2290 H   0  0  0  0  0  0  0  0  0  0  0  0
  145.3962  132.0169  151.5762 H   0  0  0  0  0  0  0  0  0  0  0  0
  147.8827  131.8518  152.2902 H   0  0  0  0  0  0  0  0  0  0  0  0
  148.1286  133.4776  151.6992 H   0  0  0  0  0  0  0  0  0  0  0  0
  149.8670  132.9171  153.3385 H   0  0  0  0  0  0  0  0  0  0  0  0
  148.6728  132.5003  154.5526 H   0  0  0  0  0  0  0  0  0  0  0  0
  149.0252  135.1328  153.3349 H   0  0  0  0  0  0  0  0  0  0  0  0
  1  2  1  0  0  0  0
  1 22  1  0  0  0  0
  1 23  1  0  0  0  0
  1 24  1  0  0  0  0
  2 21  2  0  0  0  0
  2  3  1  0  0  0  0
  3  4  2  0  0  0  0
  3 25  1  0  0  0  0
  4  5  1  0  0  0  0
  4 20  1  0  0  0  0
  5  6  1  0  0  0  0
  5 26  1  0  0  0  0
  6  7  2  0  0  0  0
  6  8  1  0  0  0  0
  8  9  1  0  0  0  0
  8 27  1  0  0  0  0
  9 10  1  0  0  0  0
  9 28  1  0  0  0  0
  9 29  1  0  0  0  0
 10 11  1  0  0  0  0
 10 12  1  0  0  0  0
 10 30  1  0  0  0  0
 11 31  1  0  0  0  0
 12 13  1  0  0  0  0
 12 32  1  0  0  0  0
 12 33  1  0  0  0  0
 13 19  1  0  0  0  0
 13 14  1  0  0  0  0
 13 46  1  0  0  0  0
 14 15  1  0  0  0  0
 14 34  1  0  0  0  0
 14 35  1  0  0  0  0
 15 16  1  0  0  0  0
 15 36  1  0  0  0  0
 15 37  1  0  0  0  0
 16 17  1  0  0  0  0
 16 18  1  0  0  0  0
 16 38  1  0  0  0  0
 17 39  1  0  0  0  0
 17 40  1  0  0  0  0
 17 41  1  0  0  0  0
 18 19  1  0  0  0  0
 18 42  1  0  0  0  0
 18 43  1  0  0  0  0
 19 44  1  0  0  0  0
 19 45  1  0  0  0  0
 20 21  1  0  0  0  0
M  CHG  1  13   1
M  END
> <s_m_source_file>
AV-unprocessed.smi

> <i_m_source_file_index>
1029

> <i_lp_mmshare_version>
43012

> <i_f3d_flags>
0

> <s_epik_input>
W0NIM11jMVtjSF1jKG9uMSlbTkhdQyg9TylbTkhdW0NIMl1bQ0BIXShbT0hdKVtDSDJdTjJbQ0gyXVtDSDJdW0NIXShbQ0gzXSlbQ0gyXVtDSDJdMg==

> <s_epik_cmdline>
J2VwaWtfcHl0aG9uJywgJy1waCcsICc3LjAnLCAnLXRuJywgJzgnLCAnLW1hJywgJzIwMCcsICctbWV0YWxfYmluZGluZycsICctaW1hZScsICc8aW5maWxlLm1hZT4nLCAnLW9tYWUnLCAnPG91dGZpbGUubWFlPic=

> <r_lp_tautomer_probability>
1

> <r_epik_Ionization_Penalty>
0.00211787

> <r_epik_Ionization_Penalty_Charging>
0.00153238

> <r_epik_Ionization_Penalty_Neutral>
0.000585488

> <r_epik_State_Penalty>
-0

> <r_epik_Charging_Adjusted_Penalty>
0.00153238

> <i_epik_Tot_Q>
1

> <i_epik_Tot_abs_Q>
1

> <r_epik_Metal_State_Penalty>
-0

> <b_epik_Metal_Only>
0

> <s_lp_Force_Field>
OPLS_2005

> <r_lp_Energy>
20.5913

> <b_lp_Chiralities_Consistent>
1

> <s_lp_Variant>
AV-unprocessed.smi:1029-2

> <Gold.Version>
5.8.1

> <Gold.Id.Protein>
6NUR|6NUR_protein|mol2

> <Gold.PLP.Fitness>
44.5451

> <Gold.PLP.PLP>
-34.0808

> <Gold.PLP.part.hbond>
-3.0000

> <Gold.PLP.part.metal>
0.0000

> <Gold.PLP.part.buried>
-6.0724

> <Gold.PLP.part.nonpolar>
-25.1760

> <Gold.PLP.part.repulsive>
0.1162

> <Gold.PLP.ligand.clash>
0.0000

> <Gold.PLP.ligand.torsion>
0.8231

> <Gold.PLP.Chemscore.Hbond>
4.0000

> <Gold.PLP.Chemscore.CHOScore>
0.0000

> <Gold.PLP.Chemscore.Metal>
0.0000

> <Gold.Chemscore.Hbonds>
donor molecule, donor type, donor heavy atom, donor atom, acceptor molecule, acceptor atom, score
      L1  H    11    31       P1  7949  1.00
      L1  H    13    46       P1  7948  2.00
      P1  H 10752 10765       L1    11  1.00

> <Gold.PLP.Chemscore.Internal.Correction>
0.1104

> <Gold.Rescore>
     Score         DG    S(hbond)    S(metal)    S(lipo)     H(rot)  DE(clash)    DE(int)     intcor
     13.73     -16.12       2.62        0.00      69.98       2.46       0.00       2.39       ----

> <Gold.Chemscore.Fitness>
13.7275

> <Gold.Chemscore.DG>
-16.1235

> <Gold.Chemscore.ZeroCoef>
-5.4800

> <Gold.Chemscore.Hbond>
2.6227

> <Gold.Chemscore.Metal>
0.0000

> <Gold.Chemscore.Lipo>
69.9785

> <Gold.Chemscore.Internal_Hbond>
0.0000

> <Gold.Chemscore.DEClash>
0.0015

> <Gold.Chemscore.DEInternal>
2.3945

> <Gold.Chemscore.Rot>
2.4624

> <Gold.Chemscore.Internal.Correction>
   9.000000E+99

> <Gold.Chemscore.Hbonds>
donor molecule, donor type, donor heavy atom, donor atom, acceptor molecule, acceptor atom, score
      L1  H    11    31       P1  7949  0.44
      L1  H    13    46       P1  7948  0.35
      P1  H 10752 10765       L1    11  0.35

> <Gold.Chemscore.Hbond.Weighted>
-8.7597

> <Gold.Chemscore.Metal.Weighted>
-0.0000

> <Gold.Chemscore.Lipo.Weighted>
-8.1875

> <Gold.Chemscore.Internal_Hbond.Weighted>
0.0000

> <Gold.Chemscore.DEClash.Weighted>
0.0015

> <Gold.Chemscore.DEInternal.Weighted>
2.3945

> <Gold.Chemscore.Rot.Weighted>
6.3037

> <Gold.Chemscore.Internal.Correction.Weighted>
   9.000000E+99

> <Gold.Protein.RotatedTorsions>
[ 6907 6896 6895 6894 ] final   93.65 input  -60.11 | X-H torsion
[ 7974 7965 7964 7962 ] final -141.81 input  175.53 | X-H torsion
[ 8008 7997 7996 7995 ] final    6.25 input   59.86 | X-H torsion
[ 10167 10162 10161 10158 ] final   54.45 input  -65.29 | X-H torsion
[ 10718 10713 10712 10709 ] final   54.03 input   66.30 | X-H torsion
[ 10763 10752 10751 10750 ] final  173.72 input  -60.55 | X-H torsion
[ 11005 11000 10999 10996 ] final  112.41 input  -57.11 | X-H torsion

> <Gold.Protein.ActiveResidues>
 VAL166  LYS551  ARG553  GLY616  TRP617  ASP618  TYR619  PRO620  LYS621  CYS622 
 ASP623  PHE694  ASN695  SER759  ASP760  ASP761  ALA762  ILE779  LEU786  VAL792 
 PHE793  MET794  SER795  GLU796  ALA797  LYS798  CYS799  TRP800  GLU811  SER814 

> <Gold.Protein.RotatedAtoms>
  152.5452  134.1315  159.8440 H   0  0  0  0  0  0  0  0  0  0  0  0  # atno 6907 bound_to 6896
  151.1360  133.4996  159.2605 H   0  0  0  0  0  0  0  0  0  0  0  0  # atno 6908 bound_to 6896
  151.1624  135.0289  159.8770 H   0  0  0  0  0  0  0  0  0  0  0  0  # atno 6909 bound_to 6896
  144.8491  140.6035  143.5402 H   0  0  0  0  0  0  0  0  0  0  0  0  # atno 7974 bound_to 7965
  154.7387  140.2744  155.6392 H   0  0  0  0  0  0  0  0  0  0  0  0  # atno 8008 bound_to 7997
  156.2868  140.2701  156.2033 H   0  0  0  0  0  0  0  0  0  0  0  0  # atno 8009 bound_to 7997
  155.0287  140.0371  157.2455 H   0  0  0  0  0  0  0  0  0  0  0  0  # atno 8010 bound_to 7997
  140.2300  144.3697  150.6418 H   0  0  0  0  0  0  0  0  0  0  0  0  # atno 10167 bound_to 10162
  157.5220  130.8571  149.8572 H   0  0  0  0  0  0  0  0  0  0  0  0  # atno 10718 bound_to 10713
  154.4440  135.2763  155.1828 H   0  0  0  0  0  0  0  0  0  0  0  0  # atno 10763 bound_to 10752
  154.3683  135.6114  153.5730 H   0  0  0  0  0  0  0  0  0  0  0  0  # atno 10764 bound_to 10752
  152.9842  135.5851  154.4772 H   0  0  0  0  0  0  0  0  0  0  0  0  # atno 10765 bound_to 10752
  139.8927  134.9529  156.6581 H   0  0  0  0  0  0  0  0  0  0  0  0  # atno 11005 bound_to 11000
  145.4536  139.1520  143.3905 LP  0  0  0  0  0  0  0  0  0  0  0  0  # atno 17320 bound_to 7965
  146.2770  140.4663  142.8791 LP  0  0  0  0  0  0  0  0  0  0  0  0  # atno 17321 bound_to 7965
  140.6192  143.2175  151.6729 LP  0  0  0  0  0  0  0  0  0  0  0  0  # atno 17342 bound_to 10162
  139.5113  144.3512  152.0650 LP  0  0  0  0  0  0  0  0  0  0  0  0  # atno 17343 bound_to 10162
  156.0360  130.3751  150.1559 LP  0  0  0  0  0  0  0  0  0  0  0  0  # atno 17370 bound_to 10713
  156.9746  130.9845  151.3451 LP  0  0  0  0  0  0  0  0  0  0  0  0  # atno 17371 bound_to 10713
  140.7468  133.8931  155.8318 LP  0  0  0  0  0  0  0  0  0  0  0  0  # atno 17394 bound_to 11000
  141.0033  134.1121  157.4296 LP  0  0  0  0  0  0  0  0  0  0  0  0  # atno 17395 bound_to 11000

$$$$
