AV-unprocessed.smi:284|AV-procd|sdf|2164|dock9
  -GOLD-   2262021523D 1   1.00000     0.00000
 Structure written by MMmdl.
 60 62  0  0  0  0  0  0  0  0  1 V2000
  147.0305  139.4579  151.2539 C   0  0  0  0  0  0  0  0  0  0  0  0
  146.5122  138.6595  152.4398 C   0  0  0  0  0  0  0  0  0  0  0  0
  145.9598  137.4327  152.2949 C   0  0  0  0  0  0  0  0  0  0  0  0
  145.4808  136.6810  153.3530 N   0  0  0  0  0  0  0  0  0  0  0  0
  144.8605  135.3137  153.1568 C   0  0  1  0  0  0  0  0  0  0  0  0
  143.8353  135.3454  152.0126 C   0  0  0  0  0  0  0  0  0  0  0  0
  144.1770  134.0988  151.2189 C   0  0  2  0  0  0  0  0  0  0  0  0
  143.4517  132.9839  151.7033 O   0  0  0  0  0  0  0  0  0  0  0  0
  145.6840  133.9646  151.4661 C   0  0  2  0  0  0  0  0  0  0  0  0
  146.3109  132.5796  151.2289 C   0  0  0  0  0  0  0  0  0  0  0  0
  147.6378  132.5564  151.7099 O   0  0  0  0  0  0  0  0  0  0  0  0
  145.8485  134.3830  152.8176 O   0  0  0  0  0  0  0  0  0  0  0  0
  145.5443  137.2007  154.6613 C   0  0  0  0  0  0  0  0  0  0  0  0
  145.1132  136.5526  155.6179 O   0  0  0  0  0  0  0  0  0  0  0  0
  146.1128  138.4807  154.8467 N   0  0  0  0  0  0  0  0  0  0  0  0
  146.2047  139.0163  156.2233 C   0  0  0  0  0  0  0  0  0  0  0  0
  147.5987  139.5614  156.5714 C   0  0  0  0  0  0  0  0  0  0  0  0
  148.6062  138.9106  156.2927 O   0  0  0  0  0  0  0  0  0  0  0  0
  147.6072  140.7780  157.1465 N   0  0  0  0  0  0  0  0  0  0  0  0
  148.7092  141.5504  157.6075 C   0  0  0  0  0  0  0  0  0  0  0  0
  148.4122  142.7035  158.3598 C   0  0  0  0  0  0  0  0  0  0  0  0
  149.4420  143.5152  158.8727 C   0  0  0  0  0  0  0  0  0  0  0  0
  150.8023  143.1881  158.6512 C   0  0  0  0  0  0  0  0  0  0  0  0
  151.9585  144.0479  159.1975 C   0  0  0  0  0  0  0  0  0  0  0  0
  152.8263  144.5569  158.0271 C   0  0  0  0  0  0  0  0  0  0  0  0
  152.8841  143.2718  160.1618 C   0  0  0  0  0  0  0  0  0  0  0  0
  151.3850  145.2549  159.9686 C   0  0  0  0  0  0  0  0  0  0  0  0
  151.0925  142.0234  157.9024 C   0  0  0  0  0  0  0  0  0  0  0  0
  150.0645  141.2092  157.3902 C   0  0  0  0  0  0  0  0  0  0  0  0
  146.6225  139.2532  153.7745 C   0  0  0  0  0  0  0  0  0  0  0  0
  147.1298  140.3571  153.9812 O   0  0  0  0  0  0  0  0  0  0  0  0
  146.8906  138.9256  150.3127 H   0  0  0  0  0  0  0  0  0  0  0  0
  148.0962  139.6593  151.3672 H   0  0  0  0  0  0  0  0  0  0  0  0
  146.5064  140.4113  151.1783 H   0  0  0  0  0  0  0  0  0  0  0  0
  145.8966  137.0333  151.2945 H   0  0  0  0  0  0  0  0  0  0  0  0
  144.4384  135.0253  154.1208 H   0  0  0  0  0  0  0  0  0  0  0  0
  142.8137  135.3715  152.3940 H   0  0  0  0  0  0  0  0  0  0  0  0
  144.0012  136.2316  151.3975 H   0  0  0  0  0  0  0  0  0  0  0  0
  143.9522  134.2198  150.1588 H   0  0  0  0  0  0  0  0  0  0  0  0
  143.2223  132.4326  150.9709 H   0  0  0  0  0  0  0  0  0  0  0  0
  146.1995  134.6951  150.8404 H   0  0  0  0  0  0  0  0  0  0  0  0
  145.7425  131.8198  151.7659 H   0  0  0  0  0  0  0  0  0  0  0  0
  146.2933  132.3018  150.1752 H   0  0  0  0  0  0  0  0  0  0  0  0
  148.1530  132.0009  151.1450 H   0  0  0  0  0  0  0  0  0  0  0  0
  145.4771  139.8112  156.3923 H   0  0  0  0  0  0  0  0  0  0  0  0
  145.9276  138.2502  156.9499 H   0  0  0  0  0  0  0  0  0  0  0  0
  146.7057  141.2239  157.2343 H   0  0  0  0  0  0  0  0  0  0  0  0
  147.3836  142.9756  158.5475 H   0  0  0  0  0  0  0  0  0  0  0  0
  149.1540  144.3874  159.4379 H   0  0  0  0  0  0  0  0  0  0  0  0
  153.6675  145.1509  158.3861 H   0  0  0  0  0  0  0  0  0  0  0  0
  152.2627  145.1878  157.3399 H   0  0  0  0  0  0  0  0  0  0  0  0
  153.2353  143.7269  157.4498 H   0  0  0  0  0  0  0  0  0  0  0  0
  153.3488  142.4149  159.6725 H   0  0  0  0  0  0  0  0  0  0  0  0
  152.3437  142.9110  161.0379 H   0  0  0  0  0  0  0  0  0  0  0  0
  153.6930  143.9054  160.5278 H   0  0  0  0  0  0  0  0  0  0  0  0
  152.1802  145.8740  160.3852 H   0  0  0  0  0  0  0  0  0  0  0  0
  150.7556  144.9296  160.7979 H   0  0  0  0  0  0  0  0  0  0  0  0
  150.7796  145.8993  159.3309 H   0  0  0  0  0  0  0  0  0  0  0  0
  152.1165  141.7368  157.7163 H   0  0  0  0  0  0  0  0  0  0  0  0
  150.3472  140.3221  156.8462 H   0  0  0  0  0  0  0  0  0  0  0  0
  1  2  1  0  0  0  0
  1 32  1  0  0  0  0
  1 33  1  0  0  0  0
  1 34  1  0  0  0  0
  2 30  1  0  0  0  0
  2  3  2  0  0  0  0
  3  4  1  0  0  0  0
  3 35  1  0  0  0  0
  4  5  1  0  0  0  0
  4 13  1  0  0  0  0
  5 12  1  0  0  0  0
  5  6  1  0  0  0  0
  5 36  1  0  0  0  0
  6  7  1  0  0  0  0
  6 37  1  0  0  0  0
  6 38  1  0  0  0  0
  7  8  1  0  0  0  0
  7  9  1  0  0  0  0
  7 39  1  0  0  0  0
  8 40  1  0  0  0  0
  9 10  1  0  0  0  0
  9 12  1  0  0  0  0
  9 41  1  0  0  0  0
 10 11  1  0  0  0  0
 10 42  1  0  0  0  0
 10 43  1  0  0  0  0
 11 44  1  0  0  0  0
 13 14  2  0  0  0  0
 13 15  1  0  0  0  0
 15 16  1  0  0  0  0
 15 30  1  0  0  0  0
 16 17  1  0  0  0  0
 16 45  1  0  0  0  0
 16 46  1  0  0  0  0
 17 18  2  0  0  0  0
 17 19  1  0  0  0  0
 19 20  1  0  0  0  0
 19 47  1  0  0  0  0
 20 29  1  0  0  0  0
 20 21  2  0  0  0  0
 21 22  1  0  0  0  0
 21 48  1  0  0  0  0
 22 23  2  0  0  0  0
 22 49  1  0  0  0  0
 23 24  1  0  0  0  0
 23 28  1  0  0  0  0
 24 25  1  0  0  0  0
 24 26  1  0  0  0  0
 24 27  1  0  0  0  0
 25 50  1  0  0  0  0
 25 51  1  0  0  0  0
 25 52  1  0  0  0  0
 26 53  1  0  0  0  0
 26 54  1  0  0  0  0
 26 55  1  0  0  0  0
 27 56  1  0  0  0  0
 27 57  1  0  0  0  0
 27 58  1  0  0  0  0
 28 29  2  0  0  0  0
 28 59  1  0  0  0  0
 29 60  1  0  0  0  0
 30 31  2  0  0  0  0
M  END
> <s_m_source_file>
AV-unprocessed.smi

> <i_m_source_file_index>
284

> <i_lp_mmshare_version>
43012

> <i_f3d_flags>
0

> <s_epik_input>
W09IXVtDSDJdW0NAQEhdKE8xKVtDQEhdKFtPSF0pW0NIMl1bQ0BIXTFuKFtjSF1jMltDSDNdKWMoPU8pbihjMj1PKVtDSDJdQyg9TylbTkhdYzNbY0hdW2NIXWMoQyhbQ0gzXSkoW0NIM10pW0NIM10pW2NIXVtjSF0z

> <s_epik_cmdline>
J2VwaWtfcHl0aG9uJywgJy1waCcsICc3LjAnLCAnLXRuJywgJzgnLCAnLW1hJywgJzIwMCcsICctbWV0YWxfYmluZGluZycsICctaW1hZScsICc8aW5maWxlLm1hZT4nLCAnLW9tYWUnLCAnPG91dGZpbGUubWFlPic=

> <r_lp_tautomer_probability>
1

> <r_epik_Ionization_Penalty>
4.92358e-06

> <r_epik_Ionization_Penalty_Charging>
1.29777e-07

> <r_epik_Ionization_Penalty_Neutral>
4.79381e-06

> <r_epik_State_Penalty>
-0

> <r_epik_Charging_Adjusted_Penalty>
1.29777e-07

> <i_epik_Tot_Q>
0

> <i_epik_Tot_abs_Q>
0

> <r_epik_Metal_State_Penalty>
-0

> <b_epik_Metal_Only>
0

> <s_epik_Chemistry_Notes>
This compound contains an acetal/aminal-like group ( X-CH(R)-Y where X, Y are N, S, or O) that may be acid/base labile, releasing an aldehyde.

> <s_lp_Force_Field>
OPLS_2005

> <r_lp_Energy>
40.7373

> <b_lp_Chiralities_Consistent>
1

> <s_lp_Variant>
AV-unprocessed.smi:284-8

> <Gold.Version>
5.8.1

> <Gold.Id.Protein>
6NUR|6NUR_protein|mol2

> <Gold.PLP.Fitness>
48.7185

> <Gold.PLP.PLP>
-46.0446

> <Gold.PLP.part.hbond>
-1.0000

> <Gold.PLP.part.metal>
0.0000

> <Gold.PLP.part.buried>
-5.5934

> <Gold.PLP.part.nonpolar>
-40.8234

> <Gold.PLP.part.repulsive>
0.2773

> <Gold.PLP.ligand.clash>
0.0012

> <Gold.PLP.ligand.torsion>
0.5698

> <Gold.PLP.Chemscore.Hbond>
1.0000

> <Gold.PLP.Chemscore.CHOScore>
0.2579

> <Gold.PLP.Chemscore.Metal>
0.0000

> <Gold.Chemscore.Hbonds>
donor molecule, donor type, donor heavy atom, donor atom, acceptor molecule, acceptor atom, score
      L1  H    11    44       P1 10747  1.00

> <Gold.PLP.Chemscore.Internal.Correction>
0.0412

> <Gold.Rescore>
     Score         DG    S(hbond)    S(metal)    S(lipo)     H(rot)  DE(clash)    DE(int)     intcor
     11.27     -15.83       1.00        0.00     131.62       3.27       1.36       3.20       ----

> <Gold.Chemscore.Fitness>
11.2739

> <Gold.Chemscore.DG>
-15.8319

> <Gold.Chemscore.ZeroCoef>
-5.4800

> <Gold.Chemscore.Hbond>
0.9978

> <Gold.Chemscore.Metal>
0.0000

> <Gold.Chemscore.Lipo>
131.6172

> <Gold.Chemscore.Internal_Hbond>
0.0000

> <Gold.Chemscore.DEClash>
1.3569

> <Gold.Chemscore.DEInternal>
3.2011

> <Gold.Chemscore.Rot>
3.2735

> <Gold.Chemscore.Internal.Correction>
   9.000000E+99

> <Gold.Chemscore.Hbonds>
donor molecule, donor type, donor heavy atom, donor atom, acceptor molecule, acceptor atom, score
      L1  H    11    44       P1 10747  1.00

> <Gold.Chemscore.Hbond.Weighted>
-3.3327

> <Gold.Chemscore.Metal.Weighted>
-0.0000

> <Gold.Chemscore.Lipo.Weighted>
-15.3992

> <Gold.Chemscore.Internal_Hbond.Weighted>
0.0000

> <Gold.Chemscore.DEClash.Weighted>
1.3569

> <Gold.Chemscore.DEInternal.Weighted>
3.2011

> <Gold.Chemscore.Rot.Weighted>
8.3801

> <Gold.Chemscore.Internal.Correction.Weighted>
   9.000000E+99

> <Gold.Protein.RotatedTorsions>
[ 6907 6896 6895 6894 ] final  174.55 input  -60.11 | X-H torsion
[ 7974 7965 7964 7962 ] final -170.07 input  175.53 | X-H torsion
[ 8008 7997 7996 7995 ] final  142.05 input   59.86 | X-H torsion
[ 10167 10162 10161 10158 ] final -122.04 input  -65.29 | X-H torsion
[ 10718 10713 10712 10709 ] final  -51.92 input   66.30 | X-H torsion
[ 10763 10752 10751 10750 ] final  175.74 input  -60.55 | X-H torsion
[ 11005 11000 10999 10996 ] final  -10.45 input  -57.11 | X-H torsion

> <Gold.Protein.ActiveResidues>
 VAL166  LYS551  ARG553  GLY616  TRP617  ASP618  TYR619  PRO620  LYS621  CYS622 
 ASP623  PHE694  ASN695  SER759  ASP760  ASP761  ALA762  ILE779  LEU786  VAL792 
 PHE793  MET794  SER795  GLU796  ALA797  LYS798  CYS799  TRP800  GLU811  SER814 

> <Gold.Protein.RotatedAtoms>
  151.7504  133.3327  159.3389 H   0  0  0  0  0  0  0  0  0  0  0  0  # atno 6907 bound_to 6896
  150.7537  134.6197  159.6139 H   0  0  0  0  0  0  0  0  0  0  0  0  # atno 6908 bound_to 6896
  152.3472  134.7057  160.0298 H   0  0  0  0  0  0  0  0  0  0  0  0  # atno 6909 bound_to 6896
  144.7175  140.2126  143.6325 H   0  0  0  0  0  0  0  0  0  0  0  0  # atno 7974 bound_to 7965
  156.2956  140.2299  156.4664 H   0  0  0  0  0  0  0  0  0  0  0  0  # atno 8008 bound_to 7997
  154.7973  140.0450  157.1267 H   0  0  0  0  0  0  0  0  0  0  0  0  # atno 8009 bound_to 7997
  154.9574  140.3050  155.5050 H   0  0  0  0  0  0  0  0  0  0  0  0  # atno 8010 bound_to 7997
  140.0186  143.5368  152.2231 H   0  0  0  0  0  0  0  0  0  0  0  0  # atno 10167 bound_to 10162
  156.1667  130.4149  149.9709 H   0  0  0  0  0  0  0  0  0  0  0  0  # atno 10718 bound_to 10713
  154.4717  135.2771  155.1638 H   0  0  0  0  0  0  0  0  0  0  0  0  # atno 10763 bound_to 10752
  154.3384  135.6175  153.5588 H   0  0  0  0  0  0  0  0  0  0  0  0  # atno 10764 bound_to 10752
  152.9865  135.5782  154.5099 H   0  0  0  0  0  0  0  0  0  0  0  0  # atno 10765 bound_to 10752
  140.7449  133.8640  155.8997 H   0  0  0  0  0  0  0  0  0  0  0  0  # atno 11005 bound_to 11000
  145.8576  139.2207  143.1735 LP  0  0  0  0  0  0  0  0  0  0  0  0  # atno 17320 bound_to 7965
  146.0203  140.8354  142.9927 LP  0  0  0  0  0  0  0  0  0  0  0  0  # atno 17321 bound_to 7965
  139.6156  144.7618  151.2855 LP  0  0  0  0  0  0  0  0  0  0  0  0  # atno 17342 bound_to 10162
  140.7352  143.6744  150.8054 LP  0  0  0  0  0  0  0  0  0  0  0  0  # atno 17343 bound_to 10162
  156.7521  130.9119  151.3638 LP  0  0  0  0  0  0  0  0  0  0  0  0  # atno 17370 bound_to 10713
  157.6773  130.9107  150.0182 LP  0  0  0  0  0  0  0  0  0  0  0  0  # atno 17371 bound_to 10713
  140.9803  134.1414  157.4500 LP  0  0  0  0  0  0  0  0  0  0  0  0  # atno 17394 bound_to 11000
  139.8799  135.0008  156.6033 LP  0  0  0  0  0  0  0  0  0  0  0  0  # atno 17395 bound_to 11000

$$$$
