AV-unprocessed.smi:1712|AV-procd|sdf|6904|dock1
  -GOLD-   22720 8103D 1   1.00000     0.00000
 Structure written by MMmdl.
 38 39  0  0  0  0  0  0  0  0  2 V2000
  148.2523  138.9981  153.9312 C   0  0  0  0  0  0  0  0  0  0  0  0
  146.8995  139.3529  153.2651 C   0  0  1  0  0  0  0  0  0  0  0  0
  145.9130  138.1577  153.3496 C   0  0  0  0  0  0  0  0  0  0  0  0
  146.4013  136.9602  152.6691 N   0  0  0  0  0  0  0  0  0  0  0  0
  145.6425  135.9260  152.2774 C   0  0  0  0  0  0  0  0  0  0  0  0
  144.4280  135.8623  152.4682 O   0  0  0  0  0  0  0  0  0  0  0  0
  146.3791  134.9828  151.6684 N   0  0  0  0  0  0  0  0  0  0  0  0
  145.9251  133.7531  151.1285 C   0  0  0  0  0  0  0  0  0  0  0  0
  144.5987  133.5060  150.6813 C   0  0  0  0  0  0  0  0  0  0  0  0
  144.4642  132.2678  150.2279 N   0  0  0  0  0  0  0  0  0  0  0  0
  145.6917  131.7221  150.3824 N   0  0  0  0  0  0  0  0  0  0  0  0
  146.6130  132.5894  150.9265 C   0  0  0  0  0  0  0  0  0  0  0  0
  146.2637  140.5871  153.8355 N   0  3  0  0  0  0  0  0  0  0  0  0
  145.9913  140.5534  155.2997 C   0  0  0  0  0  0  0  0  0  0  0  0
  145.3123  141.8513  155.7699 C   0  0  0  0  0  0  0  0  0  0  0  0
  146.1159  142.9706  155.4281 O   0  0  0  0  0  0  0  0  0  0  0  0
  146.2861  143.0767  154.0231 C   0  0  0  0  0  0  0  0  0  0  0  0
  147.0147  141.8284  153.5001 C   0  0  0  0  0  0  0  0  0  0  0  0
  145.8830  130.7668  150.1153 H   0  0  0  0  0  0  0  0  0  0  0  0
  148.6938  138.1011  153.4990 H   0  0  0  0  0  0  0  0  0  0  0  0
  148.1359  138.8227  155.0012 H   0  0  0  0  0  0  0  0  0  0  0  0
  148.9995  139.7787  153.7898 H   0  0  0  0  0  0  0  0  0  0  0  0
  147.1139  139.5483  152.2130 H   0  0  0  0  0  0  0  0  0  0  0  0
  145.6762  137.9455  154.3938 H   0  0  0  0  0  0  0  0  0  0  0  0
  144.9638  138.3951  152.8735 H   0  0  0  0  0  0  0  0  0  0  0  0
  147.3906  136.9222  152.4705 H   0  0  0  0  0  0  0  0  0  0  0  0
  147.3691  135.1605  151.5821 H   0  0  0  0  0  0  0  0  0  0  0  0
  143.7469  134.1698  150.6709 H   0  0  0  0  0  0  0  0  0  0  0  0
  147.6374  132.3027  151.1129 H   0  0  0  0  0  0  0  0  0  0  0  0
  145.3226  139.7311  155.5520 H   0  0  0  0  0  0  0  0  0  0  0  0
  146.9245  140.3993  155.8439 H   0  0  0  0  0  0  0  0  0  0  0  0
  144.3195  141.9529  155.3283 H   0  0  0  0  0  0  0  0  0  0  0  0
  145.1771  141.8323  156.8515 H   0  0  0  0  0  0  0  0  0  0  0  0
  145.3201  143.2021  153.5309 H   0  0  0  0  0  0  0  0  0  0  0  0
  146.8717  143.9702  153.8061 H   0  0  0  0  0  0  0  0  0  0  0  0
  148.0149  141.7782  153.9336 H   0  0  0  0  0  0  0  0  0  0  0  0
  147.1423  141.9364  152.4250 H   0  0  0  0  0  0  0  0  0  0  0  0
  145.3587  140.6645  153.3933 H   0  0  0  0  0  0  0  0  0  0  0  0
  1  2  1  0  0  0  0
  1 20  1  0  0  0  0
  1 21  1  0  0  0  0
  1 22  1  0  0  0  0
  2  3  1  0  0  0  0
  2 13  1  0  0  0  0
  2 23  1  0  0  0  0
  3  4  1  0  0  0  0
  3 24  1  0  0  0  0
  3 25  1  0  0  0  0
  4  5  1  0  0  0  0
  4 26  1  0  0  0  0
  5  6  2  0  0  0  0
  5  7  1  0  0  0  0
  7  8  1  0  0  0  0
  7 27  1  0  0  0  0
  8 12  2  0  0  0  0
  8  9  1  0  0  0  0
  9 10  2  0  0  0  0
  9 28  1  0  0  0  0
 10 11  1  0  0  0  0
 11 19  1  0  0  0  0
 11 12  1  0  0  0  0
 12 29  1  0  0  0  0
 13 18  1  0  0  0  0
 13 14  1  0  0  0  0
 13 38  1  0  0  0  0
 14 15  1  0  0  0  0
 14 30  1  0  0  0  0
 14 31  1  0  0  0  0
 15 16  1  0  0  0  0
 15 32  1  0  0  0  0
 15 33  1  0  0  0  0
 16 17  1  0  0  0  0
 17 18  1  0  0  0  0
 17 34  1  0  0  0  0
 17 35  1  0  0  0  0
 18 36  1  0  0  0  0
 18 37  1  0  0  0  0
M  CHG  1  13   1
M  END
> <s_m_source_file>
AV-unprocessed.smi

> <i_m_source_file_index>
1712

> <i_lp_mmshare_version>
43012

> <i_f3d_flags>
0

> <s_epik_input>
W0NIMl0xW0NIMl1PW0NIMl1bQ0gyXU4xW0NASF0oW0NIM10pW0NIMl1bTkhdQyg9TylbTkhdYzJbY0hdbltuSF1bY0hdMg==

> <s_epik_cmdline>
J2VwaWtfcHl0aG9uJywgJy1waCcsICc3LjAnLCAnLXRuJywgJzgnLCAnLW1hJywgJzIwMCcsICctbWV0YWxfYmluZGluZycsICctaW1hZScsICc8aW5maWxlLm1hZT4nLCAnLW9tYWUnLCAnPG91dGZpbGUubWFlPic=

> <r_lp_tautomer_probability>
0.5

> <r_epik_Ionization_Penalty>
0.646007

> <r_epik_Ionization_Penalty_Charging>
0.645968

> <r_epik_Ionization_Penalty_Neutral>
3.91929e-05

> <r_epik_State_Penalty>
0.664063

> <r_epik_Charging_Adjusted_Penalty>
1.31003

> <i_epik_Tot_Q>
1

> <i_epik_Tot_abs_Q>
1

> <r_epik_Metal_State_Penalty>
0.664064

> <b_epik_Metal_Only>
0

> <s_lp_Force_Field>
OPLS_2005

> <r_lp_Energy>
23.8856

> <b_lp_Chiralities_Consistent>
1

> <s_lp_Variant>
AV-unprocessed.smi:1712-4

> <Gold.Version>
5.8.1

> <Gold.Id.Protein>
6NUR|6NUR_protein|mol2

> <Gold.PLP.Fitness>
42.3106

> <Gold.PLP.PLP>
-25.8593

> <Gold.PLP.part.hbond>
-3.0000

> <Gold.PLP.part.metal>
0.0000

> <Gold.PLP.part.buried>
-4.9254

> <Gold.PLP.part.nonpolar>
-19.1878

> <Gold.PLP.part.repulsive>
0.7741

> <Gold.PLP.ligand.clash>
0.0000

> <Gold.PLP.ligand.torsion>
0.3524

> <Gold.PLP.Chemscore.Hbond>
4.0000

> <Gold.PLP.Chemscore.CHOScore>
1.6917

> <Gold.PLP.Chemscore.Metal>
0.0000

> <Gold.Chemscore.Hbonds>
donor molecule, donor type, donor heavy atom, donor atom, acceptor molecule, acceptor atom, score
      L1  H     4    26       P1  7948  1.00
      L1  H     7    27       P1  7948  1.00
      L1  H    13    38       P1 10175  2.00
      L1  C    12    29       P1 10747  1.00

> <Gold.PLP.Chemscore.Internal.Correction>
0.0810

> <Gold.Rescore>
     Score         DG    S(hbond)    S(metal)    S(lipo)     H(rot)  DE(clash)    DE(int)     intcor
     16.29     -16.95       2.82        0.00      54.29       1.68       0.10       0.57       ----

> <Gold.Chemscore.Fitness>
16.2850

> <Gold.Chemscore.DG>
-16.9475

> <Gold.Chemscore.ZeroCoef>
-5.4800

> <Gold.Chemscore.Hbond>
2.8170

> <Gold.Chemscore.Metal>
0.0000

> <Gold.Chemscore.Lipo>
54.2927

> <Gold.Chemscore.Internal_Hbond>
0.0000

> <Gold.Chemscore.DEClash>
0.0955

> <Gold.Chemscore.DEInternal>
0.5670

> <Gold.Chemscore.Rot>
1.6771

> <Gold.Chemscore.Internal.Correction>
   9.000000E+99

> <Gold.Chemscore.Hbonds>
donor molecule, donor type, donor heavy atom, donor atom, acceptor molecule, acceptor atom, score
      L1  H     4    26       P1  7948  0.99
      L1  H     7    27       P1  7948  0.83
      L1  H    13    38       P1 10175  0.90

> <Gold.Chemscore.Hbond.Weighted>
-9.4087

> <Gold.Chemscore.Metal.Weighted>
-0.0000

> <Gold.Chemscore.Lipo.Weighted>
-6.3523

> <Gold.Chemscore.Internal_Hbond.Weighted>
0.0000

> <Gold.Chemscore.DEClash.Weighted>
0.0955

> <Gold.Chemscore.DEInternal.Weighted>
0.5670

> <Gold.Chemscore.Rot.Weighted>
4.2935

> <Gold.Chemscore.Internal.Correction.Weighted>
   9.000000E+99

> <Gold.Protein.RotatedTorsions>
[ 6907 6896 6895 6894 ] final  -44.66 input  -60.11 | X-H torsion
[ 7974 7965 7964 7962 ] final   41.44 input  175.53 | X-H torsion
[ 8008 7997 7996 7995 ] final   25.52 input   59.86 | X-H torsion
[ 10167 10162 10161 10158 ] final  -88.71 input  -65.29 | X-H torsion
[ 10718 10713 10712 10709 ] final   -1.25 input   66.30 | X-H torsion
[ 10763 10752 10751 10750 ] final  -39.90 input  -60.55 | X-H torsion
[ 11005 11000 10999 10996 ] final -107.05 input  -57.11 | X-H torsion

> <Gold.Protein.ActiveResidues>
 VAL166  LYS551  ARG553  GLY616  TRP617  ASP618  TYR619  PRO620  LYS621  CYS622 
 ASP623  PHE694  ASN695  SER759  ASP760  ASP761  ALA762  ILE779  LEU786  VAL792 
 PHE793  MET794  SER795  GLU796  ALA797  LYS798  CYS799  TRP800  GLU811  SER814 

> <Gold.Protein.RotatedAtoms>
  150.9304  134.8719  159.7547 H   0  0  0  0  0  0  0  0  0  0  0  0  # atno 6907 bound_to 6896
  152.5035  134.4087  159.9451 H   0  0  0  0  0  0  0  0  0  0  0  0  # atno 6908 bound_to 6896
  151.4115  133.3686  159.2779 H   0  0  0  0  0  0  0  0  0  0  0  0  # atno 6909 bound_to 6896
  146.0823  139.5415  142.9529 H   0  0  0  0  0  0  0  0  0  0  0  0  # atno 7974 bound_to 7965
  155.0130  140.3139  155.4822 H   0  0  0  0  0  0  0  0  0  0  0  0  # atno 8008 bound_to 7997
  156.2906  140.2211  156.5187 H   0  0  0  0  0  0  0  0  0  0  0  0  # atno 8009 bound_to 7997
  154.7518  140.0465  157.0887 H   0  0  0  0  0  0  0  0  0  0  0  0  # atno 8010 bound_to 7997
  140.3719  143.2790  151.9489 H   0  0  0  0  0  0  0  0  0  0  0  0  # atno 10167 bound_to 10162
  156.8084  130.5416  149.5712 H   0  0  0  0  0  0  0  0  0  0  0  0  # atno 10718 bound_to 10713
  153.9370  135.6765  153.4745 H   0  0  0  0  0  0  0  0  0  0  0  0  # atno 10763 bound_to 10752
  153.0950  135.4855  154.8759 H   0  0  0  0  0  0  0  0  0  0  0  0  # atno 10764 bound_to 10752
  154.7397  135.3158  154.8707 H   0  0  0  0  0  0  0  0  0  0  0  0  # atno 10765 bound_to 10752
  141.0974  133.8946  157.1929 H   0  0  0  0  0  0  0  0  0  0  0  0  # atno 11005 bound_to 11000
  145.6195  141.0325  143.1922 LP  0  0  0  0  0  0  0  0  0  0  0  0  # atno 17320 bound_to 7965
  144.7301  139.7751  143.7350 LP  0  0  0  0  0  0  0  0  0  0  0  0  # atno 17321 bound_to 7965
  139.4803  144.5898  151.7790 LP  0  0  0  0  0  0  0  0  0  0  0  0  # atno 17342 bound_to 10162
  140.5024  144.1149  150.5974 LP  0  0  0  0  0  0  0  0  0  0  0  0  # atno 17343 bound_to 10162
  156.1059  130.6004  150.9970 LP  0  0  0  0  0  0  0  0  0  0  0  0  # atno 17370 bound_to 10713
  157.6518  131.0895  150.8033 LP  0  0  0  0  0  0  0  0  0  0  0  0  # atno 17371 bound_to 10713
  139.9814  135.0097  156.9759 LP  0  0  0  0  0  0  0  0  0  0  0  0  # atno 17394 bound_to 11000
  140.5107  134.1005  155.7269 LP  0  0  0  0  0  0  0  0  0  0  0  0  # atno 17395 bound_to 11000

$$$$
