AV-unprocessed.smi:3354|AV-procd|sdf|12957|dock7
  -GOLD-   2272019393D 1   1.00000     0.00000
 Structure written by MMmdl.
 38 40  0  0  0  0  0  0  0  0  1 V2000
  150.6223  138.8962  154.0653 C   0  0  0  0  0  0  0  0  0  0  0  0
  151.2928  138.9477  155.4245 C   0  0  2  0  0  0  0  0  0  0  0  0
  152.4931  138.0813  155.7266 C   0  0  0  0  0  0  0  0  0  0  0  0
  151.1744  137.8167  156.4276 C   0  0  2  0  0  0  0  0  0  0  0  0
  150.3833  136.6640  156.1043 N   0  0  0  0  0  0  0  0  0  0  0  0
  149.0603  136.7749  155.5045 C   0  0  0  0  0  0  0  0  0  0  0  0
  148.5814  135.3288  155.2858 C   0  0  1  0  0  0  0  0  0  0  0  0
  148.0198  135.1597  153.9481 N   0  0  0  0  0  0  0  0  0  0  0  0
  147.0066  134.3370  153.6434 C   0  0  0  0  0  0  0  0  0  0  0  0
  146.4361  133.6296  154.4736 O   0  0  0  0  0  0  0  0  0  0  0  0
  146.7247  134.3776  152.3298 N   0  0  0  0  0  0  0  0  0  0  0  0
  145.7227  133.6642  151.6178 C   0  0  0  0  0  0  0  0  0  0  0  0
  145.0450  134.1638  150.4791 C   0  0  0  0  0  0  0  0  0  0  0  0
  144.0829  133.3507  149.8502 C   0  0  0  0  0  0  0  0  0  0  0  0
  143.8382  132.0675  150.3764 C   0  0  0  0  0  0  0  0  0  0  0  0
  144.4862  131.5733  151.4521 N   0  0  0  0  0  0  0  0  0  0  0  0
  145.4081  132.3582  152.0496 C   0  0  0  0  0  0  0  0  0  0  0  0
  149.8161  134.4451  155.5211 C   0  0  0  0  0  0  0  0  0  0  0  0
  150.8526  135.4118  156.0660 C   0  0  0  0  0  0  0  0  0  0  0  0
  151.9774  135.0517  156.4104 O   0  0  0  0  0  0  0  0  0  0  0  0
  150.6942  137.9008  153.6266 H   0  0  0  0  0  0  0  0  0  0  0  0
  151.0983  139.6056  153.3881 H   0  0  0  0  0  0  0  0  0  0  0  0
  149.5686  139.1599  154.1598 H   0  0  0  0  0  0  0  0  0  0  0  0
  151.3066  139.9474  155.8547 H   0  0  0  0  0  0  0  0  0  0  0  0
  152.8284  137.4069  154.9421 H   0  0  0  0  0  0  0  0  0  0  0  0
  153.2912  138.5277  156.3163 H   0  0  0  0  0  0  0  0  0  0  0  0
  151.1446  138.1164  157.4741 H   0  0  0  0  0  0  0  0  0  0  0  0
  148.3692  137.3103  156.1556 H   0  0  0  0  0  0  0  0  0  0  0  0
  149.1401  137.3285  154.5672 H   0  0  0  0  0  0  0  0  0  0  0  0
  147.8239  135.0940  156.0365 H   0  0  0  0  0  0  0  0  0  0  0  0
  148.4367  135.7009  153.2048 H   0  0  0  0  0  0  0  0  0  0  0  0
  147.3364  134.9453  151.7617 H   0  0  0  0  0  0  0  0  0  0  0  0
  145.2511  135.1399  150.0688 H   0  0  0  0  0  0  0  0  0  0  0  0
  143.5474  133.7018  148.9806 H   0  0  0  0  0  0  0  0  0  0  0  0
  143.1074  131.4187  149.9170 H   0  0  0  0  0  0  0  0  0  0  0  0
  145.9084  131.9283  152.9053 H   0  0  0  0  0  0  0  0  0  0  0  0
  149.6139  133.6464  156.2354 H   0  0  0  0  0  0  0  0  0  0  0  0
  150.1915  133.9983  154.5994 H   0  0  0  0  0  0  0  0  0  0  0  0
  1  2  1  0  0  0  0
  1 21  1  0  0  0  0
  1 22  1  0  0  0  0
  1 23  1  0  0  0  0
  2  4  1  0  0  0  0
  2  3  1  0  0  0  0
  2 24  1  0  0  0  0
  3  4  1  0  0  0  0
  3 25  1  0  0  0  0
  3 26  1  0  0  0  0
  4  5  1  0  0  0  0
  4 27  1  0  0  0  0
  5 19  1  0  0  0  0
  5  6  1  0  0  0  0
  6  7  1  0  0  0  0
  6 28  1  0  0  0  0
  6 29  1  0  0  0  0
  7  8  1  0  0  0  0
  7 18  1  0  0  0  0
  7 30  1  0  0  0  0
  8  9  1  0  0  0  0
  8 31  1  0  0  0  0
  9 10  2  0  0  0  0
  9 11  1  0  0  0  0
 11 12  1  0  0  0  0
 11 32  1  0  0  0  0
 12 17  1  0  0  0  0
 12 13  2  0  0  0  0
 13 14  1  0  0  0  0
 13 33  1  0  0  0  0
 14 15  2  0  0  0  0
 14 34  1  0  0  0  0
 15 16  1  0  0  0  0
 15 35  1  0  0  0  0
 16 17  2  0  0  0  0
 17 36  1  0  0  0  0
 18 19  1  0  0  0  0
 18 37  1  0  0  0  0
 18 38  1  0  0  0  0
 19 20  2  0  0  0  0
M  END
> <s_m_source_file>
AV-unprocessed.smi

> <i_m_source_file_index>
3354

> <i_lp_mmshare_version>
43012

> <i_f3d_flags>
0

> <s_epik_input>
W0NIM11bQ0BASF0xW0NIMl1bQ0BIXTFOMltDSDJdW0NASF0oW0NIMl1DMj1PKVtOSF1DKD1PKVtOSF1jM1tjSF1bY0hdW2NIXW5bY0hdMw==

> <s_epik_cmdline>
J2VwaWtfcHl0aG9uJywgJy1waCcsICc3LjAnLCAnLXRuJywgJzgnLCAnLW1hJywgJzIwMCcsICctbWV0YWxfYmluZGluZycsICctaW1hZScsICc8aW5maWxlLm1hZT4nLCAnLW9tYWUnLCAnPG91dGZpbGUubWFlPic=

> <r_epik_Ionization_Penalty>
0.00456191

> <r_epik_Ionization_Penalty_Charging>
0

> <r_epik_Ionization_Penalty_Neutral>
0.00456191

> <r_epik_State_Penalty>
0.00327094

> <r_epik_Charging_Adjusted_Penalty>
0.00327094

> <i_epik_Tot_Q>
0

> <i_epik_Tot_abs_Q>
0

> <r_epik_Metal_State_Penalty>
-0

> <b_epik_Metal_Only>
0

> <s_lp_Force_Field>
OPLS_2005

> <r_lp_Energy>
41.3899

> <b_lp_Chiralities_Consistent>
1

> <s_lp_Variant>
AV-unprocessed.smi:3354-3

> <Gold.Version>
5.8.1

> <Gold.Id.Protein>
6NUR|6NUR_protein|mol2

> <Gold.PLP.Fitness>
38.0400

> <Gold.PLP.PLP>
-27.8830

> <Gold.PLP.part.hbond>
-2.9608

> <Gold.PLP.part.metal>
0.0000

> <Gold.PLP.part.buried>
-2.9255

> <Gold.PLP.part.nonpolar>
-21.8154

> <Gold.PLP.part.repulsive>
0.2435

> <Gold.PLP.ligand.clash>
0.0000

> <Gold.PLP.ligand.torsion>
0.7263

> <Gold.PLP.Chemscore.Hbond>
2.8723

> <Gold.PLP.Chemscore.CHOScore>
0.9078

> <Gold.PLP.Chemscore.Metal>
0.0000

> <Gold.Chemscore.Hbonds>
donor molecule, donor type, donor heavy atom, donor atom, acceptor molecule, acceptor atom, score
      L1  H     8    31       P1  7948  0.98
      L1  H    11    32       P1  7948  0.88
      P1  H 10752 10764       L1    20  1.00
      L1  C    15    35       P1 10952  0.95

> <Gold.PLP.Chemscore.Internal.Correction>
0.2693

> <Gold.Rescore>
     Score         DG    S(hbond)    S(metal)    S(lipo)     H(rot)  DE(clash)    DE(int)     intcor
     17.08     -19.80       2.79        0.00      69.76       1.24       0.01       2.71       ----

> <Gold.Chemscore.Fitness>
17.0797

> <Gold.Chemscore.DG>
-19.7955

> <Gold.Chemscore.ZeroCoef>
-5.4800

> <Gold.Chemscore.Hbond>
2.7897

> <Gold.Chemscore.Metal>
0.0000

> <Gold.Chemscore.Lipo>
69.7632

> <Gold.Chemscore.Internal_Hbond>
0.0000

> <Gold.Chemscore.DEClash>
0.0052

> <Gold.Chemscore.DEInternal>
2.7105

> <Gold.Chemscore.Rot>
1.2361

> <Gold.Chemscore.Internal.Correction>
   9.000000E+99

> <Gold.Chemscore.Hbonds>
donor molecule, donor type, donor heavy atom, donor atom, acceptor molecule, acceptor atom, score
      L1  H     8    31       P1  7948  0.91
      L1  H    11    32       P1  7948  0.67
      P1  H 10752 10764       L1    20  0.87

> <Gold.Chemscore.Hbond.Weighted>
-9.3175

> <Gold.Chemscore.Metal.Weighted>
-0.0000

> <Gold.Chemscore.Lipo.Weighted>
-8.1623

> <Gold.Chemscore.Internal_Hbond.Weighted>
0.0000

> <Gold.Chemscore.DEClash.Weighted>
0.0052

> <Gold.Chemscore.DEInternal.Weighted>
2.7105

> <Gold.Chemscore.Rot.Weighted>
3.1643

> <Gold.Chemscore.Internal.Correction.Weighted>
   9.000000E+99

> <Gold.Protein.RotatedTorsions>
[ 6907 6896 6895 6894 ] final  -46.89 input  -60.11 | X-H torsion
[ 7974 7965 7964 7962 ] final  -36.38 input  175.53 | X-H torsion
[ 8008 7997 7996 7995 ] final  -54.37 input   59.86 | X-H torsion
[ 10167 10162 10161 10158 ] final -124.51 input  -65.29 | X-H torsion
[ 10718 10713 10712 10709 ] final  -73.31 input   66.30 | X-H torsion
[ 10763 10752 10751 10750 ] final  -15.70 input  -60.55 | X-H torsion
[ 11005 11000 10999 10996 ] final  121.25 input  -57.11 | X-H torsion

> <Gold.Protein.ActiveResidues>
 VAL166  LYS551  ARG553  GLY616  TRP617  ASP618  TYR619  PRO620  LYS621  CYS622 
 ASP623  PHE694  ASN695  SER759  ASP760  ASP761  ALA762  ILE779  LEU786  VAL792 
 PHE793  MET794  SER795  GLU796  ALA797  LYS798  CYS799  TRP800  GLU811  SER814 

> <Gold.Protein.RotatedAtoms>
  150.9065  134.8480  159.7395 H   0  0  0  0  0  0  0  0  0  0  0  0  # atno 6907 bound_to 6896
  152.4921  134.4423  159.9557 H   0  0  0  0  0  0  0  0  0  0  0  0  # atno 6908 bound_to 6896
  151.4470  133.3588  159.2825 H   0  0  0  0  0  0  0  0  0  0  0  0  # atno 6909 bound_to 6896
  146.0666  140.6272  142.8972 H   0  0  0  0  0  0  0  0  0  0  0  0  # atno 7974 bound_to 7965
  154.4161  140.1178  156.5305 H   0  0  0  0  0  0  0  0  0  0  0  0  # atno 8008 bound_to 7997
  155.6610  140.3496  155.4763 H   0  0  0  0  0  0  0  0  0  0  0  0  # atno 8009 bound_to 7997
  155.9713  140.1142  157.0800 H   0  0  0  0  0  0  0  0  0  0  0  0  # atno 8010 bound_to 7997
  139.9920  143.5631  152.2338 H   0  0  0  0  0  0  0  0  0  0  0  0  # atno 10167 bound_to 10162
  156.0285  130.4391  150.2723 H   0  0  0  0  0  0  0  0  0  0  0  0  # atno 10718 bound_to 10713
  153.5473  135.7012  153.5608 H   0  0  0  0  0  0  0  0  0  0  0  0  # atno 10763 bound_to 10752
  153.3548  135.3985  155.1673 H   0  0  0  0  0  0  0  0  0  0  0  0  # atno 10764 bound_to 10752
  154.8666  135.3774  154.4981 H   0  0  0  0  0  0  0  0  0  0  0  0  # atno 10765 bound_to 10752
  139.9218  134.9638  156.7930 H   0  0  0  0  0  0  0  0  0  0  0  0  # atno 11005 bound_to 11000
  144.7206  140.4360  143.7011 LP  0  0  0  0  0  0  0  0  0  0  0  0  # atno 17320 bound_to 7965
  145.6466  139.1558  143.2885 LP  0  0  0  0  0  0  0  0  0  0  0  0  # atno 17321 bound_to 7965
  139.6333  144.7647  151.2490 LP  0  0  0  0  0  0  0  0  0  0  0  0  # atno 17342 bound_to 10162
  140.7451  143.6441  150.8308 LP  0  0  0  0  0  0  0  0  0  0  0  0  # atno 17343 bound_to 10162
  157.0826  131.0147  151.3151 LP  0  0  0  0  0  0  0  0  0  0  0  0  # atno 17370 bound_to 10713
  157.4915  130.7825  149.7513 LP  0  0  0  0  0  0  0  0  0  0  0  0  # atno 17371 bound_to 10713
  140.6452  133.9782  155.7727 LP  0  0  0  0  0  0  0  0  0  0  0  0  # atno 17394 bound_to 11000
  141.0745  134.0156  157.3478 LP  0  0  0  0  0  0  0  0  0  0  0  0  # atno 17395 bound_to 11000

$$$$
