AV-unprocessed.smi:2475|AV-procd|sdf|9755|dock1
  -GOLD-   2272013393D 1   1.00000     0.00000
 Structure written by MMmdl.
 37 38  0  0  0  0  0  0  0  0  1 V2000
  151.9098  145.8865  159.9137 C   0  0  0  0  0  0  0  0  0  0  0  0
  151.9637  144.4977  159.3134 C   0  0  0  0  0  0  0  0  0  0  0  0
  151.1750  144.1432  158.1989 C   0  0  0  0  0  0  0  0  0  0  0  0
  151.3001  142.8220  157.7144 C   0  0  0  0  0  0  0  0  0  0  0  0
  150.4943  142.4945  156.5934 N   0  0  0  0  0  0  0  0  0  0  0  0
  150.4157  141.3213  155.9363 C   0  0  0  0  0  0  0  0  0  0  0  0
  151.0375  140.3061  156.2520 O   0  0  0  0  0  0  0  0  0  0  0  0
  149.4500  141.2750  154.7423 C   0  0  2  0  0  0  0  0  0  0  0  0
  148.0121  141.7317  155.0598 C   0  0  0  0  0  0  0  0  0  0  0  0
  147.1425  140.5710  154.6051 C   0  0  0  0  0  0  0  0  0  0  0  0
  148.0515  139.8183  153.6440 C   0  0  0  0  0  0  0  0  0  0  0  0
  149.3176  139.9358  154.2684 O   0  0  0  0  0  0  0  0  0  0  0  0
  152.1543  141.9590  158.3175 N   0  0  0  0  0  0  0  0  0  0  0  0
  152.8546  142.3931  159.3705 C   0  0  0  0  0  0  0  0  0  0  0  0
  153.8122  141.4023  160.0198 C   0  0  0  0  0  0  0  0  0  0  0  0
  153.6938  140.0013  159.4006 C   0  0  0  0  0  0  0  0  0  0  0  0
  153.6835  141.3942  161.5511 C   0  0  0  0  0  0  0  0  0  0  0  0
  152.8042  143.6190  159.8986 N   0  0  0  0  0  0  0  0  0  0  0  0
  151.2150  146.5252  159.3679 H   0  0  0  0  0  0  0  0  0  0  0  0
  152.8956  146.3511  159.8830 H   0  0  0  0  0  0  0  0  0  0  0  0
  151.5842  145.8377  160.9530 H   0  0  0  0  0  0  0  0  0  0  0  0
  150.5040  144.8534  157.7375 H   0  0  0  0  0  0  0  0  0  0  0  0
  149.9113  143.2395  156.2406 H   0  0  0  0  0  0  0  0  0  0  0  0
  149.8589  141.8852  153.9356 H   0  0  0  0  0  0  0  0  0  0  0  0
  147.8390  141.9535  156.1138 H   0  0  0  0  0  0  0  0  0  0  0  0
  147.7759  142.6329  154.4930 H   0  0  0  0  0  0  0  0  0  0  0  0
  146.9006  139.9344  155.4571 H   0  0  0  0  0  0  0  0  0  0  0  0
  146.2081  140.8914  154.1437 H   0  0  0  0  0  0  0  0  0  0  0  0
  147.7594  138.7760  153.5143 H   0  0  0  0  0  0  0  0  0  0  0  0
  148.0749  140.2991  152.6645 H   0  0  0  0  0  0  0  0  0  0  0  0
  154.8252  141.7461  159.8032 H   0  0  0  0  0  0  0  0  0  0  0  0
  153.8657  140.0340  158.3245 H   0  0  0  0  0  0  0  0  0  0  0  0
  152.7043  139.5745  159.5677 H   0  0  0  0  0  0  0  0  0  0  0  0
  154.4265  139.3187  159.8319 H   0  0  0  0  0  0  0  0  0  0  0  0
  153.8417  142.3915  161.9624 H   0  0  0  0  0  0  0  0  0  0  0  0
  154.4199  140.7293  162.0030 H   0  0  0  0  0  0  0  0  0  0  0  0
  152.6957  141.0563  161.8663 H   0  0  0  0  0  0  0  0  0  0  0  0
  1  2  1  0  0  0  0
  1 19  1  0  0  0  0
  1 20  1  0  0  0  0
  1 21  1  0  0  0  0
  2 18  1  0  0  0  0
  2  3  2  0  0  0  0
  3  4  1  0  0  0  0
  3 22  1  0  0  0  0
  4  5  1  0  0  0  0
  4 13  2  0  0  0  0
  5  6  1  0  0  0  0
  5 23  1  0  0  0  0
  6  7  2  0  0  0  0
  6  8  1  0  0  0  0
  8 12  1  0  0  0  0
  8  9  1  0  0  0  0
  8 24  1  0  0  0  0
  9 10  1  0  0  0  0
  9 25  1  0  0  0  0
  9 26  1  0  0  0  0
 10 11  1  0  0  0  0
 10 27  1  0  0  0  0
 10 28  1  0  0  0  0
 11 12  1  0  0  0  0
 11 29  1  0  0  0  0
 11 30  1  0  0  0  0
 13 14  1  0  0  0  0
 14 15  1  0  0  0  0
 14 18  2  0  0  0  0
 15 16  1  0  0  0  0
 15 17  1  0  0  0  0
 15 31  1  0  0  0  0
 16 32  1  0  0  0  0
 16 33  1  0  0  0  0
 16 34  1  0  0  0  0
 17 35  1  0  0  0  0
 17 36  1  0  0  0  0
 17 37  1  0  0  0  0
M  END
> <s_m_source_file>
AV-unprocessed.smi

> <i_m_source_file_index>
2475

> <i_lp_mmshare_version>
43012

> <i_f3d_flags>
0

> <s_epik_input>
W0NIM11bQ0hdKFtDSDNdKWMobjEpbmMoW2NIXWMxW0NIM10pW05IXUMoPU8pW0NAQEhdMltDSDJdW0NIMl1bQ0gyXU8y

> <s_epik_cmdline>
J2VwaWtfcHl0aG9uJywgJy1waCcsICc3LjAnLCAnLXRuJywgJzgnLCAnLW1hJywgJzIwMCcsICctbWV0YWxfYmluZGluZycsICctaW1hZScsICc8aW5maWxlLm1hZT4nLCAnLW9tYWUnLCAnPG91dGZpbGUubWFlPic=

> <r_lp_tautomer_probability>
1

> <r_epik_Ionization_Penalty>
1.42804e-05

> <r_epik_Ionization_Penalty_Charging>
0

> <r_epik_Ionization_Penalty_Neutral>
1.42804e-05

> <r_epik_State_Penalty>
-0

> <r_epik_Charging_Adjusted_Penalty>
0

> <i_epik_Tot_Q>
0

> <i_epik_Tot_abs_Q>
0

> <r_epik_Metal_State_Penalty>
-0

> <b_epik_Metal_Only>
0

> <s_lp_Force_Field>
OPLS_2005

> <r_lp_Energy>
10.8571

> <b_lp_Chiralities_Consistent>
1

> <s_lp_Variant>
AV-unprocessed.smi:2475-1

> <Gold.Version>
5.8.1

> <Gold.Id.Protein>
6NUR|6NUR_protein|mol2

> <Gold.PLP.Fitness>
42.3454

> <Gold.PLP.PLP>
-39.8191

> <Gold.PLP.part.hbond>
-1.0000

> <Gold.PLP.part.metal>
0.0000

> <Gold.PLP.part.buried>
-1.8540

> <Gold.PLP.part.nonpolar>
-36.4151

> <Gold.PLP.part.repulsive>
0.2320

> <Gold.PLP.ligand.clash>
0.0000

> <Gold.PLP.ligand.torsion>
0.2740

> <Gold.PLP.Chemscore.Hbond>
1.0000

> <Gold.PLP.Chemscore.CHOScore>
0.0000

> <Gold.PLP.Chemscore.Metal>
0.0000

> <Gold.Chemscore.Hbonds>
donor molecule, donor type, donor heavy atom, donor atom, acceptor molecule, acceptor atom, score
      L1  H     5    23       P1  8028  1.00

> <Gold.PLP.Chemscore.Internal.Correction>
0.0743

> <Gold.Rescore>
     Score         DG    S(hbond)    S(metal)    S(lipo)     H(rot)  DE(clash)    DE(int)     intcor
     14.30     -16.17       1.00        0.00      88.76       1.18       0.31       1.56       ----

> <Gold.Chemscore.Fitness>
14.3043

> <Gold.Chemscore.DG>
-16.1714

> <Gold.Chemscore.ZeroCoef>
-5.4800

> <Gold.Chemscore.Hbond>
0.9995

> <Gold.Chemscore.Metal>
0.0000

> <Gold.Chemscore.Lipo>
88.7560

> <Gold.Chemscore.Internal_Hbond>
0.0000

> <Gold.Chemscore.DEClash>
0.3117

> <Gold.Chemscore.DEInternal>
1.5554

> <Gold.Chemscore.Rot>
1.1842

> <Gold.Chemscore.Internal.Correction>
   9.000000E+99

> <Gold.Chemscore.Hbonds>
donor molecule, donor type, donor heavy atom, donor atom, acceptor molecule, acceptor atom, score
      L1  H     5    23       P1  8028  1.00

> <Gold.Chemscore.Hbond.Weighted>
-3.3384

> <Gold.Chemscore.Metal.Weighted>
-0.0000

> <Gold.Chemscore.Lipo.Weighted>
-10.3845

> <Gold.Chemscore.Internal_Hbond.Weighted>
0.0000

> <Gold.Chemscore.DEClash.Weighted>
0.3117

> <Gold.Chemscore.DEInternal.Weighted>
1.5554

> <Gold.Chemscore.Rot.Weighted>
3.0315

> <Gold.Chemscore.Internal.Correction.Weighted>
   9.000000E+99

> <Gold.Protein.RotatedTorsions>
[ 6907 6896 6895 6894 ] final  -41.77 input  -60.11 | X-H torsion
[ 7974 7965 7964 7962 ] final  -94.44 input  175.53 | X-H torsion
[ 8008 7997 7996 7995 ] final  170.07 input   59.86 | X-H torsion
[ 10167 10162 10161 10158 ] final  103.83 input  -65.29 | X-H torsion
[ 10718 10713 10712 10709 ] final   32.28 input   66.30 | X-H torsion
[ 10763 10752 10751 10750 ] final    8.52 input  -60.55 | X-H torsion
[ 11005 11000 10999 10996 ] final   65.93 input  -57.11 | X-H torsion

> <Gold.Protein.ActiveResidues>
 VAL166  LYS551  ARG553  GLY616  TRP617  ASP618  TYR619  PRO620  LYS621  CYS622 
 ASP623  PHE694  ASN695  SER759  ASP760  ASP761  ALA762  ILE779  LEU786  VAL792 
 PHE793  MET794  SER795  GLU796  ALA797  LYS798  CYS799  TRP800  GLU811  SER814 

> <Gold.Protein.RotatedAtoms>
  150.9630  134.9015  159.7741 H   0  0  0  0  0  0  0  0  0  0  0  0  # atno 6907 bound_to 6896
  152.5163  134.3647  159.9307 H   0  0  0  0  0  0  0  0  0  0  0  0  # atno 6908 bound_to 6896
  151.3658  133.3832  159.2729 H   0  0  0  0  0  0  0  0  0  0  0  0  # atno 6909 bound_to 6896
  145.3732  140.9508  143.2435 H   0  0  0  0  0  0  0  0  0  0  0  0  # atno 7974 bound_to 7965
  156.1399  140.1547  156.8937 H   0  0  0  0  0  0  0  0  0  0  0  0  # atno 8008 bound_to 7997
  154.4979  140.0833  156.7773 H   0  0  0  0  0  0  0  0  0  0  0  0  # atno 8009 bound_to 7997
  155.4098  140.3418  155.4265 H   0  0  0  0  0  0  0  0  0  0  0  0  # atno 8010 bound_to 7997
  139.7229  144.7054  151.0843 H   0  0  0  0  0  0  0  0  0  0  0  0  # atno 10167 bound_to 10162
  157.2833  130.7266  149.6569 H   0  0  0  0  0  0  0  0  0  0  0  0  # atno 10718 bound_to 10713
  153.2241  135.6885  153.7965 H   0  0  0  0  0  0  0  0  0  0  0  0  # atno 10763 bound_to 10752
  153.7153  135.3276  155.3256 H   0  0  0  0  0  0  0  0  0  0  0  0  # atno 10764 bound_to 10752
  154.8283  135.4600  154.1101 H   0  0  0  0  0  0  0  0  0  0  0  0  # atno 10765 bound_to 10752
  139.9863  134.6662  156.0170 H   0  0  0  0  0  0  0  0  0  0  0  0  # atno 11005 bound_to 11000
  144.8561  139.5248  143.6834 LP  0  0  0  0  0  0  0  0  0  0  0  0  # atno 17320 bound_to 7965
  146.2876  139.7047  142.9184 LP  0  0  0  0  0  0  0  0  0  0  0  0  # atno 17321 bound_to 7965
  140.7757  143.5142  150.9615 LP  0  0  0  0  0  0  0  0  0  0  0  0  # atno 17342 bound_to 10162
  139.8829  143.7049  152.3155 LP  0  0  0  0  0  0  0  0  0  0  0  0  # atno 17343 bound_to 10162
  155.9665  130.4331  150.4993 LP  0  0  0  0  0  0  0  0  0  0  0  0  # atno 17370 bound_to 10713
  157.2941  131.0632  151.2113 LP  0  0  0  0  0  0  0  0  0  0  0  0  # atno 17371 bound_to 10713
  141.1527  133.6546  156.4065 LP  0  0  0  0  0  0  0  0  0  0  0  0  # atno 17394 bound_to 11000
  140.4995  134.6499  157.5243 LP  0  0  0  0  0  0  0  0  0  0  0  0  # atno 17395 bound_to 11000

$$$$
