AV-unprocessed.smi:2270|AV-procd|sdf|9158|dock2
  -GOLD-   2272012363D 1   1.00000     0.00000
 Structure written by MMmdl.
 52 53  0  0  0  0  0  0  0  0  1 V2000
  150.3444  142.2818  157.4116 C   0  0  0  0  0  0  0  0  0  0  0  0
  151.1971  142.8519  158.5254 C   0  0  0  0  0  0  0  0  0  0  0  0
  151.1806  144.2303  158.8148 C   0  0  0  0  0  0  0  0  0  0  0  0
  151.9984  144.6985  159.8585 C   0  0  0  0  0  0  0  0  0  0  0  0
  152.7940  143.7755  160.5643 C   0  0  0  0  0  0  0  0  0  0  0  0
  152.7525  142.4080  160.2104 C   0  0  0  0  0  0  0  0  0  0  0  0
  153.5889  141.5601  160.9837 N   0  0  0  0  0  0  0  0  0  0  0  0
  154.2484  140.4570  160.5881 C   0  0  0  0  0  0  0  0  0  0  0  0
  154.2424  139.9923  159.4477 O   0  0  0  0  0  0  0  0  0  0  0  0
  154.9251  139.9064  161.6058 N   0  0  0  0  0  0  0  0  0  0  0  0
  155.7246  138.6882  161.5185 C   0  0  0  0  0  0  0  0  0  0  0  0
  155.1360  137.5154  162.3539 C   0  0  2  0  0  0  0  0  0  0  0  0
  155.5275  137.5575  163.8655 C   0  0  0  0  0  0  0  0  0  0  0  0
  156.8535  136.8765  164.2588 C   0  0  0  0  0  0  0  0  0  0  0  0
  154.3778  137.1019  164.7802 C   0  0  0  0  0  0  0  0  0  0  0  0
  155.2505  136.1878  161.7189 N   0  0  0  0  0  0  0  0  0  0  0  0
  154.7726  135.0998  162.5779 C   0  0  0  0  0  0  0  0  0  0  0  0
  155.0505  133.7227  161.9482 C   0  0  0  0  0  0  0  0  0  0  0  0
  154.4138  133.5986  160.6388 N   0  0  0  0  0  0  0  0  0  0  0  0
  154.6631  132.2947  160.0441 C   0  0  0  0  0  0  0  0  0  0  0  0
  154.8856  134.6810  159.7780 C   0  0  0  0  0  0  0  0  0  0  0  0
  154.6118  136.0612  160.4044 C   0  0  0  0  0  0  0  0  0  0  0  0
  151.9608  141.9668  159.2014 N   0  0  0  0  0  0  0  0  0  0  0  0
  149.5284  142.9590  157.1580 H   0  0  0  0  0  0  0  0  0  0  0  0
  149.9106  141.3257  157.7068 H   0  0  0  0  0  0  0  0  0  0  0  0
  150.9491  142.1242  156.5185 H   0  0  0  0  0  0  0  0  0  0  0  0
  150.5596  144.9126  158.2531 H   0  0  0  0  0  0  0  0  0  0  0  0
  152.0162  145.7476  160.1139 H   0  0  0  0  0  0  0  0  0  0  0  0
  153.4277  144.1186  161.3691 H   0  0  0  0  0  0  0  0  0  0  0  0
  153.6904  141.8192  161.9536 H   0  0  0  0  0  0  0  0  0  0  0  0
  154.8763  140.3538  162.5093 H   0  0  0  0  0  0  0  0  0  0  0  0
  155.8206  138.4136  160.4679 H   0  0  0  0  0  0  0  0  0  0  0  0
  156.7317  138.9337  161.8539 H   0  0  0  0  0  0  0  0  0  0  0  0
  154.0638  137.7149  162.3858 H   0  0  0  0  0  0  0  0  0  0  0  0
  155.6736  138.6123  164.1004 H   0  0  0  0  0  0  0  0  0  0  0  0
  156.7843  135.7913  164.2580 H   0  0  0  0  0  0  0  0  0  0  0  0
  157.1358  137.1636  165.2720 H   0  0  0  0  0  0  0  0  0  0  0  0
  157.6781  137.1678  163.6101 H   0  0  0  0  0  0  0  0  0  0  0  0
  154.1789  136.0354  164.6722 H   0  0  0  0  0  0  0  0  0  0  0  0
  153.4566  137.6383  164.5502 H   0  0  0  0  0  0  0  0  0  0  0  0
  154.6130  137.2876  165.8284 H   0  0  0  0  0  0  0  0  0  0  0  0
  155.2636  135.1507  163.5502 H   0  0  0  0  0  0  0  0  0  0  0  0
  153.7025  135.1978  162.7617 H   0  0  0  0  0  0  0  0  0  0  0  0
  156.1274  133.5720  161.8572 H   0  0  0  0  0  0  0  0  0  0  0  0
  154.6808  132.9413  162.6130 H   0  0  0  0  0  0  0  0  0  0  0  0
  154.1635  132.2090  159.0786 H   0  0  0  0  0  0  0  0  0  0  0  0
  154.2836  131.4992  160.6857 H   0  0  0  0  0  0  0  0  0  0  0  0
  155.7303  132.1284  159.8912 H   0  0  0  0  0  0  0  0  0  0  0  0
  155.9548  134.5712  159.5897 H   0  0  0  0  0  0  0  0  0  0  0  0
  154.3908  134.6219  158.8080 H   0  0  0  0  0  0  0  0  0  0  0  0
  153.5347  136.2079  160.4897 H   0  0  0  0  0  0  0  0  0  0  0  0
  154.9789  136.8207  159.7224 H   0  0  0  0  0  0  0  0  0  0  0  0
  1  2  1  0  0  0  0
  1 24  1  0  0  0  0
  1 25  1  0  0  0  0
  1 26  1  0  0  0  0
  2 23  1  0  0  0  0
  2  3  2  0  0  0  0
  3  4  1  0  0  0  0
  3 27  1  0  0  0  0
  4  5  2  0  0  0  0
  4 28  1  0  0  0  0
  5  6  1  0  0  0  0
  5 29  1  0  0  0  0
  6  7  1  0  0  0  0
  6 23  2  0  0  0  0
  7  8  1  0  0  0  0
  7 30  1  0  0  0  0
  8  9  2  0  0  0  0
  8 10  1  0  0  0  0
 10 11  1  0  0  0  0
 10 31  1  0  0  0  0
 11 12  1  0  0  0  0
 11 32  1  0  0  0  0
 11 33  1  0  0  0  0
 12 13  1  0  0  0  0
 12 16  1  0  0  0  0
 12 34  1  0  0  0  0
 13 14  1  0  0  0  0
 13 15  1  0  0  0  0
 13 35  1  0  0  0  0
 14 36  1  0  0  0  0
 14 37  1  0  0  0  0
 14 38  1  0  0  0  0
 15 39  1  0  0  0  0
 15 40  1  0  0  0  0
 15 41  1  0  0  0  0
 16 22  1  0  0  0  0
 16 17  1  0  0  0  0
 17 18  1  0  0  0  0
 17 42  1  0  0  0  0
 17 43  1  0  0  0  0
 18 19  1  0  0  0  0
 18 44  1  0  0  0  0
 18 45  1  0  0  0  0
 19 20  1  0  0  0  0
 19 21  1  0  0  0  0
 20 46  1  0  0  0  0
 20 47  1  0  0  0  0
 20 48  1  0  0  0  0
 21 22  1  0  0  0  0
 21 49  1  0  0  0  0
 21 50  1  0  0  0  0
 22 51  1  0  0  0  0
 22 52  1  0  0  0  0
M  END
> <s_m_source_file>
AV-unprocessed.smi

> <i_m_source_file_index>
2270

> <i_lp_mmshare_version>
43012

> <i_f3d_flags>
0

> <s_epik_input>
W0NIM11jMVtjSF1bY0hdW2NIXWMobjEpW05IXUMoPU8pW05IXVtDSDJdW0NASF0oW0NIXShbQ0gzXSlbQ0gzXSlOMltDSDJdW0NIMl1OKFtDSDNdKVtDSDJdW0NIMl0y

> <s_epik_cmdline>
J2VwaWtfcHl0aG9uJywgJy1waCcsICc3LjAnLCAnLXRuJywgJzgnLCAnLW1hJywgJzIwMCcsICctbWV0YWxfYmluZGluZycsICctaW1hZScsICc8aW5maWxlLm1hZT4nLCAnLW9tYWUnLCAnPG91dGZpbGUubWFlPic=

> <r_epik_Ionization_Penalty>
2.57754

> <r_epik_Ionization_Penalty_Charging>
0

> <r_epik_Ionization_Penalty_Neutral>
2.57754

> <r_epik_State_Penalty>
2.00874

> <r_epik_Charging_Adjusted_Penalty>
2.00874

> <i_epik_Tot_Q>
0

> <i_epik_Tot_abs_Q>
0

> <r_epik_Metal_State_Penalty>
2.00874

> <b_epik_Metal_Only>
0

> <s_lp_Force_Field>
OPLS_2005

> <r_lp_Energy>
48.2009

> <b_lp_Chiralities_Consistent>
1

> <s_lp_Variant>
AV-unprocessed.smi:2270-5

> <Gold.Version>
5.8.1

> <Gold.Id.Protein>
6NUR|6NUR_protein|mol2

> <Gold.PLP.Fitness>
44.9566

> <Gold.PLP.PLP>
-41.5931

> <Gold.PLP.part.hbond>
-1.9663

> <Gold.PLP.part.metal>
0.0000

> <Gold.PLP.part.buried>
-5.6638

> <Gold.PLP.part.nonpolar>
-32.8357

> <Gold.PLP.part.repulsive>
0.0491

> <Gold.PLP.ligand.clash>
0.0000

> <Gold.PLP.ligand.torsion>
1.3465

> <Gold.PLP.Chemscore.Hbond>
1.8450

> <Gold.PLP.Chemscore.CHOScore>
0.0000

> <Gold.PLP.Chemscore.Metal>
0.0000

> <Gold.Chemscore.Hbonds>
donor molecule, donor type, donor heavy atom, donor atom, acceptor molecule, acceptor atom, score
      P1  H  6896  6908       L1    19  0.19
      P1  H  7997  8009       L1     9  0.41

> <Gold.PLP.Chemscore.Internal.Correction>
0.5216

> <Gold.Rescore>
     Score         DG    S(hbond)    S(metal)    S(lipo)     H(rot)  DE(clash)    DE(int)     intcor
     15.65     -18.01       1.26        0.00     105.40       1.56       0.23       2.13       ----

> <Gold.Chemscore.Fitness>
15.6494

> <Gold.Chemscore.DG>
-18.0079

> <Gold.Chemscore.ZeroCoef>
-5.4800

> <Gold.Chemscore.Hbond>
1.2552

> <Gold.Chemscore.Metal>
0.0000

> <Gold.Chemscore.Lipo>
105.4026

> <Gold.Chemscore.Internal_Hbond>
0.0000

> <Gold.Chemscore.DEClash>
0.2300

> <Gold.Chemscore.DEInternal>
2.1285

> <Gold.Chemscore.Rot>
1.5612

> <Gold.Chemscore.Internal.Correction>
   9.000000E+99

> <Gold.Chemscore.Hbonds>
donor molecule, donor type, donor heavy atom, donor atom, acceptor molecule, acceptor atom, score
      P1  H  7997  8009       L1     9  0.38

> <Gold.Chemscore.Hbond.Weighted>
-4.1924

> <Gold.Chemscore.Metal.Weighted>
-0.0000

> <Gold.Chemscore.Lipo.Weighted>
-12.3321

> <Gold.Chemscore.Internal_Hbond.Weighted>
0.0000

> <Gold.Chemscore.DEClash.Weighted>
0.2300

> <Gold.Chemscore.DEInternal.Weighted>
2.1285

> <Gold.Chemscore.Rot.Weighted>
3.9966

> <Gold.Chemscore.Internal.Correction.Weighted>
   9.000000E+99

> <Gold.Protein.RotatedTorsions>
[ 6907 6896 6895 6894 ] final   -7.92 input  -60.11 | X-H torsion
[ 7974 7965 7964 7962 ] final    3.52 input  175.53 | X-H torsion
[ 8008 7997 7996 7995 ] final  130.68 input   59.86 | X-H torsion
[ 10167 10162 10161 10158 ] final  -98.10 input  -65.29 | X-H torsion
[ 10718 10713 10712 10709 ] final  110.73 input   66.30 | X-H torsion
[ 10763 10752 10751 10750 ] final   -8.28 input  -60.55 | X-H torsion
[ 11005 11000 10999 10996 ] final  163.26 input  -57.11 | X-H torsion

> <Gold.Protein.ActiveResidues>
 VAL166  LYS551  ARG553  GLY616  TRP617  ASP618  TYR619  PRO620  LYS621  CYS622 
 ASP623  PHE694  ASN695  SER759  ASP760  ASP761  ALA762  ILE779  LEU786  VAL792 
 PHE793  MET794  SER795  GLU796  ALA797  LYS798  CYS799  TRP800  GLU811  SER814 

> <Gold.Protein.RotatedAtoms>
  151.4420  135.1021  159.9672 H   0  0  0  0  0  0  0  0  0  0  0  0  # atno 6907 bound_to 6896
  152.4919  133.8520  159.7217 H   0  0  0  0  0  0  0  0  0  0  0  0  # atno 6908 bound_to 6896
  150.9082  133.6972  159.2889 H   0  0  0  0  0  0  0  0  0  0  0  0  # atno 6909 bound_to 6896
  146.2445  140.0673  142.8364 H   0  0  0  0  0  0  0  0  0  0  0  0  # atno 7974 bound_to 7965
  156.2958  140.2590  156.2801 H   0  0  0  0  0  0  0  0  0  0  0  0  # atno 8008 bound_to 7997
  154.9610  140.0392  157.2208 H   0  0  0  0  0  0  0  0  0  0  0  0  # atno 8009 bound_to 7997
  154.7947  140.2818  155.5970 H   0  0  0  0  0  0  0  0  0  0  0  0  # atno 8010 bound_to 7997
  140.2765  143.3310  152.0483 H   0  0  0  0  0  0  0  0  0  0  0  0  # atno 10167 bound_to 10162
  157.6480  131.0938  150.6645 H   0  0  0  0  0  0  0  0  0  0  0  0  # atno 10718 bound_to 10713
  153.4382  135.7013  153.6186 H   0  0  0  0  0  0  0  0  0  0  0  0  # atno 10763 bound_to 10752
  153.4572  135.3744  155.2318 H   0  0  0  0  0  0  0  0  0  0  0  0  # atno 10764 bound_to 10752
  154.8727  135.4011  154.3777 H   0  0  0  0  0  0  0  0  0  0  0  0  # atno 10765 bound_to 10752
  140.2340  134.8102  157.3345 H   0  0  0  0  0  0  0  0  0  0  0  0  # atno 11005 bound_to 11000
  145.0847  140.9244  143.4804 LP  0  0  0  0  0  0  0  0  0  0  0  0  # atno 17320 bound_to 7965
  145.0833  139.2943  143.5772 LP  0  0  0  0  0  0  0  0  0  0  0  0  # atno 17321 bound_to 7965
  139.4974  144.6621  151.6441 LP  0  0  0  0  0  0  0  0  0  0  0  0  # atno 17342 bound_to 10162
  140.5847  143.9885  150.6288 LP  0  0  0  0  0  0  0  0  0  0  0  0  # atno 17343 bound_to 10162
  156.6959  130.4609  149.5586 LP  0  0  0  0  0  0  0  0  0  0  0  0  # atno 17370 bound_to 10713
  156.1829  130.6510  151.0972 LP  0  0  0  0  0  0  0  0  0  0  0  0  # atno 17371 bound_to 10713
  140.1721  134.4596  155.7825 LP  0  0  0  0  0  0  0  0  0  0  0  0  # atno 17394 bound_to 11000
  141.2216  133.6946  156.7725 LP  0  0  0  0  0  0  0  0  0  0  0  0  # atno 17395 bound_to 11000

$$$$
