AV-unprocessed.smi:2087|AV-procd|sdf|8521|dock7
  -GOLD-   2272011233D 1   1.00000     0.00000
 Structure written by MMmdl.
 51 52  0  0  0  0  0  0  0  0  2 V2000
  143.8955  132.6772  150.6116 C   0  0  0  0  0  0  0  0  0  0  0  0
  145.4079  132.5493  150.8478 C   0  0  0  0  0  0  0  0  0  0  0  0
  146.0930  131.9357  149.6150 C   0  0  0  0  0  0  0  0  0  0  0  0
  145.6901  131.7350  152.1293 C   0  0  0  0  0  0  0  0  0  0  0  0
  147.1285  131.3901  152.2961 N   0  3  2  0  0  0  0  0  0  0  0  0
  147.3525  130.0662  152.9251 C   0  0  0  0  0  0  0  0  0  0  0  0
  147.1340  130.1311  154.4465 C   0  0  0  0  0  0  0  0  0  0  0  0
  147.9987  131.1127  155.0038 O   0  0  0  0  0  0  0  0  0  0  0  0
  147.7383  132.4208  154.5059 C   0  0  1  0  0  0  0  0  0  0  0  0
  148.6787  133.3892  155.2403 C   0  0  0  0  0  0  0  0  0  0  0  0
  147.9414  134.2688  156.1389 N   0  0  0  0  0  0  0  0  0  0  0  0
  148.2062  134.4143  157.4446 C   0  0  0  0  0  0  0  0  0  0  0  0
  149.1215  133.8204  158.0160 O   0  0  0  0  0  0  0  0  0  0  0  0
  147.3086  135.3982  158.2075 C   0  0  0  0  0  0  0  0  0  0  0  0
  147.3004  135.1670  159.6578 N   0  0  0  0  0  0  0  0  0  0  0  0
  147.2501  133.8729  160.1437 C   0  0  0  0  0  0  0  0  0  0  0  0
  147.2239  133.5719  161.4602 C   0  0  0  0  0  0  0  0  0  0  0  0
  147.2504  134.6251  162.4674 C   0  0  0  0  0  0  0  0  0  0  0  0
  147.2157  134.4049  163.6790 O   0  0  0  0  0  0  0  0  0  0  0  0
  147.3120  135.9378  161.9457 N   0  0  0  0  0  0  0  0  0  0  0  0
  147.3274  137.0179  162.9102 C   0  0  0  0  0  0  0  0  0  0  0  0
  147.3274  136.2483  160.5657 C   0  0  0  0  0  0  0  0  0  0  0  0
  147.3574  137.4087  160.1492 O   0  0  0  0  0  0  0  0  0  0  0  0
  147.9473  132.4296  152.9720 C   0  0  0  0  0  0  0  0  0  0  0  0
  143.4322  131.7016  150.4602 H   0  0  0  0  0  0  0  0  0  0  0  0
  143.6849  133.2850  149.7310 H   0  0  0  0  0  0  0  0  0  0  0  0
  143.4026  133.1514  151.4609 H   0  0  0  0  0  0  0  0  0  0  0  0
  145.7899  133.5618  150.9732 H   0  0  0  0  0  0  0  0  0  0  0  0
  145.7525  130.9149  149.4379 H   0  0  0  0  0  0  0  0  0  0  0  0
  147.1769  131.9105  149.7302 H   0  0  0  0  0  0  0  0  0  0  0  0
  145.8775  132.5167  148.7177 H   0  0  0  0  0  0  0  0  0  0  0  0
  145.3313  132.2720  153.0073 H   0  0  0  0  0  0  0  0  0  0  0  0
  145.1024  130.8172  152.0811 H   0  0  0  0  0  0  0  0  0  0  0  0
  146.7130  129.3082  152.4711 H   0  0  0  0  0  0  0  0  0  0  0  0
  148.3795  129.7594  152.7222 H   0  0  0  0  0  0  0  0  0  0  0  0
  146.0948  130.3566  154.6907 H   0  0  0  0  0  0  0  0  0  0  0  0
  147.3629  129.1659  154.8985 H   0  0  0  0  0  0  0  0  0  0  0  0
  146.7098  132.6910  154.7500 H   0  0  0  0  0  0  0  0  0  0  0  0
  149.4067  132.8266  155.8266 H   0  0  0  0  0  0  0  0  0  0  0  0
  149.2424  133.9779  154.5144 H   0  0  0  0  0  0  0  0  0  0  0  0
  147.1719  134.7923  155.7472 H   0  0  0  0  0  0  0  0  0  0  0  0
  147.6570  136.4096  157.9946 H   0  0  0  0  0  0  0  0  0  0  0  0
  146.2909  135.3495  157.8158 H   0  0  0  0  0  0  0  0  0  0  0  0
  147.2245  133.0574  159.4355 H   0  0  0  0  0  0  0  0  0  0  0  0
  147.1796  132.5388  161.7723 H   0  0  0  0  0  0  0  0  0  0  0  0
  147.5748  137.9667  162.4349 H   0  0  0  0  0  0  0  0  0  0  0  0
  148.0918  136.7902  163.6556 H   0  0  0  0  0  0  0  0  0  0  0  0
  146.3332  137.0583  163.3580 H   0  0  0  0  0  0  0  0  0  0  0  0
  148.9957  132.2236  152.7519 H   0  0  0  0  0  0  0  0  0  0  0  0
  147.7427  133.4147  152.5556 H   0  0  0  0  0  0  0  0  0  0  0  0
  147.4857  131.3089  151.3546 H   0  0  0  0  0  0  0  0  0  0  0  0
  1  2  1  0  0  0  0
  1 25  1  0  0  0  0
  1 26  1  0  0  0  0
  1 27  1  0  0  0  0
  2  3  1  0  0  0  0
  2  4  1  0  0  0  0
  2 28  1  0  0  0  0
  3 29  1  0  0  0  0
  3 30  1  0  0  0  0
  3 31  1  0  0  0  0
  4  5  1  0  0  0  0
  4 32  1  0  0  0  0
  4 33  1  0  0  0  0
  5 24  1  0  0  0  0
  5  6  1  0  0  0  0
  5 51  1  0  0  0  0
  6  7  1  0  0  0  0
  6 34  1  0  0  0  0
  6 35  1  0  0  0  0
  7  8  1  0  0  0  0
  7 36  1  0  0  0  0
  7 37  1  0  0  0  0
  8  9  1  0  0  0  0
  9 10  1  0  0  0  0
  9 24  1  0  0  0  0
  9 38  1  0  0  0  0
 10 11  1  0  0  0  0
 10 39  1  0  0  0  0
 10 40  1  0  0  0  0
 11 12  1  0  0  0  0
 11 41  1  0  0  0  0
 12 13  2  0  0  0  0
 12 14  1  0  0  0  0
 14 15  1  0  0  0  0
 14 42  1  0  0  0  0
 14 43  1  0  0  0  0
 15 22  1  0  0  0  0
 15 16  1  0  0  0  0
 16 17  2  0  0  0  0
 16 44  1  0  0  0  0
 17 18  1  0  0  0  0
 17 45  1  0  0  0  0
 18 19  2  0  0  0  0
 18 20  1  0  0  0  0
 20 21  1  0  0  0  0
 20 22  1  0  0  0  0
 21 46  1  0  0  0  0
 21 47  1  0  0  0  0
 21 48  1  0  0  0  0
 22 23  2  0  0  0  0
 24 49  1  0  0  0  0
 24 50  1  0  0  0  0
M  CHG  1   5   1
M  END
> <s_m_source_file>
AV-unprocessed.smi

> <i_m_source_file_index>
2087

> <i_lp_mmshare_version>
43012

> <i_f3d_flags>
0

> <s_epik_input>
W0NIM11bQ0hdKFtDSDNdKVtDSDJdTjFbQ0gyXVtDSDJdT1tDQEhdKFtDSDJdMSlbQ0gyXVtOSF1DKD1PKVtDSDJdbjJbY0hdW2NIXWMoPU8pbihbQ0gzXSljMj1P

> <s_epik_cmdline>
J2VwaWtfcHl0aG9uJywgJy1waCcsICc3LjAnLCAnLXRuJywgJzgnLCAnLW1hJywgJzIwMCcsICctbWV0YWxfYmluZGluZycsICctaW1hZScsICc8aW5maWxlLm1hZT4nLCAnLW9tYWUnLCAnPG91dGZpbGUubWFlPic=

> <r_lp_tautomer_probability>
1

> <r_epik_Ionization_Penalty>
0.097593

> <r_epik_Ionization_Penalty_Charging>
0.097593

> <r_epik_Ionization_Penalty_Neutral>
6.27044e-08

> <r_epik_State_Penalty>
0.0877056

> <r_epik_Charging_Adjusted_Penalty>
0.185299

> <i_epik_Tot_Q>
1

> <i_epik_Tot_abs_Q>
1

> <r_epik_Metal_State_Penalty>
0.0877109

> <b_epik_Metal_Only>
0

> <s_lp_Force_Field>
OPLS_2005

> <r_lp_Energy>
29.4179

> <b_lp_Chiralities_Consistent>
1

> <s_lp_Variant>
AV-unprocessed.smi:2087-2

> <Gold.Version>
5.8.1

> <Gold.Id.Protein>
6NUR|6NUR_protein|mol2

> <Gold.PLP.Fitness>
45.0089

> <Gold.PLP.PLP>
-39.8593

> <Gold.PLP.part.hbond>
-5.4623

> <Gold.PLP.part.metal>
0.0000

> <Gold.PLP.part.buried>
-1.5614

> <Gold.PLP.part.nonpolar>
-33.3910

> <Gold.PLP.part.repulsive>
0.0670

> <Gold.PLP.ligand.clash>
0.0000

> <Gold.PLP.ligand.torsion>
1.7386

> <Gold.PLP.Chemscore.Hbond>
2.8261

> <Gold.PLP.Chemscore.CHOScore>
0.0000

> <Gold.PLP.Chemscore.Metal>
0.0000

> <Gold.Chemscore.Hbonds>
donor molecule, donor type, donor heavy atom, donor atom, acceptor molecule, acceptor atom, score
      L1  H     5    51       P1 10747  0.91
      P1  H  6896  6908       L1    13  0.98
      P1  H  6934  6947       L1    23  1.00

> <Gold.PLP.Chemscore.Internal.Correction>
0.1485

> <Gold.Rescore>
     Score         DG    S(hbond)    S(metal)    S(lipo)     H(rot)  DE(clash)    DE(int)     intcor
     13.82     -18.81       2.82        0.00      82.17       2.22       2.17       2.82       ----

> <Gold.Chemscore.Fitness>
13.8227

> <Gold.Chemscore.DG>
-18.8101

> <Gold.Chemscore.ZeroCoef>
-5.4800

> <Gold.Chemscore.Hbond>
2.8178

> <Gold.Chemscore.Metal>
0.0000

> <Gold.Chemscore.Lipo>
82.1724

> <Gold.Chemscore.Internal_Hbond>
0.0000

> <Gold.Chemscore.DEClash>
2.1667

> <Gold.Chemscore.DEInternal>
2.8206

> <Gold.Chemscore.Rot>
2.2249

> <Gold.Chemscore.Internal.Correction>
   9.000000E+99

> <Gold.Chemscore.Hbonds>
donor molecule, donor type, donor heavy atom, donor atom, acceptor molecule, acceptor atom, score
      L1  H     5    51       P1 10747  0.89
      P1  H  6896  6908       L1    13  0.91
      P1  H  6934  6947       L1    23  0.95

> <Gold.Chemscore.Hbond.Weighted>
-9.4116

> <Gold.Chemscore.Metal.Weighted>
-0.0000

> <Gold.Chemscore.Lipo.Weighted>
-9.6142

> <Gold.Chemscore.Internal_Hbond.Weighted>
0.0000

> <Gold.Chemscore.DEClash.Weighted>
2.1667

> <Gold.Chemscore.DEInternal.Weighted>
2.8206

> <Gold.Chemscore.Rot.Weighted>
5.6957

> <Gold.Chemscore.Internal.Correction.Weighted>
   9.000000E+99

> <Gold.Protein.RotatedTorsions>
[ 6907 6896 6895 6894 ] final  131.92 input  -60.11 | X-H torsion
[ 7974 7965 7964 7962 ] final -132.11 input  175.53 | X-H torsion
[ 8008 7997 7996 7995 ] final   33.87 input   59.86 | X-H torsion
[ 10167 10162 10161 10158 ] final   99.61 input  -65.29 | X-H torsion
[ 10718 10713 10712 10709 ] final   57.03 input   66.30 | X-H torsion
[ 10763 10752 10751 10750 ] final -168.14 input  -60.55 | X-H torsion
[ 11005 11000 10999 10996 ] final  170.28 input  -57.11 | X-H torsion

> <Gold.Protein.ActiveResidues>
 VAL166  LYS551  ARG553  GLY616  TRP617  ASP618  TYR619  PRO620  LYS621  CYS622 
 ASP623  PHE694  ASN695  SER759  ASP760  ASP761  ALA762  ILE779  LEU786  VAL792 
 PHE793  MET794  SER795  GLU796  ALA797  LYS798  CYS799  TRP800  GLU811  SER814 

> <Gold.Protein.RotatedAtoms>
  152.3376  133.6030  159.5853 H   0  0  0  0  0  0  0  0  0  0  0  0  # atno 6907 bound_to 6896
  150.7460  133.9771  159.3573 H   0  0  0  0  0  0  0  0  0  0  0  0  # atno 6908 bound_to 6896
  151.7639  135.0804  160.0401 H   0  0  0  0  0  0  0  0  0  0  0  0  # atno 6909 bound_to 6896
  144.9316  140.7135  143.4902 H   0  0  0  0  0  0  0  0  0  0  0  0  # atno 7974 bound_to 7965
  155.1456  140.3270  155.4442 H   0  0  0  0  0  0  0  0  0  0  0  0  # atno 8008 bound_to 7997
  156.2590  140.1986  156.6520 H   0  0  0  0  0  0  0  0  0  0  0  0  # atno 8009 bound_to 7997
  154.6510  140.0558  156.9942 H   0  0  0  0  0  0  0  0  0  0  0  0  # atno 8010 bound_to 7997
  139.7601  144.6957  151.0304 H   0  0  0  0  0  0  0  0  0  0  0  0  # atno 10167 bound_to 10162
  157.5480  130.8745  149.8921 H   0  0  0  0  0  0  0  0  0  0  0  0  # atno 10718 bound_to 10713
  154.6659  135.2932  154.9805 H   0  0  0  0  0  0  0  0  0  0  0  0  # atno 10763 bound_to 10752
  154.0849  135.6599  153.4847 H   0  0  0  0  0  0  0  0  0  0  0  0  # atno 10764 bound_to 10752
  153.0457  135.5206  154.7632 H   0  0  0  0  0  0  0  0  0  0  0  0  # atno 10765 bound_to 10752
  140.3067  134.7550  157.3959 H   0  0  0  0  0  0  0  0  0  0  0  0  # atno 11005 bound_to 11000
  145.3133  139.1812  143.4627 LP  0  0  0  0  0  0  0  0  0  0  0  0  # atno 17320 bound_to 7965
  146.3249  140.3140  142.8628 LP  0  0  0  0  0  0  0  0  0  0  0  0  # atno 17321 bound_to 7965
  140.7806  143.4706  151.0151 LP  0  0  0  0  0  0  0  0  0  0  0  0  # atno 17342 bound_to 10162
  139.8393  143.7586  152.3180 LP  0  0  0  0  0  0  0  0  0  0  0  0  # atno 17343 bound_to 10162
  156.0552  130.3710  150.1107 LP  0  0  0  0  0  0  0  0  0  0  0  0  # atno 17370 bound_to 10713
  156.9282  130.9705  151.3537 LP  0  0  0  0  0  0  0  0  0  0  0  0  # atno 17371 bound_to 10713
  140.1061  134.5408  155.8308 LP  0  0  0  0  0  0  0  0  0  0  0  0  # atno 17394 bound_to 11000
  141.2117  133.6710  156.6601 LP  0  0  0  0  0  0  0  0  0  0  0  0  # atno 17395 bound_to 11000

$$$$
