AV-unprocessed.smi:3048|AV-procd|sdf|11626|dock10
  -GOLD-   2272017 13D 1   1.00000     0.00000
 Structure written by MMmdl.
 38 39  0  0  0  0  0  0  0  0  2 V2000
  145.6398  133.0364  150.1823 C   0  0  0  0  0  0  0  0  0  0  0  0
  145.2818  134.2875  150.9319 C   0  0  0  0  0  0  0  0  0  0  0  0
  143.9820  134.7949  151.2164 C   0  0  0  0  0  0  0  0  0  0  0  0
  144.0108  135.9261  151.9021 N   0  0  0  0  0  0  0  0  0  0  0  0
  145.3251  136.1814  152.0777 N   0  0  0  0  0  0  0  0  0  0  0  0
  145.7405  137.3643  152.8110 C   0  0  0  0  0  0  0  0  0  0  0  0
  146.5128  138.3569  151.9267 C   0  0  0  0  0  0  0  0  0  0  0  0
  147.8673  138.6159  152.4546 N   0  3  0  0  0  0  0  0  0  0  0  0
  147.8896  139.2520  153.7858 C   0  0  0  0  0  0  0  0  0  0  0  0
  149.3138  139.6851  154.1615 C   0  0  1  0  0  0  0  0  0  0  0  0
  149.3307  140.6051  155.3975 C   0  0  0  0  0  0  0  0  0  0  0  0
  150.7714  140.9512  155.7909 C   0  0  0  0  0  0  0  0  0  0  0  0
  151.5858  139.6638  155.9561 C   0  0  0  0  0  0  0  0  0  0  0  0
  151.4490  138.7790  154.7067 C   0  0  0  0  0  0  0  0  0  0  0  0
  150.0736  138.5125  154.4482 O   0  0  0  0  0  0  0  0  0  0  0  0
  146.1146  135.2089  151.5014 C   0  0  0  0  0  0  0  0  0  0  0  0
  144.7609  132.5552  149.7523 H   0  0  0  0  0  0  0  0  0  0  0  0
  146.1219  132.3038  150.8297 H   0  0  0  0  0  0  0  0  0  0  0  0
  146.3266  133.2422  149.3610 H   0  0  0  0  0  0  0  0  0  0  0  0
  143.0236  134.3751  150.9478 H   0  0  0  0  0  0  0  0  0  0  0  0
  144.8476  137.8460  153.2110 H   0  0  0  0  0  0  0  0  0  0  0  0
  146.3408  137.0607  153.6702 H   0  0  0  0  0  0  0  0  0  0  0  0
  146.5829  137.9725  150.9082 H   0  0  0  0  0  0  0  0  0  0  0  0
  145.9697  139.3012  151.8754 H   0  0  0  0  0  0  0  0  0  0  0  0
  148.3669  137.7395  152.5089 H   0  0  0  0  0  0  0  0  0  0  0  0
  147.2339  140.1236  153.7652 H   0  0  0  0  0  0  0  0  0  0  0  0
  147.4893  138.5639  154.5316 H   0  0  0  0  0  0  0  0  0  0  0  0
  149.7600  140.2099  153.3144 H   0  0  0  0  0  0  0  0  0  0  0  0
  148.7706  141.5192  155.1980 H   0  0  0  0  0  0  0  0  0  0  0  0
  148.8339  140.1093  156.2329 H   0  0  0  0  0  0  0  0  0  0  0  0
  151.2232  141.5758  155.0191 H   0  0  0  0  0  0  0  0  0  0  0  0
  150.7859  141.5325  156.7133 H   0  0  0  0  0  0  0  0  0  0  0  0
  152.6343  139.9008  156.1388 H   0  0  0  0  0  0  0  0  0  0  0  0
  151.2315  139.1156  156.8301 H   0  0  0  0  0  0  0  0  0  0  0  0
  151.9069  139.2564  153.8390 H   0  0  0  0  0  0  0  0  0  0  0  0
  151.9686  137.8328  154.8597 H   0  0  0  0  0  0  0  0  0  0  0  0
  147.1933  135.2507  151.5448 H   0  0  0  0  0  0  0  0  0  0  0  0
  148.3494  139.2183  151.8022 H   0  0  0  0  0  0  0  0  0  0  0  0
  1  2  1  0  0  0  0
  1 17  1  0  0  0  0
  1 18  1  0  0  0  0
  1 19  1  0  0  0  0
  2 16  2  0  0  0  0
  2  3  1  0  0  0  0
  3  4  2  0  0  0  0
  3 20  1  0  0  0  0
  4  5  1  0  0  0  0
  5  6  1  0  0  0  0
  5 16  1  0  0  0  0
  6  7  1  0  0  0  0
  6 21  1  0  0  0  0
  6 22  1  0  0  0  0
  7  8  1  0  0  0  0
  7 23  1  0  0  0  0
  7 24  1  0  0  0  0
  8  9  1  0  0  0  0
  8 25  1  0  0  0  0
  8 38  1  0  0  0  0
  9 10  1  0  0  0  0
  9 26  1  0  0  0  0
  9 27  1  0  0  0  0
 10 15  1  0  0  0  0
 10 11  1  0  0  0  0
 10 28  1  0  0  0  0
 11 12  1  0  0  0  0
 11 29  1  0  0  0  0
 11 30  1  0  0  0  0
 12 13  1  0  0  0  0
 12 31  1  0  0  0  0
 12 32  1  0  0  0  0
 13 14  1  0  0  0  0
 13 33  1  0  0  0  0
 13 34  1  0  0  0  0
 14 15  1  0  0  0  0
 14 35  1  0  0  0  0
 14 36  1  0  0  0  0
 16 37  1  0  0  0  0
M  CHG  1   8   1
M  END
> <s_m_source_file>
AV-unprocessed.smi

> <i_m_source_file_index>
3048

> <i_lp_mmshare_version>
43012

> <i_f3d_flags>
0

> <s_epik_input>
W0NIM11jMVtjSF1ubihbY0hdMSlbQ0gyXVtDSDJdW05IXVtDSDJdW0NAQEhdMltDSDJdW0NIMl1bQ0gyXVtDSDJdTzI=

> <s_epik_cmdline>
J2VwaWtfcHl0aG9uJywgJy1waCcsICc3LjAnLCAnLXRuJywgJzgnLCAnLW1hJywgJzIwMCcsICctbWV0YWxfYmluZGluZycsICctaW1hZScsICc8aW5maWxlLm1hZT4nLCAnLW9tYWUnLCAnPG91dGZpbGUubWFlPic=

> <r_lp_tautomer_probability>
1

> <r_epik_Ionization_Penalty>
0.0084937

> <r_epik_Ionization_Penalty_Charging>
0.00848754

> <r_epik_Ionization_Penalty_Neutral>
6.1613e-06

> <r_epik_State_Penalty>
0.00639836

> <r_epik_Charging_Adjusted_Penalty>
0.0148859

> <i_epik_Tot_Q>
1

> <i_epik_Tot_abs_Q>
1

> <r_epik_Metal_State_Penalty>
0.00642541

> <b_epik_Metal_Only>
0

> <s_lp_Force_Field>
OPLS_2005

> <r_lp_Energy>
10.7756

> <b_lp_Chiralities_Consistent>
1

> <s_lp_Variant>
AV-unprocessed.smi:3048-2

> <Gold.Version>
5.8.1

> <Gold.Id.Protein>
6NUR|6NUR_protein|mol2

> <Gold.PLP.Fitness>
44.9179

> <Gold.PLP.PLP>
-30.8914

> <Gold.PLP.part.hbond>
-2.0000

> <Gold.PLP.part.metal>
0.0000

> <Gold.PLP.part.buried>
-0.3718

> <Gold.PLP.part.nonpolar>
-28.9280

> <Gold.PLP.part.repulsive>
0.4414

> <Gold.PLP.ligand.clash>
0.0000

> <Gold.PLP.ligand.torsion>
0.4885

> <Gold.PLP.Chemscore.Hbond>
3.0000

> <Gold.PLP.Chemscore.CHOScore>
1.9974

> <Gold.PLP.Chemscore.Metal>
0.0000

> <Gold.Chemscore.Hbonds>
donor molecule, donor type, donor heavy atom, donor atom, acceptor molecule, acceptor atom, score
      L1  H     8    25       P1  7948  2.00
      L1  H     8    38       P1  7957  1.00
      L1  C     3    20       P1 10186  1.00
      L1  C    16    37       P1  7948  0.90

> <Gold.PLP.Chemscore.Internal.Correction>
0.0111

> <Gold.Rescore>
     Score         DG    S(hbond)    S(metal)    S(lipo)     H(rot)  DE(clash)    DE(int)     intcor
     16.19     -16.92       1.94        0.00      77.88       1.61       0.24       0.49       ----

> <Gold.Chemscore.Fitness>
16.1884

> <Gold.Chemscore.DG>
-16.9211

> <Gold.Chemscore.ZeroCoef>
-5.4800

> <Gold.Chemscore.Hbond>
1.9353

> <Gold.Chemscore.Metal>
0.0000

> <Gold.Chemscore.Lipo>
77.8753

> <Gold.Chemscore.Internal_Hbond>
0.0000

> <Gold.Chemscore.DEClash>
0.2418

> <Gold.Chemscore.DEInternal>
0.4909

> <Gold.Chemscore.Rot>
1.6149

> <Gold.Chemscore.Internal.Correction>
   9.000000E+99

> <Gold.Chemscore.Hbonds>
donor molecule, donor type, donor heavy atom, donor atom, acceptor molecule, acceptor atom, score
      L1  H     8    25       P1  7948  0.97
      L1  H     8    38       P1  7957  0.96

> <Gold.Chemscore.Hbond.Weighted>
-6.4638

> <Gold.Chemscore.Metal.Weighted>
-0.0000

> <Gold.Chemscore.Lipo.Weighted>
-9.1114

> <Gold.Chemscore.Internal_Hbond.Weighted>
0.0000

> <Gold.Chemscore.DEClash.Weighted>
0.2418

> <Gold.Chemscore.DEInternal.Weighted>
0.4909

> <Gold.Chemscore.Rot.Weighted>
4.1341

> <Gold.Chemscore.Internal.Correction.Weighted>
   9.000000E+99

> <Gold.Protein.RotatedTorsions>
[ 6907 6896 6895 6894 ] final  -41.89 input  -60.11 | X-H torsion
[ 7974 7965 7964 7962 ] final   39.47 input  175.53 | X-H torsion
[ 8008 7997 7996 7995 ] final   15.12 input   59.86 | X-H torsion
[ 10167 10162 10161 10158 ] final   -2.61 input  -65.29 | X-H torsion
[ 10718 10713 10712 10709 ] final  -75.47 input   66.30 | X-H torsion
[ 10763 10752 10751 10750 ] final   15.04 input  -60.55 | X-H torsion
[ 11005 11000 10999 10996 ] final    5.92 input  -57.11 | X-H torsion

> <Gold.Protein.ActiveResidues>
 VAL166  LYS551  ARG553  GLY616  TRP617  ASP618  TYR619  PRO620  LYS621  CYS622 
 ASP623  PHE694  ASN695  SER759  ASP760  ASP761  ALA762  ILE779  LEU786  VAL792 
 PHE793  MET794  SER795  GLU796  ALA797  LYS798  CYS799  TRP800  GLU811  SER814 

> <Gold.Protein.RotatedAtoms>
  150.9616  134.9003  159.7733 H   0  0  0  0  0  0  0  0  0  0  0  0  # atno 6907 bound_to 6896
  152.5158  134.3665  159.9313 H   0  0  0  0  0  0  0  0  0  0  0  0  # atno 6908 bound_to 6896
  151.3677  133.3825  159.2731 H   0  0  0  0  0  0  0  0  0  0  0  0  # atno 6909 bound_to 6896
  146.0981  139.5648  142.9432 H   0  0  0  0  0  0  0  0  0  0  0  0  # atno 7974 bound_to 7965
  154.8582  140.2940  155.5556 H   0  0  0  0  0  0  0  0  0  0  0  0  # atno 8008 bound_to 7997
  156.3019  140.2483  156.3484 H   0  0  0  0  0  0  0  0  0  0  0  0  # atno 8009 bound_to 7997
  154.8947  140.0393  157.1848 H   0  0  0  0  0  0  0  0  0  0  0  0  # atno 8010 bound_to 7997
  140.6858  143.6636  150.8245 H   0  0  0  0  0  0  0  0  0  0  0  0  # atno 10167 bound_to 10162
  156.0206  130.4441  150.3048 H   0  0  0  0  0  0  0  0  0  0  0  0  # atno 10718 bound_to 10713
  153.1563  135.6788  153.8807 H   0  0  0  0  0  0  0  0  0  0  0  0  # atno 10763 bound_to 10752
  153.8217  135.3129  155.3412 H   0  0  0  0  0  0  0  0  0  0  0  0  # atno 10764 bound_to 10752
  154.7900  135.4840  154.0119 H   0  0  0  0  0  0  0  0  0  0  0  0  # atno 10765 bound_to 10752
  140.5653  134.0153  155.7987 H   0  0  0  0  0  0  0  0  0  0  0  0  # atno 11005 bound_to 11000
  145.5908  141.0370  143.2071 LP  0  0  0  0  0  0  0  0  0  0  0  0  # atno 17320 bound_to 7965
  144.7411  139.7446  143.7310 LP  0  0  0  0  0  0  0  0  0  0  0  0  # atno 17321 bound_to 7965
  140.0343  143.5411  152.2746 LP  0  0  0  0  0  0  0  0  0  0  0  0  # atno 17342 bound_to 10162
  139.6215  144.7630  151.2729 LP  0  0  0  0  0  0  0  0  0  0  0  0  # atno 17343 bound_to 10162
  157.1150  131.0231  151.3032 LP  0  0  0  0  0  0  0  0  0  0  0  0  # atno 17370 bound_to 10713
  157.4674  130.7688  149.7291 LP  0  0  0  0  0  0  0  0  0  0  0  0  # atno 17371 bound_to 10713
  141.1089  133.9648  157.2946 LP  0  0  0  0  0  0  0  0  0  0  0  0  # atno 17394 bound_to 11000
  139.9388  135.0193  156.8641 LP  0  0  0  0  0  0  0  0  0  0  0  0  # atno 17395 bound_to 11000

$$$$
