AV-unprocessed.smi:603|AV-procd|sdf|3036|dock2
  -GOLD-   2262023553D 1   1.00000     0.00000
 Structure written by MMmdl.
 35 36  0  0  0  0  0  0  0  0  1 V2000
  150.3233  140.7518  157.8649 O   0  0  0  0  0  0  0  0  0  0  0  0
  150.3548  141.8840  157.3784 C   0  0  0  0  0  0  0  0  0  0  0  0
  151.5861  142.7615  157.6296 C   0  0  0  0  0  0  0  0  0  0  0  0
  151.9845  142.7435  159.0436 N   0  0  0  0  0  0  0  0  0  0  0  0
  151.5519  143.8437  159.7636 N   0  0  0  0  0  0  0  0  0  0  0  0
  151.8350  143.9339  161.0172 C   0  0  0  0  0  0  0  0  0  0  0  0
  152.5990  142.9196  161.7090 C   0  0  0  0  0  0  0  0  0  0  0  0
  152.9477  143.0942  163.3927 Cl  0  0  0  0  0  0  0  0  0  0  0  0
  153.0227  141.8475  160.9935 C   0  0  0  0  0  0  0  0  0  0  0  0
  153.9420  140.5929  161.7516 Cl  0  0  0  0  0  0  0  0  0  0  0  0
  152.7191  141.7115  159.5620 C   0  0  0  0  0  0  0  0  0  0  0  0
  153.0861  140.7544  158.8792 O   0  0  0  0  0  0  0  0  0  0  0  0
  149.3879  142.4469  156.6170 N   0  0  0  0  0  0  0  0  0  0  0  0
  148.1954  141.9659  156.1936 C   0  0  0  0  0  0  0  0  0  0  0  0
  147.6985  140.9724  156.7218 O   0  0  0  0  0  0  0  0  0  0  0  0
  147.5940  142.6191  155.1814 N   0  0  0  0  0  0  0  0  0  0  0  0
  146.2442  142.3607  154.6879 C   0  0  0  0  0  0  0  0  0  0  0  0
  145.9264  143.2113  153.4418 C   0  0  0  0  0  0  0  0  0  0  0  0
  144.9407  144.2835  153.9059 C   0  0  0  0  0  0  0  0  0  0  0  0
  144.1564  143.6070  155.0256 C   0  0  0  0  0  0  0  0  0  0  0  0
  145.1937  142.7451  155.7478 C   0  0  0  0  0  0  0  0  0  0  0  0
  152.4099  142.4463  156.9863 H   0  0  0  0  0  0  0  0  0  0  0  0
  151.3545  143.7818  157.3175 H   0  0  0  0  0  0  0  0  0  0  0  0
  151.5134  144.7806  161.6239 H   0  0  0  0  0  0  0  0  0  0  0  0
  149.5924  143.3849  156.3039 H   0  0  0  0  0  0  0  0  0  0  0  0
  148.1144  143.3521  154.7203 H   0  0  0  0  0  0  0  0  0  0  0  0
  146.1416  141.3020  154.4425 H   0  0  0  0  0  0  0  0  0  0  0  0
  146.8102  143.6452  152.9721 H   0  0  0  0  0  0  0  0  0  0  0  0
  145.4447  142.5814  152.6930 H   0  0  0  0  0  0  0  0  0  0  0  0
  145.4879  145.1385  154.3056 H   0  0  0  0  0  0  0  0  0  0  0  0
  144.3002  144.6426  153.1000 H   0  0  0  0  0  0  0  0  0  0  0  0
  143.6687  144.3216  155.6891 H   0  0  0  0  0  0  0  0  0  0  0  0
  143.3828  142.9689  154.5963 H   0  0  0  0  0  0  0  0  0  0  0  0
  144.7401  141.8697  156.2135 H   0  0  0  0  0  0  0  0  0  0  0  0
  145.6489  143.3334  156.5465 H   0  0  0  0  0  0  0  0  0  0  0  0
  1  2  2  0  0  0  0
  2  3  1  0  0  0  0
  2 13  1  0  0  0  0
  3  4  1  0  0  0  0
  3 22  1  0  0  0  0
  3 23  1  0  0  0  0
  4 11  1  0  0  0  0
  4  5  1  0  0  0  0
  5  6  2  0  0  0  0
  6  7  1  0  0  0  0
  6 24  1  0  0  0  0
  7  8  1  0  0  0  0
  7  9  2  0  0  0  0
  9 10  1  0  0  0  0
  9 11  1  0  0  0  0
 11 12  2  0  0  0  0
 13 14  1  0  0  0  0
 13 25  1  0  0  0  0
 14 15  2  0  0  0  0
 14 16  1  0  0  0  0
 16 17  1  0  0  0  0
 16 26  1  0  0  0  0
 17 21  1  0  0  0  0
 17 18  1  0  0  0  0
 17 27  1  0  0  0  0
 18 19  1  0  0  0  0
 18 28  1  0  0  0  0
 18 29  1  0  0  0  0
 19 20  1  0  0  0  0
 19 30  1  0  0  0  0
 19 31  1  0  0  0  0
 20 21  1  0  0  0  0
 20 32  1  0  0  0  0
 20 33  1  0  0  0  0
 21 34  1  0  0  0  0
 21 35  1  0  0  0  0
M  END
> <s_m_source_file>
AV-unprocessed.smi

> <i_m_source_file_index>
603

> <i_lp_mmshare_version>
43012

> <i_f3d_flags>
0

> <s_epik_input>
W0NIMl0xW0NIMl1bQ0gyXVtDSDJdW0NIXTFbTkhdQyg9TylbTkhdQyg9TylbQ0gyXW4ybltjSF1jKENsKWMoQ2wpYzI9Tw==

> <s_epik_cmdline>
J2VwaWtfcHl0aG9uJywgJy1waCcsICc3LjAnLCAnLXRuJywgJzgnLCAnLW1hJywgJzIwMCcsICctbWV0YWxfYmluZGluZycsICctaW1hZScsICc8aW5maWxlLm1hZT4nLCAnLW9tYWUnLCAnPG91dGZpbGUubWFlPic=

> <r_lp_tautomer_probability>
1

> <r_epik_Ionization_Penalty>
3.28905e-05

> <r_epik_Ionization_Penalty_Charging>
2.24292e-11

> <r_epik_Ionization_Penalty_Neutral>
3.28905e-05

> <r_epik_State_Penalty>
-0

> <r_epik_Charging_Adjusted_Penalty>
2.24292e-11

> <i_epik_Tot_Q>
0

> <i_epik_Tot_abs_Q>
0

> <r_epik_Metal_State_Penalty>
-0

> <b_epik_Metal_Only>
0

> <s_lp_Force_Field>
OPLS_2005

> <r_lp_Energy>
36.9935

> <b_lp_Chiralities_Consistent>
1

> <s_lp_Variant>
AV-unprocessed.smi:603-1

> <Gold.Version>
5.8.1

> <Gold.Id.Protein>
6NUR|6NUR_protein|mol2

> <Gold.PLP.Fitness>
48.5917

> <Gold.PLP.PLP>
-43.7521

> <Gold.PLP.part.hbond>
-3.0000

> <Gold.PLP.part.metal>
0.0000

> <Gold.PLP.part.buried>
-5.0128

> <Gold.PLP.part.nonpolar>
-35.4102

> <Gold.PLP.part.repulsive>
0.1616

> <Gold.PLP.ligand.clash>
0.0000

> <Gold.PLP.ligand.torsion>
0.5576

> <Gold.PLP.Chemscore.Hbond>
1.9720

> <Gold.PLP.Chemscore.CHOScore>
0.0000

> <Gold.PLP.Chemscore.Metal>
0.0000

> <Gold.Chemscore.Hbonds>
donor molecule, donor type, donor heavy atom, donor atom, acceptor molecule, acceptor atom, score
      L1  H    13    25       P1  8028  0.85
      L1  H    16    26       P1  8028  0.45

> <Gold.PLP.Chemscore.Internal.Correction>
0.0386

> <Gold.Rescore>
     Score         DG    S(hbond)    S(metal)    S(lipo)     H(rot)  DE(clash)    DE(int)     intcor
     13.85     -16.71       1.56        0.00      87.54       1.65       0.31       2.54       ----

> <Gold.Chemscore.Fitness>
13.8522

> <Gold.Chemscore.DG>
-16.7085

> <Gold.Chemscore.ZeroCoef>
-5.4800

> <Gold.Chemscore.Hbond>
1.5633

> <Gold.Chemscore.Metal>
0.0000

> <Gold.Chemscore.Lipo>
87.5379

> <Gold.Chemscore.Internal_Hbond>
0.0000

> <Gold.Chemscore.DEClash>
0.3112

> <Gold.Chemscore.DEInternal>
2.5450

> <Gold.Chemscore.Rot>
1.6543

> <Gold.Chemscore.Internal.Correction>
   9.000000E+99

> <Gold.Chemscore.Hbonds>
donor molecule, donor type, donor heavy atom, donor atom, acceptor molecule, acceptor atom, score
      L1  H    13    25       P1  8028  0.83
      L1  H    16    26       P1  8028  0.43
      P1  H  7997  8009       L1    12  0.01

> <Gold.Chemscore.Hbond.Weighted>
-5.2214

> <Gold.Chemscore.Metal.Weighted>
-0.0000

> <Gold.Chemscore.Lipo.Weighted>
-10.2419

> <Gold.Chemscore.Internal_Hbond.Weighted>
0.0000

> <Gold.Chemscore.DEClash.Weighted>
0.3112

> <Gold.Chemscore.DEInternal.Weighted>
2.5450

> <Gold.Chemscore.Rot.Weighted>
4.2349

> <Gold.Chemscore.Internal.Correction.Weighted>
   9.000000E+99

> <Gold.Protein.RotatedTorsions>
[ 6907 6896 6895 6894 ] final  162.91 input  -60.11 | X-H torsion
[ 7974 7965 7964 7962 ] final -179.12 input  175.53 | X-H torsion
[ 8008 7997 7996 7995 ] final  136.22 input   59.86 | X-H torsion
[ 10167 10162 10161 10158 ] final  156.13 input  -65.29 | X-H torsion
[ 10718 10713 10712 10709 ] final -178.99 input   66.30 | X-H torsion
[ 10763 10752 10751 10750 ] final   13.15 input  -60.55 | X-H torsion
[ 11005 11000 10999 10996 ] final  137.55 input  -57.11 | X-H torsion

> <Gold.Protein.ActiveResidues>
 VAL166  LYS551  ARG553  GLY616  TRP617  ASP618  TYR619  PRO620  LYS621  CYS622 
 ASP623  PHE694  ASN695  SER759  ASP760  ASP761  ALA762  ILE779  LEU786  VAL792 
 PHE793  MET794  SER795  GLU796  ALA797  LYS798  CYS799  TRP800  GLU811  SER814 

> <Gold.Protein.RotatedAtoms>
  151.9333  133.3617  159.3938 H   0  0  0  0  0  0  0  0  0  0  0  0  # atno 6907 bound_to 6896
  150.7013  134.4515  159.5347 H   0  0  0  0  0  0  0  0  0  0  0  0  # atno 6908 bound_to 6896
  152.2159  134.8458  160.0542 H   0  0  0  0  0  0  0  0  0  0  0  0  # atno 6909 bound_to 6896
  144.7134  140.0766  143.6427 H   0  0  0  0  0  0  0  0  0  0  0  0  # atno 7974 bound_to 7965
  156.3004  140.2450  156.3710 H   0  0  0  0  0  0  0  0  0  0  0  0  # atno 8008 bound_to 7997
  154.8789  140.0413  157.1789 H   0  0  0  0  0  0  0  0  0  0  0  0  # atno 8009 bound_to 7997
  154.8717  140.2936  155.5481 H   0  0  0  0  0  0  0  0  0  0  0  0  # atno 8010 bound_to 7997
  139.4821  144.5036  151.8131 H   0  0  0  0  0  0  0  0  0  0  0  0  # atno 10167 bound_to 10162
  156.8525  130.9724  151.3091 H   0  0  0  0  0  0  0  0  0  0  0  0  # atno 10718 bound_to 10713
  153.1750  135.6818  153.8555 H   0  0  0  0  0  0  0  0  0  0  0  0  # atno 10763 bound_to 10752
  153.7906  135.3169  155.3379 H   0  0  0  0  0  0  0  0  0  0  0  0  # atno 10764 bound_to 10752
  154.8023  135.4770  154.0399 H   0  0  0  0  0  0  0  0  0  0  0  0  # atno 10765 bound_to 10752
  140.0121  134.9434  157.0300 H   0  0  0  0  0  0  0  0  0  0  0  0  # atno 11005 bound_to 11000
  145.9738  139.2889  143.1083 LP  0  0  0  0  0  0  0  0  0  0  0  0  # atno 17320 bound_to 7965
  145.9087  140.9194  143.0465 LP  0  0  0  0  0  0  0  0  0  0  0  0  # atno 17321 bound_to 7965
  140.4532  144.1826  150.5899 LP  0  0  0  0  0  0  0  0  0  0  0  0  # atno 17342 bound_to 10162
  140.4563  143.2466  151.9280 LP  0  0  0  0  0  0  0  0  0  0  0  0  # atno 17343 bound_to 10162
  157.6295  130.8718  149.9249 LP  0  0  0  0  0  0  0  0  0  0  0  0  # atno 17370 bound_to 10713
  156.0820  130.3672  150.0561 LP  0  0  0  0  0  0  0  0  0  0  0  0  # atno 17371 bound_to 10713
  140.4535  134.1558  155.7184 LP  0  0  0  0  0  0  0  0  0  0  0  0  # atno 17394 bound_to 11000
  141.1718  133.8593  157.1546 LP  0  0  0  0  0  0  0  0  0  0  0  0  # atno 17395 bound_to 11000

$$$$
