AV-unprocessed.smi:509|AV-procd|sdf|2760|dock9
  -GOLD-   2262023223D 1   1.00000     0.00000
 Structure written by MMmdl.
 46 48  0  0  0  0  0  0  0  0  2 V2000
  152.1965  145.3231  159.0851 C   0  0  0  0  0  0  0  0  0  0  0  0
  152.0753  144.0965  158.3877 O   0  0  0  0  0  0  0  0  0  0  0  0
  150.8014  143.9376  157.7846 C   0  0  0  0  0  0  0  0  0  0  0  0
  150.3568  142.4737  157.9051 C   0  0  0  0  0  0  0  0  0  0  0  0
  151.4960  141.5680  158.0497 N   0  0  0  0  0  0  0  0  0  0  0  0
  151.9339  140.5944  157.2030 C   0  0  0  0  0  0  0  0  0  0  0  0
  151.3256  140.3290  155.9742 N   0  0  0  0  0  0  0  0  0  0  0  0
  150.3151  141.1487  155.3064 C   0  0  0  0  0  0  0  0  0  0  0  0
  149.1294  140.2961  154.8183 C   0  0  0  0  0  0  0  0  0  0  0  0
  149.6037  139.2207  153.9229 N   0  3  0  0  0  0  0  0  0  0  0  0
  150.6880  138.4171  154.5243 C   0  0  0  0  0  0  0  0  0  0  0  0
  151.8221  139.3256  155.0341 C   0  0  0  0  0  0  0  0  0  0  0  0
  152.9609  139.8790  157.6683 N   0  0  0  0  0  0  0  0  0  0  0  0
  153.2173  140.4575  158.9011 C   0  0  0  0  0  0  0  0  0  0  0  0
  152.3477  141.4630  159.1538 C   0  0  0  0  0  0  0  0  0  0  0  0
  152.3600  142.2203  160.4123 C   0  0  0  0  0  0  0  0  0  0  0  0
  151.5370  143.1086  160.6381 O   0  0  0  0  0  0  0  0  0  0  0  0
  153.3431  141.8394  161.2865 N   0  0  0  0  0  0  0  0  0  0  0  0
  153.4001  142.5762  162.5635 C   0  0  0  0  0  0  0  0  0  0  0  0
  154.2440  140.8099  161.0732 C   0  0  0  0  0  0  0  0  0  0  0  0
  155.0770  140.4941  161.9271 O   0  0  0  0  0  0  0  0  0  0  0  0
  154.1891  140.1317  159.8817 N   0  0  0  0  0  0  0  0  0  0  0  0
  155.1309  139.0405  159.6156 C   0  0  0  0  0  0  0  0  0  0  0  0
  153.1873  145.3925  159.5340 H   0  0  0  0  0  0  0  0  0  0  0  0
  151.4584  145.3973  159.8845 H   0  0  0  0  0  0  0  0  0  0  0  0
  152.0718  146.1725  158.4121 H   0  0  0  0  0  0  0  0  0  0  0  0
  150.0743  144.5854  158.2759 H   0  0  0  0  0  0  0  0  0  0  0  0
  150.8440  144.2322  156.7350 H   0  0  0  0  0  0  0  0  0  0  0  0
  149.6768  142.3721  158.7436 H   0  0  0  0  0  0  0  0  0  0  0  0
  149.7714  142.1782  157.0358 H   0  0  0  0  0  0  0  0  0  0  0  0
  149.9763  141.9521  155.9594 H   0  0  0  0  0  0  0  0  0  0  0  0
  150.7818  141.6464  154.4552 H   0  0  0  0  0  0  0  0  0  0  0  0
  148.6064  139.8486  155.6644 H   0  0  0  0  0  0  0  0  0  0  0  0
  148.4069  140.9146  154.2856 H   0  0  0  0  0  0  0  0  0  0  0  0
  148.8307  138.6170  153.6823 H   0  0  0  0  0  0  0  0  0  0  0  0
  150.2794  137.8287  155.3463 H   0  0  0  0  0  0  0  0  0  0  0  0
  151.0666  137.7114  153.7848 H   0  0  0  0  0  0  0  0  0  0  0  0
  152.3114  139.8277  154.1983 H   0  0  0  0  0  0  0  0  0  0  0  0
  152.5850  138.7146  155.5183 H   0  0  0  0  0  0  0  0  0  0  0  0
  154.3416  142.4682  163.1032 H   0  0  0  0  0  0  0  0  0  0  0  0
  152.6031  142.2355  163.2257 H   0  0  0  0  0  0  0  0  0  0  0  0
  153.2750  143.6503  162.4145 H   0  0  0  0  0  0  0  0  0  0  0  0
  156.1606  139.3770  159.7453 H   0  0  0  0  0  0  0  0  0  0  0  0
  155.0489  138.6502  158.6012 H   0  0  0  0  0  0  0  0  0  0  0  0
  154.9544  138.2111  160.3014 H   0  0  0  0  0  0  0  0  0  0  0  0
  149.9609  139.6477  153.0802 H   0  0  0  0  0  0  0  0  0  0  0  0
  1  2  1  0  0  0  0
  1 24  1  0  0  0  0
  1 25  1  0  0  0  0
  1 26  1  0  0  0  0
  2  3  1  0  0  0  0
  3  4  1  0  0  0  0
  3 27  1  0  0  0  0
  3 28  1  0  0  0  0
  4  5  1  0  0  0  0
  4 29  1  0  0  0  0
  4 30  1  0  0  0  0
  5 15  1  0  0  0  0
  5  6  1  0  0  0  0
  6  7  1  0  0  0  0
  6 13  2  0  0  0  0
  7 12  1  0  0  0  0
  7  8  1  0  0  0  0
  8  9  1  0  0  0  0
  8 31  1  0  0  0  0
  8 32  1  0  0  0  0
  9 10  1  0  0  0  0
  9 33  1  0  0  0  0
  9 34  1  0  0  0  0
 10 11  1  0  0  0  0
 10 35  1  0  0  0  0
 10 46  1  0  0  0  0
 11 12  1  0  0  0  0
 11 36  1  0  0  0  0
 11 37  1  0  0  0  0
 12 38  1  0  0  0  0
 12 39  1  0  0  0  0
 13 14  1  0  0  0  0
 14 22  1  0  0  0  0
 14 15  2  0  0  0  0
 15 16  1  0  0  0  0
 16 17  2  0  0  0  0
 16 18  1  0  0  0  0
 18 19  1  0  0  0  0
 18 20  1  0  0  0  0
 19 40  1  0  0  0  0
 19 41  1  0  0  0  0
 19 42  1  0  0  0  0
 20 21  2  0  0  0  0
 20 22  1  0  0  0  0
 22 23  1  0  0  0  0
 23 43  1  0  0  0  0
 23 44  1  0  0  0  0
 23 45  1  0  0  0  0
M  CHG  1  10   1
M  END
> <s_m_source_file>
AV-unprocessed.smi

> <i_m_source_file_index>
509

> <i_lp_mmshare_version>
43012

> <i_f3d_flags>
0

> <s_epik_input>
W0NIM11uMWMoPU8pbihbQ0gzXSljKD1PKWMoYzEyKW4oW0NIMl1bQ0gyXU9bQ0gzXSljKG4yKU4zW0NIMl1bQ0gyXVtOSF1bQ0gyXVtDSDJdMw==

> <s_epik_cmdline>
J2VwaWtfcHl0aG9uJywgJy1waCcsICc3LjAnLCAnLXRuJywgJzgnLCAnLW1hJywgJzIwMCcsICctbWV0YWxfYmluZGluZycsICctaW1hZScsICc8aW5maWxlLm1hZT4nLCAnLW9tYWUnLCAnPG91dGZpbGUubWFlPic=

> <r_epik_Ionization_Penalty>
0.00857468

> <r_epik_Ionization_Penalty_Charging>
0.00857162

> <r_epik_Ionization_Penalty_Neutral>
3.06002e-06

> <r_epik_State_Penalty>
0.00646614

> <r_epik_Charging_Adjusted_Penalty>
0.0150378

> <i_epik_Tot_Q>
1

> <i_epik_Tot_abs_Q>
1

> <r_epik_Metal_State_Penalty>
0.00646904

> <b_epik_Metal_Only>
0

> <s_lp_Force_Field>
OPLS_2005

> <r_lp_Energy>
52.9694

> <b_lp_Chiralities_Consistent>
1

> <s_lp_Variant>
AV-unprocessed.smi:509-1

> <Gold.Version>
5.8.1

> <Gold.Id.Protein>
6NUR|6NUR_protein|mol2

> <Gold.PLP.Fitness>
52.2065

> <Gold.PLP.PLP>
-50.0849

> <Gold.PLP.part.hbond>
-3.9206

> <Gold.PLP.part.metal>
0.0000

> <Gold.PLP.part.buried>
-2.3329

> <Gold.PLP.part.nonpolar>
-42.5337

> <Gold.PLP.part.repulsive>
0.2298

> <Gold.PLP.ligand.clash>
2.7187

> <Gold.PLP.ligand.torsion>
0.5845

> <Gold.PLP.Chemscore.Hbond>
1.8882

> <Gold.PLP.Chemscore.CHOScore>
0.0000

> <Gold.PLP.Chemscore.Metal>
0.0000

> <Gold.Chemscore.Hbonds>
donor molecule, donor type, donor heavy atom, donor atom, acceptor molecule, acceptor atom, score
      L1  H    10    46       P1  7957  0.93
      P1  H  7997  8010       L1    13  0.95

> <Gold.PLP.Chemscore.Internal.Correction>
0.3448

> <Gold.Rescore>
     Score         DG    S(hbond)    S(metal)    S(lipo)     H(rot)  DE(clash)    DE(int)     intcor
     10.50     -15.18       1.00        0.00      87.33       1.51       1.47       3.22       ----

> <Gold.Chemscore.Fitness>
10.4981

> <Gold.Chemscore.DG>
-15.1824

> <Gold.Chemscore.ZeroCoef>
-5.4800

> <Gold.Chemscore.Hbond>
1.0020

> <Gold.Chemscore.Metal>
0.0000

> <Gold.Chemscore.Lipo>
87.3308

> <Gold.Chemscore.Internal_Hbond>
0.0000

> <Gold.Chemscore.DEClash>
1.4672

> <Gold.Chemscore.DEInternal>
3.2172

> <Gold.Chemscore.Rot>
1.5086

> <Gold.Chemscore.Internal.Correction>
   9.000000E+99

> <Gold.Chemscore.Hbonds>
donor molecule, donor type, donor heavy atom, donor atom, acceptor molecule, acceptor atom, score
      L1  H    10    46       P1  7957  0.87
      P1  H  7997  8010       L1    13  0.21

> <Gold.Chemscore.Hbond.Weighted>
-3.3467

> <Gold.Chemscore.Metal.Weighted>
-0.0000

> <Gold.Chemscore.Lipo.Weighted>
-10.2177

> <Gold.Chemscore.Internal_Hbond.Weighted>
0.0000

> <Gold.Chemscore.DEClash.Weighted>
1.4672

> <Gold.Chemscore.DEInternal.Weighted>
3.2172

> <Gold.Chemscore.Rot.Weighted>
3.8620

> <Gold.Chemscore.Internal.Correction.Weighted>
   9.000000E+99

> <Gold.Protein.RotatedTorsions>
[ 6907 6896 6895 6894 ] final  -32.65 input  -60.11 | X-H torsion
[ 7974 7965 7964 7962 ] final  -59.62 input  175.53 | X-H torsion
[ 8008 7997 7996 7995 ] final   39.33 input   59.86 | X-H torsion
[ 10167 10162 10161 10158 ] final -104.66 input  -65.29 | X-H torsion
[ 10718 10713 10712 10709 ] final   43.87 input   66.30 | X-H torsion
[ 10763 10752 10751 10750 ] final  169.05 input  -60.55 | X-H torsion
[ 11005 11000 10999 10996 ] final -111.82 input  -57.11 | X-H torsion

> <Gold.Protein.ActiveResidues>
 VAL166  LYS551  ARG553  GLY616  TRP617  ASP618  TYR619  PRO620  LYS621  CYS622 
 ASP623  PHE694  ASN695  SER759  ASP760  ASP761  ALA762  ILE779  LEU786  VAL792 
 PHE793  MET794  SER795  GLU796  ALA797  LYS798  CYS799  TRP800  GLU811  SER814 

> <Gold.Protein.RotatedAtoms>
  151.0760  134.9828  159.8332 H   0  0  0  0  0  0  0  0  0  0  0  0  # atno 6907 bound_to 6896
  152.5414  134.2240  159.8809 H   0  0  0  0  0  0  0  0  0  0  0  0  # atno 6908 bound_to 6896
  151.2268  133.4429  159.2636 H   0  0  0  0  0  0  0  0  0  0  0  0  # atno 6909 bound_to 6896
  145.8253  140.8514  143.0111 H   0  0  0  0  0  0  0  0  0  0  0  0  # atno 7974 bound_to 7965
  155.2348  140.3341  155.4299 H   0  0  0  0  0  0  0  0  0  0  0  0  # atno 8008 bound_to 7997
  156.2280  140.1838  156.7360 H   0  0  0  0  0  0  0  0  0  0  0  0  # atno 8009 bound_to 7997
  154.5930  140.0635  156.9250 H   0  0  0  0  0  0  0  0  0  0  0  0  # atno 8010 bound_to 7997
  140.2069  143.3776  152.1083 H   0  0  0  0  0  0  0  0  0  0  0  0  # atno 10167 bound_to 10162
  157.4206  130.7967  149.7512 H   0  0  0  0  0  0  0  0  0  0  0  0  # atno 10718 bound_to 10713
  154.3776  135.2753  155.2230 H   0  0  0  0  0  0  0  0  0  0  0  0  # atno 10763 bound_to 10752
  154.4351  135.5968  153.6097 H   0  0  0  0  0  0  0  0  0  0  0  0  # atno 10764 bound_to 10752
  152.9836  135.6005  154.4014 H   0  0  0  0  0  0  0  0  0  0  0  0  # atno 10765 bound_to 10752
  141.0711  133.9377  157.2482 H   0  0  0  0  0  0  0  0  0  0  0  0  # atno 11005 bound_to 11000
  144.6744  140.0593  143.7476 LP  0  0  0  0  0  0  0  0  0  0  0  0  # atno 17320 bound_to 7965
  145.9630  139.2814  143.1144 LP  0  0  0  0  0  0  0  0  0  0  0  0  # atno 17321 bound_to 7965
  139.5195  144.7020  151.5464 LP  0  0  0  0  0  0  0  0  0  0  0  0  # atno 17342 bound_to 10162
  140.6351  143.9000  150.6640 LP  0  0  0  0  0  0  0  0  0  0  0  0  # atno 17343 bound_to 10162
  155.9879  130.3963  150.3142 LP  0  0  0  0  0  0  0  0  0  0  0  0  # atno 17370 bound_to 10713
  157.1289  131.0266  151.2977 LP  0  0  0  0  0  0  0  0  0  0  0  0  # atno 17371 bound_to 10713
  139.9525  135.0172  156.9034 LP  0  0  0  0  0  0  0  0  0  0  0  0  # atno 17394 bound_to 11000
  140.5670  134.0479  155.7418 LP  0  0  0  0  0  0  0  0  0  0  0  0  # atno 17395 bound_to 11000

$$$$
