AV-unprocessed.smi:1033|AV-procd|sdf|4512|dock3
  -GOLD-   22720 2523D 1   1.00000     0.00000
 Structure written by MMmdl.
 57 59  0  0  0  0  0  0  0  0  3 V2000
  151.9940  144.6133  161.4622 C   0  0  0  0  0  0  0  0  0  0  0  0
  151.9382  143.6620  160.2797 C   0  0  0  0  0  0  0  0  0  0  0  0
  152.1319  142.2801  160.5007 C   0  0  0  0  0  0  0  0  0  0  0  0
  152.0851  141.3621  159.4295 C   0  0  0  0  0  0  0  0  0  0  0  0
  152.2446  139.9875  159.4166 N   0  0  0  0  0  0  0  0  0  0  0  0
  152.0908  139.7110  158.1254 C   0  0  0  0  0  0  0  0  0  0  0  0
  151.8671  140.7484  157.2953 N   0  0  0  0  0  0  0  0  0  0  0  0
  151.6838  140.6937  155.8562 C   0  0  0  0  0  0  0  0  0  0  0  0
  150.3225  140.0911  155.4525 C   0  0  2  0  0  0  0  0  0  0  0  0
  150.2537  140.0836  154.0412 O   0  0  0  0  0  0  0  0  0  0  0  0
  149.1123  140.8771  156.0061 C   0  0  0  0  0  0  0  0  0  0  0  0
  147.8934  140.7261  155.1697 N   0  3  2  0  0  0  0  0  0  0  0  0
  147.7838  141.7915  154.1421 C   0  0  0  0  0  0  0  0  0  0  0  0
  146.5709  141.5541  153.2231 C   0  0  0  0  0  0  0  0  0  0  0  0
  145.3070  141.4471  153.9939 N   0  3  2  0  0  0  0  0  0  0  0  0
  144.7865  142.7580  154.4683 C   0  0  0  0  0  0  0  0  0  0  0  0
  143.4218  142.6364  155.1760 C   0  0  1  0  0  0  0  0  0  0  0  0
  142.7437  144.0023  155.3428 C   0  0  0  0  0  0  0  0  0  0  0  0
  142.5630  141.8200  154.4053 O   0  0  0  0  0  0  0  0  0  0  0  0
  145.4127  140.4032  155.0476 C   0  0  0  0  0  0  0  0  0  0  0  0
  146.6399  140.6103  155.9605 C   0  0  0  0  0  0  0  0  0  0  0  0
  151.8416  141.8687  158.1191 C   0  0  0  0  0  0  0  0  0  0  0  0
  151.6448  143.2415  157.8867 C   0  0  0  0  0  0  0  0  0  0  0  0
  151.6925  144.1446  158.9692 C   0  0  0  0  0  0  0  0  0  0  0  0
  151.4763  145.6250  158.7096 C   0  0  0  0  0  0  0  0  0  0  0  0
  152.1956  144.0810  162.3922 H   0  0  0  0  0  0  0  0  0  0  0  0
  151.0448  145.1372  161.5764 H   0  0  0  0  0  0  0  0  0  0  0  0
  152.7834  145.3519  161.3221 H   0  0  0  0  0  0  0  0  0  0  0  0
  152.3169  141.9120  161.4994 H   0  0  0  0  0  0  0  0  0  0  0  0
  152.1557  138.6963  157.7606 H   0  0  0  0  0  0  0  0  0  0  0  0
  151.7831  141.7048  155.4579 H   0  0  0  0  0  0  0  0  0  0  0  0
  152.5009  140.1091  155.4309 H   0  0  0  0  0  0  0  0  0  0  0  0
  150.2918  139.0576  155.7941 H   0  0  0  0  0  0  0  0  0  0  0  0
  149.3521  140.2045  153.7819 H   0  0  0  0  0  0  0  0  0  0  0  0
  148.8749  140.5688  157.0252 H   0  0  0  0  0  0  0  0  0  0  0  0
  149.3883  141.9313  156.0651 H   0  0  0  0  0  0  0  0  0  0  0  0
  147.7086  142.7649  154.6296 H   0  0  0  0  0  0  0  0  0  0  0  0
  148.6909  141.8120  153.5370 H   0  0  0  0  0  0  0  0  0  0  0  0
  146.4949  142.3420  152.4726 H   0  0  0  0  0  0  0  0  0  0  0  0
  146.7138  140.6247  152.6701 H   0  0  0  0  0  0  0  0  0  0  0  0
  145.5144  143.2259  155.1311 H   0  0  0  0  0  0  0  0  0  0  0  0
  144.6744  143.4399  153.6236 H   0  0  0  0  0  0  0  0  0  0  0  0
  143.5307  142.1871  156.1624 H   0  0  0  0  0  0  0  0  0  0  0  0
  143.3530  144.6696  155.9526 H   0  0  0  0  0  0  0  0  0  0  0  0
  141.7748  143.9036  155.8334 H   0  0  0  0  0  0  0  0  0  0  0  0
  142.5800  144.4877  154.3799 H   0  0  0  0  0  0  0  0  0  0  0  0
  143.0817  141.2185  153.8938 H   0  0  0  0  0  0  0  0  0  0  0  0
  144.5020  140.3557  155.6436 H   0  0  0  0  0  0  0  0  0  0  0  0
  145.4967  139.4345  154.5527 H   0  0  0  0  0  0  0  0  0  0  0  0
  146.7045  139.7695  156.6499 H   0  0  0  0  0  0  0  0  0  0  0  0
  146.5128  141.5019  156.5757 H   0  0  0  0  0  0  0  0  0  0  0  0
  151.4544  143.5974  156.8852 H   0  0  0  0  0  0  0  0  0  0  0  0
  151.2952  145.8220  157.6526 H   0  0  0  0  0  0  0  0  0  0  0  0
  152.3530  146.1979  159.0118 H   0  0  0  0  0  0  0  0  0  0  0  0
  150.6146  145.9892  159.2694 H   0  0  0  0  0  0  0  0  0  0  0  0
  144.6159  141.1210  153.3329 H   0  0  0  0  0  0  0  0  0  0  0  0
  148.0088  139.8581  154.6652 H   0  0  0  0  0  0  0  0  0  0  0  0
  1  2  1  0  0  0  0
  1 26  1  0  0  0  0
  1 27  1  0  0  0  0
  1 28  1  0  0  0  0
  2 24  1  0  0  0  0
  2  3  2  0  0  0  0
  3  4  1  0  0  0  0
  3 29  1  0  0  0  0
  4 22  2  0  0  0  0
  4  5  1  0  0  0  0
  5  6  2  0  0  0  0
  6  7  1  0  0  0  0
  6 30  1  0  0  0  0
  7  8  1  0  0  0  0
  7 22  1  0  0  0  0
  8  9  1  0  0  0  0
  8 31  1  0  0  0  0
  8 32  1  0  0  0  0
  9 10  1  0  0  0  0
  9 11  1  0  0  0  0
  9 33  1  0  0  0  0
 10 34  1  0  0  0  0
 11 12  1  0  0  0  0
 11 35  1  0  0  0  0
 11 36  1  0  0  0  0
 12 21  1  0  0  0  0
 12 13  1  0  0  0  0
 12 57  1  0  0  0  0
 13 14  1  0  0  0  0
 13 37  1  0  0  0  0
 13 38  1  0  0  0  0
 14 15  1  0  0  0  0
 14 39  1  0  0  0  0
 14 40  1  0  0  0  0
 15 16  1  0  0  0  0
 15 20  1  0  0  0  0
 15 56  1  0  0  0  0
 16 17  1  0  0  0  0
 16 41  1  0  0  0  0
 16 42  1  0  0  0  0
 17 18  1  0  0  0  0
 17 19  1  0  0  0  0
 17 43  1  0  0  0  0
 18 44  1  0  0  0  0
 18 45  1  0  0  0  0
 18 46  1  0  0  0  0
 19 47  1  0  0  0  0
 20 21  1  0  0  0  0
 20 48  1  0  0  0  0
 20 49  1  0  0  0  0
 21 50  1  0  0  0  0
 21 51  1  0  0  0  0
 22 23  1  0  0  0  0
 23 24  2  0  0  0  0
 23 52  1  0  0  0  0
 24 25  1  0  0  0  0
 25 53  1  0  0  0  0
 25 54  1  0  0  0  0
 25 55  1  0  0  0  0
M  CHG  1  12   1
M  CHG  1  15   1
M  END
> <s_m_source_file>
AV-unprocessed.smi

> <i_m_source_file_index>
1033

> <i_lp_mmshare_version>
43012

> <i_f3d_flags>
0

> <s_epik_input>
W0NIM11jKFtjSF0xKWMoW0NIM10pW2NIXWMoYzEyKW4oW2NIXW4yKVtDSDJdW0NASF0oW09IXSlbQ0gyXU4zW0NIMl1bQ0gyXU4oW0NIMl1bQ0gyXTMpW0NIMl1bQ0BIXShbQ0gzXSlbT0hd

> <s_epik_cmdline>
J2VwaWtfcHl0aG9uJywgJy1waCcsICc3LjAnLCAnLXRuJywgJzgnLCAnLW1hJywgJzIwMCcsICctbWV0YWxfYmluZGluZycsICctaW1hZScsICc8aW5maWxlLm1hZT4nLCAnLW9tYWUnLCAnPG91dGZpbGUubWFlPic=

> <r_epik_Ionization_Penalty>
3.16016

> <r_epik_Ionization_Penalty_Charging>
3.07679

> <r_epik_Ionization_Penalty_Neutral>
0.083365

> <r_epik_State_Penalty>
2.09701

> <r_epik_Charging_Adjusted_Penalty>
5.1738

> <i_epik_Tot_Q>
2

> <i_epik_Tot_abs_Q>
2

> <r_epik_Metal_State_Penalty>
2.02534

> <b_epik_Metal_Only>
0

> <s_lp_Force_Field>
OPLS_2005

> <r_lp_Energy>
31.6916

> <b_lp_Chiralities_Consistent>
1

> <s_lp_Variant>
AV-unprocessed.smi:1033-23

> <Gold.Version>
5.8.1

> <Gold.Id.Protein>
6NUR|6NUR_protein|mol2

> <Gold.PLP.Fitness>
57.3482

> <Gold.PLP.PLP>
-47.2460

> <Gold.PLP.part.hbond>
-4.7572

> <Gold.PLP.part.metal>
0.0000

> <Gold.PLP.part.buried>
-5.8637

> <Gold.PLP.part.nonpolar>
-36.1934

> <Gold.PLP.part.repulsive>
0.0218

> <Gold.PLP.ligand.clash>
0.0000

> <Gold.PLP.ligand.torsion>
1.0311

> <Gold.PLP.Chemscore.Hbond>
3.9913

> <Gold.PLP.Chemscore.CHOScore>
0.0000

> <Gold.PLP.Chemscore.Metal>
0.0000

> <Gold.Chemscore.Hbonds>
donor molecule, donor type, donor heavy atom, donor atom, acceptor molecule, acceptor atom, score
      L1  H    15    56       P1 10175  1.33
      L1  H    19    47       P1 10175  0.75
      P1  H  7989  7998       L1    10  0.98

> <Gold.PLP.Chemscore.Internal.Correction>
0.1908

> <Gold.Rescore>
     Score         DG    S(hbond)    S(metal)    S(lipo)     H(rot)  DE(clash)    DE(int)     intcor
     19.52     -21.01       2.85        0.00     119.93       3.14       0.20       1.29       ----

> <Gold.Chemscore.Fitness>
19.5202

> <Gold.Chemscore.DG>
-21.0091

> <Gold.Chemscore.ZeroCoef>
-5.4800

> <Gold.Chemscore.Hbond>
2.8534

> <Gold.Chemscore.Metal>
0.0000

> <Gold.Chemscore.Lipo>
119.9323

> <Gold.Chemscore.Internal_Hbond>
0.0000

> <Gold.Chemscore.DEClash>
0.2015

> <Gold.Chemscore.DEInternal>
1.2875

> <Gold.Chemscore.Rot>
3.1380

> <Gold.Chemscore.Internal.Correction>
   9.000000E+99

> <Gold.Chemscore.Hbonds>
donor molecule, donor type, donor heavy atom, donor atom, acceptor molecule, acceptor atom, score
      L1  H    15    56       P1 10175  0.20
      L1  H    19    47       P1 10175  0.09
      P1  H  7989  7998       L1    10  0.56

> <Gold.Chemscore.Hbond.Weighted>
-9.5302

> <Gold.Chemscore.Metal.Weighted>
-0.0000

> <Gold.Chemscore.Lipo.Weighted>
-14.0321

> <Gold.Chemscore.Internal_Hbond.Weighted>
0.0000

> <Gold.Chemscore.DEClash.Weighted>
0.2015

> <Gold.Chemscore.DEInternal.Weighted>
1.2875

> <Gold.Chemscore.Rot.Weighted>
8.0332

> <Gold.Chemscore.Internal.Correction.Weighted>
   9.000000E+99

> <Gold.Protein.RotatedTorsions>
[ 6907 6896 6895 6894 ] final   53.53 input  -60.11 | X-H torsion
[ 7974 7965 7964 7962 ] final  141.04 input  175.53 | X-H torsion
[ 8008 7997 7996 7995 ] final  136.64 input   59.86 | X-H torsion
[ 10167 10162 10161 10158 ] final  -84.28 input  -65.29 | X-H torsion
[ 10718 10713 10712 10709 ] final -102.01 input   66.30 | X-H torsion
[ 10763 10752 10751 10750 ] final  161.09 input  -60.55 | X-H torsion
[ 11005 11000 10999 10996 ] final   11.11 input  -57.11 | X-H torsion

> <Gold.Protein.ActiveResidues>
 VAL166  LYS551  ARG553  GLY616  TRP617  ASP618  TYR619  PRO620  LYS621  CYS622 
 ASP623  PHE694  ASN695  SER759  ASP760  ASP761  ALA762  ILE779  LEU786  VAL792 
 PHE793  MET794  SER795  GLU796  ALA797  LYS798  CYS799  TRP800  GLU811  SER814 

> <Gold.Protein.RotatedAtoms>
  152.3346  134.7215  160.0280 H   0  0  0  0  0  0  0  0  0  0  0  0  # atno 6907 bound_to 6896
  151.7620  133.3329  159.3428 H   0  0  0  0  0  0  0  0  0  0  0  0  # atno 6908 bound_to 6896
  150.7443  134.6029  159.6090 H   0  0  0  0  0  0  0  0  0  0  0  0  # atno 6909 bound_to 6896
  144.9132  139.5265  143.5698 H   0  0  0  0  0  0  0  0  0  0  0  0  # atno 7974 bound_to 7965
  156.3004  140.2440  156.3779 H   0  0  0  0  0  0  0  0  0  0  0  0  # atno 8008 bound_to 7997
  154.8728  140.0415  157.1755 H   0  0  0  0  0  0  0  0  0  0  0  0  # atno 8009 bound_to 7997
  154.8777  140.2944  155.5447 H   0  0  0  0  0  0  0  0  0  0  0  0  # atno 8010 bound_to 7997
  140.4147  143.2608  151.8971 H   0  0  0  0  0  0  0  0  0  0  0  0  # atno 10167 bound_to 10162
  156.0214  130.5400  150.7046 H   0  0  0  0  0  0  0  0  0  0  0  0  # atno 10718 bound_to 10713
  154.2576  135.2769  155.2791 H   0  0  0  0  0  0  0  0  0  0  0  0  # atno 10763 bound_to 10752
  154.5411  135.5702  153.6844 H   0  0  0  0  0  0  0  0  0  0  0  0  # atno 10764 bound_to 10752
  152.9968  135.6251  154.2725 H   0  0  0  0  0  0  0  0  0  0  0  0  # atno 10765 bound_to 10752
  140.5070  134.0690  155.7808 H   0  0  0  0  0  0  0  0  0  0  0  0  # atno 11005 bound_to 11000
  146.3169  139.7955  142.8976 LP  0  0  0  0  0  0  0  0  0  0  0  0  # atno 17320 bound_to 7965
  145.3419  141.0289  143.3387 LP  0  0  0  0  0  0  0  0  0  0  0  0  # atno 17321 bound_to 7965
  139.4782  144.5500  151.8400 LP  0  0  0  0  0  0  0  0  0  0  0  0  # atno 17342 bound_to 10162
  140.4599  144.1736  150.5905 LP  0  0  0  0  0  0  0  0  0  0  0  0  # atno 17343 bound_to 10162
  157.4698  131.0892  151.0655 LP  0  0  0  0  0  0  0  0  0  0  0  0  # atno 17370 bound_to 10713
  157.1118  130.6025  149.5484 LP  0  0  0  0  0  0  0  0  0  0  0  0  # atno 17371 bound_to 10713
  141.1406  133.9145  157.2335 LP  0  0  0  0  0  0  0  0  0  0  0  0  # atno 17394 bound_to 11000
  139.9681  135.0136  156.9439 LP  0  0  0  0  0  0  0  0  0  0  0  0  # atno 17395 bound_to 11000

$$$$
