AV-unprocessed.smi:2931|AV-procd|sdf|11249|dock8
  -GOLD-   2272016143D 1   1.00000     0.00000
 Structure written by MMmdl.
 43 44  0  0  0  0  0  0  0  0  3 V2000
  146.3950  131.1161  152.5573 C   0  0  0  0  0  0  0  0  0  0  0  0
  145.3918  131.9475  151.8583 N   0  3  2  0  0  0  0  0  0  0  0  0
  144.8241  131.2674  150.6672 C   0  0  0  0  0  0  0  0  0  0  0  0
  143.6973  132.1046  150.0391 C   0  0  0  0  0  0  0  0  0  0  0  0
  144.1853  133.5182  149.6930 C   0  0  0  0  0  0  0  0  0  0  0  0
  144.7972  134.1871  150.9370 C   0  0  2  0  0  0  0  0  0  0  0  0
  145.3353  135.5020  150.6007 N   0  0  0  0  0  0  0  0  0  0  0  0
  145.4370  136.5310  151.4538 C   0  0  0  0  0  0  0  0  0  0  0  0
  145.0974  136.4804  152.6360 O   0  0  0  0  0  0  0  0  0  0  0  0
  145.9590  137.6177  150.8665 N   0  0  0  0  0  0  0  0  0  0  0  0
  146.1904  138.9037  151.5217 C   0  0  0  0  0  0  0  0  0  0  0  0
  146.6692  138.7498  152.9785 C   0  0  0  0  0  0  0  0  0  0  0  0
  147.1861  140.0386  153.5954 C   0  0  0  0  0  0  0  0  0  0  0  0
  146.3402  141.1639  153.7108 C   0  0  0  0  0  0  0  0  0  0  0  0
  146.8379  142.3410  154.3057 C   0  0  0  0  0  0  0  0  0  0  0  0
  148.1123  142.3823  154.7522 N   0  3  0  0  0  0  0  0  0  0  0  0
  148.9556  141.3311  154.6567 C   0  0  0  0  0  0  0  0  0  0  0  0
  148.5128  140.1264  154.0734 C   0  0  0  0  0  0  0  0  0  0  0  0
  145.9073  133.3013  151.5334 C   0  0  0  0  0  0  0  0  0  0  0  0
  147.2608  130.9297  151.9209 H   0  0  0  0  0  0  0  0  0  0  0  0
  145.9668  130.1550  152.8442 H   0  0  0  0  0  0  0  0  0  0  0  0
  146.7386  131.6108  153.4664 H   0  0  0  0  0  0  0  0  0  0  0  0
  145.6141  131.0901  149.9357 H   0  0  0  0  0  0  0  0  0  0  0  0
  144.4334  130.2908  150.9555 H   0  0  0  0  0  0  0  0  0  0  0  0
  143.3209  131.6112  149.1425 H   0  0  0  0  0  0  0  0  0  0  0  0
  142.8579  132.1677  150.7328 H   0  0  0  0  0  0  0  0  0  0  0  0
  144.9276  133.4636  148.8953 H   0  0  0  0  0  0  0  0  0  0  0  0
  143.3562  134.1131  149.3075 H   0  0  0  0  0  0  0  0  0  0  0  0
  144.0182  134.3019  151.6937 H   0  0  0  0  0  0  0  0  0  0  0  0
  145.6375  135.6429  149.6475 H   0  0  0  0  0  0  0  0  0  0  0  0
  146.2021  137.5592  149.8882 H   0  0  0  0  0  0  0  0  0  0  0  0
  146.9470  139.4398  150.9481 H   0  0  0  0  0  0  0  0  0  0  0  0
  145.2916  139.5216  151.4834 H   0  0  0  0  0  0  0  0  0  0  0  0
  145.8566  138.3578  153.5915 H   0  0  0  0  0  0  0  0  0  0  0  0
  147.4646  138.0047  153.0223 H   0  0  0  0  0  0  0  0  0  0  0  0
  145.3197  141.1230  153.3583 H   0  0  0  0  0  0  0  0  0  0  0  0
  146.2583  143.2429  154.4385 H   0  0  0  0  0  0  0  0  0  0  0  0
  149.9509  141.4840  155.0477 H   0  0  0  0  0  0  0  0  0  0  0  0
  149.1824  139.2819  153.9994 H   0  0  0  0  0  0  0  0  0  0  0  0
  146.2975  133.7655  152.4402 H   0  0  0  0  0  0  0  0  0  0  0  0
  146.7425  133.2141  150.8359 H   0  0  0  0  0  0  0  0  0  0  0  0
  144.6271  132.0775  152.5055 H   0  0  0  0  0  0  0  0  0  0  0  0
  148.4523  143.2449  155.1786 H   0  0  0  0  0  0  0  0  0  0  0  0
  1  2  1  0  0  0  0
  1 20  1  0  0  0  0
  1 21  1  0  0  0  0
  1 22  1  0  0  0  0
  2 19  1  0  0  0  0
  2  3  1  0  0  0  0
  2 42  1  0  0  0  0
  3  4  1  0  0  0  0
  3 23  1  0  0  0  0
  3 24  1  0  0  0  0
  4  5  1  0  0  0  0
  4 25  1  0  0  0  0
  4 26  1  0  0  0  0
  5  6  1  0  0  0  0
  5 27  1  0  0  0  0
  5 28  1  0  0  0  0
  6  7  1  0  0  0  0
  6 19  1  0  0  0  0
  6 29  1  0  0  0  0
  7  8  1  0  0  0  0
  7 30  1  0  0  0  0
  8  9  2  0  0  0  0
  8 10  1  0  0  0  0
 10 11  1  0  0  0  0
 10 31  1  0  0  0  0
 11 12  1  0  0  0  0
 11 32  1  0  0  0  0
 11 33  1  0  0  0  0
 12 13  1  0  0  0  0
 12 34  1  0  0  0  0
 12 35  1  0  0  0  0
 13 18  1  0  0  0  0
 13 14  2  0  0  0  0
 14 15  1  0  0  0  0
 14 36  1  0  0  0  0
 15 16  2  0  0  0  0
 15 37  1  0  0  0  0
 16 17  1  0  0  0  0
 16 43  1  0  0  0  0
 17 18  2  0  0  0  0
 17 38  1  0  0  0  0
 18 39  1  0  0  0  0
 19 40  1  0  0  0  0
 19 41  1  0  0  0  0
M  CHG  1   2   1
M  CHG  1  16   1
M  END
> <s_m_source_file>
AV-unprocessed.smi

> <i_m_source_file_index>
2931

> <i_lp_mmshare_version>
43012

> <i_f3d_flags>
0

> <s_epik_input>
W0NIM11OMVtDSDJdW0NIMl1bQ0gyXVtDQEhdKFtDSDJdMSlbTkhdQyg9TylbTkhdW0NIMl1bQ0gyXWMyW2NIXVtjSF1uW2NIXVtjSF0y

> <s_epik_cmdline>
J2VwaWtfcHl0aG9uJywgJy1waCcsICc3LjAnLCAnLXRuJywgJzgnLCAnLW1hJywgJzIwMCcsICctbWV0YWxfYmluZGluZycsICctaW1hZScsICc8aW5maWxlLm1hZT4nLCAnLW9tYWUnLCAnPG91dGZpbGUubWFlPic=

> <r_epik_Ionization_Penalty>
1.43754

> <r_epik_Ionization_Penalty_Charging>
1.4375

> <r_epik_Ionization_Penalty_Neutral>
3.7629e-05

> <r_epik_State_Penalty>
1.52008

> <r_epik_Charging_Adjusted_Penalty>
2.95758

> <i_epik_Tot_Q>
2

> <i_epik_Tot_abs_Q>
2

> <r_epik_Metal_State_Penalty>
1.57105

> <b_epik_Metal_Only>
0

> <s_lp_Force_Field>
OPLS_2005

> <r_lp_Energy>
22.8727

> <b_lp_Chiralities_Consistent>
1

> <s_lp_Variant>
AV-unprocessed.smi:2931-8

> <Gold.Version>
5.8.1

> <Gold.Id.Protein>
6NUR|6NUR_protein|mol2

> <Gold.PLP.Fitness>
46.7465

> <Gold.PLP.PLP>
-39.4978

> <Gold.PLP.part.hbond>
-3.9024

> <Gold.PLP.part.metal>
0.0000

> <Gold.PLP.part.buried>
-0.9195

> <Gold.PLP.part.nonpolar>
-36.3903

> <Gold.PLP.part.repulsive>
1.3705

> <Gold.PLP.ligand.clash>
0.0000

> <Gold.PLP.ligand.torsion>
0.5585

> <Gold.PLP.Chemscore.Hbond>
2.7800

> <Gold.PLP.Chemscore.CHOScore>
0.0000

> <Gold.PLP.Chemscore.Metal>
0.0000

> <Gold.Chemscore.Hbonds>
donor molecule, donor type, donor heavy atom, donor atom, acceptor molecule, acceptor atom, score
      L1  H     7    30       P1  7921  0.52
      L1  H    16    43       P1  8028  2.00

> <Gold.PLP.Chemscore.Internal.Correction>
0.0258

> <Gold.Rescore>
     Score         DG    S(hbond)    S(metal)    S(lipo)     H(rot)  DE(clash)    DE(int)     intcor
     17.32     -19.64       1.81        0.00     105.38       1.65       0.46       1.86       ----

> <Gold.Chemscore.Fitness>
17.3179

> <Gold.Chemscore.DG>
-19.6391

> <Gold.Chemscore.ZeroCoef>
-5.4800

> <Gold.Chemscore.Hbond>
1.8097

> <Gold.Chemscore.Metal>
0.0000

> <Gold.Chemscore.Lipo>
105.3807

> <Gold.Chemscore.Internal_Hbond>
0.0000

> <Gold.Chemscore.DEClash>
0.4570

> <Gold.Chemscore.DEInternal>
1.8643

> <Gold.Chemscore.Rot>
1.6464

> <Gold.Chemscore.Internal.Correction>
   9.000000E+99

> <Gold.Chemscore.Hbonds>
donor molecule, donor type, donor heavy atom, donor atom, acceptor molecule, acceptor atom, score
      L1  H     7    30       P1  7921  0.50
      L1  H    16    43       P1  8028  0.98

> <Gold.Chemscore.Hbond.Weighted>
-6.0444

> <Gold.Chemscore.Metal.Weighted>
-0.0000

> <Gold.Chemscore.Lipo.Weighted>
-12.3295

> <Gold.Chemscore.Internal_Hbond.Weighted>
0.0000

> <Gold.Chemscore.DEClash.Weighted>
0.4570

> <Gold.Chemscore.DEInternal.Weighted>
1.8643

> <Gold.Chemscore.Rot.Weighted>
4.2148

> <Gold.Chemscore.Internal.Correction.Weighted>
   9.000000E+99

> <Gold.Protein.RotatedTorsions>
[ 6907 6896 6895 6894 ] final  133.87 input  -60.11 | X-H torsion
[ 7974 7965 7964 7962 ] final   42.70 input  175.53 | X-H torsion
[ 8008 7997 7996 7995 ] final  -34.08 input   59.86 | X-H torsion
[ 10167 10162 10161 10158 ] final   54.22 input  -65.29 | X-H torsion
[ 10718 10713 10712 10709 ] final   31.93 input   66.30 | X-H torsion
[ 10763 10752 10751 10750 ] final  -42.15 input  -60.55 | X-H torsion
[ 11005 11000 10999 10996 ] final   96.72 input  -57.11 | X-H torsion

> <Gold.Protein.ActiveResidues>
 VAL166  LYS551  ARG553  GLY616  TRP617  ASP618  TYR619  PRO620  LYS621  CYS622 
 ASP623  PHE694  ASN695  SER759  ASP760  ASP761  ALA762  ILE779  LEU786  VAL792 
 PHE793  MET794  SER795  GLU796  ALA797  LYS798  CYS799  TRP800  GLU811  SER814 

> <Gold.Protein.RotatedAtoms>
  152.3173  133.5816  159.5720 H   0  0  0  0  0  0  0  0  0  0  0  0  # atno 6907 bound_to 6896
  150.7353  134.0063  159.3664 H   0  0  0  0  0  0  0  0  0  0  0  0  # atno 6908 bound_to 6896
  151.7951  135.0725  160.0443 H   0  0  0  0  0  0  0  0  0  0  0  0  # atno 6909 bound_to 6896
  146.0718  139.5270  142.9593 H   0  0  0  0  0  0  0  0  0  0  0  0  # atno 7974 bound_to 7965
  154.4130  140.1693  156.1992 H   0  0  0  0  0  0  0  0  0  0  0  0  # atno 8008 bound_to 7997
  155.9538  140.3399  155.6408 H   0  0  0  0  0  0  0  0  0  0  0  0  # atno 8009 bound_to 7997
  155.6835  140.0725  157.2466 H   0  0  0  0  0  0  0  0  0  0  0  0  # atno 8010 bound_to 7997
  140.2324  144.3672  150.6409 H   0  0  0  0  0  0  0  0  0  0  0  0  # atno 10167 bound_to 10162
  157.2787  130.7244  149.6544 H   0  0  0  0  0  0  0  0  0  0  0  0  # atno 10718 bound_to 10713
  153.9742  135.6724  153.4748 H   0  0  0  0  0  0  0  0  0  0  0  0  # atno 10763 bound_to 10752
  153.0778  135.4939  154.8438 H   0  0  0  0  0  0  0  0  0  0  0  0  # atno 10764 bound_to 10752
  154.7201  135.3115  154.9021 H   0  0  0  0  0  0  0  0  0  0  0  0  # atno 10765 bound_to 10752
  139.8780  134.8965  156.4201 H   0  0  0  0  0  0  0  0  0  0  0  0  # atno 11005 bound_to 11000
  145.6378  141.0291  143.1828 LP  0  0  0  0  0  0  0  0  0  0  0  0  # atno 17320 bound_to 7965
  144.7236  139.7948  143.7373 LP  0  0  0  0  0  0  0  0  0  0  0  0  # atno 17321 bound_to 7965
  140.6175  143.2173  151.6762 LP  0  0  0  0  0  0  0  0  0  0  0  0  # atno 17342 bound_to 10162
  139.5105  144.3540  152.0625 LP  0  0  0  0  0  0  0  0  0  0  0  0  # atno 17343 bound_to 10162
  155.9664  130.4345  150.5051 LP  0  0  0  0  0  0  0  0  0  0  0  0  # atno 17370 bound_to 10713
  157.2990  131.0641  151.2081 LP  0  0  0  0  0  0  0  0  0  0  0  0  # atno 17371 bound_to 10713
  140.9140  133.7692  155.9826 LP  0  0  0  0  0  0  0  0  0  0  0  0  # atno 17394 bound_to 11000
  140.8515  134.2949  157.5273 LP  0  0  0  0  0  0  0  0  0  0  0  0  # atno 17395 bound_to 11000

$$$$
