AV-unprocessed.smi:3149|AV-procd|sdf|11999|dock6
  -GOLD-   2272017403D 1   1.00000     0.00000
 Structure written by MMmdl.
 38 39  0  0  0  0  0  0  0  0  2 V2000
  150.9071  140.2802  155.4526 C   0  0  0  0  0  0  0  0  0  0  0  0
  149.8268  141.3665  155.3239 C   0  0  2  0  0  0  0  0  0  0  0  0
  150.0566  142.3872  156.3727 N   0  3  0  0  0  0  0  0  0  0  0  0
  149.6262  141.9963  157.7300 C   0  0  0  0  0  0  0  0  0  0  0  0
  149.9468  143.0960  158.7446 C   0  0  0  0  0  0  0  0  0  0  0  0
  149.0578  143.5595  159.4586 O   0  0  0  0  0  0  0  0  0  0  0  0
  151.2812  143.4855  158.8794 N   0  0  0  0  0  0  0  0  0  0  0  0
  152.3672  142.5194  158.8047 C   0  0  0  0  0  0  0  0  0  0  0  0
  153.1175  143.4509  159.7619 C   0  0  0  0  0  0  0  0  0  0  0  0
  151.7679  144.0849  160.1131 C   0  0  0  0  0  0  0  0  0  0  0  0
  148.3858  140.7972  155.4299 C   0  0  2  0  0  0  0  0  0  0  0  0
  148.1840  139.5008  154.6218 C   0  0  0  0  0  0  0  0  0  0  0  0
  147.3896  141.7878  155.0363 N   0  0  0  0  0  0  0  0  0  0  0  0
  147.1774  142.3333  153.7865 C   0  0  0  0  0  0  0  0  0  0  0  0
  146.1253  143.1971  153.8908 C   0  0  0  0  0  0  0  0  0  0  0  0
  145.7560  143.1173  155.2621 C   0  0  0  0  0  0  0  0  0  0  0  0
  146.5128  142.2733  155.9444 N   0  0  0  0  0  0  0  0  0  0  0  0
  150.8543  139.5588  154.6375 H   0  0  0  0  0  0  0  0  0  0  0  0
  150.8124  139.7332  156.3913 H   0  0  0  0  0  0  0  0  0  0  0  0
  151.9055  140.7181  155.4237 H   0  0  0  0  0  0  0  0  0  0  0  0
  149.9466  141.8302  154.3430 H   0  0  0  0  0  0  0  0  0  0  0  0
  151.0455  142.5899  156.4040 H   0  0  0  0  0  0  0  0  0  0  0  0
  148.5527  141.8039  157.7354 H   0  0  0  0  0  0  0  0  0  0  0  0
  150.1276  141.0692  158.0078 H   0  0  0  0  0  0  0  0  0  0  0  0
  152.1233  141.5518  159.2482 H   0  0  0  0  0  0  0  0  0  0  0  0
  152.8164  142.4299  157.8150 H   0  0  0  0  0  0  0  0  0  0  0  0
  153.6024  142.9410  160.5950 H   0  0  0  0  0  0  0  0  0  0  0  0
  153.7985  144.1363  159.2541 H   0  0  0  0  0  0  0  0  0  0  0  0
  151.7621  145.1753  160.1088 H   0  0  0  0  0  0  0  0  0  0  0  0
  151.3180  143.6636  161.0147 H   0  0  0  0  0  0  0  0  0  0  0  0
  148.1936  140.5594  156.4774 H   0  0  0  0  0  0  0  0  0  0  0  0
  148.7908  138.6839  155.0112 H   0  0  0  0  0  0  0  0  0  0  0  0
  148.4443  139.6384  153.5718 H   0  0  0  0  0  0  0  0  0  0  0  0
  147.1450  139.1723  154.6649 H   0  0  0  0  0  0  0  0  0  0  0  0
  147.7832  142.0622  152.9343 H   0  0  0  0  0  0  0  0  0  0  0  0
  145.6872  143.7969  153.1067 H   0  0  0  0  0  0  0  0  0  0  0  0
  144.9653  143.6421  155.7778 H   0  0  0  0  0  0  0  0  0  0  0  0
  149.5665  143.2328  156.1177 H   0  0  0  0  0  0  0  0  0  0  0  0
  1  2  1  0  0  0  0
  1 18  1  0  0  0  0
  1 19  1  0  0  0  0
  1 20  1  0  0  0  0
  2  3  1  0  0  0  0
  2 11  1  0  0  0  0
  2 21  1  0  0  0  0
  3  4  1  0  0  0  0
  3 22  1  0  0  0  0
  3 38  1  0  0  0  0
  4  5  1  0  0  0  0
  4 23  1  0  0  0  0
  4 24  1  0  0  0  0
  5  6  2  0  0  0  0
  5  7  1  0  0  0  0
  7 10  1  0  0  0  0
  7  8  1  0  0  0  0
  8  9  1  0  0  0  0
  8 25  1  0  0  0  0
  8 26  1  0  0  0  0
  9 10  1  0  0  0  0
  9 27  1  0  0  0  0
  9 28  1  0  0  0  0
 10 29  1  0  0  0  0
 10 30  1  0  0  0  0
 11 12  1  0  0  0  0
 11 13  1  0  0  0  0
 11 31  1  0  0  0  0
 12 32  1  0  0  0  0
 12 33  1  0  0  0  0
 12 34  1  0  0  0  0
 13 17  1  0  0  0  0
 13 14  1  0  0  0  0
 14 15  2  0  0  0  0
 14 35  1  0  0  0  0
 15 16  1  0  0  0  0
 15 36  1  0  0  0  0
 16 17  2  0  0  0  0
 16 37  1  0  0  0  0
M  CHG  1   3   1
M  END
> <s_m_source_file>
AV-unprocessed.smi

> <i_m_source_file_index>
3149

> <i_lp_mmshare_version>
43012

> <i_f3d_flags>
0

> <s_epik_input>
bjFbY0hdW2NIXVtjSF1uMVtDQEBIXShbQ0gzXSlbQ0BIXShbQ0gzXSlbTkhdW0NIMl1DKD1PKU4yW0NIMl1bQ0gyXVtDSDJdMg==

> <s_epik_cmdline>
J2VwaWtfcHl0aG9uJywgJy1waCcsICc3LjAnLCAnLXRuJywgJzgnLCAnLW1hJywgJzIwMCcsICctbWV0YWxfYmluZGluZycsICctaW1hZScsICc8aW5maWxlLm1hZT4nLCAnLW9tYWUnLCAnPG91dGZpbGUubWFlPic=

> <r_lp_tautomer_probability>
1

> <r_epik_Ionization_Penalty>
0.141739

> <r_epik_Ionization_Penalty_Charging>
0.141731

> <r_epik_Ionization_Penalty_Neutral>
8.82171e-06

> <r_epik_State_Penalty>
0.131043

> <r_epik_Charging_Adjusted_Penalty>
0.272773

> <i_epik_Tot_Q>
1

> <i_epik_Tot_abs_Q>
1

> <r_epik_Metal_State_Penalty>
0.131384

> <b_epik_Metal_Only>
0

> <s_lp_Force_Field>
OPLS_2005

> <r_lp_Energy>
21.2317

> <b_lp_Chiralities_Consistent>
1

> <s_lp_Variant>
AV-unprocessed.smi:3149-1

> <Gold.Version>
5.8.1

> <Gold.Id.Protein>
6NUR|6NUR_protein|mol2

> <Gold.PLP.Fitness>
40.6623

> <Gold.PLP.PLP>
-34.8126

> <Gold.PLP.part.hbond>
-2.0000

> <Gold.PLP.part.metal>
0.0000

> <Gold.PLP.part.buried>
-4.9907

> <Gold.PLP.part.nonpolar>
-29.2107

> <Gold.PLP.part.repulsive>
0.3439

> <Gold.PLP.ligand.clash>
0.0000

> <Gold.PLP.ligand.torsion>
0.7547

> <Gold.PLP.Chemscore.Hbond>
2.1456

> <Gold.PLP.Chemscore.CHOScore>
0.0000

> <Gold.PLP.Chemscore.Metal>
0.0000

> <Gold.Chemscore.Hbonds>
donor molecule, donor type, donor heavy atom, donor atom, acceptor molecule, acceptor atom, score
      L1  H     3    38       P1  8028  2.00
      P1  H  6933  6944       L1     6  0.08

> <Gold.PLP.Chemscore.Internal.Correction>
0.9223

> <Gold.Rescore>
     Score         DG    S(hbond)    S(metal)    S(lipo)     H(rot)  DE(clash)    DE(int)     intcor
     13.97     -14.83       1.47        0.00      78.55       1.85       0.03       0.83       ----

> <Gold.Chemscore.Fitness>
13.9716

> <Gold.Chemscore.DG>
-14.8303

> <Gold.Chemscore.ZeroCoef>
-5.4800

> <Gold.Chemscore.Hbond>
1.4692

> <Gold.Chemscore.Metal>
0.0000

> <Gold.Chemscore.Lipo>
78.5501

> <Gold.Chemscore.Internal_Hbond>
0.0000

> <Gold.Chemscore.DEClash>
0.0291

> <Gold.Chemscore.DEInternal>
0.8296

> <Gold.Chemscore.Rot>
1.8544

> <Gold.Chemscore.Internal.Correction>
   9.000000E+99

> <Gold.Chemscore.Hbonds>
donor molecule, donor type, donor heavy atom, donor atom, acceptor molecule, acceptor atom, score
      L1  H     3    38       P1  8028  1.00
      P1  H  6933  6944       L1     6  0.08

> <Gold.Chemscore.Hbond.Weighted>
-4.9071

> <Gold.Chemscore.Metal.Weighted>
-0.0000

> <Gold.Chemscore.Lipo.Weighted>
-9.1904

> <Gold.Chemscore.Internal_Hbond.Weighted>
0.0000

> <Gold.Chemscore.DEClash.Weighted>
0.0291

> <Gold.Chemscore.DEInternal.Weighted>
0.8296

> <Gold.Chemscore.Rot.Weighted>
4.7472

> <Gold.Chemscore.Internal.Correction.Weighted>
   9.000000E+99

> <Gold.Protein.RotatedTorsions>
[ 6907 6896 6895 6894 ] final   80.84 input  -60.11 | X-H torsion
[ 7974 7965 7964 7962 ] final    7.78 input  175.53 | X-H torsion
[ 8008 7997 7996 7995 ] final  174.65 input   59.86 | X-H torsion
[ 10167 10162 10161 10158 ] final  -27.57 input  -65.29 | X-H torsion
[ 10718 10713 10712 10709 ] final  168.15 input   66.30 | X-H torsion
[ 10763 10752 10751 10750 ] final -155.51 input  -60.55 | X-H torsion
[ 11005 11000 10999 10996 ] final  -29.84 input  -57.11 | X-H torsion

> <Gold.Protein.ActiveResidues>
 VAL166  LYS551  ARG553  GLY616  TRP617  ASP618  TYR619  PRO620  LYS621  CYS622 
 ASP623  PHE694  ASN695  SER759  ASP760  ASP761  ALA762  ILE779  LEU786  VAL792 
 PHE793  MET794  SER795  GLU796  ALA797  LYS798  CYS799  TRP800  GLU811  SER814 

> <Gold.Protein.RotatedAtoms>
  152.5248  134.3295  159.9177 H   0  0  0  0  0  0  0  0  0  0  0  0  # atno 6907 bound_to 6896
  151.3244  133.4020  159.2665 H   0  0  0  0  0  0  0  0  0  0  0  0  # atno 6908 bound_to 6896
  150.9932  134.9279  159.7969 H   0  0  0  0  0  0  0  0  0  0  0  0  # atno 6909 bound_to 6896
  146.2423  140.0031  142.8414 H   0  0  0  0  0  0  0  0  0  0  0  0  # atno 7974 bound_to 7965
  156.0953  140.1429  156.9539 H   0  0  0  0  0  0  0  0  0  0  0  0  # atno 8008 bound_to 7997
  154.4667  140.0924  156.7085 H   0  0  0  0  0  0  0  0  0  0  0  0  # atno 8009 bound_to 7997
  155.4852  140.3446  155.4348 H   0  0  0  0  0  0  0  0  0  0  0  0  # atno 8010 bound_to 7997
  140.7276  143.4082  151.1150 H   0  0  0  0  0  0  0  0  0  0  0  0  # atno 10167 bound_to 10162
  157.0412  131.0287  151.2712 H   0  0  0  0  0  0  0  0  0  0  0  0  # atno 10718 bound_to 10713
  154.7782  135.3166  154.8047 H   0  0  0  0  0  0  0  0  0  0  0  0  # atno 10763 bound_to 10752
  153.8765  135.6839  153.4774 H   0  0  0  0  0  0  0  0  0  0  0  0  # atno 10764 bound_to 10752
  153.1411  135.4739  154.9433 H   0  0  0  0  0  0  0  0  0  0  0  0  # atno 10765 bound_to 10752
  140.9331  133.7325  156.0965 H   0  0  0  0  0  0  0  0  0  0  0  0  # atno 11005 bound_to 11000
  145.1396  140.9564  143.4496 LP  0  0  0  0  0  0  0  0  0  0  0  0  # atno 17320 bound_to 7965
  145.0308  139.3342  143.6025 LP  0  0  0  0  0  0  0  0  0  0  0  0  # atno 17321 bound_to 7965
  139.7711  143.8492  152.3120 LP  0  0  0  0  0  0  0  0  0  0  0  0  # atno 17342 bound_to 10162
  139.8411  144.7209  150.9329 LP  0  0  0  0  0  0  0  0  0  0  0  0  # atno 17343 bound_to 10162
  157.5103  130.7934  149.7698 LP  0  0  0  0  0  0  0  0  0  0  0  0  # atno 17370 bound_to 10713
  156.0037  130.3866  150.2508 LP  0  0  0  0  0  0  0  0  0  0  0  0  # atno 17371 bound_to 10713
  140.7835  134.3698  157.5481 LP  0  0  0  0  0  0  0  0  0  0  0  0  # atno 17394 bound_to 11000
  139.8801  134.9097  156.2996 LP  0  0  0  0  0  0  0  0  0  0  0  0  # atno 17395 bound_to 11000

$$$$
