AV-unprocessed.smi:1830|AV-procd|sdf|7432|dock7
  -GOLD-   22720 9113D 1   1.00000     0.00000
 Structure written by MMmdl.
 53 56  0  0  0  0  0  0  0  0  2 V2000
  149.3665  133.3016  155.4638 O   0  0  0  0  0  0  0  0  0  0  0  0
  149.1415  134.0516  154.5140 C   0  0  0  0  0  0  0  0  0  0  0  0
  149.7022  135.2598  154.3676 N   0  0  0  0  0  0  0  0  0  0  0  0
  150.7859  135.7842  155.1942 C   0  0  0  0  0  0  0  0  0  0  0  0
  150.4718  137.1943  155.7382 C   0  0  2  0  0  0  0  0  0  0  0  0
  149.6910  138.0786  154.7296 C   0  0  0  0  0  0  0  0  0  0  0  0
  149.5693  139.4379  155.2860 N   0  3  2  0  0  0  0  0  0  0  0  0
  148.8636  140.4560  154.4873 C   0  0  0  0  0  0  0  0  0  0  0  0
  149.4589  141.8044  154.9405 C   0  0  0  0  0  0  0  0  0  0  0  0
  150.5700  141.4527  155.9444 C   0  0  0  0  0  0  0  0  0  0  0  0
  150.8837  140.0009  155.6022 C   0  0  1  0  0  0  0  0  0  0  0  0
  151.5511  139.1304  156.6725 C   0  0  0  0  0  0  0  0  0  0  0  0
  151.7013  137.8209  156.1246 O   0  0  0  0  0  0  0  0  0  0  0  0
  148.3508  133.7527  153.4721 N   0  0  0  0  0  0  0  0  0  0  0  0
  147.8763  132.4555  153.1467 C   0  0  0  0  0  0  0  0  0  0  0  0
  148.3737  131.3249  153.8359 C   0  0  0  0  0  0  0  0  0  0  0  0
  147.8445  130.0558  153.5466 C   0  0  0  0  0  0  0  0  0  0  0  0
  146.8232  129.9668  152.5858 C   0  0  0  0  0  0  0  0  0  0  0  0
  146.3338  131.0374  151.9280 N   0  0  0  0  0  0  0  0  0  0  0  0
  146.8442  132.2678  152.1824 C   0  0  0  0  0  0  0  0  0  0  0  0
  146.3079  133.3450  151.4366 N   0  0  0  0  0  0  0  0  0  0  0  0
  145.7447  134.5090  152.1131 C   0  0  0  0  0  0  0  0  0  0  0  0
  144.9434  135.2450  151.0421 C   0  0  0  0  0  0  0  0  0  0  0  0
  144.4003  134.0997  150.1940 C   0  0  0  0  0  0  0  0  0  0  0  0
  145.5217  133.0585  150.2405 C   0  0  0  0  0  0  0  0  0  0  0  0
  149.4326  135.8130  153.5673 H   0  0  0  0  0  0  0  0  0  0  0  0
  150.9278  135.0963  156.0279 H   0  0  0  0  0  0  0  0  0  0  0  0
  151.7254  135.7891  154.6392 H   0  0  0  0  0  0  0  0  0  0  0  0
  149.8683  137.0792  156.6401 H   0  0  0  0  0  0  0  0  0  0  0  0
  150.2029  138.1335  153.7691 H   0  0  0  0  0  0  0  0  0  0  0  0
  148.6991  137.6653  154.5446 H   0  0  0  0  0  0  0  0  0  0  0  0
  149.0518  140.3001  153.4242 H   0  0  0  0  0  0  0  0  0  0  0  0
  147.7877  140.3981  154.6533 H   0  0  0  0  0  0  0  0  0  0  0  0
  149.8735  142.3337  154.0816 H   0  0  0  0  0  0  0  0  0  0  0  0
  148.7072  142.4513  155.3937 H   0  0  0  0  0  0  0  0  0  0  0  0
  151.4400  142.1049  155.8600 H   0  0  0  0  0  0  0  0  0  0  0  0
  150.1887  141.5270  156.9637 H   0  0  0  0  0  0  0  0  0  0  0  0
  151.4986  139.9893  154.6996 H   0  0  0  0  0  0  0  0  0  0  0  0
  152.5337  139.5249  156.9311 H   0  0  0  0  0  0  0  0  0  0  0  0
  150.9594  139.0949  157.5886 H   0  0  0  0  0  0  0  0  0  0  0  0
  148.3131  134.4333  152.7274 H   0  0  0  0  0  0  0  0  0  0  0  0
  149.1409  131.4246  154.5897 H   0  0  0  0  0  0  0  0  0  0  0  0
  148.2049  129.1747  154.0567 H   0  0  0  0  0  0  0  0  0  0  0  0
  146.3851  129.0109  152.3395 H   0  0  0  0  0  0  0  0  0  0  0  0
  145.0761  134.1992  152.9173 H   0  0  0  0  0  0  0  0  0  0  0  0
  146.5262  135.1389  152.5389 H   0  0  0  0  0  0  0  0  0  0  0  0
  144.1601  135.8790  151.4579 H   0  0  0  0  0  0  0  0  0  0  0  0
  145.6066  135.8706  150.4430 H   0  0  0  0  0  0  0  0  0  0  0  0
  143.5014  133.6928  150.6588 H   0  0  0  0  0  0  0  0  0  0  0  0
  144.1458  134.4038  149.1785 H   0  0  0  0  0  0  0  0  0  0  0  0
  146.1674  133.1727  149.3702 H   0  0  0  0  0  0  0  0  0  0  0  0
  145.1227  132.0434  150.2407 H   0  0  0  0  0  0  0  0  0  0  0  0
  149.0722  139.3644  156.1622 H   0  0  0  0  0  0  0  0  0  0  0  0
  1  2  2  0  0  0  0
  2  3  1  0  0  0  0
  2 14  1  0  0  0  0
  3  4  1  0  0  0  0
  3 26  1  0  0  0  0
  4  5  1  0  0  0  0
  4 27  1  0  0  0  0
  4 28  1  0  0  0  0
  5 13  1  0  0  0  0
  5  6  1  0  0  0  0
  5 29  1  0  0  0  0
  6  7  1  0  0  0  0
  6 30  1  0  0  0  0
  6 31  1  0  0  0  0
  7 11  1  0  0  0  0
  7  8  1  0  0  0  0
  7 53  1  0  0  0  0
  8  9  1  0  0  0  0
  8 32  1  0  0  0  0
  8 33  1  0  0  0  0
  9 10  1  0  0  0  0
  9 34  1  0  0  0  0
  9 35  1  0  0  0  0
 10 11  1  0  0  0  0
 10 36  1  0  0  0  0
 10 37  1  0  0  0  0
 11 12  1  0  0  0  0
 11 38  1  0  0  0  0
 12 13  1  0  0  0  0
 12 39  1  0  0  0  0
 12 40  1  0  0  0  0
 14 15  1  0  0  0  0
 14 41  1  0  0  0  0
 15 20  1  0  0  0  0
 15 16  2  0  0  0  0
 16 17  1  0  0  0  0
 16 42  1  0  0  0  0
 17 18  2  0  0  0  0
 17 43  1  0  0  0  0
 18 19  1  0  0  0  0
 18 44  1  0  0  0  0
 19 20  2  0  0  0  0
 20 21  1  0  0  0  0
 21 25  1  0  0  0  0
 21 22  1  0  0  0  0
 22 23  1  0  0  0  0
 22 45  1  0  0  0  0
 22 46  1  0  0  0  0
 23 24  1  0  0  0  0
 23 47  1  0  0  0  0
 23 48  1  0  0  0  0
 24 25  1  0  0  0  0
 24 49  1  0  0  0  0
 24 50  1  0  0  0  0
 25 51  1  0  0  0  0
 25 52  1  0  0  0  0
M  CHG  1   7   1
M  END
> <s_m_source_file>
AV-unprocessed.smi

> <i_m_source_file_index>
1830

> <i_lp_mmshare_version>
43012

> <i_f3d_flags>
0

> <s_epik_input>
W0NIMl0xW0NIMl1bQ0gyXVtDQEhdKE4xMilbQ0gyXU9bQ0BASF0oW0NIMl0yKVtDSDJdW05IXUMoPU8pW05IXWMzW2NIXVtjSF1bY0hdbmMzTjRbQ0gyXVtDSDJdW0NIMl1bQ0gyXTQ=

> <s_epik_cmdline>
J2VwaWtfcHl0aG9uJywgJy1waCcsICc3LjAnLCAnLXRuJywgJzgnLCAnLW1hJywgJzIwMCcsICctbWV0YWxfYmluZGluZycsICctaW1hZScsICc8aW5maWxlLm1hZT4nLCAnLW9tYWUnLCAnPG91dGZpbGUubWFlPic=

> <r_lp_tautomer_probability>
1

> <r_epik_Ionization_Penalty>
0.193547

> <r_epik_Ionization_Penalty_Charging>
0.10673

> <r_epik_Ionization_Penalty_Neutral>
0.0868166

> <r_epik_State_Penalty>
0.173595

> <r_epik_Charging_Adjusted_Penalty>
0.280326

> <i_epik_Tot_Q>
1

> <i_epik_Tot_abs_Q>
1

> <r_epik_Metal_State_Penalty>
0.164683

> <b_epik_Metal_Only>
0

> <s_lp_Force_Field>
OPLS_2005

> <r_lp_Energy>
64.1667

> <b_lp_Chiralities_Consistent>
1

> <s_lp_Variant>
AV-unprocessed.smi:1830-1

> <Gold.Version>
5.8.1

> <Gold.Id.Protein>
6NUR|6NUR_protein|mol2

> <Gold.PLP.Fitness>
44.7390

> <Gold.PLP.PLP>
-39.3991

> <Gold.PLP.part.hbond>
-2.2580

> <Gold.PLP.part.metal>
0.0000

> <Gold.PLP.part.buried>
-0.8364

> <Gold.PLP.part.nonpolar>
-35.7453

> <Gold.PLP.part.repulsive>
0.4287

> <Gold.PLP.ligand.clash>
0.1274

> <Gold.PLP.ligand.torsion>
0.5048

> <Gold.PLP.Chemscore.Hbond>
2.0000

> <Gold.PLP.Chemscore.CHOScore>
0.0000

> <Gold.PLP.Chemscore.Metal>
0.0000

> <Gold.Chemscore.Hbonds>
donor molecule, donor type, donor heavy atom, donor atom, acceptor molecule, acceptor atom, score
      L1  H     3    26       P1  7948  1.00
      L1  H    14    41       P1  7948  0.96

> <Gold.PLP.Chemscore.Internal.Correction>
0.4769

> <Gold.Rescore>
     Score         DG    S(hbond)    S(metal)    S(lipo)     H(rot)  DE(clash)    DE(int)     intcor
     14.59     -17.01       1.17        0.00      95.99       1.41       0.38       2.03       ----

> <Gold.Chemscore.Fitness>
14.5909

> <Gold.Chemscore.DG>
-17.0067

> <Gold.Chemscore.ZeroCoef>
-5.4800

> <Gold.Chemscore.Hbond>
1.1668

> <Gold.Chemscore.Metal>
0.0000

> <Gold.Chemscore.Lipo>
95.9883

> <Gold.Chemscore.Internal_Hbond>
0.0000

> <Gold.Chemscore.DEClash>
0.3842

> <Gold.Chemscore.DEInternal>
2.0315

> <Gold.Chemscore.Rot>
1.4067

> <Gold.Chemscore.Internal.Correction>
   9.000000E+99

> <Gold.Chemscore.Hbonds>
donor molecule, donor type, donor heavy atom, donor atom, acceptor molecule, acceptor atom, score
      L1  H     3    26       P1  7948  0.39
      L1  H    14    41       P1  7948  0.22

> <Gold.Chemscore.Hbond.Weighted>
-3.8971

> <Gold.Chemscore.Metal.Weighted>
-0.0000

> <Gold.Chemscore.Lipo.Weighted>
-11.2306

> <Gold.Chemscore.Internal_Hbond.Weighted>
0.0000

> <Gold.Chemscore.DEClash.Weighted>
0.3842

> <Gold.Chemscore.DEInternal.Weighted>
2.0315

> <Gold.Chemscore.Rot.Weighted>
3.6011

> <Gold.Chemscore.Internal.Correction.Weighted>
   9.000000E+99

> <Gold.Protein.RotatedTorsions>
[ 6907 6896 6895 6894 ] final   69.04 input  -60.11 | X-H torsion
[ 7974 7965 7964 7962 ] final   46.58 input  175.53 | X-H torsion
[ 8008 7997 7996 7995 ] final -112.01 input   59.86 | X-H torsion
[ 10167 10162 10161 10158 ] final  -71.47 input  -65.29 | X-H torsion
[ 10718 10713 10712 10709 ] final   58.56 input   66.30 | X-H torsion
[ 10763 10752 10751 10750 ] final -133.61 input  -60.55 | X-H torsion
[ 11005 11000 10999 10996 ] final  -72.24 input  -57.11 | X-H torsion

> <Gold.Protein.ActiveResidues>
 VAL166  LYS551  ARG553  GLY616  TRP617  ASP618  TYR619  PRO620  LYS621  CYS622 
 ASP623  PHE694  ASN695  SER759  ASP760  ASP761  ALA762  ILE779  LEU786  VAL792 
 PHE793  MET794  SER795  GLU796  ALA797  LYS798  CYS799  TRP800  GLU811  SER814 

> <Gold.Protein.RotatedAtoms>
  152.4660  134.5073  159.9742 H   0  0  0  0  0  0  0  0  0  0  0  0  # atno 6907 bound_to 6896
  151.5111  133.3479  159.2893 H   0  0  0  0  0  0  0  0  0  0  0  0  # atno 6908 bound_to 6896
  150.8645  134.8034  159.7170 H   0  0  0  0  0  0  0  0  0  0  0  0  # atno 6909 bound_to 6896
  146.0376  139.4840  142.9798 H   0  0  0  0  0  0  0  0  0  0  0  0  # atno 7974 bound_to 7965
  154.9986  140.0394  157.2350 H   0  0  0  0  0  0  0  0  0  0  0  0  # atno 8008 bound_to 7997
  154.7564  140.2776  155.6227 H   0  0  0  0  0  0  0  0  0  0  0  0  # atno 8009 bound_to 7997
  156.2895  140.2637  156.2331 H   0  0  0  0  0  0  0  0  0  0  0  0  # atno 8010 bound_to 7997
  140.5270  143.2325  151.7329 H   0  0  0  0  0  0  0  0  0  0  0  0  # atno 10167 bound_to 10162
  157.5606  130.8833  149.9105 H   0  0  0  0  0  0  0  0  0  0  0  0  # atno 10718 bound_to 10713
  154.8730  135.3760  154.4601 H   0  0  0  0  0  0  0  0  0  0  0  0  # atno 10763 bound_to 10752
  153.5269  135.7028  153.5708 H   0  0  0  0  0  0  0  0  0  0  0  0  # atno 10764 bound_to 10752
  153.3929  135.3967  155.1901 H   0  0  0  0  0  0  0  0  0  0  0  0  # atno 10765 bound_to 10752
  141.1605  133.6841  156.7028 H   0  0  0  0  0  0  0  0  0  0  0  0  # atno 11005 bound_to 11000
  145.6937  141.0156  143.1541 LP  0  0  0  0  0  0  0  0  0  0  0  0  # atno 17320 bound_to 7965
  144.7059  139.8563  143.7430 LP  0  0  0  0  0  0  0  0  0  0  0  0  # atno 17321 bound_to 7965
  139.4941  144.4170  152.0019 LP  0  0  0  0  0  0  0  0  0  0  0  0  # atno 17342 bound_to 10162
  140.3270  144.3361  150.5996 LP  0  0  0  0  0  0  0  0  0  0  0  0  # atno 17343 bound_to 10162
  156.0659  130.3692  150.0879 LP  0  0  0  0  0  0  0  0  0  0  0  0  # atno 17370 bound_to 10713
  156.9044  130.9631  151.3572 LP  0  0  0  0  0  0  0  0  0  0  0  0  # atno 17371 bound_to 10713
  140.2946  134.8213  157.4046 LP  0  0  0  0  0  0  0  0  0  0  0  0  # atno 17394 bound_to 11000
  140.1316  134.5087  155.8101 LP  0  0  0  0  0  0  0  0  0  0  0  0  # atno 17395 bound_to 11000

$$$$
