AV-unprocessed.smi:668|AV-procd|sdf|3261|dock2
  -GOLD-   22720 0213D 1   1.00000     0.00000
 Structure written by MMmdl.
 38 39  0  0  0  0  0  0  0  0  1 V2000
  152.5702  136.0652  157.9265 C   0  0  0  0  0  0  0  0  0  0  0  0
  152.0089  134.7611  157.8253 O   0  0  0  0  0  0  0  0  0  0  0  0
  151.0990  134.5160  156.8173 C   0  0  0  0  0  0  0  0  0  0  0  0
  150.4730  133.2552  156.7656 C   0  0  0  0  0  0  0  0  0  0  0  0
  149.5389  132.9981  155.7434 C   0  0  0  0  0  0  0  0  0  0  0  0
  149.2612  134.0146  154.7974 C   0  0  0  0  0  0  0  0  0  0  0  0
  148.3360  133.9004  153.7224 N   0  0  0  0  0  0  0  0  0  0  0  0
  147.6621  132.8236  153.2825 C   0  0  0  0  0  0  0  0  0  0  0  0
  147.7512  131.6841  153.7376 O   0  0  0  0  0  0  0  0  0  0  0  0
  146.8662  133.1445  152.2529 N   0  0  0  0  0  0  0  0  0  0  0  0
  145.9956  132.2115  151.5331 C   0  0  2  0  0  0  0  0  0  0  0  0
  146.3475  132.1416  150.0312 C   0  0  0  0  0  0  0  0  0  0  0  0
  145.0471  132.3744  149.2574 C   0  0  0  0  0  0  0  0  0  0  0  0
  143.9288  132.0992  150.2623 C   0  0  0  0  0  0  0  0  0  0  0  0
  144.4800  132.5480  151.6250 C   0  0  2  0  0  0  0  0  0  0  0  0
  144.1432  134.0317  151.8902 C   0  0  0  0  0  0  0  0  0  0  0  0
  143.3593  134.2967  152.9386 N   0  0  0  0  0  0  0  0  0  0  0  0
  144.5829  134.9241  151.1671 O   0  0  0  0  0  0  0  0  0  0  0  0
  149.9416  135.2419  154.9399 C   0  0  0  0  0  0  0  0  0  0  0  0
  150.8371  135.4953  155.9172 N   0  0  0  0  0  0  0  0  0  0  0  0
  153.2570  136.0979  158.7721 H   0  0  0  0  0  0  0  0  0  0  0  0
  151.8000  136.8188  158.0973 H   0  0  0  0  0  0  0  0  0  0  0  0
  153.1351  136.3267  157.0307 H   0  0  0  0  0  0  0  0  0  0  0  0
  150.7022  132.4979  157.5008 H   0  0  0  0  0  0  0  0  0  0  0  0
  149.0588  132.0335  155.7201 H   0  0  0  0  0  0  0  0  0  0  0  0
  148.1707  134.7555  153.2119 H   0  0  0  0  0  0  0  0  0  0  0  0
  146.8633  134.1026  151.9346 H   0  0  0  0  0  0  0  0  0  0  0  0
  146.1323  131.2173  151.9632 H   0  0  0  0  0  0  0  0  0  0  0  0
  147.1015  132.8741  149.7391 H   0  0  0  0  0  0  0  0  0  0  0  0
  146.7544  131.1571  149.7973 H   0  0  0  0  0  0  0  0  0  0  0  0
  144.9989  133.4117  148.9244 H   0  0  0  0  0  0  0  0  0  0  0  0
  144.9720  131.7446  148.3706 H   0  0  0  0  0  0  0  0  0  0  0  0
  142.9991  132.5982  149.9842 H   0  0  0  0  0  0  0  0  0  0  0  0
  143.7201  131.0290  150.2925 H   0  0  0  0  0  0  0  0  0  0  0  0
  144.0224  131.9525  152.4170 H   0  0  0  0  0  0  0  0  0  0  0  0
  143.1113  135.2511  153.1562 H   0  0  0  0  0  0  0  0  0  0  0  0
  143.0184  133.5391  153.5125 H   0  0  0  0  0  0  0  0  0  0  0  0
  149.7617  136.0511  154.2470 H   0  0  0  0  0  0  0  0  0  0  0  0
  1  2  1  0  0  0  0
  1 21  1  0  0  0  0
  1 22  1  0  0  0  0
  1 23  1  0  0  0  0
  2  3  1  0  0  0  0
  3 20  1  0  0  0  0
  3  4  2  0  0  0  0
  4  5  1  0  0  0  0
  4 24  1  0  0  0  0
  5  6  2  0  0  0  0
  5 25  1  0  0  0  0
  6  7  1  0  0  0  0
  6 19  1  0  0  0  0
  7  8  1  0  0  0  0
  7 26  1  0  0  0  0
  8  9  2  0  0  0  0
  8 10  1  0  0  0  0
 10 11  1  0  0  0  0
 10 27  1  0  0  0  0
 11 15  1  0  0  0  0
 11 12  1  0  0  0  0
 11 28  1  0  0  0  0
 12 13  1  0  0  0  0
 12 29  1  0  0  0  0
 12 30  1  0  0  0  0
 13 14  1  0  0  0  0
 13 31  1  0  0  0  0
 13 32  1  0  0  0  0
 14 15  1  0  0  0  0
 14 33  1  0  0  0  0
 14 34  1  0  0  0  0
 15 16  1  0  0  0  0
 15 35  1  0  0  0  0
 16 17  1  0  0  0  0
 16 18  2  0  0  0  0
 17 36  1  0  0  0  0
 17 37  1  0  0  0  0
 19 20  2  0  0  0  0
 19 38  1  0  0  0  0
M  END
> <s_m_source_file>
AV-unprocessed.smi

> <i_m_source_file_index>
668

> <i_lp_mmshare_version>
43012

> <i_f3d_flags>
0

> <s_epik_input>
W0NIM11PYzFbY0hdW2NIXWMoW2NIXW4xKVtOSF1DKD1PKVtOSF1bQ0BASF0yW0NIMl1bQ0gyXVtDSDJdW0NASF0yQyg9TylbTkgyXQ==

> <s_epik_cmdline>
J2VwaWtfcHl0aG9uJywgJy1waCcsICc3LjAnLCAnLXRuJywgJzgnLCAnLW1hJywgJzIwMCcsICctbWV0YWxfYmluZGluZycsICctaW1hZScsICc8aW5maWxlLm1hZT4nLCAnLW9tYWUnLCAnPG91dGZpbGUubWFlPic=

> <r_lp_tautomer_probability>
1

> <r_epik_Ionization_Penalty>
9.0916e-05

> <r_epik_Ionization_Penalty_Charging>
0

> <r_epik_Ionization_Penalty_Neutral>
9.0916e-05

> <r_epik_State_Penalty>
-0

> <r_epik_Charging_Adjusted_Penalty>
0

> <i_epik_Tot_Q>
0

> <i_epik_Tot_abs_Q>
0

> <r_epik_Metal_State_Penalty>
-0

> <b_epik_Metal_Only>
0

> <s_lp_Force_Field>
OPLS_2005

> <r_lp_Energy>
18.8655

> <b_lp_Chiralities_Consistent>
1

> <s_lp_Variant>
AV-unprocessed.smi:668-3

> <Gold.Version>
5.8.1

> <Gold.Id.Protein>
6NUR|6NUR_protein|mol2

> <Gold.PLP.Fitness>
43.6144

> <Gold.PLP.PLP>
-32.9702

> <Gold.PLP.part.hbond>
-4.3043

> <Gold.PLP.part.metal>
0.0000

> <Gold.PLP.part.buried>
-1.5343

> <Gold.PLP.part.nonpolar>
-25.4635

> <Gold.PLP.part.repulsive>
0.3507

> <Gold.PLP.ligand.clash>
0.0000

> <Gold.PLP.ligand.torsion>
0.0725

> <Gold.PLP.Chemscore.Hbond>
2.6975

> <Gold.PLP.Chemscore.CHOScore>
0.8901

> <Gold.PLP.Chemscore.Metal>
0.0000

> <Gold.Chemscore.Hbonds>
donor molecule, donor type, donor heavy atom, donor atom, acceptor molecule, acceptor atom, score
      L1  H     7    26       P1  7948  0.71
      L1  H    17    37       P1 10957  0.57
      L1  C    19    38       P1  7948  1.00

> <Gold.PLP.Chemscore.Internal.Correction>
0.0266

> <Gold.Rescore>
     Score         DG    S(hbond)    S(metal)    S(lipo)     H(rot)  DE(clash)    DE(int)     intcor
     13.23     -14.80       1.70        0.00      71.99       1.86       0.43       1.14       ----

> <Gold.Chemscore.Fitness>
13.2295

> <Gold.Chemscore.DG>
-14.8029

> <Gold.Chemscore.ZeroCoef>
-5.4800

> <Gold.Chemscore.Hbond>
1.6987

> <Gold.Chemscore.Metal>
0.0000

> <Gold.Chemscore.Lipo>
71.9929

> <Gold.Chemscore.Internal_Hbond>
0.0000

> <Gold.Chemscore.DEClash>
0.4342

> <Gold.Chemscore.DEInternal>
1.1392

> <Gold.Chemscore.Rot>
1.8648

> <Gold.Chemscore.Internal.Correction>
   9.000000E+99

> <Gold.Chemscore.Hbonds>
donor molecule, donor type, donor heavy atom, donor atom, acceptor molecule, acceptor atom, score
      L1  H     7    26       P1  7948  0.56
      L1  H    17    37       P1 10957  0.56

> <Gold.Chemscore.Hbond.Weighted>
-5.6736

> <Gold.Chemscore.Metal.Weighted>
-0.0000

> <Gold.Chemscore.Lipo.Weighted>
-8.4232

> <Gold.Chemscore.Internal_Hbond.Weighted>
0.0000

> <Gold.Chemscore.DEClash.Weighted>
0.4342

> <Gold.Chemscore.DEInternal.Weighted>
1.1392

> <Gold.Chemscore.Rot.Weighted>
4.7739

> <Gold.Chemscore.Internal.Correction.Weighted>
   9.000000E+99

> <Gold.Protein.RotatedTorsions>
[ 6907 6896 6895 6894 ] final -130.18 input  -60.11 | X-H torsion
[ 7974 7965 7964 7962 ] final -176.74 input  175.53 | X-H torsion
[ 8008 7997 7996 7995 ] final  148.69 input   59.86 | X-H torsion
[ 10167 10162 10161 10158 ] final   85.12 input  -65.29 | X-H torsion
[ 10718 10713 10712 10709 ] final  -15.09 input   66.30 | X-H torsion
[ 10763 10752 10751 10750 ] final  -67.53 input  -60.55 | X-H torsion
[ 11005 11000 10999 10996 ] final  123.32 input  -57.11 | X-H torsion

> <Gold.Protein.ActiveResidues>
 VAL166  LYS551  ARG553  GLY616  TRP617  ASP618  TYR619  PRO620  LYS621  CYS622 
 ASP623  PHE694  ASN695  SER759  ASP760  ASP761  ALA762  ILE779  LEU786  VAL792 
 PHE793  MET794  SER795  GLU796  ALA797  LYS798  CYS799  TRP800  GLU811  SER814 

> <Gold.Protein.RotatedAtoms>
  150.9369  133.6701  159.2798 H   0  0  0  0  0  0  0  0  0  0  0  0  # atno 6907 bound_to 6896
  151.4104  135.0983  159.9593 H   0  0  0  0  0  0  0  0  0  0  0  0  # atno 6908 bound_to 6896
  152.5052  133.8843  159.7417 H   0  0  0  0  0  0  0  0  0  0  0  0  # atno 6909 bound_to 6896
  144.7127  140.1124  143.6410 H   0  0  0  0  0  0  0  0  0  0  0  0  # atno 7974 bound_to 7965
  156.2782  140.2122  156.5738 H   0  0  0  0  0  0  0  0  0  0  0  0  # atno 8008 bound_to 7997
  154.7114  140.0511  157.0576 H   0  0  0  0  0  0  0  0  0  0  0  0  # atno 8009 bound_to 7997
  155.0600  140.3165  155.4666 H   0  0  0  0  0  0  0  0  0  0  0  0  # atno 8010 bound_to 7997
  139.9010  144.6329  150.8637 H   0  0  0  0  0  0  0  0  0  0  0  0  # atno 10167 bound_to 10162
  156.6067  130.4838  149.6218 H   0  0  0  0  0  0  0  0  0  0  0  0  # atno 10718 bound_to 10713
  154.3759  135.6085  153.5764 H   0  0  0  0  0  0  0  0  0  0  0  0  # atno 10763 bound_to 10752
  152.9789  135.5849  154.4468 H   0  0  0  0  0  0  0  0  0  0  0  0  # atno 10764 bound_to 10752
  154.4229  135.2846  155.1941 H   0  0  0  0  0  0  0  0  0  0  0  0  # atno 10765 bound_to 10752
  139.9307  134.9641  156.8242 H   0  0  0  0  0  0  0  0  0  0  0  0  # atno 11005 bound_to 11000
  145.9443  139.2690  143.1250 LP  0  0  0  0  0  0  0  0  0  0  0  0  # atno 17320 bound_to 7965
  145.9391  140.8993  143.0317 LP  0  0  0  0  0  0  0  0  0  0  0  0  # atno 17321 bound_to 7965
  140.7707  143.3437  151.2155 LP  0  0  0  0  0  0  0  0  0  0  0  0  # atno 17342 bound_to 10162
  139.7025  143.9509  152.2912 LP  0  0  0  0  0  0  0  0  0  0  0  0  # atno 17343 bound_to 10162
  156.2424  130.6859  151.1568 LP  0  0  0  0  0  0  0  0  0  0  0  0  # atno 17370 bound_to 10713
  157.7265  131.0645  150.5906 LP  0  0  0  0  0  0  0  0  0  0  0  0  # atno 17371 bound_to 10713
  140.6209  133.9994  155.7618 LP  0  0  0  0  0  0  0  0  0  0  0  0  # atno 17394 bound_to 11000
  141.0894  133.9940  157.3261 LP  0  0  0  0  0  0  0  0  0  0  0  0  # atno 17395 bound_to 11000

$$$$
