AV-unprocessed.smi:2587|AV-procd|sdf|10146|dock7
  -GOLD-   2272014153D 1   1.00000     0.00000
 Structure written by MMmdl.
 39 40  0  0  0  0  0  0  0  0  1 V2000
  146.5554  142.7742  153.9657 C   0  0  0  0  0  0  0  0  0  0  0  0
  146.7388  142.1205  155.1223 C   0  0  0  0  0  0  0  0  0  0  0  0
  148.0784  141.9665  155.8139 C   0  0  0  0  0  0  0  0  0  0  0  0
  148.9463  140.9909  155.1549 N   0  0  0  0  0  0  0  0  0  0  0  0
  148.5787  140.5297  153.8188 C   0  0  0  0  0  0  0  0  0  0  0  0
  148.2912  139.0212  153.7808 C   0  0  0  0  0  0  0  0  0  0  0  0
  147.8376  138.6615  152.4946 O   0  0  0  0  0  0  0  0  0  0  0  0
  150.2049  140.6620  155.7157 C   0  0  0  0  0  0  0  0  0  0  0  0
  150.6689  141.2355  156.9270 C   0  0  0  0  0  0  0  0  0  0  0  0
  151.9427  140.8397  157.4007 C   0  0  0  0  0  0  0  0  0  0  0  0
  152.4655  141.3711  158.5995 N   0  0  0  0  0  0  0  0  0  0  0  0
  151.7916  142.5279  159.1864 C   0  0  0  0  0  0  0  0  0  0  0  0
  152.6547  143.1420  160.3016 C   0  0  0  0  0  0  0  0  0  0  0  0
  152.9755  142.1443  161.2649 O   0  0  0  0  0  0  0  0  0  0  0  0
  153.7290  141.0800  160.6936 C   0  0  0  0  0  0  0  0  0  0  0  0
  152.9064  140.3921  159.5904 C   0  0  0  0  0  0  0  0  0  0  0  0
  152.6782  139.9342  156.7128 N   0  0  0  0  0  0  0  0  0  0  0  0
  152.1590  139.4510  155.5851 C   0  0  0  0  0  0  0  0  0  0  0  0
  150.9766  139.7647  155.0564 N   0  0  0  0  0  0  0  0  0  0  0  0
  147.3809  143.2388  153.4462 H   0  0  0  0  0  0  0  0  0  0  0  0
  145.5735  142.8522  153.5228 H   0  0  0  0  0  0  0  0  0  0  0  0
  145.8880  141.6715  155.6140 H   0  0  0  0  0  0  0  0  0  0  0  0
  148.5781  142.9358  155.8409 H   0  0  0  0  0  0  0  0  0  0  0  0
  147.9136  141.6887  156.8553 H   0  0  0  0  0  0  0  0  0  0  0  0
  147.7355  141.1015  153.4320 H   0  0  0  0  0  0  0  0  0  0  0  0
  149.4065  140.7519  153.1441 H   0  0  0  0  0  0  0  0  0  0  0  0
  149.1897  138.4490  154.0132 H   0  0  0  0  0  0  0  0  0  0  0  0
  147.5314  138.7465  154.5128 H   0  0  0  0  0  0  0  0  0  0  0  0
  147.9895  137.7373  152.3695 H   0  0  0  0  0  0  0  0  0  0  0  0
  150.0727  141.9335  157.4924 H   0  0  0  0  0  0  0  0  0  0  0  0
  151.6005  143.2827  158.4224 H   0  0  0  0  0  0  0  0  0  0  0  0
  150.8261  142.2183  159.5889 H   0  0  0  0  0  0  0  0  0  0  0  0
  153.5690  143.5746  159.8917 H   0  0  0  0  0  0  0  0  0  0  0  0
  152.1132  143.9503  160.7931 H   0  0  0  0  0  0  0  0  0  0  0  0
  154.6713  141.4600  160.2955 H   0  0  0  0  0  0  0  0  0  0  0  0
  153.9806  140.3637  161.4757 H   0  0  0  0  0  0  0  0  0  0  0  0
  152.0281  139.9130  160.0248 H   0  0  0  0  0  0  0  0  0  0  0  0
  153.5081  139.6029  159.1421 H   0  0  0  0  0  0  0  0  0  0  0  0
  152.7565  138.7320  155.0445 H   0  0  0  0  0  0  0  0  0  0  0  0
  1  2  2  0  0  0  0
  1 20  1  0  0  0  0
  1 21  1  0  0  0  0
  2  3  1  0  0  0  0
  2 22  1  0  0  0  0
  3  4  1  0  0  0  0
  3 23  1  0  0  0  0
  3 24  1  0  0  0  0
  4  5  1  0  0  0  0
  4  8  1  0  0  0  0
  5  6  1  0  0  0  0
  5 25  1  0  0  0  0
  5 26  1  0  0  0  0
  6  7  1  0  0  0  0
  6 27  1  0  0  0  0
  6 28  1  0  0  0  0
  7 29  1  0  0  0  0
  8 19  1  0  0  0  0
  8  9  2  0  0  0  0
  9 10  1  0  0  0  0
  9 30  1  0  0  0  0
 10 11  1  0  0  0  0
 10 17  2  0  0  0  0
 11 16  1  0  0  0  0
 11 12  1  0  0  0  0
 12 13  1  0  0  0  0
 12 31  1  0  0  0  0
 12 32  1  0  0  0  0
 13 14  1  0  0  0  0
 13 33  1  0  0  0  0
 13 34  1  0  0  0  0
 14 15  1  0  0  0  0
 15 16  1  0  0  0  0
 15 35  1  0  0  0  0
 15 36  1  0  0  0  0
 16 37  1  0  0  0  0
 16 38  1  0  0  0  0
 17 18  1  0  0  0  0
 18 19  2  0  0  0  0
 18 39  1  0  0  0  0
M  END
> <s_m_source_file>
AV-unprocessed.smi

> <i_m_source_file_index>
2587

> <i_lp_mmshare_version>
43012

> <i_f3d_flags>
0

> <s_epik_input>
W0NIMl09W0NIXVtDSDJdTihbQ0gyXVtDSDJdW09IXSljMVtjSF1jKG5bY0hdbjEpTjJbQ0gyXVtDSDJdT1tDSDJdW0NIMl0y

> <s_epik_cmdline>
J2VwaWtfcHl0aG9uJywgJy1waCcsICc3LjAnLCAnLXRuJywgJzgnLCAnLW1hJywgJzIwMCcsICctbWV0YWxfYmluZGluZycsICctaW1hZScsICc8aW5maWxlLm1hZT4nLCAnLW9tYWUnLCAnPG91dGZpbGUubWFlPic=

> <r_lp_tautomer_probability>
1

> <r_epik_Ionization_Penalty>
0.00218234

> <r_epik_Ionization_Penalty_Charging>
0

> <r_epik_Ionization_Penalty_Neutral>
0.00218234

> <r_epik_State_Penalty>
0.00992355

> <r_epik_Charging_Adjusted_Penalty>
0.00992355

> <i_epik_Tot_Q>
0

> <i_epik_Tot_abs_Q>
0

> <r_epik_Metal_State_Penalty>
0.00985368

> <b_epik_Metal_Only>
0

> <s_lp_Force_Field>
OPLS_2005

> <r_lp_Energy>
11.4622

> <b_lp_Chiralities_Consistent>
1

> <s_lp_Variant>
AV-unprocessed.smi:2587-1

> <Gold.Version>
5.8.1

> <Gold.Id.Protein>
6NUR|6NUR_protein|mol2

> <Gold.PLP.Fitness>
45.3746

> <Gold.PLP.PLP>
-37.0147

> <Gold.PLP.part.hbond>
-4.0000

> <Gold.PLP.part.metal>
0.0000

> <Gold.PLP.part.buried>
-0.3536

> <Gold.PLP.part.nonpolar>
-32.1514

> <Gold.PLP.part.repulsive>
0.0727

> <Gold.PLP.ligand.clash>
0.0000

> <Gold.PLP.ligand.torsion>
0.4453

> <Gold.PLP.Chemscore.Hbond>
2.9000

> <Gold.PLP.Chemscore.CHOScore>
0.0000

> <Gold.PLP.Chemscore.Metal>
0.0000

> <Gold.Chemscore.Hbonds>
donor molecule, donor type, donor heavy atom, donor atom, acceptor molecule, acceptor atom, score
      L1  H     7    29       P1  7948  1.00
      P1  H  7989  7998       L1    19  0.90
      P1  H  7997  8009       L1    17  1.00

> <Gold.PLP.Chemscore.Internal.Correction>
0.5505

> <Gold.Rescore>
     Score         DG    S(hbond)    S(metal)    S(lipo)     H(rot)  DE(clash)    DE(int)     intcor
     12.74     -13.74       1.85        0.00      72.69       2.51       0.55       0.45       ----

> <Gold.Chemscore.Fitness>
12.7356

> <Gold.Chemscore.DG>
-13.7368

> <Gold.Chemscore.ZeroCoef>
-5.4800

> <Gold.Chemscore.Hbond>
1.8514

> <Gold.Chemscore.Metal>
0.0000

> <Gold.Chemscore.Lipo>
72.6889

> <Gold.Chemscore.Internal_Hbond>
0.0000

> <Gold.Chemscore.DEClash>
0.5500

> <Gold.Chemscore.DEInternal>
0.4512

> <Gold.Chemscore.Rot>
2.5123

> <Gold.Chemscore.Internal.Correction>
   9.000000E+99

> <Gold.Chemscore.Hbonds>
donor molecule, donor type, donor heavy atom, donor atom, acceptor molecule, acceptor atom, score
      L1  H     7    29       P1  7948  0.98
      P1  H  7989  7998       L1    19  0.06
      P1  H  7997  8009       L1    17  0.84

> <Gold.Chemscore.Hbond.Weighted>
-6.1837

> <Gold.Chemscore.Metal.Weighted>
-0.0000

> <Gold.Chemscore.Lipo.Weighted>
-8.5046

> <Gold.Chemscore.Internal_Hbond.Weighted>
0.0000

> <Gold.Chemscore.DEClash.Weighted>
0.5500

> <Gold.Chemscore.DEInternal.Weighted>
0.4512

> <Gold.Chemscore.Rot.Weighted>
6.4315

> <Gold.Chemscore.Internal.Correction.Weighted>
   9.000000E+99

> <Gold.Protein.RotatedTorsions>
[ 6907 6896 6895 6894 ] final -138.42 input  -60.11 | X-H torsion
[ 7974 7965 7964 7962 ] final    8.77 input  175.53 | X-H torsion
[ 8008 7997 7996 7995 ] final  173.19 input   59.86 | X-H torsion
[ 10167 10162 10161 10158 ] final  150.69 input  -65.29 | X-H torsion
[ 10718 10713 10712 10709 ] final   26.12 input   66.30 | X-H torsion
[ 10763 10752 10751 10750 ] final -155.83 input  -60.55 | X-H torsion
[ 11005 11000 10999 10996 ] final   44.20 input  -57.11 | X-H torsion

> <Gold.Protein.ActiveResidues>
 VAL166  LYS551  ARG553  GLY616  TRP617  ASP618  TYR619  PRO620  LYS621  CYS622 
 ASP623  PHE694  ASN695  SER759  ASP760  ASP761  ALA762  ILE779  LEU786  VAL792 
 PHE793  MET794  SER795  GLU796  ALA797  LYS798  CYS799  TRP800  GLU811  SER814 

> <Gold.Protein.RotatedAtoms>
  151.0349  133.5757  159.2656 H   0  0  0  0  0  0  0  0  0  0  0  0  # atno 6907 bound_to 6896
  151.2825  135.0717  159.9184 H   0  0  0  0  0  0  0  0  0  0  0  0  # atno 6908 bound_to 6896
  152.5352  134.0061  159.7971 H   0  0  0  0  0  0  0  0  0  0  0  0  # atno 6909 bound_to 6896
  146.2412  139.9883  142.8428 H   0  0  0  0  0  0  0  0  0  0  0  0  # atno 7974 bound_to 7965
  156.1100  140.1466  156.9351 H   0  0  0  0  0  0  0  0  0  0  0  0  # atno 8008 bound_to 7997
  154.4760  140.0894  156.7307 H   0  0  0  0  0  0  0  0  0  0  0  0  # atno 8009 bound_to 7997
  155.4612  140.3438  155.4315 H   0  0  0  0  0  0  0  0  0  0  0  0  # atno 8010 bound_to 7997
  139.4847  144.5502  151.7414 H   0  0  0  0  0  0  0  0  0  0  0  0  # atno 10167 bound_to 10162
  157.2025  130.6896  149.6194 H   0  0  0  0  0  0  0  0  0  0  0  0  # atno 10718 bound_to 10713
  154.7758  135.3159  154.8095 H   0  0  0  0  0  0  0  0  0  0  0  0  # atno 10763 bound_to 10752
  153.8819  135.6834  153.4770 H   0  0  0  0  0  0  0  0  0  0  0  0  # atno 10764 bound_to 10752
  153.1381  135.4751  154.9390 H   0  0  0  0  0  0  0  0  0  0  0  0  # atno 10765 bound_to 10752
  140.1573  134.4385  155.8341 H   0  0  0  0  0  0  0  0  0  0  0  0  # atno 11005 bound_to 11000
  145.1527  140.9631  143.4423 LP  0  0  0  0  0  0  0  0  0  0  0  0  # atno 17320 bound_to 7965
  145.0190  139.3441  143.6082 LP  0  0  0  0  0  0  0  0  0  0  0  0  # atno 17321 bound_to 7965
  140.5054  144.1105  150.5981 LP  0  0  0  0  0  0  0  0  0  0  0  0  # atno 17342 bound_to 10162
  140.4013  143.2702  151.9944 LP  0  0  0  0  0  0  0  0  0  0  0  0  # atno 17343 bound_to 10162
  155.9699  130.4578  150.5975 LP  0  0  0  0  0  0  0  0  0  0  0  0  # atno 17370 bound_to 10713
  157.3753  131.0772  151.1523 LP  0  0  0  0  0  0  0  0  0  0  0  0  # atno 17371 bound_to 10713
  141.2206  133.6898  156.7531 LP  0  0  0  0  0  0  0  0  0  0  0  0  # atno 17394 bound_to 11000
  140.2531  134.8525  157.3687 LP  0  0  0  0  0  0  0  0  0  0  0  0  # atno 17395 bound_to 11000

$$$$
