AV-unprocessed.smi:1915|AV-procd|sdf|7763|dock8
  -GOLD-   22720 9503D 1   1.00000     0.00000
 Structure written by MMmdl.
 45 46  0  0  0  0  0  0  0  0  2 V2000
  151.8381  141.4712  159.1776 C   0  0  0  0  0  0  0  0  0  0  0  0
  151.2974  140.7532  157.9291 C   0  0  0  0  0  0  0  0  0  0  0  0
  150.0859  139.8829  158.2957 C   0  0  0  0  0  0  0  0  0  0  0  0
  152.3650  139.9104  157.1956 C   0  0  0  0  0  0  0  0  0  0  0  0
  151.8560  139.2648  155.9853 N   0  0  0  0  0  0  0  0  0  0  0  0
  151.0132  140.0008  155.0563 C   0  0  0  0  0  0  0  0  0  0  0  0
  150.4513  138.9487  154.0754 C   0  0  2  0  0  0  0  0  0  0  0  0
  148.9465  138.7059  154.2675 C   0  0  0  0  0  0  0  0  0  0  0  0
  148.5216  138.2620  155.3350 O   0  0  0  0  0  0  0  0  0  0  0  0
  148.1550  138.9826  153.2189 N   0  0  0  0  0  0  0  0  0  0  0  0
  146.7035  138.8167  153.1849 C   0  0  0  0  0  0  0  0  0  0  0  0
  146.2268  137.8871  152.0499 C   0  0  0  0  0  0  0  0  0  0  0  0
  145.0254  137.0317  152.4147 C   0  0  0  0  0  0  0  0  0  0  0  0
  145.0754  135.6215  152.3787 C   0  0  0  0  0  0  0  0  0  0  0  0
  143.9154  134.8823  152.6904 C   0  0  0  0  0  0  0  0  0  0  0  0
  142.7312  135.5675  153.0324 C   0  0  0  0  0  0  0  0  0  0  0  0
  142.7371  136.9767  153.0544 C   0  0  0  0  0  0  0  0  0  0  0  0
  143.8682  137.6493  152.7482 N   0  3  0  0  0  0  0  0  0  0  0  0
  151.2611  137.6679  154.3555 C   0  0  0  0  0  0  0  0  0  0  0  0
  152.0158  137.9831  155.6355 C   0  0  0  0  0  0  0  0  0  0  0  0
  152.6639  137.1366  156.2488 O   0  0  0  0  0  0  0  0  0  0  0  0
  152.2690  140.7630  159.8860 H   0  0  0  0  0  0  0  0  0  0  0  0
  151.0449  142.0140  159.6922 H   0  0  0  0  0  0  0  0  0  0  0  0
  152.6069  142.1996  158.9213 H   0  0  0  0  0  0  0  0  0  0  0  0
  150.9441  141.5195  157.2379 H   0  0  0  0  0  0  0  0  0  0  0  0
  150.3627  139.0906  158.9922 H   0  0  0  0  0  0  0  0  0  0  0  0
  149.6563  139.4125  157.4106 H   0  0  0  0  0  0  0  0  0  0  0  0
  149.3004  140.4775  158.7630 H   0  0  0  0  0  0  0  0  0  0  0  0
  153.2263  140.5335  156.9484 H   0  0  0  0  0  0  0  0  0  0  0  0
  152.7436  139.1365  157.8645 H   0  0  0  0  0  0  0  0  0  0  0  0
  150.2328  140.5468  155.5894 H   0  0  0  0  0  0  0  0  0  0  0  0
  151.6210  140.7355  154.5265 H   0  0  0  0  0  0  0  0  0  0  0  0
  150.6294  139.2797  153.0509 H   0  0  0  0  0  0  0  0  0  0  0  0
  148.5898  139.3477  152.3835 H   0  0  0  0  0  0  0  0  0  0  0  0
  146.3383  138.4521  154.1465 H   0  0  0  0  0  0  0  0  0  0  0  0
  146.2603  139.8038  153.0508 H   0  0  0  0  0  0  0  0  0  0  0  0
  145.9722  138.4855  151.1744 H   0  0  0  0  0  0  0  0  0  0  0  0
  147.0457  137.2362  151.7402 H   0  0  0  0  0  0  0  0  0  0  0  0
  145.9874  135.1116  152.1044 H   0  0  0  0  0  0  0  0  0  0  0  0
  143.9332  133.8026  152.6632 H   0  0  0  0  0  0  0  0  0  0  0  0
  141.8313  135.0197  153.2715 H   0  0  0  0  0  0  0  0  0  0  0  0
  141.8767  137.5820  153.3001 H   0  0  0  0  0  0  0  0  0  0  0  0
  150.6449  136.7773  154.4866 H   0  0  0  0  0  0  0  0  0  0  0  0
  151.9737  137.4699  153.5542 H   0  0  0  0  0  0  0  0  0  0  0  0
  143.8470  138.6690  152.7620 H   0  0  0  0  0  0  0  0  0  0  0  0
  1  2  1  0  0  0  0
  1 22  1  0  0  0  0
  1 23  1  0  0  0  0
  1 24  1  0  0  0  0
  2  3  1  0  0  0  0
  2  4  1  0  0  0  0
  2 25  1  0  0  0  0
  3 26  1  0  0  0  0
  3 27  1  0  0  0  0
  3 28  1  0  0  0  0
  4  5  1  0  0  0  0
  4 29  1  0  0  0  0
  4 30  1  0  0  0  0
  5 20  1  0  0  0  0
  5  6  1  0  0  0  0
  6  7  1  0  0  0  0
  6 31  1  0  0  0  0
  6 32  1  0  0  0  0
  7  8  1  0  0  0  0
  7 19  1  0  0  0  0
  7 33  1  0  0  0  0
  8  9  2  0  0  0  0
  8 10  1  0  0  0  0
 10 11  1  0  0  0  0
 10 34  1  0  0  0  0
 11 12  1  0  0  0  0
 11 35  1  0  0  0  0
 11 36  1  0  0  0  0
 12 13  1  0  0  0  0
 12 37  1  0  0  0  0
 12 38  1  0  0  0  0
 13 18  1  0  0  0  0
 13 14  2  0  0  0  0
 14 15  1  0  0  0  0
 14 39  1  0  0  0  0
 15 16  2  0  0  0  0
 15 40  1  0  0  0  0
 16 17  1  0  0  0  0
 16 41  1  0  0  0  0
 17 18  2  0  0  0  0
 17 42  1  0  0  0  0
 18 45  1  0  0  0  0
 19 20  1  0  0  0  0
 19 43  1  0  0  0  0
 19 44  1  0  0  0  0
 20 21  2  0  0  0  0
M  CHG  1  18   1
M  END
> <s_m_source_file>
AV-unprocessed.smi

> <i_m_source_file_index>
1915

> <i_lp_mmshare_version>
43012

> <i_f3d_flags>
0

> <s_epik_input>
W0NIM11bQ0hdKFtDSDNdKVtDSDJdTjFbQ0gyXVtDQEhdKFtDSDJdQzE9TylDKD1PKVtOSF1bQ0gyXVtDSDJdYzJbY0hdW2NIXVtjSF1bY0hdbjI=

> <s_epik_cmdline>
J2VwaWtfcHl0aG9uJywgJy1waCcsICc3LjAnLCAnLXRuJywgJzgnLCAnLW1hJywgJzIwMCcsICctbWV0YWxfYmluZGluZycsICctaW1hZScsICc8aW5maWxlLm1hZT4nLCAnLW9tYWUnLCAnPG91dGZpbGUubWFlPic=

> <r_epik_Ionization_Penalty>
1.88249

> <r_epik_Ionization_Penalty_Charging>
1.88249

> <r_epik_Ionization_Penalty_Neutral>
3.64574e-08

> <r_epik_State_Penalty>
2.00238

> <r_epik_Charging_Adjusted_Penalty>
3.88487

> <i_epik_Tot_Q>
1

> <i_epik_Tot_abs_Q>
1

> <r_epik_Metal_State_Penalty>
2.02676

> <b_epik_Metal_Only>
0

> <s_lp_Force_Field>
OPLS_2005

> <r_lp_Energy>
20.6112

> <b_lp_Chiralities_Consistent>
1

> <s_lp_Variant>
AV-unprocessed.smi:1915-4

> <Gold.Version>
5.8.1

> <Gold.Id.Protein>
6NUR|6NUR_protein|mol2

> <Gold.PLP.Fitness>
48.3039

> <Gold.PLP.PLP>
-37.1727

> <Gold.PLP.part.hbond>
-4.8901

> <Gold.PLP.part.metal>
0.0000

> <Gold.PLP.part.buried>
-1.9875

> <Gold.PLP.part.nonpolar>
-31.4242

> <Gold.PLP.part.repulsive>
0.1439

> <Gold.PLP.ligand.clash>
0.0000

> <Gold.PLP.ligand.torsion>
0.4383

> <Gold.PLP.Chemscore.Hbond>
3.9760

> <Gold.PLP.Chemscore.CHOScore>
0.0000

> <Gold.PLP.Chemscore.Metal>
0.0000

> <Gold.Chemscore.Hbonds>
donor molecule, donor type, donor heavy atom, donor atom, acceptor molecule, acceptor atom, score
      L1  H    10    34       P1  7957  1.00
      L1  H    18    45       P1 10175  2.00
      P1  H 10752 10765       L1    21  0.73

> <Gold.PLP.Chemscore.Internal.Correction>
0.0797

> <Gold.Rescore>
     Score         DG    S(hbond)    S(metal)    S(lipo)     H(rot)  DE(clash)    DE(int)     intcor
     18.76     -19.50       2.90        0.00      77.77       1.86       0.16       0.58       ----

> <Gold.Chemscore.Fitness>
18.7622

> <Gold.Chemscore.DG>
-19.5045

> <Gold.Chemscore.ZeroCoef>
-5.4800

> <Gold.Chemscore.Hbond>
2.9031

> <Gold.Chemscore.Metal>
0.0000

> <Gold.Chemscore.Lipo>
77.7730

> <Gold.Chemscore.Internal_Hbond>
0.0000

> <Gold.Chemscore.DEClash>
0.1636

> <Gold.Chemscore.DEInternal>
0.5787

> <Gold.Chemscore.Rot>
1.8638

> <Gold.Chemscore.Internal.Correction>
   9.000000E+99

> <Gold.Chemscore.Hbonds>
donor molecule, donor type, donor heavy atom, donor atom, acceptor molecule, acceptor atom, score
      L1  H    10    34       P1  7957  1.00
      L1  H    18    45       P1 10175  1.00
      P1  H 10752 10765       L1    21  0.63

> <Gold.Chemscore.Hbond.Weighted>
-9.6964

> <Gold.Chemscore.Metal.Weighted>
-0.0000

> <Gold.Chemscore.Lipo.Weighted>
-9.0994

> <Gold.Chemscore.Internal_Hbond.Weighted>
0.0000

> <Gold.Chemscore.DEClash.Weighted>
0.1636

> <Gold.Chemscore.DEInternal.Weighted>
0.5787

> <Gold.Chemscore.Rot.Weighted>
4.7713

> <Gold.Chemscore.Internal.Correction.Weighted>
   9.000000E+99

> <Gold.Protein.RotatedTorsions>
[ 6907 6896 6895 6894 ] final  133.37 input  -60.11 | X-H torsion
[ 7974 7965 7964 7962 ] final   76.93 input  175.53 | X-H torsion
[ 8008 7997 7996 7995 ] final  -31.89 input   59.86 | X-H torsion
[ 10167 10162 10161 10158 ] final   52.17 input  -65.29 | X-H torsion
[ 10718 10713 10712 10709 ] final  -62.68 input   66.30 | X-H torsion
[ 10763 10752 10751 10750 ] final -142.90 input  -60.55 | X-H torsion
[ 11005 11000 10999 10996 ] final  -78.82 input  -57.11 | X-H torsion

> <Gold.Protein.ActiveResidues>
 VAL166  LYS551  ARG553  GLY616  TRP617  ASP618  TYR619  PRO620  LYS621  CYS622 
 ASP623  PHE694  ASN695  SER759  ASP760  ASP761  ALA762  ILE779  LEU786  VAL792 
 PHE793  MET794  SER795  GLU796  ALA797  LYS798  CYS799  TRP800  GLU811  SER814 

> <Gold.Protein.RotatedAtoms>
  152.3227  133.5871  159.5755 H   0  0  0  0  0  0  0  0  0  0  0  0  # atno 6907 bound_to 6896
  150.7380  133.9987  159.3640 H   0  0  0  0  0  0  0  0  0  0  0  0  # atno 6908 bound_to 6896
  151.7870  135.0747  160.0433 H   0  0  0  0  0  0  0  0  0  0  0  0  # atno 6909 bound_to 6896
  145.6966  139.2569  143.1729 H   0  0  0  0  0  0  0  0  0  0  0  0  # atno 7974 bound_to 7965
  154.4198  140.1752  156.1639 H   0  0  0  0  0  0  0  0  0  0  0  0  # atno 8008 bound_to 7997
  155.9816  140.3377  155.6644 H   0  0  0  0  0  0  0  0  0  0  0  0  # atno 8009 bound_to 7997
  155.6493  140.0688  157.2583 H   0  0  0  0  0  0  0  0  0  0  0  0  # atno 8010 bound_to 7997
  140.2542  144.3445  150.6338 H   0  0  0  0  0  0  0  0  0  0  0  0  # atno 10167 bound_to 10162
  156.0839  130.4212  150.1170 H   0  0  0  0  0  0  0  0  0  0  0  0  # atno 10718 bound_to 10713
  154.8491  135.3483  154.6101 H   0  0  0  0  0  0  0  0  0  0  0  0  # atno 10763 bound_to 10752
  153.6710  135.6985  153.5152 H   0  0  0  0  0  0  0  0  0  0  0  0  # atno 10764 bound_to 10752
  153.2743  135.4283  155.0974 H   0  0  0  0  0  0  0  0  0  0  0  0  # atno 10765 bound_to 10752
  141.1666  133.7079  156.8029 H   0  0  0  0  0  0  0  0  0  0  0  0  # atno 11005 bound_to 11000
  146.0835  140.7737  142.9630 LP  0  0  0  0  0  0  0  0  0  0  0  0  # atno 17320 bound_to 7965
  144.6981  140.3526  143.7179 LP  0  0  0  0  0  0  0  0  0  0  0  0  # atno 17321 bound_to 7965
  140.6016  143.2167  151.7060 LP  0  0  0  0  0  0  0  0  0  0  0  0  # atno 17342 bound_to 10162
  139.5036  144.3783  152.0401 LP  0  0  0  0  0  0  0  0  0  0  0  0  # atno 17343 bound_to 10162
  156.9195  130.9678  151.3551 LP  0  0  0  0  0  0  0  0  0  0  0  0  # atno 17370 bound_to 10713
  157.5967  130.8482  149.8739 LP  0  0  0  0  0  0  0  0  0  0  0  0  # atno 17371 bound_to 10713
  140.2243  134.8734  157.3410 LP  0  0  0  0  0  0  0  0  0  0  0  0  # atno 17394 bound_to 11000
  140.1956  134.4318  155.7691 LP  0  0  0  0  0  0  0  0  0  0  0  0  # atno 17395 bound_to 11000

$$$$
