AV-unprocessed.smi:565|AV-procd|sdf|2952|dock2
  -GOLD-   2262023453D 1   1.00000     0.00000
 Structure written by MMmdl.
 50 51  0  0  0  0  0  0  0  0  2 V2000
  148.6078  132.9494  153.4747 C   0  0  0  0  0  0  0  0  0  0  0  0
  147.4200  132.3209  152.8034 C   0  0  0  0  0  0  0  0  0  0  0  0
  147.2828  131.0062  152.8339 N   0  0  0  0  0  0  0  0  0  0  0  0
  146.1478  130.7619  152.1490 N   0  0  0  0  0  0  0  0  0  0  0  0
  145.6928  129.3940  151.9914 C   0  0  0  0  0  0  0  0  0  0  0  0
  145.5705  131.9248  151.6773 C   0  0  0  0  0  0  0  0  0  0  0  0
  144.3082  131.9199  150.8762 C   0  0  0  0  0  0  0  0  0  0  0  0
  146.3662  132.9617  152.0863 C   0  0  0  0  0  0  0  0  0  0  0  0
  146.1889  134.4379  151.8361 C   0  0  0  0  0  0  0  0  0  0  0  0
  145.9329  135.1468  153.1650 C   0  0  0  0  0  0  0  0  0  0  0  0
  144.9603  134.8365  153.8529 O   0  0  0  0  0  0  0  0  0  0  0  0
  146.7982  136.1149  153.5036 N   0  0  0  0  0  0  0  0  0  0  0  0
  146.6864  136.9553  154.6886 C   0  0  0  0  0  0  0  0  0  0  0  0
  145.5163  137.9492  154.5553 C   0  0  0  0  0  0  0  0  0  0  0  0
  145.9756  139.3528  154.4075 N   0  3  2  0  0  0  0  0  0  0  0  0
  146.9291  139.5146  153.2795 C   0  0  0  0  0  0  0  0  0  0  0  0
  147.2615  140.9963  153.0427 C   0  0  0  0  0  0  0  0  0  0  0  0
  147.8033  141.6513  154.3212 C   0  0  0  0  0  0  0  0  0  0  0  0
  146.8492  141.4313  155.5095 C   0  0  1  0  0  0  0  0  0  0  0  0
  145.5820  142.3009  155.4269 C   0  0  0  0  0  0  0  0  0  0  0  0
  146.5173  139.9329  155.6667 C   0  0  0  0  0  0  0  0  0  0  0  0
  148.3379  133.8912  153.9523 H   0  0  0  0  0  0  0  0  0  0  0  0
  149.3959  133.1574  152.7510 H   0  0  0  0  0  0  0  0  0  0  0  0
  149.0259  132.2995  154.2444 H   0  0  0  0  0  0  0  0  0  0  0  0
  144.6684  129.3044  152.3536 H   0  0  0  0  0  0  0  0  0  0  0  0
  146.3267  128.7089  152.5560 H   0  0  0  0  0  0  0  0  0  0  0  0
  145.7240  129.1171  150.9376 H   0  0  0  0  0  0  0  0  0  0  0  0
  144.1388  132.8851  150.3989 H   0  0  0  0  0  0  0  0  0  0  0  0
  143.4492  131.7028  151.5113 H   0  0  0  0  0  0  0  0  0  0  0  0
  144.3476  131.1664  150.0893 H   0  0  0  0  0  0  0  0  0  0  0  0
  147.0713  134.8758  151.3686 H   0  0  0  0  0  0  0  0  0  0  0  0
  145.3627  134.6298  151.1505 H   0  0  0  0  0  0  0  0  0  0  0  0
  147.5711  136.2996  152.8802 H   0  0  0  0  0  0  0  0  0  0  0  0
  146.5654  136.3357  155.5789 H   0  0  0  0  0  0  0  0  0  0  0  0
  147.6344  137.4797  154.8013 H   0  0  0  0  0  0  0  0  0  0  0  0
  144.8707  137.6793  153.7177 H   0  0  0  0  0  0  0  0  0  0  0  0
  144.9006  137.8731  155.4528 H   0  0  0  0  0  0  0  0  0  0  0  0
  147.8398  138.9506  153.4878 H   0  0  0  0  0  0  0  0  0  0  0  0
  146.4997  139.0980  152.3676 H   0  0  0  0  0  0  0  0  0  0  0  0
  147.9946  141.0881  152.2408 H   0  0  0  0  0  0  0  0  0  0  0  0
  146.3702  141.5237  152.7017 H   0  0  0  0  0  0  0  0  0  0  0  0
  148.7760  141.2179  154.5574 H   0  0  0  0  0  0  0  0  0  0  0  0
  147.9756  142.7159  154.1584 H   0  0  0  0  0  0  0  0  0  0  0  0
  147.3771  141.7452  156.4110 H   0  0  0  0  0  0  0  0  0  0  0  0
  144.9669  142.0453  154.5640 H   0  0  0  0  0  0  0  0  0  0  0  0
  145.8367  143.3584  155.3506 H   0  0  0  0  0  0  0  0  0  0  0  0
  144.9648  142.1776  156.3173 H   0  0  0  0  0  0  0  0  0  0  0  0
  145.8094  139.8095  156.4854 H   0  0  0  0  0  0  0  0  0  0  0  0
  147.4164  139.3842  155.9522 H   0  0  0  0  0  0  0  0  0  0  0  0
  145.1587  139.8937  154.1617 H   0  0  0  0  0  0  0  0  0  0  0  0
  1  2  1  0  0  0  0
  1 22  1  0  0  0  0
  1 23  1  0  0  0  0
  1 24  1  0  0  0  0
  2  8  1  0  0  0  0
  2  3  2  0  0  0  0
  3  4  1  0  0  0  0
  4  5  1  0  0  0  0
  4  6  1  0  0  0  0
  5 25  1  0  0  0  0
  5 26  1  0  0  0  0
  5 27  1  0  0  0  0
  6  7  1  0  0  0  0
  6  8  2  0  0  0  0
  7 28  1  0  0  0  0
  7 29  1  0  0  0  0
  7 30  1  0  0  0  0
  8  9  1  0  0  0  0
  9 10  1  0  0  0  0
  9 31  1  0  0  0  0
  9 32  1  0  0  0  0
 10 11  2  0  0  0  0
 10 12  1  0  0  0  0
 12 13  1  0  0  0  0
 12 33  1  0  0  0  0
 13 14  1  0  0  0  0
 13 34  1  0  0  0  0
 13 35  1  0  0  0  0
 14 15  1  0  0  0  0
 14 36  1  0  0  0  0
 14 37  1  0  0  0  0
 15 21  1  0  0  0  0
 15 16  1  0  0  0  0
 15 50  1  0  0  0  0
 16 17  1  0  0  0  0
 16 38  1  0  0  0  0
 16 39  1  0  0  0  0
 17 18  1  0  0  0  0
 17 40  1  0  0  0  0
 17 41  1  0  0  0  0
 18 19  1  0  0  0  0
 18 42  1  0  0  0  0
 18 43  1  0  0  0  0
 19 20  1  0  0  0  0
 19 21  1  0  0  0  0
 19 44  1  0  0  0  0
 20 45  1  0  0  0  0
 20 46  1  0  0  0  0
 20 47  1  0  0  0  0
 21 48  1  0  0  0  0
 21 49  1  0  0  0  0
M  CHG  1  15   1
M  END
> <s_m_source_file>
AV-unprocessed.smi

> <i_m_source_file_index>
565

> <i_lp_mmshare_version>
43012

> <i_f3d_flags>
0

> <s_epik_input>
W0NIM11jMW5uKFtDSDNdKWMoW0NIM10pYzFbQ0gyXUMoPU8pW05IXVtDSDJdW0NIMl1OMltDSDJdW0NIMl1bQ0gyXVtDQEBIXShbQ0gzXSlbQ0gyXTI=

> <s_epik_cmdline>
J2VwaWtfcHl0aG9uJywgJy1waCcsICc3LjAnLCAnLXRuJywgJzgnLCAnLW1hJywgJzIwMCcsICctbWV0YWxfYmluZGluZycsICctaW1hZScsICc8aW5maWxlLm1hZT4nLCAnLW9tYWUnLCAnPG91dGZpbGUubWFlPic=

> <r_lp_tautomer_probability>
1

> <r_epik_Ionization_Penalty>
0.00411138

> <r_epik_Ionization_Penalty_Charging>
0.0019503

> <r_epik_Ionization_Penalty_Neutral>
0.00216107

> <r_epik_State_Penalty>
-0

> <r_epik_Charging_Adjusted_Penalty>
0.0019503

> <i_epik_Tot_Q>
1

> <i_epik_Tot_abs_Q>
1

> <r_epik_Metal_State_Penalty>
-0

> <b_epik_Metal_Only>
0

> <s_lp_Force_Field>
OPLS_2005

> <r_lp_Energy>
12.6128

> <b_lp_Chiralities_Consistent>
1

> <s_lp_Variant>
AV-unprocessed.smi:565-2

> <Gold.Version>
5.8.1

> <Gold.Id.Protein>
6NUR|6NUR_protein|mol2

> <Gold.PLP.Fitness>
42.5592

> <Gold.PLP.PLP>
-34.4722

> <Gold.PLP.part.hbond>
-2.0000

> <Gold.PLP.part.metal>
0.0000

> <Gold.PLP.part.buried>
-4.2277

> <Gold.PLP.part.nonpolar>
-28.8080

> <Gold.PLP.part.repulsive>
0.7648

> <Gold.PLP.ligand.clash>
0.0000

> <Gold.PLP.ligand.torsion>
0.4869

> <Gold.PLP.Chemscore.Hbond>
3.0000

> <Gold.PLP.Chemscore.CHOScore>
0.0000

> <Gold.PLP.Chemscore.Metal>
0.0000

> <Gold.Chemscore.Hbonds>
donor molecule, donor type, donor heavy atom, donor atom, acceptor molecule, acceptor atom, score
      L1  H    12    33       P1  7948  1.00
      L1  H    15    50       P1 10175  0.54

> <Gold.PLP.Chemscore.Internal.Correction>
0.0609

> <Gold.Rescore>
     Score         DG    S(hbond)    S(metal)    S(lipo)     H(rot)  DE(clash)    DE(int)     intcor
     16.69     -17.74       1.98        0.00      83.56       1.61       0.43       0.62       ----

> <Gold.Chemscore.Fitness>
16.6885

> <Gold.Chemscore.DG>
-17.7384

> <Gold.Chemscore.ZeroCoef>
-5.4800

> <Gold.Chemscore.Hbond>
1.9805

> <Gold.Chemscore.Metal>
0.0000

> <Gold.Chemscore.Lipo>
83.5563

> <Gold.Chemscore.Internal_Hbond>
0.0000

> <Gold.Chemscore.DEClash>
0.4298

> <Gold.Chemscore.DEInternal>
0.6201

> <Gold.Chemscore.Rot>
1.6142

> <Gold.Chemscore.Internal.Correction>
   9.000000E+99

> <Gold.Chemscore.Hbonds>
donor molecule, donor type, donor heavy atom, donor atom, acceptor molecule, acceptor atom, score
      L1  H    12    33       P1  7948  1.00
      L1  H    15    50       P1 10175  0.26

> <Gold.Chemscore.Hbond.Weighted>
-6.6147

> <Gold.Chemscore.Metal.Weighted>
-0.0000

> <Gold.Chemscore.Lipo.Weighted>
-9.7761

> <Gold.Chemscore.Internal_Hbond.Weighted>
0.0000

> <Gold.Chemscore.DEClash.Weighted>
0.4298

> <Gold.Chemscore.DEInternal.Weighted>
0.6201

> <Gold.Chemscore.Rot.Weighted>
4.1324

> <Gold.Chemscore.Internal.Correction.Weighted>
   9.000000E+99

> <Gold.Protein.RotatedTorsions>
[ 6907 6896 6895 6894 ] final   64.10 input  -60.11 | X-H torsion
[ 7974 7965 7964 7962 ] final  175.02 input  175.53 | X-H torsion
[ 8008 7997 7996 7995 ] final   75.23 input   59.86 | X-H torsion
[ 10167 10162 10161 10158 ] final -171.14 input  -65.29 | X-H torsion
[ 10718 10713 10712 10709 ] final  119.27 input   66.30 | X-H torsion
[ 10763 10752 10751 10750 ] final  -86.24 input  -60.55 | X-H torsion
[ 11005 11000 10999 10996 ] final  -72.36 input  -57.11 | X-H torsion

> <Gold.Protein.ActiveResidues>
 VAL166  LYS551  ARG553  GLY616  TRP617  ASP618  TYR619  PRO620  LYS621  CYS622 
 ASP623  PHE694  ASN695  SER759  ASP760  ASP761  ALA762  ILE779  LEU786  VAL792 
 PHE793  MET794  SER795  GLU796  ALA797  LYS798  CYS799  TRP800  GLU811  SER814 

> <Gold.Protein.RotatedAtoms>
  152.4305  134.5786  159.9941 H   0  0  0  0  0  0  0  0  0  0  0  0  # atno 6907 bound_to 6896
  151.5910  133.3361  159.3036 H   0  0  0  0  0  0  0  0  0  0  0  0  # atno 6908 bound_to 6896
  150.8198  134.7435  159.6827 H   0  0  0  0  0  0  0  0  0  0  0  0  # atno 6909 bound_to 6896
  144.7210  139.9883  143.6439 H   0  0  0  0  0  0  0  0  0  0  0  0  # atno 7974 bound_to 7965
  155.8099  140.3473  155.5452 H   0  0  0  0  0  0  0  0  0  0  0  0  # atno 8008 bound_to 7997
  155.8451  140.0947  157.1730 H   0  0  0  0  0  0  0  0  0  0  0  0  # atno 8009 bound_to 7997
  154.4006  140.1387  156.3763 H   0  0  0  0  0  0  0  0  0  0  0  0  # atno 8010 bound_to 7997
  139.5820  144.1402  152.1527 H   0  0  0  0  0  0  0  0  0  0  0  0  # atno 10167 bound_to 10162
  157.5973  131.1056  150.7873 H   0  0  0  0  0  0  0  0  0  0  0  0  # atno 10718 bound_to 10713
  154.6202  135.5456  153.7567 H   0  0  0  0  0  0  0  0  0  0  0  0  # atno 10763 bound_to 10752
  153.0235  135.6411  154.1451 H   0  0  0  0  0  0  0  0  0  0  0  0  # atno 10764 bound_to 10752
  154.1386  135.2910  155.3147 H   0  0  0  0  0  0  0  0  0  0  0  0  # atno 10765 bound_to 10752
  141.1607  133.6844  156.7046 H   0  0  0  0  0  0  0  0  0  0  0  0  # atno 11005 bound_to 11000
  146.0432  139.3441  143.0685 LP  0  0  0  0  0  0  0  0  0  0  0  0  # atno 17320 bound_to 7965
  145.8309  140.9631  143.0849 LP  0  0  0  0  0  0  0  0  0  0  0  0  # atno 17321 bound_to 7965
  140.0957  144.5582  150.7023 LP  0  0  0  0  0  0  0  0  0  0  0  0  # atno 17342 bound_to 10162
  140.7097  143.2495  151.4619 LP  0  0  0  0  0  0  0  0  0  0  0  0  # atno 17343 bound_to 10162
  156.8280  130.5006  149.5335 LP  0  0  0  0  0  0  0  0  0  0  0  0  # atno 17370 bound_to 10713
  156.1038  130.5989  150.9938 LP  0  0  0  0  0  0  0  0  0  0  0  0  # atno 17371 bound_to 10713
  140.2933  134.8223  157.4035 LP  0  0  0  0  0  0  0  0  0  0  0  0  # atno 17394 bound_to 11000
  140.1327  134.5074  155.8092 LP  0  0  0  0  0  0  0  0  0  0  0  0  # atno 17395 bound_to 11000

$$$$
