AV-unprocessed.smi:2528|AV-procd|sdf|9956|dock3
  -GOLD-   2272013593D 1   1.00000     0.00000
 Structure written by MMmdl.
 43 45  0  0  0  0  0  0  0  0  1 V2000
  149.7492  135.8882  158.1447 O   0  0  0  0  0  0  0  0  0  0  0  0
  149.4658  136.9474  158.7053 C   0  0  0  0  0  0  0  0  0  0  0  0
  149.9093  138.1427  158.2903 N   0  0  0  0  0  0  0  0  0  0  0  0
  150.7640  138.3574  157.1270 C   0  0  0  0  0  0  0  0  0  0  0  0
  151.3278  139.7888  157.0623 C   0  0  2  0  0  0  0  0  0  0  0  0
  151.7504  140.3387  158.4400 C   0  0  0  0  0  0  0  0  0  0  0  0
  152.1965  141.7242  158.3602 N   0  0  0  0  0  0  0  0  0  0  0  0
  152.5765  142.2368  159.6756 C   0  0  0  0  0  0  0  0  0  0  0  0
  153.0821  143.6873  159.6174 C   0  0  0  0  0  0  0  0  0  0  0  0
  152.0226  144.5960  158.9780 C   0  0  0  0  0  0  0  0  0  0  0  0
  151.5901  144.0247  157.6189 C   0  0  0  0  0  0  0  0  0  0  0  0
  151.1495  142.5524  157.7541 C   0  0  1  0  0  0  0  0  0  0  0  0
  150.7239  141.9852  156.3850 C   0  0  0  0  0  0  0  0  0  0  0  0
  150.3100  140.6309  156.5298 O   0  0  0  0  0  0  0  0  0  0  0  0
  148.6829  137.0677  159.7919 N   0  0  0  0  0  0  0  0  0  0  0  0
  148.0254  136.0377  160.5169 C   0  0  0  0  0  0  0  0  0  0  0  0
  147.6996  136.3591  161.8543 C   0  0  0  0  0  0  0  0  0  0  0  0
  147.0452  135.4043  162.6565 C   0  0  0  0  0  0  0  0  0  0  0  0
  146.7351  134.1502  162.1011 C   0  0  0  0  0  0  0  0  0  0  0  0
  147.0956  133.9104  160.7625 C   0  0  0  0  0  0  0  0  0  0  0  0
  147.7216  134.8243  159.9917 N   0  0  0  0  0  0  0  0  0  0  0  0
  149.6289  138.9634  158.8071 H   0  0  0  0  0  0  0  0  0  0  0  0
  151.5803  137.6330  157.1359 H   0  0  0  0  0  0  0  0  0  0  0  0
  150.1788  138.1483  156.2311 H   0  0  0  0  0  0  0  0  0  0  0  0
  152.1825  139.8092  156.3837 H   0  0  0  0  0  0  0  0  0  0  0  0
  150.9108  140.2605  159.1327 H   0  0  0  0  0  0  0  0  0  0  0  0
  152.5509  139.7227  158.8506 H   0  0  0  0  0  0  0  0  0  0  0  0
  151.7251  142.1787  160.3555 H   0  0  0  0  0  0  0  0  0  0  0  0
  153.3562  141.6052  160.1028 H   0  0  0  0  0  0  0  0  0  0  0  0
  153.3254  144.0417  160.6193 H   0  0  0  0  0  0  0  0  0  0  0  0
  154.0047  143.7316  159.0369 H   0  0  0  0  0  0  0  0  0  0  0  0
  151.1566  144.6683  159.6371 H   0  0  0  0  0  0  0  0  0  0  0  0
  152.4111  145.6077  158.8588 H   0  0  0  0  0  0  0  0  0  0  0  0
  150.7783  144.6262  157.2087 H   0  0  0  0  0  0  0  0  0  0  0  0
  152.4189  144.0987  156.9134 H   0  0  0  0  0  0  0  0  0  0  0  0
  150.2724  142.5284  158.4032 H   0  0  0  0  0  0  0  0  0  0  0  0
  149.8948  142.5615  155.9738 H   0  0  0  0  0  0  0  0  0  0  0  0
  151.5421  142.0449  155.6652 H   0  0  0  0  0  0  0  0  0  0  0  0
  148.5317  138.0048  160.1345 H   0  0  0  0  0  0  0  0  0  0  0  0
  147.9448  137.3279  162.2650 H   0  0  0  0  0  0  0  0  0  0  0  0
  146.7861  135.6309  163.6802 H   0  0  0  0  0  0  0  0  0  0  0  0
  146.2345  133.3920  162.6850 H   0  0  0  0  0  0  0  0  0  0  0  0
  146.8758  132.9606  160.2979 H   0  0  0  0  0  0  0  0  0  0  0  0
  1  2  2  0  0  0  0
  2  3  1  0  0  0  0
  2 15  1  0  0  0  0
  3  4  1  0  0  0  0
  3 22  1  0  0  0  0
  4  5  1  0  0  0  0
  4 23  1  0  0  0  0
  4 24  1  0  0  0  0
  5 14  1  0  0  0  0
  5  6  1  0  0  0  0
  5 25  1  0  0  0  0
  6  7  1  0  0  0  0
  6 26  1  0  0  0  0
  6 27  1  0  0  0  0
  7 12  1  0  0  0  0
  7  8  1  0  0  0  0
  8  9  1  0  0  0  0
  8 28  1  0  0  0  0
  8 29  1  0  0  0  0
  9 10  1  0  0  0  0
  9 30  1  0  0  0  0
  9 31  1  0  0  0  0
 10 11  1  0  0  0  0
 10 32  1  0  0  0  0
 10 33  1  0  0  0  0
 11 12  1  0  0  0  0
 11 34  1  0  0  0  0
 11 35  1  0  0  0  0
 12 13  1  0  0  0  0
 12 36  1  0  0  0  0
 13 14  1  0  0  0  0
 13 37  1  0  0  0  0
 13 38  1  0  0  0  0
 15 16  1  0  0  0  0
 15 39  1  0  0  0  0
 16 21  1  0  0  0  0
 16 17  2  0  0  0  0
 17 18  1  0  0  0  0
 17 40  1  0  0  0  0
 18 19  2  0  0  0  0
 18 41  1  0  0  0  0
 19 20  1  0  0  0  0
 19 42  1  0  0  0  0
 20 21  2  0  0  0  0
 20 43  1  0  0  0  0
M  END
> <s_m_source_file>
AV-unprocessed.smi

> <i_m_source_file_index>
2528

> <i_lp_mmshare_version>
43012

> <i_f3d_flags>
0

> <s_epik_input>
bjFbY0hdW2NIXVtjSF1bY0hdYzFbTkhdQyg9TylbTkhdW0NIMl1bQ0BIXShbQ0gyXTIpT1tDSDJdW0NAQEhdKE4yMylbQ0gyXVtDSDJdW0NIMl1bQ0gyXTM=

> <s_epik_cmdline>
J2VwaWtfcHl0aG9uJywgJy1waCcsICc3LjAnLCAnLXRuJywgJzgnLCAnLW1hJywgJzIwMCcsICctbWV0YWxfYmluZGluZycsICctaW1hZScsICc8aW5maWxlLm1hZT4nLCAnLW9tYWUnLCAnPG91dGZpbGUubWFlPic=

> <r_epik_Ionization_Penalty>
1.14192

> <r_epik_Ionization_Penalty_Charging>
0

> <r_epik_Ionization_Penalty_Neutral>
1.14192

> <r_epik_State_Penalty>
1.20248

> <r_epik_Charging_Adjusted_Penalty>
1.20248

> <i_epik_Tot_Q>
0

> <i_epik_Tot_abs_Q>
0

> <r_epik_Metal_State_Penalty>
1.20248

> <b_epik_Metal_Only>
0

> <s_lp_Force_Field>
OPLS_2005

> <r_lp_Energy>
34.3645

> <b_lp_Chiralities_Consistent>
1

> <s_lp_Variant>
AV-unprocessed.smi:2528-9

> <Gold.Version>
5.8.1

> <Gold.Id.Protein>
6NUR|6NUR_protein|mol2

> <Gold.PLP.Fitness>
46.9593

> <Gold.PLP.PLP>
-44.6946

> <Gold.PLP.part.hbond>
-1.0000

> <Gold.PLP.part.metal>
0.0000

> <Gold.PLP.part.buried>
-5.7590

> <Gold.PLP.part.nonpolar>
-39.2938

> <Gold.PLP.part.repulsive>
0.8728

> <Gold.PLP.ligand.clash>
0.0000

> <Gold.PLP.ligand.torsion>
0.3579

> <Gold.PLP.Chemscore.Hbond>
0.9920

> <Gold.PLP.Chemscore.CHOScore>
0.0000

> <Gold.PLP.Chemscore.Metal>
0.0000

> <Gold.Chemscore.Hbonds>
donor molecule, donor type, donor heavy atom, donor atom, acceptor molecule, acceptor atom, score
      P1  H  6896  6909       L1     1  0.76

> <Gold.PLP.Chemscore.Internal.Correction>
0.0045

> <Gold.Rescore>
     Score         DG    S(hbond)    S(metal)    S(lipo)     H(rot)  DE(clash)    DE(int)     intcor
     16.94     -18.74       0.98        0.00     113.22       1.27       0.34       1.47       ----

> <Gold.Chemscore.Fitness>
16.9379

> <Gold.Chemscore.DG>
-18.7430

> <Gold.Chemscore.ZeroCoef>
-5.4800

> <Gold.Chemscore.Hbond>
0.9780

> <Gold.Chemscore.Metal>
0.0000

> <Gold.Chemscore.Lipo>
113.2205

> <Gold.Chemscore.Internal_Hbond>
0.0000

> <Gold.Chemscore.DEClash>
0.3385

> <Gold.Chemscore.DEInternal>
1.4666

> <Gold.Chemscore.Rot>
1.2696

> <Gold.Chemscore.Internal.Correction>
   9.000000E+99

> <Gold.Chemscore.Hbonds>
donor molecule, donor type, donor heavy atom, donor atom, acceptor molecule, acceptor atom, score
      P1  H  6896  6909       L1     1  0.52

> <Gold.Chemscore.Hbond.Weighted>
-3.2664

> <Gold.Chemscore.Metal.Weighted>
-0.0000

> <Gold.Chemscore.Lipo.Weighted>
-13.2468

> <Gold.Chemscore.Internal_Hbond.Weighted>
0.0000

> <Gold.Chemscore.DEClash.Weighted>
0.3385

> <Gold.Chemscore.DEInternal.Weighted>
1.4666

> <Gold.Chemscore.Rot.Weighted>
3.2502

> <Gold.Chemscore.Internal.Correction.Weighted>
   9.000000E+99

> <Gold.Protein.RotatedTorsions>
[ 6907 6896 6895 6894 ] final   49.97 input  -60.11 | X-H torsion
[ 7974 7965 7964 7962 ] final -114.76 input  175.53 | X-H torsion
[ 8008 7997 7996 7995 ] final  124.34 input   59.86 | X-H torsion
[ 10167 10162 10161 10158 ] final  -26.48 input  -65.29 | X-H torsion
[ 10718 10713 10712 10709 ] final -132.31 input   66.30 | X-H torsion
[ 10763 10752 10751 10750 ] final   91.07 input  -60.55 | X-H torsion
[ 11005 11000 10999 10996 ] final   64.92 input  -57.11 | X-H torsion

> <Gold.Protein.ActiveResidues>
 VAL166  LYS551  ARG553  GLY616  TRP617  ASP618  TYR619  PRO620  LYS621  CYS622 
 ASP623  PHE694  ASN695  SER759  ASP760  ASP761  ALA762  ILE779  LEU786  VAL792 
 PHE793  MET794  SER795  GLU796  ALA797  LYS798  CYS799  TRP800  GLU811  SER814 

> <Gold.Protein.RotatedAtoms>
  152.2966  134.7659  160.0366 H   0  0  0  0  0  0  0  0  0  0  0  0  # atno 6907 bound_to 6896
  151.8187  133.3386  159.3585 H   0  0  0  0  0  0  0  0  0  0  0  0  # atno 6908 bound_to 6896
  150.7254  134.5524  159.5845 H   0  0  0  0  0  0  0  0  0  0  0  0  # atno 6909 bound_to 6896
  145.1163  140.8642  143.3840 H   0  0  0  0  0  0  0  0  0  0  0  0  # atno 7974 bound_to 7965
  156.2798  140.2742  156.1773 H   0  0  0  0  0  0  0  0  0  0  0  0  # atno 8008 bound_to 7997
  155.0593  140.0386  157.2589 H   0  0  0  0  0  0  0  0  0  0  0  0  # atno 8009 bound_to 7997
  154.7130  140.2672  155.6616 H   0  0  0  0  0  0  0  0  0  0  0  0  # atno 8010 bound_to 7997
  140.7282  143.4175  151.1005 H   0  0  0  0  0  0  0  0  0  0  0  0  # atno 10167 bound_to 10162
  156.2333  130.7051  151.0881 H   0  0  0  0  0  0  0  0  0  0  0  0  # atno 10718 bound_to 10713
  153.2043  135.4411  155.0304 H   0  0  0  0  0  0  0  0  0  0  0  0  # atno 10763 bound_to 10752
  154.8165  135.3317  154.7164 H   0  0  0  0  0  0  0  0  0  0  0  0  # atno 10764 bound_to 10752
  153.7607  135.6992  153.4982 H   0  0  0  0  0  0  0  0  0  0  0  0  # atno 10765 bound_to 10752
  139.9928  134.6565  156.0062 H   0  0  0  0  0  0  0  0  0  0  0  0  # atno 11005 bound_to 11000
  145.0790  139.2974  143.5793 LP  0  0  0  0  0  0  0  0  0  0  0  0  # atno 17320 bound_to 7965
  146.3523  140.0290  142.8652 LP  0  0  0  0  0  0  0  0  0  0  0  0  # atno 17321 bound_to 7965
  139.7816  143.8347  152.3138 LP  0  0  0  0  0  0  0  0  0  0  0  0  # atno 17342 bound_to 10162
  139.8300  144.7258  150.9463 LP  0  0  0  0  0  0  0  0  0  0  0  0  # atno 17343 bound_to 10162
  157.7143  131.0718  150.6387 LP  0  0  0  0  0  0  0  0  0  0  0  0  # atno 17370 bound_to 10713
  156.6455  130.4470  149.5737 LP  0  0  0  0  0  0  0  0  0  0  0  0  # atno 17371 bound_to 10713
  141.1580  133.6541  156.4224 LP  0  0  0  0  0  0  0  0  0  0  0  0  # atno 17394 bound_to 11000
  140.4876  134.6606  157.5197 LP  0  0  0  0  0  0  0  0  0  0  0  0  # atno 17395 bound_to 11000

$$$$
