AV-unprocessed.smi:3303|AV-procd|sdf|12666|dock4
  -GOLD-   2272019 03D 1   1.00000     0.00000
 Structure written by MMmdl.
 45 46  0  0  0  0  0  0  0  0  3 V2000
  145.8839  142.8647  154.4244 C   0  0  0  0  0  0  0  0  0  0  0  0
  146.8481  141.8563  155.0746 C   0  0  1  0  0  0  0  0  0  0  0  0
  146.1173  140.5645  155.4955 C   0  0  0  0  0  0  0  0  0  0  0  0
  145.7273  139.7292  154.3286 N   0  3  2  0  0  0  0  0  0  0  0  0
  144.8902  138.5815  154.7559 C   0  0  0  0  0  0  0  0  0  0  0  0
  146.9061  139.3466  153.4943 C   0  0  1  0  0  0  0  0  0  0  0  0
  146.5157  138.4987  152.2678 C   0  0  0  0  0  0  0  0  0  0  0  0
  147.6690  140.6055  153.0252 C   0  0  0  0  0  0  0  0  0  0  0  0
  148.0655  141.5435  154.1793 C   0  0  2  0  0  0  0  0  0  0  0  0
  149.1758  140.9648  154.9733 N   0  3  0  0  0  0  0  0  0  0  0  0
  149.6017  141.7822  156.1271 C   0  0  0  0  0  0  0  0  0  0  0  0
  151.0219  141.4129  156.5756 C   0  0  0  0  0  0  0  0  0  0  0  0
  151.5275  142.3308  157.6722 C   0  0  0  0  0  0  0  0  0  0  0  0
  151.5924  143.7266  157.4750 C   0  0  0  0  0  0  0  0  0  0  0  0
  152.0818  144.5292  158.5241 C   0  0  0  0  0  0  0  0  0  0  0  0
  152.4867  143.9078  159.7212 C   0  0  0  0  0  0  0  0  0  0  0  0
  152.3835  142.5059  159.8176 C   0  0  0  0  0  0  0  0  0  0  0  0
  151.9161  141.7271  158.8177 N   0  0  0  0  0  0  0  0  0  0  0  0
  145.4389  142.4745  153.5089 H   0  0  0  0  0  0  0  0  0  0  0  0
  146.3973  143.7935  154.1736 H   0  0  0  0  0  0  0  0  0  0  0  0
  145.0691  143.1190  155.1030 H   0  0  0  0  0  0  0  0  0  0  0  0
  147.2152  142.3389  155.9820 H   0  0  0  0  0  0  0  0  0  0  0  0
  146.7538  139.9748  156.1570 H   0  0  0  0  0  0  0  0  0  0  0  0
  145.2311  140.8248  156.0763 H   0  0  0  0  0  0  0  0  0  0  0  0
  145.4830  137.8424  155.2963 H   0  0  0  0  0  0  0  0  0  0  0  0
  144.4167  138.0927  153.9052 H   0  0  0  0  0  0  0  0  0  0  0  0
  144.0839  138.9130  155.4111 H   0  0  0  0  0  0  0  0  0  0  0  0
  147.5751  138.7475  154.1142 H   0  0  0  0  0  0  0  0  0  0  0  0
  147.3795  138.3213  151.6261 H   0  0  0  0  0  0  0  0  0  0  0  0
  145.7556  138.9968  151.6645 H   0  0  0  0  0  0  0  0  0  0  0  0
  146.1351  137.5175  152.5510 H   0  0  0  0  0  0  0  0  0  0  0  0
  148.5599  140.3181  152.4647 H   0  0  0  0  0  0  0  0  0  0  0  0
  147.0454  141.1560  152.3194 H   0  0  0  0  0  0  0  0  0  0  0  0
  148.4176  142.4783  153.7387 H   0  0  0  0  0  0  0  0  0  0  0  0
  148.8880  140.0594  155.3164 H   0  0  0  0  0  0  0  0  0  0  0  0
  149.5596  142.8365  155.8492 H   0  0  0  0  0  0  0  0  0  0  0  0
  148.9024  141.6348  156.9515 H   0  0  0  0  0  0  0  0  0  0  0  0
  151.0461  140.3816  156.9306 H   0  0  0  0  0  0  0  0  0  0  0  0
  151.7088  141.4630  155.7292 H   0  0  0  0  0  0  0  0  0  0  0  0
  151.2772  144.1752  156.5442 H   0  0  0  0  0  0  0  0  0  0  0  0
  152.1468  145.6015  158.4121 H   0  0  0  0  0  0  0  0  0  0  0  0
  152.8677  144.4913  160.5464 H   0  0  0  0  0  0  0  0  0  0  0  0
  152.6857  141.9960  160.7204 H   0  0  0  0  0  0  0  0  0  0  0  0
  149.9744  140.8395  154.3674 H   0  0  0  0  0  0  0  0  0  0  0  0
  145.1359  140.3083  153.7489 H   0  0  0  0  0  0  0  0  0  0  0  0
  1  2  1  0  0  0  0
  1 19  1  0  0  0  0
  1 20  1  0  0  0  0
  1 21  1  0  0  0  0
  2  9  1  0  0  0  0
  2  3  1  0  0  0  0
  2 22  1  0  0  0  0
  3  4  1  0  0  0  0
  3 23  1  0  0  0  0
  3 24  1  0  0  0  0
  4  5  1  0  0  0  0
  4  6  1  0  0  0  0
  4 45  1  0  0  0  0
  5 25  1  0  0  0  0
  5 26  1  0  0  0  0
  5 27  1  0  0  0  0
  6  7  1  0  0  0  0
  6  8  1  0  0  0  0
  6 28  1  0  0  0  0
  7 29  1  0  0  0  0
  7 30  1  0  0  0  0
  7 31  1  0  0  0  0
  8  9  1  0  0  0  0
  8 32  1  0  0  0  0
  8 33  1  0  0  0  0
  9 10  1  0  0  0  0
  9 34  1  0  0  0  0
 10 11  1  0  0  0  0
 10 35  1  0  0  0  0
 10 44  1  0  0  0  0
 11 12  1  0  0  0  0
 11 36  1  0  0  0  0
 11 37  1  0  0  0  0
 12 13  1  0  0  0  0
 12 38  1  0  0  0  0
 12 39  1  0  0  0  0
 13 18  1  0  0  0  0
 13 14  2  0  0  0  0
 14 15  1  0  0  0  0
 14 40  1  0  0  0  0
 15 16  2  0  0  0  0
 15 41  1  0  0  0  0
 16 17  1  0  0  0  0
 16 42  1  0  0  0  0
 17 18  2  0  0  0  0
 17 43  1  0  0  0  0
M  CHG  1   4   1
M  CHG  1  10   1
M  END
> <s_m_source_file>
AV-unprocessed.smi

> <i_m_source_file_index>
3303

> <i_lp_mmshare_version>
43012

> <i_f3d_flags>
0

> <s_epik_input>
W0NIM11bQ0BASF0xW0NIMl1OKFtDSDNdKVtDQEBIXShbQ0gzXSlbQ0gyXVtDQEhdMVtOSF1bQ0gyXVtDSDJdYzJbY0hdW2NIXVtjSF1bY0hdbjI=

> <s_epik_cmdline>
J2VwaWtfcHl0aG9uJywgJy1waCcsICc3LjAnLCAnLXRuJywgJzgnLCAnLW1hJywgJzIwMCcsICctbWV0YWxfYmluZGluZycsICctaW1hZScsICc8aW5maWxlLm1hZT4nLCAnLW9tYWUnLCAnPG91dGZpbGUubWFlPic=

> <r_epik_Ionization_Penalty>
0.0769462

> <r_epik_Ionization_Penalty_Charging>
0.0759813

> <r_epik_Ionization_Penalty_Neutral>
0.000964829

> <r_epik_State_Penalty>
0.0654373

> <r_epik_Charging_Adjusted_Penalty>
0.141419

> <i_epik_Tot_Q>
2

> <i_epik_Tot_abs_Q>
2

> <r_epik_Metal_State_Penalty>
0.0656439

> <b_epik_Metal_Only>
0

> <s_lp_Force_Field>
OPLS_2005

> <r_lp_Energy>
35.1377

> <b_lp_Chiralities_Consistent>
1

> <s_lp_Variant>
AV-unprocessed.smi:3303-10

> <Gold.Version>
5.8.1

> <Gold.Id.Protein>
6NUR|6NUR_protein|mol2

> <Gold.PLP.Fitness>
43.9397

> <Gold.PLP.PLP>
-38.1632

> <Gold.PLP.part.hbond>
-1.0000

> <Gold.PLP.part.metal>
0.0000

> <Gold.PLP.part.buried>
-0.3675

> <Gold.PLP.part.nonpolar>
-37.4883

> <Gold.PLP.part.repulsive>
0.1374

> <Gold.PLP.ligand.clash>
0.0000

> <Gold.PLP.ligand.torsion>
0.1223

> <Gold.PLP.Chemscore.Hbond>
2.0000

> <Gold.PLP.Chemscore.CHOScore>
0.0000

> <Gold.PLP.Chemscore.Metal>
0.0000

> <Gold.Chemscore.Hbonds>
donor molecule, donor type, donor heavy atom, donor atom, acceptor molecule, acceptor atom, score
      L1  H     4    45       P1 10175  2.00

> <Gold.PLP.Chemscore.Internal.Correction>
0.0212

> <Gold.Rescore>
     Score         DG    S(hbond)    S(metal)    S(lipo)     H(rot)  DE(clash)    DE(int)     intcor
     17.34     -19.18       0.94        0.00     120.34       1.37       1.72       0.13       ----

> <Gold.Chemscore.Fitness>
17.3398

> <Gold.Chemscore.DG>
-19.1824

> <Gold.Chemscore.ZeroCoef>
-5.4800

> <Gold.Chemscore.Hbond>
0.9404

> <Gold.Chemscore.Metal>
0.0000

> <Gold.Chemscore.Lipo>
120.3410

> <Gold.Chemscore.Internal_Hbond>
0.0000

> <Gold.Chemscore.DEClash>
1.7161

> <Gold.Chemscore.DEInternal>
0.1265

> <Gold.Chemscore.Rot>
1.3744

> <Gold.Chemscore.Internal.Correction>
   9.000000E+99

> <Gold.Chemscore.Hbonds>
donor molecule, donor type, donor heavy atom, donor atom, acceptor molecule, acceptor atom, score
      L1  H     4    45       P1 10175  0.94

> <Gold.Chemscore.Hbond.Weighted>
-3.1409

> <Gold.Chemscore.Metal.Weighted>
-0.0000

> <Gold.Chemscore.Lipo.Weighted>
-14.0799

> <Gold.Chemscore.Internal_Hbond.Weighted>
0.0000

> <Gold.Chemscore.DEClash.Weighted>
1.7161

> <Gold.Chemscore.DEInternal.Weighted>
0.1265

> <Gold.Chemscore.Rot.Weighted>
3.5185

> <Gold.Chemscore.Internal.Correction.Weighted>
   9.000000E+99

> <Gold.Protein.RotatedTorsions>
[ 6907 6896 6895 6894 ] final    1.66 input  -60.11 | X-H torsion
[ 7974 7965 7964 7962 ] final   23.05 input  175.53 | X-H torsion
[ 8008 7997 7996 7995 ] final -137.67 input   59.86 | X-H torsion
[ 10167 10162 10161 10158 ] final   58.13 input  -65.29 | X-H torsion
[ 10718 10713 10712 10709 ] final -123.28 input   66.30 | X-H torsion
[ 10763 10752 10751 10750 ] final -160.16 input  -60.55 | X-H torsion
[ 11005 11000 10999 10996 ] final -126.57 input  -57.11 | X-H torsion

> <Gold.Protein.ActiveResidues>
 VAL166  LYS551  ARG553  GLY616  TRP617  ASP618  TYR619  PRO620  LYS621  CYS622 
 ASP623  PHE694  ASN695  SER759  ASP760  ASP761  ALA762  ILE779  LEU786  VAL792 
 PHE793  MET794  SER795  GLU796  ALA797  LYS798  CYS799  TRP800  GLU811  SER814 

> <Gold.Protein.RotatedAtoms>
  151.5962  135.1050  160.0049 H   0  0  0  0  0  0  0  0  0  0  0  0  # atno 6907 bound_to 6896
  152.4281  133.7226  159.6552 H   0  0  0  0  0  0  0  0  0  0  0  0  # atno 6908 bound_to 6896
  150.8171  133.8246  159.3178 H   0  0  0  0  0  0  0  0  0  0  0  0  # atno 6909 bound_to 6896
  146.2002  139.7799  142.8767 H   0  0  0  0  0  0  0  0  0  0  0  0  # atno 7974 bound_to 7965
  155.4156  140.0515  157.3029 H   0  0  0  0  0  0  0  0  0  0  0  0  # atno 8008 bound_to 7997
  154.4926  140.2126  155.9475 H   0  0  0  0  0  0  0  0  0  0  0  0  # atno 8009 bound_to 7997
  156.1363  140.3162  155.8430 H   0  0  0  0  0  0  0  0  0  0  0  0  # atno 8010 bound_to 7997
  140.1906  144.4090  150.6573 H   0  0  0  0  0  0  0  0  0  0  0  0  # atno 10167 bound_to 10162
  156.1489  130.6520  150.9884 H   0  0  0  0  0  0  0  0  0  0  0  0  # atno 10718 bound_to 10713
  154.7414  135.3069  154.8721 H   0  0  0  0  0  0  0  0  0  0  0  0  # atno 10763 bound_to 10752
  153.9535  135.6761  153.4748 H   0  0  0  0  0  0  0  0  0  0  0  0  # atno 10764 bound_to 10752
  153.1013  135.4911  154.8796 H   0  0  0  0  0  0  0  0  0  0  0  0  # atno 10765 bound_to 10752
  140.9671  134.0857  157.3909 H   0  0  0  0  0  0  0  0  0  0  0  0  # atno 11005 bound_to 11000
  145.3510  141.0307  143.3338 LP  0  0  0  0  0  0  0  0  0  0  0  0  # atno 17320 bound_to 7965
  144.8666  139.5099  143.6787 LP  0  0  0  0  0  0  0  0  0  0  0  0  # atno 17321 bound_to 7965
  140.6458  143.2213  151.6188 LP  0  0  0  0  0  0  0  0  0  0  0  0  # atno 17342 bound_to 10162
  139.5258  144.3065  152.1029 LP  0  0  0  0  0  0  0  0  0  0  0  0  # atno 17343 bound_to 10162
  157.6640  131.0875  150.7772 LP  0  0  0  0  0  0  0  0  0  0  0  0  # atno 17370 bound_to 10713
  156.7841  130.4869  149.5396 LP  0  0  0  0  0  0  0  0  0  0  0  0  # atno 17371 bound_to 10713
  139.8898  135.0108  156.6702 LP  0  0  0  0  0  0  0  0  0  0  0  0  # atno 17394 bound_to 11000
  140.7384  133.8999  155.8260 LP  0  0  0  0  0  0  0  0  0  0  0  0  # atno 17395 bound_to 11000

$$$$
