AV-unprocessed.smi:467|AV-procd|sdf|2649|dock2
  -GOLD-   2262023 63D 1   1.00000     0.00000
 Structure written by MMmdl.
 46 48  0  0  0  0  0  0  0  0  3 V2000
  152.4421  143.1980  161.0141 C   0  0  0  0  0  0  0  0  0  0  0  0
  152.1235  142.4595  159.7250 C   0  0  0  0  0  0  0  0  0  0  0  0
  151.2131  143.0478  158.8185 C   0  0  0  0  0  0  0  0  0  0  0  0
  150.9426  142.3492  157.6480 C   0  0  0  0  0  0  0  0  0  0  0  0
  150.1047  142.6577  156.5746 N   0  3  0  0  0  0  0  0  0  0  0  0
  150.1665  141.6615  155.6488 C   0  0  0  0  0  0  0  0  0  0  0  0
  151.0367  140.7228  156.1118 N   0  0  0  0  0  0  0  0  0  0  0  0
  151.4530  139.4538  155.4977 C   0  0  0  0  0  0  0  0  0  0  0  0
  150.2631  138.5499  155.1171 C   0  0  2  0  0  0  0  0  0  0  0  0
  150.7990  137.3674  154.5589 O   0  0  0  0  0  0  0  0  0  0  0  0
  149.2962  139.1978  154.1004 C   0  0  0  0  0  0  0  0  0  0  0  0
  148.1711  138.3080  153.7143 N   0  3  0  0  0  0  0  0  0  0  0  0
  147.4804  137.6833  154.8706 C   0  0  0  0  0  0  0  0  0  0  0  0
  146.3491  136.7585  154.3886 C   0  0  0  0  0  0  0  0  0  0  0  0
  145.4422  137.4934  153.5764 O   0  0  0  0  0  0  0  0  0  0  0  0
  146.0740  138.0195  152.4164 C   0  0  0  0  0  0  0  0  0  0  0  0
  147.1906  138.9904  152.8359 C   0  0  0  0  0  0  0  0  0  0  0  0
  151.5413  141.1064  157.3616 C   0  0  0  0  0  0  0  0  0  0  0  0
  152.4407  140.5130  158.2456 C   0  0  0  0  0  0  0  0  0  0  0  0
  152.7288  141.2079  159.4422 C   0  0  0  0  0  0  0  0  0  0  0  0
  153.7037  140.5835  160.4262 C   0  0  0  0  0  0  0  0  0  0  0  0
  151.8899  144.1357  161.0833 H   0  0  0  0  0  0  0  0  0  0  0  0
  153.5054  143.4337  161.0676 H   0  0  0  0  0  0  0  0  0  0  0  0
  152.1767  142.5910  161.8799 H   0  0  0  0  0  0  0  0  0  0  0  0
  150.7471  143.9997  159.0284 H   0  0  0  0  0  0  0  0  0  0  0  0
  149.6223  141.6233  154.7160 H   0  0  0  0  0  0  0  0  0  0  0  0
  152.0886  139.6563  154.6358 H   0  0  0  0  0  0  0  0  0  0  0  0
  152.0862  138.9444  156.2258 H   0  0  0  0  0  0  0  0  0  0  0  0
  149.7354  138.2818  156.0318 H   0  0  0  0  0  0  0  0  0  0  0  0
  150.4182  136.6205  154.9945 H   0  0  0  0  0  0  0  0  0  0  0  0
  148.8809  140.1262  154.4937 H   0  0  0  0  0  0  0  0  0  0  0  0
  149.8662  139.4728  153.2113 H   0  0  0  0  0  0  0  0  0  0  0  0
  148.1818  137.1058  155.4713 H   0  0  0  0  0  0  0  0  0  0  0  0
  147.0712  138.4613  155.5173 H   0  0  0  0  0  0  0  0  0  0  0  0
  146.7495  135.9095  153.8322 H   0  0  0  0  0  0  0  0  0  0  0  0
  145.8073  136.3523  155.2430 H   0  0  0  0  0  0  0  0  0  0  0  0
  146.4708  137.2093  151.8024 H   0  0  0  0  0  0  0  0  0  0  0  0
  145.3292  138.5402  151.8140 H   0  0  0  0  0  0  0  0  0  0  0  0
  146.7635  139.8470  153.3597 H   0  0  0  0  0  0  0  0  0  0  0  0
  147.6926  139.3747  151.9469 H   0  0  0  0  0  0  0  0  0  0  0  0
  152.9050  139.5611  158.0356 H   0  0  0  0  0  0  0  0  0  0  0  0
  154.0962  139.6365  160.0548 H   0  0  0  0  0  0  0  0  0  0  0  0
  153.2119  140.3889  161.3798 H   0  0  0  0  0  0  0  0  0  0  0  0
  154.5503  141.2474  160.6024 H   0  0  0  0  0  0  0  0  0  0  0  0
  148.5684  137.5607  153.1627 H   0  0  0  0  0  0  0  0  0  0  0  0
  149.5285  143.4845  156.4804 H   0  0  0  0  0  0  0  0  0  0  0  0
  1  2  1  0  0  0  0
  1 22  1  0  0  0  0
  1 23  1  0  0  0  0
  1 24  1  0  0  0  0
  2 20  1  0  0  0  0
  2  3  2  0  0  0  0
  3  4  1  0  0  0  0
  3 25  1  0  0  0  0
  4 18  2  0  0  0  0
  4  5  1  0  0  0  0
  5  6  2  0  0  0  0
  5 46  1  0  0  0  0
  6  7  1  0  0  0  0
  6 26  1  0  0  0  0
  7  8  1  0  0  0  0
  7 18  1  0  0  0  0
  8  9  1  0  0  0  0
  8 27  1  0  0  0  0
  8 28  1  0  0  0  0
  9 10  1  0  0  0  0
  9 11  1  0  0  0  0
  9 29  1  0  0  0  0
 10 30  1  0  0  0  0
 11 12  1  0  0  0  0
 11 31  1  0  0  0  0
 11 32  1  0  0  0  0
 12 17  1  0  0  0  0
 12 13  1  0  0  0  0
 12 45  1  0  0  0  0
 13 14  1  0  0  0  0
 13 33  1  0  0  0  0
 13 34  1  0  0  0  0
 14 15  1  0  0  0  0
 14 35  1  0  0  0  0
 14 36  1  0  0  0  0
 15 16  1  0  0  0  0
 16 17  1  0  0  0  0
 16 37  1  0  0  0  0
 16 38  1  0  0  0  0
 17 39  1  0  0  0  0
 17 40  1  0  0  0  0
 18 19  1  0  0  0  0
 19 20  2  0  0  0  0
 19 41  1  0  0  0  0
 20 21  1  0  0  0  0
 21 42  1  0  0  0  0
 21 43  1  0  0  0  0
 21 44  1  0  0  0  0
M  CHG  1   5   1
M  CHG  1  12   1
M  END
> <s_m_source_file>
AV-unprocessed.smi

> <i_m_source_file_index>
467

> <i_lp_mmshare_version>
43012

> <i_f3d_flags>
0

> <s_epik_input>
W0NIM11jKFtjSF0xKWMoW0NIM10pW2NIXWMoYzEyKW4oW2NIXW4yKVtDSDJdW0NASF0oW09IXSlbQ0gyXU4zW0NIMl1bQ0gyXU9bQ0gyXVtDSDJdMw==

> <s_epik_cmdline>
J2VwaWtfcHl0aG9uJywgJy1waCcsICc3LjAnLCAnLXRuJywgJzgnLCAnLW1hJywgJzIwMCcsICctbWV0YWxfYmluZGluZycsICctaW1hZScsICc8aW5maWxlLm1hZT4nLCAnLW9tYWUnLCAnPG91dGZpbGUubWFlPic=

> <r_epik_Ionization_Penalty>
1.88533

> <r_epik_Ionization_Penalty_Charging>
1.88531

> <r_epik_Ionization_Penalty_Neutral>
1.42224e-05

> <r_epik_State_Penalty>
1.94609

> <r_epik_Charging_Adjusted_Penalty>
3.8314

> <i_epik_Tot_Q>
2

> <i_epik_Tot_abs_Q>
2

> <r_epik_Metal_State_Penalty>
5.95915

> <b_epik_Metal_Only>
0

> <s_lp_Force_Field>
OPLS_2005

> <r_lp_Energy>
33.5699

> <b_lp_Chiralities_Consistent>
1

> <s_lp_Variant>
AV-unprocessed.smi:467-7

> <Gold.Version>
5.8.1

> <Gold.Id.Protein>
6NUR|6NUR_protein|mol2

> <Gold.PLP.Fitness>
52.5386

> <Gold.PLP.PLP>
-40.6660

> <Gold.PLP.part.hbond>
-2.3475

> <Gold.PLP.part.metal>
0.0000

> <Gold.PLP.part.buried>
-2.3022

> <Gold.PLP.part.nonpolar>
-36.4564

> <Gold.PLP.part.repulsive>
0.2513

> <Gold.PLP.ligand.clash>
0.0000

> <Gold.PLP.ligand.torsion>
0.0760

> <Gold.PLP.Chemscore.Hbond>
4.0000

> <Gold.PLP.Chemscore.CHOScore>
0.0000

> <Gold.PLP.Chemscore.Metal>
0.0000

> <Gold.Chemscore.Hbonds>
donor molecule, donor type, donor heavy atom, donor atom, acceptor molecule, acceptor atom, score
      L1  H     5    46       P1  8028  2.00
      L1  H    12    45       P1  7948  2.00

> <Gold.PLP.Chemscore.Internal.Correction>
0.0245

> <Gold.Rescore>
     Score         DG    S(hbond)    S(metal)    S(lipo)     H(rot)  DE(clash)    DE(int)     intcor
     18.70     -18.89       1.92        0.00     107.01       2.16       0.13       0.06       ----

> <Gold.Chemscore.Fitness>
18.6994

> <Gold.Chemscore.DG>
-18.8866

> <Gold.Chemscore.ZeroCoef>
-5.4800

> <Gold.Chemscore.Hbond>
1.9204

> <Gold.Chemscore.Metal>
0.0000

> <Gold.Chemscore.Lipo>
107.0089

> <Gold.Chemscore.Internal_Hbond>
0.0000

> <Gold.Chemscore.DEClash>
0.1309

> <Gold.Chemscore.DEInternal>
0.0563

> <Gold.Chemscore.Rot>
2.1592

> <Gold.Chemscore.Internal.Correction>
   9.000000E+99

> <Gold.Chemscore.Hbonds>
donor molecule, donor type, donor heavy atom, donor atom, acceptor molecule, acceptor atom, score
      L1  H     5    46       P1  8028  0.97
      L1  H    12    45       P1  7948  1.00

> <Gold.Chemscore.Hbond.Weighted>
-6.4141

> <Gold.Chemscore.Metal.Weighted>
-0.0000

> <Gold.Chemscore.Lipo.Weighted>
-12.5200

> <Gold.Chemscore.Internal_Hbond.Weighted>
0.0000

> <Gold.Chemscore.DEClash.Weighted>
0.1309

> <Gold.Chemscore.DEInternal.Weighted>
0.0563

> <Gold.Chemscore.Rot.Weighted>
5.5275

> <Gold.Chemscore.Internal.Correction.Weighted>
   9.000000E+99

> <Gold.Protein.RotatedTorsions>
[ 6907 6896 6895 6894 ] final  166.58 input  -60.11 | X-H torsion
[ 7974 7965 7964 7962 ] final  -85.39 input  175.53 | X-H torsion
[ 8008 7997 7996 7995 ] final   97.90 input   59.86 | X-H torsion
[ 10167 10162 10161 10158 ] final   36.54 input  -65.29 | X-H torsion
[ 10718 10713 10712 10709 ] final  -66.61 input   66.30 | X-H torsion
[ 10763 10752 10751 10750 ] final   49.38 input  -60.55 | X-H torsion
[ 11005 11000 10999 10996 ] final -178.99 input  -57.11 | X-H torsion

> <Gold.Protein.ActiveResidues>
 VAL166  LYS551  ARG553  GLY616  TRP617  ASP618  TYR619  PRO620  LYS621  CYS622 
 ASP623  PHE694  ASN695  SER759  ASP760  ASP761  ALA762  ILE779  LEU786  VAL792 
 PHE793  MET794  SER795  GLU796  ALA797  LYS798  CYS799  TRP800  GLU811  SER814 

> <Gold.Protein.RotatedAtoms>
  151.8767  133.3487  159.3752 H   0  0  0  0  0  0  0  0  0  0  0  0  # atno 6907 bound_to 6896
  150.7138  134.5059  159.5593 H   0  0  0  0  0  0  0  0  0  0  0  0  # atno 6908 bound_to 6896
  152.2602  134.8042  160.0483 H   0  0  0  0  0  0  0  0  0  0  0  0  # atno 6909 bound_to 6896
  145.4939  140.9551  143.1797 H   0  0  0  0  0  0  0  0  0  0  0  0  # atno 7974 bound_to 7965
  156.0949  140.3251  155.7864 H   0  0  0  0  0  0  0  0  0  0  0  0  # atno 8008 bound_to 7997
  155.4935  140.0563  157.2967 H   0  0  0  0  0  0  0  0  0  0  0  0  # atno 8009 bound_to 7997
  154.4660  140.1989  156.0133 H   0  0  0  0  0  0  0  0  0  0  0  0  # atno 8010 bound_to 7997
  140.4118  144.1582  150.6140 H   0  0  0  0  0  0  0  0  0  0  0  0  # atno 10167 bound_to 10162
  156.0603  130.4265  150.1734 H   0  0  0  0  0  0  0  0  0  0  0  0  # atno 10718 bound_to 10713
  152.9787  135.5913  154.4080 H   0  0  0  0  0  0  0  0  0  0  0  0  # atno 10763 bound_to 10752
  154.3719  135.2767  155.2263 H   0  0  0  0  0  0  0  0  0  0  0  0  # atno 10764 bound_to 10752
  154.4215  135.6058  153.6067 H   0  0  0  0  0  0  0  0  0  0  0  0  # atno 10765 bound_to 10752
  140.4236  134.6583  157.4676 H   0  0  0  0  0  0  0  0  0  0  0  0  # atno 11005 bound_to 11000
  144.7818  139.6510  143.7151 LP  0  0  0  0  0  0  0  0  0  0  0  0  # atno 17320 bound_to 7965
  146.2267  139.5736  142.9582 LP  0  0  0  0  0  0  0  0  0  0  0  0  # atno 17321 bound_to 7965
  140.4630  143.2442  151.9194 LP  0  0  0  0  0  0  0  0  0  0  0  0  # atno 17342 bound_to 10162
  139.4782  144.5448  151.8474 LP  0  0  0  0  0  0  0  0  0  0  0  0  # atno 17343 bound_to 10162
  156.9803  130.9862  151.3439 LP  0  0  0  0  0  0  0  0  0  0  0  0  # atno 17370 bound_to 10713
  157.5606  130.8243  149.8261 LP  0  0  0  0  0  0  0  0  0  0  0  0  # atno 17371 bound_to 10713
  140.0183  134.6585  155.9277 LP  0  0  0  0  0  0  0  0  0  0  0  0  # atno 17394 bound_to 11000
  141.1774  133.6542  156.4883 LP  0  0  0  0  0  0  0  0  0  0  0  0  # atno 17395 bound_to 11000

$$$$
