AV-unprocessed.smi:1964|AV-procd|sdf|7931|dock8
  -GOLD-   2272010103D 1   1.00000     0.00000
 Structure written by MMmdl.
 46 48  0  0  0  0  0  0  0  0  1 V2000
  148.0027  132.7648  159.6195 C   0  0  0  0  0  0  0  0  0  0  0  0
  147.4725  134.0191  160.3382 C   0  0  1  0  0  0  0  0  0  0  0  0
  147.4977  133.8222  161.8675 C   0  0  0  0  0  0  0  0  0  0  0  0
  146.9561  135.0519  162.6123 C   0  0  0  0  0  0  0  0  0  0  0  0
  147.7277  136.3192  162.2200 C   0  0  0  0  0  0  0  0  0  0  0  0
  147.6980  136.5334  160.6998 C   0  0  0  0  0  0  0  0  0  0  0  0
  148.2438  135.3034  159.9442 C   0  0  2  0  0  0  0  0  0  0  0  0
  148.1548  135.5200  158.5038 N   0  0  0  0  0  0  0  0  0  0  0  0
  149.1584  135.3843  157.6207 C   0  0  0  0  0  0  0  0  0  0  0  0
  150.3038  135.0829  157.9534 O   0  0  0  0  0  0  0  0  0  0  0  0
  148.8447  135.6071  156.1304 C   0  0  0  0  0  0  0  0  0  0  0  0
  149.3019  136.9087  155.5893 N   0  0  0  0  0  0  0  0  0  0  0  0
  150.6955  137.1269  155.4386 C   0  0  0  0  0  0  0  0  0  0  0  0
  151.5109  136.2536  155.7389 O   0  0  0  0  0  0  0  0  0  0  0  0
  151.0741  138.4335  154.9060 C   0  0  0  0  0  0  0  0  0  0  0  0
  152.4677  138.7088  154.7858 C   0  0  0  0  0  0  0  0  0  0  0  0
  153.6036  138.9082  154.6907 N   0  0  0  0  0  0  0  0  0  0  0  0
  150.1374  139.3353  154.5472 C   0  0  0  0  0  0  0  0  0  0  0  0
  148.7872  139.0789  154.6442 N   0  0  0  0  0  0  0  0  0  0  0  0
  147.8092  140.0950  154.3766 C   0  0  0  0  0  0  0  0  0  0  0  0
  148.2448  141.4522  153.8588 C   0  0  0  0  0  0  0  0  0  0  0  0
  147.7479  141.3104  155.2763 C   0  0  0  0  0  0  0  0  0  0  0  0
  148.3323  137.8719  155.2178 C   0  0  0  0  0  0  0  0  0  0  0  0
  147.1292  137.6577  155.3846 O   0  0  0  0  0  0  0  0  0  0  0  0
  149.0555  132.5948  159.8467 H   0  0  0  0  0  0  0  0  0  0  0  0
  147.9049  132.8464  158.5368 H   0  0  0  0  0  0  0  0  0  0  0  0
  147.4499  131.8764  159.9257 H   0  0  0  0  0  0  0  0  0  0  0  0
  146.4303  134.1467  160.0405 H   0  0  0  0  0  0  0  0  0  0  0  0
  146.9089  132.9460  162.1408 H   0  0  0  0  0  0  0  0  0  0  0  0
  148.5187  133.6210  162.1952 H   0  0  0  0  0  0  0  0  0  0  0  0
  145.8975  135.1820  162.3845 H   0  0  0  0  0  0  0  0  0  0  0  0
  147.0239  134.8941  163.6891 H   0  0  0  0  0  0  0  0  0  0  0  0
  147.3027  137.1863  162.7262 H   0  0  0  0  0  0  0  0  0  0  0  0
  148.7618  136.2386  162.5577 H   0  0  0  0  0  0  0  0  0  0  0  0
  146.6740  136.7370  160.3828 H   0  0  0  0  0  0  0  0  0  0  0  0
  148.2798  137.4211  160.4488 H   0  0  0  0  0  0  0  0  0  0  0  0
  149.2933  135.1652  160.2122 H   0  0  0  0  0  0  0  0  0  0  0  0
  147.2474  135.7769  158.1435 H   0  0  0  0  0  0  0  0  0  0  0  0
  149.2748  134.7769  155.5684 H   0  0  0  0  0  0  0  0  0  0  0  0
  147.7698  135.4850  155.9880 H   0  0  0  0  0  0  0  0  0  0  0  0
  150.4552  140.2923  154.1587 H   0  0  0  0  0  0  0  0  0  0  0  0
  146.8522  139.7318  154.0062 H   0  0  0  0  0  0  0  0  0  0  0  0
  149.3094  141.6339  153.7221 H   0  0  0  0  0  0  0  0  0  0  0  0
  147.5926  141.9476  153.1426 H   0  0  0  0  0  0  0  0  0  0  0  0
  146.7642  141.7147  155.5067 H   0  0  0  0  0  0  0  0  0  0  0  0
  148.4849  141.3984  156.0724 H   0  0  0  0  0  0  0  0  0  0  0  0
  1  2  1  0  0  0  0
  1 25  1  0  0  0  0
  1 26  1  0  0  0  0
  1 27  1  0  0  0  0
  2  7  1  0  0  0  0
  2  3  1  0  0  0  0
  2 28  1  0  0  0  0
  3  4  1  0  0  0  0
  3 29  1  0  0  0  0
  3 30  1  0  0  0  0
  4  5  1  0  0  0  0
  4 31  1  0  0  0  0
  4 32  1  0  0  0  0
  5  6  1  0  0  0  0
  5 33  1  0  0  0  0
  5 34  1  0  0  0  0
  6  7  1  0  0  0  0
  6 35  1  0  0  0  0
  6 36  1  0  0  0  0
  7  8  1  0  0  0  0
  7 37  1  0  0  0  0
  8  9  1  0  0  0  0
  8 38  1  0  0  0  0
  9 10  2  0  0  0  0
  9 11  1  0  0  0  0
 11 12  1  0  0  0  0
 11 39  1  0  0  0  0
 11 40  1  0  0  0  0
 12 23  1  0  0  0  0
 12 13  1  0  0  0  0
 13 14  2  0  0  0  0
 13 15  1  0  0  0  0
 15 16  1  0  0  0  0
 15 18  2  0  0  0  0
 16 17  3  0  0  0  0
 18 19  1  0  0  0  0
 18 41  1  0  0  0  0
 19 20  1  0  0  0  0
 19 23  1  0  0  0  0
 20 22  1  0  0  0  0
 20 21  1  0  0  0  0
 20 42  1  0  0  0  0
 21 22  1  0  0  0  0
 21 43  1  0  0  0  0
 21 44  1  0  0  0  0
 22 45  1  0  0  0  0
 22 46  1  0  0  0  0
 23 24  2  0  0  0  0
M  END
> <s_m_source_file>
AV-unprocessed.smi

> <i_m_source_file_index>
1964

> <i_lp_mmshare_version>
43012

> <i_f3d_flags>
0

> <s_epik_input>
W0NIM11bQ0BASF0xW0NIMl1bQ0gyXVtDSDJdW0NIMl1bQ0BIXTFbTkhdQyg9TylbQ0gyXW4yYyg9TyljKEMjTilbY0hdbihjMj1PKVtDSF0zW0NIMl1bQ0gyXTM=

> <s_epik_cmdline>
J2VwaWtfcHl0aG9uJywgJy1waCcsICc3LjAnLCAnLXRuJywgJzgnLCAnLW1hJywgJzIwMCcsICctbWV0YWxfYmluZGluZycsICctaW1hZScsICc8aW5maWxlLm1hZT4nLCAnLW9tYWUnLCAnPG91dGZpbGUubWFlPic=

> <r_lp_tautomer_probability>
1

> <r_epik_Ionization_Penalty>
1.91372e-08

> <r_epik_Ionization_Penalty_Charging>
9.0283e-11

> <r_epik_Ionization_Penalty_Neutral>
1.90469e-08

> <r_epik_State_Penalty>
-0

> <r_epik_Charging_Adjusted_Penalty>
9.0283e-11

> <i_epik_Tot_Q>
0

> <i_epik_Tot_abs_Q>
0

> <r_epik_Metal_State_Penalty>
-0

> <b_epik_Metal_Only>
0

> <s_lp_Force_Field>
OPLS_2005

> <r_lp_Energy>
35.2183

> <b_lp_Chiralities_Consistent>
1

> <s_lp_Variant>
AV-unprocessed.smi:1964-4

> <Gold.Version>
5.8.1

> <Gold.Id.Protein>
6NUR|6NUR_protein|mol2

> <Gold.PLP.Fitness>
48.0522

> <Gold.PLP.PLP>
-40.9058

> <Gold.PLP.part.hbond>
-2.9414

> <Gold.PLP.part.metal>
0.0000

> <Gold.PLP.part.buried>
-5.1196

> <Gold.PLP.part.nonpolar>
-33.5083

> <Gold.PLP.part.repulsive>
0.1709

> <Gold.PLP.ligand.clash>
0.0000

> <Gold.PLP.ligand.torsion>
0.5073

> <Gold.PLP.Chemscore.Hbond>
2.6560

> <Gold.PLP.Chemscore.CHOScore>
0.0000

> <Gold.PLP.Chemscore.Metal>
0.0000

> <Gold.Chemscore.Hbonds>
donor molecule, donor type, donor heavy atom, donor atom, acceptor molecule, acceptor atom, score
      P1  H  6896  6908       L1    10  0.70
      P1  H  7997  8009       L1    17  1.00
      P1  H 10752 10764       L1    14  1.00

> <Gold.PLP.Chemscore.Internal.Correction>
0.1930

> <Gold.Rescore>
     Score         DG    S(hbond)    S(metal)    S(lipo)     H(rot)  DE(clash)    DE(int)     intcor
     17.61     -19.54       2.68        0.00      80.85       1.70       0.07       1.86       ----

> <Gold.Chemscore.Fitness>
17.6125

> <Gold.Chemscore.DG>
-19.5419

> <Gold.Chemscore.ZeroCoef>
-5.4800

> <Gold.Chemscore.Hbond>
2.6840

> <Gold.Chemscore.Metal>
0.0000

> <Gold.Chemscore.Lipo>
80.8461

> <Gold.Chemscore.Internal_Hbond>
0.0000

> <Gold.Chemscore.DEClash>
0.0695

> <Gold.Chemscore.DEInternal>
1.8599

> <Gold.Chemscore.Rot>
1.7038

> <Gold.Chemscore.Internal.Correction>
   9.000000E+99

> <Gold.Chemscore.Hbonds>
donor molecule, donor type, donor heavy atom, donor atom, acceptor molecule, acceptor atom, score
      P1  H  6896  6908       L1    10  0.69
      P1  H  7997  8009       L1    17  0.96
      P1  H 10752 10764       L1    14  1.00

> <Gold.Chemscore.Hbond.Weighted>
-8.9647

> <Gold.Chemscore.Metal.Weighted>
-0.0000

> <Gold.Chemscore.Lipo.Weighted>
-9.4590

> <Gold.Chemscore.Internal_Hbond.Weighted>
0.0000

> <Gold.Chemscore.DEClash.Weighted>
0.0695

> <Gold.Chemscore.DEInternal.Weighted>
1.8599

> <Gold.Chemscore.Rot.Weighted>
4.3618

> <Gold.Chemscore.Internal.Correction.Weighted>
   9.000000E+99

> <Gold.Protein.RotatedTorsions>
[ 6907 6896 6895 6894 ] final  160.40 input  -60.11 | X-H torsion
[ 7974 7965 7964 7962 ] final   -3.51 input  175.53 | X-H torsion
[ 8008 7997 7996 7995 ] final -117.17 input   59.86 | X-H torsion
[ 10167 10162 10161 10158 ] final   96.08 input  -65.29 | X-H torsion
[ 10718 10713 10712 10709 ] final  162.37 input   66.30 | X-H torsion
[ 10763 10752 10751 10750 ] final  -45.71 input  -60.55 | X-H torsion
[ 11005 11000 10999 10996 ] final  -46.23 input  -57.11 | X-H torsion

> <Gold.Protein.ActiveResidues>
 VAL166  LYS551  ARG553  GLY616  TRP617  ASP618  TYR619  PRO620  LYS621  CYS622 
 ASP623  PHE694  ASN695  SER759  ASP760  ASP761  ALA762  ILE779  LEU786  VAL792 
 PHE793  MET794  SER795  GLU796  ALA797  LYS798  CYS799  TRP800  GLU811  SER814 

> <Gold.Protein.RotatedAtoms>
  151.9712  133.3726  159.4071 H   0  0  0  0  0  0  0  0  0  0  0  0  # atno 6907 bound_to 6896
  150.6948  134.4138  159.5183 H   0  0  0  0  0  0  0  0  0  0  0  0  # atno 6908 bound_to 6896
  152.1842  134.8728  160.0574 H   0  0  0  0  0  0  0  0  0  0  0  0  # atno 6909 bound_to 6896
  146.2388  140.1732  142.8332 H   0  0  0  0  0  0  0  0  0  0  0  0  # atno 7974 bound_to 7965
  155.0795  140.0394  157.2634 H   0  0  0  0  0  0  0  0  0  0  0  0  # atno 8008 bound_to 7997
  154.6918  140.2655  155.6780 H   0  0  0  0  0  0  0  0  0  0  0  0  # atno 8009 bound_to 7997
  156.2731  140.2758  156.1499 H   0  0  0  0  0  0  0  0  0  0  0  0  # atno 8010 bound_to 7997
  139.7928  144.6845  150.9869 H   0  0  0  0  0  0  0  0  0  0  0  0  # atno 10167 bound_to 10162
  157.1235  131.0498  151.2404 H   0  0  0  0  0  0  0  0  0  0  0  0  # atno 10718 bound_to 10713
  154.0331  135.6654  153.4782 H   0  0  0  0  0  0  0  0  0  0  0  0  # atno 10763 bound_to 10752
  153.0532  135.5072  154.7914 H   0  0  0  0  0  0  0  0  0  0  0  0  # atno 10764 bound_to 10752
  154.6866  135.3054  154.9504 H   0  0  0  0  0  0  0  0  0  0  0  0  # atno 10765 bound_to 10752
  141.0566  133.6724  156.3125 H   0  0  0  0  0  0  0  0  0  0  0  0  # atno 11005 bound_to 11000
  144.9994  140.8619  143.5291 LP  0  0  0  0  0  0  0  0  0  0  0  0  # atno 17320 bound_to 7965
  145.1749  139.2383  143.5322 LP  0  0  0  0  0  0  0  0  0  0  0  0  # atno 17321 bound_to 7965
  140.7820  143.4363  151.0618 LP  0  0  0  0  0  0  0  0  0  0  0  0  # atno 17342 bound_to 10162
  139.8039  143.8045  152.3165 LP  0  0  0  0  0  0  0  0  0  0  0  0  # atno 17343 bound_to 10162
  157.4456  130.7569  149.7106 LP  0  0  0  0  0  0  0  0  0  0  0  0  # atno 17370 bound_to 10713
  155.9823  130.4011  150.3423 LP  0  0  0  0  0  0  0  0  0  0  0  0  # atno 17371 bound_to 10713
  140.5952  134.5610  157.5507 LP  0  0  0  0  0  0  0  0  0  0  0  0  # atno 17394 bound_to 11000
  139.9395  134.7813  156.0715 LP  0  0  0  0  0  0  0  0  0  0  0  0  # atno 17395 bound_to 11000

$$$$
