AV-unprocessed.smi:685|AV-procd|sdf|3333|dock2
  -GOLD-   22720 0303D 1   1.00000     0.00000
 Structure written by MMmdl.
 50 51  0  0  0  0  0  0  0  0  1 V2000
  150.1389  134.2339  156.7566 C   0  0  0  0  0  0  0  0  0  0  0  0
  149.2888  135.2497  157.4658 C   0  0  0  0  0  0  0  0  0  0  0  0
  149.0268  135.0867  158.7517 N   0  0  0  0  0  0  0  0  0  0  0  0
  148.2679  136.1494  159.0855 N   0  0  0  0  0  0  0  0  0  0  0  0
  147.7975  136.2859  160.4504 C   0  0  0  0  0  0  0  0  0  0  0  0
  148.0483  136.9854  158.0078 C   0  0  0  0  0  0  0  0  0  0  0  0
  147.2406  138.2378  158.1278 C   0  0  0  0  0  0  0  0  0  0  0  0
  148.6985  136.4345  156.9354 C   0  0  0  0  0  0  0  0  0  0  0  0
  148.7920  136.9423  155.5188 C   0  0  0  0  0  0  0  0  0  0  0  0
  150.1319  137.6550  155.2340 C   0  0  2  0  0  0  0  0  0  0  0  0
  151.3486  136.8526  155.7234 C   0  0  0  0  0  0  0  0  0  0  0  0
  150.1504  138.9723  155.8640 N   0  0  0  0  0  0  0  0  0  0  0  0
  151.0711  139.9255  155.6502 C   0  0  0  0  0  0  0  0  0  0  0  0
  152.0209  139.7873  154.8787 O   0  0  0  0  0  0  0  0  0  0  0  0
  150.8920  141.2305  156.4305 C   0  0  0  0  0  0  0  0  0  0  0  0
  151.6185  141.2117  157.7882 C   0  0  0  0  0  0  0  0  0  0  0  0
  151.4122  142.5007  158.6040 C   0  0  0  0  0  0  0  0  0  0  0  0
  151.6789  143.7947  157.8293 C   0  0  0  0  0  0  0  0  0  0  0  0
  151.8941  144.8600  158.9085 C   0  0  0  0  0  0  0  0  0  0  0  0
  152.3849  144.1111  160.1567 C   0  0  0  0  0  0  0  0  0  0  0  0
  152.3552  142.6186  159.8048 C   0  0  0  0  0  0  0  0  0  0  0  0
  149.8694  134.1580  155.7032 H   0  0  0  0  0  0  0  0  0  0  0  0
  150.0278  133.2421  157.1961 H   0  0  0  0  0  0  0  0  0  0  0  0
  151.1933  134.5054  156.8091 H   0  0  0  0  0  0  0  0  0  0  0  0
  148.0332  137.2831  160.8229 H   0  0  0  0  0  0  0  0  0  0  0  0
  148.2738  135.5486  161.0983 H   0  0  0  0  0  0  0  0  0  0  0  0
  146.7176  136.1393  160.4806 H   0  0  0  0  0  0  0  0  0  0  0  0
  147.0675  138.6969  157.1551 H   0  0  0  0  0  0  0  0  0  0  0  0
  147.7546  138.9679  158.7531 H   0  0  0  0  0  0  0  0  0  0  0  0
  146.2681  138.0326  158.5755 H   0  0  0  0  0  0  0  0  0  0  0  0
  148.6705  136.1102  154.8248 H   0  0  0  0  0  0  0  0  0  0  0  0
  147.9691  137.6197  155.2905 H   0  0  0  0  0  0  0  0  0  0  0  0
  150.2365  137.7898  154.1558 H   0  0  0  0  0  0  0  0  0  0  0  0
  151.4194  135.8873  155.2219 H   0  0  0  0  0  0  0  0  0  0  0  0
  151.2955  136.6669  156.7967 H   0  0  0  0  0  0  0  0  0  0  0  0
  152.2773  137.3881  155.5234 H   0  0  0  0  0  0  0  0  0  0  0  0
  149.4066  139.1733  156.5167 H   0  0  0  0  0  0  0  0  0  0  0  0
  151.2526  142.0647  155.8271 H   0  0  0  0  0  0  0  0  0  0  0  0
  149.8246  141.3944  156.5818 H   0  0  0  0  0  0  0  0  0  0  0  0
  151.2592  140.3675  158.3786 H   0  0  0  0  0  0  0  0  0  0  0  0
  152.6851  141.0415  157.6339 H   0  0  0  0  0  0  0  0  0  0  0  0
  150.3868  142.5268  158.9768 H   0  0  0  0  0  0  0  0  0  0  0  0
  152.5870  143.6918  157.2333 H   0  0  0  0  0  0  0  0  0  0  0  0
  150.8658  144.0544  157.1505 H   0  0  0  0  0  0  0  0  0  0  0  0
  152.5990  145.6258  158.5836 H   0  0  0  0  0  0  0  0  0  0  0  0
  150.9496  145.3589  159.1299 H   0  0  0  0  0  0  0  0  0  0  0  0
  153.3881  144.4242  160.4478 H   0  0  0  0  0  0  0  0  0  0  0  0
  151.7227  144.3179  160.9982 H   0  0  0  0  0  0  0  0  0  0  0  0
  152.0381  142.0006  160.6453 H   0  0  0  0  0  0  0  0  0  0  0  0
  153.3584  142.2962  159.5216 H   0  0  0  0  0  0  0  0  0  0  0  0
  1  2  1  0  0  0  0
  1 22  1  0  0  0  0
  1 23  1  0  0  0  0
  1 24  1  0  0  0  0
  2  8  1  0  0  0  0
  2  3  2  0  0  0  0
  3  4  1  0  0  0  0
  4  5  1  0  0  0  0
  4  6  1  0  0  0  0
  5 25  1  0  0  0  0
  5 26  1  0  0  0  0
  5 27  1  0  0  0  0
  6  7  1  0  0  0  0
  6  8  2  0  0  0  0
  7 28  1  0  0  0  0
  7 29  1  0  0  0  0
  7 30  1  0  0  0  0
  8  9  1  0  0  0  0
  9 10  1  0  0  0  0
  9 31  1  0  0  0  0
  9 32  1  0  0  0  0
 10 11  1  0  0  0  0
 10 12  1  0  0  0  0
 10 33  1  0  0  0  0
 11 34  1  0  0  0  0
 11 35  1  0  0  0  0
 11 36  1  0  0  0  0
 12 13  1  0  0  0  0
 12 37  1  0  0  0  0
 13 14  2  0  0  0  0
 13 15  1  0  0  0  0
 15 16  1  0  0  0  0
 15 38  1  0  0  0  0
 15 39  1  0  0  0  0
 16 17  1  0  0  0  0
 16 40  1  0  0  0  0
 16 41  1  0  0  0  0
 17 21  1  0  0  0  0
 17 18  1  0  0  0  0
 17 42  1  0  0  0  0
 18 19  1  0  0  0  0
 18 43  1  0  0  0  0
 18 44  1  0  0  0  0
 19 20  1  0  0  0  0
 19 45  1  0  0  0  0
 19 46  1  0  0  0  0
 20 21  1  0  0  0  0
 20 47  1  0  0  0  0
 20 48  1  0  0  0  0
 21 49  1  0  0  0  0
 21 50  1  0  0  0  0
M  END
> <s_m_source_file>
AV-unprocessed.smi

> <i_m_source_file_index>
685

> <i_lp_mmshare_version>
43012

> <i_f3d_flags>
0

> <s_epik_input>
W0NIM11jMW5uKFtDSDNdKWMoW0NIM10pYzFbQ0gyXVtDQEhdKFtDSDNdKVtOSF1DKD1PKVtDSDJdW0NIMl1bQ0hdMltDSDJdW0NIMl1bQ0gyXVtDSDJdMg==

> <s_epik_cmdline>
J2VwaWtfcHl0aG9uJywgJy1waCcsICc3LjAnLCAnLXRuJywgJzgnLCAnLW1hJywgJzIwMCcsICctbWV0YWxfYmluZGluZycsICctaW1hZScsICc8aW5maWxlLm1hZT4nLCAnLW9tYWUnLCAnPG91dGZpbGUubWFlPic=

> <r_lp_tautomer_probability>
1

> <r_epik_Ionization_Penalty>
0.0131144

> <r_epik_Ionization_Penalty_Charging>
0

> <r_epik_Ionization_Penalty_Neutral>
0.0131144

> <r_epik_State_Penalty>
0.0101889

> <r_epik_Charging_Adjusted_Penalty>
0.0101889

> <i_epik_Tot_Q>
0

> <i_epik_Tot_abs_Q>
0

> <r_epik_Metal_State_Penalty>
0.00996794

> <b_epik_Metal_Only>
0

> <s_lp_Force_Field>
OPLS_2005

> <r_lp_Energy>
16.135

> <b_lp_Chiralities_Consistent>
1

> <s_lp_Variant>
AV-unprocessed.smi:685-1

> <Gold.Version>
5.8.1

> <Gold.Id.Protein>
6NUR|6NUR_protein|mol2

> <Gold.PLP.Fitness>
41.4991

> <Gold.PLP.PLP>
-37.2210

> <Gold.PLP.part.hbond>
-1.7817

> <Gold.PLP.part.metal>
0.0000

> <Gold.PLP.part.buried>
-4.8539

> <Gold.PLP.part.nonpolar>
-31.3087

> <Gold.PLP.part.repulsive>
0.1005

> <Gold.PLP.ligand.clash>
0.0000

> <Gold.PLP.ligand.torsion>
0.8650

> <Gold.PLP.Chemscore.Hbond>
1.9920

> <Gold.PLP.Chemscore.CHOScore>
0.0000

> <Gold.PLP.Chemscore.Metal>
0.0000

> <Gold.Chemscore.Hbonds>
donor molecule, donor type, donor heavy atom, donor atom, acceptor molecule, acceptor atom, score
      P1  H  6896  6907       L1     3  0.99
      P1  H  7989  7998       L1    14  0.88

> <Gold.PLP.Chemscore.Internal.Correction>
0.0322

> <Gold.Rescore>
     Score         DG    S(hbond)    S(metal)    S(lipo)     H(rot)  DE(clash)    DE(int)     intcor
     18.48     -19.51       1.80        0.00     101.91       1.53       0.10       0.93       ----

> <Gold.Chemscore.Fitness>
18.4842

> <Gold.Chemscore.DG>
-19.5119

> <Gold.Chemscore.ZeroCoef>
-5.4800

> <Gold.Chemscore.Hbond>
1.8016

> <Gold.Chemscore.Metal>
0.0000

> <Gold.Chemscore.Lipo>
101.9081

> <Gold.Chemscore.Internal_Hbond>
0.0000

> <Gold.Chemscore.DEClash>
0.1004

> <Gold.Chemscore.DEInternal>
0.9273

> <Gold.Chemscore.Rot>
1.5268

> <Gold.Chemscore.Internal.Correction>
   9.000000E+99

> <Gold.Chemscore.Hbonds>
donor molecule, donor type, donor heavy atom, donor atom, acceptor molecule, acceptor atom, score
      P1  H  6896  6907       L1     3  0.32
      P1  H  7989  7998       L1    14  0.48

> <Gold.Chemscore.Hbond.Weighted>
-6.0172

> <Gold.Chemscore.Metal.Weighted>
-0.0000

> <Gold.Chemscore.Lipo.Weighted>
-11.9232

> <Gold.Chemscore.Internal_Hbond.Weighted>
0.0000

> <Gold.Chemscore.DEClash.Weighted>
0.1004

> <Gold.Chemscore.DEInternal.Weighted>
0.9273

> <Gold.Chemscore.Rot.Weighted>
3.9086

> <Gold.Chemscore.Internal.Correction.Weighted>
   9.000000E+99

> <Gold.Protein.RotatedTorsions>
[ 6907 6896 6895 6894 ] final  -99.27 input  -60.11 | X-H torsion
[ 7974 7965 7964 7962 ] final  138.10 input  175.53 | X-H torsion
[ 8008 7997 7996 7995 ] final   59.52 input   59.86 | X-H torsion
[ 10167 10162 10161 10158 ] final -106.96 input  -65.29 | X-H torsion
[ 10718 10713 10712 10709 ] final  -74.71 input   66.30 | X-H torsion
[ 10763 10752 10751 10750 ] final  173.63 input  -60.55 | X-H torsion
[ 11005 11000 10999 10996 ] final  -18.37 input  -57.11 | X-H torsion

> <Gold.Protein.ActiveResidues>
 VAL166  LYS551  ARG553  GLY616  TRP617  ASP618  TYR619  PRO620  LYS621  CYS622 
 ASP623  PHE694  ASN695  SER759  ASP760  ASP761  ALA762  ILE779  LEU786  VAL792 
 PHE793  MET794  SER795  GLU796  ALA797  LYS798  CYS799  TRP800  GLU811  SER814 

> <Gold.Protein.RotatedAtoms>
  150.7074  134.1066  159.3984 H   0  0  0  0  0  0  0  0  0  0  0  0  # atno 6907 bound_to 6896
  151.9052  135.0359  160.0519 H   0  0  0  0  0  0  0  0  0  0  0  0  # atno 6908 bound_to 6896
  152.2381  133.5077  159.5291 H   0  0  0  0  0  0  0  0  0  0  0  0  # atno 6909 bound_to 6896
  144.9404  139.4937  143.5574 H   0  0  0  0  0  0  0  0  0  0  0  0  # atno 7974 bound_to 7965
  155.5676  140.3489  155.4507 H   0  0  0  0  0  0  0  0  0  0  0  0  # atno 8008 bound_to 7997
  156.0468  140.1308  157.0120 H   0  0  0  0  0  0  0  0  0  0  0  0  # atno 8009 bound_to 7997
  154.4416  140.1013  156.6303 H   0  0  0  0  0  0  0  0  0  0  0  0  # atno 8010 bound_to 7997
  140.1821  143.3959  152.1273 H   0  0  0  0  0  0  0  0  0  0  0  0  # atno 10167 bound_to 10162
  156.0233  130.4423  150.2933 H   0  0  0  0  0  0  0  0  0  0  0  0  # atno 10718 bound_to 10713
  154.4428  135.2762  155.1836 H   0  0  0  0  0  0  0  0  0  0  0  0  # atno 10763 bound_to 10752
  154.3695  135.6112  153.5736 H   0  0  0  0  0  0  0  0  0  0  0  0  # atno 10764 bound_to 10752
  152.9842  135.5854  154.4758 H   0  0  0  0  0  0  0  0  0  0  0  0  # atno 10765 bound_to 10752
  140.8261  133.8032  155.9709 H   0  0  0  0  0  0  0  0  0  0  0  0  # atno 11005 bound_to 11000
  146.3283  139.8419  142.8889 LP  0  0  0  0  0  0  0  0  0  0  0  0  # atno 17320 bound_to 7965
  145.3000  141.0191  143.3614 LP  0  0  0  0  0  0  0  0  0  0  0  0  # atno 17321 bound_to 7965
  139.5292  144.7139  151.5118 LP  0  0  0  0  0  0  0  0  0  0  0  0  # atno 17342 bound_to 10162
  140.6513  143.8691  150.6788 LP  0  0  0  0  0  0  0  0  0  0  0  0  # atno 17343 bound_to 10162
  157.1037  131.0202  151.3075 LP  0  0  0  0  0  0  0  0  0  0  0  0  # atno 17370 bound_to 10713
  157.4760  130.7737  149.7368 LP  0  0  0  0  0  0  0  0  0  0  0  0  # atno 17371 bound_to 10713
  140.9048  134.2334  157.5021 LP  0  0  0  0  0  0  0  0  0  0  0  0  # atno 17394 bound_to 11000
  139.8706  134.9723  156.4768 LP  0  0  0  0  0  0  0  0  0  0  0  0  # atno 17395 bound_to 11000

$$$$
