AV-unprocessed.smi:2786|AV-procd|sdf|10748|dock1
  -GOLD-   2272015183D 1   1.00000     0.00000
 Structure written by MMmdl.
 27 28  0  0  0  0  0  0  0  0  2 V2000
  152.3336  144.7327  158.3483 C   0  0  0  0  0  0  0  0  0  0  0  0
  152.5053  143.3709  158.8164 N   0  0  0  0  0  0  0  0  0  0  0  0
  153.3085  142.9716  159.8765 C   0  0  0  0  0  0  0  0  0  0  0  0
  153.1726  141.6088  159.9828 C   0  0  0  0  0  0  0  0  0  0  0  0
  152.2959  141.1559  159.0032 N   0  0  0  0  0  0  0  0  0  0  0  0
  151.9375  142.2486  158.3327 C   0  0  0  0  0  0  0  0  0  0  0  0
  150.9770  142.2469  157.1783 C   0  0  2  0  0  0  0  0  0  0  0  0
  149.5200  142.0680  157.6597 C   0  0  0  0  0  0  0  0  0  0  0  0
  148.5891  142.1130  156.5129 N   0  3  0  0  0  0  0  0  0  0  0  0
  148.9583  141.1182  155.4858 C   0  0  0  0  0  0  0  0  0  0  0  0
  150.4216  141.3272  155.0547 C   0  0  0  0  0  0  0  0  0  0  0  0
  151.2976  141.1936  156.2145 N   0  0  0  0  0  0  0  0  0  0  0  0
  152.8569  145.4258  159.0079 H   0  0  0  0  0  0  0  0  0  0  0  0
  151.2743  144.9906  158.3373 H   0  0  0  0  0  0  0  0  0  0  0  0
  152.7399  144.8303  157.3414 H   0  0  0  0  0  0  0  0  0  0  0  0
  153.8942  143.6717  160.4543 H   0  0  0  0  0  0  0  0  0  0  0  0
  153.6322  140.9260  160.6820 H   0  0  0  0  0  0  0  0  0  0  0  0
  151.0687  143.2023  156.6607 H   0  0  0  0  0  0  0  0  0  0  0  0
  149.3998  141.1209  158.1885 H   0  0  0  0  0  0  0  0  0  0  0  0
  149.2504  142.8601  158.3587 H   0  0  0  0  0  0  0  0  0  0  0  0
  147.6480  141.9355  156.8334 H   0  0  0  0  0  0  0  0  0  0  0  0
  148.8134  140.1122  155.8829 H   0  0  0  0  0  0  0  0  0  0  0  0
  148.2910  141.2243  154.6304 H   0  0  0  0  0  0  0  0  0  0  0  0
  150.7024  140.5773  154.3148 H   0  0  0  0  0  0  0  0  0  0  0  0
  150.5599  142.3040  154.5883 H   0  0  0  0  0  0  0  0  0  0  0  0
  151.1146  140.2986  156.6466 H   0  0  0  0  0  0  0  0  0  0  0  0
  148.6306  143.0334  156.0995 H   0  0  0  0  0  0  0  0  0  0  0  0
  1  2  1  0  0  0  0
  1 13  1  0  0  0  0
  1 14  1  0  0  0  0
  1 15  1  0  0  0  0
  2  6  1  0  0  0  0
  2  3  1  0  0  0  0
  3  4  2  0  0  0  0
  3 16  1  0  0  0  0
  4  5  1  0  0  0  0
  4 17  1  0  0  0  0
  5  6  2  0  0  0  0
  6  7  1  0  0  0  0
  7 12  1  0  0  0  0
  7  8  1  0  0  0  0
  7 18  1  0  0  0  0
  8  9  1  0  0  0  0
  8 19  1  0  0  0  0
  8 20  1  0  0  0  0
  9 10  1  0  0  0  0
  9 21  1  0  0  0  0
  9 27  1  0  0  0  0
 10 11  1  0  0  0  0
 10 22  1  0  0  0  0
 10 23  1  0  0  0  0
 11 12  1  0  0  0  0
 11 24  1  0  0  0  0
 11 25  1  0  0  0  0
 12 26  1  0  0  0  0
M  CHG  1   9   1
M  END
> <s_m_source_file>
AV-unprocessed.smi

> <i_m_source_file_index>
2786

> <i_lp_mmshare_version>
43012

> <i_f3d_flags>
0

> <s_epik_input>
W0NIM11uMVtjSF1bY0hdbmMxW0NAQEhdMltDSDJdW05IXVtDSDJdW0NIMl1bTkhdMg==

> <s_epik_cmdline>
J2VwaWtfcHl0aG9uJywgJy1waCcsICc3LjAnLCAnLXRuJywgJzgnLCAnLW1hJywgJzIwMCcsICctbWV0YWxfYmluZGluZycsICctaW1hZScsICc8aW5maWxlLm1hZT4nLCAnLW9tYWUnLCAnPG91dGZpbGUubWFlPic=

> <r_lp_tautomer_probability>
1

> <r_epik_Ionization_Penalty>
0.130484

> <r_epik_Ionization_Penalty_Charging>
0.130409

> <r_epik_Ionization_Penalty_Neutral>
7.57914e-05

> <r_epik_State_Penalty>
0.270147

> <r_epik_Charging_Adjusted_Penalty>
0.400555

> <i_epik_Tot_Q>
1

> <i_epik_Tot_abs_Q>
1

> <r_epik_Metal_State_Penalty>
0.136376

> <b_epik_Metal_Only>
0

> <s_lp_Force_Field>
OPLS_2005

> <r_lp_Energy>
9.37099

> <b_lp_Chiralities_Consistent>
1

> <s_lp_Variant>
AV-unprocessed.smi:2786-1

> <Gold.Version>
5.8.1

> <Gold.Id.Protein>
6NUR|6NUR_protein|mol2

> <Gold.PLP.Fitness>
33.5364

> <Gold.PLP.PLP>
-28.2447

> <Gold.PLP.part.hbond>
-1.0000

> <Gold.PLP.part.metal>
0.0000

> <Gold.PLP.part.buried>
-2.9719

> <Gold.PLP.part.nonpolar>
-24.0697

> <Gold.PLP.part.repulsive>
0.0036

> <Gold.PLP.ligand.clash>
0.0000

> <Gold.PLP.ligand.torsion>
0.3580

> <Gold.PLP.Chemscore.Hbond>
2.0000

> <Gold.PLP.Chemscore.CHOScore>
0.0000

> <Gold.PLP.Chemscore.Metal>
0.0000

> <Gold.Chemscore.Hbonds>
donor molecule, donor type, donor heavy atom, donor atom, acceptor molecule, acceptor atom, score
      L1  H     9    27       P1  8028  2.00

> <Gold.PLP.Chemscore.Internal.Correction>
0.0077

> <Gold.Rescore>
     Score         DG    S(hbond)    S(metal)    S(lipo)     H(rot)  DE(clash)    DE(int)     intcor
     13.47     -13.58       0.98        0.00      63.22       1.00       0.05       0.06       ----

> <Gold.Chemscore.Fitness>
13.4714

> <Gold.Chemscore.DG>
-13.5816

> <Gold.Chemscore.ZeroCoef>
-5.4800

> <Gold.Chemscore.Hbond>
0.9774

> <Gold.Chemscore.Metal>
0.0000

> <Gold.Chemscore.Lipo>
63.2238

> <Gold.Chemscore.Internal_Hbond>
0.0000

> <Gold.Chemscore.DEClash>
0.0495

> <Gold.Chemscore.DEInternal>
0.0607

> <Gold.Chemscore.Rot>
1.0000

> <Gold.Chemscore.Internal.Correction>
   9.000000E+99

> <Gold.Chemscore.Hbonds>
donor molecule, donor type, donor heavy atom, donor atom, acceptor molecule, acceptor atom, score
      L1  H     9    27       P1  8028  0.98

> <Gold.Chemscore.Hbond.Weighted>
-3.2644

> <Gold.Chemscore.Metal.Weighted>
-0.0000

> <Gold.Chemscore.Lipo.Weighted>
-7.3972

> <Gold.Chemscore.Internal_Hbond.Weighted>
0.0000

> <Gold.Chemscore.DEClash.Weighted>
0.0495

> <Gold.Chemscore.DEInternal.Weighted>
0.0607

> <Gold.Chemscore.Rot.Weighted>
2.5600

> <Gold.Chemscore.Internal.Correction.Weighted>
   9.000000E+99

> <Gold.Protein.RotatedTorsions>
[ 6907 6896 6895 6894 ] final  -45.00 input  -60.11 | X-H torsion
[ 7974 7965 7964 7962 ] final   34.53 input  175.53 | X-H torsion
[ 8008 7997 7996 7995 ] final  -16.60 input   59.86 | X-H torsion
[ 10167 10162 10161 10158 ] final   74.50 input  -65.29 | X-H torsion
[ 10718 10713 10712 10709 ] final -143.16 input   66.30 | X-H torsion
[ 10763 10752 10751 10750 ] final   36.57 input  -60.55 | X-H torsion
[ 11005 11000 10999 10996 ] final  129.44 input  -57.11 | X-H torsion

> <Gold.Protein.ActiveResidues>
 VAL166  LYS551  ARG553  GLY616  TRP617  ASP618  TYR619  PRO620  LYS621  CYS622 
 ASP623  PHE694  ASN695  SER759  ASP760  ASP761  ALA762  ILE779  LEU786  VAL792 
 PHE793  MET794  SER795  GLU796  ALA797  LYS798  CYS799  TRP800  GLU811  SER814 

> <Gold.Protein.RotatedAtoms>
  150.9267  134.8683  159.7524 H   0  0  0  0  0  0  0  0  0  0  0  0  # atno 6907 bound_to 6896
  152.5018  134.4139  159.9468 H   0  0  0  0  0  0  0  0  0  0  0  0  # atno 6908 bound_to 6896
  151.4169  133.3670  159.2786 H   0  0  0  0  0  0  0  0  0  0  0  0  # atno 6909 bound_to 6896
  146.1346  139.6257  142.9204 H   0  0  0  0  0  0  0  0  0  0  0  0  # atno 7974 bound_to 7965
  154.5041  140.2165  155.9287 H   0  0  0  0  0  0  0  0  0  0  0  0  # atno 8008 bound_to 7997
  156.1471  140.3168  155.8554 H   0  0  0  0  0  0  0  0  0  0  0  0  # atno 8009 bound_to 7997
  155.4010  140.0484  157.3027 H   0  0  0  0  0  0  0  0  0  0  0  0  # atno 8010 bound_to 7997
  140.0131  144.5599  150.7643 H   0  0  0  0  0  0  0  0  0  0  0  0  # atno 10167 bound_to 10162
  156.3546  130.7706  151.1864 H   0  0  0  0  0  0  0  0  0  0  0  0  # atno 10718 bound_to 10713
  153.0072  135.6302  154.2006 H   0  0  0  0  0  0  0  0  0  0  0  0  # atno 10763 bound_to 10752
  154.1749  135.2816  155.3071 H   0  0  0  0  0  0  0  0  0  0  0  0  # atno 10764 bound_to 10752
  154.5879  135.5627  153.7310 H   0  0  0  0  0  0  0  0  0  0  0  0  # atno 10765 bound_to 10752
  139.9615  134.9601  156.9148 H   0  0  0  0  0  0  0  0  0  0  0  0  # atno 11005 bound_to 11000
  145.5185  141.0433  143.2449 LP  0  0  0  0  0  0  0  0  0  0  0  0  # atno 17320 bound_to 7965
  144.7726  139.6701  143.7188 LP  0  0  0  0  0  0  0  0  0  0  0  0  # atno 17321 bound_to 7965
  140.7373  143.2764  151.3729 LP  0  0  0  0  0  0  0  0  0  0  0  0  # atno 17342 bound_to 10162
  139.6191  144.0942  152.2374 LP  0  0  0  0  0  0  0  0  0  0  0  0  # atno 17343 bound_to 10162
  157.7466  131.0417  150.4661 LP  0  0  0  0  0  0  0  0  0  0  0  0  # atno 17370 bound_to 10713
  156.4862  130.4085  149.6433 LP  0  0  0  0  0  0  0  0  0  0  0  0  # atno 17371 bound_to 10713
  140.5489  134.0646  155.7363 LP  0  0  0  0  0  0  0  0  0  0  0  0  # atno 17394 bound_to 11000
  141.1293  133.9330  157.2570 LP  0  0  0  0  0  0  0  0  0  0  0  0  # atno 17395 bound_to 11000

$$$$
