AV-unprocessed.smi:3299|AV-procd|sdf|12649|dock3
  -GOLD-   2272018583D 1   1.00000     0.00000
 Structure written by MMmdl.
 34 35  0  0  0  0  0  0  0  0  1 V2000
  153.7814  141.9296  160.7723 C   0  0  0  0  0  0  0  0  0  0  0  0
  152.7678  142.8495  160.1676 C   0  0  0  0  0  0  0  0  0  0  0  0
  152.4234  144.1034  160.6115 C   0  0  0  0  0  0  0  0  0  0  0  0
  151.1942  144.8352  159.6158 S   0  0  0  0  0  0  0  0  0  0  0  0
  151.1972  143.3795  158.6181 C   0  0  0  0  0  0  0  0  0  0  0  0
  150.4040  143.1191  157.4736 N   0  0  0  0  0  0  0  0  0  0  0  0
  150.4025  142.0166  156.7070 C   0  0  0  0  0  0  0  0  0  0  0  0
  151.1052  141.0233  156.8921 O   0  0  0  0  0  0  0  0  0  0  0  0
  149.5282  142.1347  155.6950 N   0  0  0  0  0  0  0  0  0  0  0  0
  149.2443  141.1447  154.6536 C   0  0  1  0  0  0  0  0  0  0  0  0
  149.0380  139.7275  155.2355 C   0  0  0  0  0  0  0  0  0  0  0  0
  149.8190  138.6275  154.4975 C   0  0  0  0  0  0  0  0  0  0  0  0
  149.6403  138.7663  153.1044 O   0  0  0  0  0  0  0  0  0  0  0  0
  148.1097  141.5288  153.7151 C   0  0  0  0  0  0  0  0  0  0  0  0
  146.6721  141.4811  154.1746 C   0  0  0  0  0  0  0  0  0  0  0  0
  147.1739  140.4873  153.1506 C   0  0  0  0  0  0  0  0  0  0  0  0
  152.0601  142.4487  159.0296 N   0  0  0  0  0  0  0  0  0  0  0  0
  154.3614  142.4297  161.5482 H   0  0  0  0  0  0  0  0  0  0  0  0
  154.4827  141.5660  160.0209 H   0  0  0  0  0  0  0  0  0  0  0  0
  153.3023  141.0619  161.2263 H   0  0  0  0  0  0  0  0  0  0  0  0
  152.8170  144.6398  161.4621 H   0  0  0  0  0  0  0  0  0  0  0  0
  149.7721  143.8589  157.2056 H   0  0  0  0  0  0  0  0  0  0  0  0
  149.0023  142.9947  155.6386 H   0  0  0  0  0  0  0  0  0  0  0  0
  150.1519  141.1092  154.0495 H   0  0  0  0  0  0  0  0  0  0  0  0
  149.3043  139.7144  156.2931 H   0  0  0  0  0  0  0  0  0  0  0  0
  147.9747  139.4864  155.1957 H   0  0  0  0  0  0  0  0  0  0  0  0
  150.8831  138.6910  154.7264 H   0  0  0  0  0  0  0  0  0  0  0  0
  149.4772  137.6359  154.7944 H   0  0  0  0  0  0  0  0  0  0  0  0
  149.4543  137.9151  152.7385 H   0  0  0  0  0  0  0  0  0  0  0  0
  148.3520  142.3545  153.0488 H   0  0  0  0  0  0  0  0  0  0  0  0
  146.4708  141.1095  155.1775 H   0  0  0  0  0  0  0  0  0  0  0  0
  146.0085  142.2705  153.8277 H   0  0  0  0  0  0  0  0  0  0  0  0
  146.8454  140.6147  152.1212 H   0  0  0  0  0  0  0  0  0  0  0  0
  147.3057  139.4566  153.4739 H   0  0  0  0  0  0  0  0  0  0  0  0
  1  2  1  0  0  0  0
  1 18  1  0  0  0  0
  1 19  1  0  0  0  0
  1 20  1  0  0  0  0
  2 17  1  0  0  0  0
  2  3  2  0  0  0  0
  3  4  1  0  0  0  0
  3 21  1  0  0  0  0
  4  5  1  0  0  0  0
  5  6  1  0  0  0  0
  5 17  2  0  0  0  0
  6  7  1  0  0  0  0
  6 22  1  0  0  0  0
  7  8  2  0  0  0  0
  7  9  1  0  0  0  0
  9 10  1  0  0  0  0
  9 23  1  0  0  0  0
 10 11  1  0  0  0  0
 10 14  1  0  0  0  0
 10 24  1  0  0  0  0
 11 12  1  0  0  0  0
 11 25  1  0  0  0  0
 11 26  1  0  0  0  0
 12 13  1  0  0  0  0
 12 27  1  0  0  0  0
 12 28  1  0  0  0  0
 13 29  1  0  0  0  0
 14 16  1  0  0  0  0
 14 15  1  0  0  0  0
 14 30  1  0  0  0  0
 15 16  1  0  0  0  0
 15 31  1  0  0  0  0
 15 32  1  0  0  0  0
 16 33  1  0  0  0  0
 16 34  1  0  0  0  0
M  END
> <s_m_source_file>
AV-unprocessed.smi

> <i_m_source_file_index>
3299

> <i_lp_mmshare_version>
43012

> <i_f3d_flags>
0

> <s_epik_input>
W0NIM11jMVtjSF1zYyhuMSlbTkhdQyg9TylbTkhdW0NASF0oW0NIMl1bQ0gyXVtPSF0pW0NIXTJbQ0gyXVtDSDJdMg==

> <s_epik_cmdline>
J2VwaWtfcHl0aG9uJywgJy1waCcsICc3LjAnLCAnLXRuJywgJzgnLCAnLW1hJywgJzIwMCcsICctbWV0YWxfYmluZGluZycsICctaW1hZScsICc8aW5maWxlLm1hZT4nLCAnLW9tYWUnLCAnPG91dGZpbGUubWFlPic=

> <r_lp_tautomer_probability>
0.999

> <r_epik_Ionization_Penalty>
0.000568872

> <r_epik_Ionization_Penalty_Charging>
0

> <r_epik_Ionization_Penalty_Neutral>
0.000568872

> <r_epik_State_Penalty>
0.000177984

> <r_epik_Charging_Adjusted_Penalty>
0.000177984

> <i_epik_Tot_Q>
0

> <i_epik_Tot_abs_Q>
0

> <r_epik_Metal_State_Penalty>
-0

> <b_epik_Metal_Only>
0

> <s_lp_Force_Field>
OPLS_2005

> <r_lp_Energy>
11.9184

> <b_lp_Chiralities_Consistent>
1

> <s_lp_Variant>
AV-unprocessed.smi:3299-2

> <Gold.Version>
5.8.1

> <Gold.Id.Protein>
6NUR|6NUR_protein|mol2

> <Gold.PLP.Fitness>
46.6800

> <Gold.PLP.PLP>
-39.1465

> <Gold.PLP.part.hbond>
-3.9640

> <Gold.PLP.part.metal>
0.0000

> <Gold.PLP.part.buried>
-5.3907

> <Gold.PLP.part.nonpolar>
-29.7589

> <Gold.PLP.part.repulsive>
0.1799

> <Gold.PLP.ligand.clash>
0.0000

> <Gold.PLP.ligand.torsion>
1.3184

> <Gold.PLP.Chemscore.Hbond>
3.0000

> <Gold.PLP.Chemscore.CHOScore>
0.0000

> <Gold.PLP.Chemscore.Metal>
0.0000

> <Gold.Chemscore.Hbonds>
donor molecule, donor type, donor heavy atom, donor atom, acceptor molecule, acceptor atom, score
      L1  H     6    22       P1  8028  0.90
      L1  H     9    23       P1  8028  1.00
      L1  H    13    29       P1  7948  1.00

> <Gold.PLP.Chemscore.Internal.Correction>
1.1704

> <Gold.Rescore>
     Score         DG    S(hbond)    S(metal)    S(lipo)     H(rot)  DE(clash)    DE(int)     intcor
     15.25     -19.29       2.95        0.00      86.14       2.39       0.06       3.97       ----

> <Gold.Chemscore.Fitness>
15.2547

> <Gold.Chemscore.DG>
-19.2925

> <Gold.Chemscore.ZeroCoef>
-5.4800

> <Gold.Chemscore.Hbond>
2.9512

> <Gold.Chemscore.Metal>
0.0000

> <Gold.Chemscore.Lipo>
86.1394

> <Gold.Chemscore.Internal_Hbond>
0.0000

> <Gold.Chemscore.DEClash>
0.0647

> <Gold.Chemscore.DEInternal>
3.9731

> <Gold.Chemscore.Rot>
2.3917

> <Gold.Chemscore.Internal.Correction>
   9.000000E+99

> <Gold.Chemscore.Hbonds>
donor molecule, donor type, donor heavy atom, donor atom, acceptor molecule, acceptor atom, score
      L1  H     6    22       P1  8028  0.71
      L1  H     9    23       P1  8028  0.97
      L1  H    13    29       P1  7948  0.82

> <Gold.Chemscore.Hbond.Weighted>
-9.8570

> <Gold.Chemscore.Metal.Weighted>
-0.0000

> <Gold.Chemscore.Lipo.Weighted>
-10.0783

> <Gold.Chemscore.Internal_Hbond.Weighted>
0.0000

> <Gold.Chemscore.DEClash.Weighted>
0.0647

> <Gold.Chemscore.DEInternal.Weighted>
3.9731

> <Gold.Chemscore.Rot.Weighted>
6.1228

> <Gold.Chemscore.Internal.Correction.Weighted>
   9.000000E+99

> <Gold.Protein.RotatedTorsions>
[ 6907 6896 6895 6894 ] final   35.05 input  -60.11 | X-H torsion
[ 7974 7965 7964 7962 ] final   46.26 input  175.53 | X-H torsion
[ 8008 7997 7996 7995 ] final  141.67 input   59.86 | X-H torsion
[ 10167 10162 10161 10158 ] final -138.54 input  -65.29 | X-H torsion
[ 10718 10713 10712 10709 ] final  -15.17 input   66.30 | X-H torsion
[ 10763 10752 10751 10750 ] final -105.76 input  -60.55 | X-H torsion
[ 11005 11000 10999 10996 ] final -133.57 input  -57.11 | X-H torsion

> <Gold.Protein.ActiveResidues>
 VAL166  LYS551  ARG553  GLY616  TRP617  ASP618  TYR619  PRO620  LYS621  CYS622 
 ASP623  PHE694  ASN695  SER759  ASP760  ASP761  ALA762  ILE779  LEU786  VAL792 
 PHE793  MET794  SER795  GLU796  ALA797  LYS798  CYS799  TRP800  GLU811  SER814 

> <Gold.Protein.RotatedAtoms>
  152.1109  134.9275  160.0566 H   0  0  0  0  0  0  0  0  0  0  0  0  # atno 6907 bound_to 6896
  152.0453  133.3990  159.4362 H   0  0  0  0  0  0  0  0  0  0  0  0  # atno 6908 bound_to 6896
  150.6843  134.3289  159.4862 H   0  0  0  0  0  0  0  0  0  0  0  0  # atno 6909 bound_to 6896
  146.0405  139.4875  142.9781 H   0  0  0  0  0  0  0  0  0  0  0  0  # atno 7974 bound_to 7965
  156.2962  140.2309  156.4603 H   0  0  0  0  0  0  0  0  0  0  0  0  # atno 8008 bound_to 7997
  154.8024  140.0447  157.1303 H   0  0  0  0  0  0  0  0  0  0  0  0  # atno 8009 bound_to 7997
  154.9518  140.3043  155.5075 H   0  0  0  0  0  0  0  0  0  0  0  0  # atno 8010 bound_to 7997
  139.8468  143.7250  152.2660 H   0  0  0  0  0  0  0  0  0  0  0  0  # atno 10167 bound_to 10162
  156.6056  130.4836  149.6222 H   0  0  0  0  0  0  0  0  0  0  0  0  # atno 10718 bound_to 10713
  154.7967  135.4737  154.0179 H   0  0  0  0  0  0  0  0  0  0  0  0  # atno 10763 bound_to 10752
  153.1716  135.6826  153.8607 H   0  0  0  0  0  0  0  0  0  0  0  0  # atno 10764 bound_to 10752
  153.8188  135.3207  155.3386 H   0  0  0  0  0  0  0  0  0  0  0  0  # atno 10765 bound_to 10752
  140.9069  134.1619  157.4419 H   0  0  0  0  0  0  0  0  0  0  0  0  # atno 11005 bound_to 11000
  145.6892  141.0169  143.1565 LP  0  0  0  0  0  0  0  0  0  0  0  0  # atno 17320 bound_to 7965
  144.7072  139.8512  143.7426 LP  0  0  0  0  0  0  0  0  0  0  0  0  # atno 17321 bound_to 7965
  139.7504  144.7535  151.0515 LP  0  0  0  0  0  0  0  0  0  0  0  0  # atno 17342 bound_to 10162
  140.7792  143.4867  150.9947 LP  0  0  0  0  0  0  0  0  0  0  0  0  # atno 17343 bound_to 10162
  156.2433  130.6864  151.1576 LP  0  0  0  0  0  0  0  0  0  0  0  0  # atno 17370 bound_to 10713
  157.7268  131.0644  150.5893 LP  0  0  0  0  0  0  0  0  0  0  0  0  # atno 17371 bound_to 10713
  139.8751  134.9920  156.5577 LP  0  0  0  0  0  0  0  0  0  0  0  0  # atno 17394 bound_to 11000
  140.8160  133.8391  155.8852 LP  0  0  0  0  0  0  0  0  0  0  0  0  # atno 17395 bound_to 11000

$$$$
