AV-unprocessed.smi:3038|AV-procd|sdf|11588|dock2
  -GOLD-   2272016563D 1   1.00000     0.00000
 Structure written by MMmdl.
 37 39  0  0  0  0  0  0  0  0  2 V2000
  147.6560  140.0730  155.8460 O   0  0  0  0  0  0  0  0  0  0  0  0
  148.2110  140.4339  154.8087 C   0  0  0  0  0  0  0  0  0  0  0  0
  149.3094  141.4977  154.8594 C   0  0  0  0  0  0  0  0  0  0  0  0
  150.4086  141.0782  155.7090 N   0  0  0  0  0  0  0  0  0  0  0  0
  150.7003  141.3753  156.9770 C   0  0  0  0  0  0  0  0  0  0  0  0
  151.8193  140.7870  157.3711 N   0  0  0  0  0  0  0  0  0  0  0  0
  152.2195  140.0848  156.2465 N   0  0  0  0  0  0  0  0  0  0  0  0
  151.3867  140.2540  155.2567 N   0  0  0  0  0  0  0  0  0  0  0  0
  147.9110  139.9364  153.5982 N   0  0  0  0  0  0  0  0  0  0  0  0
  146.8849  138.9346  153.3284 C   0  0  2  0  0  0  0  0  0  0  0  0
  147.2131  137.6091  154.0403 C   0  0  0  0  0  0  0  0  0  0  0  0
  146.1956  136.5155  153.6741 C   0  0  0  0  0  0  0  0  0  0  0  0
  146.1238  136.3220  152.2044 N   0  3  1  0  0  0  0  0  0  0  0  0
  145.2322  135.2017  151.8330 C   0  0  0  0  0  0  0  0  0  0  0  0
  145.8449  134.2401  150.8417 C   0  0  0  0  0  0  0  0  0  0  0  0
  144.7926  135.2269  150.3875 C   0  0  0  0  0  0  0  0  0  0  0  0
  145.7652  137.5791  151.5014 C   0  0  0  0  0  0  0  0  0  0  0  0
  146.7772  138.6940  151.8137 C   0  0  0  0  0  0  0  0  0  0  0  0
  149.6955  141.6871  153.8567 H   0  0  0  0  0  0  0  0  0  0  0  0
  148.9007  142.4385  155.2309 H   0  0  0  0  0  0  0  0  0  0  0  0
  150.1016  142.0206  157.6028 H   0  0  0  0  0  0  0  0  0  0  0  0
  148.4217  140.2938  152.8031 H   0  0  0  0  0  0  0  0  0  0  0  0
  145.9204  139.3016  153.6850 H   0  0  0  0  0  0  0  0  0  0  0  0
  148.2154  137.2779  153.7639 H   0  0  0  0  0  0  0  0  0  0  0  0
  147.2220  137.7538  155.1213 H   0  0  0  0  0  0  0  0  0  0  0  0
  146.4809  135.5780  154.1531 H   0  0  0  0  0  0  0  0  0  0  0  0
  145.2077  136.7779  154.0565 H   0  0  0  0  0  0  0  0  0  0  0  0
  144.5575  134.8419  152.6082 H   0  0  0  0  0  0  0  0  0  0  0  0
  146.8693  134.4148  150.5170 H   0  0  0  0  0  0  0  0  0  0  0  0
  145.5509  133.1947  150.9095 H   0  0  0  0  0  0  0  0  0  0  0  0
  143.8054  134.8314  150.1568 H   0  0  0  0  0  0  0  0  0  0  0  0
  145.1185  136.0570  149.7630 H   0  0  0  0  0  0  0  0  0  0  0  0
  145.7394  137.4025  150.4255 H   0  0  0  0  0  0  0  0  0  0  0  0
  144.7612  137.8891  151.7953 H   0  0  0  0  0  0  0  0  0  0  0  0
  146.4808  139.6138  151.3082 H   0  0  0  0  0  0  0  0  0  0  0  0
  147.7532  138.4199  151.4098 H   0  0  0  0  0  0  0  0  0  0  0  0
  147.0517  136.0682  151.8966 H   0  0  0  0  0  0  0  0  0  0  0  0
  1  2  2  0  0  0  0
  2  3  1  0  0  0  0
  2  9  1  0  0  0  0
  3  4  1  0  0  0  0
  3 19  1  0  0  0  0
  3 20  1  0  0  0  0
  4  8  1  0  0  0  0
  4  5  1  0  0  0  0
  5  6  2  0  0  0  0
  5 21  1  0  0  0  0
  6  7  1  0  0  0  0
  7  8  2  0  0  0  0
  9 10  1  0  0  0  0
  9 22  1  0  0  0  0
 10 18  1  0  0  0  0
 10 11  1  0  0  0  0
 10 23  1  0  0  0  0
 11 12  1  0  0  0  0
 11 24  1  0  0  0  0
 11 25  1  0  0  0  0
 12 13  1  0  0  0  0
 12 26  1  0  0  0  0
 12 27  1  0  0  0  0
 13 14  1  0  0  0  0
 13 17  1  0  0  0  0
 13 37  1  0  0  0  0
 14 16  1  0  0  0  0
 14 15  1  0  0  0  0
 14 28  1  0  0  0  0
 15 16  1  0  0  0  0
 15 29  1  0  0  0  0
 15 30  1  0  0  0  0
 16 31  1  0  0  0  0
 16 32  1  0  0  0  0
 17 18  1  0  0  0  0
 17 33  1  0  0  0  0
 17 34  1  0  0  0  0
 18 35  1  0  0  0  0
 18 36  1  0  0  0  0
M  CHG  1  13   1
M  END
> <s_m_source_file>
AV-unprocessed.smi

> <i_m_source_file_index>
3038

> <i_lp_mmshare_version>
43012

> <i_f3d_flags>
0

> <s_epik_input>
bjFubltjSF1uMVtDSDJdQyg9TylbTkhdW0NIXTJbQ0gyXVtDSDJdTihbQ0gyXVtDSDJdMilbQ0hdM1tDSDJdW0NIMl0z

> <s_epik_cmdline>
J2VwaWtfcHl0aG9uJywgJy1waCcsICc3LjAnLCAnLXRuJywgJzgnLCAnLW1hJywgJzIwMCcsICctbWV0YWxfYmluZGluZycsICctaW1hZScsICc8aW5maWxlLm1hZT4nLCAnLW9tYWUnLCAnPG91dGZpbGUubWFlPic=

> <r_lp_tautomer_probability>
1

> <r_epik_Ionization_Penalty>
0.284275

> <r_epik_Ionization_Penalty_Charging>
0.284273

> <r_epik_Ionization_Penalty_Neutral>
2.31262e-06

> <r_epik_State_Penalty>
0.277002

> <r_epik_Charging_Adjusted_Penalty>
0.561274

> <i_epik_Tot_Q>
1

> <i_epik_Tot_abs_Q>
1

> <r_epik_Metal_State_Penalty>
0.277002

> <b_epik_Metal_Only>
0

> <s_lp_Force_Field>
OPLS_2005

> <r_lp_Energy>
27.0237

> <b_lp_Chiralities_Consistent>
1

> <s_lp_Variant>
AV-unprocessed.smi:3038-1

> <Gold.Version>
5.8.1

> <Gold.Id.Protein>
6NUR|6NUR_protein|mol2

> <Gold.PLP.Fitness>
42.1117

> <Gold.PLP.PLP>
-28.1647

> <Gold.PLP.part.hbond>
-4.0000

> <Gold.PLP.part.metal>
0.0000

> <Gold.PLP.part.buried>
4.2507

> <Gold.PLP.part.nonpolar>
-27.2628

> <Gold.PLP.part.repulsive>
0.1459

> <Gold.PLP.ligand.clash>
0.0000

> <Gold.PLP.ligand.torsion>
1.1699

> <Gold.PLP.Chemscore.Hbond>
5.0000

> <Gold.PLP.Chemscore.CHOScore>
0.0000

> <Gold.PLP.Chemscore.Metal>
0.0000

> <Gold.Chemscore.Hbonds>
donor molecule, donor type, donor heavy atom, donor atom, acceptor molecule, acceptor atom, score
      L1  H     9    22       P1  7957  0.99
      L1  H    13    37       P1  7948  2.00
      P1  H  7989  7998       L1     8  1.00
      P1  H  7997  8010       L1     7  0.80

> <Gold.PLP.Chemscore.Internal.Correction>
1.2867

> <Gold.Rescore>
     Score         DG    S(hbond)    S(metal)    S(lipo)     H(rot)  DE(clash)    DE(int)     intcor
     12.93     -15.70       2.92        0.00      53.30       2.25       1.58       1.18       ----

> <Gold.Chemscore.Fitness>
12.9342

> <Gold.Chemscore.DG>
-15.6962

> <Gold.Chemscore.ZeroCoef>
-5.4800

> <Gold.Chemscore.Hbond>
2.9183

> <Gold.Chemscore.Metal>
0.0000

> <Gold.Chemscore.Lipo>
53.3030

> <Gold.Chemscore.Internal_Hbond>
0.0000

> <Gold.Chemscore.DEClash>
1.5850

> <Gold.Chemscore.DEInternal>
1.1771

> <Gold.Chemscore.Rot>
2.2528

> <Gold.Chemscore.Internal.Correction>
   9.000000E+99

> <Gold.Chemscore.Hbonds>
donor molecule, donor type, donor heavy atom, donor atom, acceptor molecule, acceptor atom, score
      L1  H     9    22       P1  7957  0.89
      L1  H    13    37       P1  7948  0.98
      P1  H  7989  7998       L1     8  0.33
      P1  H  7997  8010       L1     7  0.39

> <Gold.Chemscore.Hbond.Weighted>
-9.7470

> <Gold.Chemscore.Metal.Weighted>
-0.0000

> <Gold.Chemscore.Lipo.Weighted>
-6.2364

> <Gold.Chemscore.Internal_Hbond.Weighted>
0.0000

> <Gold.Chemscore.DEClash.Weighted>
1.5850

> <Gold.Chemscore.DEInternal.Weighted>
1.1771

> <Gold.Chemscore.Rot.Weighted>
5.7672

> <Gold.Chemscore.Internal.Correction.Weighted>
   9.000000E+99

> <Gold.Protein.RotatedTorsions>
[ 6907 6896 6895 6894 ] final  -13.80 input  -60.11 | X-H torsion
[ 7974 7965 7964 7962 ] final -179.38 input  175.53 | X-H torsion
[ 8008 7997 7996 7995 ] final   80.49 input   59.86 | X-H torsion
[ 10167 10162 10161 10158 ] final -118.50 input  -65.29 | X-H torsion
[ 10718 10713 10712 10709 ] final -172.99 input   66.30 | X-H torsion
[ 10763 10752 10751 10750 ] final  119.03 input  -60.55 | X-H torsion
[ 11005 11000 10999 10996 ] final   42.12 input  -57.11 | X-H torsion

> <Gold.Protein.ActiveResidues>
 VAL166  LYS551  ARG553  GLY616  TRP617  ASP618  TYR619  PRO620  LYS621  CYS622 
 ASP623  PHE694  ASN695  SER759  ASP760  ASP761  ALA762  ILE779  LEU786  VAL792 
 PHE793  MET794  SER795  GLU796  ALA797  LYS798  CYS799  TRP800  GLU811  SER814 

> <Gold.Protein.RotatedAtoms>
  151.3492  135.0881  159.9397 H   0  0  0  0  0  0  0  0  0  0  0  0  # atno 6907 bound_to 6896
  152.5191  133.9369  159.7618 H   0  0  0  0  0  0  0  0  0  0  0  0  # atno 6908 bound_to 6896
  150.9741  133.6259  159.2762 H   0  0  0  0  0  0  0  0  0  0  0  0  # atno 6909 bound_to 6896
  144.7136  140.0726  143.6429 H   0  0  0  0  0  0  0  0  0  0  0  0  # atno 7974 bound_to 7965
  155.8843  140.3442  155.5910 H   0  0  0  0  0  0  0  0  0  0  0  0  # atno 8008 bound_to 7997
  155.7684  140.0842  157.2139 H   0  0  0  0  0  0  0  0  0  0  0  0  # atno 8009 bound_to 7997
  154.4027  140.1523  156.2901 H   0  0  0  0  0  0  0  0  0  0  0  0  # atno 8010 bound_to 7997
  140.0568  143.5006  152.2053 H   0  0  0  0  0  0  0  0  0  0  0  0  # atno 10167 bound_to 10162
  156.7638  130.9423  151.3118 H   0  0  0  0  0  0  0  0  0  0  0  0  # atno 10718 bound_to 10713
  153.5768  135.3491  155.2859 H   0  0  0  0  0  0  0  0  0  0  0  0  # atno 10763 bound_to 10752
  154.8674  135.4172  154.2665 H   0  0  0  0  0  0  0  0  0  0  0  0  # atno 10764 bound_to 10752
  153.3442  135.7051  153.6912 H   0  0  0  0  0  0  0  0  0  0  0  0  # atno 10765 bound_to 10752
  140.1769  134.4152  155.8223 H   0  0  0  0  0  0  0  0  0  0  0  0  # atno 11005 bound_to 11000
  145.9770  139.2912  143.1064 LP  0  0  0  0  0  0  0  0  0  0  0  0  # atno 17320 bound_to 7965
  145.9053  140.9216  143.0482 LP  0  0  0  0  0  0  0  0  0  0  0  0  # atno 17321 bound_to 7965
  139.5918  144.7553  151.3381 LP  0  0  0  0  0  0  0  0  0  0  0  0  # atno 17342 bound_to 10162
  140.7191  143.7186  150.7714 LP  0  0  0  0  0  0  0  0  0  0  0  0  # atno 17343 bound_to 10162
  157.6723  130.9062  150.0068 LP  0  0  0  0  0  0  0  0  0  0  0  0  # atno 17370 bound_to 10713
  156.1322  130.3643  149.9713 LP  0  0  0  0  0  0  0  0  0  0  0  0  # atno 17371 bound_to 10713
  141.2221  133.6982  156.7862 LP  0  0  0  0  0  0  0  0  0  0  0  0  # atno 17394 bound_to 11000
  140.2312  134.8684  157.3478 LP  0  0  0  0  0  0  0  0  0  0  0  0  # atno 17395 bound_to 11000

$$$$
