AV-unprocessed.smi:285|AV-procd|sdf|2171|dock9
  -GOLD-   2262021533D 1   1.00000     0.00000
 Structure written by MMmdl.
 31 33  0  0  0  0  0  0  0  0  1 V2000
  153.8426  141.3602  160.6287 N   0  0  0  0  0  0  0  0  0  0  0  0
  152.8870  141.9194  159.8730 C   0  0  0  0  0  0  0  0  0  0  0  0
  152.3278  143.0770  160.2962 N   0  0  0  0  0  0  0  0  0  0  0  0
  151.3739  143.6565  159.5602 C   0  0  0  0  0  0  0  0  0  0  0  0
  150.8510  143.2508  158.3999 N   0  0  0  0  0  0  0  0  0  0  0  0
  151.4141  142.0820  157.9734 C   0  0  0  0  0  0  0  0  0  0  0  0
  152.4366  141.3560  158.6524 C   0  0  0  0  0  0  0  0  0  0  0  0
  152.7742  140.2160  157.9338 N   0  0  0  0  0  0  0  0  0  0  0  0
  151.9870  140.2869  156.8969 C   0  0  0  0  0  0  0  0  0  0  0  0
  152.0516  138.9458  155.5459 Br  0  0  0  0  0  0  0  0  0  0  0  0
  151.1341  141.3653  156.8266 N   0  0  0  0  0  0  0  0  0  0  0  0
  150.1324  141.7058  155.7709 C   0  0  2  0  0  0  0  0  0  0  0  0
  148.7102  141.5864  156.2968 C   0  0  0  0  0  0  0  0  0  0  0  0
  147.9710  141.4009  154.9900 C   0  0  2  0  0  0  0  0  0  0  0  0
  146.6923  140.8336  155.1946 O   0  0  0  0  0  0  0  0  0  0  0  0
  148.9511  140.5384  154.1644 C   0  0  2  0  0  0  0  0  0  0  0  0
  148.7227  139.0147  154.2227 C   0  0  0  0  0  0  0  0  0  0  0  0
  149.7445  138.3275  153.5301 O   0  0  0  0  0  0  0  0  0  0  0  0
  150.2421  140.7906  154.7273 O   0  0  0  0  0  0  0  0  0  0  0  0
  154.2761  140.4967  160.3343 H   0  0  0  0  0  0  0  0  0  0  0  0
  154.1276  141.8028  161.4904 H   0  0  0  0  0  0  0  0  0  0  0  0
  150.9719  144.5770  159.9571 H   0  0  0  0  0  0  0  0  0  0  0  0
  150.3817  142.7063  155.4182 H   0  0  0  0  0  0  0  0  0  0  0  0
  148.6191  140.7044  156.9328 H   0  0  0  0  0  0  0  0  0  0  0  0
  148.4147  142.4739  156.8568 H   0  0  0  0  0  0  0  0  0  0  0  0
  147.8509  142.3713  154.5063 H   0  0  0  0  0  0  0  0  0  0  0  0
  146.7502  139.9022  155.0429 H   0  0  0  0  0  0  0  0  0  0  0  0
  148.9603  140.8678  153.1246 H   0  0  0  0  0  0  0  0  0  0  0  0
  148.7465  138.6763  155.2588 H   0  0  0  0  0  0  0  0  0  0  0  0
  147.7460  138.7421  153.8216 H   0  0  0  0  0  0  0  0  0  0  0  0
  149.3445  137.7839  152.8686 H   0  0  0  0  0  0  0  0  0  0  0  0
  1  2  1  0  0  0  0
  1 20  1  0  0  0  0
  1 21  1  0  0  0  0
  2  7  1  0  0  0  0
  2  3  2  0  0  0  0
  3  4  1  0  0  0  0
  4  5  2  0  0  0  0
  4 22  1  0  0  0  0
  5  6  1  0  0  0  0
  6 11  1  0  0  0  0
  6  7  2  0  0  0  0
  7  8  1  0  0  0  0
  8  9  2  0  0  0  0
  9 10  1  0  0  0  0
  9 11  1  0  0  0  0
 11 12  1  0  0  0  0
 12 19  1  0  0  0  0
 12 13  1  0  0  0  0
 12 23  1  0  0  0  0
 13 14  1  0  0  0  0
 13 24  1  0  0  0  0
 13 25  1  0  0  0  0
 14 15  1  0  0  0  0
 14 16  1  0  0  0  0
 14 26  1  0  0  0  0
 15 27  1  0  0  0  0
 16 17  1  0  0  0  0
 16 19  1  0  0  0  0
 16 28  1  0  0  0  0
 17 18  1  0  0  0  0
 17 29  1  0  0  0  0
 17 30  1  0  0  0  0
 18 31  1  0  0  0  0
M  END
> <s_m_source_file>
AV-unprocessed.smi

> <i_m_source_file_index>
285

> <i_lp_mmshare_version>
43012

> <i_f3d_flags>
0

> <s_epik_input>
bjFbY0hdbmMoW05IMl0pYyhjMTIpbmMoQnIpbjJbQ0BASF0zW0NIMl1bQ0BASF0oW09IXSlbQ0BIXShPMylbQ0gyXVtPSF0=

> <s_epik_cmdline>
J2VwaWtfcHl0aG9uJywgJy1waCcsICc3LjAnLCAnLXRuJywgJzgnLCAnLW1hJywgJzIwMCcsICctbWV0YWxfYmluZGluZycsICctaW1hZScsICc8aW5maWxlLm1hZT4nLCAnLW9tYWUnLCAnPG91dGZpbGUubWFlPic=

> <r_lp_tautomer_probability>
1

> <r_epik_Ionization_Penalty>
0.000103242

> <r_epik_Ionization_Penalty_Charging>
0

> <r_epik_Ionization_Penalty_Neutral>
0.000103242

> <r_epik_State_Penalty>
-0

> <r_epik_Charging_Adjusted_Penalty>
0

> <i_epik_Tot_Q>
0

> <i_epik_Tot_abs_Q>
0

> <r_epik_Metal_State_Penalty>
-0

> <b_epik_Metal_Only>
0

> <s_epik_Chemistry_Notes>
This compound contains an acetal/aminal-like group ( X-CH(R)-Y where X, Y are N, S, or O) that may be acid/base labile, releasing an aldehyde.

> <s_lp_Force_Field>
OPLS_2005

> <r_lp_Energy>
36.2712

> <b_lp_Chiralities_Consistent>
1

> <s_lp_Variant>
AV-unprocessed.smi:285-7

> <Gold.Version>
5.8.1

> <Gold.Id.Protein>
6NUR|6NUR_protein|mol2

> <Gold.PLP.Fitness>
41.5021

> <Gold.PLP.PLP>
-33.3297

> <Gold.PLP.part.hbond>
-4.0000

> <Gold.PLP.part.metal>
0.0000

> <Gold.PLP.part.buried>
-3.6506

> <Gold.PLP.part.nonpolar>
-25.2590

> <Gold.PLP.part.repulsive>
0.2590

> <Gold.PLP.ligand.clash>
0.0000

> <Gold.PLP.ligand.torsion>
0.0953

> <Gold.PLP.Chemscore.Hbond>
2.7840

> <Gold.PLP.Chemscore.CHOScore>
0.0000

> <Gold.PLP.Chemscore.Metal>
0.0000

> <Gold.Chemscore.Hbonds>
donor molecule, donor type, donor heavy atom, donor atom, acceptor molecule, acceptor atom, score
      L1  H    18    31       P1  7948  1.00
      P1  H  7989  7998       L1    19  0.80
      P1  H  7997  8008       L1     8  0.91

> <Gold.PLP.Chemscore.Internal.Correction>
0.0110

> <Gold.Rescore>
     Score         DG    S(hbond)    S(metal)    S(lipo)     H(rot)  DE(clash)    DE(int)     intcor
      7.98      -9.57       2.20        0.00      39.04       3.06       0.07       1.53       ----

> <Gold.Chemscore.Fitness>
7.9777

> <Gold.Chemscore.DG>
-9.5713

> <Gold.Chemscore.ZeroCoef>
-5.4800

> <Gold.Chemscore.Hbond>
2.2033

> <Gold.Chemscore.Metal>
0.0000

> <Gold.Chemscore.Lipo>
39.0395

> <Gold.Chemscore.Internal_Hbond>
0.0000

> <Gold.Chemscore.DEClash>
0.0678

> <Gold.Chemscore.DEInternal>
1.5257

> <Gold.Chemscore.Rot>
3.0607

> <Gold.Chemscore.Internal.Correction>
   9.000000E+99

> <Gold.Chemscore.Hbonds>
donor molecule, donor type, donor heavy atom, donor atom, acceptor molecule, acceptor atom, score
      L1  H    18    31       P1  7948  0.92
      P1  H  7989  7998       L1    19  0.71
      P1  H  7997  8008       L1     8  0.18

> <Gold.Chemscore.Hbond.Weighted>
-7.3590

> <Gold.Chemscore.Metal.Weighted>
-0.0000

> <Gold.Chemscore.Lipo.Weighted>
-4.5676

> <Gold.Chemscore.Internal_Hbond.Weighted>
0.0000

> <Gold.Chemscore.DEClash.Weighted>
0.0678

> <Gold.Chemscore.DEInternal.Weighted>
1.5257

> <Gold.Chemscore.Rot.Weighted>
7.8354

> <Gold.Chemscore.Internal.Correction.Weighted>
   9.000000E+99

> <Gold.Protein.RotatedTorsions>
[ 6907 6896 6895 6894 ] final  -96.78 input  -60.11 | X-H torsion
[ 7974 7965 7964 7962 ] final   52.81 input  175.53 | X-H torsion
[ 8008 7997 7996 7995 ] final  -81.10 input   59.86 | X-H torsion
[ 10167 10162 10161 10158 ] final   40.87 input  -65.29 | X-H torsion
[ 10718 10713 10712 10709 ] final  -91.91 input   66.30 | X-H torsion
[ 10763 10752 10751 10750 ] final   86.49 input  -60.55 | X-H torsion
[ 11005 11000 10999 10996 ] final  104.44 input  -57.11 | X-H torsion

> <Gold.Protein.ActiveResidues>
 VAL166  LYS551  ARG553  GLY616  TRP617  ASP618  TYR619  PRO620  LYS621  CYS622 
 ASP623  PHE694  ASN695  SER759  ASP760  ASP761  ALA762  ILE779  LEU786  VAL792 
 PHE793  MET794  SER795  GLU796  ALA797  LYS798  CYS799  TRP800  GLU811  SER814 

> <Gold.Protein.RotatedAtoms>
  150.6998  134.1451  159.4119 H   0  0  0  0  0  0  0  0  0  0  0  0  # atno 6907 bound_to 6896
  151.9434  135.0200  160.0546 H   0  0  0  0  0  0  0  0  0  0  0  0  # atno 6908 bound_to 6896
  152.2073  133.4850  159.5128 H   0  0  0  0  0  0  0  0  0  0  0  0  # atno 6909 bound_to 6896
  145.9775  139.4209  143.0152 H   0  0  0  0  0  0  0  0  0  0  0  0  # atno 7974 bound_to 7965
  154.5949  140.0653  156.9290 H   0  0  0  0  0  0  0  0  0  0  0  0  # atno 8008 bound_to 7997
  155.2231  140.3331  155.4294 H   0  0  0  0  0  0  0  0  0  0  0  0  # atno 8009 bound_to 7997
  156.2280  140.1828  156.7298 H   0  0  0  0  0  0  0  0  0  0  0  0  # atno 8010 bound_to 7997
  140.3699  144.2119  150.6133 H   0  0  0  0  0  0  0  0  0  0  0  0  # atno 10167 bound_to 10162
  155.9997  130.4966  150.5546 H   0  0  0  0  0  0  0  0  0  0  0  0  # atno 10718 bound_to 10713
  153.1575  135.4578  154.9725 H   0  0  0  0  0  0  0  0  0  0  0  0  # atno 10763 bound_to 10752
  154.7873  135.3208  154.7860 H   0  0  0  0  0  0  0  0  0  0  0  0  # atno 10764 bound_to 10752
  153.8355  135.6935  153.4863 H   0  0  0  0  0  0  0  0  0  0  0  0  # atno 10765 bound_to 10752
  139.8792  134.9300  156.5362 H   0  0  0  0  0  0  0  0  0  0  0  0  # atno 11005 bound_to 11000
  145.7817  140.9853  143.1095 LP  0  0  0  0  0  0  0  0  0  0  0  0  # atno 17320 bound_to 7965
  144.6852  139.9573  143.7479 LP  0  0  0  0  0  0  0  0  0  0  0  0  # atno 17321 bound_to 7965
  140.5044  143.2308  151.8631 LP  0  0  0  0  0  0  0  0  0  0  0  0  # atno 17342 bound_to 10162
  139.4805  144.5023  151.9044 LP  0  0  0  0  0  0  0  0  0  0  0  0  # atno 17343 bound_to 10162
  157.3464  131.0726  151.1748 LP  0  0  0  0  0  0  0  0  0  0  0  0  # atno 17370 bound_to 10713
  157.2579  130.6645  149.5961 LP  0  0  0  0  0  0  0  0  0  0  0  0  # atno 17371 bound_to 10713
  140.8344  133.8254  155.9014 LP  0  0  0  0  0  0  0  0  0  0  0  0  # atno 17394 bound_to 11000
  140.9298  134.2036  157.4871 LP  0  0  0  0  0  0  0  0  0  0  0  0  # atno 17395 bound_to 11000

$$$$
