AV-unprocessed.smi:1969|AV-procd|sdf|7958|dock1
  -GOLD-   2272010123D 1   1.00000     0.00000
 Structure written by MMmdl.
 44 45  0  0  0  0  0  0  0  0  1 V2000
  153.6058  141.2157  160.6081 C   0  0  0  0  0  0  0  0  0  0  0  0
  152.4362  141.9459  159.9404 C   0  0  2  0  0  0  0  0  0  0  0  0
  152.0964  141.3532  158.5598 C   0  0  0  0  0  0  0  0  0  0  0  0
  151.0611  142.1478  157.9046 N   0  0  0  0  0  0  0  0  0  0  0  0
  150.4681  141.5566  156.7683 C   0  0  0  0  0  0  0  0  0  0  0  0
  151.2247  140.6955  155.9391 C   0  0  0  0  0  0  0  0  0  0  0  0
  150.6177  140.1178  154.8078 C   0  0  0  0  0  0  0  0  0  0  0  0
  149.2609  140.4077  154.5359 C   0  0  0  0  0  0  0  0  0  0  0  0
  148.5445  139.9098  153.4147 N   0  0  0  0  0  0  0  0  0  0  0  0
  147.2136  139.7928  153.2497 C   0  0  0  0  0  0  0  0  0  0  0  0
  146.3727  140.1358  154.0796 O   0  0  0  0  0  0  0  0  0  0  0  0
  146.7495  139.1887  151.9235 C   0  0  0  0  0  0  0  0  0  0  0  0
  146.0050  138.0057  152.1733 O   0  0  0  0  0  0  0  0  0  0  0  0
  145.5311  137.3951  150.9837 C   0  0  0  0  0  0  0  0  0  0  0  0
  144.7273  136.1384  151.3387 C   0  0  0  0  0  0  0  0  0  0  0  0
  144.1488  135.6611  150.2374 F   0  0  0  0  0  0  0  0  0  0  0  0
  145.5332  135.2022  151.8389 F   0  0  0  0  0  0  0  0  0  0  0  0
  143.7787  136.4338  152.2268 F   0  0  0  0  0  0  0  0  0  0  0  0
  148.5913  141.2823  155.4144 C   0  0  0  0  0  0  0  0  0  0  0  0
  149.1689  141.8362  156.5007 N   0  0  0  0  0  0  0  0  0  0  0  0
  151.3770  143.5733  157.8490 C   0  0  0  0  0  0  0  0  0  0  0  0
  151.7347  144.1004  159.2511 C   0  0  2  0  0  0  0  0  0  0  0  0
  152.1883  145.5634  159.2184 C   0  0  0  0  0  0  0  0  0  0  0  0
  152.7959  143.3161  159.7881 O   0  0  0  0  0  0  0  0  0  0  0  0
  153.3775  140.1597  160.7539 H   0  0  0  0  0  0  0  0  0  0  0  0
  153.8262  141.6464  161.5849 H   0  0  0  0  0  0  0  0  0  0  0  0
  154.5100  141.2826  160.0024 H   0  0  0  0  0  0  0  0  0  0  0  0
  151.5650  141.8750  160.5941 H   0  0  0  0  0  0  0  0  0  0  0  0
  152.9837  141.3451  157.9253 H   0  0  0  0  0  0  0  0  0  0  0  0
  151.7878  140.3162  158.6848 H   0  0  0  0  0  0  0  0  0  0  0  0
  152.2557  140.4646  156.1610 H   0  0  0  0  0  0  0  0  0  0  0  0
  151.2073  139.4785  154.1695 H   0  0  0  0  0  0  0  0  0  0  0  0
  149.1074  139.6687  152.6117 H   0  0  0  0  0  0  0  0  0  0  0  0
  146.1367  139.9220  151.3972 H   0  0  0  0  0  0  0  0  0  0  0  0
  147.6162  138.9651  151.2991 H   0  0  0  0  0  0  0  0  0  0  0  0
  144.9022  138.0941  150.4300 H   0  0  0  0  0  0  0  0  0  0  0  0
  146.3714  137.1304  150.3400 H   0  0  0  0  0  0  0  0  0  0  0  0
  147.5574  141.5448  155.2445 H   0  0  0  0  0  0  0  0  0  0  0  0
  152.2109  143.7298  157.1633 H   0  0  0  0  0  0  0  0  0  0  0  0
  150.5242  144.1306  157.4594 H   0  0  0  0  0  0  0  0  0  0  0  0
  150.8652  144.0219  159.9063 H   0  0  0  0  0  0  0  0  0  0  0  0
  151.4030  146.2091  158.8247 H   0  0  0  0  0  0  0  0  0  0  0  0
  153.0711  145.6884  158.5910 H   0  0  0  0  0  0  0  0  0  0  0  0
  152.4382  145.9157  160.2195 H   0  0  0  0  0  0  0  0  0  0  0  0
  1  2  1  0  0  0  0
  1 25  1  0  0  0  0
  1 26  1  0  0  0  0
  1 27  1  0  0  0  0
  2 24  1  0  0  0  0
  2  3  1  0  0  0  0
  2 28  1  0  0  0  0
  3  4  1  0  0  0  0
  3 29  1  0  0  0  0
  3 30  1  0  0  0  0
  4  5  1  0  0  0  0
  4 21  1  0  0  0  0
  5 20  1  0  0  0  0
  5  6  2  0  0  0  0
  6  7  1  0  0  0  0
  6 31  1  0  0  0  0
  7  8  2  0  0  0  0
  7 32  1  0  0  0  0
  8  9  1  0  0  0  0
  8 19  1  0  0  0  0
  9 10  1  0  0  0  0
  9 33  1  0  0  0  0
 10 11  2  0  0  0  0
 10 12  1  0  0  0  0
 12 13  1  0  0  0  0
 12 34  1  0  0  0  0
 12 35  1  0  0  0  0
 13 14  1  0  0  0  0
 14 15  1  0  0  0  0
 14 36  1  0  0  0  0
 14 37  1  0  0  0  0
 15 16  1  0  0  0  0
 15 17  1  0  0  0  0
 15 18  1  0  0  0  0
 19 20  2  0  0  0  0
 19 38  1  0  0  0  0
 21 22  1  0  0  0  0
 21 39  1  0  0  0  0
 21 40  1  0  0  0  0
 22 23  1  0  0  0  0
 22 24  1  0  0  0  0
 22 41  1  0  0  0  0
 23 42  1  0  0  0  0
 23 43  1  0  0  0  0
 23 44  1  0  0  0  0
M  END
> <s_m_source_file>
AV-unprocessed.smi

> <i_m_source_file_index>
1969

> <i_lp_mmshare_version>
43012

> <i_f3d_flags>
0

> <s_epik_input>
W0NIM11bQ0BASF0xW0NIMl1OKFtDSDJdW0NASF0oTzEpW0NIM10pYzJbY0hdW2NIXWMoW2NIXW4yKVtOSF1DKD1PKVtDSDJdT1tDSDJdQyhGKShGKUY=

> <s_epik_cmdline>
J2VwaWtfcHl0aG9uJywgJy1waCcsICc3LjAnLCAnLXRuJywgJzgnLCAnLW1hJywgJzIwMCcsICctbWV0YWxfYmluZGluZycsICctaW1hZScsICc8aW5maWxlLm1hZT4nLCAnLW9tYWUnLCAnPG91dGZpbGUubWFlPic=

> <r_lp_tautomer_probability>
1

> <r_epik_Ionization_Penalty>
0.000531129

> <r_epik_Ionization_Penalty_Charging>
0

> <r_epik_Ionization_Penalty_Neutral>
0.000531129

> <r_epik_State_Penalty>
0.000331002

> <r_epik_Charging_Adjusted_Penalty>
0.000331002

> <i_epik_Tot_Q>
0

> <i_epik_Tot_abs_Q>
0

> <r_epik_Metal_State_Penalty>
-0

> <b_epik_Metal_Only>
0

> <s_lp_Force_Field>
OPLS_2005

> <r_lp_Energy>
22.4216

> <b_lp_Chiralities_Consistent>
1

> <s_lp_Variant>
AV-unprocessed.smi:1969-2

> <Gold.Version>
5.8.1

> <Gold.Id.Protein>
6NUR|6NUR_protein|mol2

> <Gold.PLP.Fitness>
51.3258

> <Gold.PLP.PLP>
-49.3091

> <Gold.PLP.part.hbond>
-0.9726

> <Gold.PLP.part.metal>
0.0000

> <Gold.PLP.part.buried>
1.1696

> <Gold.PLP.part.nonpolar>
-49.7947

> <Gold.PLP.part.repulsive>
0.6922

> <Gold.PLP.ligand.clash>
0.0000

> <Gold.PLP.ligand.torsion>
0.6738

> <Gold.PLP.Chemscore.Hbond>
0.9920

> <Gold.PLP.Chemscore.CHOScore>
0.0000

> <Gold.PLP.Chemscore.Metal>
0.0000

> <Gold.Chemscore.Hbonds>
donor molecule, donor type, donor heavy atom, donor atom, acceptor molecule, acceptor atom, score
      L1  H     9    33       P1  7957  0.98

> <Gold.PLP.Chemscore.Internal.Correction>
0.3883

> <Gold.Rescore>
     Score         DG    S(hbond)    S(metal)    S(lipo)     H(rot)  DE(clash)    DE(int)     intcor
     13.46     -16.53       0.99        0.00     108.61       1.94       1.01       2.06       ----

> <Gold.Chemscore.Fitness>
13.4553

> <Gold.Chemscore.DG>
-16.5253

> <Gold.Chemscore.ZeroCoef>
-5.4800

> <Gold.Chemscore.Hbond>
0.9921

> <Gold.Chemscore.Metal>
0.0000

> <Gold.Chemscore.Lipo>
108.6143

> <Gold.Chemscore.Internal_Hbond>
0.0000

> <Gold.Chemscore.DEClash>
1.0125

> <Gold.Chemscore.DEInternal>
2.0575

> <Gold.Chemscore.Rot>
1.9438

> <Gold.Chemscore.Internal.Correction>
   9.000000E+99

> <Gold.Chemscore.Hbonds>
donor molecule, donor type, donor heavy atom, donor atom, acceptor molecule, acceptor atom, score
      L1  H     9    33       P1  7957  0.91

> <Gold.Chemscore.Hbond.Weighted>
-3.3135

> <Gold.Chemscore.Metal.Weighted>
-0.0000

> <Gold.Chemscore.Lipo.Weighted>
-12.7079

> <Gold.Chemscore.Internal_Hbond.Weighted>
0.0000

> <Gold.Chemscore.DEClash.Weighted>
1.0125

> <Gold.Chemscore.DEInternal.Weighted>
2.0575

> <Gold.Chemscore.Rot.Weighted>
4.9761

> <Gold.Chemscore.Internal.Correction.Weighted>
   9.000000E+99

> <Gold.Protein.RotatedTorsions>
[ 6907 6896 6895 6894 ] final  151.47 input  -60.11 | X-H torsion
[ 7974 7965 7964 7962 ] final -132.11 input  175.53 | X-H torsion
[ 8008 7997 7996 7995 ] final   86.02 input   59.86 | X-H torsion
[ 10167 10162 10161 10158 ] final  109.91 input  -65.29 | X-H torsion
[ 10718 10713 10712 10709 ] final   83.77 input   66.30 | X-H torsion
[ 10763 10752 10751 10750 ] final   68.54 input  -60.55 | X-H torsion
[ 11005 11000 10999 10996 ] final  123.06 input  -57.11 | X-H torsion

> <Gold.Protein.ActiveResidues>
 VAL166  LYS551  ARG553  GLY616  TRP617  ASP618  TYR619  PRO620  LYS621  CYS622 
 ASP623  PHE694  ASN695  SER759  ASP760  ASP761  ALA762  ILE779  LEU786  VAL792 
 PHE793  MET794  SER795  GLU796  ALA797  LYS798  CYS799  TRP800  GLU811  SER814 

> <Gold.Protein.RotatedAtoms>
  152.1001  133.4245  159.4583 H   0  0  0  0  0  0  0  0  0  0  0  0  # atno 6907 bound_to 6896
  150.6864  134.2770  159.4621 H   0  0  0  0  0  0  0  0  0  0  0  0  # atno 6908 bound_to 6896
  152.0629  134.9582  160.0625 H   0  0  0  0  0  0  0  0  0  0  0  0  # atno 6909 bound_to 6896
  144.9316  140.7135  143.4902 H   0  0  0  0  0  0  0  0  0  0  0  0  # atno 7974 bound_to 7965
  155.9574  140.3396  155.6461 H   0  0  0  0  0  0  0  0  0  0  0  0  # atno 8008 bound_to 7997
  155.6841  140.0741  157.2491 H   0  0  0  0  0  0  0  0  0  0  0  0  # atno 8009 bound_to 7997
  154.4135  140.1669  156.2002 H   0  0  0  0  0  0  0  0  0  0  0  0  # atno 8010 bound_to 7997
  139.6730  144.7124  151.1654 H   0  0  0  0  0  0  0  0  0  0  0  0  # atno 10167 bound_to 10162
  157.6885  131.0105  150.2573 H   0  0  0  0  0  0  0  0  0  0  0  0  # atno 10718 bound_to 10713
  153.0241  135.5243  154.7151 H   0  0  0  0  0  0  0  0  0  0  0  0  # atno 10763 bound_to 10752
  154.6222  135.2890  155.0315 H   0  0  0  0  0  0  0  0  0  0  0  0  # atno 10764 bound_to 10752
  154.1298  135.6595  153.4972 H   0  0  0  0  0  0  0  0  0  0  0  0  # atno 10765 bound_to 10752
  139.9296  134.9641  156.8203 H   0  0  0  0  0  0  0  0  0  0  0  0  # atno 11005 bound_to 11000
  145.3133  139.1811  143.4627 LP  0  0  0  0  0  0  0  0  0  0  0  0  # atno 17320 bound_to 7965
  146.3249  140.3141  142.8628 LP  0  0  0  0  0  0  0  0  0  0  0  0  # atno 17321 bound_to 7965
  140.7625  143.5816  150.8889 LP  0  0  0  0  0  0  0  0  0  0  0  0  # atno 17342 bound_to 10162
  139.9482  143.6302  152.3036 LP  0  0  0  0  0  0  0  0  0  0  0  0  # atno 17343 bound_to 10162
  156.3159  130.3778  149.7619 LP  0  0  0  0  0  0  0  0  0  0  0  0  # atno 17370 bound_to 10713
  156.5204  130.8212  151.3202 LP  0  0  0  0  0  0  0  0  0  0  0  0  # atno 17371 bound_to 10713
  140.6240  133.9967  155.7631 LP  0  0  0  0  0  0  0  0  0  0  0  0  # atno 17394 bound_to 11000
  141.0876  133.9967  157.3289 LP  0  0  0  0  0  0  0  0  0  0  0  0  # atno 17395 bound_to 11000

$$$$
