AV-unprocessed.smi:3047|AV-procd|sdf|11624|dock7
  -GOLD-   2272017 13D 1   1.00000     0.00000
 Structure written by MMmdl.
 37 38  0  0  0  0  0  0  0  0  1 V2000
  152.7375  139.0697  157.2364 C   0  0  0  0  0  0  0  0  0  0  0  0
  152.6701  138.5540  155.4706 S   0  0  0  0  0  0  0  0  0  0  0  0
  153.6917  139.3167  154.7371 O   0  0  0  0  0  0  0  0  0  0  0  0
  152.6628  137.0844  155.4072 O   0  0  0  0  0  0  0  0  0  0  0  0
  151.1189  139.1262  154.9430 N   0  0  0  0  0  0  0  0  0  0  0  0
  150.6420  140.4741  155.2417 C   0  0  0  0  0  0  0  0  0  0  0  0
  149.3762  140.6165  154.4019 C   0  0  0  0  0  0  0  0  0  0  0  0
  148.8129  139.1988  154.3415 C   0  0  0  0  0  0  0  0  0  0  0  0
  150.0488  138.2746  154.3922 C   0  0  2  0  0  0  0  0  0  0  0  0
  149.7759  136.9797  155.1736 C   0  0  0  0  0  0  0  0  0  0  0  0
  149.9948  136.9173  156.3840 O   0  0  0  0  0  0  0  0  0  0  0  0
  149.3239  135.9393  154.4596 N   0  0  0  0  0  0  0  0  0  0  0  0
  149.0782  134.6121  155.0034 C   0  0  0  0  0  0  0  0  0  0  0  0
  148.8325  133.6061  153.8716 C   0  0  0  0  0  0  0  0  0  0  0  0
  149.4443  132.3247  154.1587 N   0  0  0  0  0  0  0  0  0  0  0  0
  149.2542  131.1323  153.4729 C   0  0  0  0  0  0  0  0  0  0  0  0
  150.0327  130.1882  154.1039 C   0  0  0  0  0  0  0  0  0  0  0  0
  150.7048  130.7741  155.1744 N   0  0  0  0  0  0  0  0  0  0  0  0
  150.3063  132.0393  155.1442 C   0  0  0  0  0  0  0  0  0  0  0  0
  153.7215  138.8348  157.6413 H   0  0  0  0  0  0  0  0  0  0  0  0
  151.9826  138.5380  157.8128 H   0  0  0  0  0  0  0  0  0  0  0  0
  152.5645  140.1427  157.3110 H   0  0  0  0  0  0  0  0  0  0  0  0
  150.4195  140.5466  156.3069 H   0  0  0  0  0  0  0  0  0  0  0  0
  151.3912  141.2243  154.9880 H   0  0  0  0  0  0  0  0  0  0  0  0
  148.6705  141.3355  154.8189 H   0  0  0  0  0  0  0  0  0  0  0  0
  149.6389  140.9500  153.3971 H   0  0  0  0  0  0  0  0  0  0  0  0
  148.1485  139.0471  155.1934 H   0  0  0  0  0  0  0  0  0  0  0  0
  148.2212  139.0405  153.4393 H   0  0  0  0  0  0  0  0  0  0  0  0
  150.3367  138.0194  153.3709 H   0  0  0  0  0  0  0  0  0  0  0  0
  149.1806  136.0659  153.4679 H   0  0  0  0  0  0  0  0  0  0  0  0
  149.9384  134.3012  155.5987 H   0  0  0  0  0  0  0  0  0  0  0  0
  148.2165  134.6479  155.6720 H   0  0  0  0  0  0  0  0  0  0  0  0
  147.7630  133.4540  153.7196 H   0  0  0  0  0  0  0  0  0  0  0  0
  149.2382  133.9817  152.9310 H   0  0  0  0  0  0  0  0  0  0  0  0
  148.5986  131.0560  152.6179 H   0  0  0  0  0  0  0  0  0  0  0  0
  150.1594  129.1408  153.8725 H   0  0  0  0  0  0  0  0  0  0  0  0
  150.6482  132.7754  155.8572 H   0  0  0  0  0  0  0  0  0  0  0  0
  1  2  1  0  0  0  0
  1 20  1  0  0  0  0
  1 21  1  0  0  0  0
  1 22  1  0  0  0  0
  2  3  2  0  0  0  0
  2  4  2  0  0  0  0
  2  5  1  0  0  0  0
  5  9  1  0  0  0  0
  5  6  1  0  0  0  0
  6  7  1  0  0  0  0
  6 23  1  0  0  0  0
  6 24  1  0  0  0  0
  7  8  1  0  0  0  0
  7 25  1  0  0  0  0
  7 26  1  0  0  0  0
  8  9  1  0  0  0  0
  8 27  1  0  0  0  0
  8 28  1  0  0  0  0
  9 10  1  0  0  0  0
  9 29  1  0  0  0  0
 10 11  2  0  0  0  0
 10 12  1  0  0  0  0
 12 13  1  0  0  0  0
 12 30  1  0  0  0  0
 13 14  1  0  0  0  0
 13 31  1  0  0  0  0
 13 32  1  0  0  0  0
 14 15  1  0  0  0  0
 14 33  1  0  0  0  0
 14 34  1  0  0  0  0
 15 19  1  0  0  0  0
 15 16  1  0  0  0  0
 16 17  2  0  0  0  0
 16 35  1  0  0  0  0
 17 18  1  0  0  0  0
 17 36  1  0  0  0  0
 18 19  2  0  0  0  0
 19 37  1  0  0  0  0
M  END
> <s_m_source_file>
AV-unprocessed.smi

> <i_m_source_file_index>
3047

> <i_lp_mmshare_version>
43012

> <i_f3d_flags>
0

> <s_epik_input>
W0NIM11TKD1PKSg9TylOMVtDSDJdW0NIMl1bQ0gyXVtDQEhdMUMoPU8pW05IXVtDSDJdW0NIMl1uMltjSF1bY0hdbltjSF0y

> <s_epik_cmdline>
J2VwaWtfcHl0aG9uJywgJy1waCcsICc3LjAnLCAnLXRuJywgJzgnLCAnLW1hJywgJzIwMCcsICctbWV0YWxfYmluZGluZycsICctaW1hZScsICc8aW5maWxlLm1hZT4nLCAnLW9tYWUnLCAnPG91dGZpbGUubWFlPic=

> <r_lp_tautomer_probability>
1

> <r_epik_Ionization_Penalty>
0.575721

> <r_epik_Ionization_Penalty_Charging>
0.575721

> <r_epik_Ionization_Penalty_Neutral>
1.33078e-07

> <r_epik_State_Penalty>
0.588056

> <r_epik_Charging_Adjusted_Penalty>
1.16378

> <i_epik_Tot_Q>
0

> <i_epik_Tot_abs_Q>
0

> <r_epik_Metal_State_Penalty>
0.294357

> <b_epik_Metal_Only>
0

> <s_lp_Force_Field>
OPLS_2005

> <r_lp_Energy>
9.27481

> <b_lp_Chiralities_Consistent>
1

> <s_lp_Variant>
AV-unprocessed.smi:3047-4

> <Gold.Version>
5.8.1

> <Gold.Id.Protein>
6NUR|6NUR_protein|mol2

> <Gold.PLP.Fitness>
41.9296

> <Gold.PLP.PLP>
-33.3570

> <Gold.PLP.part.hbond>
-2.9248

> <Gold.PLP.part.metal>
0.0000

> <Gold.PLP.part.buried>
-2.4551

> <Gold.PLP.part.nonpolar>
-28.1838

> <Gold.PLP.part.repulsive>
0.0550

> <Gold.PLP.ligand.clash>
0.0000

> <Gold.PLP.ligand.torsion>
2.2654

> <Gold.PLP.Chemscore.Hbond>
2.6880

> <Gold.PLP.Chemscore.CHOScore>
1.0000

> <Gold.PLP.Chemscore.Metal>
0.0000

> <Gold.Chemscore.Hbonds>
donor molecule, donor type, donor heavy atom, donor atom, acceptor molecule, acceptor atom, score
      L1  H    12    30       P1  7948  1.00
      P1  H  7997  8008       L1     3  1.00
      P1  H 10752 10765       L1     4  0.58
      L1  C    16    35       P1 10747  1.00

> <Gold.PLP.Chemscore.Internal.Correction>
2.0395

> <Gold.Rescore>
     Score         DG    S(hbond)    S(metal)    S(lipo)     H(rot)  DE(clash)    DE(int)     intcor
     11.02     -15.59       2.80        0.00      50.77       2.03       0.00       4.57       ----

> <Gold.Chemscore.Fitness>
11.0173

> <Gold.Chemscore.DG>
-15.5890

> <Gold.Chemscore.ZeroCoef>
-5.4800

> <Gold.Chemscore.Hbond>
2.8008

> <Gold.Chemscore.Metal>
0.0000

> <Gold.Chemscore.Lipo>
50.7733

> <Gold.Chemscore.Internal_Hbond>
0.0000

> <Gold.Chemscore.DEClash>
0.0000

> <Gold.Chemscore.DEInternal>
4.5717

> <Gold.Chemscore.Rot>
2.0259

> <Gold.Chemscore.Internal.Correction>
   9.000000E+99

> <Gold.Chemscore.Hbonds>
donor molecule, donor type, donor heavy atom, donor atom, acceptor molecule, acceptor atom, score
      L1  H    12    30       P1  7948  0.84
      P1  H  7997  8008       L1     3  0.91
      P1  H 10752 10765       L1     4  0.58

> <Gold.Chemscore.Hbond.Weighted>
-9.3548

> <Gold.Chemscore.Metal.Weighted>
-0.0000

> <Gold.Chemscore.Lipo.Weighted>
-5.9405

> <Gold.Chemscore.Internal_Hbond.Weighted>
0.0000

> <Gold.Chemscore.DEClash.Weighted>
0.0000

> <Gold.Chemscore.DEInternal.Weighted>
4.5717

> <Gold.Chemscore.Rot.Weighted>
5.1863

> <Gold.Chemscore.Internal.Correction.Weighted>
   9.000000E+99

> <Gold.Protein.RotatedTorsions>
[ 6907 6896 6895 6894 ] final   21.42 input  -60.11 | X-H torsion
[ 7974 7965 7964 7962 ] final -100.05 input  175.53 | X-H torsion
[ 8008 7997 7996 7995 ] final    3.75 input   59.86 | X-H torsion
[ 10167 10162 10161 10158 ] final  -45.58 input  -65.29 | X-H torsion
[ 10718 10713 10712 10709 ] final   13.14 input   66.30 | X-H torsion
[ 10763 10752 10751 10750 ] final -177.24 input  -60.55 | X-H torsion
[ 11005 11000 10999 10996 ] final  -33.86 input  -57.11 | X-H torsion

> <Gold.Protein.ActiveResidues>
 VAL166  LYS551  ARG553  GLY616  TRP617  ASP618  TYR619  PRO620  LYS621  CYS622 
 ASP623  PHE694  ASN695  SER759  ASP760  ASP761  ALA762  ILE779  LEU786  VAL792 
 PHE793  MET794  SER795  GLU796  ALA797  LYS798  CYS799  TRP800  GLU811  SER814 

> <Gold.Protein.RotatedAtoms>
  151.9114  135.0337  160.0514 H   0  0  0  0  0  0  0  0  0  0  0  0  # atno 6907 bound_to 6896
  152.2276  133.5028  159.5206 H   0  0  0  0  0  0  0  0  0  0  0  0  # atno 6908 bound_to 6896
  150.7016  134.1176  159.4065 H   0  0  0  0  0  0  0  0  0  0  0  0  # atno 6909 bound_to 6896
  145.2996  140.9374  143.2831 H   0  0  0  0  0  0  0  0  0  0  0  0  # atno 7974 bound_to 7965
  154.7075  140.2686  155.6661 H   0  0  0  0  0  0  0  0  0  0  0  0  # atno 8008 bound_to 7997
  156.2785  140.2760  156.1630 H   0  0  0  0  0  0  0  0  0  0  0  0  # atno 8009 bound_to 7997
  155.0680  140.0372  157.2589 H   0  0  0  0  0  0  0  0  0  0  0  0  # atno 8010 bound_to 7997
  140.6852  143.2872  151.3659 H   0  0  0  0  0  0  0  0  0  0  0  0  # atno 10167 bound_to 10162
  157.0203  130.6152  149.5720 H   0  0  0  0  0  0  0  0  0  0  0  0  # atno 10718 bound_to 10713
  154.5625  135.2821  155.0905 H   0  0  0  0  0  0  0  0  0  0  0  0  # atno 10763 bound_to 10752
  154.2309  135.6374  153.5179 H   0  0  0  0  0  0  0  0  0  0  0  0  # atno 10764 bound_to 10752
  153.0033  135.5537  154.6223 H   0  0  0  0  0  0  0  0  0  0  0  0  # atno 10765 bound_to 10752
  140.9669  133.7132  156.1460 H   0  0  0  0  0  0  0  0  0  0  0  0  # atno 11005 bound_to 11000
  144.9105  139.4535  143.6589 LP  0  0  0  0  0  0  0  0  0  0  0  0  # atno 17320 bound_to 7965
  146.3157  139.7910  142.8985 LP  0  0  0  0  0  0  0  0  0  0  0  0  # atno 17321 bound_to 7965
  139.6205  144.0916  152.2387 LP  0  0  0  0  0  0  0  0  0  0  0  0  # atno 17342 bound_to 10162
  140.0359  144.6045  150.7450 LP  0  0  0  0  0  0  0  0  0  0  0  0  # atno 17343 bound_to 10162
  156.0104  130.5195  150.7971 LP  0  0  0  0  0  0  0  0  0  0  0  0  # atno 17370 bound_to 10713
  157.5254  131.0934  151.0024 LP  0  0  0  0  0  0  0  0  0  0  0  0  # atno 17371 bound_to 10713
  140.7386  134.4175  157.5557 LP  0  0  0  0  0  0  0  0  0  0  0  0  # atno 17394 bound_to 11000
  139.8898  134.8822  156.2404 LP  0  0  0  0  0  0  0  0  0  0  0  0  # atno 17395 bound_to 11000

$$$$
