AV-unprocessed.smi:236|AV-procd|sdf|1809|dock4
  -GOLD-   2262020393D 1   1.00000     0.00000
 Structure written by MMmdl.
 58 62  0  0  0  0  0  0  0  0  1 V2000
  143.0679  134.7365  152.5719 C   0  0  0  0  0  0  0  0  0  0  0  0
  144.1544  134.2852  151.5847 C   0  0  2  0  0  0  0  0  0  0  0  0
  144.0550  132.8864  151.3285 O   0  0  0  0  0  0  0  0  0  0  0  0
  145.3517  132.3257  151.1428 C   0  0  0  0  0  0  0  0  0  0  0  0
  146.3121  133.5105  151.1081 C   0  0  0  0  0  0  0  0  0  0  0  0
  145.6164  134.5259  152.0067 C   0  0  1  0  0  0  0  0  0  0  0  0
  146.0278  135.8278  151.6332 O   0  0  0  0  0  0  0  0  0  0  0  0
  145.8822  134.3143  153.5222 C   0  0  0  0  0  0  0  0  0  0  0  0
  147.0903  134.9663  154.0027 N   0  0  0  0  0  0  0  0  0  0  0  0
  148.3759  134.4787  153.9363 C   0  0  0  0  0  0  0  0  0  0  0  0
  149.2922  135.2552  154.4467 N   0  0  0  0  0  0  0  0  0  0  0  0
  148.5875  136.3692  154.8874 C   0  0  0  0  0  0  0  0  0  0  0  0
  148.9455  137.5853  155.5362 C   0  0  0  0  0  0  0  0  0  0  0  0
  150.1985  137.9315  155.8987 N   0  0  0  0  0  0  0  0  0  0  0  0
  151.0466  138.2798  154.7679 C   0  0  0  0  0  0  0  0  0  0  0  0
  152.4942  138.4790  155.2455 C   0  0  0  0  0  0  0  0  0  0  0  0
  152.5217  139.4502  156.2874 O   0  0  0  0  0  0  0  0  0  0  0  0
  151.7622  139.0503  157.4269 C   0  0  1  0  0  0  0  0  0  0  0  0
  151.9211  140.1254  158.5087 C   0  0  0  0  0  0  0  0  0  0  0  0
  151.4924  141.3725  157.9876 O   0  0  0  0  0  0  0  0  0  0  0  0
  151.8744  142.4649  158.8050 C   0  0  0  0  0  0  0  0  0  0  0  0
  151.5181  143.7577  158.1025 C   0  0  0  0  0  0  0  0  0  0  0  0
  152.5714  144.8078  157.8302 C   0  0  0  0  0  0  0  0  0  0  0  0
  151.5090  145.0610  158.8690 C   0  0  0  0  0  0  0  0  0  0  0  0
  150.2919  138.8861  156.9963 C   0  0  0  0  0  0  0  0  0  0  0  0
  147.9557  138.4597  155.8407 N   0  0  0  0  0  0  0  0  0  0  0  0
  146.6900  138.1743  155.5200 C   0  0  0  0  0  0  0  0  0  0  0  0
  146.2071  137.0890  154.9114 N   0  0  0  0  0  0  0  0  0  0  0  0
  147.2008  136.2032  154.6135 C   0  0  0  0  0  0  0  0  0  0  0  0
  143.1596  135.7990  152.7978 H   0  0  0  0  0  0  0  0  0  0  0  0
  143.1191  134.1847  153.5105 H   0  0  0  0  0  0  0  0  0  0  0  0
  142.0752  134.5720  152.1524 H   0  0  0  0  0  0  0  0  0  0  0  0
  143.9791  134.7794  150.6270 H   0  0  0  0  0  0  0  0  0  0  0  0
  145.5751  131.6739  151.9878 H   0  0  0  0  0  0  0  0  0  0  0  0
  145.4006  131.7274  150.2330 H   0  0  0  0  0  0  0  0  0  0  0  0
  147.3267  133.2503  151.4075 H   0  0  0  0  0  0  0  0  0  0  0  0
  146.3669  133.8886  150.0856 H   0  0  0  0  0  0  0  0  0  0  0  0
  146.9625  135.8931  151.7550 H   0  0  0  0  0  0  0  0  0  0  0  0
  145.0435  134.6858  154.1124 H   0  0  0  0  0  0  0  0  0  0  0  0
  145.9610  133.2499  153.7468 H   0  0  0  0  0  0  0  0  0  0  0  0
  148.6135  133.5191  153.5007 H   0  0  0  0  0  0  0  0  0  0  0  0
  151.0067  137.4938  154.0127 H   0  0  0  0  0  0  0  0  0  0  0  0
  150.6774  139.1948  154.3024 H   0  0  0  0  0  0  0  0  0  0  0  0
  152.9206  137.5389  155.5993 H   0  0  0  0  0  0  0  0  0  0  0  0
  153.1191  138.8231  154.4215 H   0  0  0  0  0  0  0  0  0  0  0  0
  152.1378  138.0990  157.8087 H   0  0  0  0  0  0  0  0  0  0  0  0
  151.3511  139.8572  159.3998 H   0  0  0  0  0  0  0  0  0  0  0  0
  152.9695  140.2054  158.8006 H   0  0  0  0  0  0  0  0  0  0  0  0
  151.3468  142.4249  159.7589 H   0  0  0  0  0  0  0  0  0  0  0  0
  152.9457  142.4372  159.0112 H   0  0  0  0  0  0  0  0  0  0  0  0
  150.7382  143.6492  157.3509 H   0  0  0  0  0  0  0  0  0  0  0  0
  153.5828  144.6142  158.1822 H   0  0  0  0  0  0  0  0  0  0  0  0
  152.5009  145.3577  156.8940 H   0  0  0  0  0  0  0  0  0  0  0  0
  150.7290  145.7802  158.6272 H   0  0  0  0  0  0  0  0  0  0  0  0
  151.8143  145.0382  159.9135 H   0  0  0  0  0  0  0  0  0  0  0  0
  149.8937  139.8528  156.6883 H   0  0  0  0  0  0  0  0  0  0  0  0
  149.6891  138.5391  157.8368 H   0  0  0  0  0  0  0  0  0  0  0  0
  145.9593  138.9218  155.7916 H   0  0  0  0  0  0  0  0  0  0  0  0
  1  2  1  0  0  0  0
  1 30  1  0  0  0  0
  1 31  1  0  0  0  0
  1 32  1  0  0  0  0
  2  6  1  0  0  0  0
  2  3  1  0  0  0  0
  2 33  1  0  0  0  0
  3  4  1  0  0  0  0
  4  5  1  0  0  0  0
  4 34  1  0  0  0  0
  4 35  1  0  0  0  0
  5  6  1  0  0  0  0
  5 36  1  0  0  0  0
  5 37  1  0  0  0  0
  6  7  1  0  0  0  0
  6  8  1  0  0  0  0
  7 38  1  0  0  0  0
  8  9  1  0  0  0  0
  8 39  1  0  0  0  0
  8 40  1  0  0  0  0
  9 29  1  0  0  0  0
  9 10  1  0  0  0  0
 10 11  2  0  0  0  0
 10 41  1  0  0  0  0
 11 12  1  0  0  0  0
 12 29  2  0  0  0  0
 12 13  1  0  0  0  0
 13 14  1  0  0  0  0
 13 26  2  0  0  0  0
 14 25  1  0  0  0  0
 14 15  1  0  0  0  0
 15 16  1  0  0  0  0
 15 42  1  0  0  0  0
 15 43  1  0  0  0  0
 16 17  1  0  0  0  0
 16 44  1  0  0  0  0
 16 45  1  0  0  0  0
 17 18  1  0  0  0  0
 18 19  1  0  0  0  0
 18 25  1  0  0  0  0
 18 46  1  0  0  0  0
 19 20  1  0  0  0  0
 19 47  1  0  0  0  0
 19 48  1  0  0  0  0
 20 21  1  0  0  0  0
 21 22  1  0  0  0  0
 21 49  1  0  0  0  0
 21 50  1  0  0  0  0
 22 24  1  0  0  0  0
 22 23  1  0  0  0  0
 22 51  1  0  0  0  0
 23 24  1  0  0  0  0
 23 52  1  0  0  0  0
 23 53  1  0  0  0  0
 24 54  1  0  0  0  0
 24 55  1  0  0  0  0
 25 56  1  0  0  0  0
 25 57  1  0  0  0  0
 26 27  1  0  0  0  0
 27 28  2  0  0  0  0
 27 58  1  0  0  0  0
 28 29  1  0  0  0  0
M  END
> <s_m_source_file>
AV-unprocessed.smi

> <i_m_source_file_index>
236

> <i_lp_mmshare_version>
43012

> <i_f3d_flags>
0

> <s_epik_input>
W0NIMl0xW0NIMl1PW0NAQEhdKFtDSDNdKVtDQEBdMShbT0hdKVtDSDJdbihbY0hdbjIpYyhjMjMpbltjSF1uYzNONFtDSDJdW0NIMl1PW0NASF0oW0NIMl00KVtDSDJdT1tDSDJdW0NIXTVbQ0gyXVtDSDJdNQ==

> <s_epik_cmdline>
J2VwaWtfcHl0aG9uJywgJy1waCcsICc3LjAnLCAnLXRuJywgJzgnLCAnLW1hJywgJzIwMCcsICctbWV0YWxfYmluZGluZycsICctaW1hZScsICc8aW5maWxlLm1hZT4nLCAnLW9tYWUnLCAnPG91dGZpbGUubWFlPic=

> <r_lp_tautomer_probability>
1

> <r_epik_Ionization_Penalty>
7.21838e-05

> <r_epik_Ionization_Penalty_Charging>
0

> <r_epik_Ionization_Penalty_Neutral>
7.21838e-05

> <r_epik_State_Penalty>
-0

> <r_epik_Charging_Adjusted_Penalty>
0

> <i_epik_Tot_Q>
0

> <i_epik_Tot_abs_Q>
0

> <r_epik_Metal_State_Penalty>
-0

> <b_epik_Metal_Only>
0

> <s_lp_Force_Field>
OPLS_2005

> <r_lp_Energy>
49.116

> <b_lp_Chiralities_Consistent>
1

> <s_lp_Variant>
AV-unprocessed.smi:236-1

> <Gold.Version>
5.8.1

> <Gold.Id.Protein>
6NUR|6NUR_protein|mol2

> <Gold.PLP.Fitness>
44.4197

> <Gold.PLP.PLP>
-40.9238

> <Gold.PLP.part.hbond>
-1.9624

> <Gold.PLP.part.metal>
0.0000

> <Gold.PLP.part.buried>
-4.5513

> <Gold.PLP.part.nonpolar>
-34.5525

> <Gold.PLP.part.repulsive>
0.3664

> <Gold.PLP.ligand.clash>
0.0000

> <Gold.PLP.ligand.torsion>
1.6594

> <Gold.PLP.Chemscore.Hbond>
2.0000

> <Gold.PLP.Chemscore.CHOScore>
0.0000

> <Gold.PLP.Chemscore.Metal>
0.0000

> <Gold.Chemscore.Hbonds>
donor molecule, donor type, donor heavy atom, donor atom, acceptor molecule, acceptor atom, score
      L1  H     7    38       P1  7948  1.00
      P1  H  7997  8009       L1    17  1.00

> <Gold.PLP.Chemscore.Internal.Correction>
0.8147

> <Gold.Rescore>
     Score         DG    S(hbond)    S(metal)    S(lipo)     H(rot)  DE(clash)    DE(int)     intcor
     15.35     -17.21       1.85        0.00     110.23       2.87       0.19       1.67       ----

> <Gold.Chemscore.Fitness>
15.3502

> <Gold.Chemscore.DG>
-17.2121

> <Gold.Chemscore.ZeroCoef>
-5.4800

> <Gold.Chemscore.Hbond>
1.8477

> <Gold.Chemscore.Metal>
0.0000

> <Gold.Chemscore.Lipo>
110.2274

> <Gold.Chemscore.Internal_Hbond>
0.0000

> <Gold.Chemscore.DEClash>
0.1921

> <Gold.Chemscore.DEInternal>
1.6697

> <Gold.Chemscore.Rot>
2.8655

> <Gold.Chemscore.Internal.Correction>
   9.000000E+99

> <Gold.Chemscore.Hbonds>
donor molecule, donor type, donor heavy atom, donor atom, acceptor molecule, acceptor atom, score
      L1  H     7    38       P1  7948  0.97
      P1  H  7997  8009       L1    17  0.39

> <Gold.Chemscore.Hbond.Weighted>
-6.1712

> <Gold.Chemscore.Metal.Weighted>
-0.0000

> <Gold.Chemscore.Lipo.Weighted>
-12.8966

> <Gold.Chemscore.Internal_Hbond.Weighted>
0.0000

> <Gold.Chemscore.DEClash.Weighted>
0.1921

> <Gold.Chemscore.DEInternal.Weighted>
1.6697

> <Gold.Chemscore.Rot.Weighted>
7.3358

> <Gold.Chemscore.Internal.Correction.Weighted>
   9.000000E+99

> <Gold.Protein.RotatedTorsions>
[ 6907 6896 6895 6894 ] final  140.91 input  -60.11 | X-H torsion
[ 7974 7965 7964 7962 ] final  -78.62 input  175.53 | X-H torsion
[ 8008 7997 7996 7995 ] final -154.49 input   59.86 | X-H torsion
[ 10167 10162 10161 10158 ] final  -44.22 input  -65.29 | X-H torsion
[ 10718 10713 10712 10709 ] final -129.96 input   66.30 | X-H torsion
[ 10763 10752 10751 10750 ] final -175.69 input  -60.55 | X-H torsion
[ 11005 11000 10999 10996 ] final -136.27 input  -57.11 | X-H torsion

> <Gold.Protein.ActiveResidues>
 VAL166  LYS551  ARG553  GLY616  TRP617  ASP618  TYR619  PRO620  LYS621  CYS622 
 ASP623  PHE694  ASN695  SER759  ASP760  ASP761  ALA762  ILE779  LEU786  VAL792 
 PHE793  MET794  SER795  GLU796  ALA797  LYS798  CYS799  TRP800  GLU811  SER814 

> <Gold.Protein.RotatedAtoms>
  152.2374  133.5107  159.5250 H   0  0  0  0  0  0  0  0  0  0  0  0  # atno 6907 bound_to 6896
  150.7054  134.1135  159.4018 H   0  0  0  0  0  0  0  0  0  0  0  0  # atno 6908 bound_to 6896
  151.9056  135.0360  160.0561 H   0  0  0  0  0  0  0  0  0  0  0  0  # atno 6909 bound_to 6896
  145.5840  140.9443  143.1328 H   0  0  0  0  0  0  0  0  0  0  0  0  # atno 7974 bound_to 7965
  155.6872  140.0751  157.2462 H   0  0  0  0  0  0  0  0  0  0  0  0  # atno 8008 bound_to 7997
  154.4095  140.1671  156.2099 H   0  0  0  0  0  0  0  0  0  0  0  0  # atno 8009 bound_to 7997
  155.9484  140.3379  155.6389 H   0  0  0  0  0  0  0  0  0  0  0  0  # atno 8010 bound_to 7997
  140.6905  143.2942  151.3464 H   0  0  0  0  0  0  0  0  0  0  0  0  # atno 10167 bound_to 10162
  156.2098  130.6911  151.0636 H   0  0  0  0  0  0  0  0  0  0  0  0  # atno 10718 bound_to 10713
  154.5813  135.2836  155.0730 H   0  0  0  0  0  0  0  0  0  0  0  0  # atno 10763 bound_to 10752
  154.2065  135.6415  153.5106 H   0  0  0  0  0  0  0  0  0  0  0  0  # atno 10764 bound_to 10752
  153.0089  135.5481  154.6468 H   0  0  0  0  0  0  0  0  0  0  0  0  # atno 10765 bound_to 10752
  140.8821  134.1919  157.4584 H   0  0  0  0  0  0  0  0  0  0  0  0  # atno 11005 bound_to 11000
  144.7381  139.7527  143.7321 LP  0  0  0  0  0  0  0  0  0  0  0  0  # atno 17320 bound_to 7965
  146.1695  139.4840  142.9936 LP  0  0  0  0  0  0  0  0  0  0  0  0  # atno 17321 bound_to 7965
  139.6303  144.0733  152.2470 LP  0  0  0  0  0  0  0  0  0  0  0  0  # atno 17342 bound_to 10162
  140.0206  144.6156  150.7570 LP  0  0  0  0  0  0  0  0  0  0  0  0  # atno 17343 bound_to 10162
  157.7032  131.0767  150.6753 LP  0  0  0  0  0  0  0  0  0  0  0  0  # atno 17370 bound_to 10713
  156.6812  130.4568  149.5627 LP  0  0  0  0  0  0  0  0  0  0  0  0  # atno 17371 bound_to 10713
  139.8720  134.9821  156.5145 LP  0  0  0  0  0  0  0  0  0  0  0  0  # atno 17394 bound_to 11000
  140.8449  133.8176  155.9111 LP  0  0  0  0  0  0  0  0  0  0  0  0  # atno 17395 bound_to 11000

$$$$
