AV-unprocessed.smi:1740|AV-procd|sdf|7011|dock7
  -GOLD-   22720 8223D 1   1.00000     0.00000
 Structure written by MMmdl.
 53 55  0  0  0  0  0  0  0  0  3 V2000
  148.8928  133.9403  153.7496 N   0  0  0  0  0  0  0  0  0  0  0  0
  148.8340  134.2971  155.0343 C   0  0  0  0  0  0  0  0  0  0  0  0
  149.1622  133.5343  155.9414 O   0  0  0  0  0  0  0  0  0  0  0  0
  148.3517  135.7202  155.3353 C   0  0  0  0  0  0  0  0  0  0  0  0
  149.2085  136.7652  154.7179 N   0  3  2  0  0  0  0  0  0  0  0  0
  150.5756  136.8203  155.3006 C   0  0  0  0  0  0  0  0  0  0  0  0
  151.4704  137.8005  154.5214 C   0  0  0  0  0  0  0  0  0  0  0  0
  150.8534  139.2075  154.4328 C   0  0  2  0  0  0  0  0  0  0  0  0
  150.9290  139.8910  155.7243 N   0  0  0  0  0  0  0  0  0  0  0  0
  151.9730  139.8310  156.5640 C   0  0  0  0  0  0  0  0  0  0  0  0
  153.0020  139.1980  156.3281 O   0  0  0  0  0  0  0  0  0  0  0  0
  151.7614  140.5621  157.6709 N   0  0  0  0  0  0  0  0  0  0  0  0
  152.6540  140.7349  158.7659 C   0  0  0  0  0  0  0  0  0  0  0  0
  153.4224  139.6447  159.2486 C   0  0  0  0  0  0  0  0  0  0  0  0
  154.2454  139.8100  160.3780 C   0  0  0  0  0  0  0  0  0  0  0  0
  154.2755  141.0601  161.0192 C   0  0  0  0  0  0  0  0  0  0  0  0
  153.5247  142.0746  160.5425 N   0  3  0  0  0  0  0  0  0  0  0  0
  152.7246  141.9830  159.4505 C   0  0  0  0  0  0  0  0  0  0  0  0
  152.0098  143.1377  159.0573 N   0  0  0  0  0  0  0  0  0  0  0  0
  150.5514  143.1256  159.0222 C   0  0  0  0  0  0  0  0  0  0  0  0
  150.1428  144.5940  158.9414 C   0  0  0  0  0  0  0  0  0  0  0  0
  151.2162  145.2796  159.7810 C   0  0  0  0  0  0  0  0  0  0  0  0
  152.4727  144.4456  159.5121 C   0  0  0  0  0  0  0  0  0  0  0  0
  149.4025  139.1182  153.9194 C   0  0  0  0  0  0  0  0  0  0  0  0
  148.5653  138.1033  154.7177 C   0  0  0  0  0  0  0  0  0  0  0  0
  149.2101  133.0135  153.5029 H   0  0  0  0  0  0  0  0  0  0  0  0
  148.6274  134.5929  153.0261 H   0  0  0  0  0  0  0  0  0  0  0  0
  147.3381  135.7941  154.9390 H   0  0  0  0  0  0  0  0  0  0  0  0
  148.2801  135.8817  156.4122 H   0  0  0  0  0  0  0  0  0  0  0  0
  150.5150  137.1144  156.3494 H   0  0  0  0  0  0  0  0  0  0  0  0
  151.0330  135.8309  155.2801 H   0  0  0  0  0  0  0  0  0  0  0  0
  152.4612  137.8480  154.9751 H   0  0  0  0  0  0  0  0  0  0  0  0
  151.6198  137.4138  153.5123 H   0  0  0  0  0  0  0  0  0  0  0  0
  151.4423  139.7807  153.7141 H   0  0  0  0  0  0  0  0  0  0  0  0
  150.1237  140.4321  156.0036 H   0  0  0  0  0  0  0  0  0  0  0  0
  150.9243  141.1263  157.6900 H   0  0  0  0  0  0  0  0  0  0  0  0
  153.3744  138.6739  158.7777 H   0  0  0  0  0  0  0  0  0  0  0  0
  154.8343  138.9858  160.7534 H   0  0  0  0  0  0  0  0  0  0  0  0
  154.8700  141.2782  161.8947 H   0  0  0  0  0  0  0  0  0  0  0  0
  150.1773  142.5543  158.1720 H   0  0  0  0  0  0  0  0  0  0  0  0
  150.1501  142.6865  159.9366 H   0  0  0  0  0  0  0  0  0  0  0  0
  150.1986  144.9420  157.9089 H   0  0  0  0  0  0  0  0  0  0  0  0
  149.1319  144.7748  159.3077 H   0  0  0  0  0  0  0  0  0  0  0  0
  151.3447  146.3334  159.5325 H   0  0  0  0  0  0  0  0  0  0  0  0
  150.9509  145.2134  160.8372 H   0  0  0  0  0  0  0  0  0  0  0  0
  153.0991  144.3764  160.4026 H   0  0  0  0  0  0  0  0  0  0  0  0
  153.0608  144.9032  158.7162 H   0  0  0  0  0  0  0  0  0  0  0  0
  148.9253  140.0986  153.9422 H   0  0  0  0  0  0  0  0  0  0  0  0
  149.4155  138.8168  152.8711 H   0  0  0  0  0  0  0  0  0  0  0  0
  147.5722  138.0352  154.2719 H   0  0  0  0  0  0  0  0  0  0  0  0
  148.4279  138.4445  155.7450 H   0  0  0  0  0  0  0  0  0  0  0  0
  149.3119  136.5000  153.7483 H   0  0  0  0  0  0  0  0  0  0  0  0
  153.5693  142.9694  161.0300 H   0  0  0  0  0  0  0  0  0  0  0  0
  1  2  1  0  0  0  0
  1 26  1  0  0  0  0
  1 27  1  0  0  0  0
  2  3  2  0  0  0  0
  2  4  1  0  0  0  0
  4  5  1  0  0  0  0
  4 28  1  0  0  0  0
  4 29  1  0  0  0  0
  5 25  1  0  0  0  0
  5  6  1  0  0  0  0
  5 52  1  0  0  0  0
  6  7  1  0  0  0  0
  6 30  1  0  0  0  0
  6 31  1  0  0  0  0
  7  8  1  0  0  0  0
  7 32  1  0  0  0  0
  7 33  1  0  0  0  0
  8  9  1  0  0  0  0
  8 24  1  0  0  0  0
  8 34  1  0  0  0  0
  9 10  1  0  0  0  0
  9 35  1  0  0  0  0
 10 11  2  0  0  0  0
 10 12  1  0  0  0  0
 12 13  1  0  0  0  0
 12 36  1  0  0  0  0
 13 18  1  0  0  0  0
 13 14  2  0  0  0  0
 14 15  1  0  0  0  0
 14 37  1  0  0  0  0
 15 16  2  0  0  0  0
 15 38  1  0  0  0  0
 16 17  1  0  0  0  0
 16 39  1  0  0  0  0
 17 18  2  0  0  0  0
 17 53  1  0  0  0  0
 18 19  1  0  0  0  0
 19 23  1  0  0  0  0
 19 20  1  0  0  0  0
 20 21  1  0  0  0  0
 20 40  1  0  0  0  0
 20 41  1  0  0  0  0
 21 22  1  0  0  0  0
 21 42  1  0  0  0  0
 21 43  1  0  0  0  0
 22 23  1  0  0  0  0
 22 44  1  0  0  0  0
 22 45  1  0  0  0  0
 23 46  1  0  0  0  0
 23 47  1  0  0  0  0
 24 25  1  0  0  0  0
 24 48  1  0  0  0  0
 24 49  1  0  0  0  0
 25 50  1  0  0  0  0
 25 51  1  0  0  0  0
M  CHG  1   5   1
M  CHG  1  17   1
M  END
> <s_m_source_file>
AV-unprocessed.smi

> <i_m_source_file_index>
1740

> <i_lp_mmshare_version>
43012

> <i_f3d_flags>
0

> <s_epik_input>
W05IMl1DKD1PKVtDSDJdTjFbQ0gyXVtDSDJdW0NIXShbQ0gyXVtDSDJdMSlbTkhdQyg9TylbTkhdYzJbY0hdW2NIXVtjSF1uYzJOM1tDSDJdW0NIMl1bQ0gyXVtDSDJdMw==

> <s_epik_cmdline>
J2VwaWtfcHl0aG9uJywgJy1waCcsICc3LjAnLCAnLXRuJywgJzgnLCAnLW1hJywgJzIwMCcsICctbWV0YWxfYmluZGluZycsICctaW1hZScsICc8aW5maWxlLm1hZT4nLCAnLW9tYWUnLCAnPG91dGZpbGUubWFlPic=

> <r_lp_tautomer_probability>
0.999994

> <r_epik_Ionization_Penalty>
2.11361

> <r_epik_Ionization_Penalty_Charging>
2.11355

> <r_epik_Ionization_Penalty_Neutral>
5.98217e-05

> <r_epik_State_Penalty>
2.13444

> <r_epik_Charging_Adjusted_Penalty>
4.24799

> <i_epik_Tot_Q>
2

> <i_epik_Tot_abs_Q>
2

> <r_epik_Metal_State_Penalty>
2.23528

> <b_epik_Metal_Only>
0

> <s_lp_Force_Field>
OPLS_2005

> <r_lp_Energy>
48.4513

> <b_lp_Chiralities_Consistent>
1

> <s_lp_Variant>
AV-unprocessed.smi:1740-6

> <Gold.Version>
5.8.1

> <Gold.Id.Protein>
6NUR|6NUR_protein|mol2

> <Gold.PLP.Fitness>
51.7028

> <Gold.PLP.PLP>
-41.0911

> <Gold.PLP.part.hbond>
-3.0000

> <Gold.PLP.part.metal>
0.0000

> <Gold.PLP.part.buried>
-3.8875

> <Gold.PLP.part.nonpolar>
-34.8150

> <Gold.PLP.part.repulsive>
0.2229

> <Gold.PLP.ligand.clash>
0.0000

> <Gold.PLP.ligand.torsion>
0.8962

> <Gold.PLP.Chemscore.Hbond>
4.0000

> <Gold.PLP.Chemscore.CHOScore>
0.0000

> <Gold.PLP.Chemscore.Metal>
0.0000

> <Gold.Chemscore.Hbonds>
donor molecule, donor type, donor heavy atom, donor atom, acceptor molecule, acceptor atom, score
      L1  H     1    27       P1  7948  0.95
      L1  H     5    52       P1  7948  2.00
      P1  H  7997  8009       L1    11  1.00

> <Gold.PLP.Chemscore.Internal.Correction>
0.4039

> <Gold.Rescore>
     Score         DG    S(hbond)    S(metal)    S(lipo)     H(rot)  DE(clash)    DE(int)     intcor
     15.92     -20.64       2.73        0.00     100.17       2.22       1.44       3.28       ----

> <Gold.Chemscore.Fitness>
15.9240

> <Gold.Chemscore.DG>
-20.6430

> <Gold.Chemscore.ZeroCoef>
-5.4800

> <Gold.Chemscore.Hbond>
2.7330

> <Gold.Chemscore.Metal>
0.0000

> <Gold.Chemscore.Lipo>
100.1682

> <Gold.Chemscore.Internal_Hbond>
0.0000

> <Gold.Chemscore.DEClash>
1.4398

> <Gold.Chemscore.DEInternal>
3.2792

> <Gold.Chemscore.Rot>
2.2207

> <Gold.Chemscore.Internal.Correction>
   9.000000E+99

> <Gold.Chemscore.Hbonds>
donor molecule, donor type, donor heavy atom, donor atom, acceptor molecule, acceptor atom, score
      L1  H     1    27       P1  7948  0.20
      L1  H     5    52       P1  7948  0.92
      P1  H  7997  8009       L1    11  0.85

> <Gold.Chemscore.Hbond.Weighted>
-9.1282

> <Gold.Chemscore.Metal.Weighted>
-0.0000

> <Gold.Chemscore.Lipo.Weighted>
-11.7197

> <Gold.Chemscore.Internal_Hbond.Weighted>
0.0000

> <Gold.Chemscore.DEClash.Weighted>
1.4398

> <Gold.Chemscore.DEInternal.Weighted>
3.2792

> <Gold.Chemscore.Rot.Weighted>
5.6849

> <Gold.Chemscore.Internal.Correction.Weighted>
   9.000000E+99

> <Gold.Protein.RotatedTorsions>
[ 6907 6896 6895 6894 ] final   16.46 input  -60.11 | X-H torsion
[ 7974 7965 7964 7962 ] final  -54.76 input  175.53 | X-H torsion
[ 8008 7997 7996 7995 ] final -167.87 input   59.86 | X-H torsion
[ 10167 10162 10161 10158 ] final   -4.34 input  -65.29 | X-H torsion
[ 10718 10713 10712 10709 ] final  148.97 input   66.30 | X-H torsion
[ 10763 10752 10751 10750 ] final   -3.23 input  -60.55 | X-H torsion
[ 11005 11000 10999 10996 ] final -127.94 input  -57.11 | X-H torsion

> <Gold.Protein.ActiveResidues>
 VAL166  LYS551  ARG553  GLY616  TRP617  ASP618  TYR619  PRO620  LYS621  CYS622 
 ASP623  PHE694  ASN695  SER759  ASP760  ASP761  ALA762  ILE779  LEU786  VAL792 
 PHE793  MET794  SER795  GLU796  ALA797  LYS798  CYS799  TRP800  GLU811  SER814 

> <Gold.Protein.RotatedAtoms>
  151.8342  135.0611  160.0440 H   0  0  0  0  0  0  0  0  0  0  0  0  # atno 6907 bound_to 6896
  152.2858  133.5509  159.5534 H   0  0  0  0  0  0  0  0  0  0  0  0  # atno 6908 bound_to 6896
  150.7208  134.0416  159.3810 H   0  0  0  0  0  0  0  0  0  0  0  0  # atno 6909 bound_to 6896
  145.8819  140.8138  142.9835 H   0  0  0  0  0  0  0  0  0  0  0  0  # atno 7974 bound_to 7965
  155.8837  140.1013  157.1467 H   0  0  0  0  0  0  0  0  0  0  0  0  # atno 8008 bound_to 7997
  154.4007  140.1324  156.4292 H   0  0  0  0  0  0  0  0  0  0  0  0  # atno 8009 bound_to 7997
  155.7613  140.3463  155.5202 H   0  0  0  0  0  0  0  0  0  0  0  0  # atno 8010 bound_to 7997
  140.6924  143.6435  150.8414 H   0  0  0  0  0  0  0  0  0  0  0  0  # atno 10167 bound_to 10162
  157.3019  131.0872  151.1383 H   0  0  0  0  0  0  0  0  0  0  0  0  # atno 10718 bound_to 10713
  153.3685  135.6993  153.6656 H   0  0  0  0  0  0  0  0  0  0  0  0  # atno 10763 bound_to 10752
  153.5315  135.3591  155.2678 H   0  0  0  0  0  0  0  0  0  0  0  0  # atno 10764 bound_to 10752
  154.8678  135.4182  154.2958 H   0  0  0  0  0  0  0  0  0  0  0  0  # atno 10765 bound_to 10752
  140.9558  134.1004  157.4018 H   0  0  0  0  0  0  0  0  0  0  0  0  # atno 11005 bound_to 11000
  144.6727  140.1397  143.7438 LP  0  0  0  0  0  0  0  0  0  0  0  0  # atno 17320 bound_to 7965
  145.9013  139.2432  143.1492 LP  0  0  0  0  0  0  0  0  0  0  0  0  # atno 17321 bound_to 7965
  140.0149  143.5603  152.2824 LP  0  0  0  0  0  0  0  0  0  0  0  0  # atno 17342 bound_to 10162
  139.6341  144.7648  151.2475 LP  0  0  0  0  0  0  0  0  0  0  0  0  # atno 17343 bound_to 10162
  157.2739  130.6717  149.6033 LP  0  0  0  0  0  0  0  0  0  0  0  0  # atno 17370 bound_to 10713
  155.9672  130.4470  150.5565 LP  0  0  0  0  0  0  0  0  0  0  0  0  # atno 17371 bound_to 10713
  139.8861  135.0079  156.6481 LP  0  0  0  0  0  0  0  0  0  0  0  0  # atno 17394 bound_to 11000
  140.7539  133.8874  155.8367 LP  0  0  0  0  0  0  0  0  0  0  0  0  # atno 17395 bound_to 11000

$$$$
