AV-unprocessed.smi:2954|AV-procd|sdf|11298|dock4
  -GOLD-   2272016193D 1   1.00000     0.00000
 Structure written by MMmdl.
 42 44  0  0  0  0  0  0  0  0  1 V2000
  153.1322  136.8041  160.3565 C   0  0  0  0  0  0  0  0  0  0  0  0
  153.5392  137.2757  158.9544 C   0  0  1  0  0  0  0  0  0  0  0  0
  153.5780  136.1449  158.0307 N   0  0  0  0  0  0  0  0  0  0  0  0
  154.3631  135.0707  158.1843 C   0  0  0  0  0  0  0  0  0  0  0  0
  155.1326  134.9299  159.1313 O   0  0  0  0  0  0  0  0  0  0  0  0
  152.5936  138.3192  158.4123 C   0  0  0  0  0  0  0  0  0  0  0  0
  152.9723  139.5853  158.2155 N   0  0  0  0  0  0  0  0  0  0  0  0
  151.8217  140.1817  157.7410 C   0  0  0  0  0  0  0  0  0  0  0  0
  151.5712  141.5189  157.3586 C   0  0  0  0  0  0  0  0  0  0  0  0
  150.2934  141.9035  156.9030 C   0  0  0  0  0  0  0  0  0  0  0  0
  149.2505  140.9584  156.8225 C   0  0  0  0  0  0  0  0  0  0  0  0
  149.4804  139.6204  157.1958 C   0  0  0  0  0  0  0  0  0  0  0  0
  150.7582  139.2411  157.6496 C   0  0  0  0  0  0  0  0  0  0  0  0
  151.3049  138.0381  158.0874 N   0  0  0  0  0  0  0  0  0  0  0  0
  150.5982  136.7673  158.1809 C   0  0  0  0  0  0  0  0  0  0  0  0
  149.3519  136.8671  159.0732 C   0  0  0  0  0  0  0  0  0  0  0  0
  148.7834  135.5724  159.2157 O   0  0  0  0  0  0  0  0  0  0  0  0
  148.0197  135.3075  160.3311 C   0  0  0  0  0  0  0  0  0  0  0  0
  147.8072  136.2377  161.3800 C   0  0  0  0  0  0  0  0  0  0  0  0
  147.0115  135.8924  162.4893 C   0  0  0  0  0  0  0  0  0  0  0  0
  146.4218  134.6175  162.5663 C   0  0  0  0  0  0  0  0  0  0  0  0
  146.6300  133.6864  161.5323 C   0  0  0  0  0  0  0  0  0  0  0  0
  147.4252  134.0293  160.4212 C   0  0  0  0  0  0  0  0  0  0  0  0
  147.6605  132.8727  159.1593 Cl  0  0  0  0  0  0  0  0  0  0  0  0
  153.1206  137.6381  161.0586 H   0  0  0  0  0  0  0  0  0  0  0  0
  153.8311  136.0598  160.7394 H   0  0  0  0  0  0  0  0  0  0  0  0
  152.1371  136.3577  160.3538 H   0  0  0  0  0  0  0  0  0  0  0  0
  154.5481  137.6803  159.0221 H   0  0  0  0  0  0  0  0  0  0  0  0
  152.9712  136.1844  157.2246 H   0  0  0  0  0  0  0  0  0  0  0  0
  154.2290  134.3422  157.3700 H   0  0  0  0  0  0  0  0  0  0  0  0
  152.3631  142.2508  157.4190 H   0  0  0  0  0  0  0  0  0  0  0  0
  150.1122  142.9288  156.6154 H   0  0  0  0  0  0  0  0  0  0  0  0
  148.2735  141.2609  156.4754 H   0  0  0  0  0  0  0  0  0  0  0  0
  148.6813  138.8966  157.1401 H   0  0  0  0  0  0  0  0  0  0  0  0
  150.3042  136.4625  157.1763 H   0  0  0  0  0  0  0  0  0  0  0  0
  151.2792  135.9961  158.5412 H   0  0  0  0  0  0  0  0  0  0  0  0
  149.6234  137.2710  160.0495 H   0  0  0  0  0  0  0  0  0  0  0  0
  148.6322  137.5482  158.6189 H   0  0  0  0  0  0  0  0  0  0  0  0
  148.2489  137.2223  161.3581 H   0  0  0  0  0  0  0  0  0  0  0  0
  146.8545  136.6075  163.2834 H   0  0  0  0  0  0  0  0  0  0  0  0
  145.8111  134.3541  163.4172 H   0  0  0  0  0  0  0  0  0  0  0  0
  146.1772  132.7076  161.5917 H   0  0  0  0  0  0  0  0  0  0  0  0
  1  2  1  0  0  0  0
  1 25  1  0  0  0  0
  1 26  1  0  0  0  0
  1 27  1  0  0  0  0
  2  3  1  0  0  0  0
  2  6  1  0  0  0  0
  2 28  1  0  0  0  0
  3  4  1  0  0  0  0
  3 29  1  0  0  0  0
  4  5  2  0  0  0  0
  4 30  1  0  0  0  0
  6 14  1  0  0  0  0
  6  7  2  0  0  0  0
  7  8  1  0  0  0  0
  8 13  2  0  0  0  0
  8  9  1  0  0  0  0
  9 10  2  0  0  0  0
  9 31  1  0  0  0  0
 10 11  1  0  0  0  0
 10 32  1  0  0  0  0
 11 12  2  0  0  0  0
 11 33  1  0  0  0  0
 12 13  1  0  0  0  0
 12 34  1  0  0  0  0
 13 14  1  0  0  0  0
 14 15  1  0  0  0  0
 15 16  1  0  0  0  0
 15 35  1  0  0  0  0
 15 36  1  0  0  0  0
 16 17  1  0  0  0  0
 16 37  1  0  0  0  0
 16 38  1  0  0  0  0
 17 18  1  0  0  0  0
 18 23  1  0  0  0  0
 18 19  2  0  0  0  0
 19 20  1  0  0  0  0
 19 39  1  0  0  0  0
 20 21  2  0  0  0  0
 20 40  1  0  0  0  0
 21 22  1  0  0  0  0
 21 41  1  0  0  0  0
 22 23  2  0  0  0  0
 22 42  1  0  0  0  0
 23 24  1  0  0  0  0
M  END
> <s_m_source_file>
AV-unprocessed.smi

> <i_m_source_file_index>
2954

> <i_lp_mmshare_version>
43012

> <i_f3d_flags>
0

> <s_epik_input>
Tz1bQ0hdW05IXVtDQEBIXShbQ0gzXSljKG4xKW4oYyhjMTIpW2NIXVtjSF1bY0hdW2NIXTIpW0NIMl1bQ0gyXU9jM1tjSF1bY0hdW2NIXVtjSF1jM0Ns

> <s_epik_cmdline>
J2VwaWtfcHl0aG9uJywgJy1waCcsICc3LjAnLCAnLXRuJywgJzgnLCAnLW1hJywgJzIwMCcsICctbWV0YWxfYmluZGluZycsICctaW1hZScsICc8aW5maWxlLm1hZT4nLCAnLW9tYWUnLCAnPG91dGZpbGUubWFlPic=

> <r_lp_tautomer_probability>
1

> <r_epik_Ionization_Penalty>
0.0861383

> <r_epik_Ionization_Penalty_Charging>
0

> <r_epik_Ionization_Penalty_Neutral>
0.0861383

> <r_epik_State_Penalty>
0.0766841

> <r_epik_Charging_Adjusted_Penalty>
0.0766841

> <i_epik_Tot_Q>
0

> <i_epik_Tot_abs_Q>
0

> <r_epik_Metal_State_Penalty>
0.0668745

> <b_epik_Metal_Only>
0

> <s_lp_Force_Field>
OPLS_2005

> <r_lp_Energy>
11.8377

> <b_lp_Chiralities_Consistent>
1

> <s_lp_Variant>
AV-unprocessed.smi:2954-2

> <Gold.Version>
5.8.1

> <Gold.Id.Protein>
6NUR|6NUR_protein|mol2

> <Gold.PLP.Fitness>
42.6888

> <Gold.PLP.PLP>
-37.1206

> <Gold.PLP.part.hbond>
-2.0000

> <Gold.PLP.part.metal>
0.0000

> <Gold.PLP.part.buried>
-4.1197

> <Gold.PLP.part.nonpolar>
-31.4777

> <Gold.PLP.part.repulsive>
0.1368

> <Gold.PLP.ligand.clash>
0.0000

> <Gold.PLP.ligand.torsion>
0.2450

> <Gold.PLP.Chemscore.Hbond>
2.0000

> <Gold.PLP.Chemscore.CHOScore>
0.0000

> <Gold.PLP.Chemscore.Metal>
0.0000

> <Gold.Chemscore.Hbonds>
donor molecule, donor type, donor heavy atom, donor atom, acceptor molecule, acceptor atom, score
      P1  H  6896  6908       L1    17  0.51
      P1  H  7997  8009       L1     7  0.94

> <Gold.PLP.Chemscore.Internal.Correction>
0.0582

> <Gold.Rescore>
     Score         DG    S(hbond)    S(metal)    S(lipo)     H(rot)  DE(clash)    DE(int)     intcor
     15.55     -15.85       1.27        0.00     102.44       2.28       0.14       0.16       ----

> <Gold.Chemscore.Fitness>
15.5455

> <Gold.Chemscore.DG>
-15.8519

> <Gold.Chemscore.ZeroCoef>
-5.4800

> <Gold.Chemscore.Hbond>
1.2681

> <Gold.Chemscore.Metal>
0.0000

> <Gold.Chemscore.Lipo>
102.4436

> <Gold.Chemscore.Internal_Hbond>
0.0000

> <Gold.Chemscore.DEClash>
0.1416

> <Gold.Chemscore.DEInternal>
0.1648

> <Gold.Chemscore.Rot>
2.2849

> <Gold.Chemscore.Internal.Correction>
   9.000000E+99

> <Gold.Chemscore.Hbonds>
donor molecule, donor type, donor heavy atom, donor atom, acceptor molecule, acceptor atom, score
      P1  H  6896  6908       L1    17  0.03
      P1  H  7997  8009       L1     7  0.62

> <Gold.Chemscore.Hbond.Weighted>
-4.2354

> <Gold.Chemscore.Metal.Weighted>
-0.0000

> <Gold.Chemscore.Lipo.Weighted>
-11.9859

> <Gold.Chemscore.Internal_Hbond.Weighted>
0.0000

> <Gold.Chemscore.DEClash.Weighted>
0.1416

> <Gold.Chemscore.DEInternal.Weighted>
0.1648

> <Gold.Chemscore.Rot.Weighted>
5.8495

> <Gold.Chemscore.Internal.Correction.Weighted>
   9.000000E+99

> <Gold.Protein.RotatedTorsions>
[ 6907 6896 6895 6894 ] final  169.17 input  -60.11 | X-H torsion
[ 7974 7965 7964 7962 ] final   77.81 input  175.53 | X-H torsion
[ 8008 7997 7996 7995 ] final  158.75 input   59.86 | X-H torsion
[ 10167 10162 10161 10158 ] final  178.52 input  -65.29 | X-H torsion
[ 10718 10713 10712 10709 ] final  -64.93 input   66.30 | X-H torsion
[ 10763 10752 10751 10750 ] final  151.57 input  -60.55 | X-H torsion
[ 11005 11000 10999 10996 ] final -163.13 input  -57.11 | X-H torsion

> <Gold.Protein.ActiveResidues>
 VAL166  LYS551  ARG553  GLY616  TRP617  ASP618  TYR619  PRO620  LYS621  CYS622 
 ASP623  PHE694  ASN695  SER759  ASP760  ASP761  ALA762  ILE779  LEU786  VAL792 
 PHE793  MET794  SER795  GLU796  ALA797  LYS798  CYS799  TRP800  GLU811  SER814 

> <Gold.Protein.RotatedAtoms>
  151.8361  133.3416  159.3628 H   0  0  0  0  0  0  0  0  0  0  0  0  # atno 6907 bound_to 6896
  150.7249  134.5436  159.5769 H   0  0  0  0  0  0  0  0  0  0  0  0  # atno 6908 bound_to 6896
  152.2900  134.7733  160.0431 H   0  0  0  0  0  0  0  0  0  0  0  0  # atno 6909 bound_to 6896
  145.6852  139.2536  143.1791 H   0  0  0  0  0  0  0  0  0  0  0  0  # atno 7974 bound_to 7965
  156.2283  140.1850  156.7308 H   0  0  0  0  0  0  0  0  0  0  0  0  # atno 8008 bound_to 7997
  154.5978  140.0640  156.9355 H   0  0  0  0  0  0  0  0  0  0  0  0  # atno 8009 bound_to 7997
  155.2226  140.3308  155.4316 H   0  0  0  0  0  0  0  0  0  0  0  0  # atno 8010 bound_to 7997
  139.5297  144.2671  152.0659 H   0  0  0  0  0  0  0  0  0  0  0  0  # atno 10167 bound_to 10162
  156.0699  130.4240  150.1491 H   0  0  0  0  0  0  0  0  0  0  0  0  # atno 10718 bound_to 10713
  154.1058  135.2842  155.3241 H   0  0  0  0  0  0  0  0  0  0  0  0  # atno 10763 bound_to 10752
  154.6524  135.5364  153.7920 H   0  0  0  0  0  0  0  0  0  0  0  0  # atno 10764 bound_to 10752
  153.0362  135.6513  154.1220 H   0  0  0  0  0  0  0  0  0  0  0  0  # atno 10765 bound_to 10752
  140.6016  134.4942  157.5206 H   0  0  0  0  0  0  0  0  0  0  0  0  # atno 11005 bound_to 11000
  146.0929  140.7634  142.9586 LP  0  0  0  0  0  0  0  0  0  0  0  0  # atno 17320 bound_to 7965
  144.7013  140.3666  143.7153 LP  0  0  0  0  0  0  0  0  0  0  0  0  # atno 17321 bound_to 7965
  140.2132  144.4541  150.6376 LP  0  0  0  0  0  0  0  0  0  0  0  0  # atno 17342 bound_to 10162
  140.6467  143.2215  151.6171 LP  0  0  0  0  0  0  0  0  0  0  0  0  # atno 17343 bound_to 10162
  156.9544  130.9785  151.3492 LP  0  0  0  0  0  0  0  0  0  0  0  0  # atno 17370 bound_to 10713
  157.5764  130.8346  149.8462 LP  0  0  0  0  0  0  0  0  0  0  0  0  # atno 17371 bound_to 10713
  139.9230  134.8111  156.1153 LP  0  0  0  0  0  0  0  0  0  0  0  0  # atno 17394 bound_to 11000
  141.0868  133.6730  156.2455 LP  0  0  0  0  0  0  0  0  0  0  0  0  # atno 17395 bound_to 11000

$$$$
