AV-unprocessed.smi:1824|AV-procd|sdf|7401|dock2
  -GOLD-   22720 9 73D 1   1.00000     0.00000
 Structure written by MMmdl.
 45 47  0  0  0  0  0  0  0  0  2 V2000
  145.9913  142.9398  154.0210 C   0  0  0  0  0  0  0  0  0  0  0  0
  146.7597  141.6522  154.3377 C   0  0  2  0  0  0  0  0  0  0  0  0
  148.2016  141.9377  154.7949 C   0  0  0  0  0  0  0  0  0  0  0  0
  148.9332  140.6667  155.0121 N   0  3  2  0  0  0  0  0  0  0  0  0
  150.3038  140.8489  155.5548 C   0  0  0  0  0  0  0  0  0  0  0  0
  150.3129  141.5640  156.9209 C   0  0  1  0  0  0  0  0  0  0  0  0
  150.2561  140.5897  157.9461 O   0  0  0  0  0  0  0  0  0  0  0  0
  151.5777  142.4254  157.1035 C   0  0  0  0  0  0  0  0  0  0  0  0
  151.6070  143.1128  158.3826 N   0  0  0  0  0  0  0  0  0  0  0  0
  150.9829  144.2629  158.7034 C   0  0  0  0  0  0  0  0  0  0  0  0
  151.1430  144.7182  159.9424 N   0  0  0  0  0  0  0  0  0  0  0  0
  151.9638  143.7491  160.4927 C   0  0  0  0  0  0  0  0  0  0  0  0
  152.5043  143.6356  161.7934 C   0  0  0  0  0  0  0  0  0  0  0  0
  153.3281  142.5422  162.1325 C   0  0  0  0  0  0  0  0  0  0  0  0
  153.8359  142.4477  163.3842 F   0  0  0  0  0  0  0  0  0  0  0  0
  153.6248  141.5479  161.1763 C   0  0  0  0  0  0  0  0  0  0  0  0
  154.4169  140.5013  161.5094 F   0  0  0  0  0  0  0  0  0  0  0  0
  153.0976  141.6394  159.8738 C   0  0  0  0  0  0  0  0  0  0  0  0
  152.2746  142.7311  159.5413 C   0  0  0  0  0  0  0  0  0  0  0  0
  148.9155  139.8471  153.7772 C   0  0  0  0  0  0  0  0  0  0  0  0
  147.4733  139.6107  153.2865 C   0  0  1  0  0  0  0  0  0  0  0  0
  146.6899  138.6000  154.1431 C   0  0  0  0  0  0  0  0  0  0  0  0
  146.7868  140.8557  153.1560 O   0  0  0  0  0  0  0  0  0  0  0  0
  145.9323  143.5875  154.8962 H   0  0  0  0  0  0  0  0  0  0  0  0
  144.9720  142.7172  153.7043 H   0  0  0  0  0  0  0  0  0  0  0  0
  146.4733  143.5014  153.2203 H   0  0  0  0  0  0  0  0  0  0  0  0
  146.2224  141.1249  155.1262 H   0  0  0  0  0  0  0  0  0  0  0  0
  148.7236  142.5364  154.0468 H   0  0  0  0  0  0  0  0  0  0  0  0
  148.1773  142.5254  155.7118 H   0  0  0  0  0  0  0  0  0  0  0  0
  150.7828  139.8754  155.6726 H   0  0  0  0  0  0  0  0  0  0  0  0
  150.9075  141.3980  154.8306 H   0  0  0  0  0  0  0  0  0  0  0  0
  149.4398  142.2087  157.0172 H   0  0  0  0  0  0  0  0  0  0  0  0
  150.4947  140.9965  158.7655 H   0  0  0  0  0  0  0  0  0  0  0  0
  152.4758  141.8119  157.0174 H   0  0  0  0  0  0  0  0  0  0  0  0
  151.6382  143.1752  156.3138 H   0  0  0  0  0  0  0  0  0  0  0  0
  150.3776  144.7978  157.9860 H   0  0  0  0  0  0  0  0  0  0  0  0
  152.2839  144.3911  162.5329 H   0  0  0  0  0  0  0  0  0  0  0  0
  153.3217  140.8785  159.1413 H   0  0  0  0  0  0  0  0  0  0  0  0
  149.4876  140.3604  153.0026 H   0  0  0  0  0  0  0  0  0  0  0  0
  149.4086  138.8898  153.9518 H   0  0  0  0  0  0  0  0  0  0  0  0
  147.5300  139.1917  152.2812 H   0  0  0  0  0  0  0  0  0  0  0  0
  147.1636  137.6184  154.1125 H   0  0  0  0  0  0  0  0  0  0  0  0
  145.6713  138.4846  153.7722 H   0  0  0  0  0  0  0  0  0  0  0  0
  146.6330  138.8983  155.1894 H   0  0  0  0  0  0  0  0  0  0  0  0
  148.4202  140.1426  155.7072 H   0  0  0  0  0  0  0  0  0  0  0  0
  1  2  1  0  0  0  0
  1 24  1  0  0  0  0
  1 25  1  0  0  0  0
  1 26  1  0  0  0  0
  2 23  1  0  0  0  0
  2  3  1  0  0  0  0
  2 27  1  0  0  0  0
  3  4  1  0  0  0  0
  3 28  1  0  0  0  0
  3 29  1  0  0  0  0
  4  5  1  0  0  0  0
  4 20  1  0  0  0  0
  4 45  1  0  0  0  0
  5  6  1  0  0  0  0
  5 30  1  0  0  0  0
  5 31  1  0  0  0  0
  6  7  1  0  0  0  0
  6  8  1  0  0  0  0
  6 32  1  0  0  0  0
  7 33  1  0  0  0  0
  8  9  1  0  0  0  0
  8 34  1  0  0  0  0
  8 35  1  0  0  0  0
  9 19  1  0  0  0  0
  9 10  1  0  0  0  0
 10 11  2  0  0  0  0
 10 36  1  0  0  0  0
 11 12  1  0  0  0  0
 12 19  2  0  0  0  0
 12 13  1  0  0  0  0
 13 14  2  0  0  0  0
 13 37  1  0  0  0  0
 14 15  1  0  0  0  0
 14 16  1  0  0  0  0
 16 17  1  0  0  0  0
 16 18  2  0  0  0  0
 18 19  1  0  0  0  0
 18 38  1  0  0  0  0
 20 21  1  0  0  0  0
 20 39  1  0  0  0  0
 20 40  1  0  0  0  0
 21 22  1  0  0  0  0
 21 23  1  0  0  0  0
 21 41  1  0  0  0  0
 22 42  1  0  0  0  0
 22 43  1  0  0  0  0
 22 44  1  0  0  0  0
M  CHG  1   4   1
M  END
> <s_m_source_file>
AV-unprocessed.smi

> <i_m_source_file_index>
1824

> <i_lp_mmshare_version>
43012

> <i_f3d_flags>
0

> <s_epik_input>
W0NIM11bQ0BASF0xW0NIMl1OKFtDSDJdW0NASF0oTzEpW0NIM10pW0NIMl1bQ0BIXShbT0hdKVtDSDJdbihbY0hdbjIpYyhjMjMpW2NIXWMoRiljKEYpW2NIXTM=

> <s_epik_cmdline>
J2VwaWtfcHl0aG9uJywgJy1waCcsICc3LjAnLCAnLXRuJywgJzgnLCAnLW1hJywgJzIwMCcsICctbWV0YWxfYmluZGluZycsICctaW1hZScsICc8aW5maWxlLm1hZT4nLCAnLW9tYWUnLCAnPG91dGZpbGUubWFlPic=

> <r_epik_Ionization_Penalty>
0.61967

> <r_epik_Ionization_Penalty_Charging>
0.608065

> <r_epik_Ionization_Penalty_Neutral>
0.0116057

> <r_epik_State_Penalty>
0.664205

> <r_epik_Charging_Adjusted_Penalty>
1.27227

> <i_epik_Tot_Q>
1

> <i_epik_Tot_abs_Q>
1

> <r_epik_Metal_State_Penalty>
0.654947

> <b_epik_Metal_Only>
0

> <s_lp_Force_Field>
OPLS_2005

> <r_lp_Energy>
23.0579

> <b_lp_Chiralities_Consistent>
1

> <s_lp_Variant>
AV-unprocessed.smi:1824-9

> <Gold.Version>
5.8.1

> <Gold.Id.Protein>
6NUR|6NUR_protein|mol2

> <Gold.PLP.Fitness>
54.5874

> <Gold.PLP.PLP>
-53.0790

> <Gold.PLP.part.hbond>
0.0000

> <Gold.PLP.part.metal>
0.0000

> <Gold.PLP.part.buried>
-2.8377

> <Gold.PLP.part.nonpolar>
-50.5676

> <Gold.PLP.part.repulsive>
0.4519

> <Gold.PLP.ligand.clash>
0.0000

> <Gold.PLP.ligand.torsion>
0.7267

> <Gold.PLP.Chemscore.Hbond>
0.0000

> <Gold.PLP.Chemscore.CHOScore>
0.9681

> <Gold.PLP.Chemscore.Metal>
0.0000

> <Gold.Chemscore.Hbonds>
donor molecule, donor type, donor heavy atom, donor atom, acceptor molecule, acceptor atom, score
      L1  C    10    36       P1  8028  0.39
      L1  C    10    36       P1  8029  0.17

> <Gold.PLP.Chemscore.Internal.Correction>
0.0575

> <Gold.Rescore>
     Score         DG    S(hbond)    S(metal)    S(lipo)     H(rot)  DE(clash)    DE(int)     intcor
     12.59     -13.57       0.00        0.00     120.00       2.33       0.26       0.72       ----

> <Gold.Chemscore.Fitness>
12.5918

> <Gold.Chemscore.DG>
-13.5672

> <Gold.Chemscore.ZeroCoef>
-5.4800

> <Gold.Chemscore.Hbond>
0.0000

> <Gold.Chemscore.Metal>
0.0000

> <Gold.Chemscore.Lipo>
119.9957

> <Gold.Chemscore.Internal_Hbond>
0.0000

> <Gold.Chemscore.DEClash>
0.2576

> <Gold.Chemscore.DEInternal>
0.7178

> <Gold.Chemscore.Rot>
2.3251

> <Gold.Chemscore.Internal.Correction>
   9.000000E+99

> <Gold.Chemscore.Hbond.Weighted>
-0.0000

> <Gold.Chemscore.Metal.Weighted>
-0.0000

> <Gold.Chemscore.Lipo.Weighted>
-14.0395

> <Gold.Chemscore.Internal_Hbond.Weighted>
0.0000

> <Gold.Chemscore.DEClash.Weighted>
0.2576

> <Gold.Chemscore.DEInternal.Weighted>
0.7178

> <Gold.Chemscore.Rot.Weighted>
5.9523

> <Gold.Chemscore.Internal.Correction.Weighted>
   9.000000E+99

> <Gold.Protein.RotatedTorsions>
[ 6907 6896 6895 6894 ] final   25.34 input  -60.11 | X-H torsion
[ 7974 7965 7964 7962 ] final   -8.23 input  175.53 | X-H torsion
[ 8008 7997 7996 7995 ] final   65.27 input   59.86 | X-H torsion
[ 10167 10162 10161 10158 ] final   42.82 input  -65.29 | X-H torsion
[ 10718 10713 10712 10709 ] final    3.62 input   66.30 | X-H torsion
[ 10763 10752 10751 10750 ] final  -77.22 input  -60.55 | X-H torsion
[ 11005 11000 10999 10996 ] final  -93.59 input  -57.11 | X-H torsion

> <Gold.Protein.ActiveResidues>
 VAL166  LYS551  ARG553  GLY616  TRP617  ASP618  TYR619  PRO620  LYS621  CYS622 
 ASP623  PHE694  ASN695  SER759  ASP760  ASP761  ALA762  ILE779  LEU786  VAL792 
 PHE793  MET794  SER795  GLU796  ALA797  LYS798  CYS799  TRP800  GLU811  SER814 

> <Gold.Protein.RotatedAtoms>
  151.9710  135.0076  160.0552 H   0  0  0  0  0  0  0  0  0  0  0  0  # atno 6907 bound_to 6896
  152.1783  133.4685  159.4953 H   0  0  0  0  0  0  0  0  0  0  0  0  # atno 6908 bound_to 6896
  150.6913  134.1783  159.4282 H   0  0  0  0  0  0  0  0  0  0  0  0  # atno 6909 bound_to 6896
  146.2286  140.2437  142.8344 H   0  0  0  0  0  0  0  0  0  0  0  0  # atno 7974 bound_to 7965
  155.6591  140.3497  155.4776 H   0  0  0  0  0  0  0  0  0  0  0  0  # atno 8008 bound_to 7997
  155.9784  140.1169  157.0772 H   0  0  0  0  0  0  0  0  0  0  0  0  # atno 8009 bound_to 7997
  154.4185  140.1143  156.5388 H   0  0  0  0  0  0  0  0  0  0  0  0  # atno 8010 bound_to 7997
  140.3506  144.2355  150.6146 H   0  0  0  0  0  0  0  0  0  0  0  0  # atno 10167 bound_to 10162
  156.8805  130.5652  149.5653 H   0  0  0  0  0  0  0  0  0  0  0  0  # atno 10718 bound_to 10713
  154.5102  135.5771  153.6598 H   0  0  0  0  0  0  0  0  0  0  0  0  # atno 10763 bound_to 10752
  152.9895  135.6157  154.2889 H   0  0  0  0  0  0  0  0  0  0  0  0  # atno 10764 bound_to 10752
  154.2803  135.2851  155.2679 H   0  0  0  0  0  0  0  0  0  0  0  0  # atno 10765 bound_to 10752
  141.1493  133.7898  157.0181 H   0  0  0  0  0  0  0  0  0  0  0  0  # atno 11005 bound_to 11000
  144.9464  140.8133  143.5598 LP  0  0  0  0  0  0  0  0  0  0  0  0  # atno 17320 bound_to 7965
  145.2394  139.2079  143.5001 LP  0  0  0  0  0  0  0  0  0  0  0  0  # atno 17321 bound_to 7965
  140.5223  143.2263  151.8370 LP  0  0  0  0  0  0  0  0  0  0  0  0  # atno 17342 bound_to 10162
  139.4827  144.4822  151.9292 LP  0  0  0  0  0  0  0  0  0  0  0  0  # atno 17343 bound_to 10162
  156.0680  130.5719  150.9327 LP  0  0  0  0  0  0  0  0  0  0  0  0  # atno 17370 bound_to 10713
  157.6143  131.0934  150.8738 LP  0  0  0  0  0  0  0  0  0  0  0  0  # atno 17371 bound_to 10713
  140.0834  134.9635  157.1660 LP  0  0  0  0  0  0  0  0  0  0  0  0  # atno 17394 bound_to 11000
  140.3545  134.2561  155.7194 LP  0  0  0  0  0  0  0  0  0  0  0  0  # atno 17395 bound_to 11000

$$$$
