AV-unprocessed.smi:224|AV-procd|sdf|1713|dock8
  -GOLD-   2262020183D 1   1.00000     0.00000
 Structure written by MMmdl.
 56 59  0  0  0  0  0  0  0  0  2 V2000
  147.1156  140.4780  153.1538 C   0  0  0  0  0  0  0  0  0  0  0  0
  146.9666  138.9809  152.8535 C   0  0  2  0  0  0  0  0  0  0  0  0
  145.6309  138.7517  152.4515 O   0  0  0  0  0  0  0  0  0  0  0  0
  147.2886  138.1166  154.0894 C   0  0  0  0  0  0  0  0  0  0  0  0
  148.7004  137.6514  154.1212 N   0  3  1  0  0  0  0  0  0  0  0  0
  149.7005  138.7483  154.0169 C   0  0  0  0  0  0  0  0  0  0  0  0
  151.1268  138.1807  153.9041 C   0  0  0  0  0  0  0  0  0  0  0  0
  151.4123  137.2486  154.9932 N   0  0  0  0  0  0  0  0  0  0  0  0
  151.9938  137.7095  156.1341 C   0  0  0  0  0  0  0  0  0  0  0  0
  152.8455  136.9047  156.8248 N   0  0  0  0  0  0  0  0  0  0  0  0
  153.4367  137.3390  157.9410 C   0  0  0  0  0  0  0  0  0  0  0  0
  153.3168  138.5241  158.5397 N   0  0  0  0  0  0  0  0  0  0  0  0
  152.4571  139.3361  157.8617 C   0  0  0  0  0  0  0  0  0  0  0  0
  151.7582  139.0118  156.6635 C   0  0  0  0  0  0  0  0  0  0  0  0
  150.9613  140.0852  156.2816 N   0  0  0  0  0  0  0  0  0  0  0  0
  151.1853  140.9930  157.1918 C   0  0  0  0  0  0  0  0  0  0  0  0
  152.0741  140.6281  158.1769 N   0  0  0  0  0  0  0  0  0  0  0  0
  152.4958  141.4383  159.3095 C   0  0  0  0  0  0  0  0  0  0  0  0
  151.7521  142.7901  159.4106 C   0  0  2  0  0  0  0  0  0  0  0  0
  150.3644  142.5419  159.5597 O   0  0  0  0  0  0  0  0  0  0  0  0
  151.9555  143.7080  158.2087 C   0  0  0  0  0  0  0  0  0  0  0  0
  151.8769  145.0969  158.8262 C   0  0  0  0  0  0  0  0  0  0  0  0
  152.5668  144.9284  160.0526 O   0  0  0  0  0  0  0  0  0  0  0  0
  152.2225  143.6577  160.5955 C   0  0  0  0  0  0  0  0  0  0  0  0
  150.4422  136.1623  155.1214 C   0  0  0  0  0  0  0  0  0  0  0  0
  148.9949  136.6935  155.2291 C   0  0  1  0  0  0  0  0  0  0  0  0
  148.6869  137.2641  156.6306 C   0  0  0  0  0  0  0  0  0  0  0  0
  148.1370  140.7181  153.4497 H   0  0  0  0  0  0  0  0  0  0  0  0
  146.4529  140.7907  153.9616 H   0  0  0  0  0  0  0  0  0  0  0  0
  146.8777  141.0809  152.2768 H   0  0  0  0  0  0  0  0  0  0  0  0
  147.6240  138.7344  152.0206 H   0  0  0  0  0  0  0  0  0  0  0  0
  145.1756  139.5782  152.4102 H   0  0  0  0  0  0  0  0  0  0  0  0
  147.0744  138.6712  155.0043 H   0  0  0  0  0  0  0  0  0  0  0  0
  146.6185  137.2551  154.0904 H   0  0  0  0  0  0  0  0  0  0  0  0
  149.5014  139.3649  153.1417 H   0  0  0  0  0  0  0  0  0  0  0  0
  149.6190  139.4068  154.8821 H   0  0  0  0  0  0  0  0  0  0  0  0
  151.2278  137.6378  152.9636 H   0  0  0  0  0  0  0  0  0  0  0  0
  151.8631  138.9845  153.8639 H   0  0  0  0  0  0  0  0  0  0  0  0
  154.1008  136.6368  158.4231 H   0  0  0  0  0  0  0  0  0  0  0  0
  150.7057  141.9611  157.1700 H   0  0  0  0  0  0  0  0  0  0  0  0
  152.3460  140.8572  160.2204 H   0  0  0  0  0  0  0  0  0  0  0  0
  153.5706  141.6057  159.2289 H   0  0  0  0  0  0  0  0  0  0  0  0
  150.2538  141.7938  160.1266 H   0  0  0  0  0  0  0  0  0  0  0  0
  152.9541  143.5697  157.7935 H   0  0  0  0  0  0  0  0  0  0  0  0
  151.2360  143.5499  157.4041 H   0  0  0  0  0  0  0  0  0  0  0  0
  152.3401  145.8638  158.2051 H   0  0  0  0  0  0  0  0  0  0  0  0
  150.8424  145.3845  159.0202 H   0  0  0  0  0  0  0  0  0  0  0  0
  151.4442  143.7810  161.3505 H   0  0  0  0  0  0  0  0  0  0  0  0
  153.0962  143.2382  161.0954 H   0  0  0  0  0  0  0  0  0  0  0  0
  150.5322  135.5378  154.2320 H   0  0  0  0  0  0  0  0  0  0  0  0
  150.6562  135.5085  155.9649 H   0  0  0  0  0  0  0  0  0  0  0  0
  148.3377  135.8342  155.0890 H   0  0  0  0  0  0  0  0  0  0  0  0
  148.9383  136.5386  157.4048 H   0  0  0  0  0  0  0  0  0  0  0  0
  147.6295  137.5000  156.7483 H   0  0  0  0  0  0  0  0  0  0  0  0
  149.2520  138.1708  156.8422 H   0  0  0  0  0  0  0  0  0  0  0  0
  148.8155  137.1036  153.2809 H   0  0  0  0  0  0  0  0  0  0  0  0
  1  2  1  0  0  0  0
  1 28  1  0  0  0  0
  1 29  1  0  0  0  0
  1 30  1  0  0  0  0
  2  3  1  0  0  0  0
  2  4  1  0  0  0  0
  2 31  1  0  0  0  0
  3 32  1  0  0  0  0
  4  5  1  0  0  0  0
  4 33  1  0  0  0  0
  4 34  1  0  0  0  0
  5 26  1  0  0  0  0
  5  6  1  0  0  0  0
  5 56  1  0  0  0  0
  6  7  1  0  0  0  0
  6 35  1  0  0  0  0
  6 36  1  0  0  0  0
  7  8  1  0  0  0  0
  7 37  1  0  0  0  0
  7 38  1  0  0  0  0
  8  9  1  0  0  0  0
  8 25  1  0  0  0  0
  9 14  1  0  0  0  0
  9 10  2  0  0  0  0
 10 11  1  0  0  0  0
 11 12  2  0  0  0  0
 11 39  1  0  0  0  0
 12 13  1  0  0  0  0
 13 17  1  0  0  0  0
 13 14  2  0  0  0  0
 14 15  1  0  0  0  0
 15 16  2  0  0  0  0
 16 17  1  0  0  0  0
 16 40  1  0  0  0  0
 17 18  1  0  0  0  0
 18 19  1  0  0  0  0
 18 41  1  0  0  0  0
 18 42  1  0  0  0  0
 19 24  1  0  0  0  0
 19 20  1  0  0  0  0
 19 21  1  0  0  0  0
 20 43  1  0  0  0  0
 21 22  1  0  0  0  0
 21 44  1  0  0  0  0
 21 45  1  0  0  0  0
 22 23  1  0  0  0  0
 22 46  1  0  0  0  0
 22 47  1  0  0  0  0
 23 24  1  0  0  0  0
 24 48  1  0  0  0  0
 24 49  1  0  0  0  0
 25 26  1  0  0  0  0
 25 50  1  0  0  0  0
 25 51  1  0  0  0  0
 26 27  1  0  0  0  0
 26 52  1  0  0  0  0
 27 53  1  0  0  0  0
 27 54  1  0  0  0  0
 27 55  1  0  0  0  0
M  CHG  1   5   1
M  END
> <s_m_source_file>
AV-unprocessed.smi

> <i_m_source_file_index>
224

> <i_lp_mmshare_version>
43012

> <i_f3d_flags>
0

> <s_epik_input>
W0NIM11bQ0BIXShbT0hdKVtDSDJdTjFbQ0gyXVtDSDJdTihbQ0gyXVtDQEhdMVtDSDNdKWMobltjSF1uMiljKGMyMyluW2NIXW4zW0NIMl1bQ0BAXTQoW09IXSlbQ0gyXVtDSDJdT1tDSDJdNA==

> <s_epik_cmdline>
J2VwaWtfcHl0aG9uJywgJy1waCcsICc3LjAnLCAnLXRuJywgJzgnLCAnLW1hJywgJzIwMCcsICctbWV0YWxfYmluZGluZycsICctaW1hZScsICc8aW5maWxlLm1hZT4nLCAnLW9tYWUnLCAnPG91dGZpbGUubWFlPic=

> <r_lp_tautomer_probability>
1

> <r_epik_Ionization_Penalty>
0.00516958

> <r_epik_Ionization_Penalty_Charging>
0.00509693

> <r_epik_Ionization_Penalty_Neutral>
7.26542e-05

> <r_epik_State_Penalty>
-0

> <r_epik_Charging_Adjusted_Penalty>
0.00509693

> <i_epik_Tot_Q>
1

> <i_epik_Tot_abs_Q>
1

> <r_epik_Metal_State_Penalty>
-0

> <b_epik_Metal_Only>
0

> <s_lp_Force_Field>
OPLS_2005

> <r_lp_Energy>
51.1284

> <b_lp_Chiralities_Consistent>
1

> <s_lp_Variant>
AV-unprocessed.smi:224-7

> <Gold.Version>
5.8.1

> <Gold.Id.Protein>
6NUR|6NUR_protein|mol2

> <Gold.PLP.Fitness>
46.7251

> <Gold.PLP.PLP>
-40.1833

> <Gold.PLP.part.hbond>
-4.3226

> <Gold.PLP.part.metal>
0.0000

> <Gold.PLP.part.buried>
-1.4529

> <Gold.PLP.part.nonpolar>
-35.5530

> <Gold.PLP.part.repulsive>
0.0775

> <Gold.PLP.ligand.clash>
1.7854

> <Gold.PLP.ligand.torsion>
1.3604

> <Gold.PLP.Chemscore.Hbond>
3.5551

> <Gold.PLP.Chemscore.CHOScore>
0.0000

> <Gold.PLP.Chemscore.Metal>
0.0000

> <Gold.Chemscore.Hbonds>
donor molecule, donor type, donor heavy atom, donor atom, acceptor molecule, acceptor atom, score
      L1  H     3    32       P1 10175  0.99
      L1  H     5    56       P1  7948  2.00
      P1  H 10752 10764       L1    10  0.52

> <Gold.PLP.Chemscore.Internal.Correction>
0.3827

> <Gold.Rescore>
     Score         DG    S(hbond)    S(metal)    S(lipo)     H(rot)  DE(clash)    DE(int)     intcor
     12.93     -18.48       2.65        0.00     101.63       3.02       0.62       4.92       ----

> <Gold.Chemscore.Fitness>
12.9333

> <Gold.Chemscore.DG>
-18.4761

> <Gold.Chemscore.ZeroCoef>
-5.4800

> <Gold.Chemscore.Hbond>
2.6481

> <Gold.Chemscore.Metal>
0.0000

> <Gold.Chemscore.Lipo>
101.6293

> <Gold.Chemscore.Internal_Hbond>
0.0000

> <Gold.Chemscore.DEClash>
0.6214

> <Gold.Chemscore.DEInternal>
4.9215

> <Gold.Chemscore.Rot>
3.0231

> <Gold.Chemscore.Internal.Correction>
   9.000000E+99

> <Gold.Chemscore.Hbonds>
donor molecule, donor type, donor heavy atom, donor atom, acceptor molecule, acceptor atom, score
      L1  H     3    32       P1 10175  0.93
      L1  H     5    56       P1  7948  1.00
      P1  H 10752 10764       L1    10  0.12

> <Gold.Chemscore.Hbond.Weighted>
-8.8446

> <Gold.Chemscore.Metal.Weighted>
-0.0000

> <Gold.Chemscore.Lipo.Weighted>
-11.8906

> <Gold.Chemscore.Internal_Hbond.Weighted>
0.0000

> <Gold.Chemscore.DEClash.Weighted>
0.6214

> <Gold.Chemscore.DEInternal.Weighted>
4.9215

> <Gold.Chemscore.Rot.Weighted>
7.7391

> <Gold.Chemscore.Internal.Correction.Weighted>
   9.000000E+99

> <Gold.Protein.RotatedTorsions>
[ 6907 6896 6895 6894 ] final -147.66 input  -60.11 | X-H torsion
[ 7974 7965 7964 7962 ] final   29.35 input  175.53 | X-H torsion
[ 8008 7997 7996 7995 ] final -120.29 input   59.86 | X-H torsion
[ 10167 10162 10161 10158 ] final -140.99 input  -65.29 | X-H torsion
[ 10718 10713 10712 10709 ] final  -43.79 input   66.30 | X-H torsion
[ 10763 10752 10751 10750 ] final  -14.39 input  -60.55 | X-H torsion
[ 11005 11000 10999 10996 ] final   45.85 input  -57.11 | X-H torsion

> <Gold.Protein.ActiveResidues>
 VAL166  LYS551  ARG553  GLY616  TRP617  ASP618  TYR619  PRO620  LYS621  CYS622 
 ASP623  PHE694  ASN695  SER759  ASP760  ASP761  ALA762  ILE779  LEU786  VAL792 
 PHE793  MET794  SER795  GLU796  ALA797  LYS798  CYS799  TRP800  GLU811  SER814 

> <Gold.Protein.RotatedAtoms>
  151.1588  133.4859  159.2594 H   0  0  0  0  0  0  0  0  0  0  0  0  # atno 6907 bound_to 6896
  151.1476  135.0211  159.8664 H   0  0  0  0  0  0  0  0  0  0  0  0  # atno 6908 bound_to 6896
  152.5463  134.1475  159.8558 H   0  0  0  0  0  0  0  0  0  0  0  0  # atno 6909 bound_to 6896
  146.1677  139.6934  142.8990 H   0  0  0  0  0  0  0  0  0  0  0  0  # atno 7974 bound_to 7965
  155.1295  140.0400  157.2771 H   0  0  0  0  0  0  0  0  0  0  0  0  # atno 8008 bound_to 7997
  154.6553  140.2578  155.7142 H   0  0  0  0  0  0  0  0  0  0  0  0  # atno 8009 bound_to 7997
  156.2595  140.2828  156.1003 H   0  0  0  0  0  0  0  0  0  0  0  0  # atno 8010 bound_to 7997
  139.8228  143.7551  152.2666 H   0  0  0  0  0  0  0  0  0  0  0  0  # atno 10167 bound_to 10162
  156.2453  130.4183  149.8712 H   0  0  0  0  0  0  0  0  0  0  0  0  # atno 10718 bound_to 10713
  153.5275  135.7015  153.5700 H   0  0  0  0  0  0  0  0  0  0  0  0  # atno 10763 bound_to 10752
  153.3722  135.3942  155.1796 H   0  0  0  0  0  0  0  0  0  0  0  0  # atno 10764 bound_to 10752
  154.8688  135.3814  154.4769 H   0  0  0  0  0  0  0  0  0  0  0  0  # atno 10765 bound_to 10752
  140.1422  134.4568  155.8441 H   0  0  0  0  0  0  0  0  0  0  0  0  # atno 11005 bound_to 11000
  145.4425  141.0423  143.2850 LP  0  0  0  0  0  0  0  0  0  0  0  0  # atno 17320 bound_to 7965
  144.8116  139.5952  143.7027 LP  0  0  0  0  0  0  0  0  0  0  0  0  # atno 17321 bound_to 7965
  139.7734  144.7469  151.0191 LP  0  0  0  0  0  0  0  0  0  0  0  0  # atno 17342 bound_to 10162
  140.7812  143.4620  151.0265 LP  0  0  0  0  0  0  0  0  0  0  0  0  # atno 17343 bound_to 10162
  156.6280  130.8654  151.3489 LP  0  0  0  0  0  0  0  0  0  0  0  0  # atno 17370 bound_to 10713
  157.7192  130.9537  150.1373 LP  0  0  0  0  0  0  0  0  0  0  0  0  # atno 17371 bound_to 10713
  141.2187  133.6838  156.7268 LP  0  0  0  0  0  0  0  0  0  0  0  0  # atno 17394 bound_to 11000
  140.2708  134.8394  157.3845 LP  0  0  0  0  0  0  0  0  0  0  0  0  # atno 17395 bound_to 11000

$$$$
