AV-unprocessed.smi:3056|AV-procd|sdf|11646|dock9
  -GOLD-   2272017 43D 1   1.00000     0.00000
 Structure written by MMmdl.
 48 49  0  0  0  0  0  0  0  0  2 V2000
  152.4218  141.6925  158.4433 C   0  0  0  0  0  0  0  0  0  0  0  0
  151.6336  141.3593  157.2100 C   0  0  0  0  0  0  0  0  0  0  0  0
  150.7173  142.1907  156.5065 C   0  0  0  0  0  0  0  0  0  0  0  0
  150.1717  141.5861  155.4641 N   0  0  0  0  0  0  0  0  0  0  0  0
  150.7284  140.3555  155.4524 N   0  0  0  0  0  0  0  0  0  0  0  0
  150.3113  139.3864  154.4446 C   0  0  1  0  0  0  0  0  0  0  0  0
  151.1329  138.0911  154.5922 C   0  0  0  0  0  0  0  0  0  0  0  0
  148.7771  139.1600  154.5038 C   0  0  2  0  0  0  0  0  0  0  0  0
  148.3710  138.1511  155.5954 C   0  0  0  0  0  0  0  0  0  0  0  0
  148.2850  138.6918  153.1834 N   0  3  0  0  0  0  0  0  0  0  0  0
  146.8160  138.7213  152.9889 C   0  0  0  0  0  0  0  0  0  0  0  0
  146.3142  137.7021  151.9511 C   0  0  0  0  0  0  0  0  0  0  0  0
  146.6592  137.8319  150.7759 O   0  0  0  0  0  0  0  0  0  0  0  0
  145.5125  136.6890  152.3582 N   0  0  0  0  0  0  0  0  0  0  0  0
  145.1161  136.4022  153.7408 C   0  0  0  0  0  0  0  0  0  0  0  0
  145.6712  135.0207  154.1298 C   0  0  0  0  0  0  0  0  0  0  0  0
  145.1903  134.0353  153.2194 O   0  0  0  0  0  0  0  0  0  0  0  0
  145.5520  134.2948  151.8644 C   0  0  1  0  0  0  0  0  0  0  0  0
  145.0067  133.1562  150.9957 C   0  0  0  0  0  0  0  0  0  0  0  0
  144.9868  135.6674  151.4475 C   0  0  0  0  0  0  0  0  0  0  0  0
  151.6097  140.1910  156.5028 C   0  0  0  0  0  0  0  0  0  0  0  0
  152.5461  142.7686  158.5658 H   0  0  0  0  0  0  0  0  0  0  0  0
  153.4199  141.2553  158.4155 H   0  0  0  0  0  0  0  0  0  0  0  0
  151.9321  141.3208  159.3435 H   0  0  0  0  0  0  0  0  0  0  0  0
  150.4272  143.2074  156.7276 H   0  0  0  0  0  0  0  0  0  0  0  0
  150.5560  139.8067  153.4669 H   0  0  0  0  0  0  0  0  0  0  0  0
  150.9872  137.4233  153.7435 H   0  0  0  0  0  0  0  0  0  0  0  0
  150.8639  137.5445  155.4965 H   0  0  0  0  0  0  0  0  0  0  0  0
  152.2003  138.3096  154.6409 H   0  0  0  0  0  0  0  0  0  0  0  0
  148.3065  140.1183  154.7295 H   0  0  0  0  0  0  0  0  0  0  0  0
  148.6234  138.5131  156.5916 H   0  0  0  0  0  0  0  0  0  0  0  0
  148.8694  137.1918  155.4526 H   0  0  0  0  0  0  0  0  0  0  0  0
  147.2972  137.9663  155.5977 H   0  0  0  0  0  0  0  0  0  0  0  0
  148.6926  139.2811  152.4703 H   0  0  0  0  0  0  0  0  0  0  0  0
  146.3549  138.4794  153.9468 H   0  0  0  0  0  0  0  0  0  0  0  0
  146.4963  139.7276  152.7196 H   0  0  0  0  0  0  0  0  0  0  0  0
  145.4592  137.1407  154.4629 H   0  0  0  0  0  0  0  0  0  0  0  0
  144.0272  136.4003  153.8079 H   0  0  0  0  0  0  0  0  0  0  0  0
  146.7624  135.0257  154.1316 H   0  0  0  0  0  0  0  0  0  0  0  0
  145.3512  134.7550  155.1375 H   0  0  0  0  0  0  0  0  0  0  0  0
  146.6405  134.3052  151.7831 H   0  0  0  0  0  0  0  0  0  0  0  0
  145.2730  133.2999  149.9482 H   0  0  0  0  0  0  0  0  0  0  0  0
  143.9199  133.0955  151.0603 H   0  0  0  0  0  0  0  0  0  0  0  0
  145.4134  132.1955  151.3122 H   0  0  0  0  0  0  0  0  0  0  0  0
  143.8972  135.6632  151.5056 H   0  0  0  0  0  0  0  0  0  0  0  0
  145.2315  135.8648  150.4029 H   0  0  0  0  0  0  0  0  0  0  0  0
  152.1359  139.2623  156.6676 H   0  0  0  0  0  0  0  0  0  0  0  0
  148.6177  137.7486  153.0437 H   0  0  0  0  0  0  0  0  0  0  0  0
  1  2  1  0  0  0  0
  1 22  1  0  0  0  0
  1 23  1  0  0  0  0
  1 24  1  0  0  0  0
  2 21  2  0  0  0  0
  2  3  1  0  0  0  0
  3  4  2  0  0  0  0
  3 25  1  0  0  0  0
  4  5  1  0  0  0  0
  5  6  1  0  0  0  0
  5 21  1  0  0  0  0
  6  7  1  0  0  0  0
  6  8  1  0  0  0  0
  6 26  1  0  0  0  0
  7 27  1  0  0  0  0
  7 28  1  0  0  0  0
  7 29  1  0  0  0  0
  8  9  1  0  0  0  0
  8 10  1  0  0  0  0
  8 30  1  0  0  0  0
  9 31  1  0  0  0  0
  9 32  1  0  0  0  0
  9 33  1  0  0  0  0
 10 11  1  0  0  0  0
 10 34  1  0  0  0  0
 10 48  1  0  0  0  0
 11 12  1  0  0  0  0
 11 35  1  0  0  0  0
 11 36  1  0  0  0  0
 12 13  2  0  0  0  0
 12 14  1  0  0  0  0
 14 20  1  0  0  0  0
 14 15  1  0  0  0  0
 15 16  1  0  0  0  0
 15 37  1  0  0  0  0
 15 38  1  0  0  0  0
 16 17  1  0  0  0  0
 16 39  1  0  0  0  0
 16 40  1  0  0  0  0
 17 18  1  0  0  0  0
 18 19  1  0  0  0  0
 18 20  1  0  0  0  0
 18 41  1  0  0  0  0
 19 42  1  0  0  0  0
 19 43  1  0  0  0  0
 19 44  1  0  0  0  0
 20 45  1  0  0  0  0
 20 46  1  0  0  0  0
 21 47  1  0  0  0  0
M  CHG  1  10   1
M  END
> <s_m_source_file>
AV-unprocessed.smi

> <i_m_source_file_index>
3056

> <i_lp_mmshare_version>
43012

> <i_f3d_flags>
0

> <s_epik_input>
W0NIM11jMVtjSF1ubihbY0hdMSlbQ0BIXShbQ0gzXSlbQ0BIXShbQ0gzXSlbTkhdW0NIMl1DKD1PKU4yW0NIMl1bQ0gyXU9bQ0BASF0oW0NIM10pW0NIMl0y

> <s_epik_cmdline>
J2VwaWtfcHl0aG9uJywgJy1waCcsICc3LjAnLCAnLXRuJywgJzgnLCAnLW1hJywgJzIwMCcsICctbWV0YWxfYmluZGluZycsICctaW1hZScsICc8aW5maWxlLm1hZT4nLCAnLW9tYWUnLCAnPG91dGZpbGUubWFlPic=

> <r_lp_tautomer_probability>
1

> <r_epik_Ionization_Penalty>
0.233715

> <r_epik_Ionization_Penalty_Charging>
0.233698

> <r_epik_Ionization_Penalty_Neutral>
1.68157e-05

> <r_epik_State_Penalty>
0.225221

> <r_epik_Charging_Adjusted_Penalty>
0.458919

> <i_epik_Tot_Q>
1

> <i_epik_Tot_abs_Q>
1

> <r_epik_Metal_State_Penalty>
0.225535

> <b_epik_Metal_Only>
0

> <s_lp_Force_Field>
OPLS_2005

> <r_lp_Energy>
27.0437

> <b_lp_Chiralities_Consistent>
1

> <s_lp_Variant>
AV-unprocessed.smi:3056-2

> <Gold.Version>
5.8.1

> <Gold.Id.Protein>
6NUR|6NUR_protein|mol2

> <Gold.PLP.Fitness>
50.5442

> <Gold.PLP.PLP>
-36.8564

> <Gold.PLP.part.hbond>
-2.9201

> <Gold.PLP.part.metal>
0.0000

> <Gold.PLP.part.buried>
-2.0862

> <Gold.PLP.part.nonpolar>
-33.4706

> <Gold.PLP.part.repulsive>
1.5362

> <Gold.PLP.ligand.clash>
0.0000

> <Gold.PLP.ligand.torsion>
0.6954

> <Gold.PLP.Chemscore.Hbond>
3.9833

> <Gold.PLP.Chemscore.CHOScore>
1.0000

> <Gold.PLP.Chemscore.Metal>
0.0000

> <Gold.Chemscore.Hbonds>
donor molecule, donor type, donor heavy atom, donor atom, acceptor molecule, acceptor atom, score
      L1  H    10    34       P1  7957  1.00
      L1  H    10    48       P1  7948  1.98
      P1  H  7954  7966       L1    13  1.00
      L1  C     3    25       P1  8028  1.00

> <Gold.PLP.Chemscore.Internal.Correction>
0.1286

> <Gold.Rescore>
     Score         DG    S(hbond)    S(metal)    S(lipo)     H(rot)  DE(clash)    DE(int)     intcor
     17.52     -19.56       2.91        0.00      75.26       1.74       1.41       0.63       ----

> <Gold.Chemscore.Fitness>
17.5151

> <Gold.Chemscore.DG>
-19.5621

> <Gold.Chemscore.ZeroCoef>
-5.4800

> <Gold.Chemscore.Hbond>
2.9100

> <Gold.Chemscore.Metal>
0.0000

> <Gold.Chemscore.Lipo>
75.2585

> <Gold.Chemscore.Internal_Hbond>
0.0000

> <Gold.Chemscore.DEClash>
1.4149

> <Gold.Chemscore.DEInternal>
0.6322

> <Gold.Chemscore.Rot>
1.7354

> <Gold.Chemscore.Internal.Correction>
   9.000000E+99

> <Gold.Chemscore.Hbonds>
donor molecule, donor type, donor heavy atom, donor atom, acceptor molecule, acceptor atom, score
      L1  H    10    34       P1  7957  1.00
      L1  H    10    48       P1  7948  0.94
      P1  H  7954  7966       L1    13  0.99

> <Gold.Chemscore.Hbond.Weighted>
-9.7195

> <Gold.Chemscore.Metal.Weighted>
-0.0000

> <Gold.Chemscore.Lipo.Weighted>
-8.8052

> <Gold.Chemscore.Internal_Hbond.Weighted>
0.0000

> <Gold.Chemscore.DEClash.Weighted>
1.4149

> <Gold.Chemscore.DEInternal.Weighted>
0.6322

> <Gold.Chemscore.Rot.Weighted>
4.4426

> <Gold.Chemscore.Internal.Correction.Weighted>
   9.000000E+99

> <Gold.Protein.RotatedTorsions>
[ 6907 6896 6895 6894 ] final  -33.93 input  -60.11 | X-H torsion
[ 7974 7965 7964 7962 ] final   11.33 input  175.53 | X-H torsion
[ 8008 7997 7996 7995 ] final  -49.34 input   59.86 | X-H torsion
[ 10167 10162 10161 10158 ] final  128.67 input  -65.29 | X-H torsion
[ 10718 10713 10712 10709 ] final    2.54 input   66.30 | X-H torsion
[ 10763 10752 10751 10750 ] final    8.25 input  -60.55 | X-H torsion
[ 11005 11000 10999 10996 ] final -147.41 input  -57.11 | X-H torsion

> <Gold.Protein.ActiveResidues>
 VAL166  LYS551  ARG553  GLY616  TRP617  ASP618  TYR619  PRO620  LYS621  CYS622 
 ASP623  PHE694  ASN695  SER759  ASP760  ASP761  ALA762  ILE779  LEU786  VAL792 
 PHE793  MET794  SER795  GLU796  ALA797  LYS798  CYS799  TRP800  GLU811  SER814 

> <Gold.Protein.RotatedAtoms>
  151.0592  134.9725  159.8251 H   0  0  0  0  0  0  0  0  0  0  0  0  # atno 6907 bound_to 6896
  152.5393  134.2439  159.8883 H   0  0  0  0  0  0  0  0  0  0  0  0  # atno 6908 bound_to 6896
  151.2459  133.4332  159.2643 H   0  0  0  0  0  0  0  0  0  0  0  0  # atno 6909 bound_to 6896
  146.2373  139.9501  142.8471 H   0  0  0  0  0  0  0  0  0  0  0  0  # atno 7974 bound_to 7965
  154.4042  140.1299  156.4486 H   0  0  0  0  0  0  0  0  0  0  0  0  # atno 8008 bound_to 7997
  155.7388  140.3490  155.5074 H   0  0  0  0  0  0  0  0  0  0  0  0  # atno 8009 bound_to 7997
  155.9058  140.1027  157.1306 H   0  0  0  0  0  0  0  0  0  0  0  0  # atno 8010 bound_to 7997
  139.5516  144.6817  151.4308 H   0  0  0  0  0  0  0  0  0  0  0  0  # atno 10167 bound_to 10162
  156.8646  130.5598  149.5661 H   0  0  0  0  0  0  0  0  0  0  0  0  # atno 10718 bound_to 10713
  153.2271  135.6888  153.7932 H   0  0  0  0  0  0  0  0  0  0  0  0  # atno 10763 bound_to 10752
  153.7110  135.3282  155.3247 H   0  0  0  0  0  0  0  0  0  0  0  0  # atno 10764 bound_to 10752
  154.8297  135.4590  154.1142 H   0  0  0  0  0  0  0  0  0  0  0  0  # atno 10765 bound_to 10752
  140.7720  134.3178  157.5072 H   0  0  0  0  0  0  0  0  0  0  0  0  # atno 11005 bound_to 11000
  145.1870  140.9794  143.4233 LP  0  0  0  0  0  0  0  0  0  0  0  0  # atno 17320 bound_to 7965
  144.9891  139.3707  143.6223 LP  0  0  0  0  0  0  0  0  0  0  0  0  # atno 17321 bound_to 7965
  140.6779  143.8148  150.7083 LP  0  0  0  0  0  0  0  0  0  0  0  0  # atno 17342 bound_to 10162
  140.1592  143.4290  152.2078 LP  0  0  0  0  0  0  0  0  0  0  0  0  # atno 17343 bound_to 10162
  156.0759  130.5781  150.9472 LP  0  0  0  0  0  0  0  0  0  0  0  0  # atno 17370 bound_to 10713
  157.6231  131.0928  150.8585 LP  0  0  0  0  0  0  0  0  0  0  0  0  # atno 17371 bound_to 10713
  139.8754  134.9266  156.3405 LP  0  0  0  0  0  0  0  0  0  0  0  0  # atno 17394 bound_to 11000
  140.9565  133.7416  156.0342 LP  0  0  0  0  0  0  0  0  0  0  0  0  # atno 17395 bound_to 11000

$$$$
