AV-unprocessed.smi:2215|AV-procd|sdf|8962|dock4
  -GOLD-   2272012183D 1   1.00000     0.00000
 Structure written by MMmdl.
 40 41  0  0  0  0  0  0  0  0  1 V2000
  150.9975  142.1562  156.4108 C   0  0  0  0  0  0  0  0  0  0  0  0
  150.2287  141.0812  155.6715 C   0  0  0  0  0  0  0  0  0  0  0  0
  150.8255  139.8477  155.3491 C   0  0  0  0  0  0  0  0  0  0  0  0
  150.0641  138.8861  154.6573 C   0  0  0  0  0  0  0  0  0  0  0  0
  148.7271  139.1783  154.3055 C   0  0  0  0  0  0  0  0  0  0  0  0
  148.0513  138.1442  153.6044 N   0  0  0  0  0  0  0  0  0  0  0  0
  146.7280  137.9872  153.4246 C   0  0  0  0  0  0  0  0  0  0  0  0
  145.8536  138.7284  153.8747 O   0  0  0  0  0  0  0  0  0  0  0  0
  146.4663  136.9015  152.6826 N   0  0  0  0  0  0  0  0  0  0  0  0
  145.1331  136.4445  152.3022 C   0  0  0  0  0  0  0  0  0  0  0  0
  145.1102  134.9597  151.8713 C   0  0  2  0  0  0  0  0  0  0  0  0
  146.5115  134.4047  151.5259 C   0  0  0  0  0  0  0  0  0  0  0  0
  146.4516  132.9159  151.1481 C   0  0  0  0  0  0  0  0  0  0  0  0
  145.4718  132.6675  149.9919 C   0  0  0  0  0  0  0  0  0  0  0  0
  144.0722  133.2168  150.3184 C   0  0  0  0  0  0  0  0  0  0  0  0
  144.1110  134.7049  150.7166 C   0  0  2  0  0  0  0  0  0  0  0  0
  144.4370  135.4808  149.5784 O   0  0  0  0  0  0  0  0  0  0  0  0
  148.1597  140.3684  154.6244 N   0  0  0  0  0  0  0  0  0  0  0  0
  148.8902  141.2897  155.2868 C   0  0  0  0  0  0  0  0  0  0  0  0
  152.0560  141.9052  156.4852 H   0  0  0  0  0  0  0  0  0  0  0  0
  150.6020  142.2764  157.4195 H   0  0  0  0  0  0  0  0  0  0  0  0
  150.9104  143.1104  155.8908 H   0  0  0  0  0  0  0  0  0  0  0  0
  151.8488  139.6379  155.6238 H   0  0  0  0  0  0  0  0  0  0  0  0
  150.5076  137.9352  154.3999 H   0  0  0  0  0  0  0  0  0  0  0  0
  148.6465  137.4494  153.1788 H   0  0  0  0  0  0  0  0  0  0  0  0
  147.2453  136.3492  152.3550 H   0  0  0  0  0  0  0  0  0  0  0  0
  144.4409  136.6090  153.1299 H   0  0  0  0  0  0  0  0  0  0  0  0
  144.7884  137.0792  151.4855 H   0  0  0  0  0  0  0  0  0  0  0  0
  144.7450  134.3867  152.7254 H   0  0  0  0  0  0  0  0  0  0  0  0
  146.9467  134.9751  150.7046 H   0  0  0  0  0  0  0  0  0  0  0  0
  147.1870  134.5248  152.3730 H   0  0  0  0  0  0  0  0  0  0  0  0
  147.4460  132.5621  150.8745 H   0  0  0  0  0  0  0  0  0  0  0  0
  146.1451  132.3320  152.0171 H   0  0  0  0  0  0  0  0  0  0  0  0
  145.8512  133.1368  149.0835 H   0  0  0  0  0  0  0  0  0  0  0  0
  145.4102  131.5995  149.7816 H   0  0  0  0  0  0  0  0  0  0  0  0
  143.4038  133.0689  149.4693 H   0  0  0  0  0  0  0  0  0  0  0  0
  143.6483  132.6397  151.1411 H   0  0  0  0  0  0  0  0  0  0  0  0
  143.1126  135.0078  151.0342 H   0  0  0  0  0  0  0  0  0  0  0  0
  145.0018  134.9685  149.0203 H   0  0  0  0  0  0  0  0  0  0  0  0
  148.3912  142.2202  155.5146 H   0  0  0  0  0  0  0  0  0  0  0  0
  1  2  1  0  0  0  0
  1 20  1  0  0  0  0
  1 21  1  0  0  0  0
  1 22  1  0  0  0  0
  2 19  1  0  0  0  0
  2  3  2  0  0  0  0
  3  4  1  0  0  0  0
  3 23  1  0  0  0  0
  4  5  2  0  0  0  0
  4 24  1  0  0  0  0
  5  6  1  0  0  0  0
  5 18  1  0  0  0  0
  6  7  1  0  0  0  0
  6 25  1  0  0  0  0
  7  8  2  0  0  0  0
  7  9  1  0  0  0  0
  9 10  1  0  0  0  0
  9 26  1  0  0  0  0
 10 11  1  0  0  0  0
 10 27  1  0  0  0  0
 10 28  1  0  0  0  0
 11 16  1  0  0  0  0
 11 12  1  0  0  0  0
 11 29  1  0  0  0  0
 12 13  1  0  0  0  0
 12 30  1  0  0  0  0
 12 31  1  0  0  0  0
 13 14  1  0  0  0  0
 13 32  1  0  0  0  0
 13 33  1  0  0  0  0
 14 15  1  0  0  0  0
 14 34  1  0  0  0  0
 14 35  1  0  0  0  0
 15 16  1  0  0  0  0
 15 36  1  0  0  0  0
 15 37  1  0  0  0  0
 16 17  1  0  0  0  0
 16 38  1  0  0  0  0
 17 39  1  0  0  0  0
 18 19  2  0  0  0  0
 19 40  1  0  0  0  0
M  END
> <s_m_source_file>
AV-unprocessed.smi

> <i_m_source_file_index>
2215

> <i_lp_mmshare_version>
43012

> <i_f3d_flags>
0

> <s_epik_input>
W0NIM11jMVtjSF1bY0hdYyhuW2NIXTEpW05IXUMoPU8pW05IXVtDSDJdW0NAQEhdMltDSDJdW0NIMl1bQ0gyXVtDSDJdW0NASF0yW09IXQ==

> <s_epik_cmdline>
J2VwaWtfcHl0aG9uJywgJy1waCcsICc3LjAnLCAnLXRuJywgJzgnLCAnLW1hJywgJzIwMCcsICctbWV0YWxfYmluZGluZycsICctaW1hZScsICc8aW5maWxlLm1hZT4nLCAnLW9tYWUnLCAnPG91dGZpbGUubWFlPic=

> <r_lp_tautomer_probability>
1

> <r_epik_Ionization_Penalty>
6.08491e-05

> <r_epik_Ionization_Penalty_Charging>
0

> <r_epik_Ionization_Penalty_Neutral>
6.08491e-05

> <r_epik_State_Penalty>
-0

> <r_epik_Charging_Adjusted_Penalty>
0

> <i_epik_Tot_Q>
0

> <i_epik_Tot_abs_Q>
0

> <r_epik_Metal_State_Penalty>
-0

> <b_epik_Metal_Only>
0

> <s_lp_Force_Field>
OPLS_2005

> <r_lp_Energy>
16.4092

> <b_lp_Chiralities_Consistent>
1

> <s_lp_Variant>
AV-unprocessed.smi:2215-3

> <Gold.Version>
5.8.1

> <Gold.Id.Protein>
6NUR|6NUR_protein|mol2

> <Gold.PLP.Fitness>
44.1053

> <Gold.PLP.PLP>
-33.6180

> <Gold.PLP.part.hbond>
-3.5845

> <Gold.PLP.part.metal>
0.0000

> <Gold.PLP.part.buried>
-3.8045

> <Gold.PLP.part.nonpolar>
-27.0295

> <Gold.PLP.part.repulsive>
0.6387

> <Gold.PLP.ligand.clash>
0.0000

> <Gold.PLP.ligand.torsion>
0.7509

> <Gold.PLP.Chemscore.Hbond>
2.9920

> <Gold.PLP.Chemscore.CHOScore>
1.0000

> <Gold.PLP.Chemscore.Metal>
0.0000

> <Gold.Chemscore.Hbonds>
donor molecule, donor type, donor heavy atom, donor atom, acceptor molecule, acceptor atom, score
      L1  H     6    25       P1  7948  1.00
      L1  H     9    26       P1  7948  1.00
      L1  H    17    39       P1  7921  1.00
      L1  C    19    40       P1  8028  0.98

> <Gold.PLP.Chemscore.Internal.Correction>
0.0130

> <Gold.Rescore>
     Score         DG    S(hbond)    S(metal)    S(lipo)     H(rot)  DE(clash)    DE(int)     intcor
     17.91     -20.15       2.91        0.00      80.37       1.73       0.26       1.98       ----

> <Gold.Chemscore.Fitness>
17.9140

> <Gold.Chemscore.DG>
-20.1525

> <Gold.Chemscore.ZeroCoef>
-5.4800

> <Gold.Chemscore.Hbond>
2.9067

> <Gold.Chemscore.Metal>
0.0000

> <Gold.Chemscore.Lipo>
80.3666

> <Gold.Chemscore.Internal_Hbond>
0.0000

> <Gold.Chemscore.DEClash>
0.2575

> <Gold.Chemscore.DEInternal>
1.9809

> <Gold.Chemscore.Rot>
1.7339

> <Gold.Chemscore.Internal.Correction>
   9.000000E+99

> <Gold.Chemscore.Hbonds>
donor molecule, donor type, donor heavy atom, donor atom, acceptor molecule, acceptor atom, score
      L1  H     6    25       P1  7948  0.95
      L1  H     9    26       P1  7948  0.95
      L1  H    17    39       P1  7921  0.95

> <Gold.Chemscore.Hbond.Weighted>
-9.7082

> <Gold.Chemscore.Metal.Weighted>
-0.0000

> <Gold.Chemscore.Lipo.Weighted>
-9.4029

> <Gold.Chemscore.Internal_Hbond.Weighted>
0.0000

> <Gold.Chemscore.DEClash.Weighted>
0.2575

> <Gold.Chemscore.DEInternal.Weighted>
1.9809

> <Gold.Chemscore.Rot.Weighted>
4.4387

> <Gold.Chemscore.Internal.Correction.Weighted>
   9.000000E+99

> <Gold.Protein.RotatedTorsions>
[ 6907 6896 6895 6894 ] final  147.61 input  -60.11 | X-H torsion
[ 7974 7965 7964 7962 ] final  -50.26 input  175.53 | X-H torsion
[ 8008 7997 7996 7995 ] final   30.30 input   59.86 | X-H torsion
[ 10167 10162 10161 10158 ] final  139.73 input  -65.29 | X-H torsion
[ 10718 10713 10712 10709 ] final  169.01 input   66.30 | X-H torsion
[ 10763 10752 10751 10750 ] final   15.61 input  -60.55 | X-H torsion
[ 11005 11000 10999 10996 ] final  -10.83 input  -57.11 | X-H torsion

> <Gold.Protein.ActiveResidues>
 VAL166  LYS551  ARG553  GLY616  TRP617  ASP618  TYR619  PRO620  LYS621  CYS622 
 ASP623  PHE694  ASN695  SER759  ASP760  ASP761  ALA762  ILE779  LEU786  VAL792 
 PHE793  MET794  SER795  GLU796  ALA797  LYS798  CYS799  TRP800  GLU811  SER814 

> <Gold.Protein.RotatedAtoms>
  152.1525  133.4531  159.4820 H   0  0  0  0  0  0  0  0  0  0  0  0  # atno 6907 bound_to 6896
  150.6897  134.2171  159.4391 H   0  0  0  0  0  0  0  0  0  0  0  0  # atno 6908 bound_to 6896
  152.0069  134.9897  160.0617 H   0  0  0  0  0  0  0  0  0  0  0  0  # atno 6909 bound_to 6896
  145.9318  140.7742  142.9596 H   0  0  0  0  0  0  0  0  0  0  0  0  # atno 7974 bound_to 7965
  155.0883  140.3217  155.4581 H   0  0  0  0  0  0  0  0  0  0  0  0  # atno 8008 bound_to 7997
  156.2749  140.2082  156.5956 H   0  0  0  0  0  0  0  0  0  0  0  0  # atno 8009 bound_to 7997
  154.6924  140.0515  157.0364 H   0  0  0  0  0  0  0  0  0  0  0  0  # atno 8010 bound_to 7997
  139.5070  144.6277  151.5896 H   0  0  0  0  0  0  0  0  0  0  0  0  # atno 10167 bound_to 10162
  157.0288  131.0253  151.2751 H   0  0  0  0  0  0  0  0  0  0  0  0  # atno 10718 bound_to 10713
  153.1508  135.6778  153.8884 H   0  0  0  0  0  0  0  0  0  0  0  0  # atno 10763 bound_to 10752
  153.8311  135.3117  155.3420 H   0  0  0  0  0  0  0  0  0  0  0  0  # atno 10764 bound_to 10752
  154.7861  135.4861  154.0035 H   0  0  0  0  0  0  0  0  0  0  0  0  # atno 10765 bound_to 10752
  140.7489  133.8609  155.9028 H   0  0  0  0  0  0  0  0  0  0  0  0  # atno 11005 bound_to 11000
  144.6766  140.2139  143.7374 LP  0  0  0  0  0  0  0  0  0  0  0  0  # atno 17320 bound_to 7965
  145.8416  139.2132  143.1824 LP  0  0  0  0  0  0  0  0  0  0  0  0  # atno 17321 bound_to 7965
  140.5999  143.9628  150.6379 LP  0  0  0  0  0  0  0  0  0  0  0  0  # atno 17342 bound_to 10162
  140.2836  143.3372  152.1128 LP  0  0  0  0  0  0  0  0  0  0  0  0  # atno 17343 bound_to 10162
  157.5194  130.7988  149.7792 LP  0  0  0  0  0  0  0  0  0  0  0  0  # atno 17370 bound_to 10713
  156.0077  130.3848  150.2374 LP  0  0  0  0  0  0  0  0  0  0  0  0  # atno 17371 bound_to 10713
  140.9769  134.1457  157.4528 LP  0  0  0  0  0  0  0  0  0  0  0  0  # atno 17394 bound_to 11000
  139.8791  134.9997  156.5972 LP  0  0  0  0  0  0  0  0  0  0  0  0  # atno 17395 bound_to 11000

$$$$
