AV-unprocessed.smi:3237|AV-procd|sdf|12369|dock2
  -GOLD-   2272018233D 1   1.00000     0.00000
 Structure written by MMmdl.
 36 38  0  0  0  0  0  0  0  0  3 V2000
  149.4802  140.5975  154.4269 C   0  0  0  0  0  0  0  0  0  0  0  0
  149.6995  139.1292  154.5563 C   0  0  0  0  0  0  0  0  0  0  0  0
  150.8269  138.3593  154.6044 C   0  0  0  0  0  0  0  0  0  0  0  0
  150.3140  137.0411  154.7454 C   0  0  0  0  0  0  0  0  0  0  0  0
  151.0413  135.9163  154.8277 N   0  5  0  0  0  0  0  0  0  0  0  0
  150.4292  134.7213  154.9889 C   0  0  0  0  0  0  0  0  0  0  0  0
  150.6746  133.8826  155.8589 O   0  0  0  0  0  0  0  0  0  0  0  0
  149.4721  134.4811  154.0825 N   0  0  0  0  0  0  0  0  0  0  0  0
  148.6531  133.2765  154.0151 C   0  0  2  0  0  0  0  0  0  0  0  0
  149.4161  131.9767  154.2501 C   0  0  0  0  0  0  0  0  0  0  0  0
  148.4965  130.9308  153.6107 C   0  0  0  0  0  0  0  0  0  0  0  0
  147.7347  131.6257  152.5428 N   0  3  1  0  0  0  0  0  0  0  0  0
  146.2802  131.3604  152.5870 C   0  0  0  0  0  0  0  0  0  0  0  0
  145.8563  130.1764  151.7511 C   0  0  0  0  0  0  0  0  0  0  0  0
  145.5846  131.5838  151.2654 C   0  0  0  0  0  0  0  0  0  0  0  0
  148.0759  133.0631  152.6175 C   0  0  0  0  0  0  0  0  0  0  0  0
  148.9921  137.0119  154.7637 N   0  0  0  0  0  0  0  0  0  0  0  0
  148.5901  138.3482  154.6509 O   0  0  0  0  0  0  0  0  0  0  0  0
  150.2627  141.0539  153.8207 H   0  0  0  0  0  0  0  0  0  0  0  0
  149.4884  141.0752  155.4065 H   0  0  0  0  0  0  0  0  0  0  0  0
  148.5210  140.8096  153.9542 H   0  0  0  0  0  0  0  0  0  0  0  0
  151.8546  138.6862  154.5521 H   0  0  0  0  0  0  0  0  0  0  0  0
  149.3021  135.1952  153.3893 H   0  0  0  0  0  0  0  0  0  0  0  0
  147.8299  133.3502  154.7290 H   0  0  0  0  0  0  0  0  0  0  0  0
  150.3746  132.0004  153.7290 H   0  0  0  0  0  0  0  0  0  0  0  0
  149.6096  131.7807  155.3053 H   0  0  0  0  0  0  0  0  0  0  0  0
  149.0567  130.0876  153.2061 H   0  0  0  0  0  0  0  0  0  0  0  0
  147.8140  130.5385  154.3666 H   0  0  0  0  0  0  0  0  0  0  0  0
  145.7739  131.5873  153.5238 H   0  0  0  0  0  0  0  0  0  0  0  0
  146.6277  129.6067  151.2359 H   0  0  0  0  0  0  0  0  0  0  0  0
  145.0040  129.5962  152.0987 H   0  0  0  0  0  0  0  0  0  0  0  0
  144.5537  131.9308  151.2935 H   0  0  0  0  0  0  0  0  0  0  0  0
  146.1759  131.9506  150.4283 H   0  0  0  0  0  0  0  0  0  0  0  0
  147.2243  133.7142  152.4146 H   0  0  0  0  0  0  0  0  0  0  0  0
  148.8329  133.2663  151.8584 H   0  0  0  0  0  0  0  0  0  0  0  0
  148.0728  131.2894  151.6527 H   0  0  0  0  0  0  0  0  0  0  0  0
  1  2  1  0  0  0  0
  1 19  1  0  0  0  0
  1 20  1  0  0  0  0
  1 21  1  0  0  0  0
  2 18  1  0  0  0  0
  2  3  2  0  0  0  0
  3  4  1  0  0  0  0
  3 22  1  0  0  0  0
  4  5  1  0  0  0  0
  4 17  2  0  0  0  0
  5  6  1  0  0  0  0
  6  7  2  0  0  0  0
  6  8  1  0  0  0  0
  8  9  1  0  0  0  0
  8 23  1  0  0  0  0
  9 16  1  0  0  0  0
  9 10  1  0  0  0  0
  9 24  1  0  0  0  0
 10 11  1  0  0  0  0
 10 25  1  0  0  0  0
 10 26  1  0  0  0  0
 11 12  1  0  0  0  0
 11 27  1  0  0  0  0
 11 28  1  0  0  0  0
 12 13  1  0  0  0  0
 12 16  1  0  0  0  0
 12 36  1  0  0  0  0
 13 15  1  0  0  0  0
 13 14  1  0  0  0  0
 13 29  1  0  0  0  0
 14 15  1  0  0  0  0
 14 30  1  0  0  0  0
 14 31  1  0  0  0  0
 15 32  1  0  0  0  0
 15 33  1  0  0  0  0
 16 34  1  0  0  0  0
 16 35  1  0  0  0  0
 17 18  1  0  0  0  0
M  CHG  1   5  -1
M  CHG  1  12   1
M  END
> <s_m_source_file>
AV-unprocessed.smi

> <i_m_source_file_index>
3237

> <i_lp_mmshare_version>
43012

> <i_f3d_flags>
0

> <s_epik_input>
W0NIM11jMVtjSF1jKG5vMSlbTkhdQyg9TylbTkhdW0NAQEhdMltDSDJdW0NIMl1OKFtDSDJdMilbQ0hdM1tDSDJdW0NIMl0z

> <s_epik_cmdline>
J2VwaWtfcHl0aG9uJywgJy1waCcsICc3LjAnLCAnLXRuJywgJzgnLCAnLW1hJywgJzIwMCcsICctbWV0YWxfYmluZGluZycsICctaW1hZScsICc8aW5maWxlLm1hZT4nLCAnLW9tYWUnLCAnPG91dGZpbGUubWFlPic=

> <r_epik_Ionization_Penalty>
6.08472

> <r_epik_Ionization_Penalty_Charging>
6.08464

> <r_epik_Ionization_Penalty_Neutral>
8.41751e-05

> <r_epik_State_Penalty>
6.08438

> <r_epik_Charging_Adjusted_Penalty>
12.169

> <i_epik_Tot_Q>
0

> <i_epik_Tot_abs_Q>
2

> <r_epik_Metal_State_Penalty>
2.0369

> <b_epik_Metal_Only>
1

> <s_lp_Force_Field>
OPLS_2005

> <r_lp_Energy>
24.4962

> <b_lp_Chiralities_Consistent>
1

> <s_lp_Variant>
AV-unprocessed.smi:3237-7

> <Gold.Version>
5.8.1

> <Gold.Id.Protein>
6NUR|6NUR_protein|mol2

> <Gold.PLP.Fitness>
42.3405

> <Gold.PLP.PLP>
-32.2980

> <Gold.PLP.part.hbond>
-3.0000

> <Gold.PLP.part.metal>
0.0000

> <Gold.PLP.part.buried>
-3.1447

> <Gold.PLP.part.nonpolar>
-27.3175

> <Gold.PLP.part.repulsive>
1.3946

> <Gold.PLP.ligand.clash>
0.0000

> <Gold.PLP.ligand.torsion>
1.3900

> <Gold.PLP.Chemscore.Hbond>
3.8500

> <Gold.PLP.Chemscore.CHOScore>
0.0000

> <Gold.PLP.Chemscore.Metal>
0.0000

> <Gold.Chemscore.Hbonds>
donor molecule, donor type, donor heavy atom, donor atom, acceptor molecule, acceptor atom, score
      L1  H     8    23       P1  7948  0.80
      L1  H    12    36       P1 10747  1.00
      P1  H 10752 10765       L1     5  2.00

> <Gold.PLP.Chemscore.Internal.Correction>
1.2726

> <Gold.Rescore>
     Score         DG    S(hbond)    S(metal)    S(lipo)     H(rot)  DE(clash)    DE(int)     intcor
     12.72     -17.09       2.08        0.00      67.11       1.25       0.01       4.37       ----

> <Gold.Chemscore.Fitness>
12.7209

> <Gold.Chemscore.DG>
-17.0944

> <Gold.Chemscore.ZeroCoef>
-5.4800

> <Gold.Chemscore.Hbond>
2.0819

> <Gold.Chemscore.Metal>
0.0000

> <Gold.Chemscore.Lipo>
67.1097

> <Gold.Chemscore.Internal_Hbond>
0.0000

> <Gold.Chemscore.DEClash>
0.0069

> <Gold.Chemscore.DEInternal>
4.3666

> <Gold.Chemscore.Rot>
1.2464

> <Gold.Chemscore.Internal.Correction>
   9.000000E+99

> <Gold.Chemscore.Hbonds>
donor molecule, donor type, donor heavy atom, donor atom, acceptor molecule, acceptor atom, score
      L1  H     8    23       P1  7948  0.12
      L1  H    12    36       P1 10747  1.00
      P1  H 10752 10765       L1     5  0.59

> <Gold.Chemscore.Hbond.Weighted>
-6.9534

> <Gold.Chemscore.Metal.Weighted>
-0.0000

> <Gold.Chemscore.Lipo.Weighted>
-7.8518

> <Gold.Chemscore.Internal_Hbond.Weighted>
0.0000

> <Gold.Chemscore.DEClash.Weighted>
0.0069

> <Gold.Chemscore.DEInternal.Weighted>
4.3666

> <Gold.Chemscore.Rot.Weighted>
3.1909

> <Gold.Chemscore.Internal.Correction.Weighted>
   9.000000E+99

> <Gold.Protein.RotatedTorsions>
[ 6907 6896 6895 6894 ] final   26.03 input  -60.11 | X-H torsion
[ 7974 7965 7964 7962 ] final -131.41 input  175.53 | X-H torsion
[ 8008 7997 7996 7995 ] final  161.80 input   59.86 | X-H torsion
[ 10167 10162 10161 10158 ] final  173.11 input  -65.29 | X-H torsion
[ 10718 10713 10712 10709 ] final  -29.91 input   66.30 | X-H torsion
[ 10763 10752 10751 10750 ] final -172.58 input  -60.55 | X-H torsion
[ 11005 11000 10999 10996 ] final -138.33 input  -57.11 | X-H torsion

> <Gold.Protein.ActiveResidues>
 VAL166  LYS551  ARG553  GLY616  TRP617  ASP618  TYR619  PRO620  LYS621  CYS622 
 ASP623  PHE694  ASN695  SER759  ASP760  ASP761  ALA762  ILE779  LEU786  VAL792 
 PHE793  MET794  SER795  GLU796  ALA797  LYS798  CYS799  TRP800  GLU811  SER814 

> <Gold.Protein.RotatedAtoms>
  151.9813  135.0027  160.0557 H   0  0  0  0  0  0  0  0  0  0  0  0  # atno 6907 bound_to 6896
  152.1693  133.4628  159.4909 H   0  0  0  0  0  0  0  0  0  0  0  0  # atno 6908 bound_to 6896
  150.6899  134.1891  159.4321 H   0  0  0  0  0  0  0  0  0  0  0  0  # atno 6909 bound_to 6896
  144.9381  140.7207  143.4863 H   0  0  0  0  0  0  0  0  0  0  0  0  # atno 7974 bound_to 7965
  156.2077  140.1767  156.7764 H   0  0  0  0  0  0  0  0  0  0  0  0  # atno 8008 bound_to 7997
  154.5678  140.0688  156.8948 H   0  0  0  0  0  0  0  0  0  0  0  0  # atno 8009 bound_to 7997
  155.2728  140.3343  155.4266 H   0  0  0  0  0  0  0  0  0  0  0  0  # atno 8010 bound_to 7997
  139.5098  144.3298  152.0122 H   0  0  0  0  0  0  0  0  0  0  0  0  # atno 10167 bound_to 10162
  156.4065  130.4400  149.7284 H   0  0  0  0  0  0  0  0  0  0  0  0  # atno 10718 bound_to 10713
  154.6177  135.2871  155.0362 H   0  0  0  0  0  0  0  0  0  0  0  0  # atno 10763 bound_to 10752
  154.1568  135.6494  153.4980 H   0  0  0  0  0  0  0  0  0  0  0  0  # atno 10764 bound_to 10752
  153.0222  135.5369  154.6954 H   0  0  0  0  0  0  0  0  0  0  0  0  # atno 10765 bound_to 10752
  140.8626  134.2150  157.4698 H   0  0  0  0  0  0  0  0  0  0  0  0  # atno 11005 bound_to 11000
  145.3034  139.1843  143.4677 LP  0  0  0  0  0  0  0  0  0  0  0  0  # atno 17320 bound_to 7965
  146.3275  140.3028  142.8622 LP  0  0  0  0  0  0  0  0  0  0  0  0  # atno 17321 bound_to 7965
  140.2738  144.3935  150.6142 LP  0  0  0  0  0  0  0  0  0  0  0  0  # atno 17342 bound_to 10162
  140.6069  143.2168  151.6963 LP  0  0  0  0  0  0  0  0  0  0  0  0  # atno 17343 bound_to 10162
  156.4279  130.7801  151.2820 LP  0  0  0  0  0  0  0  0  0  0  0  0  # atno 17370 bound_to 10713
  157.7506  131.0163  150.3538 LP  0  0  0  0  0  0  0  0  0  0  0  0  # atno 17371 bound_to 10713
  139.8707  134.9736  156.4817 LP  0  0  0  0  0  0  0  0  0  0  0  0  # atno 17394 bound_to 11000
  140.8666  133.8020  155.9320 LP  0  0  0  0  0  0  0  0  0  0  0  0  # atno 17395 bound_to 11000

$$$$
