AV-unprocessed.smi:3253|AV-procd|sdf|12446|dock3
  -GOLD-   2272018343D 1   1.00000     0.00000
 Structure written by MMmdl.
 37 38  0  0  0  0  0  0  0  0  2 V2000
  146.3693  131.5907  152.8374 C   0  0  0  0  0  0  0  0  0  0  0  0
  146.0605  130.4416  151.8685 C   0  0  1  0  0  0  0  0  0  0  0  0
  145.6295  130.9759  150.4846 C   0  0  0  0  0  0  0  0  0  0  0  0
  144.8076  132.1884  150.5660 N   0  0  0  0  0  0  0  0  0  0  0  0
  145.2361  133.4714  150.7929 C   0  0  0  0  0  0  0  0  0  0  0  0
  144.1201  134.2671  150.7623 C   0  0  0  0  0  0  0  0  0  0  0  0
  143.0578  133.4360  150.5271 N   0  3  0  0  0  0  0  0  0  0  0  0
  143.4772  132.1717  150.4128 C   0  0  0  0  0  0  0  0  0  0  0  0
  147.2415  129.5860  151.7570 N   0  0  0  0  0  0  0  0  0  0  0  0
  147.4038  128.3940  152.3533 C   0  0  0  0  0  0  0  0  0  0  0  0
  146.5582  127.8869  153.0917 O   0  0  0  0  0  0  0  0  0  0  0  0
  148.7118  127.6481  152.0498 C   0  0  2  0  0  0  0  0  0  0  0  0
  148.7096  127.0875  150.6131 C   0  0  0  0  0  0  0  0  0  0  0  0
  148.6517  125.5815  150.8063 C   0  0  0  0  0  0  0  0  0  0  0  0
  148.5225  124.7934  149.8711 O   0  0  0  0  0  0  0  0  0  0  0  0
  148.7467  125.2618  152.0998 N   0  0  0  0  0  0  0  0  0  0  0  0
  148.7112  123.9136  152.6498 C   0  0  0  0  0  0  0  0  0  0  0  0
  148.9198  126.4187  152.9616 C   0  0  0  0  0  0  0  0  0  0  0  0
  145.4994  132.2342  152.9727 H   0  0  0  0  0  0  0  0  0  0  0  0
  147.1880  132.2115  152.4716 H   0  0  0  0  0  0  0  0  0  0  0  0
  146.6515  131.2113  153.8202 H   0  0  0  0  0  0  0  0  0  0  0  0
  145.2349  129.8730  152.3004 H   0  0  0  0  0  0  0  0  0  0  0  0
  146.5053  131.2176  149.8805 H   0  0  0  0  0  0  0  0  0  0  0  0
  145.0662  130.2202  149.9348 H   0  0  0  0  0  0  0  0  0  0  0  0
  146.2769  133.7181  150.9448 H   0  0  0  0  0  0  0  0  0  0  0  0
  144.0051  135.3341  150.8862 H   0  0  0  0  0  0  0  0  0  0  0  0
  142.8638  131.3093  150.2217 H   0  0  0  0  0  0  0  0  0  0  0  0
  147.9919  129.9244  151.1719 H   0  0  0  0  0  0  0  0  0  0  0  0
  149.5499  128.3361  152.1749 H   0  0  0  0  0  0  0  0  0  0  0  0
  147.8661  127.4267  150.0092 H   0  0  0  0  0  0  0  0  0  0  0  0
  149.6276  127.3510  150.0867 H   0  0  0  0  0  0  0  0  0  0  0  0
  149.4109  123.2621  152.1251 H   0  0  0  0  0  0  0  0  0  0  0  0
  147.7100  123.4917  152.5549 H   0  0  0  0  0  0  0  0  0  0  0  0
  148.9806  123.9144  153.7065 H   0  0  0  0  0  0  0  0  0  0  0  0
  149.9282  126.4110  153.3775 H   0  0  0  0  0  0  0  0  0  0  0  0
  148.2192  126.3807  153.7980 H   0  0  0  0  0  0  0  0  0  0  0  0
  142.0934  133.7329  150.4462 H   0  0  0  0  0  0  0  0  0  0  0  0
  1  2  1  0  0  0  0
  1 19  1  0  0  0  0
  1 20  1  0  0  0  0
  1 21  1  0  0  0  0
  2  3  1  0  0  0  0
  2  9  1  0  0  0  0
  2 22  1  0  0  0  0
  3  4  1  0  0  0  0
  3 23  1  0  0  0  0
  3 24  1  0  0  0  0
  4  8  1  0  0  0  0
  4  5  1  0  0  0  0
  5  6  2  0  0  0  0
  5 25  1  0  0  0  0
  6  7  1  0  0  0  0
  6 26  1  0  0  0  0
  7  8  2  0  0  0  0
  7 37  1  0  0  0  0
  8 27  1  0  0  0  0
  9 10  1  0  0  0  0
  9 28  1  0  0  0  0
 10 11  2  0  0  0  0
 10 12  1  0  0  0  0
 12 18  1  0  0  0  0
 12 13  1  0  0  0  0
 12 29  1  0  0  0  0
 13 14  1  0  0  0  0
 13 30  1  0  0  0  0
 13 31  1  0  0  0  0
 14 15  2  0  0  0  0
 14 16  1  0  0  0  0
 16 17  1  0  0  0  0
 16 18  1  0  0  0  0
 17 32  1  0  0  0  0
 17 33  1  0  0  0  0
 17 34  1  0  0  0  0
 18 35  1  0  0  0  0
 18 36  1  0  0  0  0
M  CHG  1   7   1
M  END
> <s_m_source_file>
AV-unprocessed.smi

> <i_m_source_file_index>
3253

> <i_lp_mmshare_version>
43012

> <i_f3d_flags>
0

> <s_epik_input>
W2NIXTFuW2NIXVtjSF1uMVtDSDJdW0NAQEhdKFtDSDNdKVtOSF1DKD1PKVtDQEBIXTJbQ0gyXUMoPU8pTihbQ0gzXSlbQ0gyXTI=

> <s_epik_cmdline>
J2VwaWtfcHl0aG9uJywgJy1waCcsICc3LjAnLCAnLXRuJywgJzgnLCAnLW1hJywgJzIwMCcsICctbWV0YWxfYmluZGluZycsICctaW1hZScsICc8aW5maWxlLm1hZT4nLCAnLW9tYWUnLCAnPG91dGZpbGUubWFlPic=

> <r_lp_tautomer_probability>
1

> <r_epik_Ionization_Penalty>
0.251561

> <r_epik_Ionization_Penalty_Charging>
0

> <r_epik_Ionization_Penalty_Neutral>
0.251561

> <r_epik_State_Penalty>
0.242926

> <r_epik_Charging_Adjusted_Penalty>
0.242926

> <i_epik_Tot_Q>
1

> <i_epik_Tot_abs_Q>
1

> <r_epik_Metal_State_Penalty>
0.533885

> <b_epik_Metal_Only>
0

> <s_lp_Force_Field>
OPLS_2005

> <r_lp_Energy>
13.6979

> <b_lp_Chiralities_Consistent>
1

> <s_lp_Variant>
AV-unprocessed.smi:3253-2

> <Gold.Version>
5.8.1

> <Gold.Id.Protein>
6NUR|6NUR_protein|mol2

> <Gold.PLP.Fitness>
46.3722

> <Gold.PLP.PLP>
-36.1913

> <Gold.PLP.part.hbond>
-2.0000

> <Gold.PLP.part.metal>
0.0000

> <Gold.PLP.part.buried>
-7.4621

> <Gold.PLP.part.nonpolar>
-28.1255

> <Gold.PLP.part.repulsive>
0.1793

> <Gold.PLP.ligand.clash>
0.0000

> <Gold.PLP.ligand.torsion>
0.9248

> <Gold.PLP.Chemscore.Hbond>
3.0000

> <Gold.PLP.Chemscore.CHOScore>
1.0000

> <Gold.PLP.Chemscore.Metal>
0.0000

> <Gold.Chemscore.Hbonds>
donor molecule, donor type, donor heavy atom, donor atom, acceptor molecule, acceptor atom, score
      L1  H     7    37       P1 10186  1.89
      L1  H     9    28       P1 10747  1.00
      L1  C     8    27       P1 10952  1.00

> <Gold.PLP.Chemscore.Internal.Correction>
0.0304

> <Gold.Rescore>
     Score         DG    S(hbond)    S(metal)    S(lipo)     H(rot)  DE(clash)    DE(int)     intcor
     13.16     -14.00       1.88        0.00      63.74       2.03       0.01       0.83       ----

> <Gold.Chemscore.Fitness>
13.1559

> <Gold.Chemscore.DG>
-13.9994

> <Gold.Chemscore.ZeroCoef>
-5.4800

> <Gold.Chemscore.Hbond>
1.8771

> <Gold.Chemscore.Metal>
0.0000

> <Gold.Chemscore.Lipo>
63.7360

> <Gold.Chemscore.Internal_Hbond>
0.0000

> <Gold.Chemscore.DEClash>
0.0115

> <Gold.Chemscore.DEInternal>
0.8320

> <Gold.Chemscore.Rot>
2.0341

> <Gold.Chemscore.Internal.Correction>
   9.000000E+99

> <Gold.Chemscore.Hbonds>
donor molecule, donor type, donor heavy atom, donor atom, acceptor molecule, acceptor atom, score
      L1  H     7    37       P1 10186  0.84
      L1  H     9    28       P1 10747  0.95

> <Gold.Chemscore.Hbond.Weighted>
-6.2695

> <Gold.Chemscore.Metal.Weighted>
-0.0000

> <Gold.Chemscore.Lipo.Weighted>
-7.4571

> <Gold.Chemscore.Internal_Hbond.Weighted>
0.0000

> <Gold.Chemscore.DEClash.Weighted>
0.0115

> <Gold.Chemscore.DEInternal.Weighted>
0.8320

> <Gold.Chemscore.Rot.Weighted>
5.2072

> <Gold.Chemscore.Internal.Correction.Weighted>
   9.000000E+99

> <Gold.Protein.RotatedTorsions>
[ 6907 6896 6895 6894 ] final   89.31 input  -60.11 | X-H torsion
[ 7974 7965 7964 7962 ] final  169.47 input  175.53 | X-H torsion
[ 8008 7997 7996 7995 ] final -168.72 input   59.86 | X-H torsion
[ 10167 10162 10161 10158 ] final  -77.14 input  -65.29 | X-H torsion
[ 10718 10713 10712 10709 ] final -107.78 input   66.30 | X-H torsion
[ 10763 10752 10751 10750 ] final   76.05 input  -60.55 | X-H torsion
[ 11005 11000 10999 10996 ] final  145.09 input  -57.11 | X-H torsion

> <Gold.Protein.ActiveResidues>
 VAL166  LYS551  ARG553  GLY616  TRP617  ASP618  TYR619  PRO620  LYS621  CYS622 
 ASP623  PHE694  ASN695  SER759  ASP760  ASP761  ALA762  ILE779  LEU786  VAL792 
 PHE793  MET794  SER795  GLU796  ALA797  LYS798  CYS799  TRP800  GLU811  SER814 

> <Gold.Protein.RotatedAtoms>
  152.5435  134.1987  159.8702 H   0  0  0  0  0  0  0  0  0  0  0  0  # atno 6907 bound_to 6896
  151.1977  133.4622  159.2603 H   0  0  0  0  0  0  0  0  0  0  0  0  # atno 6908 bound_to 6896
  151.1020  134.9990  159.8509 H   0  0  0  0  0  0  0  0  0  0  0  0  # atno 6909 bound_to 6896
  144.7354  139.9059  143.6412 H   0  0  0  0  0  0  0  0  0  0  0  0  # atno 7974 bound_to 7965
  155.8952  140.1031  157.1390 H   0  0  0  0  0  0  0  0  0  0  0  0  # atno 8008 bound_to 7997
  154.4019  140.1303  156.4430 H   0  0  0  0  0  0  0  0  0  0  0  0  # atno 8009 bound_to 7997
  155.7487  140.3465  155.5142 H   0  0  0  0  0  0  0  0  0  0  0  0  # atno 8010 bound_to 7997
  140.4796  143.2405  151.8078 H   0  0  0  0  0  0  0  0  0  0  0  0  # atno 10167 bound_to 10162
  156.0453  130.5679  150.7869 H   0  0  0  0  0  0  0  0  0  0  0  0  # atno 10718 bound_to 10713
  153.0697  135.4966  154.8279 H   0  0  0  0  0  0  0  0  0  0  0  0  # atno 10763 bound_to 10752
  154.7005  135.3001  154.9350 H   0  0  0  0  0  0  0  0  0  0  0  0  # atno 10764 bound_to 10752
  154.0075  135.6758  153.4816 H   0  0  0  0  0  0  0  0  0  0  0  0  # atno 10765 bound_to 10752
  140.0684  134.9165  157.1303 H   0  0  0  0  0  0  0  0  0  0  0  0  # atno 11005 bound_to 11000
  146.1037  139.4035  143.0331 LP  0  0  0  0  0  0  0  0  0  0  0  0  # atno 17320 bound_to 7965
  145.7542  140.9961  143.1234 LP  0  0  0  0  0  0  0  0  0  0  0  0  # atno 17321 bound_to 7965
  139.4831  144.4789  151.9332 LP  0  0  0  0  0  0  0  0  0  0  0  0  # atno 17342 bound_to 10162
  140.3874  144.2658  150.5902 LP  0  0  0  0  0  0  0  0  0  0  0  0  # atno 17343 bound_to 10162
  157.5320  131.0937  150.9942 LP  0  0  0  0  0  0  0  0  0  0  0  0  # atno 17370 bound_to 10713
  157.0245  130.5687  149.5335 LP  0  0  0  0  0  0  0  0  0  0  0  0  # atno 17371 bound_to 10713
  140.3664  134.2438  155.7182 LP  0  0  0  0  0  0  0  0  0  0  0  0  # atno 17394 bound_to 11000
  141.2002  133.7993  157.0500 LP  0  0  0  0  0  0  0  0  0  0  0  0  # atno 17395 bound_to 11000

$$$$
