AV-unprocessed.smi:2562|AV-procd|sdf|10054|dock5
  -GOLD-   2272014 93D 1   1.00000     0.00000
 Structure written by MMmdl.
 29 30  0  0  0  0  0  0  0  0  2 V2000
  152.0467  145.0049  158.9506 C   0  0  0  0  0  0  0  0  0  0  0  0
  151.4352  144.1629  160.0759 C   0  0  0  0  0  0  0  0  0  0  0  0
  152.3311  142.9868  160.4878 C   0  0  0  0  0  0  0  0  0  0  0  0
  152.4427  141.9479  159.3934 C   0  0  0  0  0  0  0  0  0  0  0  0
  153.2276  140.8564  159.4215 N   0  5  0  0  0  0  0  0  0  0  0  0
  153.0498  140.1522  158.3223 N   0  0  0  0  0  0  0  0  0  0  0  0
  152.1223  140.8175  157.6166 C   0  0  0  0  0  0  0  0  0  0  0  0
  151.6205  140.3953  156.2500 C   0  0  2  0  0  0  0  0  0  0  0  0
  150.4779  141.3143  155.7718 C   0  0  0  0  0  0  0  0  0  0  0  0
  149.9912  140.8948  154.4575 N   0  0  0  0  0  0  0  0  0  0  0  0
  149.5987  139.4874  154.4629 C   0  0  0  0  0  0  0  0  0  0  0  0
  150.7602  138.6128  154.9645 C   0  0  0  0  0  0  0  0  0  0  0  0
  151.1543  139.0472  156.2608 O   0  0  0  0  0  0  0  0  0  0  0  0
  151.7435  141.9301  158.2632 N   0  0  0  0  0  0  0  0  0  0  0  0
  151.3879  145.8310  158.6828 H   0  0  0  0  0  0  0  0  0  0  0  0
  152.2110  144.4048  158.0553 H   0  0  0  0  0  0  0  0  0  0  0  0
  153.0051  145.4283  159.2521 H   0  0  0  0  0  0  0  0  0  0  0  0
  151.2485  144.7987  160.9421 H   0  0  0  0  0  0  0  0  0  0  0  0
  150.4640  143.7845  159.7551 H   0  0  0  0  0  0  0  0  0  0  0  0
  153.3314  143.3435  160.7354 H   0  0  0  0  0  0  0  0  0  0  0  0
  151.9360  142.5080  161.3843 H   0  0  0  0  0  0  0  0  0  0  0  0
  152.4639  140.4690  155.5607 H   0  0  0  0  0  0  0  0  0  0  0  0
  149.6609  141.2891  156.4944 H   0  0  0  0  0  0  0  0  0  0  0  0
  150.8233  142.3473  155.7270 H   0  0  0  0  0  0  0  0  0  0  0  0
  149.1968  141.4682  154.1931 H   0  0  0  0  0  0  0  0  0  0  0  0
  148.7302  139.3467  155.1073 H   0  0  0  0  0  0  0  0  0  0  0  0
  149.3010  139.1777  153.4610 H   0  0  0  0  0  0  0  0  0  0  0  0
  150.4459  137.5707  155.0226 H   0  0  0  0  0  0  0  0  0  0  0  0
  151.6071  138.6524  154.2773 H   0  0  0  0  0  0  0  0  0  0  0  0
  1  2  1  0  0  0  0
  1 15  1  0  0  0  0
  1 16  1  0  0  0  0
  1 17  1  0  0  0  0
  2  3  1  0  0  0  0
  2 18  1  0  0  0  0
  2 19  1  0  0  0  0
  3 20  1  0  0  0  0
  3 21  1  0  0  0  0
  3  4  1  0  0  0  0
  4 14  2  0  0  0  0
  4  5  1  0  0  0  0
  5  6  1  0  0  0  0
  6  7  2  0  0  0  0
  7 14  1  0  0  0  0
  7  8  1  0  0  0  0
  8 13  1  0  0  0  0
  8  9  1  0  0  0  0
  8 22  1  0  0  0  0
  9 10  1  0  0  0  0
  9 23  1  0  0  0  0
  9 24  1  0  0  0  0
 10 11  1  0  0  0  0
 10 25  1  0  0  0  0
 11 12  1  0  0  0  0
 11 26  1  0  0  0  0
 11 27  1  0  0  0  0
 12 13  1  0  0  0  0
 12 28  1  0  0  0  0
 12 29  1  0  0  0  0
M  CHG  1   5  -1
M  END
> <s_m_source_file>
AV-unprocessed.smi

> <i_m_source_file_index>
2562

> <i_lp_mmshare_version>
43012

> <i_f3d_flags>
0

> <s_epik_input>
W0NIM11bQ0gyXVtDSDJdYzFuW25IXWMobjEpW0NAQEhdMltDSDJdW05IXVtDSDJdW0NIMl1PMg==

> <s_epik_cmdline>
J2VwaWtfcHl0aG9uJywgJy1waCcsICc3LjAnLCAnLXRuJywgJzgnLCAnLW1hJywgJzIwMCcsICctbWV0YWxfYmluZGluZycsICctaW1hZScsICc8aW5maWxlLm1hZT4nLCAnLW9tYWUnLCAnPG91dGZpbGUubWFlPic=

> <r_epik_Ionization_Penalty>
15.949

> <r_epik_Ionization_Penalty_Charging>
14.3757

> <r_epik_Ionization_Penalty_Neutral>
1.5733

> <r_epik_State_Penalty>
7.02775

> <r_epik_Charging_Adjusted_Penalty>
21.4034

> <i_epik_Tot_Q>
-1

> <i_epik_Tot_abs_Q>
1

> <r_epik_Metal_State_Penalty>
3.10311

> <b_epik_Metal_Only>
1

> <s_lp_Force_Field>
OPLS_2005

> <r_lp_Energy>
11.5852

> <b_lp_Chiralities_Consistent>
1

> <s_lp_Variant>
AV-unprocessed.smi:2562-13

> <Gold.Version>
5.8.1

> <Gold.Id.Protein>
6NUR|6NUR_protein|mol2

> <Gold.PLP.Fitness>
35.0694

> <Gold.PLP.PLP>
-30.2391

> <Gold.PLP.part.hbond>
-2.0000

> <Gold.PLP.part.metal>
0.0000

> <Gold.PLP.part.buried>
-3.3522

> <Gold.PLP.part.nonpolar>
-23.8268

> <Gold.PLP.part.repulsive>
0.0068

> <Gold.PLP.ligand.clash>
0.0000

> <Gold.PLP.ligand.torsion>
0.1481

> <Gold.PLP.Chemscore.Hbond>
1.7040

> <Gold.PLP.Chemscore.CHOScore>
0.0000

> <Gold.PLP.Chemscore.Metal>
0.0000

> <Gold.Chemscore.Hbonds>
donor molecule, donor type, donor heavy atom, donor atom, acceptor molecule, acceptor atom, score
      P1  H  7989  7998       L1    10  0.66
      P1  H  7997  8010       L1     6  0.98

> <Gold.PLP.Chemscore.Internal.Correction>
0.0145

> <Gold.Rescore>
     Score         DG    S(hbond)    S(metal)    S(lipo)     H(rot)  DE(clash)    DE(int)     intcor
     11.39     -11.48       0.71        0.00      62.74       1.44       0.03       0.07       ----

> <Gold.Chemscore.Fitness>
11.3913

> <Gold.Chemscore.DG>
-11.4849

> <Gold.Chemscore.ZeroCoef>
-5.4800

> <Gold.Chemscore.Hbond>
0.7068

> <Gold.Chemscore.Metal>
0.0000

> <Gold.Chemscore.Lipo>
62.7433

> <Gold.Chemscore.Internal_Hbond>
0.0000

> <Gold.Chemscore.DEClash>
0.0256

> <Gold.Chemscore.DEInternal>
0.0680

> <Gold.Chemscore.Rot>
1.4441

> <Gold.Chemscore.Internal.Correction>
   9.000000E+99

> <Gold.Chemscore.Hbonds>
donor molecule, donor type, donor heavy atom, donor atom, acceptor molecule, acceptor atom, score
      P1  H  7989  7998       L1    10  0.07
      P1  H  7997  8010       L1     6  0.37

> <Gold.Chemscore.Hbond.Weighted>
-2.3609

> <Gold.Chemscore.Metal.Weighted>
-0.0000

> <Gold.Chemscore.Lipo.Weighted>
-7.3410

> <Gold.Chemscore.Internal_Hbond.Weighted>
0.0000

> <Gold.Chemscore.DEClash.Weighted>
0.0256

> <Gold.Chemscore.DEInternal.Weighted>
0.0680

> <Gold.Chemscore.Rot.Weighted>
3.6969

> <Gold.Chemscore.Internal.Correction.Weighted>
   9.000000E+99

> <Gold.Protein.RotatedTorsions>
[ 6907 6896 6895 6894 ] final -136.94 input  -60.11 | X-H torsion
[ 7974 7965 7964 7962 ] final  151.49 input  175.53 | X-H torsion
[ 8008 7997 7996 7995 ] final   31.76 input   59.86 | X-H torsion
[ 10167 10162 10161 10158 ] final  -80.34 input  -65.29 | X-H torsion
[ 10718 10713 10712 10709 ] final -151.91 input   66.30 | X-H torsion
[ 10763 10752 10751 10750 ] final  135.74 input  -60.55 | X-H torsion
[ 11005 11000 10999 10996 ] final  -50.84 input  -57.11 | X-H torsion

> <Gold.Protein.ActiveResidues>
 VAL166  LYS551  ARG553  GLY616  TRP617  ASP618  TYR619  PRO620  LYS621  CYS622 
 ASP623  PHE694  ASN695  SER759  ASP760  ASP761  ALA762  ILE779  LEU786  VAL792 
 PHE793  MET794  SER795  GLU796  ALA797  LYS798  CYS799  TRP800  GLU811  SER814 

> <Gold.Protein.RotatedAtoms>
  151.0163  133.5918  159.2676 H   0  0  0  0  0  0  0  0  0  0  0  0  # atno 6907 bound_to 6896
  151.3051  135.0778  159.9262 H   0  0  0  0  0  0  0  0  0  0  0  0  # atno 6908 bound_to 6896
  152.5312  133.9838  159.7873 H   0  0  0  0  0  0  0  0  0  0  0  0  # atno 6909 bound_to 6896
  144.8289  139.6545  143.6068 H   0  0  0  0  0  0  0  0  0  0  0  0  # atno 7974 bound_to 7965
  155.1117  140.3239  155.4520 H   0  0  0  0  0  0  0  0  0  0  0  0  # atno 8008 bound_to 7997
  156.2688  140.2043  156.6188 H   0  0  0  0  0  0  0  0  0  0  0  0  # atno 8009 bound_to 7997
  154.6751  140.0532  157.0194 H   0  0  0  0  0  0  0  0  0  0  0  0  # atno 8010 bound_to 7997
  140.4512  143.2482  151.8486 H   0  0  0  0  0  0  0  0  0  0  0  0  # atno 10167 bound_to 10162
  156.4655  130.8233  151.2464 H   0  0  0  0  0  0  0  0  0  0  0  0  # atno 10718 bound_to 10713
  153.8451  135.3086  155.3429 H   0  0  0  0  0  0  0  0  0  0  0  0  # atno 10763 bound_to 10752
  154.7916  135.4779  154.0068 H   0  0  0  0  0  0  0  0  0  0  0  0  # atno 10764 bound_to 10752
  153.1552  135.6850  153.8915 H   0  0  0  0  0  0  0  0  0  0  0  0  # atno 10765 bound_to 10752
  141.0838  133.6647  156.3790 H   0  0  0  0  0  0  0  0  0  0  0  0  # atno 11005 bound_to 11000
  146.2593  139.6373  142.9373 LP  0  0  0  0  0  0  0  0  0  0  0  0  # atno 17320 bound_to 7965
  145.4940  141.0438  143.2577 LP  0  0  0  0  0  0  0  0  0  0  0  0  # atno 17321 bound_to 7965
  139.4797  144.5117  151.8923 LP  0  0  0  0  0  0  0  0  0  0  0  0  # atno 17342 bound_to 10162
  140.4205  144.2250  150.5887 LP  0  0  0  0  0  0  0  0  0  0  0  0  # atno 17343 bound_to 10162
  157.7495  131.0093  150.3263 LP  0  0  0  0  0  0  0  0  0  0  0  0  # atno 17370 bound_to 10713
  156.3672  130.3857  149.7204 LP  0  0  0  0  0  0  0  0  0  0  0  0  # atno 17371 bound_to 10713
  140.5408  134.6122  157.5379 LP  0  0  0  0  0  0  0  0  0  0  0  0  # atno 17394 bound_to 11000
  139.9654  134.7381  156.0148 LP  0  0  0  0  0  0  0  0  0  0  0  0  # atno 17395 bound_to 11000

$$$$
