AV-unprocessed.smi:212|AV-procd|sdf|1623|dock8
  -GOLD-   2262019563D 1   1.00000     0.00000
 Structure written by MMmdl.
 65 68  0  0  0  0  0  0  0  0  2 V2000
  143.2503  135.8000  152.4383 C   0  0  0  0  0  0  0  0  0  0  0  0
  144.6808  136.3584  152.3505 C   0  0  2  0  0  0  0  0  0  0  0  0
  145.5817  135.5113  151.4270 C   0  0  0  0  0  0  0  0  0  0  0  0
  145.9354  134.2087  152.0512 N   0  3  1  0  0  0  0  0  0  0  0  0
  146.6956  133.3075  151.1455 C   0  0  0  0  0  0  0  0  0  0  0  0
  145.7836  132.3030  150.4022 C   0  0  0  0  0  0  0  0  0  0  0  0
  145.3961  131.1476  151.3407 C   0  0  0  0  0  0  0  0  0  0  0  0
  144.5197  132.9725  149.8305 C   0  0  0  0  0  0  0  0  0  0  0  0
  146.5034  131.7265  149.3305 O   0  0  0  0  0  0  0  0  0  0  0  0
  146.5777  134.3817  153.3783 C   0  0  0  0  0  0  0  0  0  0  0  0
  145.6951  135.2296  154.3128 C   0  0  0  0  0  0  0  0  0  0  0  0
  145.2946  136.4851  153.6750 N   0  0  0  0  0  0  0  0  0  0  0  0
  146.0589  137.5914  153.8728 C   0  0  0  0  0  0  0  0  0  0  0  0
  146.4326  138.3573  152.8130 N   0  0  0  0  0  0  0  0  0  0  0  0
  147.1739  139.4537  152.9988 C   0  0  0  0  0  0  0  0  0  0  0  0
  147.6448  139.9584  154.1405 N   0  0  0  0  0  0  0  0  0  0  0  0
  147.2809  139.1904  155.2065 C   0  0  0  0  0  0  0  0  0  0  0  0
  146.4975  138.0028  155.1632 C   0  0  0  0  0  0  0  0  0  0  0  0
  146.3433  137.4916  156.4469 N   0  0  0  0  0  0  0  0  0  0  0  0
  146.9923  138.3325  157.2058 C   0  0  0  0  0  0  0  0  0  0  0  0
  147.5799  139.3857  156.5422 N   0  0  0  0  0  0  0  0  0  0  0  0
  148.3559  140.4637  157.1289 C   0  0  0  0  0  0  0  0  0  0  0  0
  149.8837  140.2823  156.9493 C   0  0  1  0  0  0  0  0  0  0  0  0
  150.4138  140.9374  155.6506 C   0  0  0  0  0  0  0  0  0  0  0  0
  151.4490  140.1706  155.0698 O   0  0  0  0  0  0  0  0  0  0  0  0
  150.6617  140.7469  158.2062 C   0  0  2  0  0  0  0  0  0  0  0  0
  150.7640  142.2523  158.3781 C   0  0  0  0  0  0  0  0  0  0  0  0
  151.9242  142.3860  159.3580 C   0  0  0  0  0  0  0  0  0  0  0  0
  152.7980  141.3012  159.0674 O   0  0  0  0  0  0  0  0  0  0  0  0
  152.1463  140.3664  158.2129 C   0  0  0  0  0  0  0  0  0  0  0  0
  142.7843  135.7680  151.4532 H   0  0  0  0  0  0  0  0  0  0  0  0
  142.6268  136.4289  153.0746 H   0  0  0  0  0  0  0  0  0  0  0  0
  143.2272  134.7885  152.8441 H   0  0  0  0  0  0  0  0  0  0  0  0
  144.5983  137.3417  151.8878 H   0  0  0  0  0  0  0  0  0  0  0  0
  145.0857  135.3540  150.4694 H   0  0  0  0  0  0  0  0  0  0  0  0
  146.5007  136.0596  151.2131 H   0  0  0  0  0  0  0  0  0  0  0  0
  147.2845  133.8939  150.4377 H   0  0  0  0  0  0  0  0  0  0  0  0
  147.4246  132.7377  151.7241 H   0  0  0  0  0  0  0  0  0  0  0  0
  144.8252  131.5093  152.1965 H   0  0  0  0  0  0  0  0  0  0  0  0
  146.2776  130.6345  151.7273 H   0  0  0  0  0  0  0  0  0  0  0  0
  144.7826  130.4051  150.8287 H   0  0  0  0  0  0  0  0  0  0  0  0
  143.9361  133.4494  150.6190 H   0  0  0  0  0  0  0  0  0  0  0  0
  143.8730  132.2439  149.3400 H   0  0  0  0  0  0  0  0  0  0  0  0
  144.7627  133.7368  149.0912 H   0  0  0  0  0  0  0  0  0  0  0  0
  147.3326  131.4125  149.6584 H   0  0  0  0  0  0  0  0  0  0  0  0
  146.7514  133.4064  153.8346 H   0  0  0  0  0  0  0  0  0  0  0  0
  147.5543  134.8494  153.2464 H   0  0  0  0  0  0  0  0  0  0  0  0
  144.7938  134.6729  154.5699 H   0  0  0  0  0  0  0  0  0  0  0  0
  146.2058  135.4153  155.2587 H   0  0  0  0  0  0  0  0  0  0  0  0
  147.4257  140.0058  152.1054 H   0  0  0  0  0  0  0  0  0  0  0  0
  147.0561  138.2109  158.2776 H   0  0  0  0  0  0  0  0  0  0  0  0
  148.0315  141.4055  156.6843 H   0  0  0  0  0  0  0  0  0  0  0  0
  148.0961  140.5176  158.1863 H   0  0  0  0  0  0  0  0  0  0  0  0
  150.0631  139.2116  156.8426 H   0  0  0  0  0  0  0  0  0  0  0  0
  149.6136  141.0554  154.9203 H   0  0  0  0  0  0  0  0  0  0  0  0
  150.7888  141.9423  155.8438 H   0  0  0  0  0  0  0  0  0  0  0  0
  151.1781  139.2654  155.0501 H   0  0  0  0  0  0  0  0  0  0  0  0
  150.1958  140.3294  159.1003 H   0  0  0  0  0  0  0  0  0  0  0  0
  151.0179  142.7293  157.4303 H   0  0  0  0  0  0  0  0  0  0  0  0
  149.8478  142.7070  158.7561 H   0  0  0  0  0  0  0  0  0  0  0  0
  152.4348  143.3455  159.2730 H   0  0  0  0  0  0  0  0  0  0  0  0
  151.5688  142.2802  160.3838 H   0  0  0  0  0  0  0  0  0  0  0  0
  152.3128  139.3443  158.5543 H   0  0  0  0  0  0  0  0  0  0  0  0
  152.5759  140.4616  157.2147 H   0  0  0  0  0  0  0  0  0  0  0  0
  145.0604  133.7376  152.2317 H   0  0  0  0  0  0  0  0  0  0  0  0
  1  2  1  0  0  0  0
  1 31  1  0  0  0  0
  1 32  1  0  0  0  0
  1 33  1  0  0  0  0
  2 12  1  0  0  0  0
  2  3  1  0  0  0  0
  2 34  1  0  0  0  0
  3  4  1  0  0  0  0
  3 35  1  0  0  0  0
  3 36  1  0  0  0  0
  4  5  1  0  0  0  0
  4 10  1  0  0  0  0
  4 65  1  0  0  0  0
  5  6  1  0  0  0  0
  5 37  1  0  0  0  0
  5 38  1  0  0  0  0
  6  7  1  0  0  0  0
  6  8  1  0  0  0  0
  6  9  1  0  0  0  0
  7 39  1  0  0  0  0
  7 40  1  0  0  0  0
  7 41  1  0  0  0  0
  8 42  1  0  0  0  0
  8 43  1  0  0  0  0
  8 44  1  0  0  0  0
  9 45  1  0  0  0  0
 10 11  1  0  0  0  0
 10 46  1  0  0  0  0
 10 47  1  0  0  0  0
 11 12  1  0  0  0  0
 11 48  1  0  0  0  0
 11 49  1  0  0  0  0
 12 13  1  0  0  0  0
 13 18  1  0  0  0  0
 13 14  2  0  0  0  0
 14 15  1  0  0  0  0
 15 16  2  0  0  0  0
 15 50  1  0  0  0  0
 16 17  1  0  0  0  0
 17 21  1  0  0  0  0
 17 18  2  0  0  0  0
 18 19  1  0  0  0  0
 19 20  2  0  0  0  0
 20 21  1  0  0  0  0
 20 51  1  0  0  0  0
 21 22  1  0  0  0  0
 22 23  1  0  0  0  0
 22 52  1  0  0  0  0
 22 53  1  0  0  0  0
 23 24  1  0  0  0  0
 23 26  1  0  0  0  0
 23 54  1  0  0  0  0
 24 25  1  0  0  0  0
 24 55  1  0  0  0  0
 24 56  1  0  0  0  0
 25 57  1  0  0  0  0
 26 30  1  0  0  0  0
 26 27  1  0  0  0  0
 26 58  1  0  0  0  0
 27 28  1  0  0  0  0
 27 59  1  0  0  0  0
 27 60  1  0  0  0  0
 28 29  1  0  0  0  0
 28 61  1  0  0  0  0
 28 62  1  0  0  0  0
 29 30  1  0  0  0  0
 30 63  1  0  0  0  0
 30 64  1  0  0  0  0
M  CHG  1   4   1
M  END
> <s_m_source_file>
AV-unprocessed.smi

> <i_m_source_file_index>
212

> <i_lp_mmshare_version>
43012

> <i_f3d_flags>
0

> <s_epik_input>
W0NIM11bQ0BASF0xW0NIMl1OKFtDSDJdQyhbQ0gzXSkoW0NIM10pW09IXSlbQ0gyXVtDSDJdTjFjKG5bY0hdbjIpYyhjMjMpbltjSF1uM1tDSDJdW0NASF0oW0NIMl1bT0hdKVtDQEBIXTRbQ0gyXVtDSDJdT1tDSDJdNA==

> <s_epik_cmdline>
J2VwaWtfcHl0aG9uJywgJy1waCcsICc3LjAnLCAnLXRuJywgJzgnLCAnLW1hJywgJzIwMCcsICctbWV0YWxfYmluZGluZycsICctaW1hZScsICc8aW5maWxlLm1hZT4nLCAnLW9tYWUnLCAnPG91dGZpbGUubWFlPic=

> <r_lp_tautomer_probability>
1

> <r_epik_Ionization_Penalty>
0.00182193

> <r_epik_Ionization_Penalty_Charging>
0.00173996

> <r_epik_Ionization_Penalty_Neutral>
8.19718e-05

> <r_epik_State_Penalty>
-0

> <r_epik_Charging_Adjusted_Penalty>
0.00173996

> <i_epik_Tot_Q>
1

> <i_epik_Tot_abs_Q>
1

> <r_epik_Metal_State_Penalty>
-0

> <b_epik_Metal_Only>
0

> <s_lp_Force_Field>
OPLS_2005

> <r_lp_Energy>
57.8669

> <b_lp_Chiralities_Consistent>
1

> <s_lp_Variant>
AV-unprocessed.smi:212-7

> <Gold.Version>
5.8.1

> <Gold.Id.Protein>
6NUR|6NUR_protein|mol2

> <Gold.PLP.Fitness>
44.0581

> <Gold.PLP.PLP>
-39.1844

> <Gold.PLP.part.hbond>
-2.0000

> <Gold.PLP.part.metal>
0.0000

> <Gold.PLP.part.buried>
-7.7720

> <Gold.PLP.part.nonpolar>
-29.0684

> <Gold.PLP.part.repulsive>
0.4222

> <Gold.PLP.ligand.clash>
0.0000

> <Gold.PLP.ligand.torsion>
2.4186

> <Gold.PLP.Chemscore.Hbond>
2.0000

> <Gold.PLP.Chemscore.CHOScore>
0.8584

> <Gold.PLP.Chemscore.Metal>
0.0000

> <Gold.Chemscore.Hbonds>
donor molecule, donor type, donor heavy atom, donor atom, acceptor molecule, acceptor atom, score
      L1  H     9    45       P1 10747  1.00
      P1  H  7989  7998       L1    25  1.00
      L1  C    15    50       P1  7957  0.89

> <Gold.PLP.Chemscore.Internal.Correction>
1.1358

> <Gold.Rescore>
     Score         DG    S(hbond)    S(metal)    S(lipo)     H(rot)  DE(clash)    DE(int)     intcor
     11.89     -14.24       1.92        0.00      94.43       3.40       0.04       2.32       ----

> <Gold.Chemscore.Fitness>
11.8882

> <Gold.Chemscore.DG>
-14.2442

> <Gold.Chemscore.ZeroCoef>
-5.4800

> <Gold.Chemscore.Hbond>
1.9210

> <Gold.Chemscore.Metal>
0.0000

> <Gold.Chemscore.Lipo>
94.4312

> <Gold.Chemscore.Internal_Hbond>
0.0000

> <Gold.Chemscore.DEClash>
0.0356

> <Gold.Chemscore.DEInternal>
2.3204

> <Gold.Chemscore.Rot>
3.3986

> <Gold.Chemscore.Internal.Correction>
   9.000000E+99

> <Gold.Chemscore.Hbonds>
donor molecule, donor type, donor heavy atom, donor atom, acceptor molecule, acceptor atom, score
      L1  H     9    45       P1 10747  1.00
      P1  H  7989  7998       L1    25  0.38

> <Gold.Chemscore.Hbond.Weighted>
-6.4162

> <Gold.Chemscore.Metal.Weighted>
-0.0000

> <Gold.Chemscore.Lipo.Weighted>
-11.0485

> <Gold.Chemscore.Internal_Hbond.Weighted>
0.0000

> <Gold.Chemscore.DEClash.Weighted>
0.0356

> <Gold.Chemscore.DEInternal.Weighted>
2.3204

> <Gold.Chemscore.Rot.Weighted>
8.7005

> <Gold.Chemscore.Internal.Correction.Weighted>
   9.000000E+99

> <Gold.Protein.RotatedTorsions>
[ 6907 6896 6895 6894 ] final -129.60 input  -60.11 | X-H torsion
[ 7974 7965 7964 7962 ] final  -27.09 input  175.53 | X-H torsion
[ 8008 7997 7996 7995 ] final -179.14 input   59.86 | X-H torsion
[ 10167 10162 10161 10158 ] final -101.48 input  -65.29 | X-H torsion
[ 10718 10713 10712 10709 ] final   11.63 input   66.30 | X-H torsion
[ 10763 10752 10751 10750 ] final  -69.27 input  -60.55 | X-H torsion
[ 11005 11000 10999 10996 ] final  115.11 input  -57.11 | X-H torsion

> <Gold.Protein.ActiveResidues>
 VAL166  LYS551  ARG553  GLY616  TRP617  ASP618  TYR619  PRO620  LYS621  CYS622 
 ASP623  PHE694  ASN695  SER759  ASP760  ASP761  ALA762  ILE779  LEU786  VAL792 
 PHE793  MET794  SER795  GLU796  ALA797  LYS798  CYS799  TRP800  GLU811  SER814 

> <Gold.Protein.RotatedAtoms>
  150.9305  133.6772  159.2811 H   0  0  0  0  0  0  0  0  0  0  0  0  # atno 6907 bound_to 6896
  151.4196  135.0995  159.9619 H   0  0  0  0  0  0  0  0  0  0  0  0  # atno 6908 bound_to 6896
  152.5023  133.8760  159.7377 H   0  0  0  0  0  0  0  0  0  0  0  0  # atno 6909 bound_to 6896
  146.1382  140.5105  142.8664 H   0  0  0  0  0  0  0  0  0  0  0  0  # atno 7974 bound_to 7965
  156.0271  140.1274  157.0297 H   0  0  0  0  0  0  0  0  0  0  0  0  # atno 8008 bound_to 7997
  154.4334  140.1057  156.6116 H   0  0  0  0  0  0  0  0  0  0  0  0  # atno 8009 bound_to 7997
  155.5861  140.3468  155.4556 H   0  0  0  0  0  0  0  0  0  0  0  0  # atno 8010 bound_to 7997
  140.2408  143.3540  152.0803 H   0  0  0  0  0  0  0  0  0  0  0  0  # atno 10167 bound_to 10162
  156.9983  130.6069  149.5693 H   0  0  0  0  0  0  0  0  0  0  0  0  # atno 10718 bound_to 10713
  154.4009  135.6031  153.5897 H   0  0  0  0  0  0  0  0  0  0  0  0  # atno 10763 bound_to 10752
  152.9788  135.5906  154.4185 H   0  0  0  0  0  0  0  0  0  0  0  0  # atno 10764 bound_to 10752
  154.3983  135.2842  155.2090 H   0  0  0  0  0  0  0  0  0  0  0  0  # atno 10765 bound_to 10752
  139.9000  134.9579  156.6995 H   0  0  0  0  0  0  0  0  0  0  0  0  # atno 11005 bound_to 11000
  144.7762  140.5745  143.6636 LP  0  0  0  0  0  0  0  0  0  0  0  0  # atno 17320 bound_to 7965
  145.5108  139.1479  143.3606 LP  0  0  0  0  0  0  0  0  0  0  0  0  # atno 17321 bound_to 7965
  139.5078  144.6838  151.5940 LP  0  0  0  0  0  0  0  0  0  0  0  0  # atno 17342 bound_to 10162
  140.6115  143.9428  150.6456 LP  0  0  0  0  0  0  0  0  0  0  0  0  # atno 17343 bound_to 10162
  156.0180  130.5275  150.8194 LP  0  0  0  0  0  0  0  0  0  0  0  0  # atno 17370 bound_to 10713
  157.5408  131.0940  150.9829 LP  0  0  0  0  0  0  0  0  0  0  0  0  # atno 17371 bound_to 10713
  140.7161  133.9181  155.8116 LP  0  0  0  0  0  0  0  0  0  0  0  0  # atno 17394 bound_to 11000
  141.0263  134.0819  157.4065 LP  0  0  0  0  0  0  0  0  0  0  0  0  # atno 17395 bound_to 11000

$$$$
