AV-unprocessed.smi:2699|AV-procd|sdf|10424|dock9
  -GOLD-   2272014463D 1   1.00000     0.00000
 Structure written by MMmdl.
 43 45  0  0  0  0  0  0  0  0  1 V2000
  152.7372  136.7863  157.6518 C   0  0  0  0  0  0  0  0  0  0  0  0
  151.7354  137.1449  156.5611 C   0  0  0  0  0  0  0  0  0  0  0  0
  150.9876  136.1970  155.9669 C   0  0  0  0  0  0  0  0  0  0  0  0
  150.0228  136.5706  154.9621 C   0  0  0  0  0  0  0  0  0  0  0  0
  149.2822  135.6319  154.3602 O   0  0  0  0  0  0  0  0  0  0  0  0
  149.8665  137.8674  154.6392 C   0  0  0  0  0  0  0  0  0  0  0  0
  150.6584  138.9243  155.2725 C   0  0  0  0  0  0  0  0  0  0  0  0
  150.4958  140.1094  154.9778 O   0  0  0  0  0  0  0  0  0  0  0  0
  151.5842  138.5166  156.2002 N   0  0  0  0  0  0  0  0  0  0  0  0
  152.4423  139.5448  156.8349 C   0  0  0  0  0  0  0  0  0  0  0  0
  151.6839  140.4633  157.8145 C   0  0  0  0  0  0  0  0  0  0  0  0
  151.1870  140.0060  158.8426 O   0  0  0  0  0  0  0  0  0  0  0  0
  151.5839  141.7701  157.5271 N   0  0  0  0  0  0  0  0  0  0  0  0
  150.9089  142.7861  158.3293 C   0  0  0  0  0  0  0  0  0  0  0  0
  151.8365  143.3870  159.4028 C   0  0  0  0  0  0  0  0  0  0  0  0
  152.4019  142.2247  160.2257 C   0  0  0  0  0  0  0  0  0  0  0  0
  153.3831  142.4544  161.3475 C   0  0  0  0  0  0  0  0  0  0  0  0
  153.8126  141.6965  160.1052 C   0  0  0  0  0  0  0  0  0  0  0  0
  152.8789  144.4071  158.8941 C   0  0  0  0  0  0  0  0  0  0  0  0
  151.8888  145.5355  159.1767 C   0  0  0  0  0  0  0  0  0  0  0  0
  151.2125  144.5842  160.1626 C   0  0  0  0  0  0  0  0  0  0  0  0
  152.5674  135.7710  158.0107 H   0  0  0  0  0  0  0  0  0  0  0  0
  152.6520  137.4428  158.5173 H   0  0  0  0  0  0  0  0  0  0  0  0
  153.7560  136.8333  157.2665 H   0  0  0  0  0  0  0  0  0  0  0  0
  151.0966  135.1595  156.2485 H   0  0  0  0  0  0  0  0  0  0  0  0
  149.0005  135.9818  153.5286 H   0  0  0  0  0  0  0  0  0  0  0  0
  149.1393  138.1439  153.8891 H   0  0  0  0  0  0  0  0  0  0  0  0
  153.2929  139.0954  157.3445 H   0  0  0  0  0  0  0  0  0  0  0  0
  152.9087  140.1674  156.0699 H   0  0  0  0  0  0  0  0  0  0  0  0
  152.0151  142.0897  156.6718 H   0  0  0  0  0  0  0  0  0  0  0  0
  150.5399  143.5655  157.6611 H   0  0  0  0  0  0  0  0  0  0  0  0
  150.0292  142.3460  158.8009 H   0  0  0  0  0  0  0  0  0  0  0  0
  151.6698  141.4384  160.4005 H   0  0  0  0  0  0  0  0  0  0  0  0
  153.7758  143.4602  161.4823 H   0  0  0  0  0  0  0  0  0  0  0  0
  153.2386  141.8843  162.2628 H   0  0  0  0  0  0  0  0  0  0  0  0
  153.9500  140.6215  160.2008 H   0  0  0  0  0  0  0  0  0  0  0  0
  154.5081  142.1858  159.4289 H   0  0  0  0  0  0  0  0  0  0  0  0
  153.7635  144.4633  159.5308 H   0  0  0  0  0  0  0  0  0  0  0  0
  153.1570  144.3041  157.8448 H   0  0  0  0  0  0  0  0  0  0  0  0
  152.3275  146.4258  159.6279 H   0  0  0  0  0  0  0  0  0  0  0  0
  151.2631  145.7806  158.3173 H   0  0  0  0  0  0  0  0  0  0  0  0
  150.1228  144.6195  160.1422 H   0  0  0  0  0  0  0  0  0  0  0  0
  151.5822  144.7293  161.1766 H   0  0  0  0  0  0  0  0  0  0  0  0
  1  2  1  0  0  0  0
  1 22  1  0  0  0  0
  1 23  1  0  0  0  0
  1 24  1  0  0  0  0
  2  9  1  0  0  0  0
  2  3  2  0  0  0  0
  3  4  1  0  0  0  0
  3 25  1  0  0  0  0
  4  5  1  0  0  0  0
  4  6  2  0  0  0  0
  5 26  1  0  0  0  0
  6  7  1  0  0  0  0
  6 27  1  0  0  0  0
  7  8  2  0  0  0  0
  7  9  1  0  0  0  0
  9 10  1  0  0  0  0
 10 11  1  0  0  0  0
 10 28  1  0  0  0  0
 10 29  1  0  0  0  0
 11 12  2  0  0  0  0
 11 13  1  0  0  0  0
 13 14  1  0  0  0  0
 13 30  1  0  0  0  0
 14 15  1  0  0  0  0
 14 31  1  0  0  0  0
 14 32  1  0  0  0  0
 15 21  1  0  0  0  0
 15 16  1  0  0  0  0
 15 19  1  0  0  0  0
 16 18  1  0  0  0  0
 16 17  1  0  0  0  0
 16 33  1  0  0  0  0
 17 18  1  0  0  0  0
 17 34  1  0  0  0  0
 17 35  1  0  0  0  0
 18 36  1  0  0  0  0
 18 37  1  0  0  0  0
 19 20  1  0  0  0  0
 19 38  1  0  0  0  0
 19 39  1  0  0  0  0
 20 21  1  0  0  0  0
 20 40  1  0  0  0  0
 20 41  1  0  0  0  0
 21 42  1  0  0  0  0
 21 43  1  0  0  0  0
M  END
> <s_m_source_file>
AV-unprocessed.smi

> <i_m_source_file_index>
2699

> <i_lp_mmshare_version>
43012

> <i_f3d_flags>
0

> <s_epik_input>
W0NIM11jMVtjSF1jKFtPSF0pW2NIXWMoPU8pbjFbQ0gyXUMoPU8pW05IXVtDSDJdQzIoW0NIXTNbQ0gyXVtDSDJdMylbQ0gyXVtDSDJdW0NIMl0y

> <s_epik_cmdline>
J2VwaWtfcHl0aG9uJywgJy1waCcsICc3LjAnLCAnLXRuJywgJzgnLCAnLW1hJywgJzIwMCcsICctbWV0YWxfYmluZGluZycsICctaW1hZScsICc8aW5maWxlLm1hZT4nLCAnLW9tYWUnLCAnPG91dGZpbGUubWFlPic=

> <r_lp_tautomer_probability>
0.999984

> <r_epik_Ionization_Penalty>
0.783068

> <r_epik_Ionization_Penalty_Charging>
1.5268e-07

> <r_epik_Ionization_Penalty_Neutral>
0.783068

> <r_epik_State_Penalty>
0.823318

> <r_epik_Charging_Adjusted_Penalty>
0.823318

> <i_epik_Tot_Q>
0

> <i_epik_Tot_abs_Q>
0

> <r_epik_Metal_State_Penalty>
0.823318

> <b_epik_Metal_Only>
0

> <s_lp_Force_Field>
OPLS_2005

> <r_lp_Energy>
38.185

> <b_lp_Chiralities_Consistent>
1

> <s_lp_Variant>
AV-unprocessed.smi:2699-2

> <Gold.Version>
5.8.1

> <Gold.Id.Protein>
6NUR|6NUR_protein|mol2

> <Gold.PLP.Fitness>
45.1967

> <Gold.PLP.PLP>
-40.2206

> <Gold.PLP.part.hbond>
-2.0000

> <Gold.PLP.part.metal>
0.0000

> <Gold.PLP.part.buried>
-3.1643

> <Gold.PLP.part.nonpolar>
-34.6387

> <Gold.PLP.part.repulsive>
0.1228

> <Gold.PLP.ligand.clash>
0.0000

> <Gold.PLP.ligand.torsion>
1.3629

> <Gold.PLP.Chemscore.Hbond>
2.0000

> <Gold.PLP.Chemscore.CHOScore>
0.0000

> <Gold.PLP.Chemscore.Metal>
0.0000

> <Gold.Chemscore.Hbonds>
donor molecule, donor type, donor heavy atom, donor atom, acceptor molecule, acceptor atom, score
      L1  H     5    26       P1  7948  1.00
      P1  H  7989  7998       L1     8  1.00

> <Gold.PLP.Chemscore.Internal.Correction>
1.7018

> <Gold.Rescore>
     Score         DG    S(hbond)    S(metal)    S(lipo)     H(rot)  DE(clash)    DE(int)     intcor
     17.82     -20.04       1.96        0.00     118.70       2.30       0.05       2.18       ----

> <Gold.Chemscore.Fitness>
17.8194

> <Gold.Chemscore.DG>
-20.0431

> <Gold.Chemscore.ZeroCoef>
-5.4800

> <Gold.Chemscore.Hbond>
1.9622

> <Gold.Chemscore.Metal>
0.0000

> <Gold.Chemscore.Lipo>
118.6994

> <Gold.Chemscore.Internal_Hbond>
0.0000

> <Gold.Chemscore.DEClash>
0.0457

> <Gold.Chemscore.DEInternal>
2.1781

> <Gold.Chemscore.Rot>
2.2962

> <Gold.Chemscore.Internal.Correction>
   9.000000E+99

> <Gold.Chemscore.Hbonds>
donor molecule, donor type, donor heavy atom, donor atom, acceptor molecule, acceptor atom, score
      L1  H     5    26       P1  7948  0.95
      P1  H  7989  7998       L1     8  0.91

> <Gold.Chemscore.Hbond.Weighted>
-6.5536

> <Gold.Chemscore.Metal.Weighted>
-0.0000

> <Gold.Chemscore.Lipo.Weighted>
-13.8878

> <Gold.Chemscore.Internal_Hbond.Weighted>
0.0000

> <Gold.Chemscore.DEClash.Weighted>
0.0457

> <Gold.Chemscore.DEInternal.Weighted>
2.1781

> <Gold.Chemscore.Rot.Weighted>
5.8783

> <Gold.Chemscore.Internal.Correction.Weighted>
   9.000000E+99

> <Gold.Protein.RotatedTorsions>
[ 6907 6896 6895 6894 ] final  118.40 input  -60.11 | X-H torsion
[ 7974 7965 7964 7962 ] final  179.89 input  175.53 | X-H torsion
[ 8008 7997 7996 7995 ] final  154.38 input   59.86 | X-H torsion
[ 10167 10162 10161 10158 ] final -154.49 input  -65.29 | X-H torsion
[ 10718 10713 10712 10709 ] final -129.61 input   66.30 | X-H torsion
[ 10763 10752 10751 10750 ] final  148.55 input  -60.55 | X-H torsion
[ 11005 11000 10999 10996 ] final -149.32 input  -57.11 | X-H torsion

> <Gold.Protein.ActiveResidues>
 VAL166  LYS551  ARG553  GLY616  TRP617  ASP618  TYR619  PRO620  LYS621  CYS622 
 ASP623  PHE694  ASN695  SER759  ASP760  ASP761  ALA762  ILE779  LEU786  VAL792 
 PHE793  MET794  SER795  GLU796  ALA797  LYS798  CYS799  TRP800  GLU811  SER814 

> <Gold.Protein.RotatedAtoms>
  152.4546  133.7697  159.6791 H   0  0  0  0  0  0  0  0  0  0  0  0  # atno 6907 bound_to 6896
  150.8468  133.7839  159.3046 H   0  0  0  0  0  0  0  0  0  0  0  0  # atno 6908 bound_to 6896
  151.5447  135.1071  159.9987 H   0  0  0  0  0  0  0  0  0  0  0  0  # atno 6909 bound_to 6896
  144.7142  140.0616  143.6432 H   0  0  0  0  0  0  0  0  0  0  0  0  # atno 7974 bound_to 7965
  156.2534  140.1968  156.6638 H   0  0  0  0  0  0  0  0  0  0  0  0  # atno 8008 bound_to 7997
  154.6445  140.0579  156.9909 H   0  0  0  0  0  0  0  0  0  0  0  0  # atno 8009 bound_to 7997
  155.1512  140.3251  155.4433 H   0  0  0  0  0  0  0  0  0  0  0  0  # atno 8010 bound_to 7997
  139.7009  143.9265  152.2428 H   0  0  0  0  0  0  0  0  0  0  0  0  # atno 10167 bound_to 10162
  156.2064  130.6890  151.0599 H   0  0  0  0  0  0  0  0  0  0  0  0  # atno 10718 bound_to 10713
  154.0566  135.2877  155.3332 H   0  0  0  0  0  0  0  0  0  0  0  0  # atno 10763 bound_to 10752
  154.6835  135.5254  153.8298 H   0  0  0  0  0  0  0  0  0  0  0  0  # atno 10764 bound_to 10752
  153.0539  135.6587  154.0758 H   0  0  0  0  0  0  0  0  0  0  0  0  # atno 10765 bound_to 10752
  140.7520  134.3396  157.5123 H   0  0  0  0  0  0  0  0  0  0  0  0  # atno 11005 bound_to 11000
  145.9859  139.2977  143.1014 LP  0  0  0  0  0  0  0  0  0  0  0  0  # atno 17320 bound_to 7965
  145.8957  140.9275  143.0529 LP  0  0  0  0  0  0  0  0  0  0  0  0  # atno 17321 bound_to 7965
  139.9107  144.6858  150.8565 LP  0  0  0  0  0  0  0  0  0  0  0  0  # atno 17342 bound_to 10162
  140.7709  143.3445  151.2138 LP  0  0  0  0  0  0  0  0  0  0  0  0  # atno 17343 bound_to 10162
  157.7014  131.0774  150.6807 LP  0  0  0  0  0  0  0  0  0  0  0  0  # atno 17370 bound_to 10713
  156.6865  130.4582  149.5612 LP  0  0  0  0  0  0  0  0  0  0  0  0  # atno 17371 bound_to 10713
  139.8786  134.9148  156.3115 LP  0  0  0  0  0  0  0  0  0  0  0  0  # atno 17394 bound_to 11000
  140.9742  133.7308  156.0578 LP  0  0  0  0  0  0  0  0  0  0  0  0  # atno 17395 bound_to 11000

$$$$
