AV-unprocessed.smi:1940|AV-procd|sdf|7839|dock3
  -GOLD-   22720 9583D 1   1.00000     0.00000
 Structure written by MMmdl.
 49 51  0  0  0  0  0  0  0  0  1 V2000
  147.8752  132.9679  152.9244 C   0  0  0  0  0  0  0  0  0  0  0  0
  148.7429  133.3155  154.1429 C   0  0  2  0  0  0  0  0  0  0  0  0
  149.1614  134.7133  154.0455 N   0  0  0  0  0  0  0  0  0  0  0  0
  149.6537  135.4606  155.0443 C   0  0  0  0  0  0  0  0  0  0  0  0
  149.8044  135.0469  156.1928 O   0  0  0  0  0  0  0  0  0  0  0  0
  149.9479  136.6995  154.6136 N   0  0  0  0  0  0  0  0  0  0  0  0
  150.4837  137.8048  155.3310 C   0  0  0  0  0  0  0  0  0  0  0  0
  150.7366  139.0852  154.7842 C   0  0  0  0  0  0  0  0  0  0  0  0
  151.2645  140.0905  155.6172 C   0  0  0  0  0  0  0  0  0  0  0  0
  151.5259  139.7991  156.9762 C   0  0  0  0  0  0  0  0  0  0  0  0
  152.0590  140.7944  157.8234 N   0  0  0  0  0  0  0  0  0  0  0  0
  151.2733  142.0164  158.0133 C   0  0  0  0  0  0  0  0  0  0  0  0
  152.1260  143.1342  158.6370 C   0  0  0  0  0  0  0  0  0  0  0  0
  152.7955  142.6580  159.9341 C   0  0  0  0  0  0  0  0  0  0  0  0
  153.6063  141.3807  159.6688 C   0  0  0  0  0  0  0  0  0  0  0  0
  152.7312  140.2923  159.0236 C   0  0  0  0  0  0  0  0  0  0  0  0
  151.2729  138.5750  157.4995 N   0  0  0  0  0  0  0  0  0  0  0  0
  150.7687  137.6143  156.6978 C   0  0  0  0  0  0  0  0  0  0  0  0
  149.9784  132.4004  154.2519 C   0  0  1  0  0  0  0  0  0  0  0  0
  150.7815  132.5579  155.5443 C   0  0  0  0  0  0  0  0  0  0  0  0
  151.4994  131.2303  155.6184 C   0  0  0  0  0  0  0  0  0  0  0  0
  150.4325  130.2669  155.1059 C   0  0  0  0  0  0  0  0  0  0  0  0
  149.5906  131.0287  154.2432 O   0  0  0  0  0  0  0  0  0  0  0  0
  147.5168  131.9395  152.9775 H   0  0  0  0  0  0  0  0  0  0  0  0
  148.4325  133.0778  151.9935 H   0  0  0  0  0  0  0  0  0  0  0  0
  147.0000  133.6159  152.8681 H   0  0  0  0  0  0  0  0  0  0  0  0
  148.1326  133.1665  155.0355 H   0  0  0  0  0  0  0  0  0  0  0  0
  149.0757  135.1433  153.1362 H   0  0  0  0  0  0  0  0  0  0  0  0
  149.7382  136.8846  153.6437 H   0  0  0  0  0  0  0  0  0  0  0  0
  150.5335  139.3289  153.7541 H   0  0  0  0  0  0  0  0  0  0  0  0
  151.4483  141.0741  155.2113 H   0  0  0  0  0  0  0  0  0  0  0  0
  150.8782  142.3616  157.0570 H   0  0  0  0  0  0  0  0  0  0  0  0
  150.4193  141.7965  158.6555 H   0  0  0  0  0  0  0  0  0  0  0  0
  152.8908  143.4489  157.9256 H   0  0  0  0  0  0  0  0  0  0  0  0
  151.5072  144.0100  158.8337 H   0  0  0  0  0  0  0  0  0  0  0  0
  153.4414  143.4399  160.3344 H   0  0  0  0  0  0  0  0  0  0  0  0
  152.0347  142.4610  160.6906 H   0  0  0  0  0  0  0  0  0  0  0  0
  154.4452  141.6110  159.0106 H   0  0  0  0  0  0  0  0  0  0  0  0
  154.0358  141.0099  160.5997 H   0  0  0  0  0  0  0  0  0  0  0  0
  151.9711  139.9602  159.7319 H   0  0  0  0  0  0  0  0  0  0  0  0
  153.3519  139.4247  158.8040 H   0  0  0  0  0  0  0  0  0  0  0  0
  150.5881  136.6581  157.1669 H   0  0  0  0  0  0  0  0  0  0  0  0
  150.6430  132.5623  153.4010 H   0  0  0  0  0  0  0  0  0  0  0  0
  151.4614  133.4102  155.5243 H   0  0  0  0  0  0  0  0  0  0  0  0
  150.1150  132.6715  156.4006 H   0  0  0  0  0  0  0  0  0  0  0  0
  152.3580  131.2329  154.9457 H   0  0  0  0  0  0  0  0  0  0  0  0
  151.8504  130.9854  156.6211 H   0  0  0  0  0  0  0  0  0  0  0  0
  150.8648  129.4123  154.5849 H   0  0  0  0  0  0  0  0  0  0  0  0
  149.8286  129.8897  155.9318 H   0  0  0  0  0  0  0  0  0  0  0  0
  1  2  1  0  0  0  0
  1 24  1  0  0  0  0
  1 25  1  0  0  0  0
  1 26  1  0  0  0  0
  2  3  1  0  0  0  0
  2 19  1  0  0  0  0
  2 27  1  0  0  0  0
  3  4  1  0  0  0  0
  3 28  1  0  0  0  0
  4  5  2  0  0  0  0
  4  6  1  0  0  0  0
  6  7  1  0  0  0  0
  6 29  1  0  0  0  0
  7 18  1  0  0  0  0
  7  8  2  0  0  0  0
  8  9  1  0  0  0  0
  8 30  1  0  0  0  0
  9 10  2  0  0  0  0
  9 31  1  0  0  0  0
 10 11  1  0  0  0  0
 10 17  1  0  0  0  0
 11 16  1  0  0  0  0
 11 12  1  0  0  0  0
 12 13  1  0  0  0  0
 12 32  1  0  0  0  0
 12 33  1  0  0  0  0
 13 14  1  0  0  0  0
 13 34  1  0  0  0  0
 13 35  1  0  0  0  0
 14 15  1  0  0  0  0
 14 36  1  0  0  0  0
 14 37  1  0  0  0  0
 15 16  1  0  0  0  0
 15 38  1  0  0  0  0
 15 39  1  0  0  0  0
 16 40  1  0  0  0  0
 16 41  1  0  0  0  0
 17 18  2  0  0  0  0
 18 42  1  0  0  0  0
 19 23  1  0  0  0  0
 19 20  1  0  0  0  0
 19 43  1  0  0  0  0
 20 21  1  0  0  0  0
 20 44  1  0  0  0  0
 20 45  1  0  0  0  0
 21 22  1  0  0  0  0
 21 46  1  0  0  0  0
 21 47  1  0  0  0  0
 22 23  1  0  0  0  0
 22 48  1  0  0  0  0
 22 49  1  0  0  0  0
M  END
> <s_m_source_file>
AV-unprocessed.smi

> <i_m_source_file_index>
1940

> <i_lp_mmshare_version>
43012

> <i_f3d_flags>
0

> <s_epik_input>
TzFbQ0gyXVtDSDJdW0NIMl1bQ0BIXTFbQ0BIXShbQ0gzXSlbTkhdQyg9TylbTkhdYzJbY0hdW2NIXWMobltjSF0yKU4zW0NIMl1bQ0gyXVtDSDJdW0NIMl1bQ0gyXTM=

> <s_epik_cmdline>
J2VwaWtfcHl0aG9uJywgJy1waCcsICc3LjAnLCAnLXRuJywgJzgnLCAnLW1hJywgJzIwMCcsICctbWV0YWxfYmluZGluZycsICctaW1hZScsICc8aW5maWxlLm1hZT4nLCAnLW9tYWUnLCAnPG91dGZpbGUubWFlPic=

> <r_lp_tautomer_probability>
1

> <r_epik_Ionization_Penalty>
0.105688

> <r_epik_Ionization_Penalty_Charging>
0

> <r_epik_Ionization_Penalty_Neutral>
0.105688

> <r_epik_State_Penalty>
0.0895745

> <r_epik_Charging_Adjusted_Penalty>
0.0895745

> <i_epik_Tot_Q>
0

> <i_epik_Tot_abs_Q>
0

> <r_epik_Metal_State_Penalty>
0.0765749

> <b_epik_Metal_Only>
0

> <s_lp_Force_Field>
OPLS_2005

> <r_lp_Energy>
32.8596

> <b_lp_Chiralities_Consistent>
1

> <s_lp_Variant>
AV-unprocessed.smi:1940-3

> <Gold.Version>
5.8.1

> <Gold.Id.Protein>
6NUR|6NUR_protein|mol2

> <Gold.PLP.Fitness>
45.8223

> <Gold.PLP.PLP>
-40.4866

> <Gold.PLP.part.hbond>
-2.0000

> <Gold.PLP.part.metal>
0.0000

> <Gold.PLP.part.buried>
-4.5828

> <Gold.PLP.part.nonpolar>
-34.0323

> <Gold.PLP.part.repulsive>
0.1181

> <Gold.PLP.ligand.clash>
0.0000

> <Gold.PLP.ligand.torsion>
0.5307

> <Gold.PLP.Chemscore.Hbond>
1.9920

> <Gold.PLP.Chemscore.CHOScore>
0.0000

> <Gold.PLP.Chemscore.Metal>
0.0000

> <Gold.Chemscore.Hbonds>
donor molecule, donor type, donor heavy atom, donor atom, acceptor molecule, acceptor atom, score
      L1  H     3    28       P1  7948  0.90
      L1  H     6    29       P1  7948  0.99

> <Gold.PLP.Chemscore.Internal.Correction>
0.4210

> <Gold.Rescore>
     Score         DG    S(hbond)    S(metal)    S(lipo)     H(rot)  DE(clash)    DE(int)     intcor
     15.89     -19.20       1.64        0.00      99.73       1.34       0.00       3.31       ----

> <Gold.Chemscore.Fitness>
15.8932

> <Gold.Chemscore.DG>
-19.2036

> <Gold.Chemscore.ZeroCoef>
-5.4800

> <Gold.Chemscore.Hbond>
1.6392

> <Gold.Chemscore.Metal>
0.0000

> <Gold.Chemscore.Lipo>
99.7310

> <Gold.Chemscore.Internal_Hbond>
0.0000

> <Gold.Chemscore.DEClash>
0.0015

> <Gold.Chemscore.DEInternal>
3.3089

> <Gold.Chemscore.Rot>
1.3359

> <Gold.Chemscore.Internal.Correction>
   9.000000E+99

> <Gold.Chemscore.Hbonds>
donor molecule, donor type, donor heavy atom, donor atom, acceptor molecule, acceptor atom, score
      L1  H     3    28       P1  7948  0.18
      L1  H     6    29       P1  7948  0.53

> <Gold.Chemscore.Hbond.Weighted>
-5.4749

> <Gold.Chemscore.Metal.Weighted>
-0.0000

> <Gold.Chemscore.Lipo.Weighted>
-11.6685

> <Gold.Chemscore.Internal_Hbond.Weighted>
0.0000

> <Gold.Chemscore.DEClash.Weighted>
0.0015

> <Gold.Chemscore.DEInternal.Weighted>
3.3089

> <Gold.Chemscore.Rot.Weighted>
3.4199

> <Gold.Chemscore.Internal.Correction.Weighted>
   9.000000E+99

> <Gold.Protein.RotatedTorsions>
[ 6907 6896 6895 6894 ] final   62.24 input  -60.11 | X-H torsion
[ 7974 7965 7964 7962 ] final    0.05 input  175.53 | X-H torsion
[ 8008 7997 7996 7995 ] final   66.24 input   59.86 | X-H torsion
[ 10167 10162 10161 10158 ] final  -76.63 input  -65.29 | X-H torsion
[ 10718 10713 10712 10709 ] final  119.73 input   66.30 | X-H torsion
[ 10763 10752 10751 10750 ] final   11.57 input  -60.55 | X-H torsion
[ 11005 11000 10999 10996 ] final   -3.05 input  -57.11 | X-H torsion

> <Gold.Protein.ActiveResidues>
 VAL166  LYS551  ARG553  GLY616  TRP617  ASP618  TYR619  PRO620  LYS621  CYS622 
 ASP623  PHE694  ASN695  SER759  ASP760  ASP761  ALA762  ILE779  LEU786  VAL792 
 PHE793  MET794  SER795  GLU796  ALA797  LYS798  CYS799  TRP800  GLU811  SER814 

> <Gold.Protein.RotatedAtoms>
  152.4156  134.6047  160.0009 H   0  0  0  0  0  0  0  0  0  0  0  0  # atno 6907 bound_to 6896
  151.6212  133.3333  159.3096 H   0  0  0  0  0  0  0  0  0  0  0  0  # atno 6908 bound_to 6896
  150.8045  134.7200  159.6697 H   0  0  0  0  0  0  0  0  0  0  0  0  # atno 6909 bound_to 6896
  146.2431  140.1196  142.8341 H   0  0  0  0  0  0  0  0  0  0  0  0  # atno 7974 bound_to 7965
  155.6744  140.3497  155.4830 H   0  0  0  0  0  0  0  0  0  0  0  0  # atno 8008 bound_to 7997
  155.9661  140.1146  157.0876 H   0  0  0  0  0  0  0  0  0  0  0  0  # atno 8009 bound_to 7997
  154.4155  140.1166  156.5230 H   0  0  0  0  0  0  0  0  0  0  0  0  # atno 8010 bound_to 7997
  140.4840  143.2395  151.8013 H   0  0  0  0  0  0  0  0  0  0  0  0  # atno 10167 bound_to 10162
  157.5941  131.1060  150.7937 H   0  0  0  0  0  0  0  0  0  0  0  0  # atno 10718 bound_to 10713
  153.1912  135.6842  153.8350 H   0  0  0  0  0  0  0  0  0  0  0  0  # atno 10763 bound_to 10752
  153.7649  135.3204  155.3344 H   0  0  0  0  0  0  0  0  0  0  0  0  # atno 10764 bound_to 10752
  154.8118  135.4712  154.0636 H   0  0  0  0  0  0  0  0  0  0  0  0  # atno 10765 bound_to 10752
  140.6651  133.9286  155.8460 H   0  0  0  0  0  0  0  0  0  0  0  0  # atno 11005 bound_to 11000
  145.0417  140.8951  143.5048 LP  0  0  0  0  0  0  0  0  0  0  0  0  # atno 17320 bound_to 7965
  145.1278  139.2651  143.5555 LP  0  0  0  0  0  0  0  0  0  0  0  0  # atno 17321 bound_to 7965
  139.4838  144.4735  151.9395 LP  0  0  0  0  0  0  0  0  0  0  0  0  # atno 17342 bound_to 10162
  140.3821  144.2723  150.5907 LP  0  0  0  0  0  0  0  0  0  0  0  0  # atno 17343 bound_to 10162
  156.8351  130.5029  149.5327 LP  0  0  0  0  0  0  0  0  0  0  0  0  # atno 17370 bound_to 10713
  156.1001  130.5962  150.9879 LP  0  0  0  0  0  0  0  0  0  0  0  0  # atno 17371 bound_to 10713
  141.0435  134.0587  157.3872 LP  0  0  0  0  0  0  0  0  0  0  0  0  # atno 17394 bound_to 11000
  139.9000  135.0161  156.7222 LP  0  0  0  0  0  0  0  0  0  0  0  0  # atno 17395 bound_to 11000

$$$$
