AV-unprocessed.smi:276|AV-procd|sdf|2075|dock3
  -GOLD-   2262021333D 1   1.00000     0.00000
 Structure written by MMmdl.
 57 61  0  0  0  0  0  0  0  0  1 V2000
  152.8637  142.5556  162.9049 C   0  0  0  0  0  0  0  0  0  0  0  0
  152.0525  142.4426  161.7491 O   0  0  0  0  0  0  0  0  0  0  0  0
  152.4832  143.2822  160.6867 C   0  0  1  0  0  0  0  0  0  0  0  0
  153.5665  142.6296  159.8134 C   0  0  0  0  0  0  0  0  0  0  0  0
  152.4560  142.0564  158.9104 C   0  0  1  0  0  0  0  0  0  0  0  0
  152.0984  140.6857  159.3027 N   0  0  0  0  0  0  0  0  0  0  0  0
  153.2103  139.8142  159.6684 C   0  0  0  0  0  0  0  0  0  0  0  0
  151.2673  140.0366  158.4591 C   0  0  0  0  0  0  0  0  0  0  0  0
  151.1158  138.7021  158.6464 N   0  0  0  0  0  0  0  0  0  0  0  0
  150.2996  138.0049  157.8502 C   0  0  0  0  0  0  0  0  0  0  0  0
  149.5655  138.4368  156.8224 N   0  0  0  0  0  0  0  0  0  0  0  0
  149.7322  139.7755  156.6217 C   0  0  0  0  0  0  0  0  0  0  0  0
  150.5581  140.6465  157.3858 C   0  0  0  0  0  0  0  0  0  0  0  0
  150.4768  141.9395  156.8829 N   0  0  0  0  0  0  0  0  0  0  0  0
  149.6505  141.8384  155.8779 C   0  0  0  0  0  0  0  0  0  0  0  0
  149.1624  140.5725  155.6452 N   0  0  0  0  0  0  0  0  0  0  0  0
  148.2434  140.1745  154.5944 C   0  0  0  0  0  0  0  0  0  0  0  0
  147.4389  141.3533  154.0038 C   0  0  1  0  0  0  0  0  0  0  0  0
  146.5745  140.8142  153.0236 O   0  0  0  0  0  0  0  0  0  0  0  0
  146.6032  142.1499  155.0328 C   0  0  2  0  0  0  0  0  0  0  0  0
  145.5735  141.3056  155.7911 C   0  0  0  0  0  0  0  0  0  0  0  0
  144.5292  142.3318  156.1629 C   0  0  0  0  0  0  0  0  0  0  0  0
  144.4988  143.1935  154.9082 C   0  0  0  0  0  0  0  0  0  0  0  0
  145.8260  143.1643  154.3943 O   0  0  0  0  0  0  0  0  0  0  0  0
  151.5449  143.1812  159.4717 C   0  0  0  0  0  0  0  0  0  0  0  0
  151.3095  144.4502  158.6335 C   0  0  0  0  0  0  0  0  0  0  0  0
  149.9713  144.6196  159.3566 C   0  0  0  0  0  0  0  0  0  0  0  0
  150.0121  143.1162  159.6336 C   0  0  0  0  0  0  0  0  0  0  0  0
  152.4884  141.8880  163.6802 H   0  0  0  0  0  0  0  0  0  0  0  0
  152.8445  143.5725  163.2988 H   0  0  0  0  0  0  0  0  0  0  0  0
  153.8977  142.2802  162.6966 H   0  0  0  0  0  0  0  0  0  0  0  0
  152.6973  144.3067  160.9957 H   0  0  0  0  0  0  0  0  0  0  0  0
  154.1765  143.3700  159.2938 H   0  0  0  0  0  0  0  0  0  0  0  0
  154.1966  141.9046  160.3275 H   0  0  0  0  0  0  0  0  0  0  0  0
  152.6861  142.1697  157.8508 H   0  0  0  0  0  0  0  0  0  0  0  0
  152.9189  138.7626  159.6848 H   0  0  0  0  0  0  0  0  0  0  0  0
  153.5778  140.0610  160.6638 H   0  0  0  0  0  0  0  0  0  0  0  0
  154.0347  139.9256  158.9632 H   0  0  0  0  0  0  0  0  0  0  0  0
  150.2252  136.9497  158.0675 H   0  0  0  0  0  0  0  0  0  0  0  0
  149.3817  142.6888  155.2685 H   0  0  0  0  0  0  0  0  0  0  0  0
  148.8217  139.6834  153.8106 H   0  0  0  0  0  0  0  0  0  0  0  0
  147.5656  139.4216  154.9991 H   0  0  0  0  0  0  0  0  0  0  0  0
  148.1194  142.0366  153.4946 H   0  0  0  0  0  0  0  0  0  0  0  0
  145.7155  140.7134  153.4042 H   0  0  0  0  0  0  0  0  0  0  0  0
  147.2599  142.6405  155.7531 H   0  0  0  0  0  0  0  0  0  0  0  0
  145.1340  140.5533  155.1344 H   0  0  0  0  0  0  0  0  0  0  0  0
  145.9965  140.7959  156.6573 H   0  0  0  0  0  0  0  0  0  0  0  0
  143.5603  141.8935  156.4036 H   0  0  0  0  0  0  0  0  0  0  0  0
  144.8650  142.9194  157.0185 H   0  0  0  0  0  0  0  0  0  0  0  0
  143.8300  142.7594  154.1637 H   0  0  0  0  0  0  0  0  0  0  0  0
  144.1699  144.2134  155.1078 H   0  0  0  0  0  0  0  0  0  0  0  0
  152.0245  145.2563  158.8008 H   0  0  0  0  0  0  0  0  0  0  0  0
  151.1886  144.2363  157.5700 H   0  0  0  0  0  0  0  0  0  0  0  0
  150.0516  145.2190  160.2650 H   0  0  0  0  0  0  0  0  0  0  0  0
  149.1458  144.9466  158.7239 H   0  0  0  0  0  0  0  0  0  0  0  0
  149.5077  142.5564  158.8459 H   0  0  0  0  0  0  0  0  0  0  0  0
  149.6595  142.8231  160.6225 H   0  0  0  0  0  0  0  0  0  0  0  0
  1  2  1  0  0  0  0
  1 29  1  0  0  0  0
  1 30  1  0  0  0  0
  1 31  1  0  0  0  0
  2  3  1  0  0  0  0
  3 25  1  0  0  0  0
  3  4  1  0  0  0  0
  3 32  1  0  0  0  0
  4  5  1  0  0  0  0
  4 33  1  0  0  0  0
  4 34  1  0  0  0  0
  5  6  1  0  0  0  0
  5 25  1  0  0  0  0
  5 35  1  0  0  0  0
  6  7  1  0  0  0  0
  6  8  1  0  0  0  0
  7 36  1  0  0  0  0
  7 37  1  0  0  0  0
  7 38  1  0  0  0  0
  8 13  1  0  0  0  0
  8  9  2  0  0  0  0
  9 10  1  0  0  0  0
 10 11  2  0  0  0  0
 10 39  1  0  0  0  0
 11 12  1  0  0  0  0
 12 16  1  0  0  0  0
 12 13  2  0  0  0  0
 13 14  1  0  0  0  0
 14 15  2  0  0  0  0
 15 16  1  0  0  0  0
 15 40  1  0  0  0  0
 16 17  1  0  0  0  0
 17 18  1  0  0  0  0
 17 41  1  0  0  0  0
 17 42  1  0  0  0  0
 18 19  1  0  0  0  0
 18 20  1  0  0  0  0
 18 43  1  0  0  0  0
 19 44  1  0  0  0  0
 20 24  1  0  0  0  0
 20 21  1  0  0  0  0
 20 45  1  0  0  0  0
 21 22  1  0  0  0  0
 21 46  1  0  0  0  0
 21 47  1  0  0  0  0
 22 23  1  0  0  0  0
 22 48  1  0  0  0  0
 22 49  1  0  0  0  0
 23 24  1  0  0  0  0
 23 50  1  0  0  0  0
 23 51  1  0  0  0  0
 25 28  1  0  0  0  0
 25 26  1  0  0  0  0
 26 27  1  0  0  0  0
 26 52  1  0  0  0  0
 26 53  1  0  0  0  0
 27 28  1  0  0  0  0
 27 54  1  0  0  0  0
 27 55  1  0  0  0  0
 28 56  1  0  0  0  0
 28 57  1  0  0  0  0
M  END
> <s_m_source_file>
AV-unprocessed.smi

> <i_m_source_file_index>
276

> <i_lp_mmshare_version>
43012

> <i_f3d_flags>
0

> <s_epik_input>
W0NIMl0xW0NIMl1bQ0gyXUMxMltDQEhdKE9bQ0gzXSlbQ0gyXVtDQEhdMk4oW0NIM10pYyhuW2NIXW4zKWMoYzM0KW5bY0hdbjRbQ0gyXVtDQEhdKFtPSF0pW0NAQEhdNVtDSDJdW0NIMl1bQ0gyXU81

> <s_epik_cmdline>
J2VwaWtfcHl0aG9uJywgJy1waCcsICc3LjAnLCAnLXRuJywgJzgnLCAnLW1hJywgJzIwMCcsICctbWV0YWxfYmluZGluZycsICctaW1hZScsICc8aW5maWxlLm1hZT4nLCAnLW9tYWUnLCAnPG91dGZpbGUubWFlPic=

> <r_lp_tautomer_probability>
1

> <r_epik_Ionization_Penalty>
0.00204117

> <r_epik_Ionization_Penalty_Charging>
0

> <r_epik_Ionization_Penalty_Neutral>
0.00204117

> <r_epik_State_Penalty>
0.00127401

> <r_epik_Charging_Adjusted_Penalty>
0.00127401

> <i_epik_Tot_Q>
0

> <i_epik_Tot_abs_Q>
0

> <r_epik_Metal_State_Penalty>
-0

> <b_epik_Metal_Only>
0

> <s_lp_Force_Field>
OPLS_2005

> <r_lp_Energy>
56.2402

> <b_lp_Chiralities_Consistent>
1

> <s_lp_Variant>
AV-unprocessed.smi:276-6

> <Gold.Version>
5.8.1

> <Gold.Id.Protein>
6NUR|6NUR_protein|mol2

> <Gold.PLP.Fitness>
52.1339

> <Gold.PLP.PLP>
-51.5128

> <Gold.PLP.part.hbond>
-1.8605

> <Gold.PLP.part.metal>
0.0000

> <Gold.PLP.part.buried>
-6.7601

> <Gold.PLP.part.nonpolar>
-42.4107

> <Gold.PLP.part.repulsive>
0.3863

> <Gold.PLP.ligand.clash>
0.0000

> <Gold.PLP.ligand.torsion>
1.5315

> <Gold.PLP.Chemscore.Hbond>
0.1989

> <Gold.PLP.Chemscore.CHOScore>
0.7661

> <Gold.PLP.Chemscore.Metal>
0.0000

> <Gold.Chemscore.Hbonds>
donor molecule, donor type, donor heavy atom, donor atom, acceptor molecule, acceptor atom, score
      L1  H    19    44       P1 10175  0.30
      P1  H  6933  6945       L1     2  0.52
      L1  C    15    40       P1  8028  1.00

> <Gold.PLP.Chemscore.Internal.Correction>
0.7892

> <Gold.Rescore>
     Score         DG    S(hbond)    S(metal)    S(lipo)     H(rot)  DE(clash)    DE(int)     intcor
     10.50     -14.81       0.37        0.00     128.47       2.72       1.77       2.54       ----

> <Gold.Chemscore.Fitness>
10.5007

> <Gold.Chemscore.DG>
-14.8051

> <Gold.Chemscore.ZeroCoef>
-5.4800

> <Gold.Chemscore.Hbond>
0.3743

> <Gold.Chemscore.Metal>
0.0000

> <Gold.Chemscore.Lipo>
128.4703

> <Gold.Chemscore.Internal_Hbond>
0.0000

> <Gold.Chemscore.DEClash>
1.7653

> <Gold.Chemscore.DEInternal>
2.5391

> <Gold.Chemscore.Rot>
2.7172

> <Gold.Chemscore.Internal.Correction>
   9.000000E+99

> <Gold.Chemscore.Hbonds>
donor molecule, donor type, donor heavy atom, donor atom, acceptor molecule, acceptor atom, score
      L1  H    19    44       P1 10175  0.26
      P1  H  6933  6945       L1     2  0.42

> <Gold.Chemscore.Hbond.Weighted>
-1.2501

> <Gold.Chemscore.Metal.Weighted>
-0.0000

> <Gold.Chemscore.Lipo.Weighted>
-15.0310

> <Gold.Chemscore.Internal_Hbond.Weighted>
0.0000

> <Gold.Chemscore.DEClash.Weighted>
1.7653

> <Gold.Chemscore.DEInternal.Weighted>
2.5391

> <Gold.Chemscore.Rot.Weighted>
6.9560

> <Gold.Chemscore.Internal.Correction.Weighted>
   9.000000E+99

> <Gold.Protein.RotatedTorsions>
[ 6907 6896 6895 6894 ] final  173.17 input  -60.11 | X-H torsion
[ 7974 7965 7964 7962 ] final   -5.88 input  175.53 | X-H torsion
[ 8008 7997 7996 7995 ] final  -87.96 input   59.86 | X-H torsion
[ 10167 10162 10161 10158 ] final  -60.87 input  -65.29 | X-H torsion
[ 10718 10713 10712 10709 ] final  158.90 input   66.30 | X-H torsion
[ 10763 10752 10751 10750 ] final  143.68 input  -60.55 | X-H torsion
[ 11005 11000 10999 10996 ] final  -14.99 input  -57.11 | X-H torsion

> <Gold.Protein.ActiveResidues>
 VAL166  LYS551  ARG553  GLY616  TRP617  ASP618  TYR619  PRO620  LYS621  CYS622 
 ASP623  PHE694  ASN695  SER759  ASP760  ASP761  ALA762  ILE779  LEU786  VAL792 
 PHE793  MET794  SER795  GLU796  ALA797  LYS798  CYS799  TRP800  GLU811  SER814 

> <Gold.Protein.RotatedAtoms>
  151.7727  133.3342  159.3448 H   0  0  0  0  0  0  0  0  0  0  0  0  # atno 6907 bound_to 6896
  150.7456  134.6004  159.6043 H   0  0  0  0  0  0  0  0  0  0  0  0  # atno 6908 bound_to 6896
  152.3330  134.7236  160.0336 H   0  0  0  0  0  0  0  0  0  0  0  0  # atno 6909 bound_to 6896
  146.2343  140.2087  142.8335 H   0  0  0  0  0  0  0  0  0  0  0  0  # atno 7974 bound_to 7965
  154.6693  140.0559  157.0148 H   0  0  0  0  0  0  0  0  0  0  0  0  # atno 8008 bound_to 7997
  155.1113  140.3238  155.4502 H   0  0  0  0  0  0  0  0  0  0  0  0  # atno 8009 bound_to 7997
  156.2651  140.2014  156.6237 H   0  0  0  0  0  0  0  0  0  0  0  0  # atno 8010 bound_to 7997
  140.6043  143.2369  151.5857 H   0  0  0  0  0  0  0  0  0  0  0  0  # atno 10167 bound_to 10162
  157.1716  131.0611  151.2179 H   0  0  0  0  0  0  0  0  0  0  0  0  # atno 10718 bound_to 10713
  153.9763  135.2945  155.3423 H   0  0  0  0  0  0  0  0  0  0  0  0  # atno 10763 bound_to 10752
  154.7294  135.5074  153.8942 H   0  0  0  0  0  0  0  0  0  0  0  0  # atno 10764 bound_to 10752
  153.0876  135.6698  154.0032 H   0  0  0  0  0  0  0  0  0  0  0  0  # atno 10765 bound_to 10752
  140.7920  133.8280  155.9389 H   0  0  0  0  0  0  0  0  0  0  0  0  # atno 11005 bound_to 11000
  144.9724  140.8381  143.5447 LP  0  0  0  0  0  0  0  0  0  0  0  0  # atno 17320 bound_to 7965
  145.2070  139.2223  143.5163 LP  0  0  0  0  0  0  0  0  0  0  0  0  # atno 17321 bound_to 7965
  139.5313  144.2907  152.1154 LP  0  0  0  0  0  0  0  0  0  0  0  0  # atno 17342 bound_to 10162
  140.2094  144.4578  150.6393 LP  0  0  0  0  0  0  0  0  0  0  0  0  # atno 17343 bound_to 10162
  157.4038  130.7347  149.6787 LP  0  0  0  0  0  0  0  0  0  0  0  0  # atno 17370 bound_to 10713
  155.9737  130.4114  150.3978 LP  0  0  0  0  0  0  0  0  0  0  0  0  # atno 17371 bound_to 10713
  140.9380  134.1938  157.4818 LP  0  0  0  0  0  0  0  0  0  0  0  0  # atno 17394 bound_to 11000
  139.8730  134.9860  156.5305 LP  0  0  0  0  0  0  0  0  0  0  0  0  # atno 17395 bound_to 11000

$$$$
