AV-unprocessed.smi:2364|AV-procd|sdf|9417|dock7
  -GOLD-   2272013 53D 1   1.00000     0.00000
 Structure written by MMmdl.
 46 47  0  0  0  0  0  0  0  0  1 V2000
  151.3025  142.9251  157.0248 C   0  0  0  0  0  0  0  0  0  0  0  0
  151.3267  141.4571  157.4853 C   0  0  0  0  0  0  0  0  0  0  0  0
  150.7333  140.4236  156.4823 C   0  0  1  0  0  0  0  0  0  0  0  0
  149.3843  140.9381  155.9278 C   0  0  0  0  0  0  0  0  0  0  0  0
  151.7023  140.1685  155.2996 C   0  0  0  0  0  0  0  0  0  0  0  0
  152.8937  139.5212  155.7000 O   0  0  0  0  0  0  0  0  0  0  0  0
  150.5296  139.1163  157.1242 N   0  0  0  0  0  0  0  0  0  0  0  0
  149.5930  138.7541  158.0183 C   0  0  0  0  0  0  0  0  0  0  0  0
  148.7200  139.5089  158.4470 O   0  0  0  0  0  0  0  0  0  0  0  0
  149.7390  137.4645  158.3708 N   0  0  0  0  0  0  0  0  0  0  0  0
  149.0078  136.7338  159.3435 C   0  0  0  0  0  0  0  0  0  0  0  0
  148.7813  135.4040  159.1477 N   0  0  0  0  0  0  0  0  0  0  0  0
  148.1164  135.1379  160.2644 C   0  0  0  0  0  0  0  0  0  0  0  0
  147.9184  136.1987  161.0578 N   0  0  0  0  0  0  0  0  0  0  0  0
  147.3255  136.2902  162.3959 C   0  0  0  0  0  0  0  0  0  0  0  0
  146.7129  134.9457  162.8531 C   0  0  0  0  0  0  0  0  0  0  0  0
  145.4674  134.5715  162.0282 C   0  0  0  0  0  0  0  0  0  0  0  0
  144.4029  135.6788  162.1036 C   0  0  0  0  0  0  0  0  0  0  0  0
  144.9777  137.0446  161.6929 C   0  0  0  0  0  0  0  0  0  0  0  0
  146.2368  137.3870  162.5123 C   0  0  0  0  0  0  0  0  0  0  0  0
  148.5457  137.2550  160.4810 N   0  0  0  0  0  0  0  0  0  0  0  0
  151.7494  143.5683  157.7830 H   0  0  0  0  0  0  0  0  0  0  0  0
  150.2855  143.2794  156.8593 H   0  0  0  0  0  0  0  0  0  0  0  0
  151.8661  143.0707  156.1034 H   0  0  0  0  0  0  0  0  0  0  0  0
  152.3577  141.1925  157.7200 H   0  0  0  0  0  0  0  0  0  0  0  0
  150.8014  141.3847  158.4381 H   0  0  0  0  0  0  0  0  0  0  0  0
  149.5084  141.8746  155.3833 H   0  0  0  0  0  0  0  0  0  0  0  0
  148.6608  141.1302  156.7200 H   0  0  0  0  0  0  0  0  0  0  0  0
  148.9357  140.2185  155.2421 H   0  0  0  0  0  0  0  0  0  0  0  0
  151.2272  139.5611  154.5289 H   0  0  0  0  0  0  0  0  0  0  0  0
  151.9741  141.1102  154.8208 H   0  0  0  0  0  0  0  0  0  0  0  0
  152.8363  138.6096  155.4579 H   0  0  0  0  0  0  0  0  0  0  0  0
  151.1878  138.4010  156.8524 H   0  0  0  0  0  0  0  0  0  0  0  0
  150.4711  136.9498  157.9043 H   0  0  0  0  0  0  0  0  0  0  0  0
  147.7743  134.1429  160.5064 H   0  0  0  0  0  0  0  0  0  0  0  0
  148.1403  136.5444  163.0749 H   0  0  0  0  0  0  0  0  0  0  0  0
  147.4502  134.1443  162.8068 H   0  0  0  0  0  0  0  0  0  0  0  0
  146.4319  135.0209  163.9043 H   0  0  0  0  0  0  0  0  0  0  0  0
  145.7454  134.3991  160.9877 H   0  0  0  0  0  0  0  0  0  0  0  0
  145.0500  133.6331  162.3937 H   0  0  0  0  0  0  0  0  0  0  0  0
  143.5549  135.4248  161.4669 H   0  0  0  0  0  0  0  0  0  0  0  0
  144.0165  135.7403  163.1217 H   0  0  0  0  0  0  0  0  0  0  0  0
  145.2133  137.0373  160.6283 H   0  0  0  0  0  0  0  0  0  0  0  0
  144.2235  137.8196  161.8325 H   0  0  0  0  0  0  0  0  0  0  0  0
  145.9557  137.4974  163.5604 H   0  0  0  0  0  0  0  0  0  0  0  0
  146.6271  138.3610  162.2141 H   0  0  0  0  0  0  0  0  0  0  0  0
  1  2  1  0  0  0  0
  1 22  1  0  0  0  0
  1 23  1  0  0  0  0
  1 24  1  0  0  0  0
  2  3  1  0  0  0  0
  2 25  1  0  0  0  0
  2 26  1  0  0  0  0
  3  4  1  0  0  0  0
  3  5  1  0  0  0  0
  3  7  1  0  0  0  0
  4 27  1  0  0  0  0
  4 28  1  0  0  0  0
  4 29  1  0  0  0  0
  5  6  1  0  0  0  0
  5 30  1  0  0  0  0
  5 31  1  0  0  0  0
  6 32  1  0  0  0  0
  7  8  1  0  0  0  0
  7 33  1  0  0  0  0
  8  9  2  0  0  0  0
  8 10  1  0  0  0  0
 10 11  1  0  0  0  0
 10 34  1  0  0  0  0
 11 21  2  0  0  0  0
 11 12  1  0  0  0  0
 12 13  2  0  0  0  0
 13 14  1  0  0  0  0
 13 35  1  0  0  0  0
 14 15  1  0  0  0  0
 14 21  1  0  0  0  0
 15 20  1  0  0  0  0
 15 16  1  0  0  0  0
 15 36  1  0  0  0  0
 16 17  1  0  0  0  0
 16 37  1  0  0  0  0
 16 38  1  0  0  0  0
 17 18  1  0  0  0  0
 17 39  1  0  0  0  0
 17 40  1  0  0  0  0
 18 19  1  0  0  0  0
 18 41  1  0  0  0  0
 18 42  1  0  0  0  0
 19 20  1  0  0  0  0
 19 43  1  0  0  0  0
 19 44  1  0  0  0  0
 20 45  1  0  0  0  0
 20 46  1  0  0  0  0
M  END
> <s_m_source_file>
AV-unprocessed.smi

> <i_m_source_file_index>
2364

> <i_lp_mmshare_version>
43012

> <i_f3d_flags>
0

> <s_epik_input>
W0NIM11bQ0gyXVtDQEBdKFtDSDNdKShbQ0gyXVtPSF0pW05IXUMoPU8pW05IXWMxbltjSF1uKG4xKVtDSF0yW0NIMl1bQ0gyXVtDSDJdW0NIMl1bQ0gyXTI=

> <s_epik_cmdline>
J2VwaWtfcHl0aG9uJywgJy1waCcsICc3LjAnLCAnLXRuJywgJzgnLCAnLW1hJywgJzIwMCcsICctbWV0YWxfYmluZGluZycsICctaW1hZScsICc8aW5maWxlLm1hZT4nLCAnLW9tYWUnLCAnPG91dGZpbGUubWFlPic=

> <r_lp_tautomer_probability>
1

> <r_epik_Ionization_Penalty>
9.31261e-05

> <r_epik_Ionization_Penalty_Charging>
0

> <r_epik_Ionization_Penalty_Neutral>
9.31261e-05

> <r_epik_State_Penalty>
-0

> <r_epik_Charging_Adjusted_Penalty>
0

> <i_epik_Tot_Q>
0

> <i_epik_Tot_abs_Q>
0

> <r_epik_Metal_State_Penalty>
-0

> <b_epik_Metal_Only>
0

> <s_lp_Force_Field>
OPLS_2005

> <r_lp_Energy>
23.546

> <b_lp_Chiralities_Consistent>
1

> <s_lp_Variant>
AV-unprocessed.smi:2364-1

> <Gold.Version>
5.8.1

> <Gold.Id.Protein>
6NUR|6NUR_protein|mol2

> <Gold.PLP.Fitness>
43.6760

> <Gold.PLP.PLP>
-36.2097

> <Gold.PLP.part.hbond>
-5.0000

> <Gold.PLP.part.metal>
0.0000

> <Gold.PLP.part.buried>
-1.9052

> <Gold.PLP.part.nonpolar>
-29.1813

> <Gold.PLP.part.repulsive>
0.1448

> <Gold.PLP.ligand.clash>
0.0000

> <Gold.PLP.ligand.torsion>
0.7102

> <Gold.PLP.Chemscore.Hbond>
2.9162

> <Gold.PLP.Chemscore.CHOScore>
0.0000

> <Gold.PLP.Chemscore.Metal>
0.0000

> <Gold.Chemscore.Hbonds>
donor molecule, donor type, donor heavy atom, donor atom, acceptor molecule, acceptor atom, score
      P1  H  6896  6907       L1    12  0.81
      P1  H  6931  6943       L1    21  0.69
      P1  H  6934  6947       L1    21  0.21
      P1  H  7997  8010       L1     6  1.00

> <Gold.PLP.Chemscore.Internal.Correction>
0.1381

> <Gold.Rescore>
     Score         DG    S(hbond)    S(metal)    S(lipo)     H(rot)  DE(clash)    DE(int)     intcor
     14.24     -17.23       2.75        0.00      73.06       2.34       0.35       2.64       ----

> <Gold.Chemscore.Fitness>
14.2426

> <Gold.Chemscore.DG>
-17.2291

> <Gold.Chemscore.ZeroCoef>
-5.4800

> <Gold.Chemscore.Hbond>
2.7485

> <Gold.Chemscore.Metal>
0.0000

> <Gold.Chemscore.Lipo>
73.0573

> <Gold.Chemscore.Internal_Hbond>
0.0000

> <Gold.Chemscore.DEClash>
0.3461

> <Gold.Chemscore.DEInternal>
2.6404

> <Gold.Chemscore.Rot>
2.3354

> <Gold.Chemscore.Internal.Correction>
   9.000000E+99

> <Gold.Chemscore.Hbonds>
donor molecule, donor type, donor heavy atom, donor atom, acceptor molecule, acceptor atom, score
      P1  H  6896  6907       L1    12  0.12
      P1  H  6931  6943       L1    21  0.30
      P1  H  6934  6947       L1    21  0.10
      P1  H  7997  8010       L1     6  0.97

> <Gold.Chemscore.Hbond.Weighted>
-9.1801

> <Gold.Chemscore.Metal.Weighted>
-0.0000

> <Gold.Chemscore.Lipo.Weighted>
-8.5477

> <Gold.Chemscore.Internal_Hbond.Weighted>
0.0000

> <Gold.Chemscore.DEClash.Weighted>
0.3461

> <Gold.Chemscore.DEInternal.Weighted>
2.6404

> <Gold.Chemscore.Rot.Weighted>
5.9787

> <Gold.Chemscore.Internal.Correction.Weighted>
   9.000000E+99

> <Gold.Protein.RotatedTorsions>
[ 6907 6896 6895 6894 ] final  -74.50 input  -60.11 | X-H torsion
[ 7974 7965 7964 7962 ] final  138.12 input  175.53 | X-H torsion
[ 8008 7997 7996 7995 ] final   78.98 input   59.86 | X-H torsion
[ 10167 10162 10161 10158 ] final   59.41 input  -65.29 | X-H torsion
[ 10718 10713 10712 10709 ] final  -41.20 input   66.30 | X-H torsion
[ 10763 10752 10751 10750 ] final  -11.56 input  -60.55 | X-H torsion
[ 11005 11000 10999 10996 ] final -166.00 input  -57.11 | X-H torsion

> <Gold.Protein.ActiveResidues>
 VAL166  LYS551  ARG553  GLY616  TRP617  ASP618  TYR619  PRO620  LYS621  CYS622 
 ASP623  PHE694  ASN695  SER759  ASP760  ASP761  ALA762  ILE779  LEU786  VAL792 
 PHE793  MET794  SER795  GLU796  ALA797  LYS798  CYS799  TRP800  GLU811  SER814 

> <Gold.Protein.RotatedAtoms>
  150.7091  134.4859  159.5492 H   0  0  0  0  0  0  0  0  0  0  0  0  # atno 6907 bound_to 6896
  152.2487  134.8152  160.0458 H   0  0  0  0  0  0  0  0  0  0  0  0  # atno 6908 bound_to 6896
  151.8908  133.3480  159.3834 H   0  0  0  0  0  0  0  0  0  0  0  0  # atno 6909 bound_to 6896
  144.9402  139.4940  143.5575 H   0  0  0  0  0  0  0  0  0  0  0  0  # atno 7974 bound_to 7965
  155.8633  140.3452  155.5771 H   0  0  0  0  0  0  0  0  0  0  0  0  # atno 8008 bound_to 7997
  155.7909  140.0871  157.2029 H   0  0  0  0  0  0  0  0  0  0  0  0  # atno 8009 bound_to 7997
  154.4013  140.1483  156.3149 H   0  0  0  0  0  0  0  0  0  0  0  0  # atno 8010 bound_to 7997
  140.1767  144.4223  150.6635 H   0  0  0  0  0  0  0  0  0  0  0  0  # atno 10167 bound_to 10162
  156.2729  130.4208  149.8418 H   0  0  0  0  0  0  0  0  0  0  0  0  # atno 10718 bound_to 10713
  153.4856  135.7017  153.5913 H   0  0  0  0  0  0  0  0  0  0  0  0  # atno 10763 bound_to 10752
  153.4108  135.3849  155.2049 H   0  0  0  0  0  0  0  0  0  0  0  0  # atno 10764 bound_to 10752
  154.8719  135.3904  154.4310 H   0  0  0  0  0  0  0  0  0  0  0  0  # atno 10765 bound_to 10752
  140.5693  134.5253  157.5159 H   0  0  0  0  0  0  0  0  0  0  0  0  # atno 11005 bound_to 11000
  146.3283  139.8416  142.8889 LP  0  0  0  0  0  0  0  0  0  0  0  0  # atno 17320 bound_to 7965
  145.3002  141.0192  143.3613 LP  0  0  0  0  0  0  0  0  0  0  0  0  # atno 17321 bound_to 7965
  140.6547  143.2234  151.5997 LP  0  0  0  0  0  0  0  0  0  0  0  0  # atno 17342 bound_to 10162
  139.5314  144.2905  152.1156 LP  0  0  0  0  0  0  0  0  0  0  0  0  # atno 17343 bound_to 10162
  156.5893  130.8499  151.3404 LP  0  0  0  0  0  0  0  0  0  0  0  0  # atno 17370 bound_to 10713
  157.7290  130.9664  150.1767 LP  0  0  0  0  0  0  0  0  0  0  0  0  # atno 17371 bound_to 10713
  139.9369  134.7858  156.0779 LP  0  0  0  0  0  0  0  0  0  0  0  0  # atno 17394 bound_to 11000
  141.1066  133.6658  156.2878 LP  0  0  0  0  0  0  0  0  0  0  0  0  # atno 17395 bound_to 11000

$$$$
