AV-unprocessed.smi:155|AV-procd|sdf|1270|dock7
  -GOLD-   2262018533D 1   1.00000     0.00000
 Structure written by MMmdl.
 63 66  0  0  0  0  0  0  0  0  2 V2000
  145.5570  131.8016  150.4496 C   0  0  0  0  0  0  0  0  0  0  0  0
  145.0116  133.0337  149.8955 N   0  0  0  0  0  0  0  0  0  0  0  0
  143.8590  132.6881  149.0701 C   0  0  0  0  0  0  0  0  0  0  0  0
  144.6417  133.9298  150.9917 C   0  0  0  0  0  0  0  0  0  0  0  0
  144.3531  135.3638  150.5007 C   0  0  0  0  0  0  0  0  0  0  0  0
  144.4143  136.3485  151.6125 N   0  3  1  0  0  0  0  0  0  0  0  0
  143.2776  136.1960  152.5548 C   0  0  0  0  0  0  0  0  0  0  0  0
  143.1534  137.3583  153.5545 C   0  0  0  0  0  0  0  0  0  0  0  0
  144.2066  137.3178  154.6724 C   0  0  0  0  0  0  0  0  0  0  0  0
  145.5014  137.8797  154.2821 N   0  0  0  0  0  0  0  0  0  0  0  0
  146.3426  138.3020  155.2637 C   0  0  0  0  0  0  0  0  0  0  0  0
  146.0025  138.0745  156.5606 N   0  0  0  0  0  0  0  0  0  0  0  0
  146.8040  138.4723  157.5524 C   0  0  0  0  0  0  0  0  0  0  0  0
  147.9749  139.1055  157.4743 N   0  0  0  0  0  0  0  0  0  0  0  0
  148.3242  139.3422  156.1779 C   0  0  0  0  0  0  0  0  0  0  0  0
  147.5709  138.9858  155.0225 C   0  0  0  0  0  0  0  0  0  0  0  0
  148.2314  139.4238  153.8794 N   0  0  0  0  0  0  0  0  0  0  0  0
  149.3146  139.9926  154.3324 C   0  0  0  0  0  0  0  0  0  0  0  0
  149.4607  139.9718  155.7007 N   0  0  0  0  0  0  0  0  0  0  0  0
  150.5647  140.5313  156.4645 C   0  0  0  0  0  0  0  0  0  0  0  0
  150.5317  142.0717  156.6313 C   0  0  1  0  0  0  0  0  0  0  0  0
  149.2531  142.5175  157.0354 O   0  0  0  0  0  0  0  0  0  0  0  0
  151.5903  142.7149  157.5580 C   0  0  2  0  0  0  0  0  0  0  0  0
  151.4502  142.3415  159.0329 C   0  0  0  0  0  0  0  0  0  0  0  0
  152.2825  143.4165  159.6954 C   0  0  0  0  0  0  0  0  0  0  0  0
  151.9965  144.6382  158.8233 C   0  0  0  0  0  0  0  0  0  0  0  0
  151.5508  144.1380  157.5642 O   0  0  0  0  0  0  0  0  0  0  0  0
  146.0305  137.7374  152.9248 C   0  0  0  0  0  0  0  0  0  0  0  0
  145.7371  136.3695  152.2892 C   0  0  0  0  0  0  0  0  0  0  0  0
  146.4440  132.0085  151.0496 H   0  0  0  0  0  0  0  0  0  0  0  0
  145.8531  131.1189  149.6520 H   0  0  0  0  0  0  0  0  0  0  0  0
  144.8280  131.2924  151.0823 H   0  0  0  0  0  0  0  0  0  0  0  0
  143.4418  133.5632  148.5739 H   0  0  0  0  0  0  0  0  0  0  0  0
  143.0703  132.2218  149.6626 H   0  0  0  0  0  0  0  0  0  0  0  0
  144.1500  131.9875  148.2865 H   0  0  0  0  0  0  0  0  0  0  0  0
  143.7703  133.5290  151.5120 H   0  0  0  0  0  0  0  0  0  0  0  0
  145.4464  133.9558  151.7268 H   0  0  0  0  0  0  0  0  0  0  0  0
  145.0467  135.6291  149.7036 H   0  0  0  0  0  0  0  0  0  0  0  0
  143.3644  135.4073  150.0413 H   0  0  0  0  0  0  0  0  0  0  0  0
  142.3530  136.1640  151.9768 H   0  0  0  0  0  0  0  0  0  0  0  0
  143.3482  135.2409  153.0778 H   0  0  0  0  0  0  0  0  0  0  0  0
  143.1551  138.3226  153.0443 H   0  0  0  0  0  0  0  0  0  0  0  0
  142.1739  137.2767  154.0267 H   0  0  0  0  0  0  0  0  0  0  0  0
  143.8229  137.9004  155.5114 H   0  0  0  0  0  0  0  0  0  0  0  0
  144.3396  136.2988  155.0381 H   0  0  0  0  0  0  0  0  0  0  0  0
  146.4583  138.2501  158.5512 H   0  0  0  0  0  0  0  0  0  0  0  0
  150.0486  140.4370  153.6759 H   0  0  0  0  0  0  0  0  0  0  0  0
  150.5838  140.0482  157.4412 H   0  0  0  0  0  0  0  0  0  0  0  0
  151.4927  140.2371  155.9727 H   0  0  0  0  0  0  0  0  0  0  0  0
  150.6768  142.4997  155.6388 H   0  0  0  0  0  0  0  0  0  0  0  0
  148.9712  143.1993  156.4449 H   0  0  0  0  0  0  0  0  0  0  0  0
  152.5884  142.4149  157.2322 H   0  0  0  0  0  0  0  0  0  0  0  0
  150.4146  142.4211  159.3639 H   0  0  0  0  0  0  0  0  0  0  0  0
  151.8037  141.3335  159.2521 H   0  0  0  0  0  0  0  0  0  0  0  0
  152.0272  143.5711  160.7442 H   0  0  0  0  0  0  0  0  0  0  0  0
  153.3401  143.1550  159.6371 H   0  0  0  0  0  0  0  0  0  0  0  0
  151.2014  145.2464  159.2555 H   0  0  0  0  0  0  0  0  0  0  0  0
  152.8783  145.2686  158.7056 H   0  0  0  0  0  0  0  0  0  0  0  0
  145.6622  138.5490  152.2962 H   0  0  0  0  0  0  0  0  0  0  0  0
  147.1156  137.8415  152.9505 H   0  0  0  0  0  0  0  0  0  0  0  0
  145.8310  135.5546  153.0090 H   0  0  0  0  0  0  0  0  0  0  0  0
  146.5134  136.1952  151.5446 H   0  0  0  0  0  0  0  0  0  0  0  0
  144.2951  137.2505  151.1735 H   0  0  0  0  0  0  0  0  0  0  0  0
  1  2  1  0  0  0  0
  1 30  1  0  0  0  0
  1 31  1  0  0  0  0
  1 32  1  0  0  0  0
  2  3  1  0  0  0  0
  2  4  1  0  0  0  0
  3 33  1  0  0  0  0
  3 34  1  0  0  0  0
  3 35  1  0  0  0  0
  4  5  1  0  0  0  0
  4 36  1  0  0  0  0
  4 37  1  0  0  0  0
  5  6  1  0  0  0  0
  5 38  1  0  0  0  0
  5 39  1  0  0  0  0
  6 29  1  0  0  0  0
  6  7  1  0  0  0  0
  6 63  1  0  0  0  0
  7  8  1  0  0  0  0
  7 40  1  0  0  0  0
  7 41  1  0  0  0  0
  8  9  1  0  0  0  0
  8 42  1  0  0  0  0
  8 43  1  0  0  0  0
  9 10  1  0  0  0  0
  9 44  1  0  0  0  0
  9 45  1  0  0  0  0
 10 11  1  0  0  0  0
 10 28  1  0  0  0  0
 11 16  1  0  0  0  0
 11 12  2  0  0  0  0
 12 13  1  0  0  0  0
 13 14  2  0  0  0  0
 13 46  1  0  0  0  0
 14 15  1  0  0  0  0
 15 19  1  0  0  0  0
 15 16  2  0  0  0  0
 16 17  1  0  0  0  0
 17 18  2  0  0  0  0
 18 19  1  0  0  0  0
 18 47  1  0  0  0  0
 19 20  1  0  0  0  0
 20 21  1  0  0  0  0
 20 48  1  0  0  0  0
 20 49  1  0  0  0  0
 21 22  1  0  0  0  0
 21 23  1  0  0  0  0
 21 50  1  0  0  0  0
 22 51  1  0  0  0  0
 23 27  1  0  0  0  0
 23 24  1  0  0  0  0
 23 52  1  0  0  0  0
 24 25  1  0  0  0  0
 24 53  1  0  0  0  0
 24 54  1  0  0  0  0
 25 26  1  0  0  0  0
 25 55  1  0  0  0  0
 25 56  1  0  0  0  0
 26 27  1  0  0  0  0
 26 57  1  0  0  0  0
 26 58  1  0  0  0  0
 28 29  1  0  0  0  0
 28 59  1  0  0  0  0
 28 60  1  0  0  0  0
 29 61  1  0  0  0  0
 29 62  1  0  0  0  0
M  CHG  1   6   1
M  END
> <s_m_source_file>
AV-unprocessed.smi

> <i_m_source_file_index>
155

> <i_lp_mmshare_version>
43012

> <i_f3d_flags>
0

> <s_epik_input>
W0NIM11OKFtDSDNdKVtDSDJdW0NIMl1OMVtDSDJdW0NIMl1bQ0gyXU4oW0NIMl1bQ0gyXTEpYyhuW2NIXW4yKWMoYzIzKW5bY0hdbjNbQ0gyXVtDQEhdKFtPSF0pW0NAQEhdNFtDSDJdW0NIMl1bQ0gyXU80

> <s_epik_cmdline>
J2VwaWtfcHl0aG9uJywgJy1waCcsICc3LjAnLCAnLXRuJywgJzgnLCAnLW1hJywgJzIwMCcsICctbWV0YWxfYmluZGluZycsICctaW1hZScsICc8aW5maWxlLm1hZT4nLCAnLW9tYWUnLCAnPG91dGZpbGUubWFlPic=

> <r_epik_Ionization_Penalty>
0.0619615

> <r_epik_Ionization_Penalty_Charging>
0.0161638

> <r_epik_Ionization_Penalty_Neutral>
0.0457976

> <r_epik_State_Penalty>
0.403408

> <r_epik_Charging_Adjusted_Penalty>
0.419572

> <i_epik_Tot_Q>
1

> <i_epik_Tot_abs_Q>
1

> <r_epik_Metal_State_Penalty>
0.404222

> <b_epik_Metal_Only>
0

> <s_lp_Force_Field>
OPLS_2005

> <r_lp_Energy>
53.2961

> <b_lp_Chiralities_Consistent>
1

> <s_lp_Variant>
AV-unprocessed.smi:155-4

> <Gold.Version>
5.8.1

> <Gold.Id.Protein>
6NUR|6NUR_protein|mol2

> <Gold.PLP.Fitness>
50.2775

> <Gold.PLP.PLP>
-43.1685

> <Gold.PLP.part.hbond>
-2.0000

> <Gold.PLP.part.metal>
0.0000

> <Gold.PLP.part.buried>
-7.3020

> <Gold.PLP.part.nonpolar>
-35.5898

> <Gold.PLP.part.repulsive>
1.2301

> <Gold.PLP.ligand.clash>
0.0000

> <Gold.PLP.ligand.torsion>
0.5908

> <Gold.PLP.Chemscore.Hbond>
2.0000

> <Gold.PLP.Chemscore.CHOScore>
0.6945

> <Gold.PLP.Chemscore.Metal>
0.0000

> <Gold.Chemscore.Hbonds>
donor molecule, donor type, donor heavy atom, donor atom, acceptor molecule, acceptor atom, score
      L1  H     6    63       P1 10171  1.00
      L1  H    22    51       P1  8028  1.00
      L1  C    18    47       P1  7957  0.61

> <Gold.PLP.Chemscore.Internal.Correction>
0.2071

> <Gold.Rescore>
     Score         DG    S(hbond)    S(metal)    S(lipo)     H(rot)  DE(clash)    DE(int)     intcor
     16.51     -18.40       1.97        0.00     111.75       2.63       0.13       1.76       ----

> <Gold.Chemscore.Fitness>
16.5080

> <Gold.Chemscore.DG>
-18.4038

> <Gold.Chemscore.ZeroCoef>
-5.4800

> <Gold.Chemscore.Hbond>
1.9725

> <Gold.Chemscore.Metal>
0.0000

> <Gold.Chemscore.Lipo>
111.7474

> <Gold.Chemscore.Internal_Hbond>
0.0000

> <Gold.Chemscore.DEClash>
0.1337

> <Gold.Chemscore.DEInternal>
1.7622

> <Gold.Chemscore.Rot>
2.6324

> <Gold.Chemscore.Internal.Correction>
   9.000000E+99

> <Gold.Chemscore.Hbonds>
donor molecule, donor type, donor heavy atom, donor atom, acceptor molecule, acceptor atom, score
      L1  H     6    63       P1 10171  0.98
      L1  H    22    51       P1  8028  0.98

> <Gold.Chemscore.Hbond.Weighted>
-6.5882

> <Gold.Chemscore.Metal.Weighted>
-0.0000

> <Gold.Chemscore.Lipo.Weighted>
-13.0744

> <Gold.Chemscore.Internal_Hbond.Weighted>
0.0000

> <Gold.Chemscore.DEClash.Weighted>
0.1337

> <Gold.Chemscore.DEInternal.Weighted>
1.7622

> <Gold.Chemscore.Rot.Weighted>
6.7389

> <Gold.Chemscore.Internal.Correction.Weighted>
   9.000000E+99

> <Gold.Protein.RotatedTorsions>
[ 6907 6896 6895 6894 ] final  148.26 input  -60.11 | X-H torsion
[ 7974 7965 7964 7962 ] final  -13.36 input  175.53 | X-H torsion
[ 8008 7997 7996 7995 ] final  -15.08 input   59.86 | X-H torsion
[ 10167 10162 10161 10158 ] final   86.72 input  -65.29 | X-H torsion
[ 10718 10713 10712 10709 ] final -122.80 input   66.30 | X-H torsion
[ 10763 10752 10751 10750 ] final   18.04 input  -60.55 | X-H torsion
[ 11005 11000 10999 10996 ] final -148.06 input  -57.11 | X-H torsion

> <Gold.Protein.ActiveResidues>
 VAL166  LYS551  ARG553  GLY616  TRP617  ASP618  TYR619  PRO620  LYS621  CYS622 
 ASP623  PHE694  ASN695  SER759  ASP760  ASP761  ALA762  ILE779  LEU786  VAL792 
 PHE793  MET794  SER795  GLU796  ALA797  LYS798  CYS799  TRP800  GLU811  SER814 

> <Gold.Protein.RotatedAtoms>
  152.1439  133.4480  159.4779 H   0  0  0  0  0  0  0  0  0  0  0  0  # atno 6907 bound_to 6896
  150.6888  134.2272  159.4429 H   0  0  0  0  0  0  0  0  0  0  0  0  # atno 6908 bound_to 6896
  152.0165  134.9847  160.0620 H   0  0  0  0  0  0  0  0  0  0  0  0  # atno 6909 bound_to 6896
  146.2117  140.3193  142.8389 H   0  0  0  0  0  0  0  0  0  0  0  0  # atno 7974 bound_to 7965
  154.5158  140.2206  155.9068 H   0  0  0  0  0  0  0  0  0  0  0  0  # atno 8008 bound_to 7997
  156.1606  140.3143  155.8766 H   0  0  0  0  0  0  0  0  0  0  0  0  # atno 8009 bound_to 7997
  155.3759  140.0469  157.3035 H   0  0  0  0  0  0  0  0  0  0  0  0  # atno 8010 bound_to 7997
  139.8846  144.6420  150.8805 H   0  0  0  0  0  0  0  0  0  0  0  0  # atno 10167 bound_to 10162
  156.1448  130.6492  150.9826 H   0  0  0  0  0  0  0  0  0  0  0  0  # atno 10718 bound_to 10713
  153.1284  135.6735  153.9218 H   0  0  0  0  0  0  0  0  0  0  0  0  # atno 10763 bound_to 10752
  153.8712  135.3069  155.3443 H   0  0  0  0  0  0  0  0  0  0  0  0  # atno 10764 bound_to 10752
  154.7686  135.4951  153.9684 H   0  0  0  0  0  0  0  0  0  0  0  0  # atno 10765 bound_to 10752
  140.7652  134.3252  157.5090 H   0  0  0  0  0  0  0  0  0  0  0  0  # atno 11005 bound_to 11000
  144.8932  140.7550  143.5914 LP  0  0  0  0  0  0  0  0  0  0  0  0  # atno 17320 bound_to 7965
  145.3116  139.1817  143.4636 LP  0  0  0  0  0  0  0  0  0  0  0  0  # atno 17321 bound_to 7965
  140.7738  143.3558  151.1924 LP  0  0  0  0  0  0  0  0  0  0  0  0  # atno 17342 bound_to 10162
  139.7165  143.9293  152.2968 LP  0  0  0  0  0  0  0  0  0  0  0  0  # atno 17343 bound_to 10162
  157.6607  131.0881  150.7844 LP  0  0  0  0  0  0  0  0  0  0  0  0  # atno 17370 bound_to 10713
  156.7916  130.4892  149.5384 LP  0  0  0  0  0  0  0  0  0  0  0  0  # atno 17371 bound_to 10713
  139.8764  134.9227  156.3306 LP  0  0  0  0  0  0  0  0  0  0  0  0  # atno 17394 bound_to 11000
  140.9626  133.7379  156.0422 LP  0  0  0  0  0  0  0  0  0  0  0  0  # atno 17395 bound_to 11000

$$$$
