AV-unprocessed.smi:83|AV-procd|sdf|806|dock4
  -GOLD-   2262017193D 1   1.00000     0.00000
 Structure written by MMmdl.
 56 59  0  0  0  0  0  0  0  0  1 V2000
  150.5143  145.0277  159.8360 C   0  0  0  0  0  0  0  0  0  0  0  0
  151.6935  144.3040  159.1831 C   0  0  0  0  0  0  0  0  0  0  0  0
  151.9085  144.4769  157.9838 O   0  0  0  0  0  0  0  0  0  0  0  0
  152.4582  143.4981  159.9470 N   0  0  0  0  0  0  0  0  0  0  0  0
  152.2309  143.2719  161.3718 C   0  0  0  0  0  0  0  0  0  0  0  0
  153.3684  142.3521  161.8262 C   0  0  0  0  0  0  0  0  0  0  0  0
  153.7879  141.6097  160.5577 C   0  0  1  0  0  0  0  0  0  0  0  0
  152.9169  140.3432  160.3693 C   0  0  0  0  0  0  0  0  0  0  0  0
  152.4476  140.1346  158.9983 N   0  0  0  0  0  0  0  0  0  0  0  0
  151.3109  140.9400  158.5557 C   0  0  0  0  0  0  0  0  0  0  0  0
  152.7532  138.9941  158.3097 C   0  0  0  0  0  0  0  0  0  0  0  0
  154.0606  138.7559  158.0133 N   0  0  0  0  0  0  0  0  0  0  0  0
  154.4246  137.6833  157.3068 C   0  0  0  0  0  0  0  0  0  0  0  0
  153.6553  136.7229  156.7970 N   0  0  0  0  0  0  0  0  0  0  0  0
  152.3434  136.9357  157.0961 C   0  0  0  0  0  0  0  0  0  0  0  0
  151.8070  138.0254  157.8449 C   0  0  0  0  0  0  0  0  0  0  0  0
  150.4267  137.8708  157.9413 N   0  0  0  0  0  0  0  0  0  0  0  0
  150.1643  136.7791  157.2790 C   0  0  0  0  0  0  0  0  0  0  0  0
  151.2606  136.1546  156.7361 N   0  0  0  0  0  0  0  0  0  0  0  0
  151.2669  134.9316  155.9543 C   0  0  0  0  0  0  0  0  0  0  0  0
  149.9540  134.7300  155.1735 C   0  0  1  0  0  0  0  0  0  0  0  0
  149.6089  135.9055  154.4632 O   0  0  0  0  0  0  0  0  0  0  0  0
  150.0009  133.5180  154.2208 C   0  0  1  0  0  0  0  0  0  0  0  0
  150.3383  132.1678  154.8765 C   0  0  0  0  0  0  0  0  0  0  0  0
  149.1023  131.3269  154.6172 C   0  0  0  0  0  0  0  0  0  0  0  0
  148.5382  131.9584  153.3516 C   0  0  0  0  0  0  0  0  0  0  0  0
  148.7476  133.3450  153.5633 O   0  0  0  0  0  0  0  0  0  0  0  0
  153.5846  142.6911  159.4846 C   0  0  0  0  0  0  0  0  0  0  0  0
  149.8735  144.3244  160.3684 H   0  0  0  0  0  0  0  0  0  0  0  0
  149.9072  145.5313  159.0830 H   0  0  0  0  0  0  0  0  0  0  0  0
  150.8679  145.7806  160.5400 H   0  0  0  0  0  0  0  0  0  0  0  0
  152.2219  144.2061  161.9353 H   0  0  0  0  0  0  0  0  0  0  0  0
  151.2646  142.7835  161.5073 H   0  0  0  0  0  0  0  0  0  0  0  0
  154.2022  142.9582  162.1828 H   0  0  0  0  0  0  0  0  0  0  0  0
  153.0756  141.6893  162.6412 H   0  0  0  0  0  0  0  0  0  0  0  0
  154.8368  141.3163  160.6150 H   0  0  0  0  0  0  0  0  0  0  0  0
  153.5235  139.4749  160.6286 H   0  0  0  0  0  0  0  0  0  0  0  0
  152.1096  140.3186  161.0932 H   0  0  0  0  0  0  0  0  0  0  0  0
  151.4029  141.1948  157.4993 H   0  0  0  0  0  0  0  0  0  0  0  0
  151.2517  141.8739  159.1152 H   0  0  0  0  0  0  0  0  0  0  0  0
  150.3748  140.4006  158.7048 H   0  0  0  0  0  0  0  0  0  0  0  0
  155.4835  137.5842  157.1190 H   0  0  0  0  0  0  0  0  0  0  0  0
  149.1599  136.3966  157.1701 H   0  0  0  0  0  0  0  0  0  0  0  0
  152.1191  134.9598  155.2741 H   0  0  0  0  0  0  0  0  0  0  0  0
  151.4366  134.0943  156.6321 H   0  0  0  0  0  0  0  0  0  0  0  0
  149.1506  134.5563  155.8906 H   0  0  0  0  0  0  0  0  0  0  0  0
  149.6347  135.7147  153.5380 H   0  0  0  0  0  0  0  0  0  0  0  0
  150.7422  133.7155  153.4446 H   0  0  0  0  0  0  0  0  0  0  0  0
  151.2021  131.7233  154.3803 H   0  0  0  0  0  0  0  0  0  0  0  0
  150.5733  132.2397  155.9388 H   0  0  0  0  0  0  0  0  0  0  0  0
  149.3215  130.2649  154.5047 H   0  0  0  0  0  0  0  0  0  0  0  0
  148.3925  131.4452  155.4369 H   0  0  0  0  0  0  0  0  0  0  0  0
  149.0963  131.6342  152.4717 H   0  0  0  0  0  0  0  0  0  0  0  0
  147.4836  131.7296  153.1972 H   0  0  0  0  0  0  0  0  0  0  0  0
  153.4429  142.2824  158.4872 H   0  0  0  0  0  0  0  0  0  0  0  0
  154.4632  143.3359  159.4385 H   0  0  0  0  0  0  0  0  0  0  0  0
  1  2  1  0  0  0  0
  1 29  1  0  0  0  0
  1 30  1  0  0  0  0
  1 31  1  0  0  0  0
  2  3  2  0  0  0  0
  2  4  1  0  0  0  0
  4 28  1  0  0  0  0
  4  5  1  0  0  0  0
  5  6  1  0  0  0  0
  5 32  1  0  0  0  0
  5 33  1  0  0  0  0
  6  7  1  0  0  0  0
  6 34  1  0  0  0  0
  6 35  1  0  0  0  0
  7  8  1  0  0  0  0
  7 28  1  0  0  0  0
  7 36  1  0  0  0  0
  8  9  1  0  0  0  0
  8 37  1  0  0  0  0
  8 38  1  0  0  0  0
  9 10  1  0  0  0  0
  9 11  1  0  0  0  0
 10 39  1  0  0  0  0
 10 40  1  0  0  0  0
 10 41  1  0  0  0  0
 11 16  1  0  0  0  0
 11 12  2  0  0  0  0
 12 13  1  0  0  0  0
 13 14  2  0  0  0  0
 13 42  1  0  0  0  0
 14 15  1  0  0  0  0
 15 19  1  0  0  0  0
 15 16  2  0  0  0  0
 16 17  1  0  0  0  0
 17 18  2  0  0  0  0
 18 19  1  0  0  0  0
 18 43  1  0  0  0  0
 19 20  1  0  0  0  0
 20 21  1  0  0  0  0
 20 44  1  0  0  0  0
 20 45  1  0  0  0  0
 21 22  1  0  0  0  0
 21 23  1  0  0  0  0
 21 46  1  0  0  0  0
 22 47  1  0  0  0  0
 23 27  1  0  0  0  0
 23 24  1  0  0  0  0
 23 48  1  0  0  0  0
 24 25  1  0  0  0  0
 24 49  1  0  0  0  0
 24 50  1  0  0  0  0
 25 26  1  0  0  0  0
 25 51  1  0  0  0  0
 25 52  1  0  0  0  0
 26 27  1  0  0  0  0
 26 53  1  0  0  0  0
 26 54  1  0  0  0  0
 28 55  1  0  0  0  0
 28 56  1  0  0  0  0
M  END
> <s_m_source_file>
AV-unprocessed.smi

> <i_m_source_file_index>
83

> <i_lp_mmshare_version>
43012

> <i_f3d_flags>
0

> <s_epik_input>
W0NIM11DKD1PKU4xW0NIMl1bQ0gyXVtDQEhdKFtDSDJdMSlbQ0gyXU4oW0NIM10pYyhuW2NIXW4yKWMoYzIzKW5bY0hdbjNbQ0gyXVtDQEhdKFtPSF0pW0NAQEhdNFtDSDJdW0NIMl1bQ0gyXU80

> <s_epik_cmdline>
J2VwaWtfcHl0aG9uJywgJy1waCcsICc3LjAnLCAnLXRuJywgJzgnLCAnLW1hJywgJzIwMCcsICctbWV0YWxfYmluZGluZycsICctaW1hZScsICc8aW5maWxlLm1hZT4nLCAnLW9tYWUnLCAnPG91dGZpbGUubWFlPic=

> <r_lp_tautomer_probability>
1

> <r_epik_Ionization_Penalty>
0.00109752

> <r_epik_Ionization_Penalty_Charging>
0

> <r_epik_Ionization_Penalty_Neutral>
0.00109752

> <r_epik_State_Penalty>
0.000634803

> <r_epik_Charging_Adjusted_Penalty>
0.000634803

> <i_epik_Tot_Q>
0

> <i_epik_Tot_abs_Q>
0

> <r_epik_Metal_State_Penalty>
-0

> <b_epik_Metal_Only>
0

> <s_lp_Force_Field>
OPLS_2005

> <r_lp_Energy>
56.5247

> <b_lp_Chiralities_Consistent>
1

> <s_lp_Variant>
AV-unprocessed.smi:83-7

> <Gold.Version>
5.8.1

> <Gold.Id.Protein>
6NUR|6NUR_protein|mol2

> <Gold.PLP.Fitness>
57.9826

> <Gold.PLP.PLP>
-52.6317

> <Gold.PLP.part.hbond>
-3.0000

> <Gold.PLP.part.metal>
0.0000

> <Gold.PLP.part.buried>
-7.5033

> <Gold.PLP.part.nonpolar>
-41.9349

> <Gold.PLP.part.repulsive>
0.5665

> <Gold.PLP.ligand.clash>
0.0000

> <Gold.PLP.ligand.torsion>
2.0849

> <Gold.PLP.Chemscore.Hbond>
2.9760

> <Gold.PLP.Chemscore.CHOScore>
0.0000

> <Gold.PLP.Chemscore.Metal>
0.0000

> <Gold.Chemscore.Hbonds>
donor molecule, donor type, donor heavy atom, donor atom, acceptor molecule, acceptor atom, score
      L1  H    22    47       P1  7948  0.78
      P1  H  7997  8009       L1    12  1.00
      P1  H 10752 10764       L1    14  0.88

> <Gold.PLP.Chemscore.Internal.Correction>
0.5927

> <Gold.Rescore>
     Score         DG    S(hbond)    S(metal)    S(lipo)     H(rot)  DE(clash)    DE(int)     intcor
     14.33     -18.59       2.42        0.00     100.30       2.62       0.01       4.25       ----

> <Gold.Chemscore.Fitness>
14.3281

> <Gold.Chemscore.DG>
-18.5869

> <Gold.Chemscore.ZeroCoef>
-5.4800

> <Gold.Chemscore.Hbond>
2.4152

> <Gold.Chemscore.Metal>
0.0000

> <Gold.Chemscore.Lipo>
100.2984

> <Gold.Chemscore.Internal_Hbond>
0.0000

> <Gold.Chemscore.DEClash>
0.0108

> <Gold.Chemscore.DEInternal>
4.2481

> <Gold.Chemscore.Rot>
2.6152

> <Gold.Chemscore.Internal.Correction>
   9.000000E+99

> <Gold.Chemscore.Hbonds>
donor molecule, donor type, donor heavy atom, donor atom, acceptor molecule, acceptor atom, score
      L1  H    22    47       P1  7948  0.13
      P1  H  7997  8009       L1    12  0.19
      P1  H 10752 10764       L1    14  0.38

> <Gold.Chemscore.Hbond.Weighted>
-8.0669

> <Gold.Chemscore.Metal.Weighted>
-0.0000

> <Gold.Chemscore.Lipo.Weighted>
-11.7349

> <Gold.Chemscore.Internal_Hbond.Weighted>
0.0000

> <Gold.Chemscore.DEClash.Weighted>
0.0108

> <Gold.Chemscore.DEInternal.Weighted>
4.2481

> <Gold.Chemscore.Rot.Weighted>
6.6949

> <Gold.Chemscore.Internal.Correction.Weighted>
   9.000000E+99

> <Gold.Protein.RotatedTorsions>
[ 6907 6896 6895 6894 ] final  126.46 input  -60.11 | X-H torsion
[ 7974 7965 7964 7962 ] final -114.11 input  175.53 | X-H torsion
[ 8008 7997 7996 7995 ] final  155.85 input   59.86 | X-H torsion
[ 10167 10162 10161 10158 ] final   -7.06 input  -65.29 | X-H torsion
[ 10718 10713 10712 10709 ] final   45.54 input   66.30 | X-H torsion
[ 10763 10752 10751 10750 ] final    0.70 input  -60.55 | X-H torsion
[ 11005 11000 10999 10996 ] final  107.46 input  -57.11 | X-H torsion

> <Gold.Protein.ActiveResidues>
 VAL166  LYS551  ARG553  GLY616  TRP617  ASP618  TYR619  PRO620  LYS621  CYS622 
 ASP623  PHE694  ASN695  SER759  ASP760  ASP761  ALA762  ILE779  LEU786  VAL792 
 PHE793  MET794  SER795  GLU796  ALA797  LYS798  CYS799  TRP800  GLU811  SER814 

> <Gold.Protein.RotatedAtoms>
  152.3901  133.6667  159.6230 H   0  0  0  0  0  0  0  0  0  0  0  0  # atno 6907 bound_to 6896
  150.7811  133.8968  159.3338 H   0  0  0  0  0  0  0  0  0  0  0  0  # atno 6908 bound_to 6896
  151.6756  135.0971  160.0258 H   0  0  0  0  0  0  0  0  0  0  0  0  # atno 6909 bound_to 6896
  145.1241  140.8686  143.3797 H   0  0  0  0  0  0  0  0  0  0  0  0  # atno 7974 bound_to 7965
  156.2455  140.1928  156.6865 H   0  0  0  0  0  0  0  0  0  0  0  0  # atno 8008 bound_to 7997
  154.6283  140.0599  156.9727 H   0  0  0  0  0  0  0  0  0  0  0  0  # atno 8009 bound_to 7997
  155.1751  140.3271  155.4388 H   0  0  0  0  0  0  0  0  0  0  0  0  # atno 8010 bound_to 7997
  140.7017  143.6124  150.8691 H   0  0  0  0  0  0  0  0  0  0  0  0  # atno 10167 bound_to 10162
  157.4387  130.8068  149.7672 H   0  0  0  0  0  0  0  0  0  0  0  0  # atno 10718 bound_to 10713
  153.3174  135.6967  153.7061 H   0  0  0  0  0  0  0  0  0  0  0  0  # atno 10763 bound_to 10752
  153.5914  135.3479  155.2913 H   0  0  0  0  0  0  0  0  0  0  0  0  # atno 10764 bound_to 10752
  154.8590  135.4319  154.2329 H   0  0  0  0  0  0  0  0  0  0  0  0  # atno 10765 bound_to 10752
  139.8828  134.9401  156.5822 H   0  0  0  0  0  0  0  0  0  0  0  0  # atno 11005 bound_to 11000
  145.0708  139.3033  143.5833 LP  0  0  0  0  0  0  0  0  0  0  0  0  # atno 17320 bound_to 7965
  146.3519  140.0182  142.8661 LP  0  0  0  0  0  0  0  0  0  0  0  0  # atno 17321 bound_to 7965
  139.9846  143.5913  152.2931 LP  0  0  0  0  0  0  0  0  0  0  0  0  # atno 17342 bound_to 10162
  139.6547  144.7662  151.2080 LP  0  0  0  0  0  0  0  0  0  0  0  0  # atno 17343 bound_to 10162
  155.9940  130.3921  150.2877 LP  0  0  0  0  0  0  0  0  0  0  0  0  # atno 17370 bound_to 10713
  157.1039  131.0203  151.3074 LP  0  0  0  0  0  0  0  0  0  0  0  0  # atno 17371 bound_to 10713
  140.8018  133.8499  155.8733 LP  0  0  0  0  0  0  0  0  0  0  0  0  # atno 17394 bound_to 11000
  140.9585  134.1686  157.4672 LP  0  0  0  0  0  0  0  0  0  0  0  0  # atno 17395 bound_to 11000

$$$$
