AV-unprocessed.smi:2999|AV-procd|sdf|11420|dock1
  -GOLD-   2272016343D 1   1.00000     0.00000
 Structure written by MMmdl.
 38 40  0  0  0  0  0  0  0  0  2 V2000
  146.4567  141.2649  157.6018 O   0  0  0  0  0  0  0  0  0  0  0  0
  147.1913  142.2101  157.3148 C   0  0  0  0  0  0  0  0  0  0  0  0
  147.8263  142.3217  156.1395 N   0  0  0  0  0  0  0  0  0  0  0  0
  147.7474  141.3577  155.0450 C   0  0  0  0  0  0  0  0  0  0  0  0
  148.7637  140.2042  155.1742 C   0  0  1  0  0  0  0  0  0  0  0  0
  148.5471  139.0679  154.1476 C   0  0  0  0  0  0  0  0  0  0  0  0
  149.5785  138.0121  154.2820 N   0  3  2  0  0  0  0  0  0  0  0  0
  149.3523  137.1088  155.4343 C   0  0  0  0  0  0  0  0  0  0  0  0
  150.4640  136.1073  155.6416 C   0  0  0  0  0  0  0  0  0  0  0  0
  149.1484  135.6644  155.0408 C   0  0  0  0  0  0  0  0  0  0  0  0
  150.9408  138.5947  154.2493 C   0  0  0  0  0  0  0  0  0  0  0  0
  151.0850  139.7397  155.2686 C   0  0  0  0  0  0  0  0  0  0  0  0
  150.0832  140.7209  155.0329 O   0  0  0  0  0  0  0  0  0  0  0  0
  147.4683  143.2522  158.1177 N   0  0  0  0  0  0  0  0  0  0  0  0
  147.0003  143.4920  159.4364 C   0  0  0  0  0  0  0  0  0  0  0  0
  146.1618  142.6858  160.0978 N   0  0  0  0  0  0  0  0  0  0  0  0
  145.8713  143.1676  161.3767 C   0  0  0  0  0  0  0  0  0  0  0  0
  146.5033  144.3491  161.6748 C   0  0  0  0  0  0  0  0  0  0  0  0
  147.4936  144.9078  160.3533 S   0  0  0  0  0  0  0  0  0  0  0  0
  148.4043  143.1354  155.9880 H   0  0  0  0  0  0  0  0  0  0  0  0
  146.7339  140.9634  154.9560 H   0  0  0  0  0  0  0  0  0  0  0  0
  147.9408  141.9026  154.1208 H   0  0  0  0  0  0  0  0  0  0  0  0
  148.6643  139.8038  156.1841 H   0  0  0  0  0  0  0  0  0  0  0  0
  147.5507  138.6370  154.2512 H   0  0  0  0  0  0  0  0  0  0  0  0
  148.6108  139.4612  153.1325 H   0  0  0  0  0  0  0  0  0  0  0  0
  148.8225  137.5232  156.2897 H   0  0  0  0  0  0  0  0  0  0  0  0
  151.3281  136.1526  154.9808 H   0  0  0  0  0  0  0  0  0  0  0  0
  150.6754  135.7959  156.6626 H   0  0  0  0  0  0  0  0  0  0  0  0
  148.4928  135.0618  155.6664 H   0  0  0  0  0  0  0  0  0  0  0  0
  149.1395  135.4135  153.9816 H   0  0  0  0  0  0  0  0  0  0  0  0
  151.6881  137.8208  154.4280 H   0  0  0  0  0  0  0  0  0  0  0  0
  151.1259  138.9794  153.2455 H   0  0  0  0  0  0  0  0  0  0  0  0
  151.0180  139.3713  156.2930 H   0  0  0  0  0  0  0  0  0  0  0  0
  152.0643  140.2080  155.1673 H   0  0  0  0  0  0  0  0  0  0  0  0
  148.0857  143.9571  157.7432 H   0  0  0  0  0  0  0  0  0  0  0  0
  145.2031  142.6041  162.0107 H   0  0  0  0  0  0  0  0  0  0  0  0
  146.4462  144.9218  162.5884 H   0  0  0  0  0  0  0  0  0  0  0  0
  149.4978  137.4262  153.4633 H   0  0  0  0  0  0  0  0  0  0  0  0
  1  2  2  0  0  0  0
  2  3  1  0  0  0  0
  2 14  1  0  0  0  0
  3  4  1  0  0  0  0
  3 20  1  0  0  0  0
  4  5  1  0  0  0  0
  4 21  1  0  0  0  0
  4 22  1  0  0  0  0
  5 13  1  0  0  0  0
  5  6  1  0  0  0  0
  5 23  1  0  0  0  0
  6  7  1  0  0  0  0
  6 24  1  0  0  0  0
  6 25  1  0  0  0  0
  7  8  1  0  0  0  0
  7 11  1  0  0  0  0
  7 38  1  0  0  0  0
  8 10  1  0  0  0  0
  8  9  1  0  0  0  0
  8 26  1  0  0  0  0
  9 10  1  0  0  0  0
  9 27  1  0  0  0  0
  9 28  1  0  0  0  0
 10 29  1  0  0  0  0
 10 30  1  0  0  0  0
 11 12  1  0  0  0  0
 11 31  1  0  0  0  0
 11 32  1  0  0  0  0
 12 13  1  0  0  0  0
 12 33  1  0  0  0  0
 12 34  1  0  0  0  0
 14 15  1  0  0  0  0
 14 35  1  0  0  0  0
 15 19  1  0  0  0  0
 15 16  2  0  0  0  0
 16 17  1  0  0  0  0
 17 18  2  0  0  0  0
 17 36  1  0  0  0  0
 18 19  1  0  0  0  0
 18 37  1  0  0  0  0
M  CHG  1   7   1
M  END
> <s_m_source_file>
AV-unprocessed.smi

> <i_m_source_file_index>
2999

> <i_lp_mmshare_version>
43012

> <i_f3d_flags>
0

> <s_epik_input>
czFbY0hdW2NIXW5jMVtOSF1DKD1PKVtOSF1bQ0gyXVtDQEBIXTJbQ0gyXU4oW0NIMl1bQ0gyXU8yKVtDSF0zW0NIMl1bQ0gyXTM=

> <s_epik_cmdline>
J2VwaWtfcHl0aG9uJywgJy1waCcsICc3LjAnLCAnLXRuJywgJzgnLCAnLW1hJywgJzIwMCcsICctbWV0YWxfYmluZGluZycsICctaW1hZScsICc8aW5maWxlLm1hZT4nLCAnLW9tYWUnLCAnPG91dGZpbGUubWFlPic=

> <r_lp_tautomer_probability>
0.999

> <r_epik_Ionization_Penalty>
1.55235

> <r_epik_Ionization_Penalty_Charging>
1.55221

> <r_epik_Ionization_Penalty_Neutral>
0.000139685

> <r_epik_State_Penalty>
1.64652

> <r_epik_Charging_Adjusted_Penalty>
3.19873

> <i_epik_Tot_Q>
1

> <i_epik_Tot_abs_Q>
1

> <r_epik_Metal_State_Penalty>
1.68612

> <b_epik_Metal_Only>
0

> <s_lp_Force_Field>
OPLS_2005

> <r_lp_Energy>
24.3861

> <b_lp_Chiralities_Consistent>
1

> <s_lp_Variant>
AV-unprocessed.smi:2999-4

> <Gold.Version>
5.8.1

> <Gold.Id.Protein>
6NUR|6NUR_protein|mol2

> <Gold.PLP.Fitness>
41.0351

> <Gold.PLP.PLP>
-29.5253

> <Gold.PLP.part.hbond>
-5.2271

> <Gold.PLP.part.metal>
0.0000

> <Gold.PLP.part.buried>
-5.0026

> <Gold.PLP.part.nonpolar>
-20.5585

> <Gold.PLP.part.repulsive>
0.2465

> <Gold.PLP.ligand.clash>
0.0000

> <Gold.PLP.ligand.torsion>
0.9948

> <Gold.PLP.Chemscore.Hbond>
4.0738

> <Gold.PLP.Chemscore.CHOScore>
0.0000

> <Gold.PLP.Chemscore.Metal>
0.0000

> <Gold.Chemscore.Hbonds>
donor molecule, donor type, donor heavy atom, donor atom, acceptor molecule, acceptor atom, score
      L1  H     3    20       P1  8028  1.00
      L1  H     7    38       P1  7948  1.95
      L1  H    14    35       P1  8029  0.27
      P1  H  6934  6946       L1    16  0.73

> <Gold.PLP.Chemscore.Internal.Correction>
1.2781

> <Gold.Rescore>
     Score         DG    S(hbond)    S(metal)    S(lipo)     H(rot)  DE(clash)    DE(int)     intcor
     13.37     -15.59       2.24        0.00      57.01       1.58       0.01       2.22       ----

> <Gold.Chemscore.Fitness>
13.3663

> <Gold.Chemscore.DG>
-15.5897

> <Gold.Chemscore.ZeroCoef>
-5.4800

> <Gold.Chemscore.Hbond>
2.2404

> <Gold.Chemscore.Metal>
0.0000

> <Gold.Chemscore.Lipo>
57.0103

> <Gold.Chemscore.Internal_Hbond>
0.0000

> <Gold.Chemscore.DEClash>
0.0053

> <Gold.Chemscore.DEInternal>
2.2181

> <Gold.Chemscore.Rot>
1.5795

> <Gold.Chemscore.Internal.Correction>
   9.000000E+99

> <Gold.Chemscore.Hbonds>
donor molecule, donor type, donor heavy atom, donor atom, acceptor molecule, acceptor atom, score
      L1  H     3    20       P1  8028  0.92
      L1  H     7    38       P1  7948  0.85
      L1  H    14    35       P1  8029  0.01
      P1  H  6934  6946       L1    16  0.10

> <Gold.Chemscore.Hbond.Weighted>
-7.4829

> <Gold.Chemscore.Metal.Weighted>
-0.0000

> <Gold.Chemscore.Lipo.Weighted>
-6.6702

> <Gold.Chemscore.Internal_Hbond.Weighted>
0.0000

> <Gold.Chemscore.DEClash.Weighted>
0.0053

> <Gold.Chemscore.DEInternal.Weighted>
2.2181

> <Gold.Chemscore.Rot.Weighted>
4.0434

> <Gold.Chemscore.Internal.Correction.Weighted>
   9.000000E+99

> <Gold.Protein.RotatedTorsions>
[ 6907 6896 6895 6894 ] final  -39.16 input  -60.11 | X-H torsion
[ 7974 7965 7964 7962 ] final   12.36 input  175.53 | X-H torsion
[ 8008 7997 7996 7995 ] final   42.56 input   59.86 | X-H torsion
[ 10167 10162 10161 10158 ] final  -91.22 input  -65.29 | X-H torsion
[ 10718 10713 10712 10709 ] final -145.83 input   66.30 | X-H torsion
[ 10763 10752 10751 10750 ] final   -2.72 input  -60.55 | X-H torsion
[ 11005 11000 10999 10996 ] final  139.71 input  -57.11 | X-H torsion

> <Gold.Protein.ActiveResidues>
 VAL166  LYS551  ARG553  GLY616  TRP617  ASP618  TYR619  PRO620  LYS621  CYS622 
 ASP623  PHE694  ASN695  SER759  ASP760  ASP761  ALA762  ILE779  LEU786  VAL792 
 PHE793  MET794  SER795  GLU796  ALA797  LYS798  CYS799  TRP800  GLU811  SER814 

> <Gold.Protein.RotatedAtoms>
  150.9937  134.9265  159.7913 H   0  0  0  0  0  0  0  0  0  0  0  0  # atno 6907 bound_to 6896
  152.5258  134.3247  159.9171 H   0  0  0  0  0  0  0  0  0  0  0  0  # atno 6908 bound_to 6896
  151.3253  133.3981  159.2692 H   0  0  0  0  0  0  0  0  0  0  0  0  # atno 6909 bound_to 6896
  146.2353  139.9348  142.8491 H   0  0  0  0  0  0  0  0  0  0  0  0  # atno 7974 bound_to 7965
  155.2883  140.3377  155.4254 H   0  0  0  0  0  0  0  0  0  0  0  0  # atno 8008 bound_to 7997
  156.2058  140.1750  156.7843 H   0  0  0  0  0  0  0  0  0  0  0  0  # atno 8009 bound_to 7997
  154.5619  140.0686  156.8816 H   0  0  0  0  0  0  0  0  0  0  0  0  # atno 8010 bound_to 7997
  140.3470  143.2911  151.9769 H   0  0  0  0  0  0  0  0  0  0  0  0  # atno 10167 bound_to 10162
  156.3874  130.7868  151.2066 H   0  0  0  0  0  0  0  0  0  0  0  0  # atno 10718 bound_to 10713
  153.3618  135.6990  153.6706 H   0  0  0  0  0  0  0  0  0  0  0  0  # atno 10763 bound_to 10752
  153.5392  135.3576  155.2711 H   0  0  0  0  0  0  0  0  0  0  0  0  # atno 10764 bound_to 10752
  154.8669  135.4199  154.2877 H   0  0  0  0  0  0  0  0  0  0  0  0  # atno 10765 bound_to 10752
  140.0274  134.9368  157.0596 H   0  0  0  0  0  0  0  0  0  0  0  0  # atno 11005 bound_to 11000
  145.2010  140.9854  143.4156 LP  0  0  0  0  0  0  0  0  0  0  0  0  # atno 17320 bound_to 7965
  144.9774  139.3818  143.6279 LP  0  0  0  0  0  0  0  0  0  0  0  0  # atno 17321 bound_to 7965
  139.4832  144.6108  151.7437 LP  0  0  0  0  0  0  0  0  0  0  0  0  # atno 17342 bound_to 10162
  140.5255  144.0813  150.6036 LP  0  0  0  0  0  0  0  0  0  0  0  0  # atno 17343 bound_to 10162
  157.7497  131.0326  150.4233 LP  0  0  0  0  0  0  0  0  0  0  0  0  # atno 17370 bound_to 10713
  156.4488  130.4007  149.6649 LP  0  0  0  0  0  0  0  0  0  0  0  0  # atno 17371 bound_to 10713
  140.4283  134.1808  155.7167 LP  0  0  0  0  0  0  0  0  0  0  0  0  # atno 17394 bound_to 11000
  141.1811  133.8412  157.1254 LP  0  0  0  0  0  0  0  0  0  0  0  0  # atno 17395 bound_to 11000

$$$$
