AV-unprocessed.smi:2521|AV-procd|sdf|9915|dock1
  -GOLD-   2272013553D 1   1.00000     0.00000
 Structure written by MMmdl.
 36 37  0  0  0  0  0  0  0  0  1 V2000
  152.1210  140.1207  158.4378 C   0  0  0  0  0  0  0  0  0  0  0  0
  151.8173  140.7762  157.0828 C   0  0  0  0  0  0  0  0  0  0  0  0
  150.9644  142.0471  157.2059 C   0  0  0  0  0  0  0  0  0  0  0  0
  151.2419  139.8025  156.1020 C   0  0  0  0  0  0  0  0  0  0  0  0
  150.9480  140.1297  154.8361 N   0  0  0  0  0  0  0  0  0  0  0  0
  150.4226  139.0619  154.1227 N   0  0  0  0  0  0  0  0  0  0  0  0
  150.3330  137.9555  154.8731 C   0  0  0  0  0  0  0  0  0  0  0  0
  149.8213  136.7190  154.3982 N   0  0  0  0  0  0  0  0  0  0  0  0
  149.7498  135.5428  155.0457 C   0  0  0  0  0  0  0  0  0  0  0  0
  150.0994  135.3490  156.2103 O   0  0  0  0  0  0  0  0  0  0  0  0
  149.2420  134.5852  154.2560 N   0  0  0  0  0  0  0  0  0  0  0  0
  149.0339  133.1920  154.6397 C   0  0  0  0  0  0  0  0  0  0  0  0
  148.3857  132.3736  153.5068 C   0  0  2  0  0  0  0  0  0  0  0  0
  147.0375  132.9035  153.0636 C   0  0  0  0  0  0  0  0  0  0  0  0
  146.4485  131.7041  152.3260 C   0  0  0  0  0  0  0  0  0  0  0  0
  147.0044  130.5493  152.9482 O   0  0  0  0  0  0  0  0  0  0  0  0
  148.0213  130.9323  153.8686 C   0  0  0  0  0  0  0  0  0  0  0  0
  150.8910  138.1305  156.5277 S   0  0  0  0  0  0  0  0  0  0  0  0
  152.7968  139.2731  158.3204 H   0  0  0  0  0  0  0  0  0  0  0  0
  151.2109  139.7579  158.9163 H   0  0  0  0  0  0  0  0  0  0  0  0
  152.5945  140.8283  159.1190 H   0  0  0  0  0  0  0  0  0  0  0  0
  152.7778  141.0920  156.6741 H   0  0  0  0  0  0  0  0  0  0  0  0
  150.8394  142.5312  156.2369 H   0  0  0  0  0  0  0  0  0  0  0  0
  151.4294  142.7686  157.8781 H   0  0  0  0  0  0  0  0  0  0  0  0
  149.9714  141.8223  157.5966 H   0  0  0  0  0  0  0  0  0  0  0  0
  149.4799  136.7288  153.4485 H   0  0  0  0  0  0  0  0  0  0  0  0
  148.9818  134.8372  153.3138 H   0  0  0  0  0  0  0  0  0  0  0  0
  149.9703  132.7328  154.9615 H   0  0  0  0  0  0  0  0  0  0  0  0
  148.3787  133.1861  155.5111 H   0  0  0  0  0  0  0  0  0  0  0  0
  149.0512  132.3604  152.6418 H   0  0  0  0  0  0  0  0  0  0  0  0
  146.4206  133.1478  153.9298 H   0  0  0  0  0  0  0  0  0  0  0  0
  147.1106  133.7919  152.4357 H   0  0  0  0  0  0  0  0  0  0  0  0
  145.3590  131.6903  152.3606 H   0  0  0  0  0  0  0  0  0  0  0  0
  146.7540  131.7129  151.2792 H   0  0  0  0  0  0  0  0  0  0  0  0
  148.8765  130.2579  153.8181 H   0  0  0  0  0  0  0  0  0  0  0  0
  147.6085  130.8802  154.8770 H   0  0  0  0  0  0  0  0  0  0  0  0
  1  2  1  0  0  0  0
  1 19  1  0  0  0  0
  1 20  1  0  0  0  0
  1 21  1  0  0  0  0
  2  3  1  0  0  0  0
  2  4  1  0  0  0  0
  2 22  1  0  0  0  0
  3 23  1  0  0  0  0
  3 24  1  0  0  0  0
  3 25  1  0  0  0  0
  4 18  1  0  0  0  0
  4  5  2  0  0  0  0
  5  6  1  0  0  0  0
  6  7  2  0  0  0  0
  7  8  1  0  0  0  0
  7 18  1  0  0  0  0
  8  9  1  0  0  0  0
  8 26  1  0  0  0  0
  9 10  2  0  0  0  0
  9 11  1  0  0  0  0
 11 12  1  0  0  0  0
 11 27  1  0  0  0  0
 12 13  1  0  0  0  0
 12 28  1  0  0  0  0
 12 29  1  0  0  0  0
 13 17  1  0  0  0  0
 13 14  1  0  0  0  0
 13 30  1  0  0  0  0
 14 15  1  0  0  0  0
 14 31  1  0  0  0  0
 14 32  1  0  0  0  0
 15 16  1  0  0  0  0
 15 33  1  0  0  0  0
 15 34  1  0  0  0  0
 16 17  1  0  0  0  0
 17 35  1  0  0  0  0
 17 36  1  0  0  0  0
M  END
> <s_m_source_file>
AV-unprocessed.smi

> <i_m_source_file_index>
2521

> <i_lp_mmshare_version>
43012

> <i_f3d_flags>
0

> <s_epik_input>
W0NIM11bQ0hdKFtDSDNdKWMxbm5jKHMxKVtOSF1DKD1PKVtOSF1bQ0gyXVtDQEBIXTJbQ0gyXVtDSDJdT1tDSDJdMg==

> <s_epik_cmdline>
J2VwaWtfcHl0aG9uJywgJy1waCcsICc3LjAnLCAnLXRuJywgJzgnLCAnLW1hJywgJzIwMCcsICctbWV0YWxfYmluZGluZycsICctaW1hZScsICc8aW5maWxlLm1hZT4nLCAnLW9tYWUnLCAnPG91dGZpbGUubWFlPic=

> <r_lp_tautomer_probability>
1

> <r_epik_Ionization_Penalty>
0.000452582

> <r_epik_Ionization_Penalty_Charging>
0

> <r_epik_Ionization_Penalty_Neutral>
0.000452582

> <r_epik_State_Penalty>
-0

> <r_epik_Charging_Adjusted_Penalty>
0

> <i_epik_Tot_Q>
0

> <i_epik_Tot_abs_Q>
0

> <r_epik_Metal_State_Penalty>
0.207746

> <b_epik_Metal_Only>
0

> <s_lp_Force_Field>
OPLS_2005

> <r_lp_Energy>
11.692

> <b_lp_Chiralities_Consistent>
1

> <s_lp_Variant>
AV-unprocessed.smi:2521-1

> <Gold.Version>
5.8.1

> <Gold.Id.Protein>
6NUR|6NUR_protein|mol2

> <Gold.PLP.Fitness>
35.2230

> <Gold.PLP.PLP>
-27.3513

> <Gold.PLP.part.hbond>
-3.9866

> <Gold.PLP.part.metal>
0.0000

> <Gold.PLP.part.buried>
-4.1897

> <Gold.PLP.part.nonpolar>
-19.6852

> <Gold.PLP.part.repulsive>
0.4952

> <Gold.PLP.ligand.clash>
0.0000

> <Gold.PLP.ligand.torsion>
0.0521

> <Gold.PLP.Chemscore.Hbond>
2.6296

> <Gold.PLP.Chemscore.CHOScore>
0.0000

> <Gold.PLP.Chemscore.Metal>
0.0000

> <Gold.Chemscore.Hbonds>
donor molecule, donor type, donor heavy atom, donor atom, acceptor molecule, acceptor atom, score
      L1  H     8    26       P1  7948  1.00
      L1  H    11    27       P1  7948  0.88
      P1  H  7989  7998       L1     5  0.75

> <Gold.PLP.Chemscore.Internal.Correction>
0.0872

> <Gold.Rescore>
     Score         DG    S(hbond)    S(metal)    S(lipo)     H(rot)  DE(clash)    DE(int)     intcor
     12.34     -13.64       1.65        0.00      54.20       1.45       0.01       1.29       ----

> <Gold.Chemscore.Fitness>
12.3425

> <Gold.Chemscore.DG>
-13.6436

> <Gold.Chemscore.ZeroCoef>
-5.4800

> <Gold.Chemscore.Hbond>
1.6540

> <Gold.Chemscore.Metal>
0.0000

> <Gold.Chemscore.Lipo>
54.1969

> <Gold.Chemscore.Internal_Hbond>
0.0000

> <Gold.Chemscore.DEClash>
0.0076

> <Gold.Chemscore.DEInternal>
1.2935

> <Gold.Chemscore.Rot>
1.4461

> <Gold.Chemscore.Internal.Correction>
   9.000000E+99

> <Gold.Chemscore.Hbonds>
donor molecule, donor type, donor heavy atom, donor atom, acceptor molecule, acceptor atom, score
      L1  H     8    26       P1  7948  0.82
      L1  H    11    27       P1  7948  0.16
      P1  H  7989  7998       L1     5  0.09

> <Gold.Chemscore.Hbond.Weighted>
-5.5245

> <Gold.Chemscore.Metal.Weighted>
-0.0000

> <Gold.Chemscore.Lipo.Weighted>
-6.3410

> <Gold.Chemscore.Internal_Hbond.Weighted>
0.0000

> <Gold.Chemscore.DEClash.Weighted>
0.0076

> <Gold.Chemscore.DEInternal.Weighted>
1.2935

> <Gold.Chemscore.Rot.Weighted>
3.7019

> <Gold.Chemscore.Internal.Correction.Weighted>
   9.000000E+99

> <Gold.Protein.RotatedTorsions>
[ 6907 6896 6895 6894 ] final -142.61 input  -60.11 | X-H torsion
[ 7974 7965 7964 7962 ] final  -18.88 input  175.53 | X-H torsion
[ 8008 7997 7996 7995 ] final  128.76 input   59.86 | X-H torsion
[ 10167 10162 10161 10158 ] final   87.98 input  -65.29 | X-H torsion
[ 10718 10713 10712 10709 ] final  -35.44 input   66.30 | X-H torsion
[ 10763 10752 10751 10750 ] final  147.47 input  -60.55 | X-H torsion
[ 11005 11000 10999 10996 ] final  -76.14 input  -57.11 | X-H torsion

> <Gold.Protein.ActiveResidues>
 VAL166  LYS551  ARG553  GLY616  TRP617  ASP618  TYR619  PRO620  LYS621  CYS622 
 ASP623  PHE694  ASN695  SER759  ASP760  ASP761  ALA762  ILE779  LEU786  VAL792 
 PHE793  MET794  SER795  GLU796  ALA797  LYS798  CYS799  TRP800  GLU811  SER814 

> <Gold.Protein.RotatedAtoms>
  151.0893  133.5328  159.2615 H   0  0  0  0  0  0  0  0  0  0  0  0  # atno 6907 bound_to 6896
  151.2201  135.0514  159.8956 H   0  0  0  0  0  0  0  0  0  0  0  0  # atno 6908 bound_to 6896
  152.5432  134.0697  159.8242 H   0  0  0  0  0  0  0  0  0  0  0  0  # atno 6909 bound_to 6896
  146.1870  140.3984  142.8472 H   0  0  0  0  0  0  0  0  0  0  0  0  # atno 7974 bound_to 7965
  156.2922  140.2637  156.2488 H   0  0  0  0  0  0  0  0  0  0  0  0  # atno 8008 bound_to 7997
  154.9903  140.0389  157.2335 H   0  0  0  0  0  0  0  0  0  0  0  0  # atno 8009 bound_to 7997
  154.7692  140.2775  155.6156 H   0  0  0  0  0  0  0  0  0  0  0  0  # atno 8010 bound_to 7997
  139.8719  144.6488  150.8939 H   0  0  0  0  0  0  0  0  0  0  0  0  # atno 10167 bound_to 10162
  156.3386  130.4290  149.7808 H   0  0  0  0  0  0  0  0  0  0  0  0  # atno 10718 bound_to 10713
  154.0388  135.2891  155.3358 H   0  0  0  0  0  0  0  0  0  0  0  0  # atno 10763 bound_to 10752
  154.6942  135.5214  153.8438 H   0  0  0  0  0  0  0  0  0  0  0  0  # atno 10764 bound_to 10752
  153.0608  135.6613  154.0595 H   0  0  0  0  0  0  0  0  0  0  0  0  # atno 10765 bound_to 10752
  141.1651  133.6972  156.7624 H   0  0  0  0  0  0  0  0  0  0  0  0  # atno 11005 bound_to 11000
  144.8415  140.6864  143.6226 LP  0  0  0  0  0  0  0  0  0  0  0  0  # atno 17320 bound_to 7965
  145.3910  139.1616  143.4229 LP  0  0  0  0  0  0  0  0  0  0  0  0  # atno 17321 bound_to 7965
  140.7759  143.3656  151.1744 LP  0  0  0  0  0  0  0  0  0  0  0  0  # atno 17342 bound_to 10162
  139.7276  143.9124  152.3008 LP  0  0  0  0  0  0  0  0  0  0  0  0  # atno 17343 bound_to 10162
  156.5053  130.8147  151.3148 LP  0  0  0  0  0  0  0  0  0  0  0  0  # atno 17370 bound_to 10713
  157.7443  130.9931  150.2661 LP  0  0  0  0  0  0  0  0  0  0  0  0  # atno 17371 bound_to 10713
  140.2524  134.8530  157.3680 LP  0  0  0  0  0  0  0  0  0  0  0  0  # atno 17394 bound_to 11000
  140.1690  134.4633  155.7844 LP  0  0  0  0  0  0  0  0  0  0  0  0  # atno 17395 bound_to 11000

$$$$
