AV-unprocessed.smi:284|AV-procd|sdf|2157|dock2
  -GOLD-   2262021503D 1   1.00000     0.00000
 Structure written by MMmdl.
 60 62  0  0  0  0  0  0  0  0  1 V2000
  146.7918  128.4462  153.1516 C   0  0  0  0  0  0  0  0  0  0  0  0
  147.2537  129.8944  153.2021 C   0  0  0  0  0  0  0  0  0  0  0  0
  146.5880  130.8847  152.5635 C   0  0  0  0  0  0  0  0  0  0  0  0
  146.9790  132.2125  152.5952 N   0  0  0  0  0  0  0  0  0  0  0  0
  146.2063  133.3091  151.8884 C   0  0  2  0  0  0  0  0  0  0  0  0
  144.8388  133.5300  152.5614 C   0  0  0  0  0  0  0  0  0  0  0  0
  143.8648  133.4738  151.3983 C   0  0  1  0  0  0  0  0  0  0  0  0
  143.6328  134.7700  150.8791 O   0  0  0  0  0  0  0  0  0  0  0  0
  144.5996  132.5737  150.3994 C   0  0  1  0  0  0  0  0  0  0  0  0
  144.1631  132.6616  148.9263 C   0  0  0  0  0  0  0  0  0  0  0  0
  142.8476  132.1719  148.7744 O   0  0  0  0  0  0  0  0  0  0  0  0
  145.9632  132.9500  150.5585 O   0  0  0  0  0  0  0  0  0  0  0  0
  148.1352  132.5790  153.3139 C   0  0  0  0  0  0  0  0  0  0  0  0
  148.5007  133.7563  153.3586 O   0  0  0  0  0  0  0  0  0  0  0  0
  148.8554  131.5679  153.9877 N   0  0  0  0  0  0  0  0  0  0  0  0
  150.0494  131.9564  154.7719 C   0  0  0  0  0  0  0  0  0  0  0  0
  149.7354  132.9084  155.9377 C   0  0  0  0  0  0  0  0  0  0  0  0
  150.3132  133.9921  156.0259 O   0  0  0  0  0  0  0  0  0  0  0  0
  148.8046  132.4572  156.7993 N   0  0  0  0  0  0  0  0  0  0  0  0
  148.2807  133.0533  157.9815 C   0  0  0  0  0  0  0  0  0  0  0  0
  148.3318  134.4593  158.0541 C   0  0  0  0  0  0  0  0  0  0  0  0
  147.8372  135.1442  159.1804 C   0  0  0  0  0  0  0  0  0  0  0  0
  147.2751  134.4362  160.2703 C   0  0  0  0  0  0  0  0  0  0  0  0
  146.7207  135.1458  161.5203 C   0  0  0  0  0  0  0  0  0  0  0  0
  145.5547  136.0715  161.1154 C   0  0  0  0  0  0  0  0  0  0  0  0
  147.7777  136.0126  162.2413 C   0  0  0  0  0  0  0  0  0  0  0  0
  146.2104  134.0955  162.5286 C   0  0  0  0  0  0  0  0  0  0  0  0
  147.2278  133.0251  160.1919 C   0  0  0  0  0  0  0  0  0  0  0  0
  147.7216  132.3379  159.0669 C   0  0  0  0  0  0  0  0  0  0  0  0
  148.4575  130.2089  153.9751 C   0  0  0  0  0  0  0  0  0  0  0  0
  149.1018  129.3598  154.5942 O   0  0  0  0  0  0  0  0  0  0  0  0
  145.8928  128.3263  152.5464 H   0  0  0  0  0  0  0  0  0  0  0  0
  146.5681  128.0830  154.1554 H   0  0  0  0  0  0  0  0  0  0  0  0
  147.5688  127.8123  152.7230 H   0  0  0  0  0  0  0  0  0  0  0  0
  145.7074  130.6045  152.0066 H   0  0  0  0  0  0  0  0  0  0  0  0
  146.8555  134.1863  151.9044 H   0  0  0  0  0  0  0  0  0  0  0  0
  144.6335  132.7141  153.2564 H   0  0  0  0  0  0  0  0  0  0  0  0
  144.8178  134.4696  153.1150 H   0  0  0  0  0  0  0  0  0  0  0  0
  142.9063  133.0469  151.6952 H   0  0  0  0  0  0  0  0  0  0  0  0
  142.9130  134.7249  150.2685 H   0  0  0  0  0  0  0  0  0  0  0  0
  144.5066  131.5392  150.7343 H   0  0  0  0  0  0  0  0  0  0  0  0
  144.2232  133.6818  148.5471 H   0  0  0  0  0  0  0  0  0  0  0  0
  144.8252  132.0552  148.3079 H   0  0  0  0  0  0  0  0  0  0  0  0
  142.2425  132.8613  149.0024 H   0  0  0  0  0  0  0  0  0  0  0  0
  150.5627  131.0818  155.1744 H   0  0  0  0  0  0  0  0  0  0  0  0
  150.7955  132.4245  154.1271 H   0  0  0  0  0  0  0  0  0  0  0  0
  148.4214  131.5494  156.5796 H   0  0  0  0  0  0  0  0  0  0  0  0
  148.7543  135.0263  157.2373 H   0  0  0  0  0  0  0  0  0  0  0  0
  147.9030  136.2208  159.1779 H   0  0  0  0  0  0  0  0  0  0  0  0
  145.1537  136.6049  161.9778 H   0  0  0  0  0  0  0  0  0  0  0  0
  144.7270  135.5195  160.6696 H   0  0  0  0  0  0  0  0  0  0  0  0
  145.8786  136.8189  160.3901 H   0  0  0  0  0  0  0  0  0  0  0  0
  148.1620  136.8021  161.5943 H   0  0  0  0  0  0  0  0  0  0  0  0
  148.6223  135.4151  162.5868 H   0  0  0  0  0  0  0  0  0  0  0  0
  147.3540  136.5007  163.1197 H   0  0  0  0  0  0  0  0  0  0  0  0
  145.8320  134.5679  163.4359 H   0  0  0  0  0  0  0  0  0  0  0  0
  147.0079  133.4126  162.8237 H   0  0  0  0  0  0  0  0  0  0  0  0
  145.3979  133.4941  162.1208 H   0  0  0  0  0  0  0  0  0  0  0  0
  146.8071  132.4485  161.0019 H   0  0  0  0  0  0  0  0  0  0  0  0
  147.6532  131.2628  159.0742 H   0  0  0  0  0  0  0  0  0  0  0  0
  1  2  1  0  0  0  0
  1 32  1  0  0  0  0
  1 33  1  0  0  0  0
  1 34  1  0  0  0  0
  2 30  1  0  0  0  0
  2  3  2  0  0  0  0
  3  4  1  0  0  0  0
  3 35  1  0  0  0  0
  4  5  1  0  0  0  0
  4 13  1  0  0  0  0
  5 12  1  0  0  0  0
  5  6  1  0  0  0  0
  5 36  1  0  0  0  0
  6  7  1  0  0  0  0
  6 37  1  0  0  0  0
  6 38  1  0  0  0  0
  7  8  1  0  0  0  0
  7  9  1  0  0  0  0
  7 39  1  0  0  0  0
  8 40  1  0  0  0  0
  9 10  1  0  0  0  0
  9 12  1  0  0  0  0
  9 41  1  0  0  0  0
 10 11  1  0  0  0  0
 10 42  1  0  0  0  0
 10 43  1  0  0  0  0
 11 44  1  0  0  0  0
 13 14  2  0  0  0  0
 13 15  1  0  0  0  0
 15 16  1  0  0  0  0
 15 30  1  0  0  0  0
 16 17  1  0  0  0  0
 16 45  1  0  0  0  0
 16 46  1  0  0  0  0
 17 18  2  0  0  0  0
 17 19  1  0  0  0  0
 19 20  1  0  0  0  0
 19 47  1  0  0  0  0
 20 29  1  0  0  0  0
 20 21  2  0  0  0  0
 21 22  1  0  0  0  0
 21 48  1  0  0  0  0
 22 23  2  0  0  0  0
 22 49  1  0  0  0  0
 23 24  1  0  0  0  0
 23 28  1  0  0  0  0
 24 25  1  0  0  0  0
 24 26  1  0  0  0  0
 24 27  1  0  0  0  0
 25 50  1  0  0  0  0
 25 51  1  0  0  0  0
 25 52  1  0  0  0  0
 26 53  1  0  0  0  0
 26 54  1  0  0  0  0
 26 55  1  0  0  0  0
 27 56  1  0  0  0  0
 27 57  1  0  0  0  0
 27 58  1  0  0  0  0
 28 29  2  0  0  0  0
 28 59  1  0  0  0  0
 29 60  1  0  0  0  0
 30 31  2  0  0  0  0
M  END
> <s_m_source_file>
AV-unprocessed.smi

> <i_m_source_file_index>
284

> <i_lp_mmshare_version>
43012

> <i_f3d_flags>
0

> <s_epik_input>
W09IXVtDSDJdW0NAQEhdKE8xKVtDQEhdKFtPSF0pW0NIMl1bQ0BIXTFuKFtjSF1jMltDSDNdKWMoPU8pbihjMj1PKVtDSDJdQyg9TylbTkhdYzNbY0hdW2NIXWMoQyhbQ0gzXSkoW0NIM10pW0NIM10pW2NIXVtjSF0z

> <s_epik_cmdline>
J2VwaWtfcHl0aG9uJywgJy1waCcsICc3LjAnLCAnLXRuJywgJzgnLCAnLW1hJywgJzIwMCcsICctbWV0YWxfYmluZGluZycsICctaW1hZScsICc8aW5maWxlLm1hZT4nLCAnLW9tYWUnLCAnPG91dGZpbGUubWFlPic=

> <r_lp_tautomer_probability>
1

> <r_epik_Ionization_Penalty>
4.92358e-06

> <r_epik_Ionization_Penalty_Charging>
1.29777e-07

> <r_epik_Ionization_Penalty_Neutral>
4.79381e-06

> <r_epik_State_Penalty>
-0

> <r_epik_Charging_Adjusted_Penalty>
1.29777e-07

> <i_epik_Tot_Q>
0

> <i_epik_Tot_abs_Q>
0

> <r_epik_Metal_State_Penalty>
-0

> <b_epik_Metal_Only>
0

> <s_epik_Chemistry_Notes>
This compound contains an acetal/aminal-like group ( X-CH(R)-Y where X, Y are N, S, or O) that may be acid/base labile, releasing an aldehyde.

> <s_lp_Force_Field>
OPLS_2005

> <r_lp_Energy>
42.5826

> <b_lp_Chiralities_Consistent>
1

> <s_lp_Variant>
AV-unprocessed.smi:284-1

> <Gold.Version>
5.8.1

> <Gold.Id.Protein>
6NUR|6NUR_protein|mol2

> <Gold.PLP.Fitness>
58.4610

> <Gold.PLP.PLP>
-50.1129

> <Gold.PLP.part.hbond>
-4.0000

> <Gold.PLP.part.metal>
0.0000

> <Gold.PLP.part.buried>
-8.3856

> <Gold.PLP.part.nonpolar>
-39.5687

> <Gold.PLP.part.repulsive>
2.2206

> <Gold.PLP.ligand.clash>
0.0000

> <Gold.PLP.ligand.torsion>
0.3507

> <Gold.PLP.Chemscore.Hbond>
2.9913

> <Gold.PLP.Chemscore.CHOScore>
0.0000

> <Gold.PLP.Chemscore.Metal>
0.0000

> <Gold.Chemscore.Hbonds>
donor molecule, donor type, donor heavy atom, donor atom, acceptor molecule, acceptor atom, score
      L1  H     8    40       P1 10186  0.96
      L1  H    11    44       P1 10186  0.96
      P1  H 10785 10796       L1    11  0.94

> <Gold.PLP.Chemscore.Internal.Correction>
0.0757

> <Gold.Rescore>
     Score         DG    S(hbond)    S(metal)    S(lipo)     H(rot)  DE(clash)    DE(int)     intcor
     11.72     -14.91       1.56        0.00     107.76       3.27       0.58       2.62       ----

> <Gold.Chemscore.Fitness>
11.7156

> <Gold.Chemscore.DG>
-14.9093

> <Gold.Chemscore.ZeroCoef>
-5.4800

> <Gold.Chemscore.Hbond>
1.5572

> <Gold.Chemscore.Metal>
0.0000

> <Gold.Chemscore.Lipo>
107.7629

> <Gold.Chemscore.Internal_Hbond>
0.0000

> <Gold.Chemscore.DEClash>
0.5754

> <Gold.Chemscore.DEInternal>
2.6183

> <Gold.Chemscore.Rot>
3.2735

> <Gold.Chemscore.Internal.Correction>
   9.000000E+99

> <Gold.Chemscore.Hbonds>
donor molecule, donor type, donor heavy atom, donor atom, acceptor molecule, acceptor atom, score
      L1  H     8    40       P1 10186  0.41
      L1  H    11    44       P1 10186  0.90
      P1  H 10785 10796       L1    11  0.26

> <Gold.Chemscore.Hbond.Weighted>
-5.2011

> <Gold.Chemscore.Metal.Weighted>
-0.0000

> <Gold.Chemscore.Lipo.Weighted>
-12.6083

> <Gold.Chemscore.Internal_Hbond.Weighted>
0.0000

> <Gold.Chemscore.DEClash.Weighted>
0.5754

> <Gold.Chemscore.DEInternal.Weighted>
2.6183

> <Gold.Chemscore.Rot.Weighted>
8.3801

> <Gold.Chemscore.Internal.Correction.Weighted>
   9.000000E+99

> <Gold.Protein.RotatedTorsions>
[ 6907 6896 6895 6894 ] final  -57.79 input  -60.11 | X-H torsion
[ 7974 7965 7964 7962 ] final -152.14 input  175.53 | X-H torsion
[ 8008 7997 7996 7995 ] final  108.04 input   59.86 | X-H torsion
[ 10167 10162 10161 10158 ] final   15.06 input  -65.29 | X-H torsion
[ 10718 10713 10712 10709 ] final -136.00 input   66.30 | X-H torsion
[ 10763 10752 10751 10750 ] final  -16.82 input  -60.55 | X-H torsion
[ 11005 11000 10999 10996 ] final  176.77 input  -57.11 | X-H torsion

> <Gold.Protein.ActiveResidues>
 VAL166  LYS551  ARG553  GLY616  TRP617  ASP618  TYR619  PRO620  LYS621  CYS622 
 ASP623  PHE694  ASN695  SER759  ASP760  ASP761  ALA762  ILE779  LEU786  VAL792 
 PHE793  MET794  SER795  GLU796  ALA797  LYS798  CYS799  TRP800  GLU811  SER814 

> <Gold.Protein.RotatedAtoms>
  150.8058  134.7181  159.6642 H   0  0  0  0  0  0  0  0  0  0  0  0  # atno 6907 bound_to 6896
  152.4177  134.6009  160.0009 H   0  0  0  0  0  0  0  0  0  0  0  0  # atno 6908 bound_to 6896
  151.6233  133.3300  159.3129 H   0  0  0  0  0  0  0  0  0  0  0  0  # atno 6909 bound_to 6896
  144.7810  140.4702  143.5839 H   0  0  0  0  0  0  0  0  0  0  0  0  # atno 7974 bound_to 7965
  156.1871  140.3084  155.9260 H   0  0  0  0  0  0  0  0  0  0  0  0  # atno 8008 bound_to 7997
  155.3255  140.0458  157.3058 H   0  0  0  0  0  0  0  0  0  0  0  0  # atno 8009 bound_to 7997
  154.5409  140.2261  155.8653 H   0  0  0  0  0  0  0  0  0  0  0  0  # atno 8010 bound_to 7997
  140.5893  143.8827  150.6859 H   0  0  0  0  0  0  0  0  0  0  0  0  # atno 10167 bound_to 10162
  156.2722  130.7272  151.1243 H   0  0  0  0  0  0  0  0  0  0  0  0  # atno 10718 bound_to 10713
  153.5645  135.7009  153.5532 H   0  0  0  0  0  0  0  0  0  0  0  0  # atno 10763 bound_to 10752
  153.3400  135.4024  155.1564 H   0  0  0  0  0  0  0  0  0  0  0  0  # atno 10764 bound_to 10752
  154.8643  135.3740  154.5164 H   0  0  0  0  0  0  0  0  0  0  0  0  # atno 10765 bound_to 10752
  140.3768  134.6982  157.4426 H   0  0  0  0  0  0  0  0  0  0  0  0  # atno 11005 bound_to 11000
  145.6050  139.1507  143.3108 LP  0  0  0  0  0  0  0  0  0  0  0  0  # atno 17320 bound_to 7965
  146.2018  140.6169  142.9099 LP  0  0  0  0  0  0  0  0  0  0  0  0  # atno 17321 bound_to 7965
  140.2346  143.3710  152.1537 LP  0  0  0  0  0  0  0  0  0  0  0  0  # atno 17342 bound_to 10162
  139.5217  144.7050  151.5382 LP  0  0  0  0  0  0  0  0  0  0  0  0  # atno 17343 bound_to 10162
  157.7287  131.0629  150.5805 LP  0  0  0  0  0  0  0  0  0  0  0  0  # atno 17370 bound_to 10713
  156.5903  130.4327  149.5939 LP  0  0  0  0  0  0  0  0  0  0  0  0  # atno 17371 bound_to 10713
  140.0509  134.6132  155.8863 LP  0  0  0  0  0  0  0  0  0  0  0  0  # atno 17394 bound_to 11000
  141.1937  133.6580  156.5559 LP  0  0  0  0  0  0  0  0  0  0  0  0  # atno 17395 bound_to 11000

$$$$
