AV-unprocessed.smi:139|AV-procd|sdf|1183|dock4
  -GOLD-   2262018333D 1   1.00000     0.00000
 Structure written by MMmdl.
 50 53  0  0  0  0  0  0  0  0  1 V2000
  152.5009  138.4085  159.6309 O   0  0  0  0  0  0  0  0  0  0  0  0
  153.6213  138.8625  159.8664 C   0  0  0  0  0  0  0  0  0  0  0  0
  154.8539  137.9474  159.8567 C   0  0  0  0  0  0  0  0  0  0  0  0
  154.7306  136.8129  160.7975 N   0  0  0  0  0  0  0  0  0  0  0  0
  154.3575  137.0691  162.1402 C   0  0  0  0  0  0  0  0  0  0  0  0
  154.1212  138.2127  162.5317 O   0  0  0  0  0  0  0  0  0  0  0  0
  154.2850  135.8985  163.0071 C   0  0  0  0  0  0  0  0  0  0  0  0
  153.9410  136.0468  164.2977 F   0  0  0  0  0  0  0  0  0  0  0  0
  154.5607  134.6650  162.5357 C   0  0  0  0  0  0  0  0  0  0  0  0
  154.9212  134.4285  161.2209 N   0  0  0  0  0  0  0  0  0  0  0  0
  155.2463  133.0396  160.7110 C   0  0  2  0  0  0  0  0  0  0  0  0
  154.2790  132.6340  159.5819 C   0  0  0  0  0  0  0  0  0  0  0  0
  153.7538  131.2920  160.0528 C   0  0  0  0  0  0  0  0  0  0  0  0
  153.8473  131.4284  161.5648 C   0  0  0  0  0  0  0  0  0  0  0  0
  155.0849  132.1046  161.7396 O   0  0  0  0  0  0  0  0  0  0  0  0
  155.0267  135.5126  160.3227 C   0  0  0  0  0  0  0  0  0  0  0  0
  155.3719  135.3273  159.1531 O   0  0  0  0  0  0  0  0  0  0  0  0
  153.8532  140.1560  160.1466 N   0  0  0  0  0  0  0  0  0  0  0  0
  152.8508  141.2161  160.2794 C   0  0  1  0  0  0  0  0  0  0  0  0
  153.3873  142.3978  161.1136 C   0  0  0  0  0  0  0  0  0  0  0  0
  152.4047  143.5704  161.1181 C   0  0  0  0  0  0  0  0  0  0  0  0
  152.1629  144.0886  159.6960 C   0  0  0  0  0  0  0  0  0  0  0  0
  151.8606  142.9849  158.6935 C   0  0  0  0  0  0  0  0  0  0  0  0
  151.2484  143.3329  157.4709 C   0  0  0  0  0  0  0  0  0  0  0  0
  150.9610  142.3468  156.5095 C   0  0  0  0  0  0  0  0  0  0  0  0
  151.2838  141.0028  156.7669 C   0  0  0  0  0  0  0  0  0  0  0  0
  151.8945  140.6477  157.9839 C   0  0  0  0  0  0  0  0  0  0  0  0
  152.1987  141.6311  158.9543 C   0  0  0  0  0  0  0  0  0  0  0  0
  155.0196  137.6126  158.8321 H   0  0  0  0  0  0  0  0  0  0  0  0
  155.7443  138.5335  160.0928 H   0  0  0  0  0  0  0  0  0  0  0  0
  154.4932  133.8436  163.2325 H   0  0  0  0  0  0  0  0  0  0  0  0
  156.2950  133.0750  160.4112 H   0  0  0  0  0  0  0  0  0  0  0  0
  153.4640  133.3551  159.5031 H   0  0  0  0  0  0  0  0  0  0  0  0
  154.7973  132.5791  158.6244 H   0  0  0  0  0  0  0  0  0  0  0  0
  152.7427  131.0824  159.7037 H   0  0  0  0  0  0  0  0  0  0  0  0
  154.4091  130.4904  159.7093 H   0  0  0  0  0  0  0  0  0  0  0  0
  153.0275  132.0350  161.9519 H   0  0  0  0  0  0  0  0  0  0  0  0
  153.8385  130.4667  162.0778 H   0  0  0  0  0  0  0  0  0  0  0  0
  154.8106  140.4265  160.3184 H   0  0  0  0  0  0  0  0  0  0  0  0
  152.0397  140.7691  160.8554 H   0  0  0  0  0  0  0  0  0  0  0  0
  153.5978  142.0726  162.1329 H   0  0  0  0  0  0  0  0  0  0  0  0
  154.3334  142.7545  160.7052 H   0  0  0  0  0  0  0  0  0  0  0  0
  151.4594  143.2423  161.5522 H   0  0  0  0  0  0  0  0  0  0  0  0
  152.7739  144.3772  161.7520 H   0  0  0  0  0  0  0  0  0  0  0  0
  151.3469  144.8123  159.7022 H   0  0  0  0  0  0  0  0  0  0  0  0
  153.0487  144.6200  159.3465 H   0  0  0  0  0  0  0  0  0  0  0  0
  150.9982  144.3636  157.2657 H   0  0  0  0  0  0  0  0  0  0  0  0
  150.4924  142.6213  155.5760 H   0  0  0  0  0  0  0  0  0  0  0  0
  151.0621  140.2432  156.0319 H   0  0  0  0  0  0  0  0  0  0  0  0
  152.1302  139.6097  158.1665 H   0  0  0  0  0  0  0  0  0  0  0  0
  1  2  2  0  0  0  0
  2  3  1  0  0  0  0
  2 18  1  0  0  0  0
  3  4  1  0  0  0  0
  3 29  1  0  0  0  0
  3 30  1  0  0  0  0
  4 16  1  0  0  0  0
  4  5  1  0  0  0  0
  5  6  2  0  0  0  0
  5  7  1  0  0  0  0
  7  8  1  0  0  0  0
  7  9  2  0  0  0  0
  9 10  1  0  0  0  0
  9 31  1  0  0  0  0
 10 11  1  0  0  0  0
 10 16  1  0  0  0  0
 11 15  1  0  0  0  0
 11 12  1  0  0  0  0
 11 32  1  0  0  0  0
 12 13  1  0  0  0  0
 12 33  1  0  0  0  0
 12 34  1  0  0  0  0
 13 14  1  0  0  0  0
 13 35  1  0  0  0  0
 13 36  1  0  0  0  0
 14 15  1  0  0  0  0
 14 37  1  0  0  0  0
 14 38  1  0  0  0  0
 16 17  2  0  0  0  0
 18 19  1  0  0  0  0
 18 39  1  0  0  0  0
 19 28  1  0  0  0  0
 19 20  1  0  0  0  0
 19 40  1  0  0  0  0
 20 21  1  0  0  0  0
 20 41  1  0  0  0  0
 20 42  1  0  0  0  0
 21 22  1  0  0  0  0
 21 43  1  0  0  0  0
 21 44  1  0  0  0  0
 22 23  1  0  0  0  0
 22 45  1  0  0  0  0
 22 46  1  0  0  0  0
 23 28  2  0  0  0  0
 23 24  1  0  0  0  0
 24 25  2  0  0  0  0
 24 47  1  0  0  0  0
 25 26  1  0  0  0  0
 25 48  1  0  0  0  0
 26 27  2  0  0  0  0
 26 49  1  0  0  0  0
 27 28  1  0  0  0  0
 27 50  1  0  0  0  0
M  END
> <s_m_source_file>
AV-unprocessed.smi

> <i_m_source_file_index>
139

> <i_lp_mmshare_version>
43012

> <i_f3d_flags>
0

> <s_epik_input>
W2NIXTFbY0hdW2NIXVtjSF1jKGMxMilbQ0BASF0oW0NIMl1bQ0gyXVtDSDJdMilbTkhdQyg9TylbQ0gyXW4zYyg9TyljKEYpW2NIXW4oYzM9TylbQ0BASF00W0NIMl1bQ0gyXVtDSDJdTzQ=

> <s_epik_cmdline>
J2VwaWtfcHl0aG9uJywgJy1waCcsICc3LjAnLCAnLXRuJywgJzgnLCAnLW1hJywgJzIwMCcsICctbWV0YWxfYmluZGluZycsICctaW1hZScsICc8aW5maWxlLm1hZT4nLCAnLW9tYWUnLCAnPG91dGZpbGUubWFlPic=

> <r_lp_tautomer_probability>
1

> <r_epik_Ionization_Penalty>
3.261e-08

> <r_epik_Ionization_Penalty_Charging>
3.6725e-09

> <r_epik_Ionization_Penalty_Neutral>
2.89375e-08

> <r_epik_State_Penalty>
-0

> <r_epik_Charging_Adjusted_Penalty>
3.6725e-09

> <i_epik_Tot_Q>
0

> <i_epik_Tot_abs_Q>
0

> <r_epik_Metal_State_Penalty>
-0

> <b_epik_Metal_Only>
0

> <s_epik_Chemistry_Notes>
This compound contains an acetal/aminal-like group ( X-CH(R)-Y where X, Y are N, S, or O) that may be acid/base labile, releasing an aldehyde.

> <s_lp_Force_Field>
OPLS_2005

> <r_lp_Energy>
30.9596

> <b_lp_Chiralities_Consistent>
1

> <s_lp_Variant>
AV-unprocessed.smi:139-3

> <Gold.Version>
5.8.1

> <Gold.Id.Protein>
6NUR|6NUR_protein|mol2

> <Gold.PLP.Fitness>
45.9273

> <Gold.PLP.PLP>
-46.4989

> <Gold.PLP.part.hbond>
0.0000

> <Gold.PLP.part.metal>
0.0000

> <Gold.PLP.part.buried>
-5.8368

> <Gold.PLP.part.nonpolar>
-40.6200

> <Gold.PLP.part.repulsive>
0.0577

> <Gold.PLP.ligand.clash>
0.0000

> <Gold.PLP.ligand.torsion>
0.3266

> <Gold.PLP.Chemscore.Hbond>
0.0000

> <Gold.PLP.Chemscore.CHOScore>
0.0000

> <Gold.PLP.Chemscore.Metal>
0.0000

> <Gold.PLP.Chemscore.Internal.Correction>
0.0816

> <Gold.Rescore>
     Score         DG    S(hbond)    S(metal)    S(lipo)     H(rot)  DE(clash)    DE(int)     intcor
     12.48     -16.02       0.00        0.00     129.86       1.82       0.36       3.18       ----

> <Gold.Chemscore.Fitness>
12.4772

> <Gold.Chemscore.DG>
-16.0207

> <Gold.Chemscore.ZeroCoef>
-5.4800

> <Gold.Chemscore.Hbond>
0.0000

> <Gold.Chemscore.Metal>
0.0000

> <Gold.Chemscore.Lipo>
129.8562

> <Gold.Chemscore.Internal_Hbond>
0.0000

> <Gold.Chemscore.DEClash>
0.3609

> <Gold.Chemscore.DEInternal>
3.1826

> <Gold.Chemscore.Rot>
1.8174

> <Gold.Chemscore.Internal.Correction>
   9.000000E+99

> <Gold.Chemscore.Hbond.Weighted>
-0.0000

> <Gold.Chemscore.Metal.Weighted>
-0.0000

> <Gold.Chemscore.Lipo.Weighted>
-15.1932

> <Gold.Chemscore.Internal_Hbond.Weighted>
0.0000

> <Gold.Chemscore.DEClash.Weighted>
0.3609

> <Gold.Chemscore.DEInternal.Weighted>
3.1826

> <Gold.Chemscore.Rot.Weighted>
4.6524

> <Gold.Chemscore.Internal.Correction.Weighted>
   9.000000E+99

> <Gold.Protein.RotatedTorsions>
[ 6907 6896 6895 6894 ] final  142.63 input  -60.11 | X-H torsion
[ 7974 7965 7964 7962 ] final  -54.19 input  175.53 | X-H torsion
[ 8008 7997 7996 7995 ] final -141.27 input   59.86 | X-H torsion
[ 10167 10162 10161 10158 ] final  137.56 input  -65.29 | X-H torsion
[ 10718 10713 10712 10709 ] final   45.50 input   66.30 | X-H torsion
[ 10763 10752 10751 10750 ] final  155.10 input  -60.55 | X-H torsion
[ 11005 11000 10999 10996 ] final  -51.41 input  -57.11 | X-H torsion

> <Gold.Protein.ActiveResidues>
 VAL166  LYS551  ARG553  GLY616  TRP617  ASP618  TYR619  PRO620  LYS621  CYS622 
 ASP623  PHE694  ASN695  SER759  ASP760  ASP761  ALA762  ILE779  LEU786  VAL792 
 PHE793  MET794  SER795  GLU796  ALA797  LYS798  CYS799  TRP800  GLU811  SER814 

> <Gold.Protein.RotatedAtoms>
  152.2163  133.4949  159.5137 H   0  0  0  0  0  0  0  0  0  0  0  0  # atno 6907 bound_to 6896
  150.7002  134.1401  159.4111 H   0  0  0  0  0  0  0  0  0  0  0  0  # atno 6908 bound_to 6896
  151.9321  135.0251  160.0580 H   0  0  0  0  0  0  0  0  0  0  0  0  # atno 6909 bound_to 6896
  145.8884  140.8090  142.9804 H   0  0  0  0  0  0  0  0  0  0  0  0  # atno 7974 bound_to 7965
  155.4751  140.0556  157.2974 H   0  0  0  0  0  0  0  0  0  0  0  0  # atno 8008 bound_to 7997
  154.4683  140.2028  156.0015 H   0  0  0  0  0  0  0  0  0  0  0  0  # atno 8009 bound_to 7997
  156.1012  140.3219  155.7948 H   0  0  0  0  0  0  0  0  0  0  0  0  # atno 8010 bound_to 7997
  139.5140  144.6403  151.5587 H   0  0  0  0  0  0  0  0  0  0  0  0  # atno 10167 bound_to 10162
  157.4382  130.8065  149.7668 H   0  0  0  0  0  0  0  0  0  0  0  0  # atno 10718 bound_to 10713
  154.1630  135.2808  155.3103 H   0  0  0  0  0  0  0  0  0  0  0  0  # atno 10763 bound_to 10752
  154.6133  135.5491  153.7499 H   0  0  0  0  0  0  0  0  0  0  0  0  # atno 10764 bound_to 10752
  153.0187  135.6421  154.1771 H   0  0  0  0  0  0  0  0  0  0  0  0  # atno 10765 bound_to 10752
  141.0869  133.6640  156.3873 H   0  0  0  0  0  0  0  0  0  0  0  0  # atno 11005 bound_to 11000
  144.6729  140.1491  143.7431 LP  0  0  0  0  0  0  0  0  0  0  0  0  # atno 17320 bound_to 7965
  145.8939  139.2391  143.1533 LP  0  0  0  0  0  0  0  0  0  0  0  0  # atno 17321 bound_to 7965
  140.6167  143.9335  150.6494 LP  0  0  0  0  0  0  0  0  0  0  0  0  # atno 17342 bound_to 10162
  140.2596  143.3534  152.1335 LP  0  0  0  0  0  0  0  0  0  0  0  0  # atno 17343 bound_to 10162
  155.9938  130.3922  150.2883 LP  0  0  0  0  0  0  0  0  0  0  0  0  # atno 17370 bound_to 10713
  157.1046  131.0205  151.3072 LP  0  0  0  0  0  0  0  0  0  0  0  0  # atno 17371 bound_to 10713
  140.5342  134.6183  157.5359 LP  0  0  0  0  0  0  0  0  0  0  0  0  # atno 17394 bound_to 11000
  139.9689  134.7326  156.0082 LP  0  0  0  0  0  0  0  0  0  0  0  0  # atno 17395 bound_to 11000

$$$$
