AV-unprocessed.smi:1540|AV-procd|sdf|6201|dock6
  -GOLD-   22720 6373D 1   1.00000     0.00000
 Structure written by MMmdl.
 32 32  0  0  0  0  0  0  0  0  2 V2000
  149.9744  134.6457  154.7058 C   0  0  0  0  0  0  0  0  0  0  0  0
  150.4913  135.1256  155.8469 C   0  0  0  0  0  0  0  0  0  0  0  0
  151.2599  136.4232  155.9623 C   0  0  0  0  0  0  0  0  0  0  0  0
  150.4287  137.5199  155.6027 O   0  0  0  0  0  0  0  0  0  0  0  0
  151.0992  138.6247  155.0004 C   0  0  1  0  0  0  0  0  0  0  0  0
  150.0238  139.5744  154.4515 C   0  0  0  0  0  0  0  0  0  0  0  0
  151.9984  139.3315  156.0280 C   0  0  0  0  0  0  0  0  0  0  0  0
  153.2196  139.1978  155.9530 O   0  0  0  0  0  0  0  0  0  0  0  0
  151.3475  140.0617  156.9551 N   0  0  0  0  0  0  0  0  0  0  0  0
  151.8532  140.8402  158.0109 C   0  0  0  0  0  0  0  0  0  0  0  0
  151.4900  142.1247  158.2818 C   0  0  0  0  0  0  0  0  0  0  0  0
  152.0510  142.8759  159.3978 C   0  0  0  0  0  0  0  0  0  0  0  0
  151.6120  144.2808  159.7711 C   0  0  0  0  0  0  0  0  0  0  0  0
  152.1232  144.6483  160.9462 F   0  0  0  0  0  0  0  0  0  0  0  0
  152.0280  145.1461  158.8477 F   0  0  0  0  0  0  0  0  0  0  0  0
  150.2834  144.3610  159.8467 F   0  0  0  0  0  0  0  0  0  0  0  0
  152.9451  142.1268  160.1376 C   0  0  0  0  0  0  0  0  0  0  0  0
  153.3634  140.8585  159.9351 N   0  5  0  0  0  0  0  0  0  0  0  0
  152.8390  140.1685  158.8834 C   0  0  0  0  0  0  0  0  0  0  0  0
  153.1684  139.0053  158.6484 O   0  0  0  0  0  0  0  0  0  0  0  0
  150.0818  135.1787  153.7724 H   0  0  0  0  0  0  0  0  0  0  0  0
  149.4347  133.7101  154.6919 H   0  0  0  0  0  0  0  0  0  0  0  0
  150.3638  134.5651  156.7616 H   0  0  0  0  0  0  0  0  0  0  0  0
  151.6129  136.5176  156.9895 H   0  0  0  0  0  0  0  0  0  0  0  0
  152.1370  136.3892  155.3138 H   0  0  0  0  0  0  0  0  0  0  0  0
  151.7004  138.2691  154.1611 H   0  0  0  0  0  0  0  0  0  0  0  0
  150.4716  140.4530  153.9856 H   0  0  0  0  0  0  0  0  0  0  0  0
  149.3506  139.9173  155.2382 H   0  0  0  0  0  0  0  0  0  0  0  0
  149.4174  139.0749  153.6955 H   0  0  0  0  0  0  0  0  0  0  0  0
  150.3390  140.0338  156.9122 H   0  0  0  0  0  0  0  0  0  0  0  0
  150.7584  142.6354  157.6792 H   0  0  0  0  0  0  0  0  0  0  0  0
  153.3882  142.6195  161.0294 H   0  0  0  0  0  0  0  0  0  0  0  0
  1  2  2  0  0  0  0
  1 21  1  0  0  0  0
  1 22  1  0  0  0  0
  2  3  1  0  0  0  0
  2 23  1  0  0  0  0
  3  4  1  0  0  0  0
  3 24  1  0  0  0  0
  3 25  1  0  0  0  0
  4  5  1  0  0  0  0
  5  6  1  0  0  0  0
  5  7  1  0  0  0  0
  5 26  1  0  0  0  0
  6 27  1  0  0  0  0
  6 28  1  0  0  0  0
  6 29  1  0  0  0  0
  7  8  2  0  0  0  0
  7  9  1  0  0  0  0
  9 10  1  0  0  0  0
  9 30  1  0  0  0  0
 10 19  1  0  0  0  0
 10 11  2  0  0  0  0
 11 12  1  0  0  0  0
 11 31  1  0  0  0  0
 12 13  1  0  0  0  0
 12 17  2  0  0  0  0
 13 14  1  0  0  0  0
 13 15  1  0  0  0  0
 13 16  1  0  0  0  0
 17 18  1  0  0  0  0
 17 32  1  0  0  0  0
 18 19  1  0  0  0  0
 19 20  2  0  0  0  0
M  CHG  1  18  -1
M  END
> <s_m_source_file>
AV-unprocessed.smi

> <i_m_source_file_index>
1540

> <i_lp_mmshare_version>
43012

> <i_f3d_flags>
0

> <s_epik_input>
W0NIMl09W0NIXVtDSDJdT1tDQEhdKFtDSDNdKUMoPU8pW05IXWMxW2NIXWMoQyhGKShGKUYpW2NIXVtuSF1jMT1P

> <s_epik_cmdline>
J2VwaWtfcHl0aG9uJywgJy1waCcsICc3LjAnLCAnLXRuJywgJzgnLCAnLW1hJywgJzIwMCcsICctbWV0YWxfYmluZGluZycsICctaW1hZScsICc8aW5maWxlLm1hZT4nLCAnLW9tYWUnLCAnPG91dGZpbGUubWFlPic=

> <r_epik_Ionization_Penalty>
2.56803

> <r_epik_Ionization_Penalty_Charging>
0.0609694

> <r_epik_Ionization_Penalty_Neutral>
2.50706

> <r_epik_State_Penalty>
2.67253

> <r_epik_Charging_Adjusted_Penalty>
2.7335

> <i_epik_Tot_Q>
-1

> <i_epik_Tot_abs_Q>
1

> <r_epik_Metal_State_Penalty>
0.517713

> <b_epik_Metal_Only>
0

> <s_lp_Force_Field>
OPLS_2005

> <r_lp_Energy>
20.9633

> <b_lp_Chiralities_Consistent>
1

> <s_lp_Variant>
AV-unprocessed.smi:1540-4

> <Gold.Version>
5.8.1

> <Gold.Id.Protein>
6NUR|6NUR_protein|mol2

> <Gold.PLP.Fitness>
43.3530

> <Gold.PLP.PLP>
-42.6092

> <Gold.PLP.part.hbond>
-0.9350

> <Gold.PLP.part.metal>
0.0000

> <Gold.PLP.part.buried>
-6.5058

> <Gold.PLP.part.nonpolar>
-35.3570

> <Gold.PLP.part.repulsive>
0.1515

> <Gold.PLP.ligand.clash>
0.0000

> <Gold.PLP.ligand.torsion>
1.1895

> <Gold.PLP.Chemscore.Hbond>
1.0000

> <Gold.PLP.Chemscore.CHOScore>
0.0000

> <Gold.PLP.Chemscore.Metal>
0.0000

> <Gold.Chemscore.Hbonds>
donor molecule, donor type, donor heavy atom, donor atom, acceptor molecule, acceptor atom, score
      P1  H  7997  8008       L1     8  0.91

> <Gold.PLP.Chemscore.Internal.Correction>
0.1227

> <Gold.Rescore>
     Score         DG    S(hbond)    S(metal)    S(lipo)     H(rot)  DE(clash)    DE(int)     intcor
      9.53     -13.33       0.99        0.00      77.59       1.77       0.03       3.77       ----

> <Gold.Chemscore.Fitness>
9.5333

> <Gold.Chemscore.DG>
-13.3333

> <Gold.Chemscore.ZeroCoef>
-5.4800

> <Gold.Chemscore.Hbond>
0.9937

> <Gold.Chemscore.Metal>
0.0000

> <Gold.Chemscore.Lipo>
77.5901

> <Gold.Chemscore.Internal_Hbond>
0.0000

> <Gold.Chemscore.DEClash>
0.0299

> <Gold.Chemscore.DEInternal>
3.7701

> <Gold.Chemscore.Rot>
1.7750

> <Gold.Chemscore.Internal.Correction>
   9.000000E+99

> <Gold.Chemscore.Hbonds>
donor molecule, donor type, donor heavy atom, donor atom, acceptor molecule, acceptor atom, score
      P1  H  7997  8008       L1     8  0.88

> <Gold.Chemscore.Hbond.Weighted>
-3.3191

> <Gold.Chemscore.Metal.Weighted>
-0.0000

> <Gold.Chemscore.Lipo.Weighted>
-9.0780

> <Gold.Chemscore.Internal_Hbond.Weighted>
0.0000

> <Gold.Chemscore.DEClash.Weighted>
0.0299

> <Gold.Chemscore.DEInternal.Weighted>
3.7701

> <Gold.Chemscore.Rot.Weighted>
4.5439

> <Gold.Chemscore.Internal.Correction.Weighted>
   9.000000E+99

> <Gold.Protein.RotatedTorsions>
[ 6907 6896 6895 6894 ] final -114.19 input  -60.11 | X-H torsion
[ 7974 7965 7964 7962 ] final  142.69 input  175.53 | X-H torsion
[ 8008 7997 7996 7995 ] final  -30.57 input   59.86 | X-H torsion
[ 10167 10162 10161 10158 ] final  -88.16 input  -65.29 | X-H torsion
[ 10718 10713 10712 10709 ] final   15.16 input   66.30 | X-H torsion
[ 10763 10752 10751 10750 ] final  -57.00 input  -60.55 | X-H torsion
[ 11005 11000 10999 10996 ] final   56.19 input  -57.11 | X-H torsion

> <Gold.Protein.ActiveResidues>
 VAL166  LYS551  ARG553  GLY616  TRP617  ASP618  TYR619  PRO620  LYS621  CYS622 
 ASP623  PHE694  ASN695  SER759  ASP760  ASP761  ALA762  ILE779  LEU786  VAL792 
 PHE793  MET794  SER795  GLU796  ALA797  LYS798  CYS799  TRP800  GLU811  SER814 

> <Gold.Protein.RotatedAtoms>
  150.7884  133.8837  159.3292 H   0  0  0  0  0  0  0  0  0  0  0  0  # atno 6907 bound_to 6896
  151.6681  135.0978  160.0202 H   0  0  0  0  0  0  0  0  0  0  0  0  # atno 6908 bound_to 6896
  152.3953  133.6698  159.6306 H   0  0  0  0  0  0  0  0  0  0  0  0  # atno 6909 bound_to 6896
  144.8986  139.5455  143.5764 H   0  0  0  0  0  0  0  0  0  0  0  0  # atno 7974 bound_to 7965
  154.4245  140.1787  156.1429 H   0  0  0  0  0  0  0  0  0  0  0  0  # atno 8008 bound_to 7997
  155.9977  140.3363  155.6790 H   0  0  0  0  0  0  0  0  0  0  0  0  # atno 8009 bound_to 7997
  155.6285  140.0667  157.2647 H   0  0  0  0  0  0  0  0  0  0  0  0  # atno 8010 bound_to 7997
  140.3774  143.2765  151.9426 H   0  0  0  0  0  0  0  0  0  0  0  0  # atno 10167 bound_to 10162
  157.0495  130.6264  149.5765 H   0  0  0  0  0  0  0  0  0  0  0  0  # atno 10718 bound_to 10713
  154.2156  135.6387  153.5128 H   0  0  0  0  0  0  0  0  0  0  0  0  # atno 10763 bound_to 10752
  152.9980  135.5484  154.6169 H   0  0  0  0  0  0  0  0  0  0  0  0  # atno 10764 bound_to 10752
  154.5616  135.2909  155.0887 H   0  0  0  0  0  0  0  0  0  0  0  0  # atno 10765 bound_to 10752
  140.0548  134.5686  155.9221 H   0  0  0  0  0  0  0  0  0  0  0  0  # atno 11005 bound_to 11000
  146.3095  139.7697  142.9030 LP  0  0  0  0  0  0  0  0  0  0  0  0  # atno 17320 bound_to 7965
  145.3656  141.0334  143.3260 LP  0  0  0  0  0  0  0  0  0  0  0  0  # atno 17321 bound_to 7965
  139.4798  144.5851  151.7867 LP  0  0  0  0  0  0  0  0  0  0  0  0  # atno 17342 bound_to 10162
  140.4972  144.1222  150.5963 LP  0  0  0  0  0  0  0  0  0  0  0  0  # atno 17343 bound_to 10162
  156.0012  130.5092  150.7670 LP  0  0  0  0  0  0  0  0  0  0  0  0  # atno 17370 bound_to 10713
  157.5042  131.0921  151.0278 LP  0  0  0  0  0  0  0  0  0  0  0  0  # atno 17371 bound_to 10713
  141.1947  133.6584  156.5607 LP  0  0  0  0  0  0  0  0  0  0  0  0  # atno 17394 bound_to 11000
  140.3861  134.7481  157.4692 LP  0  0  0  0  0  0  0  0  0  0  0  0  # atno 17395 bound_to 11000

$$$$
