AV-unprocessed.smi:1999|AV-procd|sdf|8093|dock8
  -GOLD-   2272010313D 1   1.00000     0.00000
 Structure written by MMmdl.
 38 39  0  0  0  0  0  0  0  0  1 V2000
  143.9172  132.9644  151.4462 C   0  0  0  0  0  0  0  0  0  0  0  0
  143.9863  134.3756  151.9201 C   0  0  0  0  0  0  0  0  0  0  0  0
  143.0595  134.9147  152.7211 N   0  0  0  0  0  0  0  0  0  0  0  0
  143.3375  136.2387  153.0312 N   0  0  0  0  0  0  0  0  0  0  0  0
  144.4716  136.6595  152.4543 C   0  0  0  0  0  0  0  0  0  0  0  0
  144.9923  137.9723  152.6015 N   0  0  0  0  0  0  0  0  0  0  0  0
  146.1659  138.3485  153.1396 C   0  0  0  0  0  0  0  0  0  0  0  0
  147.0154  137.5853  153.6000 O   0  0  0  0  0  0  0  0  0  0  0  0
  146.3052  139.6822  153.1116 N   0  0  0  0  0  0  0  0  0  0  0  0
  147.4571  140.4270  153.6125 C   0  0  1  0  0  0  0  0  0  0  0  0
  147.1413  141.9327  153.6064 C   0  0  0  0  0  0  0  0  0  0  0  0
  147.8027  139.9075  155.0234 C   0  0  0  0  0  0  0  0  0  0  0  0
  149.2197  139.6431  155.2765 N   0  0  0  0  0  0  0  0  0  0  0  0
  150.0085  140.8659  155.4167 C   0  0  0  0  0  0  0  0  0  0  0  0
  151.4995  140.5643  155.6497 C   0  0  0  0  0  0  0  0  0  0  0  0
  151.9978  139.7552  154.5894 O   0  0  0  0  0  0  0  0  0  0  0  0
  151.2846  138.5308  154.4537 C   0  0  0  0  0  0  0  0  0  0  0  0
  149.7950  138.8287  154.2114 C   0  0  0  0  0  0  0  0  0  0  0  0
  145.2981  135.4603  151.4743 S   0  0  0  0  0  0  0  0  0  0  0  0
  142.8792  132.6615  151.3047 H   0  0  0  0  0  0  0  0  0  0  0  0
  144.3795  132.3028  152.1786 H   0  0  0  0  0  0  0  0  0  0  0  0
  144.4426  132.8588  150.4970 H   0  0  0  0  0  0  0  0  0  0  0  0
  144.4000  138.7131  152.2567 H   0  0  0  0  0  0  0  0  0  0  0  0
  145.5558  140.2277  152.7119 H   0  0  0  0  0  0  0  0  0  0  0  0
  148.3000  140.2407  152.9465 H   0  0  0  0  0  0  0  0  0  0  0  0
  147.9974  142.5171  153.9442 H   0  0  0  0  0  0  0  0  0  0  0  0
  146.3009  142.1652  154.2612 H   0  0  0  0  0  0  0  0  0  0  0  0
  146.8885  142.2794  152.6038 H   0  0  0  0  0  0  0  0  0  0  0  0
  147.4487  140.6448  155.7453 H   0  0  0  0  0  0  0  0  0  0  0  0
  147.2289  139.0007  155.2224 H   0  0  0  0  0  0  0  0  0  0  0  0
  149.8998  141.4816  154.5226 H   0  0  0  0  0  0  0  0  0  0  0  0
  149.6435  141.4601  156.2534 H   0  0  0  0  0  0  0  0  0  0  0  0
  152.0722  141.4908  155.6905 H   0  0  0  0  0  0  0  0  0  0  0  0
  151.6450  140.0550  156.6036 H   0  0  0  0  0  0  0  0  0  0  0  0
  151.6999  137.9671  153.6182 H   0  0  0  0  0  0  0  0  0  0  0  0
  151.4169  137.9221  155.3497 H   0  0  0  0  0  0  0  0  0  0  0  0
  149.2499  137.8878  154.1288 H   0  0  0  0  0  0  0  0  0  0  0  0
  149.6823  139.3393  153.2538 H   0  0  0  0  0  0  0  0  0  0  0  0
  1  2  1  0  0  0  0
  1 20  1  0  0  0  0
  1 21  1  0  0  0  0
  1 22  1  0  0  0  0
  2 19  1  0  0  0  0
  2  3  2  0  0  0  0
  3  4  1  0  0  0  0
  4  5  2  0  0  0  0
  5  6  1  0  0  0  0
  5 19  1  0  0  0  0
  6  7  1  0  0  0  0
  6 23  1  0  0  0  0
  7  8  2  0  0  0  0
  7  9  1  0  0  0  0
  9 10  1  0  0  0  0
  9 24  1  0  0  0  0
 10 11  1  0  0  0  0
 10 12  1  0  0  0  0
 10 25  1  0  0  0  0
 11 26  1  0  0  0  0
 11 27  1  0  0  0  0
 11 28  1  0  0  0  0
 12 13  1  0  0  0  0
 12 29  1  0  0  0  0
 12 30  1  0  0  0  0
 13 18  1  0  0  0  0
 13 14  1  0  0  0  0
 14 15  1  0  0  0  0
 14 31  1  0  0  0  0
 14 32  1  0  0  0  0
 15 16  1  0  0  0  0
 15 33  1  0  0  0  0
 15 34  1  0  0  0  0
 16 17  1  0  0  0  0
 17 18  1  0  0  0  0
 17 35  1  0  0  0  0
 17 36  1  0  0  0  0
 18 37  1  0  0  0  0
 18 38  1  0  0  0  0
M  END
> <s_m_source_file>
AV-unprocessed.smi

> <i_m_source_file_index>
1999

> <i_lp_mmshare_version>
43012

> <i_f3d_flags>
0

> <s_epik_input>
W0NIM11jMW5uYyhzMSlbTkhdQyg9TylbTkhdW0NASF0oW0NIM10pW0NIMl1OMltDSDJdW0NIMl1PW0NIMl1bQ0gyXTI=

> <s_epik_cmdline>
J2VwaWtfcHl0aG9uJywgJy1waCcsICc3LjAnLCAnLXRuJywgJzgnLCAnLW1hJywgJzIwMCcsICctbWV0YWxfYmluZGluZycsICctaW1hZScsICc8aW5maWxlLm1hZT4nLCAnLW9tYWUnLCAnPG91dGZpbGUubWFlPic=

> <r_lp_tautomer_probability>
1

> <r_epik_Ionization_Penalty>
0.221412

> <r_epik_Ionization_Penalty_Charging>
0

> <r_epik_Ionization_Penalty_Neutral>
0.221412

> <r_epik_State_Penalty>
0.209349

> <r_epik_Charging_Adjusted_Penalty>
0.209349

> <i_epik_Tot_Q>
0

> <i_epik_Tot_abs_Q>
0

> <r_epik_Metal_State_Penalty>
0.56886

> <b_epik_Metal_Only>
0

> <s_lp_Force_Field>
OPLS_2005

> <r_lp_Energy>
22.0732

> <b_lp_Chiralities_Consistent>
1

> <s_lp_Variant>
AV-unprocessed.smi:1999-2

> <Gold.Version>
5.8.1

> <Gold.Id.Protein>
6NUR|6NUR_protein|mol2

> <Gold.PLP.Fitness>
37.7274

> <Gold.PLP.PLP>
-31.6772

> <Gold.PLP.part.hbond>
-4.0000

> <Gold.PLP.part.metal>
0.0000

> <Gold.PLP.part.buried>
-6.3291

> <Gold.PLP.part.nonpolar>
-23.7504

> <Gold.PLP.part.repulsive>
1.9186

> <Gold.PLP.ligand.clash>
0.0000

> <Gold.PLP.ligand.torsion>
1.4020

> <Gold.PLP.Chemscore.Hbond>
2.9360

> <Gold.PLP.Chemscore.CHOScore>
0.0000

> <Gold.PLP.Chemscore.Metal>
0.0000

> <Gold.Chemscore.Hbonds>
donor molecule, donor type, donor heavy atom, donor atom, acceptor molecule, acceptor atom, score
      L1  H     6    23       P1 10175  1.00
      L1  H     9    24       P1 10175  0.98
      P1  H  7989  7998       L1    16  0.57

> <Gold.PLP.Chemscore.Internal.Correction>
0.0462

> <Gold.Rescore>
     Score         DG    S(hbond)    S(metal)    S(lipo)     H(rot)  DE(clash)    DE(int)     intcor
     13.92     -16.66       2.54        0.00      57.87       1.58       0.00       2.74       ----

> <Gold.Chemscore.Fitness>
13.9195

> <Gold.Chemscore.DG>
-16.6642

> <Gold.Chemscore.ZeroCoef>
-5.4800

> <Gold.Chemscore.Hbond>
2.5351

> <Gold.Chemscore.Metal>
0.0000

> <Gold.Chemscore.Lipo>
57.8742

> <Gold.Chemscore.Internal_Hbond>
0.0000

> <Gold.Chemscore.DEClash>
0.0048

> <Gold.Chemscore.DEInternal>
2.7399

> <Gold.Chemscore.Rot>
1.5837

> <Gold.Chemscore.Internal.Correction>
   9.000000E+99

> <Gold.Chemscore.Hbonds>
donor molecule, donor type, donor heavy atom, donor atom, acceptor molecule, acceptor atom, score
      L1  H     6    23       P1 10175  0.95
      L1  H     9    24       P1 10175  0.84
      P1  H  7989  7998       L1    16  0.04

> <Gold.Chemscore.Hbond.Weighted>
-8.4671

> <Gold.Chemscore.Metal.Weighted>
-0.0000

> <Gold.Chemscore.Lipo.Weighted>
-6.7713

> <Gold.Chemscore.Internal_Hbond.Weighted>
0.0000

> <Gold.Chemscore.DEClash.Weighted>
0.0048

> <Gold.Chemscore.DEInternal.Weighted>
2.7399

> <Gold.Chemscore.Rot.Weighted>
4.0542

> <Gold.Chemscore.Internal.Correction.Weighted>
   9.000000E+99

> <Gold.Protein.RotatedTorsions>
[ 6907 6896 6895 6894 ] final   52.05 input  -60.11 | X-H torsion
[ 7974 7965 7964 7962 ] final    2.07 input  175.53 | X-H torsion
[ 8008 7997 7996 7995 ] final  -19.17 input   59.86 | X-H torsion
[ 10167 10162 10161 10158 ] final  -21.14 input  -65.29 | X-H torsion
[ 10718 10713 10712 10709 ] final  -22.70 input   66.30 | X-H torsion
[ 10763 10752 10751 10750 ] final -167.96 input  -60.55 | X-H torsion
[ 11005 11000 10999 10996 ] final  172.98 input  -57.11 | X-H torsion

> <Gold.Protein.ActiveResidues>
 VAL166  LYS551  ARG553  GLY616  TRP617  ASP618  TYR619  PRO620  LYS621  CYS622 
 ASP623  PHE694  ASN695  SER759  ASP760  ASP761  ALA762  ILE779  LEU786  VAL792 
 PHE793  MET794  SER795  GLU796  ALA797  LYS798  CYS799  TRP800  GLU811  SER814 

> <Gold.Protein.RotatedAtoms>
  152.3192  134.7402  160.0317 H   0  0  0  0  0  0  0  0  0  0  0  0  # atno 6907 bound_to 6896
  151.7856  133.3348  159.3492 H   0  0  0  0  0  0  0  0  0  0  0  0  # atno 6908 bound_to 6896
  150.7361  134.5821  159.5988 H   0  0  0  0  0  0  0  0  0  0  0  0  # atno 6909 bound_to 6896
  146.2443  140.0892  142.8353 H   0  0  0  0  0  0  0  0  0  0  0  0  # atno 7974 bound_to 7965
  154.4855  140.2096  155.9665 H   0  0  0  0  0  0  0  0  0  0  0  0  # atno 8008 bound_to 7997
  156.1229  140.3210  155.8204 H   0  0  0  0  0  0  0  0  0  0  0  0  # atno 8009 bound_to 7997
  155.4435  140.0512  157.2999 H   0  0  0  0  0  0  0  0  0  0  0  0  # atno 8010 bound_to 7997
  140.7280  143.4656  151.0319 H   0  0  0  0  0  0  0  0  0  0  0  0  # atno 10167 bound_to 10162
  156.5009  130.4588  149.6701 H   0  0  0  0  0  0  0  0  0  0  0  0  # atno 10718 bound_to 10713
  154.6678  135.2934  154.9783 H   0  0  0  0  0  0  0  0  0  0  0  0  # atno 10763 bound_to 10752
  154.0820  135.6603  153.4843 H   0  0  0  0  0  0  0  0  0  0  0  0  # atno 10764 bound_to 10752
  153.0468  135.5199  154.7659 H   0  0  0  0  0  0  0  0  0  0  0  0  # atno 10765 bound_to 10752
  140.3356  134.7320  157.4165 H   0  0  0  0  0  0  0  0  0  0  0  0  # atno 11005 bound_to 11000
  145.0665  140.9125  143.4907 LP  0  0  0  0  0  0  0  0  0  0  0  0  # atno 17320 bound_to 7965
  145.1017  139.2818  143.5682 LP  0  0  0  0  0  0  0  0  0  0  0  0  # atno 17321 bound_to 7965
  139.8344  143.7648  152.3180 LP  0  0  0  0  0  0  0  0  0  0  0  0  # atno 17342 bound_to 10162
  139.7775  144.7456  151.0136 LP  0  0  0  0  0  0  0  0  0  0  0  0  # atno 17343 bound_to 10162
  156.3333  130.7343  151.2276 LP  0  0  0  0  0  0  0  0  0  0  0  0  # atno 17370 bound_to 10713
  157.7463  131.0424  150.4691 LP  0  0  0  0  0  0  0  0  0  0  0  0  # atno 17371 bound_to 10713
  140.0824  134.5713  155.8527 LP  0  0  0  0  0  0  0  0  0  0  0  0  # atno 17394 bound_to 11000
  141.2052  133.6645  156.6167 LP  0  0  0  0  0  0  0  0  0  0  0  0  # atno 17395 bound_to 11000

$$$$
