AV-unprocessed.smi:878|AV-procd|sdf|4031|dock4
  -GOLD-   22720 1523D 1   1.00000     0.00000
 Structure written by MMmdl.
 33 34  0  0  0  0  0  0  0  0  1 V2000
  154.5255  142.3175  164.3112 C   0  0  0  0  0  0  0  0  0  0  0  0
  153.2791  143.2124  163.3449 S   0  0  0  0  0  0  0  0  0  0  0  0
  153.1422  142.4314  161.7624 C   0  0  0  0  0  0  0  0  0  0  0  0
  152.2085  142.8705  160.8004 C   0  0  0  0  0  0  0  0  0  0  0  0
  152.1244  142.2262  159.5503 C   0  0  0  0  0  0  0  0  0  0  0  0
  152.9753  141.1346  159.2447 C   0  0  0  0  0  0  0  0  0  0  0  0
  152.9647  140.4534  158.0471 O   0  0  0  0  0  0  0  0  0  0  0  0
  151.7431  140.3726  157.3256 C   0  0  0  0  0  0  0  0  0  0  0  0
  152.0324  140.1093  155.8385 C   0  0  0  0  0  0  0  0  0  0  0  0
  150.8391  139.8786  155.0599 N   0  0  0  0  0  0  0  0  0  0  0  0
  149.8068  140.8022  155.0042 C   0  0  0  0  0  0  0  0  0  0  0  0
  148.6695  140.6046  154.2948 C   0  0  0  0  0  0  0  0  0  0  0  0
  147.4274  141.8047  154.2760 Cl  0  0  0  0  0  0  0  0  0  0  0  0
  148.4846  139.3666  153.5388 C   0  0  0  0  0  0  0  0  0  0  0  0
  147.4981  139.0866  152.8605 O   0  0  0  0  0  0  0  0  0  0  0  0
  149.5459  138.4610  153.6306 N   0  0  0  0  0  0  0  0  0  0  0  0
  150.7188  138.6545  154.3609 C   0  0  0  0  0  0  0  0  0  0  0  0
  151.5826  137.7776  154.3725 O   0  0  0  0  0  0  0  0  0  0  0  0
  153.9027  140.7044  160.2150 C   0  0  0  0  0  0  0  0  0  0  0  0
  153.9859  141.3443  161.4662 C   0  0  0  0  0  0  0  0  0  0  0  0
  149.4551  137.5908  153.1265 H   0  0  0  0  0  0  0  0  0  0  0  0
  154.5845  142.7321  165.3174 H   0  0  0  0  0  0  0  0  0  0  0  0
  155.5082  142.4046  163.8480 H   0  0  0  0  0  0  0  0  0  0  0  0
  154.2626  141.2624  164.3894 H   0  0  0  0  0  0  0  0  0  0  0  0
  151.5469  143.6981  161.0024 H   0  0  0  0  0  0  0  0  0  0  0  0
  151.3984  142.5919  158.8404 H   0  0  0  0  0  0  0  0  0  0  0  0
  151.1098  139.5804  157.7289 H   0  0  0  0  0  0  0  0  0  0  0  0
  151.2011  141.3148  157.4177 H   0  0  0  0  0  0  0  0  0  0  0  0
  152.5084  140.9818  155.3883 H   0  0  0  0  0  0  0  0  0  0  0  0
  152.7234  139.2786  155.6815 H   0  0  0  0  0  0  0  0  0  0  0  0
  149.9103  141.7265  155.5551 H   0  0  0  0  0  0  0  0  0  0  0  0
  154.5571  139.8731  159.9973 H   0  0  0  0  0  0  0  0  0  0  0  0
  154.7022  140.9991  162.1972 H   0  0  0  0  0  0  0  0  0  0  0  0
  1  2  1  0  0  0  0
  1 22  1  0  0  0  0
  1 23  1  0  0  0  0
  1 24  1  0  0  0  0
  2  3  1  0  0  0  0
  3 20  1  0  0  0  0
  3  4  2  0  0  0  0
  4  5  1  0  0  0  0
  4 25  1  0  0  0  0
  5  6  2  0  0  0  0
  5 26  1  0  0  0  0
  6  7  1  0  0  0  0
  6 19  1  0  0  0  0
  7  8  1  0  0  0  0
  8  9  1  0  0  0  0
  8 27  1  0  0  0  0
  8 28  1  0  0  0  0
  9 10  1  0  0  0  0
  9 29  1  0  0  0  0
  9 30  1  0  0  0  0
 10 17  1  0  0  0  0
 10 11  1  0  0  0  0
 11 12  2  0  0  0  0
 11 31  1  0  0  0  0
 12 13  1  0  0  0  0
 12 14  1  0  0  0  0
 14 15  2  0  0  0  0
 14 16  1  0  0  0  0
 16 21  1  0  0  0  0
 16 17  1  0  0  0  0
 17 18  2  0  0  0  0
 19 20  2  0  0  0  0
 19 32  1  0  0  0  0
 20 33  1  0  0  0  0
M  END
> <s_m_source_file>
AV-unprocessed.smi

> <i_m_source_file_index>
878

> <i_lp_mmshare_version>
43012

> <i_f3d_flags>
0

> <s_epik_input>
W0NIM11TYzFbY0hdW2NIXWMoW2NIXVtjSF0xKU9bQ0gyXVtDSDJdbjJbY0hdYyhDbCljKD1PKVtuSF1jMj1P

> <s_epik_cmdline>
J2VwaWtfcHl0aG9uJywgJy1waCcsICc3LjAnLCAnLXRuJywgJzgnLCAnLW1hJywgJzIwMCcsICctbWV0YWxfYmluZGluZycsICctaW1hZScsICc8aW5maWxlLm1hZT4nLCAnLW9tYWUnLCAnPG91dGZpbGUubWFlPic=

> <r_lp_tautomer_probability>
0.999537

> <r_epik_Ionization_Penalty>
0.037527

> <r_epik_Ionization_Penalty_Charging>
0.037527

> <r_epik_Ionization_Penalty_Neutral>
0

> <r_epik_State_Penalty>
0.0314158

> <r_epik_Charging_Adjusted_Penalty>
0.0689428

> <i_epik_Tot_Q>
0

> <i_epik_Tot_abs_Q>
0

> <r_epik_Metal_State_Penalty>
2.37917

> <b_epik_Metal_Only>
0

> <s_lp_Force_Field>
OPLS_2005

> <r_lp_Energy>
14.7844

> <b_lp_Chiralities_Consistent>
1

> <s_lp_Variant>
AV-unprocessed.smi:878-1

> <Gold.Version>
5.8.1

> <Gold.Id.Protein>
6NUR|6NUR_protein|mol2

> <Gold.PLP.Fitness>
53.6317

> <Gold.PLP.PLP>
-48.9995

> <Gold.PLP.part.hbond>
-3.0000

> <Gold.PLP.part.metal>
0.0000

> <Gold.PLP.part.buried>
-0.8139

> <Gold.PLP.part.nonpolar>
-44.9480

> <Gold.PLP.part.repulsive>
1.1807

> <Gold.PLP.ligand.clash>
0.0000

> <Gold.PLP.ligand.torsion>
0.5152

> <Gold.PLP.Chemscore.Hbond>
1.8800

> <Gold.PLP.Chemscore.CHOScore>
0.0000

> <Gold.PLP.Chemscore.Metal>
0.0000

> <Gold.Chemscore.Hbonds>
donor molecule, donor type, donor heavy atom, donor atom, acceptor molecule, acceptor atom, score
      L1  H    16    21       P1  7948  1.00
      P1  H  7997  8009       L1     7  0.83

> <Gold.PLP.Chemscore.Internal.Correction>
0.0226

> <Gold.Rescore>
     Score         DG    S(hbond)    S(metal)    S(lipo)     H(rot)  DE(clash)    DE(int)     intcor
     18.59     -19.28       1.80        0.00     109.87       1.98       0.13       0.55       ----

> <Gold.Chemscore.Fitness>
18.5932

> <Gold.Chemscore.DG>
-19.2766

> <Gold.Chemscore.ZeroCoef>
-5.4800

> <Gold.Chemscore.Hbond>
1.7962

> <Gold.Chemscore.Metal>
0.0000

> <Gold.Chemscore.Lipo>
109.8689

> <Gold.Chemscore.Internal_Hbond>
0.0000

> <Gold.Chemscore.DEClash>
0.1285

> <Gold.Chemscore.DEInternal>
0.5549

> <Gold.Chemscore.Rot>
1.9755

> <Gold.Chemscore.Internal.Correction>
   9.000000E+99

> <Gold.Chemscore.Hbonds>
donor molecule, donor type, donor heavy atom, donor atom, acceptor molecule, acceptor atom, score
      L1  H    16    21       P1  7948  0.90
      P1  H  7997  8009       L1     7  0.68
      P1  H 10752 10764       L1    18  0.01

> <Gold.Chemscore.Hbond.Weighted>
-5.9993

> <Gold.Chemscore.Metal.Weighted>
-0.0000

> <Gold.Chemscore.Lipo.Weighted>
-12.8547

> <Gold.Chemscore.Internal_Hbond.Weighted>
0.0000

> <Gold.Chemscore.DEClash.Weighted>
0.1285

> <Gold.Chemscore.DEInternal.Weighted>
0.5549

> <Gold.Chemscore.Rot.Weighted>
5.0574

> <Gold.Chemscore.Internal.Correction.Weighted>
   9.000000E+99

> <Gold.Protein.RotatedTorsions>
[ 6907 6896 6895 6894 ] final  114.25 input  -60.11 | X-H torsion
[ 7974 7965 7964 7962 ] final   40.38 input  175.53 | X-H torsion
[ 8008 7997 7996 7995 ] final  163.48 input   59.86 | X-H torsion
[ 10167 10162 10161 10158 ] final  -99.35 input  -65.29 | X-H torsion
[ 10718 10713 10712 10709 ] final  144.37 input   66.30 | X-H torsion
[ 10763 10752 10751 10750 ] final  -84.82 input  -60.55 | X-H torsion
[ 11005 11000 10999 10996 ] final   94.20 input  -57.11 | X-H torsion

> <Gold.Protein.ActiveResidues>
 VAL166  LYS551  ARG553  GLY616  TRP617  ASP618  TYR619  PRO620  LYS621  CYS622 
 ASP623  PHE694  ASN695  SER759  ASP760  ASP761  ALA762  ILE779  LEU786  VAL792 
 PHE793  MET794  SER795  GLU796  ALA797  LYS798  CYS799  TRP800  GLU811  SER814 

> <Gold.Protein.RotatedAtoms>
  152.4813  133.8262  159.7079 H   0  0  0  0  0  0  0  0  0  0  0  0  # atno 6907 bound_to 6896
  150.8865  133.7291  159.2923 H   0  0  0  0  0  0  0  0  0  0  0  0  # atno 6908 bound_to 6896
  151.4778  135.1054  159.9821 H   0  0  0  0  0  0  0  0  0  0  0  0  # atno 6909 bound_to 6896
  146.0909  139.5539  142.9476 H   0  0  0  0  0  0  0  0  0  0  0  0  # atno 7974 bound_to 7965
  156.1953  140.1722  156.8010 H   0  0  0  0  0  0  0  0  0  0  0  0  # atno 8008 bound_to 7997
  154.5522  140.0715  156.8718 H   0  0  0  0  0  0  0  0  0  0  0  0  # atno 8009 bound_to 7997
  155.3006  140.3361  155.4250 H   0  0  0  0  0  0  0  0  0  0  0  0  # atno 8010 bound_to 7997
  140.2634  143.3392  152.0604 H   0  0  0  0  0  0  0  0  0  0  0  0  # atno 10167 bound_to 10162
  157.3580  131.0961  151.0941 H   0  0  0  0  0  0  0  0  0  0  0  0  # atno 10718 bound_to 10713
  154.6040  135.5507  153.7403 H   0  0  0  0  0  0  0  0  0  0  0  0  # atno 10763 bound_to 10752
  153.0166  135.6373  154.1674 H   0  0  0  0  0  0  0  0  0  0  0  0  # atno 10764 bound_to 10752
  154.1613  135.2897  155.3088 H   0  0  0  0  0  0  0  0  0  0  0  0  # atno 10765 bound_to 10752
  139.8801  134.8832  156.3830 H   0  0  0  0  0  0  0  0  0  0  0  0  # atno 11005 bound_to 11000
  145.6041  141.0350  143.2002 LP  0  0  0  0  0  0  0  0  0  0  0  0  # atno 17320 bound_to 7965
  144.7359  139.7586  143.7329 LP  0  0  0  0  0  0  0  0  0  0  0  0  # atno 17321 bound_to 7965
  139.5010  144.6704  151.6256 LP  0  0  0  0  0  0  0  0  0  0  0  0  # atno 17342 bound_to 10162
  140.5948  143.9716  150.6347 LP  0  0  0  0  0  0  0  0  0  0  0  0  # atno 17343 bound_to 10162
  157.2091  130.6429  149.5767 LP  0  0  0  0  0  0  0  0  0  0  0  0  # atno 17370 bound_to 10713
  155.9732  130.4666  150.6294 LP  0  0  0  0  0  0  0  0  0  0  0  0  # atno 17371 bound_to 10713
  140.9386  133.7530  156.0117 LP  0  0  0  0  0  0  0  0  0  0  0  0  # atno 17394 bound_to 11000
  140.8246  134.3249  157.5370 LP  0  0  0  0  0  0  0  0  0  0  0  0  # atno 17395 bound_to 11000

$$$$
