AV-unprocessed.smi:2213|AV-procd|sdf|8956|dock9
  -GOLD-   2272012173D 1   1.00000     0.00000
 Structure written by MMmdl.
 38 39  0  0  0  0  0  0  0  0  1 V2000
  143.9563  143.2817  156.8046 C   0  0  0  0  0  0  0  0  0  0  0  0
  145.2192  142.5524  156.3815 C   0  0  0  0  0  0  0  0  0  0  0  0
  145.8097  141.7490  157.3614 N   0  0  0  0  0  0  0  0  0  0  0  0
  146.8928  141.0961  157.0934 C   0  0  0  0  0  0  0  0  0  0  0  0
  147.5040  141.1677  155.8310 N   0  0  0  0  0  0  0  0  0  0  0  0
  148.7368  140.3813  155.6581 C   0  0  0  0  0  0  0  0  0  0  0  0
  149.9434  141.2609  155.2594 C   0  0  2  0  0  0  0  0  0  0  0  0
  151.0034  140.4587  154.7785 O   0  0  0  0  0  0  0  0  0  0  0  0
  150.4859  142.1022  156.4274 C   0  0  0  0  0  0  0  0  0  0  0  0
  151.3018  141.2928  157.2653 O   0  0  0  0  0  0  0  0  0  0  0  0
  151.8502  141.8569  158.3979 C   0  0  0  0  0  0  0  0  0  0  0  0
  151.5364  143.1589  158.8649 C   0  0  0  0  0  0  0  0  0  0  0  0
  152.1423  143.6657  160.0313 C   0  0  0  0  0  0  0  0  0  0  0  0
  151.7510  145.2519  160.5860 Cl  0  0  0  0  0  0  0  0  0  0  0  0
  153.0663  142.8806  160.7452 C   0  0  0  0  0  0  0  0  0  0  0  0
  153.3830  141.5873  160.2915 C   0  0  0  0  0  0  0  0  0  0  0  0
  152.7781  141.0785  159.1254 C   0  0  0  0  0  0  0  0  0  0  0  0
  153.1828  139.4864  158.5908 Cl  0  0  0  0  0  0  0  0  0  0  0  0
  146.9862  141.9155  154.8140 C   0  0  0  0  0  0  0  0  0  0  0  0
  147.5200  141.9548  153.7037 O   0  0  0  0  0  0  0  0  0  0  0  0
  145.7580  142.6599  155.1363 C   0  0  0  0  0  0  0  0  0  0  0  0
  145.1597  143.5195  154.0298 C   0  0  0  0  0  0  0  0  0  0  0  0
  144.0995  144.3605  156.7403 H   0  0  0  0  0  0  0  0  0  0  0  0
  143.6851  143.0419  157.8336 H   0  0  0  0  0  0  0  0  0  0  0  0
  143.1194  143.0008  156.1649 H   0  0  0  0  0  0  0  0  0  0  0  0
  147.3910  140.4537  157.8215 H   0  0  0  0  0  0  0  0  0  0  0  0
  148.9567  139.8771  156.6012 H   0  0  0  0  0  0  0  0  0  0  0  0
  148.6070  139.5654  154.9435 H   0  0  0  0  0  0  0  0  0  0  0  0
  149.6658  141.9461  154.4576 H   0  0  0  0  0  0  0  0  0  0  0  0
  150.8789  139.5757  155.0911 H   0  0  0  0  0  0  0  0  0  0  0  0
  151.0382  142.9652  156.0511 H   0  0  0  0  0  0  0  0  0  0  0  0
  149.6426  142.4766  157.0101 H   0  0  0  0  0  0  0  0  0  0  0  0
  150.8318  143.7895  158.3446 H   0  0  0  0  0  0  0  0  0  0  0  0
  153.5319  143.2677  161.6396 H   0  0  0  0  0  0  0  0  0  0  0  0
  154.0917  140.9844  160.8400 H   0  0  0  0  0  0  0  0  0  0  0  0
  144.8928  142.8983  153.1744 H   0  0  0  0  0  0  0  0  0  0  0  0
  145.8850  144.2622  153.6961 H   0  0  0  0  0  0  0  0  0  0  0  0
  144.2629  144.0543  154.3381 H   0  0  0  0  0  0  0  0  0  0  0  0
  1  2  1  0  0  0  0
  1 23  1  0  0  0  0
  1 24  1  0  0  0  0
  1 25  1  0  0  0  0
  2 21  2  0  0  0  0
  2  3  1  0  0  0  0
  3  4  2  0  0  0  0
  4  5  1  0  0  0  0
  4 26  1  0  0  0  0
  5  6  1  0  0  0  0
  5 19  1  0  0  0  0
  6  7  1  0  0  0  0
  6 27  1  0  0  0  0
  6 28  1  0  0  0  0
  7  8  1  0  0  0  0
  7  9  1  0  0  0  0
  7 29  1  0  0  0  0
  8 30  1  0  0  0  0
  9 10  1  0  0  0  0
  9 31  1  0  0  0  0
  9 32  1  0  0  0  0
 10 11  1  0  0  0  0
 11 17  1  0  0  0  0
 11 12  2  0  0  0  0
 12 13  1  0  0  0  0
 12 33  1  0  0  0  0
 13 14  1  0  0  0  0
 13 15  2  0  0  0  0
 15 16  1  0  0  0  0
 15 34  1  0  0  0  0
 16 17  2  0  0  0  0
 16 35  1  0  0  0  0
 17 18  1  0  0  0  0
 19 20  2  0  0  0  0
 19 21  1  0  0  0  0
 21 22  1  0  0  0  0
 22 36  1  0  0  0  0
 22 37  1  0  0  0  0
 22 38  1  0  0  0  0
M  END
> <s_m_source_file>
AV-unprocessed.smi

> <i_m_source_file_index>
2213

> <i_lp_mmshare_version>
43012

> <i_f3d_flags>
0

> <s_epik_input>
W0NIM11jMW5bY0hdbihjKD1PKWMxW0NIM10pW0NIMl1bQ0BIXShbT0hdKVtDSDJdT2MyW2NIXWMoQ2wpW2NIXVtjSF1jMkNs

> <s_epik_cmdline>
J2VwaWtfcHl0aG9uJywgJy1waCcsICc3LjAnLCAnLXRuJywgJzgnLCAnLW1hJywgJzIwMCcsICctbWV0YWxfYmluZGluZycsICctaW1hZScsICc8aW5maWxlLm1hZT4nLCAnLW9tYWUnLCAnPG91dGZpbGUubWFlPic=

> <r_lp_tautomer_probability>
1

> <r_epik_Ionization_Penalty>
3.50205e-05

> <r_epik_Ionization_Penalty_Charging>
7.87908e-08

> <r_epik_Ionization_Penalty_Neutral>
3.49418e-05

> <r_epik_State_Penalty>
-0

> <r_epik_Charging_Adjusted_Penalty>
7.87908e-08

> <i_epik_Tot_Q>
0

> <i_epik_Tot_abs_Q>
0

> <r_epik_Metal_State_Penalty>
-0

> <b_epik_Metal_Only>
0

> <s_lp_Force_Field>
OPLS_2005

> <r_lp_Energy>
24.8727

> <b_lp_Chiralities_Consistent>
1

> <s_lp_Variant>
AV-unprocessed.smi:2213-1

> <Gold.Version>
5.8.1

> <Gold.Id.Protein>
6NUR|6NUR_protein|mol2

> <Gold.PLP.Fitness>
47.7810

> <Gold.PLP.PLP>
-45.0088

> <Gold.PLP.part.hbond>
-2.0000

> <Gold.PLP.part.metal>
0.0000

> <Gold.PLP.part.buried>
-4.8821

> <Gold.PLP.part.nonpolar>
-38.9839

> <Gold.PLP.part.repulsive>
0.2789

> <Gold.PLP.ligand.clash>
0.0000

> <Gold.PLP.ligand.torsion>
0.3118

> <Gold.PLP.Chemscore.Hbond>
1.1193

> <Gold.PLP.Chemscore.CHOScore>
0.0000

> <Gold.PLP.Chemscore.Metal>
0.0000

> <Gold.Chemscore.Hbonds>
donor molecule, donor type, donor heavy atom, donor atom, acceptor molecule, acceptor atom, score
      P1  H  7989  7998       L1     8  0.88

> <Gold.PLP.Chemscore.Internal.Correction>
0.0377

> <Gold.Rescore>
     Score         DG    S(hbond)    S(metal)    S(lipo)     H(rot)  DE(clash)    DE(int)     intcor
     14.55     -14.90       0.73        0.00     111.76       2.38       0.04       0.31       ----

> <Gold.Chemscore.Fitness>
14.5518

> <Gold.Chemscore.DG>
-14.9018

> <Gold.Chemscore.ZeroCoef>
-5.4800

> <Gold.Chemscore.Hbond>
0.7321

> <Gold.Chemscore.Metal>
0.0000

> <Gold.Chemscore.Lipo>
111.7610

> <Gold.Chemscore.Internal_Hbond>
0.0000

> <Gold.Chemscore.DEClash>
0.0368

> <Gold.Chemscore.DEInternal>
0.3132

> <Gold.Chemscore.Rot>
2.3826

> <Gold.Chemscore.Internal.Correction>
   9.000000E+99

> <Gold.Chemscore.Hbonds>
donor molecule, donor type, donor heavy atom, donor atom, acceptor molecule, acceptor atom, score
      P1  H  7989  7998       L1     8  0.79

> <Gold.Chemscore.Hbond.Weighted>
-2.4453

> <Gold.Chemscore.Metal.Weighted>
-0.0000

> <Gold.Chemscore.Lipo.Weighted>
-13.0760

> <Gold.Chemscore.Internal_Hbond.Weighted>
0.0000

> <Gold.Chemscore.DEClash.Weighted>
0.0368

> <Gold.Chemscore.DEInternal.Weighted>
0.3132

> <Gold.Chemscore.Rot.Weighted>
6.0996

> <Gold.Chemscore.Internal.Correction.Weighted>
   9.000000E+99

> <Gold.Protein.RotatedTorsions>
[ 6907 6896 6895 6894 ] final  103.02 input  -60.11 | X-H torsion
[ 7974 7965 7964 7962 ] final  127.07 input  175.53 | X-H torsion
[ 8008 7997 7996 7995 ] final  145.65 input   59.86 | X-H torsion
[ 10167 10162 10161 10158 ] final   60.10 input  -65.29 | X-H torsion
[ 10718 10713 10712 10709 ] final   48.45 input   66.30 | X-H torsion
[ 10763 10752 10751 10750 ] final -134.31 input  -60.55 | X-H torsion
[ 11005 11000 10999 10996 ] final   36.03 input  -57.11 | X-H torsion

> <Gold.Protein.ActiveResidues>
 VAL166  LYS551  ARG553  GLY616  TRP617  ASP618  TYR619  PRO620  LYS621  CYS622 
 ASP623  PHE694  ASN695  SER759  ASP760  ASP761  ALA762  ILE779  LEU786  VAL792 
 PHE793  MET794  SER795  GLU796  ALA797  LYS798  CYS799  TRP800  GLU811  SER814 

> <Gold.Protein.RotatedAtoms>
  152.5307  133.9889  159.7841 H   0  0  0  0  0  0  0  0  0  0  0  0  # atno 6907 bound_to 6896
  151.0128  133.5941  159.2687 H   0  0  0  0  0  0  0  0  0  0  0  0  # atno 6908 bound_to 6896
  151.3009  135.0775  159.9291 H   0  0  0  0  0  0  0  0  0  0  0  0  # atno 6909 bound_to 6896
  145.0546  139.3854  143.5036 H   0  0  0  0  0  0  0  0  0  0  0  0  # atno 7974 bound_to 7965
  156.2877  140.2203  156.5250 H   0  0  0  0  0  0  0  0  0  0  0  0  # atno 8008 bound_to 7997
  154.7497  140.0481  157.0904 H   0  0  0  0  0  0  0  0  0  0  0  0  # atno 8009 bound_to 7997
  155.0126  140.3114  155.4827 H   0  0  0  0  0  0  0  0  0  0  0  0  # atno 8010 bound_to 7997
  140.1693  144.4293  150.6669 H   0  0  0  0  0  0  0  0  0  0  0  0  # atno 10167 bound_to 10162
  157.4688  130.8242  149.7965 H   0  0  0  0  0  0  0  0  0  0  0  0  # atno 10718 bound_to 10713
  154.8721  135.3738  154.4715 H   0  0  0  0  0  0  0  0  0  0  0  0  # atno 10763 bound_to 10752
  153.5375  135.7027  153.5657 H   0  0  0  0  0  0  0  0  0  0  0  0  # atno 10764 bound_to 10752
  153.3834  135.3991  155.1837 H   0  0  0  0  0  0  0  0  0  0  0  0  # atno 10765 bound_to 10752
  140.2367  134.3463  155.7942 H   0  0  0  0  0  0  0  0  0  0  0  0  # atno 11005 bound_to 11000
  146.3520  140.0214  142.8658 LP  0  0  0  0  0  0  0  0  0  0  0  0  # atno 17320 bound_to 7965
  145.1484  140.9609  143.4447 LP  0  0  0  0  0  0  0  0  0  0  0  0  # atno 17321 bound_to 7965
  140.6593  143.2247  151.5895 LP  0  0  0  0  0  0  0  0  0  0  0  0  # atno 17342 bound_to 10162
  139.5345  144.2819  152.1222 LP  0  0  0  0  0  0  0  0  0  0  0  0  # atno 17343 bound_to 10162
  156.0063  130.3854  150.2420 LP  0  0  0  0  0  0  0  0  0  0  0  0  # atno 17370 bound_to 10713
  157.0601  131.0087  151.3225 LP  0  0  0  0  0  0  0  0  0  0  0  0  # atno 17371 bound_to 10713
  141.2214  133.7276  156.8819 LP  0  0  0  0  0  0  0  0  0  0  0  0  # atno 17394 bound_to 11000
  140.1695  134.9110  157.2815 LP  0  0  0  0  0  0  0  0  0  0  0  0  # atno 17395 bound_to 11000

$$$$
