AV-unprocessed.smi:2514|AV-procd|sdf|9893|dock4
  -GOLD-   2272013533D 1   1.00000     0.00000
 Structure written by MMmdl.
 25 26  0  0  0  0  0  0  0  0  2 V2000
  152.8949  138.5794  155.2363 C   0  0  0  0  0  0  0  0  0  0  0  0
  151.6202  137.9033  154.7172 C   0  0  2  0  0  0  0  0  0  0  0  0
  151.8832  137.3023  153.4650 O   0  0  0  0  0  0  0  0  0  0  0  0
  150.4936  138.8793  154.5175 C   0  0  0  0  0  0  0  0  0  0  0  0
  149.2179  138.6765  154.0662 C   0  0  0  0  0  0  0  0  0  0  0  0
  148.6717  139.9421  154.0700 N   0  0  0  0  0  0  0  0  0  0  0  0
  147.3242  140.3145  153.7581 C   0  0  0  0  0  0  0  0  0  0  0  0
  146.8577  141.7597  153.9206 C   0  0  0  0  0  0  0  0  0  0  0  0
  145.5477  141.2331  154.2830 N   0  3  0  0  0  0  0  0  0  0  0  0
  146.1656  139.9801  154.6981 C   0  0  0  0  0  0  0  0  0  0  0  0
  149.5465  140.8616  154.5396 N   0  0  0  0  0  0  0  0  0  0  0  0
  150.6553  140.2388  154.7874 N   0  0  0  0  0  0  0  0  0  0  0  0
  152.7203  139.0524  156.2030 H   0  0  0  0  0  0  0  0  0  0  0  0
  153.2448  139.3492  154.5477 H   0  0  0  0  0  0  0  0  0  0  0  0
  153.6991  137.8541  155.3637 H   0  0  0  0  0  0  0  0  0  0  0  0
  151.3203  137.1171  155.4112 H   0  0  0  0  0  0  0  0  0  0  0  0
  151.0659  136.9931  153.1050 H   0  0  0  0  0  0  0  0  0  0  0  0
  148.6854  137.7891  153.7569 H   0  0  0  0  0  0  0  0  0  0  0  0
  147.1266  139.9502  152.7474 H   0  0  0  0  0  0  0  0  0  0  0  0
  147.3356  142.2824  154.7515 H   0  0  0  0  0  0  0  0  0  0  0  0
  146.8618  142.3510  153.0044 H   0  0  0  0  0  0  0  0  0  0  0  0
  145.0940  141.7367  155.0320 H   0  0  0  0  0  0  0  0  0  0  0  0
  145.5945  139.0914  154.4282 H   0  0  0  0  0  0  0  0  0  0  0  0
  146.4397  139.9888  155.7551 H   0  0  0  0  0  0  0  0  0  0  0  0
  144.9627  141.1055  153.4694 H   0  0  0  0  0  0  0  0  0  0  0  0
  1  2  1  0  0  0  0
  1 13  1  0  0  0  0
  1 14  1  0  0  0  0
  1 15  1  0  0  0  0
  2  3  1  0  0  0  0
  2  4  1  0  0  0  0
  2 16  1  0  0  0  0
  3 17  1  0  0  0  0
  4 12  1  0  0  0  0
  4  5  2  0  0  0  0
  5  6  1  0  0  0  0
  5 18  1  0  0  0  0
  6  7  1  0  0  0  0
  6 11  1  0  0  0  0
  7 10  1  0  0  0  0
  7  8  1  0  0  0  0
  7 19  1  0  0  0  0
  8  9  1  0  0  0  0
  8 20  1  0  0  0  0
  8 21  1  0  0  0  0
  9 10  1  0  0  0  0
  9 22  1  0  0  0  0
  9 25  1  0  0  0  0
 10 23  1  0  0  0  0
 10 24  1  0  0  0  0
 11 12  2  0  0  0  0
M  CHG  1   9   1
M  END
> <s_m_source_file>
AV-unprocessed.smi

> <i_m_source_file_index>
2514

> <i_lp_mmshare_version>
43012

> <i_f3d_flags>
0

> <s_epik_input>
W0NIM11bQ0BIXShbT0hdKWMxW2NIXW4obm4xKVtDSF0yW0NIMl1bTkhdW0NIMl0y

> <s_epik_cmdline>
J2VwaWtfcHl0aG9uJywgJy1waCcsICc3LjAnLCAnLXRuJywgJzgnLCAnLW1hJywgJzIwMCcsICctbWV0YWxfYmluZGluZycsICctaW1hZScsICc8aW5maWxlLm1hZT4nLCAnLW9tYWUnLCAnPG91dGZpbGUubWFlPic=

> <r_lp_tautomer_probability>
1

> <r_epik_Ionization_Penalty>
0.215039

> <r_epik_Ionization_Penalty_Charging>
0.215038

> <r_epik_Ionization_Penalty_Neutral>
9.39085e-07

> <r_epik_State_Penalty>
0.20523

> <r_epik_Charging_Adjusted_Penalty>
0.420268

> <i_epik_Tot_Q>
1

> <i_epik_Tot_abs_Q>
1

> <r_epik_Metal_State_Penalty>
0.205259

> <b_epik_Metal_Only>
0

> <s_lp_Force_Field>
OPLS_2005

> <r_lp_Energy>
12.5086

> <b_lp_Chiralities_Consistent>
1

> <s_lp_Variant>
AV-unprocessed.smi:2514-1

> <Gold.Version>
5.8.1

> <Gold.Id.Protein>
6NUR|6NUR_protein|mol2

> <Gold.PLP.Fitness>
39.0453

> <Gold.PLP.PLP>
-23.5071

> <Gold.PLP.part.hbond>
-4.7702

> <Gold.PLP.part.metal>
0.0000

> <Gold.PLP.part.buried>
-1.8825

> <Gold.PLP.part.nonpolar>
-18.0307

> <Gold.PLP.part.repulsive>
0.2083

> <Gold.PLP.ligand.clash>
0.0000

> <Gold.PLP.ligand.torsion>
0.1863

> <Gold.PLP.Chemscore.Hbond>
4.2560

> <Gold.PLP.Chemscore.CHOScore>
0.9550

> <Gold.PLP.Chemscore.Metal>
0.0000

> <Gold.Chemscore.Hbonds>
donor molecule, donor type, donor heavy atom, donor atom, acceptor molecule, acceptor atom, score
      L1  H     3    17       P1  7949  0.34
      L1  H     9    25       P1 10175  2.00
      P1  H  7989  7998       L1    12  0.95
      P1  H 10752 10763       L1     3  0.99
      L1  C     5    18       P1  7948  1.00

> <Gold.PLP.Chemscore.Internal.Correction>
0.2777

> <Gold.Rescore>
     Score         DG    S(hbond)    S(metal)    S(lipo)     H(rot)  DE(clash)    DE(int)     intcor
     12.62     -12.77       2.18        0.00      40.14       1.83       0.00       0.15       ----

> <Gold.Chemscore.Fitness>
12.6217

> <Gold.Chemscore.DG>
-12.7734

> <Gold.Chemscore.ZeroCoef>
-5.4800

> <Gold.Chemscore.Hbond>
2.1813

> <Gold.Chemscore.Metal>
0.0000

> <Gold.Chemscore.Lipo>
40.1352

> <Gold.Chemscore.Internal_Hbond>
0.0000

> <Gold.Chemscore.DEClash>
0.0000

> <Gold.Chemscore.DEInternal>
0.1517

> <Gold.Chemscore.Rot>
1.8312

> <Gold.Chemscore.Internal.Correction>
   9.000000E+99

> <Gold.Chemscore.Hbonds>
donor molecule, donor type, donor heavy atom, donor atom, acceptor molecule, acceptor atom, score
      L1  H     3    17       P1  7949  0.12
      L1  H     9    25       P1 10175  0.45
      P1  H  7989  7998       L1    12  0.12
      P1  H 10752 10763       L1     3  0.24

> <Gold.Chemscore.Hbond.Weighted>
-7.2855

> <Gold.Chemscore.Metal.Weighted>
-0.0000

> <Gold.Chemscore.Lipo.Weighted>
-4.6958

> <Gold.Chemscore.Internal_Hbond.Weighted>
0.0000

> <Gold.Chemscore.DEClash.Weighted>
0.0000

> <Gold.Chemscore.DEInternal.Weighted>
0.1517

> <Gold.Chemscore.Rot.Weighted>
4.6879

> <Gold.Chemscore.Internal.Correction.Weighted>
   9.000000E+99

> <Gold.Protein.RotatedTorsions>
[ 6907 6896 6895 6894 ] final  -20.80 input  -60.11 | X-H torsion
[ 7974 7965 7964 7962 ] final -127.39 input  175.53 | X-H torsion
[ 8008 7997 7996 7995 ] final  -93.56 input   59.86 | X-H torsion
[ 10167 10162 10161 10158 ] final -175.93 input  -65.29 | X-H torsion
[ 10718 10713 10712 10709 ] final  -43.74 input   66.30 | X-H torsion
[ 10763 10752 10751 10750 ] final   24.15 input  -60.55 | X-H torsion
[ 11005 11000 10999 10996 ] final   -1.23 input  -57.11 | X-H torsion

> <Gold.Protein.ActiveResidues>
 VAL166  LYS551  ARG553  GLY616  TRP617  ASP618  TYR619  PRO620  LYS621  CYS622 
 ASP623  PHE694  ASN695  SER759  ASP760  ASP761  ALA762  ILE779  LEU786  VAL792 
 PHE793  MET794  SER795  GLU796  ALA797  LYS798  CYS799  TRP800  GLU811  SER814 

> <Gold.Protein.RotatedAtoms>
  151.2428  135.0595  159.9031 H   0  0  0  0  0  0  0  0  0  0  0  0  # atno 6907 bound_to 6896
  152.5391  134.0415  159.8080 H   0  0  0  0  0  0  0  0  0  0  0  0  # atno 6908 bound_to 6896
  151.0612  133.5494  159.2665 H   0  0  0  0  0  0  0  0  0  0  0  0  # atno 6909 bound_to 6896
  144.9776  140.7608  143.4632 H   0  0  0  0  0  0  0  0  0  0  0  0  # atno 7974 bound_to 7965
  154.7373  140.0497  157.0779 H   0  0  0  0  0  0  0  0  0  0  0  0  # atno 8008 bound_to 7997
  155.0224  140.3148  155.4769 H   0  0  0  0  0  0  0  0  0  0  0  0  # atno 8009 bound_to 7997
  156.2856  140.2164  156.5343 H   0  0  0  0  0  0  0  0  0  0  0  0  # atno 8010 bound_to 7997
  139.5555  144.1999  152.1152 H   0  0  0  0  0  0  0  0  0  0  0  0  # atno 10167 bound_to 10162
  156.2458  130.4184  149.8706 H   0  0  0  0  0  0  0  0  0  0  0  0  # atno 10718 bound_to 10713
  153.0785  135.6611  154.0095 H   0  0  0  0  0  0  0  0  0  0  0  0  # atno 10763 bound_to 10752
  153.9723  135.2963  155.3428 H   0  0  0  0  0  0  0  0  0  0  0  0  # atno 10764 bound_to 10752
  154.7179  135.5177  153.8837 H   0  0  0  0  0  0  0  0  0  0  0  0  # atno 10765 bound_to 10752
  140.6450  133.9455  155.8347 H   0  0  0  0  0  0  0  0  0  0  0  0  # atno 11005 bound_to 11000
  145.2468  139.2049  143.4963 LP  0  0  0  0  0  0  0  0  0  0  0  0  # atno 17320 bound_to 7965
  146.3399  140.2373  142.8595 LP  0  0  0  0  0  0  0  0  0  0  0  0  # atno 17321 bound_to 7965
  140.1503  144.5121  150.6691 LP  0  0  0  0  0  0  0  0  0  0  0  0  # atno 17342 bound_to 10162
  140.6827  143.2334  151.5341 LP  0  0  0  0  0  0  0  0  0  0  0  0  # atno 17343 bound_to 10162
  156.6272  130.8651  151.3488 LP  0  0  0  0  0  0  0  0  0  0  0  0  # atno 17370 bound_to 10713
  157.7194  130.9539  150.1381 LP  0  0  0  0  0  0  0  0  0  0  0  0  # atno 17371 bound_to 10713
  141.0579  134.0390  157.3698 LP  0  0  0  0  0  0  0  0  0  0  0  0  # atno 17394 bound_to 11000
  139.9066  135.0181  156.7512 LP  0  0  0  0  0  0  0  0  0  0  0  0  # atno 17395 bound_to 11000

$$$$
