AV-unprocessed.smi:554|AV-procd|sdf|2909|dock1
  -GOLD-   2262023403D 1   1.00000     0.00000
 Structure written by MMmdl.
 27 28  0  0  0  0  0  0  0  0  1 V2000
  146.1251  142.8908  153.6580 C   0  0  0  0  0  0  0  0  0  0  0  0
  146.9697  141.8441  154.3513 C   0  0  1  0  0  0  0  0  0  0  0  0
  147.1463  140.4702  153.7490 C   0  0  0  0  0  0  0  0  0  0  0  0
  148.3097  141.4337  153.7803 C   0  0  2  0  0  0  0  0  0  0  0  0
  149.4988  141.1677  154.6834 C   0  0  0  0  0  0  0  0  0  0  0  0
  149.7731  142.2142  155.6595 N   0  0  0  0  0  0  0  0  0  0  0  0
  150.5091  142.0547  156.7687 C   0  0  0  0  0  0  0  0  0  0  0  0
  151.0498  140.9925  157.0783 O   0  0  0  0  0  0  0  0  0  0  0  0
  150.5702  143.1942  157.4799 N   0  0  0  0  0  0  0  0  0  0  0  0
  151.2455  143.4292  158.7064 C   0  0  0  0  0  0  0  0  0  0  0  0
  151.9669  142.5108  159.3598 N   0  0  0  0  0  0  0  0  0  0  0  0
  152.5183  143.0188  160.5388 C   0  0  0  0  0  0  0  0  0  0  0  0
  152.2045  144.3352  160.7691 C   0  0  0  0  0  0  0  0  0  0  0  0
  151.1985  144.9933  159.5064 S   0  0  0  0  0  0  0  0  0  0  0  0
  146.2213  142.8118  152.5746 H   0  0  0  0  0  0  0  0  0  0  0  0
  146.4430  143.8877  153.9633 H   0  0  0  0  0  0  0  0  0  0  0  0
  145.0761  142.7620  153.9247 H   0  0  0  0  0  0  0  0  0  0  0  0
  146.9000  141.8800  155.4368 H   0  0  0  0  0  0  0  0  0  0  0  0
  147.1691  139.6240  154.4326 H   0  0  0  0  0  0  0  0  0  0  0  0
  146.6835  140.2756  152.7836 H   0  0  0  0  0  0  0  0  0  0  0  0
  148.5814  141.8627  152.8173 H   0  0  0  0  0  0  0  0  0  0  0  0
  149.3698  140.2100  155.1903 H   0  0  0  0  0  0  0  0  0  0  0  0
  150.3841  141.0633  154.0559 H   0  0  0  0  0  0  0  0  0  0  0  0
  149.3674  143.1212  155.4811 H   0  0  0  0  0  0  0  0  0  0  0  0
  150.0726  143.9867  157.1013 H   0  0  0  0  0  0  0  0  0  0  0  0
  153.1239  142.3720  161.1563 H   0  0  0  0  0  0  0  0  0  0  0  0
  152.5035  144.9548  161.6014 H   0  0  0  0  0  0  0  0  0  0  0  0
  1  2  1  0  0  0  0
  1 15  1  0  0  0  0
  1 16  1  0  0  0  0
  1 17  1  0  0  0  0
  2  4  1  0  0  0  0
  2  3  1  0  0  0  0
  2 18  1  0  0  0  0
  3  4  1  0  0  0  0
  3 19  1  0  0  0  0
  3 20  1  0  0  0  0
  4  5  1  0  0  0  0
  4 21  1  0  0  0  0
  5  6  1  0  0  0  0
  5 22  1  0  0  0  0
  5 23  1  0  0  0  0
  6  7  1  0  0  0  0
  6 24  1  0  0  0  0
  7  8  2  0  0  0  0
  7  9  1  0  0  0  0
  9 10  1  0  0  0  0
  9 25  1  0  0  0  0
 10 14  1  0  0  0  0
 10 11  2  0  0  0  0
 11 12  1  0  0  0  0
 12 13  2  0  0  0  0
 12 26  1  0  0  0  0
 13 14  1  0  0  0  0
 13 27  1  0  0  0  0
M  END
> <s_m_source_file>
AV-unprocessed.smi

> <i_m_source_file_index>
554

> <i_lp_mmshare_version>
43012

> <i_f3d_flags>
0

> <s_epik_input>
W0NIM11bQ0BASF0xW0NIMl1bQ0BIXTFbQ0gyXVtOSF1DKD1PKVtOSF1jMm5bY0hdW2NIXXMy

> <s_epik_cmdline>
J2VwaWtfcHl0aG9uJywgJy1waCcsICc3LjAnLCAnLXRuJywgJzgnLCAnLW1hJywgJzIwMCcsICctbWV0YWxfYmluZGluZycsICctaW1hZScsICc8aW5maWxlLm1hZT4nLCAnLW9tYWUnLCAnPG91dGZpbGUubWFlPic=

> <r_lp_tautomer_probability>
0.999

> <r_epik_Ionization_Penalty>
0.00042678

> <r_epik_Ionization_Penalty_Charging>
0

> <r_epik_Ionization_Penalty_Neutral>
0.00042678

> <r_epik_State_Penalty>
0.000177984

> <r_epik_Charging_Adjusted_Penalty>
0.000177984

> <i_epik_Tot_Q>
0

> <i_epik_Tot_abs_Q>
0

> <r_epik_Metal_State_Penalty>
-0

> <b_epik_Metal_Only>
0

> <s_lp_Force_Field>
OPLS_2005

> <r_lp_Energy>
12.8371

> <b_lp_Chiralities_Consistent>
1

> <s_lp_Variant>
AV-unprocessed.smi:554-4

> <Gold.Version>
5.8.1

> <Gold.Id.Protein>
6NUR|6NUR_protein|mol2

> <Gold.PLP.Fitness>
40.0117

> <Gold.PLP.PLP>
-34.5579

> <Gold.PLP.part.hbond>
-2.0000

> <Gold.PLP.part.metal>
0.0000

> <Gold.PLP.part.buried>
-4.2969

> <Gold.PLP.part.nonpolar>
-27.4133

> <Gold.PLP.part.repulsive>
0.1910

> <Gold.PLP.ligand.clash>
0.0000

> <Gold.PLP.ligand.torsion>
0.5320

> <Gold.PLP.Chemscore.Hbond>
1.9920

> <Gold.PLP.Chemscore.CHOScore>
0.0000

> <Gold.PLP.Chemscore.Metal>
0.0000

> <Gold.Chemscore.Hbonds>
donor molecule, donor type, donor heavy atom, donor atom, acceptor molecule, acceptor atom, score
      L1  H     6    24       P1  8028  1.00
      L1  H     9    25       P1  8028  0.99

> <Gold.PLP.Chemscore.Internal.Correction>
0.5418

> <Gold.Rescore>
     Score         DG    S(hbond)    S(metal)    S(lipo)     H(rot)  DE(clash)    DE(int)     intcor
     15.40     -17.21       1.95        0.00      72.67       1.28       0.03       1.79       ----

> <Gold.Chemscore.Fitness>
15.4018

> <Gold.Chemscore.DG>
-17.2146

> <Gold.Chemscore.ZeroCoef>
-5.4800

> <Gold.Chemscore.Hbond>
1.9478

> <Gold.Chemscore.Metal>
0.0000

> <Gold.Chemscore.Lipo>
72.6727

> <Gold.Chemscore.Internal_Hbond>
0.0000

> <Gold.Chemscore.DEClash>
0.0260

> <Gold.Chemscore.DEInternal>
1.7869

> <Gold.Chemscore.Rot>
1.2788

> <Gold.Chemscore.Internal.Correction>
   9.000000E+99

> <Gold.Chemscore.Hbonds>
donor molecule, donor type, donor heavy atom, donor atom, acceptor molecule, acceptor atom, score
      L1  H     6    24       P1  8028  1.00
      L1  H     9    25       P1  8028  0.82

> <Gold.Chemscore.Hbond.Weighted>
-6.5057

> <Gold.Chemscore.Metal.Weighted>
-0.0000

> <Gold.Chemscore.Lipo.Weighted>
-8.5027

> <Gold.Chemscore.Internal_Hbond.Weighted>
0.0000

> <Gold.Chemscore.DEClash.Weighted>
0.0260

> <Gold.Chemscore.DEInternal.Weighted>
1.7869

> <Gold.Chemscore.Rot.Weighted>
3.2738

> <Gold.Chemscore.Internal.Correction.Weighted>
   9.000000E+99

> <Gold.Protein.RotatedTorsions>
[ 6907 6896 6895 6894 ] final  113.43 input  -60.11 | X-H torsion
[ 7974 7965 7964 7962 ] final   82.21 input  175.53 | X-H torsion
[ 8008 7997 7996 7995 ] final   72.60 input   59.86 | X-H torsion
[ 10167 10162 10161 10158 ] final  -42.24 input  -65.29 | X-H torsion
[ 10718 10713 10712 10709 ] final -152.28 input   66.30 | X-H torsion
[ 10763 10752 10751 10750 ] final  129.52 input  -60.55 | X-H torsion
[ 11005 11000 10999 10996 ] final  132.09 input  -57.11 | X-H torsion

> <Gold.Protein.ActiveResidues>
 VAL166  LYS551  ARG553  GLY616  TRP617  ASP618  TYR619  PRO620  LYS621  CYS622 
 ASP623  PHE694  ASN695  SER759  ASP760  ASP761  ALA762  ILE779  LEU786  VAL792 
 PHE793  MET794  SER795  GLU796  ALA797  LYS798  CYS799  TRP800  GLU811  SER814 

> <Gold.Protein.RotatedAtoms>
  152.4861  133.8377  159.7136 H   0  0  0  0  0  0  0  0  0  0  0  0  # atno 6907 bound_to 6896
  150.8949  133.7184  159.2901 H   0  0  0  0  0  0  0  0  0  0  0  0  # atno 6908 bound_to 6896
  151.4645  135.1045  159.9786 H   0  0  0  0  0  0  0  0  0  0  0  0  # atno 6909 bound_to 6896
  145.6280  139.2399  143.2101 H   0  0  0  0  0  0  0  0  0  0  0  0  # atno 7974 bound_to 7965
  155.7712  140.3484  155.5248 H   0  0  0  0  0  0  0  0  0  0  0  0  # atno 8008 bound_to 7997
  155.8820  140.1003  157.1500 H   0  0  0  0  0  0  0  0  0  0  0  0  # atno 8009 bound_to 7997
  154.4025  140.1320  156.4195 H   0  0  0  0  0  0  0  0  0  0  0  0  # atno 8010 bound_to 7997
  140.6976  143.3048  151.3181 H   0  0  0  0  0  0  0  0  0  0  0  0  # atno 10167 bound_to 10162
  156.4704  130.8256  151.2485 H   0  0  0  0  0  0  0  0  0  0  0  0  # atno 10718 bound_to 10713
  153.7431  135.3221  155.3308 H   0  0  0  0  0  0  0  0  0  0  0  0  # atno 10763 bound_to 10752
  154.8288  135.4549  154.1006 H   0  0  0  0  0  0  0  0  0  0  0  0  # atno 10764 bound_to 10752
  153.2187  135.6945  153.8108 H   0  0  0  0  0  0  0  0  0  0  0  0  # atno 10765 bound_to 10752
  139.9769  134.9560  156.9531 H   0  0  0  0  0  0  0  0  0  0  0  0  # atno 11005 bound_to 11000
  146.1379  140.7098  142.9381 LP  0  0  0  0  0  0  0  0  0  0  0  0  # atno 17320 bound_to 7965
  144.7205  140.4355  143.7012 LP  0  0  0  0  0  0  0  0  0  0  0  0  # atno 17321 bound_to 7965
  139.6450  144.0468  152.2584 LP  0  0  0  0  0  0  0  0  0  0  0  0  # atno 17342 bound_to 10162
  139.9985  144.6310  150.7750 LP  0  0  0  0  0  0  0  0  0  0  0  0  # atno 17343 bound_to 10162
  157.7491  131.0078  150.3204 LP  0  0  0  0  0  0  0  0  0  0  0  0  # atno 17370 bound_to 10713
  156.3624  130.3849  149.7241 LP  0  0  0  0  0  0  0  0  0  0  0  0  # atno 17371 bound_to 10713
  140.5176  134.0939  155.7284 LP  0  0  0  0  0  0  0  0  0  0  0  0  # atno 17394 bound_to 11000
  141.1445  133.9079  157.2248 LP  0  0  0  0  0  0  0  0  0  0  0  0  # atno 17395 bound_to 11000

$$$$
