AV-unprocessed.smi:1938|AV-procd|sdf|7835|dock3
  -GOLD-   22720 9583D 1   1.00000     0.00000
 Structure written by MMmdl.
 35 36  0  0  0  0  0  0  0  0  1 V2000
  151.6310  138.2644  154.4241 C   0  0  0  0  0  0  0  0  0  0  0  0
  150.2943  138.2703  153.9343 O   0  0  0  0  0  0  0  0  0  0  0  0
  149.5570  139.4347  154.0403 C   0  0  0  0  0  0  0  0  0  0  0  0
  150.1258  140.5022  154.6548 N   0  0  0  0  0  0  0  0  0  0  0  0
  149.4077  141.6380  154.7652 C   0  0  0  0  0  0  0  0  0  0  0  0
  148.0949  141.7686  154.2780 C   0  0  0  0  0  0  0  0  0  0  0  0
  147.5021  140.6628  153.6408 C   0  0  0  0  0  0  0  0  0  0  0  0
  148.2465  139.4646  153.5070 C   0  0  0  0  0  0  0  0  0  0  0  0
  147.7543  138.2774  152.8939 N   0  0  0  0  0  0  0  0  0  0  0  0
  146.4869  137.8867  152.6755 C   0  0  0  0  0  0  0  0  0  0  0  0
  145.4780  138.5276  152.9671 O   0  0  0  0  0  0  0  0  0  0  0  0
  146.4527  136.6861  152.0803 N   0  0  0  0  0  0  0  0  0  0  0  0
  145.2441  135.9550  151.7134 C   0  0  0  0  0  0  0  0  0  0  0  0
  145.5718  134.6710  150.9323 C   0  0  1  0  0  0  0  0  0  0  0  0
  146.1882  133.5449  151.7625 C   0  0  0  0  0  0  0  0  0  0  0  0
  145.8391  132.3319  150.9315 C   0  0  0  0  0  0  0  0  0  0  0  0
  144.4415  132.6850  150.4290 C   0  0  0  0  0  0  0  0  0  0  0  0
  144.3816  134.1093  150.3870 O   0  0  0  0  0  0  0  0  0  0  0  0
  152.0647  137.2760  154.2736 H   0  0  0  0  0  0  0  0  0  0  0  0
  151.6651  138.4810  155.4928 H   0  0  0  0  0  0  0  0  0  0  0  0
  152.2550  138.9839  153.8919 H   0  0  0  0  0  0  0  0  0  0  0  0
  149.8929  142.4658  155.2608 H   0  0  0  0  0  0  0  0  0  0  0  0
  147.5531  142.6955  154.3934 H   0  0  0  0  0  0  0  0  0  0  0  0
  146.4904  140.7616  153.2822 H   0  0  0  0  0  0  0  0  0  0  0  0
  148.4688  137.6535  152.5483 H   0  0  0  0  0  0  0  0  0  0  0  0
  147.3321  136.2358  151.8725 H   0  0  0  0  0  0  0  0  0  0  0  0
  144.6385  135.7248  152.5916 H   0  0  0  0  0  0  0  0  0  0  0  0
  144.6373  136.6121  151.0904 H   0  0  0  0  0  0  0  0  0  0  0  0
  146.2339  134.9029  150.0962 H   0  0  0  0  0  0  0  0  0  0  0  0
  147.2611  133.6649  151.9148 H   0  0  0  0  0  0  0  0  0  0  0  0
  145.7076  133.4782  152.7397 H   0  0  0  0  0  0  0  0  0  0  0  0
  146.5297  132.2439  150.0915 H   0  0  0  0  0  0  0  0  0  0  0  0
  145.8665  131.4002  151.4971 H   0  0  0  0  0  0  0  0  0  0  0  0
  144.2330  132.2498  149.4515 H   0  0  0  0  0  0  0  0  0  0  0  0
  143.6828  132.3288  151.1267 H   0  0  0  0  0  0  0  0  0  0  0  0
  1  2  1  0  0  0  0
  1 19  1  0  0  0  0
  1 20  1  0  0  0  0
  1 21  1  0  0  0  0
  2  3  1  0  0  0  0
  3  8  1  0  0  0  0
  3  4  2  0  0  0  0
  4  5  1  0  0  0  0
  5  6  2  0  0  0  0
  5 22  1  0  0  0  0
  6  7  1  0  0  0  0
  6 23  1  0  0  0  0
  7  8  2  0  0  0  0
  7 24  1  0  0  0  0
  8  9  1  0  0  0  0
  9 10  1  0  0  0  0
  9 25  1  0  0  0  0
 10 11  2  0  0  0  0
 10 12  1  0  0  0  0
 12 13  1  0  0  0  0
 12 26  1  0  0  0  0
 13 14  1  0  0  0  0
 13 27  1  0  0  0  0
 13 28  1  0  0  0  0
 14 18  1  0  0  0  0
 14 15  1  0  0  0  0
 14 29  1  0  0  0  0
 15 16  1  0  0  0  0
 15 30  1  0  0  0  0
 15 31  1  0  0  0  0
 16 17  1  0  0  0  0
 16 32  1  0  0  0  0
 16 33  1  0  0  0  0
 17 18  1  0  0  0  0
 17 34  1  0  0  0  0
 17 35  1  0  0  0  0
M  END
> <s_m_source_file>
AV-unprocessed.smi

> <i_m_source_file_index>
1938

> <i_lp_mmshare_version>
43012

> <i_f3d_flags>
0

> <s_epik_input>
W0NIM11PYzFuW2NIXVtjSF1bY0hdYzFbTkhdQyg9TylbTkhdW0NIMl1bQ0BASF0yW0NIMl1bQ0gyXVtDSDJdTzI=

> <s_epik_cmdline>
J2VwaWtfcHl0aG9uJywgJy1waCcsICc3LjAnLCAnLXRuJywgJzgnLCAnLW1hJywgJzIwMCcsICctbWV0YWxfYmluZGluZycsICctaW1hZScsICc8aW5maWxlLm1hZT4nLCAnLW9tYWUnLCAnPG91dGZpbGUubWFlPic=

> <r_lp_tautomer_probability>
1

> <r_epik_Ionization_Penalty>
9.01657e-05

> <r_epik_Ionization_Penalty_Charging>
0

> <r_epik_Ionization_Penalty_Neutral>
9.01657e-05

> <r_epik_State_Penalty>
-0

> <r_epik_Charging_Adjusted_Penalty>
0

> <i_epik_Tot_Q>
0

> <i_epik_Tot_abs_Q>
0

> <r_epik_Metal_State_Penalty>
-0

> <b_epik_Metal_Only>
0

> <s_lp_Force_Field>
OPLS_2005

> <r_lp_Energy>
20.0509

> <b_lp_Chiralities_Consistent>
1

> <s_lp_Variant>
AV-unprocessed.smi:1938-2

> <Gold.Version>
5.8.1

> <Gold.Id.Protein>
6NUR|6NUR_protein|mol2

> <Gold.PLP.Fitness>
41.4989

> <Gold.PLP.PLP>
-30.2978

> <Gold.PLP.part.hbond>
-3.8813

> <Gold.PLP.part.metal>
0.0000

> <Gold.PLP.part.buried>
-0.6666

> <Gold.PLP.part.nonpolar>
-30.1714

> <Gold.PLP.part.repulsive>
3.7363

> <Gold.PLP.ligand.clash>
0.0000

> <Gold.PLP.ligand.torsion>
0.1816

> <Gold.PLP.Chemscore.Hbond>
2.9440

> <Gold.PLP.Chemscore.CHOScore>
0.9045

> <Gold.PLP.Chemscore.Metal>
0.0000

> <Gold.Chemscore.Hbonds>
donor molecule, donor type, donor heavy atom, donor atom, acceptor molecule, acceptor atom, score
      L1  H     9    25       P1  7948  1.00
      L1  H    12    26       P1  7948  1.00
      P1  H  7989  7998       L1     4  0.93
      L1  C     5    22       P1  8028  0.91

> <Gold.PLP.Chemscore.Internal.Correction>
0.0188

> <Gold.Rescore>
     Score         DG    S(hbond)    S(metal)    S(lipo)     H(rot)  DE(clash)    DE(int)     intcor
     14.66     -15.83       2.09        0.00      61.64       1.50       0.02       1.15       ----

> <Gold.Chemscore.Fitness>
14.6606

> <Gold.Chemscore.DG>
-15.8350

> <Gold.Chemscore.ZeroCoef>
-5.4800

> <Gold.Chemscore.Hbond>
2.0884

> <Gold.Chemscore.Metal>
0.0000

> <Gold.Chemscore.Lipo>
61.6442

> <Gold.Chemscore.Internal_Hbond>
0.0000

> <Gold.Chemscore.DEClash>
0.0243

> <Gold.Chemscore.DEInternal>
1.1501

> <Gold.Chemscore.Rot>
1.4971

> <Gold.Chemscore.Internal.Correction>
   9.000000E+99

> <Gold.Chemscore.Hbonds>
donor molecule, donor type, donor heavy atom, donor atom, acceptor molecule, acceptor atom, score
      L1  H     9    25       P1  7948  0.96
      L1  H    12    26       P1  7948  0.95
      P1  H  7989  7998       L1     4  0.19

> <Gold.Chemscore.Hbond.Weighted>
-6.9752

> <Gold.Chemscore.Metal.Weighted>
-0.0000

> <Gold.Chemscore.Lipo.Weighted>
-7.2124

> <Gold.Chemscore.Internal_Hbond.Weighted>
0.0000

> <Gold.Chemscore.DEClash.Weighted>
0.0243

> <Gold.Chemscore.DEInternal.Weighted>
1.1501

> <Gold.Chemscore.Rot.Weighted>
3.8326

> <Gold.Chemscore.Internal.Correction.Weighted>
   9.000000E+99

> <Gold.Protein.RotatedTorsions>
[ 6907 6896 6895 6894 ] final -101.96 input  -60.11 | X-H torsion
[ 7974 7965 7964 7962 ] final  101.11 input  175.53 | X-H torsion
[ 8008 7997 7996 7995 ] final   -5.05 input   59.86 | X-H torsion
[ 10167 10162 10161 10158 ] final -110.84 input  -65.29 | X-H torsion
[ 10718 10713 10712 10709 ] final    7.85 input   66.30 | X-H torsion
[ 10763 10752 10751 10750 ] final   36.47 input  -60.55 | X-H torsion
[ 11005 11000 10999 10996 ] final  -82.49 input  -57.11 | X-H torsion

> <Gold.Protein.ActiveResidues>
 VAL166  LYS551  ARG553  GLY616  TRP617  ASP618  TYR619  PRO620  LYS621  CYS622 
 ASP623  PHE694  ASN695  SER759  ASP760  ASP761  ALA762  ILE779  LEU786  VAL792 
 PHE793  MET794  SER795  GLU796  ALA797  LYS798  CYS799  TRP800  GLU811  SER814 

> <Gold.Protein.RotatedAtoms>
  150.7176  134.0654  159.3845 H   0  0  0  0  0  0  0  0  0  0  0  0  # atno 6907 bound_to 6896
  151.8635  135.0513  160.0481 H   0  0  0  0  0  0  0  0  0  0  0  0  # atno 6908 bound_to 6896
  152.2699  133.5337  159.5469 H   0  0  0  0  0  0  0  0  0  0  0  0  # atno 6909 bound_to 6896
  145.3766  139.2387  143.3426 H   0  0  0  0  0  0  0  0  0  0  0  0  # atno 7974 bound_to 7965
  154.6079  140.2468  155.7706 H   0  0  0  0  0  0  0  0  0  0  0  0  # atno 8008 bound_to 7997
  156.2353  140.2952  156.0246 H   0  0  0  0  0  0  0  0  0  0  0  0  # atno 8009 bound_to 7997
  155.2100  140.0397  157.2922 H   0  0  0  0  0  0  0  0  0  0  0  0  # atno 8010 bound_to 7997
  140.1401  143.4286  152.1568 H   0  0  0  0  0  0  0  0  0  0  0  0  # atno 10167 bound_to 10162
  156.9430  130.5868  149.5653 H   0  0  0  0  0  0  0  0  0  0  0  0  # atno 10718 bound_to 10713
  153.0076  135.6305  154.1990 H   0  0  0  0  0  0  0  0  0  0  0  0  # atno 10763 bound_to 10752
  154.1733  135.2817  155.3076 H   0  0  0  0  0  0  0  0  0  0  0  0  # atno 10764 bound_to 10752
  154.5892  135.5623  153.7321 H   0  0  0  0  0  0  0  0  0  0  0  0  # atno 10765 bound_to 10752
  141.1663  133.7247  156.8580 H   0  0  0  0  0  0  0  0  0  0  0  0  # atno 11005 bound_to 11000
  146.2861  140.4426  142.8757 LP  0  0  0  0  0  0  0  0  0  0  0  0  # atno 17320 bound_to 7965
  144.8538  140.7040  143.6151 LP  0  0  0  0  0  0  0  0  0  0  0  0  # atno 17321 bound_to 7965
  139.5476  144.7311  151.4534 LP  0  0  0  0  0  0  0  0  0  0  0  0  # atno 17342 bound_to 10162
  140.6765  143.8177  150.7066 LP  0  0  0  0  0  0  0  0  0  0  0  0  # atno 17343 bound_to 10162
  156.0396  130.5480  150.8738 LP  0  0  0  0  0  0  0  0  0  0  0  0  # atno 17370 bound_to 10713
  157.5772  131.0946  150.9327 LP  0  0  0  0  0  0  0  0  0  0  0  0  # atno 17371 bound_to 10713
  140.1869  134.8993  157.3014 LP  0  0  0  0  0  0  0  0  0  0  0  0  # atno 17394 bound_to 11000
  140.2333  134.3883  155.7512 LP  0  0  0  0  0  0  0  0  0  0  0  0  # atno 17395 bound_to 11000

$$$$
