AV-unprocessed.smi:281|AV-procd|sdf|2108|dock1
  -GOLD-   2262021403D 1   1.00000     0.00000
 Structure written by MMmdl.
 55 59  0  0  0  0  0  0  0  0  1 V2000
  148.3595  136.7987  159.4355 C   0  0  0  0  0  0  0  0  0  0  0  0
  149.7011  136.2762  158.9117 C   0  0  1  0  0  0  0  0  0  0  0  0
  149.5397  134.9725  158.1107 C   0  0  0  0  0  0  0  0  0  0  0  0
  150.8240  134.5758  157.5507 N   0  0  0  0  0  0  0  0  0  0  0  0
  150.8401  133.3554  156.9764 C   0  0  0  0  0  0  0  0  0  0  0  0
  151.6860  132.4385  157.5055 N   0  0  0  0  0  0  0  0  0  0  0  0
  151.7553  131.2123  156.9779 C   0  0  0  0  0  0  0  0  0  0  0  0
  151.0804  130.7094  155.9416 N   0  0  0  0  0  0  0  0  0  0  0  0
  150.2314  131.6329  155.4053 C   0  0  0  0  0  0  0  0  0  0  0  0
  150.0537  132.9721  155.8532 C   0  0  0  0  0  0  0  0  0  0  0  0
  149.1213  133.6196  155.0518 N   0  0  0  0  0  0  0  0  0  0  0  0
  148.7627  132.7128  154.1848 C   0  0  0  0  0  0  0  0  0  0  0  0
  149.3695  131.4856  154.3322 N   0  0  0  0  0  0  0  0  0  0  0  0
  149.1529  130.2998  153.5164 C   0  0  0  0  0  0  0  0  0  0  0  0
  147.6890  129.7955  153.5289 C   0  0  2  0  0  0  0  0  0  0  0  0
  147.3110  129.5162  154.8646 O   0  0  0  0  0  0  0  0  0  0  0  0
  147.4960  128.5349  152.6819 C   0  0  0  0  0  0  0  0  0  0  0  0
  146.6788  129.0210  151.4906 C   0  0  0  0  0  0  0  0  0  0  0  0
  145.8579  130.0227  152.0634 O   0  0  0  0  0  0  0  0  0  0  0  0
  146.6846  130.7952  152.9213 C   0  0  0  0  0  0  0  0  0  0  0  0
  151.4156  135.6112  156.7156 C   0  0  0  0  0  0  0  0  0  0  0  0
  151.5405  136.9392  157.5048 C   0  0  1  0  0  0  0  0  0  0  0  0
  152.6300  136.8941  158.5722 C   0  0  0  0  0  0  0  0  0  0  0  0
  153.8925  137.2380  157.7910 C   0  0  0  0  0  0  0  0  0  0  0  0
  153.4718  138.1182  156.7562 O   0  0  0  0  0  0  0  0  0  0  0  0
  152.0495  138.1274  156.6638 C   0  0  1  0  0  0  0  0  0  0  0  0
  151.5985  138.1840  155.1971 C   0  0  0  0  0  0  0  0  0  0  0  0
  150.2709  137.2811  158.0712 O   0  0  0  0  0  0  0  0  0  0  0  0
  147.8864  136.0724  160.0969 H   0  0  0  0  0  0  0  0  0  0  0  0
  147.6696  137.0058  158.6169 H   0  0  0  0  0  0  0  0  0  0  0  0
  148.4945  137.7221  159.9991 H   0  0  0  0  0  0  0  0  0  0  0  0
  150.3553  136.1006  159.7665 H   0  0  0  0  0  0  0  0  0  0  0  0
  149.1553  134.1794  158.7535 H   0  0  0  0  0  0  0  0  0  0  0  0
  148.8142  135.1219  157.3106 H   0  0  0  0  0  0  0  0  0  0  0  0
  152.4509  130.5373  157.4542 H   0  0  0  0  0  0  0  0  0  0  0  0
  148.0374  132.9168  153.4107 H   0  0  0  0  0  0  0  0  0  0  0  0
  149.4605  130.5296  152.4953 H   0  0  0  0  0  0  0  0  0  0  0  0
  149.8253  129.5156  153.8671 H   0  0  0  0  0  0  0  0  0  0  0  0
  147.5929  130.2333  155.4118 H   0  0  0  0  0  0  0  0  0  0  0  0
  148.4331  128.0682  152.3761 H   0  0  0  0  0  0  0  0  0  0  0  0
  146.9200  127.7829  153.2240 H   0  0  0  0  0  0  0  0  0  0  0  0
  147.3217  129.4624  150.7271 H   0  0  0  0  0  0  0  0  0  0  0  0
  146.0882  128.2283  151.0311 H   0  0  0  0  0  0  0  0  0  0  0  0
  146.0978  131.3353  153.6655 H   0  0  0  0  0  0  0  0  0  0  0  0
  147.1929  131.5355  152.3025 H   0  0  0  0  0  0  0  0  0  0  0  0
  152.3892  135.2867  156.3456 H   0  0  0  0  0  0  0  0  0  0  0  0
  150.7739  135.7494  155.8448 H   0  0  0  0  0  0  0  0  0  0  0  0
  152.4480  137.6673  159.3201 H   0  0  0  0  0  0  0  0  0  0  0  0
  152.7042  135.9393  159.0933 H   0  0  0  0  0  0  0  0  0  0  0  0
  154.6577  137.6965  158.4176 H   0  0  0  0  0  0  0  0  0  0  0  0
  154.3191  136.3429  157.3372 H   0  0  0  0  0  0  0  0  0  0  0  0
  151.7282  139.0481  157.1541 H   0  0  0  0  0  0  0  0  0  0  0  0
  150.5110  138.1680  155.1209 H   0  0  0  0  0  0  0  0  0  0  0  0
  151.9926  137.3463  154.6215 H   0  0  0  0  0  0  0  0  0  0  0  0
  151.9504  139.0995  154.7214 H   0  0  0  0  0  0  0  0  0  0  0  0
  1  2  1  0  0  0  0
  1 29  1  0  0  0  0
  1 30  1  0  0  0  0
  1 31  1  0  0  0  0
  2 28  1  0  0  0  0
  2  3  1  0  0  0  0
  2 32  1  0  0  0  0
  3  4  1  0  0  0  0
  3 33  1  0  0  0  0
  3 34  1  0  0  0  0
  4  5  1  0  0  0  0
  4 21  1  0  0  0  0
  5 10  1  0  0  0  0
  5  6  2  0  0  0  0
  6  7  1  0  0  0  0
  7  8  2  0  0  0  0
  7 35  1  0  0  0  0
  8  9  1  0  0  0  0
  9 13  1  0  0  0  0
  9 10  2  0  0  0  0
 10 11  1  0  0  0  0
 11 12  2  0  0  0  0
 12 13  1  0  0  0  0
 12 36  1  0  0  0  0
 13 14  1  0  0  0  0
 14 15  1  0  0  0  0
 14 37  1  0  0  0  0
 14 38  1  0  0  0  0
 15 20  1  0  0  0  0
 15 16  1  0  0  0  0
 15 17  1  0  0  0  0
 16 39  1  0  0  0  0
 17 18  1  0  0  0  0
 17 40  1  0  0  0  0
 17 41  1  0  0  0  0
 18 19  1  0  0  0  0
 18 42  1  0  0  0  0
 18 43  1  0  0  0  0
 19 20  1  0  0  0  0
 20 44  1  0  0  0  0
 20 45  1  0  0  0  0
 21 22  1  0  0  0  0
 21 46  1  0  0  0  0
 21 47  1  0  0  0  0
 22 26  1  0  0  0  0
 22 23  1  0  0  0  0
 22 28  1  0  0  0  0
 23 24  1  0  0  0  0
 23 48  1  0  0  0  0
 23 49  1  0  0  0  0
 24 25  1  0  0  0  0
 24 50  1  0  0  0  0
 24 51  1  0  0  0  0
 25 26  1  0  0  0  0
 26 27  1  0  0  0  0
 26 52  1  0  0  0  0
 27 53  1  0  0  0  0
 27 54  1  0  0  0  0
 27 55  1  0  0  0  0
M  END
> <s_m_source_file>
AV-unprocessed.smi

> <i_m_source_file_index>
281

> <i_lp_mmshare_version>
43012

> <i_f3d_flags>
0

> <s_epik_input>
W0NIM11bQ0BASF0xT1tDSDJdW0NIMl1bQ0BAXTEyW0NIMl1OKFtDSDJdW0NASF0oTzIpW0NIM10pYyhuW2NIXW4zKWMoYzM0KW5bY0hdbjRbQ0gyXVtDQEBdNShbT0hdKVtDSDJdW0NIMl1PW0NIMl01

> <s_epik_cmdline>
J2VwaWtfcHl0aG9uJywgJy1waCcsICc3LjAnLCAnLXRuJywgJzgnLCAnLW1hJywgJzIwMCcsICctbWV0YWxfYmluZGluZycsICctaW1hZScsICc8aW5maWxlLm1hZT4nLCAnLW9tYWUnLCAnPG91dGZpbGUubWFlPic=

> <r_lp_tautomer_probability>
1

> <r_epik_Ionization_Penalty>
0.00571331

> <r_epik_Ionization_Penalty_Charging>
0

> <r_epik_Ionization_Penalty_Neutral>
0.00571331

> <r_epik_State_Penalty>
0.00399586

> <r_epik_Charging_Adjusted_Penalty>
0.00399586

> <i_epik_Tot_Q>
0

> <i_epik_Tot_abs_Q>
0

> <r_epik_Metal_State_Penalty>
-0

> <b_epik_Metal_Only>
0

> <s_lp_Force_Field>
OPLS_2005

> <r_lp_Energy>
55.9706

> <b_lp_Chiralities_Consistent>
1

> <s_lp_Variant>
AV-unprocessed.smi:281-8

> <Gold.Version>
5.8.1

> <Gold.Id.Protein>
6NUR|6NUR_protein|mol2

> <Gold.PLP.Fitness>
42.2715

> <Gold.PLP.PLP>
-36.9551

> <Gold.PLP.part.hbond>
-2.8065

> <Gold.PLP.part.metal>
0.0000

> <Gold.PLP.part.buried>
-5.5934

> <Gold.PLP.part.nonpolar>
-27.5210

> <Gold.PLP.part.repulsive>
0.2487

> <Gold.PLP.ligand.clash>
0.0000

> <Gold.PLP.ligand.torsion>
0.1007

> <Gold.PLP.Chemscore.Hbond>
1.7920

> <Gold.PLP.Chemscore.CHOScore>
0.0000

> <Gold.PLP.Chemscore.Metal>
0.0000

> <Gold.Chemscore.Hbonds>
donor molecule, donor type, donor heavy atom, donor atom, acceptor molecule, acceptor atom, score
      P1  H  6896  6907       L1     6  0.35
      P1  H  7997  8009       L1    25  0.42

> <Gold.PLP.Chemscore.Internal.Correction>
0.1418

> <Gold.Rescore>
     Score         DG    S(hbond)    S(metal)    S(lipo)     H(rot)  DE(clash)    DE(int)     intcor
     13.00     -14.33       1.67        0.00      73.70       2.09       0.04       1.29       ----

> <Gold.Chemscore.Fitness>
12.9982

> <Gold.Chemscore.DG>
-14.3295

> <Gold.Chemscore.ZeroCoef>
-5.4800

> <Gold.Chemscore.Hbond>
1.6717

> <Gold.Chemscore.Metal>
0.0000

> <Gold.Chemscore.Lipo>
73.7050

> <Gold.Chemscore.Internal_Hbond>
0.0000

> <Gold.Chemscore.DEClash>
0.0419

> <Gold.Chemscore.DEInternal>
1.2894

> <Gold.Chemscore.Rot>
2.0927

> <Gold.Chemscore.Internal.Correction>
   9.000000E+99

> <Gold.Chemscore.Hbonds>
donor molecule, donor type, donor heavy atom, donor atom, acceptor molecule, acceptor atom, score
      P1  H  6896  6907       L1     6  0.01
      P1  H  7997  8009       L1    25  0.36

> <Gold.Chemscore.Hbond.Weighted>
-5.5833

> <Gold.Chemscore.Metal.Weighted>
-0.0000

> <Gold.Chemscore.Lipo.Weighted>
-8.6235

> <Gold.Chemscore.Internal_Hbond.Weighted>
0.0000

> <Gold.Chemscore.DEClash.Weighted>
0.0419

> <Gold.Chemscore.DEInternal.Weighted>
1.2894

> <Gold.Chemscore.Rot.Weighted>
5.3573

> <Gold.Chemscore.Internal.Correction.Weighted>
   9.000000E+99

> <Gold.Protein.RotatedTorsions>
[ 6907 6896 6895 6894 ] final -163.95 input  -60.11 | X-H torsion
[ 7974 7965 7964 7962 ] final -110.34 input  175.53 | X-H torsion
[ 8008 7997 7996 7995 ] final -163.76 input   59.86 | X-H torsion
[ 10167 10162 10161 10158 ] final  -73.64 input  -65.29 | X-H torsion
[ 10718 10713 10712 10709 ] final   23.62 input   66.30 | X-H torsion
[ 10763 10752 10751 10750 ] final  -59.85 input  -60.55 | X-H torsion
[ 11005 11000 10999 10996 ] final  -18.44 input  -57.11 | X-H torsion

> <Gold.Protein.ActiveResidues>
 VAL166  LYS551  ARG553  GLY616  TRP617  ASP618  TYR619  PRO620  LYS621  CYS622 
 ASP623  PHE694  ASN695  SER759  ASP760  ASP761  ALA762  ILE779  LEU786  VAL792 
 PHE793  MET794  SER795  GLU796  ALA797  LYS798  CYS799  TRP800  GLU811  SER814 

> <Gold.Protein.RotatedAtoms>
  151.4041  133.3748  159.2735 H   0  0  0  0  0  0  0  0  0  0  0  0  # atno 6907 bound_to 6896
  150.9412  134.8822  159.7624 H   0  0  0  0  0  0  0  0  0  0  0  0  # atno 6908 bound_to 6896
  152.5072  134.3991  159.9462 H   0  0  0  0  0  0  0  0  0  0  0  0  # atno 6909 bound_to 6896
  145.1694  140.8918  143.3544 H   0  0  0  0  0  0  0  0  0  0  0  0  # atno 7974 bound_to 7965
  155.8258  140.0926  157.1822 H   0  0  0  0  0  0  0  0  0  0  0  0  # atno 8008 bound_to 7997
  154.3979  140.1428  156.3615 H   0  0  0  0  0  0  0  0  0  0  0  0  # atno 8009 bound_to 7997
  155.8218  140.3446  155.5521 H   0  0  0  0  0  0  0  0  0  0  0  0  # atno 8010 bound_to 7997
  140.5093  143.2347  151.7620 H   0  0  0  0  0  0  0  0  0  0  0  0  # atno 10167 bound_to 10162
  157.1686  130.6749  149.6070 H   0  0  0  0  0  0  0  0  0  0  0  0  # atno 10718 bound_to 10713
  154.2601  135.6310  153.5271 H   0  0  0  0  0  0  0  0  0  0  0  0  # atno 10763 bound_to 10752
  152.9897  135.5585  154.5714 H   0  0  0  0  0  0  0  0  0  0  0  0  # atno 10764 bound_to 10752
  154.5261  135.2885  155.1196 H   0  0  0  0  0  0  0  0  0  0  0  0  # atno 10765 bound_to 10752
  140.8268  133.8026  155.9717 H   0  0  0  0  0  0  0  0  0  0  0  0  # atno 11005 bound_to 11000
  145.0248  139.3392  143.6054 LP  0  0  0  0  0  0  0  0  0  0  0  0  # atno 17320 bound_to 7965
  146.3471  139.9563  142.8723 LP  0  0  0  0  0  0  0  0  0  0  0  0  # atno 17321 bound_to 7965
  139.4892  144.4412  151.9762 LP  0  0  0  0  0  0  0  0  0  0  0  0  # atno 17342 bound_to 10162
  140.3504  144.3096  150.5950 LP  0  0  0  0  0  0  0  0  0  0  0  0  # atno 17343 bound_to 10162
  155.9742  130.4687  150.6368 LP  0  0  0  0  0  0  0  0  0  0  0  0  # atno 17370 bound_to 10713
  157.4064  131.0817  151.1261 LP  0  0  0  0  0  0  0  0  0  0  0  0  # atno 17371 bound_to 10713
  140.9040  134.2343  157.5025 LP  0  0  0  0  0  0  0  0  0  0  0  0  # atno 17394 bound_to 11000
  139.8706  134.9720  156.4756 LP  0  0  0  0  0  0  0  0  0  0  0  0  # atno 17395 bound_to 11000

$$$$
