AV-unprocessed.smi:1381|AV-procd|sdf|5619|dock2
  -GOLD-   22720 5233D 1   1.00000     0.00000
 Structure written by MMmdl.
 42 43  0  0  0  0  0  0  0  0  3 V2000
  151.0423  141.8404  156.3308 C   0  0  0  0  0  0  0  0  0  0  0  0
  150.6450  140.6242  155.5669 C   0  0  0  0  0  0  0  0  0  0  0  0
  149.4353  140.0493  155.2959 C   0  0  0  0  0  0  0  0  0  0  0  0
  149.7867  138.9116  154.5213 C   0  0  0  0  0  0  0  0  0  0  0  0
  148.7848  138.0321  154.0324 N   0  0  0  0  0  0  0  0  0  0  0  0
  147.5094  137.8963  154.4402 C   0  0  0  0  0  0  0  0  0  0  0  0
  147.0687  138.5980  155.3580 O   0  0  0  0  0  0  0  0  0  0  0  0
  146.8444  136.9409  153.7348 N   0  5  0  0  0  0  0  0  0  0  0  0
  146.7014  135.5454  154.1526 C   0  0  0  0  0  0  0  0  0  0  0  0
  145.9038  134.7634  153.0930 C   0  0  0  0  0  0  0  0  0  0  0  0
  146.8034  134.0835  152.1194 N   0  3  1  0  0  0  0  0  0  0  0  0
  147.4021  132.8152  152.6090 C   0  0  0  0  0  0  0  0  0  0  0  0
  146.3918  131.6501  152.5298 C   0  0  2  0  0  0  0  0  0  0  0  0
  147.0268  130.3099  152.9171 C   0  0  0  0  0  0  0  0  0  0  0  0
  145.9037  131.5414  151.1962 O   0  0  0  0  0  0  0  0  0  0  0  0
  145.2238  132.7141  150.7594 C   0  0  2  0  0  0  0  0  0  0  0  0
  144.6633  132.4473  149.3580 C   0  0  0  0  0  0  0  0  0  0  0  0
  146.2124  133.8966  150.7721 C   0  0  0  0  0  0  0  0  0  0  0  0
  151.0939  138.8050  154.3337 N   0  0  0  0  0  0  0  0  0  0  0  0
  151.6504  139.9012  155.0034 O   0  0  0  0  0  0  0  0  0  0  0  0
  150.1661  142.3673  156.7090 H   0  0  0  0  0  0  0  0  0  0  0  0
  151.6030  142.5279  155.6974 H   0  0  0  0  0  0  0  0  0  0  0  0
  151.6697  141.5737  157.1813 H   0  0  0  0  0  0  0  0  0  0  0  0
  148.4577  140.3881  155.6047 H   0  0  0  0  0  0  0  0  0  0  0  0
  149.0668  137.4331  153.2710 H   0  0  0  0  0  0  0  0  0  0  0  0
  147.6643  135.0540  154.2974 H   0  0  0  0  0  0  0  0  0  0  0  0
  146.1817  135.4699  155.1078 H   0  0  0  0  0  0  0  0  0  0  0  0
  145.2572  134.0382  153.5874 H   0  0  0  0  0  0  0  0  0  0  0  0
  145.2310  135.4524  152.5795 H   0  0  0  0  0  0  0  0  0  0  0  0
  148.2702  132.5890  151.9883 H   0  0  0  0  0  0  0  0  0  0  0  0
  147.7754  132.9394  153.6266 H   0  0  0  0  0  0  0  0  0  0  0  0
  145.5513  131.8338  153.2007 H   0  0  0  0  0  0  0  0  0  0  0  0
  147.4088  130.3374  153.9381 H   0  0  0  0  0  0  0  0  0  0  0  0
  147.8568  130.0592  152.2557 H   0  0  0  0  0  0  0  0  0  0  0  0
  146.2976  129.5015  152.8576 H   0  0  0  0  0  0  0  0  0  0  0  0
  144.3882  132.9173  151.4314 H   0  0  0  0  0  0  0  0  0  0  0  0
  144.1223  133.3152  148.9801 H   0  0  0  0  0  0  0  0  0  0  0  0
  143.9722  131.6039  149.3683 H   0  0  0  0  0  0  0  0  0  0  0  0
  145.4603  132.2152  148.6509 H   0  0  0  0  0  0  0  0  0  0  0  0
  145.7317  134.8176  150.4387 H   0  0  0  0  0  0  0  0  0  0  0  0
  147.0236  133.7037  150.0687 H   0  0  0  0  0  0  0  0  0  0  0  0
  147.5640  134.7384  151.9970 H   0  0  0  0  0  0  0  0  0  0  0  0
  1  2  1  0  0  0  0
  1 21  1  0  0  0  0
  1 22  1  0  0  0  0
  1 23  1  0  0  0  0
  2 20  1  0  0  0  0
  2  3  2  0  0  0  0
  3  4  1  0  0  0  0
  3 24  1  0  0  0  0
  4  5  1  0  0  0  0
  4 19  2  0  0  0  0
  5  6  1  0  0  0  0
  5 25  1  0  0  0  0
  6  7  2  0  0  0  0
  6  8  1  0  0  0  0
  8  9  1  0  0  0  0
  9 10  1  0  0  0  0
  9 26  1  0  0  0  0
  9 27  1  0  0  0  0
 10 11  1  0  0  0  0
 10 28  1  0  0  0  0
 10 29  1  0  0  0  0
 11 18  1  0  0  0  0
 11 12  1  0  0  0  0
 11 42  1  0  0  0  0
 12 13  1  0  0  0  0
 12 30  1  0  0  0  0
 12 31  1  0  0  0  0
 13 14  1  0  0  0  0
 13 15  1  0  0  0  0
 13 32  1  0  0  0  0
 14 33  1  0  0  0  0
 14 34  1  0  0  0  0
 14 35  1  0  0  0  0
 15 16  1  0  0  0  0
 16 17  1  0  0  0  0
 16 18  1  0  0  0  0
 16 36  1  0  0  0  0
 17 37  1  0  0  0  0
 17 38  1  0  0  0  0
 17 39  1  0  0  0  0
 18 40  1  0  0  0  0
 18 41  1  0  0  0  0
 19 20  1  0  0  0  0
M  CHG  1   8  -1
M  CHG  1  11   1
M  END
> <s_m_source_file>
AV-unprocessed.smi

> <i_m_source_file_index>
1381

> <i_lp_mmshare_version>
43012

> <i_f3d_flags>
0

> <s_epik_input>
W0NIM11jMVtjSF1jKG5vMSlbTkhdQyg9TylbTkhdW0NIMl1bQ0gyXU4yW0NIMl1bQ0BASF0oW0NIM10pT1tDQEBIXShbQ0gzXSlbQ0gyXTI=

> <s_epik_cmdline>
J2VwaWtfcHl0aG9uJywgJy1waCcsICc3LjAnLCAnLXRuJywgJzgnLCAnLW1hJywgJzIwMCcsICctbWV0YWxfYmluZGluZycsICctaW1hZScsICc8aW5maWxlLm1hZT4nLCAnLW9tYWUnLCAnPG91dGZpbGUubWFlPic=

> <r_epik_Ionization_Penalty>
6.8073

> <r_epik_Ionization_Penalty_Charging>
6.80729

> <r_epik_Ionization_Penalty_Neutral>
5.65391e-06

> <r_epik_State_Penalty>
7.47323

> <r_epik_Charging_Adjusted_Penalty>
14.2805

> <i_epik_Tot_Q>
0

> <i_epik_Tot_abs_Q>
2

> <r_epik_Metal_State_Penalty>
3.40035

> <b_epik_Metal_Only>
1

> <s_lp_Force_Field>
OPLS_2005

> <r_lp_Energy>
13.1386

> <b_lp_Chiralities_Consistent>
1

> <s_lp_Variant>
AV-unprocessed.smi:1381-18

> <Gold.Version>
5.8.1

> <Gold.Id.Protein>
6NUR|6NUR_protein|mol2

> <Gold.PLP.Fitness>
37.6111

> <Gold.PLP.PLP>
-29.5328

> <Gold.PLP.part.hbond>
-3.4867

> <Gold.PLP.part.metal>
0.0000

> <Gold.PLP.part.buried>
-5.4691

> <Gold.PLP.part.nonpolar>
-21.8421

> <Gold.PLP.part.repulsive>
1.4539

> <Gold.PLP.ligand.clash>
0.0000

> <Gold.PLP.ligand.torsion>
1.3048

> <Gold.PLP.Chemscore.Hbond>
3.5500

> <Gold.PLP.Chemscore.CHOScore>
0.0000

> <Gold.PLP.Chemscore.Metal>
0.0000

> <Gold.Chemscore.Hbonds>
donor molecule, donor type, donor heavy atom, donor atom, acceptor molecule, acceptor atom, score
      L1  H     5    25       P1  7948  1.00
      L1  H    11    42       P1  7948  2.00
      P1  H  7989  7998       L1    20  0.39

> <Gold.PLP.Chemscore.Internal.Correction>
0.0379

> <Gold.Rescore>
     Score         DG    S(hbond)    S(metal)    S(lipo)     H(rot)  DE(clash)    DE(int)     intcor
     12.37     -15.21       1.78        0.00      66.98       1.58       0.09       2.74       ----

> <Gold.Chemscore.Fitness>
12.3731

> <Gold.Chemscore.DG>
-15.2107

> <Gold.Chemscore.ZeroCoef>
-5.4800

> <Gold.Chemscore.Hbond>
1.7776

> <Gold.Chemscore.Metal>
0.0000

> <Gold.Chemscore.Lipo>
66.9787

> <Gold.Chemscore.Internal_Hbond>
0.0000

> <Gold.Chemscore.DEClash>
0.0935

> <Gold.Chemscore.DEInternal>
2.7441

> <Gold.Chemscore.Rot>
1.5792

> <Gold.Chemscore.Internal.Correction>
   9.000000E+99

> <Gold.Chemscore.Hbonds>
donor molecule, donor type, donor heavy atom, donor atom, acceptor molecule, acceptor atom, score
      L1  H     5    25       P1  7948  1.00
      L1  H    11    42       P1  7948  0.68

> <Gold.Chemscore.Hbond.Weighted>
-5.9371

> <Gold.Chemscore.Metal.Weighted>
-0.0000

> <Gold.Chemscore.Lipo.Weighted>
-7.8365

> <Gold.Chemscore.Internal_Hbond.Weighted>
0.0000

> <Gold.Chemscore.DEClash.Weighted>
0.0935

> <Gold.Chemscore.DEInternal.Weighted>
2.7441

> <Gold.Chemscore.Rot.Weighted>
4.0428

> <Gold.Chemscore.Internal.Correction.Weighted>
   9.000000E+99

> <Gold.Protein.RotatedTorsions>
[ 6907 6896 6895 6894 ] final -140.22 input  -60.11 | X-H torsion
[ 7974 7965 7964 7962 ] final -171.83 input  175.53 | X-H torsion
[ 8008 7997 7996 7995 ] final  141.85 input   59.86 | X-H torsion
[ 10167 10162 10161 10158 ] final  118.31 input  -65.29 | X-H torsion
[ 10718 10713 10712 10709 ] final   54.02 input   66.30 | X-H torsion
[ 10763 10752 10751 10750 ] final  -64.33 input  -60.55 | X-H torsion
[ 11005 11000 10999 10996 ] final   49.70 input  -57.11 | X-H torsion

> <Gold.Protein.ActiveResidues>
 VAL166  LYS551  ARG553  GLY616  TRP617  ASP618  TYR619  PRO620  LYS621  CYS622 
 ASP623  PHE694  ASN695  SER759  ASP760  ASP761  ALA762  ILE779  LEU786  VAL792 
 PHE793  MET794  SER795  GLU796  ALA797  LYS798  CYS799  TRP800  GLU811  SER814 

> <Gold.Protein.RotatedAtoms>
  151.0579  133.5569  159.2636 H   0  0  0  0  0  0  0  0  0  0  0  0  # atno 6907 bound_to 6896
  151.2555  135.0636  159.9088 H   0  0  0  0  0  0  0  0  0  0  0  0  # atno 6908 bound_to 6896
  152.5393  134.0333  159.8088 H   0  0  0  0  0  0  0  0  0  0  0  0  # atno 6909 bound_to 6896
  144.7152  140.1864  143.6353 H   0  0  0  0  0  0  0  0  0  0  0  0  # atno 7974 bound_to 7965
  156.2959  140.2304  156.4633 H   0  0  0  0  0  0  0  0  0  0  0  0  # atno 8008 bound_to 7997
  154.7999  140.0449  157.1286 H   0  0  0  0  0  0  0  0  0  0  0  0  # atno 8009 bound_to 7997
  154.9545  140.3046  155.5063 H   0  0  0  0  0  0  0  0  0  0  0  0  # atno 8010 bound_to 7997
  139.6120  144.7084  151.2823 H   0  0  0  0  0  0  0  0  0  0  0  0  # atno 10167 bound_to 10162
  157.5220  130.8571  149.8571 H   0  0  0  0  0  0  0  0  0  0  0  0  # atno 10718 bound_to 10713
  154.3285  135.6181  153.5540 H   0  0  0  0  0  0  0  0  0  0  0  0  # atno 10763 bound_to 10752
  152.9813  135.5741  154.4988 H   0  0  0  0  0  0  0  0  0  0  0  0  # atno 10764 bound_to 10752
  154.4670  135.2858  155.1647 H   0  0  0  0  0  0  0  0  0  0  0  0  # atno 10765 bound_to 10752
  140.1081  134.4991  155.8702 H   0  0  0  0  0  0  0  0  0  0  0  0  # atno 11005 bound_to 11000
  145.8809  139.2322  143.1606 LP  0  0  0  0  0  0  0  0  0  0  0  0  # atno 17320 bound_to 7965
  145.9996  140.8532  143.0025 LP  0  0  0  0  0  0  0  0  0  0  0  0  # atno 17321 bound_to 7965
  140.7325  143.6821  150.7992 LP  0  0  0  0  0  0  0  0  0  0  0  0  # atno 17342 bound_to 10162
  140.0417  143.5339  152.2715 LP  0  0  0  0  0  0  0  0  0  0  0  0  # atno 17343 bound_to 10162
  156.0360  130.3751  150.1560 LP  0  0  0  0  0  0  0  0  0  0  0  0  # atno 17370 bound_to 10713
  156.9747  130.9846  151.3451 LP  0  0  0  0  0  0  0  0  0  0  0  0  # atno 17371 bound_to 10713
  141.2123  133.6718  156.6650 LP  0  0  0  0  0  0  0  0  0  0  0  0  # atno 17394 bound_to 11000
  140.3128  134.8072  157.4190 LP  0  0  0  0  0  0  0  0  0  0  0  0  # atno 17395 bound_to 11000

$$$$
