AV-unprocessed.smi:801|AV-procd|sdf|3789|dock10
  -GOLD-   22720 1223D 1   1.00000     0.00000
 Structure written by MMmdl.
 44 45  0  0  0  0  0  0  0  0  1 V2000
  156.0461  134.3369  164.4095 C   0  0  0  0  0  0  0  0  0  0  0  0
  156.4247  135.6006  163.8864 O   0  0  0  0  0  0  0  0  0  0  0  0
  155.6003  136.0571  162.8241 C   0  0  0  0  0  0  0  0  0  0  0  0
  156.3470  137.0465  161.9109 C   0  0  0  0  0  0  0  0  0  0  0  0
  155.4995  137.5747  160.8606 N   0  0  0  0  0  0  0  0  0  0  0  0
  155.0745  138.9055  160.8097 C   0  0  0  0  0  0  0  0  0  0  0  0
  155.4570  139.7555  161.8593 N   0  0  0  0  0  0  0  0  0  0  0  0
  156.5499  140.5387  161.8488 C   0  0  0  0  0  0  0  0  0  0  0  0
  156.8411  141.3018  163.1362 C   0  0  0  0  0  0  0  0  0  0  0  0
  157.3005  140.6561  160.8806 O   0  0  0  0  0  0  0  0  0  0  0  0
  154.2730  139.3835  159.8067 C   0  0  0  0  0  0  0  0  0  0  0  0
  153.8274  140.7067  159.8042 N   0  0  0  0  0  0  0  0  0  0  0  0
  152.9844  141.4352  158.8678 C   0  0  0  0  0  0  0  0  0  0  0  0
  152.6592  142.8463  159.3241 C   0  0  0  0  0  0  0  0  0  0  0  0
  152.9355  143.2516  160.6484 C   0  0  0  0  0  0  0  0  0  0  0  0
  152.6274  144.5599  161.0689 C   0  0  0  0  0  0  0  0  0  0  0  0
  152.0377  145.4686  160.1694 C   0  0  0  0  0  0  0  0  0  0  0  0
  151.7549  145.0678  158.8494 C   0  0  0  0  0  0  0  0  0  0  0  0
  152.0633  143.7594  158.4282 C   0  0  0  0  0  0  0  0  0  0  0  0
  153.8431  138.4773  158.7266 C   0  0  0  0  0  0  0  0  0  0  0  0
  153.1473  138.7684  157.7551 O   0  0  0  0  0  0  0  0  0  0  0  0
  154.2785  137.1601  158.8514 N   0  0  0  0  0  0  0  0  0  0  0  0
  155.0726  136.6583  159.8741 C   0  0  0  0  0  0  0  0  0  0  0  0
  155.3656  135.4622  159.8813 O   0  0  0  0  0  0  0  0  0  0  0  0
  153.9849  136.5102  158.1367 H   0  0  0  0  0  0  0  0  0  0  0  0
  156.7520  134.0399  165.1848 H   0  0  0  0  0  0  0  0  0  0  0  0
  156.0595  133.5688  163.6350 H   0  0  0  0  0  0  0  0  0  0  0  0
  155.0537  134.3624  164.8593 H   0  0  0  0  0  0  0  0  0  0  0  0
  155.3053  135.1838  162.2418 H   0  0  0  0  0  0  0  0  0  0  0  0
  154.6787  136.4934  163.2131 H   0  0  0  0  0  0  0  0  0  0  0  0
  156.7308  137.9066  162.4569 H   0  0  0  0  0  0  0  0  0  0  0  0
  157.2270  136.5921  161.4527 H   0  0  0  0  0  0  0  0  0  0  0  0
  154.9527  139.6544  162.7281 H   0  0  0  0  0  0  0  0  0  0  0  0
  156.2109  142.1890  163.1989 H   0  0  0  0  0  0  0  0  0  0  0  0
  157.8840  141.6184  163.1696 H   0  0  0  0  0  0  0  0  0  0  0  0
  156.6481  140.6772  164.0091 H   0  0  0  0  0  0  0  0  0  0  0  0
  154.1868  141.2846  160.5503 H   0  0  0  0  0  0  0  0  0  0  0  0
  153.4816  141.4708  157.8976 H   0  0  0  0  0  0  0  0  0  0  0  0
  152.0441  140.8994  158.7347 H   0  0  0  0  0  0  0  0  0  0  0  0
  153.3833  142.5602  161.3472 H   0  0  0  0  0  0  0  0  0  0  0  0
  152.8422  144.8655  162.0822 H   0  0  0  0  0  0  0  0  0  0  0  0
  151.8006  146.4716  160.4925 H   0  0  0  0  0  0  0  0  0  0  0  0
  151.3009  145.7636  158.1592 H   0  0  0  0  0  0  0  0  0  0  0  0
  151.8414  143.4610  157.4139 H   0  0  0  0  0  0  0  0  0  0  0  0
  1  2  1  0  0  0  0
  1 26  1  0  0  0  0
  1 27  1  0  0  0  0
  1 28  1  0  0  0  0
  2  3  1  0  0  0  0
  3  4  1  0  0  0  0
  3 29  1  0  0  0  0
  3 30  1  0  0  0  0
  4  5  1  0  0  0  0
  4 31  1  0  0  0  0
  4 32  1  0  0  0  0
  5 23  1  0  0  0  0
  5  6  1  0  0  0  0
  6  7  1  0  0  0  0
  6 11  2  0  0  0  0
  7  8  1  0  0  0  0
  7 33  1  0  0  0  0
  8  9  1  0  0  0  0
  8 10  2  0  0  0  0
  9 34  1  0  0  0  0
  9 35  1  0  0  0  0
  9 36  1  0  0  0  0
 11 12  1  0  0  0  0
 11 20  1  0  0  0  0
 12 13  1  0  0  0  0
 12 37  1  0  0  0  0
 13 14  1  0  0  0  0
 13 38  1  0  0  0  0
 13 39  1  0  0  0  0
 14 19  1  0  0  0  0
 14 15  2  0  0  0  0
 15 16  1  0  0  0  0
 15 40  1  0  0  0  0
 16 17  2  0  0  0  0
 16 41  1  0  0  0  0
 17 18  1  0  0  0  0
 17 42  1  0  0  0  0
 18 19  2  0  0  0  0
 18 43  1  0  0  0  0
 19 44  1  0  0  0  0
 20 21  2  0  0  0  0
 20 22  1  0  0  0  0
 22 25  1  0  0  0  0
 22 23  1  0  0  0  0
 23 24  2  0  0  0  0
M  END
> <s_m_source_file>
AV-unprocessed.smi

> <i_m_source_file_index>
801

> <i_lp_mmshare_version>
43012

> <i_f3d_flags>
0

> <s_epik_input>
W0NIM11PW0NIMl1bQ0gyXW4xYyhbTkhdQyg9TylbQ0gzXSljKGMoPU8pW25IXWMxPU8pW05IXVtDSDJdYzJbY0hdW2NIXVtjSF1bY0hdW2NIXTI=

> <s_epik_cmdline>
J2VwaWtfcHl0aG9uJywgJy1waCcsICc3LjAnLCAnLXRuJywgJzgnLCAnLW1hJywgJzIwMCcsICctbWV0YWxfYmluZGluZycsICctaW1hZScsICc8aW5maWxlLm1hZT4nLCAnLW9tYWUnLCAnPG91dGZpbGUubWFlPic=

> <r_lp_tautomer_probability>
0.999901

> <r_epik_Ionization_Penalty>
0.000786563

> <r_epik_Ionization_Penalty_Charging>
0.000779429

> <r_epik_Ionization_Penalty_Neutral>
7.13436e-06

> <r_epik_State_Penalty>
0.00049961

> <r_epik_Charging_Adjusted_Penalty>
0.00127904

> <i_epik_Tot_Q>
0

> <i_epik_Tot_abs_Q>
0

> <r_epik_Metal_State_Penalty>
0.266924

> <b_epik_Metal_Only>
0

> <s_lp_Force_Field>
OPLS_2005

> <r_lp_Energy>
22.7844

> <b_lp_Chiralities_Consistent>
1

> <s_lp_Variant>
AV-unprocessed.smi:801-1

> <Gold.Version>
5.8.1

> <Gold.Id.Protein>
6NUR|6NUR_protein|mol2

> <Gold.PLP.Fitness>
49.2012

> <Gold.PLP.PLP>
-45.4846

> <Gold.PLP.part.hbond>
-2.4494

> <Gold.PLP.part.metal>
0.0000

> <Gold.PLP.part.buried>
-4.7412

> <Gold.PLP.part.nonpolar>
-38.1868

> <Gold.PLP.part.repulsive>
0.2533

> <Gold.PLP.ligand.clash>
0.0000

> <Gold.PLP.ligand.torsion>
1.0945

> <Gold.PLP.Chemscore.Hbond>
1.6012

> <Gold.PLP.Chemscore.CHOScore>
0.0000

> <Gold.PLP.Chemscore.Metal>
0.0000

> <Gold.Chemscore.Hbonds>
donor molecule, donor type, donor heavy atom, donor atom, acceptor molecule, acceptor atom, score
      P1  H  7997  8010       L1    21  0.52

> <Gold.PLP.Chemscore.Internal.Correction>
1.1019

> <Gold.Rescore>
     Score         DG    S(hbond)    S(metal)    S(lipo)     H(rot)  DE(clash)    DE(int)     intcor
     14.94     -17.39       0.95        0.00     118.74       2.02       0.18       2.27       ----

> <Gold.Chemscore.Fitness>
14.9363

> <Gold.Chemscore.DG>
-17.3871

> <Gold.Chemscore.ZeroCoef>
-5.4800

> <Gold.Chemscore.Hbond>
0.9516

> <Gold.Chemscore.Metal>
0.0000

> <Gold.Chemscore.Lipo>
118.7388

> <Gold.Chemscore.Internal_Hbond>
0.0000

> <Gold.Chemscore.DEClash>
0.1801

> <Gold.Chemscore.DEInternal>
2.2707

> <Gold.Chemscore.Rot>
2.0170

> <Gold.Chemscore.Internal.Correction>
   9.000000E+99

> <Gold.Chemscore.Hbonds>
donor molecule, donor type, donor heavy atom, donor atom, acceptor molecule, acceptor atom, score
      P1  H  7997  8010       L1    21  0.03

> <Gold.Chemscore.Hbond.Weighted>
-3.1782

> <Gold.Chemscore.Metal.Weighted>
-0.0000

> <Gold.Chemscore.Lipo.Weighted>
-13.8924

> <Gold.Chemscore.Internal_Hbond.Weighted>
0.0000

> <Gold.Chemscore.DEClash.Weighted>
0.1801

> <Gold.Chemscore.DEInternal.Weighted>
2.2707

> <Gold.Chemscore.Rot.Weighted>
5.1636

> <Gold.Chemscore.Internal.Correction.Weighted>
   9.000000E+99

> <Gold.Protein.RotatedTorsions>
[ 6907 6896 6895 6894 ] final  -45.05 input  -60.11 | X-H torsion
[ 7974 7965 7964 7962 ] final   88.07 input  175.53 | X-H torsion
[ 8008 7997 7996 7995 ] final   33.38 input   59.86 | X-H torsion
[ 10167 10162 10161 10158 ] final   27.71 input  -65.29 | X-H torsion
[ 10718 10713 10712 10709 ] final  -14.95 input   66.30 | X-H torsion
[ 10763 10752 10751 10750 ] final   18.56 input  -60.55 | X-H torsion
[ 11005 11000 10999 10996 ] final  -84.21 input  -57.11 | X-H torsion

> <Gold.Protein.ActiveResidues>
 VAL166  LYS551  ARG553  GLY616  TRP617  ASP618  TYR619  PRO620  LYS621  CYS622 
 ASP623  PHE694  ASN695  SER759  ASP760  ASP761  ALA762  ILE779  LEU786  VAL792 
 PHE793  MET794  SER795  GLU796  ALA797  LYS798  CYS799  TRP800  GLU811  SER814 

> <Gold.Protein.RotatedAtoms>
  150.9261  134.8677  159.7520 H   0  0  0  0  0  0  0  0  0  0  0  0  # atno 6907 bound_to 6896
  152.5016  134.4147  159.9470 H   0  0  0  0  0  0  0  0  0  0  0  0  # atno 6908 bound_to 6896
  151.4177  133.3668  159.2787 H   0  0  0  0  0  0  0  0  0  0  0  0  # atno 6909 bound_to 6896
  145.5506  139.2295  143.2515 H   0  0  0  0  0  0  0  0  0  0  0  0  # atno 7974 bound_to 7965
  155.1377  140.3263  155.4459 H   0  0  0  0  0  0  0  0  0  0  0  0  # atno 8008 bound_to 7997
  156.2614  140.1999  156.6443 H   0  0  0  0  0  0  0  0  0  0  0  0  # atno 8009 bound_to 7997
  154.6565  140.0552  157.0001 H   0  0  0  0  0  0  0  0  0  0  0  0  # atno 8010 bound_to 7997
  140.4915  144.0459  150.6299 H   0  0  0  0  0  0  0  0  0  0  0  0  # atno 10167 bound_to 10162
  156.6087  130.4843  149.6210 H   0  0  0  0  0  0  0  0  0  0  0  0  # atno 10718 bound_to 10713
  153.1239  135.6725  153.9290 H   0  0  0  0  0  0  0  0  0  0  0  0  # atno 10763 bound_to 10752
  153.8797  135.3059  155.3446 H   0  0  0  0  0  0  0  0  0  0  0  0  # atno 10764 bound_to 10752
  154.7647  135.4970  153.9610 H   0  0  0  0  0  0  0  0  0  0  0  0  # atno 10765 bound_to 10752
  141.1652  133.7334  156.8835 H   0  0  0  0  0  0  0  0  0  0  0  0  # atno 11005 bound_to 11000
  146.1919  140.6328  142.9141 LP  0  0  0  0  0  0  0  0  0  0  0  0  # atno 17320 bound_to 7965
  144.7531  140.5241  143.6788 LP  0  0  0  0  0  0  0  0  0  0  0  0  # atno 17321 bound_to 7965
  140.3730  143.2844  152.0257 LP  0  0  0  0  0  0  0  0  0  0  0  0  # atno 17342 bound_to 10162
  139.4852  144.6215  151.7246 LP  0  0  0  0  0  0  0  0  0  0  0  0  # atno 17343 bound_to 10162
  156.2408  130.6850  151.1554 LP  0  0  0  0  0  0  0  0  0  0  0  0  # atno 17370 bound_to 10713
  157.7260  131.0649  150.5928 LP  0  0  0  0  0  0  0  0  0  0  0  0  # atno 17371 bound_to 10713
  140.1698  134.9107  157.2819 LP  0  0  0  0  0  0  0  0  0  0  0  0  # atno 17394 bound_to 11000
  140.2515  134.3678  155.7440 LP  0  0  0  0  0  0  0  0  0  0  0  0  # atno 17395 bound_to 11000

$$$$
