AV-unprocessed.smi:1968|AV-procd|sdf|7956|dock3
  -GOLD-   2272010123D 1   1.00000     0.00000
 Structure written by MMmdl.
 42 43  0  0  0  0  0  0  0  0  1 V2000
  152.7282  142.9524  160.2547 C   0  0  0  0  0  0  0  0  0  0  0  0
  153.1075  141.4919  159.9990 C   0  0  0  0  0  0  0  0  0  0  0  0
  153.9157  140.9623  160.7620 O   0  0  0  0  0  0  0  0  0  0  0  0
  152.5513  140.8365  158.9516 N   0  0  0  0  0  0  0  0  0  0  0  0
  152.7556  139.4186  158.6309 C   0  0  0  0  0  0  0  0  0  0  0  0
  151.4615  138.6483  158.9474 C   0  0  0  0  0  0  0  0  0  0  0  0
  150.2512  139.2459  158.1915 C   0  0  0  0  0  0  0  0  0  0  0  0
  149.0050  138.6429  158.6541 N   0  0  0  0  0  0  0  0  0  0  0  0
  148.8301  137.3444  158.9421 C   0  0  0  0  0  0  0  0  0  0  0  0
  149.7296  136.5072  158.8543 O   0  0  0  0  0  0  0  0  0  0  0  0
  147.4253  136.9478  159.4192 C   0  0  0  0  0  0  0  0  0  0  0  0
  147.4317  135.8981  160.4520 N   0  0  0  0  0  0  0  0  0  0  0  0
  147.2845  134.5669  160.0142 C   0  0  0  0  0  0  0  0  0  0  0  0
  147.2817  133.5148  160.8553 C   0  0  0  0  0  0  0  0  0  0  0  0
  147.0590  132.0937  160.3612 C   0  0  0  0  0  0  0  0  0  0  0  0
  147.9893  131.7449  159.4720 F   0  0  0  0  0  0  0  0  0  0  0  0
  147.0936  131.2199  161.3682 F   0  0  0  0  0  0  0  0  0  0  0  0
  145.8675  132.0010  159.7725 F   0  0  0  0  0  0  0  0  0  0  0  0
  147.4076  133.8177  162.2673 C   0  0  0  0  0  0  0  0  0  0  0  0
  147.5368  135.0859  162.7038 C   0  0  0  0  0  0  0  0  0  0  0  0
  147.5565  136.2182  161.7749 C   0  0  0  0  0  0  0  0  0  0  0  0
  147.6764  137.3811  162.1616 O   0  0  0  0  0  0  0  0  0  0  0  0
  150.1777  140.7787  158.3660 C   0  0  0  0  0  0  0  0  0  0  0  0
  151.5367  141.4440  158.0828 C   0  0  0  0  0  0  0  0  0  0  0  0
  152.9663  143.5724  159.3899 H   0  0  0  0  0  0  0  0  0  0  0  0
  153.2789  143.3489  161.1085 H   0  0  0  0  0  0  0  0  0  0  0  0
  151.6642  143.0416  160.4745 H   0  0  0  0  0  0  0  0  0  0  0  0
  152.9947  139.3218  157.5708 H   0  0  0  0  0  0  0  0  0  0  0  0
  153.5949  138.9677  159.1584 H   0  0  0  0  0  0  0  0  0  0  0  0
  151.5868  137.5963  158.6884 H   0  0  0  0  0  0  0  0  0  0  0  0
  151.2801  138.6821  160.0229 H   0  0  0  0  0  0  0  0  0  0  0  0
  150.3732  139.0395  157.1262 H   0  0  0  0  0  0  0  0  0  0  0  0
  148.2132  139.2609  158.7577 H   0  0  0  0  0  0  0  0  0  0  0  0
  146.9268  137.8446  159.7902 H   0  0  0  0  0  0  0  0  0  0  0  0
  146.8309  136.6272  158.5612 H   0  0  0  0  0  0  0  0  0  0  0  0
  147.1631  134.4570  158.9461 H   0  0  0  0  0  0  0  0  0  0  0  0
  147.4010  133.0131  162.9880 H   0  0  0  0  0  0  0  0  0  0  0  0
  147.6292  135.2741  163.7635 H   0  0  0  0  0  0  0  0  0  0  0  0
  149.4156  141.1950  157.7060 H   0  0  0  0  0  0  0  0  0  0  0  0
  149.8700  141.0215  159.3846 H   0  0  0  0  0  0  0  0  0  0  0  0
  151.4571  142.5237  158.2166 H   0  0  0  0  0  0  0  0  0  0  0  0
  151.8173  141.2953  157.0391 H   0  0  0  0  0  0  0  0  0  0  0  0
  1  2  1  0  0  0  0
  1 25  1  0  0  0  0
  1 26  1  0  0  0  0
  1 27  1  0  0  0  0
  2  3  2  0  0  0  0
  2  4  1  0  0  0  0
  4 24  1  0  0  0  0
  4  5  1  0  0  0  0
  5  6  1  0  0  0  0
  5 28  1  0  0  0  0
  5 29  1  0  0  0  0
  6  7  1  0  0  0  0
  6 30  1  0  0  0  0
  6 31  1  0  0  0  0
  7  8  1  0  0  0  0
  7 23  1  0  0  0  0
  7 32  1  0  0  0  0
  8  9  1  0  0  0  0
  8 33  1  0  0  0  0
  9 10  2  0  0  0  0
  9 11  1  0  0  0  0
 11 12  1  0  0  0  0
 11 34  1  0  0  0  0
 11 35  1  0  0  0  0
 12 21  1  0  0  0  0
 12 13  1  0  0  0  0
 13 14  2  0  0  0  0
 13 36  1  0  0  0  0
 14 15  1  0  0  0  0
 14 19  1  0  0  0  0
 15 16  1  0  0  0  0
 15 17  1  0  0  0  0
 15 18  1  0  0  0  0
 19 20  2  0  0  0  0
 19 37  1  0  0  0  0
 20 21  1  0  0  0  0
 20 38  1  0  0  0  0
 21 22  2  0  0  0  0
 23 24  1  0  0  0  0
 23 39  1  0  0  0  0
 23 40  1  0  0  0  0
 24 41  1  0  0  0  0
 24 42  1  0  0  0  0
M  END
> <s_m_source_file>
AV-unprocessed.smi

> <i_m_source_file_index>
1968

> <i_lp_mmshare_version>
43012

> <i_f3d_flags>
0

> <s_epik_input>
W0NIM11DKD1PKU4xW0NIMl1bQ0gyXVtDSF0oW0NIMl1bQ0gyXTEpW05IXUMoPU8pW0NIMl1uMltjSF1jKEMoRikoRilGKVtjSF1bY0hdYzI9Tw==

> <s_epik_cmdline>
J2VwaWtfcHl0aG9uJywgJy1waCcsICc3LjAnLCAnLXRuJywgJzgnLCAnLW1hJywgJzIwMCcsICctbWV0YWxfYmluZGluZycsICctaW1hZScsICc8aW5maWxlLm1hZT4nLCAnLW9tYWUnLCAnPG91dGZpbGUubWFlPic=

> <r_lp_tautomer_probability>
1

> <r_epik_Ionization_Penalty>
1.143e-06

> <r_epik_Ionization_Penalty_Charging>
1.89481e-08

> <r_epik_Ionization_Penalty_Neutral>
1.12405e-06

> <r_epik_State_Penalty>
-0

> <r_epik_Charging_Adjusted_Penalty>
1.89481e-08

> <i_epik_Tot_Q>
0

> <i_epik_Tot_abs_Q>
0

> <r_epik_Metal_State_Penalty>
-0

> <b_epik_Metal_Only>
0

> <s_lp_Force_Field>
OPLS_2005

> <r_lp_Energy>
33.7668

> <b_lp_Chiralities_Consistent>
1

> <s_lp_Variant>
AV-unprocessed.smi:1968-1

> <Gold.Version>
5.8.1

> <Gold.Id.Protein>
6NUR|6NUR_protein|mol2

> <Gold.PLP.Fitness>
49.5480

> <Gold.PLP.PLP>
-43.7125

> <Gold.PLP.part.hbond>
-3.0000

> <Gold.PLP.part.metal>
0.0000

> <Gold.PLP.part.buried>
-5.6223

> <Gold.PLP.part.nonpolar>
-35.0119

> <Gold.PLP.part.repulsive>
0.1823

> <Gold.PLP.ligand.clash>
0.0000

> <Gold.PLP.ligand.torsion>
0.9873

> <Gold.PLP.Chemscore.Hbond>
2.5840

> <Gold.PLP.Chemscore.CHOScore>
0.0000

> <Gold.PLP.Chemscore.Metal>
0.0000

> <Gold.Chemscore.Hbonds>
donor molecule, donor type, donor heavy atom, donor atom, acceptor molecule, acceptor atom, score
      P1  H  6896  6909       L1    10  0.32
      P1  H  6931  6943       L1    22  0.86
      P1  H  6934  6947       L1    22  0.45

> <Gold.PLP.Chemscore.Internal.Correction>
0.0582

> <Gold.Rescore>
     Score         DG    S(hbond)    S(metal)    S(lipo)     H(rot)  DE(clash)    DE(int)     intcor
     16.64     -18.68       2.72        0.00      71.10       1.64       0.00       2.04       ----

> <Gold.Chemscore.Fitness>
16.6373

> <Gold.Chemscore.DG>
-18.6838

> <Gold.Chemscore.ZeroCoef>
-5.4800

> <Gold.Chemscore.Hbond>
2.7223

> <Gold.Chemscore.Metal>
0.0000

> <Gold.Chemscore.Lipo>
71.0993

> <Gold.Chemscore.Internal_Hbond>
0.0000

> <Gold.Chemscore.DEClash>
0.0048

> <Gold.Chemscore.DEInternal>
2.0416

> <Gold.Chemscore.Rot>
1.6435

> <Gold.Chemscore.Internal.Correction>
   9.000000E+99

> <Gold.Chemscore.Hbonds>
donor molecule, donor type, donor heavy atom, donor atom, acceptor molecule, acceptor atom, score
      P1  H  6896  6909       L1    10  0.32
      P1  H  6931  6943       L1    22  0.84
      P1  H  6934  6947       L1    22  0.42

> <Gold.Chemscore.Hbond.Weighted>
-9.0926

> <Gold.Chemscore.Metal.Weighted>
-0.0000

> <Gold.Chemscore.Lipo.Weighted>
-8.3186

> <Gold.Chemscore.Internal_Hbond.Weighted>
0.0000

> <Gold.Chemscore.DEClash.Weighted>
0.0048

> <Gold.Chemscore.DEInternal.Weighted>
2.0416

> <Gold.Chemscore.Rot.Weighted>
4.2074

> <Gold.Chemscore.Internal.Correction.Weighted>
   9.000000E+99

> <Gold.Protein.RotatedTorsions>
[ 6907 6896 6895 6894 ] final   99.66 input  -60.11 | X-H torsion
[ 7974 7965 7964 7962 ] final -161.10 input  175.53 | X-H torsion
[ 8008 7997 7996 7995 ] final -103.14 input   59.86 | X-H torsion
[ 10167 10162 10161 10158 ] final  121.20 input  -65.29 | X-H torsion
[ 10718 10713 10712 10709 ] final  -89.02 input   66.30 | X-H torsion
[ 10763 10752 10751 10750 ] final   -7.66 input  -60.55 | X-H torsion
[ 11005 11000 10999 10996 ] final -179.89 input  -57.11 | X-H torsion

> <Gold.Protein.ActiveResidues>
 VAL166  LYS551  ARG553  GLY616  TRP617  ASP618  TYR619  PRO620  LYS621  CYS622 
 ASP623  PHE694  ASN695  SER759  ASP760  ASP761  ALA762  ILE779  LEU786  VAL792 
 PHE793  MET794  SER795  GLU796  ALA797  LYS798  CYS799  TRP800  GLU811  SER814 

> <Gold.Protein.RotatedAtoms>
  152.5388  134.0395  159.8060 H   0  0  0  0  0  0  0  0  0  0  0  0  # atno 6907 bound_to 6896
  151.0553  133.5582  159.2646 H   0  0  0  0  0  0  0  0  0  0  0  0  # atno 6908 bound_to 6896
  151.2501  135.0627  159.9112 H   0  0  0  0  0  0  0  0  0  0  0  0  # atno 6909 bound_to 6896
  144.7403  140.3446  143.6128 H   0  0  0  0  0  0  0  0  0  0  0  0  # atno 7974 bound_to 7965
  154.8666  140.0424  157.1699 H   0  0  0  0  0  0  0  0  0  0  0  0  # atno 8008 bound_to 7997
  154.8783  140.2968  155.5419 H   0  0  0  0  0  0  0  0  0  0  0  0  # atno 8009 bound_to 7997
  156.2999  140.2416  156.3782 H   0  0  0  0  0  0  0  0  0  0  0  0  # atno 8010 bound_to 7997
  139.5934  144.7033  151.3234 H   0  0  0  0  0  0  0  0  0  0  0  0  # atno 10167 bound_to 10162
  155.9984  130.4857  150.5108 H   0  0  0  0  0  0  0  0  0  0  0  0  # atno 10718 bound_to 10713
  153.4295  135.7012  153.6240 H   0  0  0  0  0  0  0  0  0  0  0  0  # atno 10763 bound_to 10752
  153.4660  135.3725  155.2365 H   0  0  0  0  0  0  0  0  0  0  0  0  # atno 10764 bound_to 10752
  154.8725  135.4031  154.3677 H   0  0  0  0  0  0  0  0  0  0  0  0  # atno 10765 bound_to 10752
  140.4136  134.6669  157.4627 H   0  0  0  0  0  0  0  0  0  0  0  0  # atno 11005 bound_to 11000
  145.7339  139.1744  143.2415 LP  0  0  0  0  0  0  0  0  0  0  0  0  # atno 17320 bound_to 7965
  146.1185  140.7338  142.9469 LP  0  0  0  0  0  0  0  0  0  0  0  0  # atno 17321 bound_to 7965
  140.7192  143.7183  150.7716 LP  0  0  0  0  0  0  0  0  0  0  0  0  # atno 17342 bound_to 10162
  140.0743  143.5030  152.2563 LP  0  0  0  0  0  0  0  0  0  0  0  0  # atno 17343 bound_to 10162
  157.3081  131.0658  151.2020 LP  0  0  0  0  0  0  0  0  0  0  0  0  # atno 17370 bound_to 10713
  157.2976  130.6827  149.6147 LP  0  0  0  0  0  0  0  0  0  0  0  0  # atno 17371 bound_to 10713
  140.0250  134.6491  155.9186 LP  0  0  0  0  0  0  0  0  0  0  0  0  # atno 17394 bound_to 11000
  141.1811  133.6547  156.5026 LP  0  0  0  0  0  0  0  0  0  0  0  0  # atno 17395 bound_to 11000

$$$$
