AV-unprocessed.smi:1257|AV-procd|sdf|5286|dock3
  -GOLD-   22720 4403D 1   1.00000     0.00000
 Structure written by MMmdl.
 47 48  0  0  0  0  0  0  0  0  1 V2000
  143.9622  135.4686  151.8208 C   0  0  0  0  0  0  0  0  0  0  0  0
  143.8335  136.7720  152.6206 C   0  0  0  0  0  0  0  0  0  0  0  0
  144.8317  137.7548  152.2141 N   0  0  0  0  0  0  0  0  0  0  0  0
  146.1576  137.5505  152.2098 C   0  0  0  0  0  0  0  0  0  0  0  0
  146.6767  136.4907  152.5650 O   0  0  0  0  0  0  0  0  0  0  0  0
  147.0172  138.7355  151.7510 C   0  0  0  0  0  0  0  0  0  0  0  0
  147.7560  139.3578  152.8467 N   0  0  0  0  0  0  0  0  0  0  0  0
  147.2510  139.6465  154.0576 C   0  0  0  0  0  0  0  0  0  0  0  0
  146.1119  139.3417  154.4116 O   0  0  0  0  0  0  0  0  0  0  0  0
  148.1932  140.3327  155.0029 C   0  0  0  0  0  0  0  0  0  0  0  0
  147.9040  140.4096  156.3812 C   0  0  0  0  0  0  0  0  0  0  0  0
  148.7975  141.0877  157.2328 C   0  0  0  0  0  0  0  0  0  0  0  0
  149.9574  141.6831  156.6838 C   0  0  0  0  0  0  0  0  0  0  0  0
  150.8640  142.3707  157.5184 N   0  0  0  0  0  0  0  0  0  0  0  0
  151.8138  141.5330  158.2429 C   0  0  0  0  0  0  0  0  0  0  0  0
  152.4861  142.3373  159.3703 C   0  0  1  0  0  0  0  0  0  0  0  0
  153.5897  141.5331  160.0652 C   0  0  0  0  0  0  0  0  0  0  0  0
  153.0758  143.5199  158.8311 O   0  0  0  0  0  0  0  0  0  0  0  0
  152.1678  144.3809  158.1407 C   0  0  2  0  0  0  0  0  0  0  0  0
  151.1988  145.0953  159.0996 C   0  0  0  0  0  0  0  0  0  0  0  0
  151.4564  143.6076  157.0139 C   0  0  0  0  0  0  0  0  0  0  0  0
  150.2255  141.6221  155.3565 N   0  0  0  0  0  0  0  0  0  0  0  0
  149.3676  140.9698  154.5445 C   0  0  0  0  0  0  0  0  0  0  0  0
  143.2276  134.7360  152.1552 H   0  0  0  0  0  0  0  0  0  0  0  0
  144.9517  135.0269  151.9426 H   0  0  0  0  0  0  0  0  0  0  0  0
  143.7982  135.6367  150.7558 H   0  0  0  0  0  0  0  0  0  0  0  0
  142.8298  137.1863  152.5133 H   0  0  0  0  0  0  0  0  0  0  0  0
  143.9719  136.5659  153.6823 H   0  0  0  0  0  0  0  0  0  0  0  0
  144.4891  138.6551  151.9109 H   0  0  0  0  0  0  0  0  0  0  0  0
  147.7015  138.4146  150.9634 H   0  0  0  0  0  0  0  0  0  0  0  0
  146.3639  139.4882  151.3091 H   0  0  0  0  0  0  0  0  0  0  0  0
  148.7099  139.6272  152.6549 H   0  0  0  0  0  0  0  0  0  0  0  0
  147.0114  139.9573  156.7885 H   0  0  0  0  0  0  0  0  0  0  0  0
  148.5756  141.1584  158.2873 H   0  0  0  0  0  0  0  0  0  0  0  0
  151.3319  140.6540  158.6693 H   0  0  0  0  0  0  0  0  0  0  0  0
  152.5655  141.1714  157.5399 H   0  0  0  0  0  0  0  0  0  0  0  0
  151.7427  142.6064  160.1209 H   0  0  0  0  0  0  0  0  0  0  0  0
  153.1909  140.6196  160.5071 H   0  0  0  0  0  0  0  0  0  0  0  0
  154.0506  142.1142  160.8642 H   0  0  0  0  0  0  0  0  0  0  0  0
  154.3748  141.2511  159.3631 H   0  0  0  0  0  0  0  0  0  0  0  0
  152.7779  145.1558  157.6758 H   0  0  0  0  0  0  0  0  0  0  0  0
  150.6104  145.8423  158.5665 H   0  0  0  0  0  0  0  0  0  0  0  0
  151.7438  145.6095  159.8915 H   0  0  0  0  0  0  0  0  0  0  0  0
  150.4961  144.4065  159.5680 H   0  0  0  0  0  0  0  0  0  0  0  0
  152.1748  143.3576  156.2320 H   0  0  0  0  0  0  0  0  0  0  0  0
  150.6936  144.2413  156.5596 H   0  0  0  0  0  0  0  0  0  0  0  0
  149.6320  140.9676  153.4972 H   0  0  0  0  0  0  0  0  0  0  0  0
  1  2  1  0  0  0  0
  1 24  1  0  0  0  0
  1 25  1  0  0  0  0
  1 26  1  0  0  0  0
  2  3  1  0  0  0  0
  2 27  1  0  0  0  0
  2 28  1  0  0  0  0
  3  4  1  0  0  0  0
  3 29  1  0  0  0  0
  4  5  2  0  0  0  0
  4  6  1  0  0  0  0
  6  7  1  0  0  0  0
  6 30  1  0  0  0  0
  6 31  1  0  0  0  0
  7  8  1  0  0  0  0
  7 32  1  0  0  0  0
  8  9  2  0  0  0  0
  8 10  1  0  0  0  0
 10 23  1  0  0  0  0
 10 11  2  0  0  0  0
 11 12  1  0  0  0  0
 11 33  1  0  0  0  0
 12 13  2  0  0  0  0
 12 34  1  0  0  0  0
 13 14  1  0  0  0  0
 13 22  1  0  0  0  0
 14 21  1  0  0  0  0
 14 15  1  0  0  0  0
 15 16  1  0  0  0  0
 15 35  1  0  0  0  0
 15 36  1  0  0  0  0
 16 17  1  0  0  0  0
 16 18  1  0  0  0  0
 16 37  1  0  0  0  0
 17 38  1  0  0  0  0
 17 39  1  0  0  0  0
 17 40  1  0  0  0  0
 18 19  1  0  0  0  0
 19 20  1  0  0  0  0
 19 21  1  0  0  0  0
 19 41  1  0  0  0  0
 20 42  1  0  0  0  0
 20 43  1  0  0  0  0
 20 44  1  0  0  0  0
 21 45  1  0  0  0  0
 21 46  1  0  0  0  0
 22 23  2  0  0  0  0
 23 47  1  0  0  0  0
M  END
> <s_m_source_file>
AV-unprocessed.smi

> <i_m_source_file_index>
1257

> <i_lp_mmshare_version>
43012

> <i_f3d_flags>
0

> <s_epik_input>
W0NIM11bQ0gyXVtOSF1DKD1PKVtDSDJdW05IXUMoPU8pYzFbY0hdW2NIXWMobltjSF0xKU4yW0NIMl1bQ0BASF0oW0NIM10pT1tDQEBIXShbQ0gzXSlbQ0gyXTI=

> <s_epik_cmdline>
J2VwaWtfcHl0aG9uJywgJy1waCcsICc3LjAnLCAnLXRuJywgJzgnLCAnLW1hJywgJzIwMCcsICctbWV0YWxfYmluZGluZycsICctaW1hZScsICc8aW5maWxlLm1hZT4nLCAnLW9tYWUnLCAnPG91dGZpbGUubWFlPic=

> <r_lp_tautomer_probability>
1

> <r_epik_Ionization_Penalty>
1.15681e-05

> <r_epik_Ionization_Penalty_Charging>
0

> <r_epik_Ionization_Penalty_Neutral>
1.15681e-05

> <r_epik_State_Penalty>
-0

> <r_epik_Charging_Adjusted_Penalty>
0

> <i_epik_Tot_Q>
0

> <i_epik_Tot_abs_Q>
0

> <r_epik_Metal_State_Penalty>
-0

> <b_epik_Metal_Only>
0

> <s_lp_Force_Field>
OPLS_2005

> <r_lp_Energy>
16.6587

> <b_lp_Chiralities_Consistent>
1

> <s_lp_Variant>
AV-unprocessed.smi:1257-3

> <Gold.Version>
5.8.1

> <Gold.Id.Protein>
6NUR|6NUR_protein|mol2

> <Gold.PLP.Fitness>
48.2819

> <Gold.PLP.PLP>
-42.5060

> <Gold.PLP.part.hbond>
-3.4452

> <Gold.PLP.part.metal>
0.0000

> <Gold.PLP.part.buried>
-5.7002

> <Gold.PLP.part.nonpolar>
-36.6020

> <Gold.PLP.part.repulsive>
2.5655

> <Gold.PLP.ligand.clash>
0.0000

> <Gold.PLP.ligand.torsion>
0.9128

> <Gold.PLP.Chemscore.Hbond>
1.6800

> <Gold.PLP.Chemscore.CHOScore>
0.7396

> <Gold.PLP.Chemscore.Metal>
0.0000

> <Gold.Chemscore.Hbonds>
donor molecule, donor type, donor heavy atom, donor atom, acceptor molecule, acceptor atom, score
      L1  H     3    29       P1 10175  0.95
      L1  H     7    32       P1  7957  0.66
      L1  C    23    47       P1  7957  1.00

> <Gold.PLP.Chemscore.Internal.Correction>
0.3428

> <Gold.Rescore>
     Score         DG    S(hbond)    S(metal)    S(lipo)     H(rot)  DE(clash)    DE(int)     intcor
     15.06     -17.20       1.35        0.00      98.88       1.71       0.20       1.95       ----

> <Gold.Chemscore.Fitness>
15.0571

> <Gold.Chemscore.DG>
-17.2047

> <Gold.Chemscore.ZeroCoef>
-5.4800

> <Gold.Chemscore.Hbond>
1.3547

> <Gold.Chemscore.Metal>
0.0000

> <Gold.Chemscore.Lipo>
98.8796

> <Gold.Chemscore.Internal_Hbond>
0.0000

> <Gold.Chemscore.DEClash>
0.2025

> <Gold.Chemscore.DEInternal>
1.9452

> <Gold.Chemscore.Rot>
1.7066

> <Gold.Chemscore.Internal.Correction>
   9.000000E+99

> <Gold.Chemscore.Hbonds>
donor molecule, donor type, donor heavy atom, donor atom, acceptor molecule, acceptor atom, score
      L1  H     3    29       P1 10175  0.85
      L1  H     7    32       P1  7957  0.66

> <Gold.Chemscore.Hbond.Weighted>
-4.5248

> <Gold.Chemscore.Metal.Weighted>
-0.0000

> <Gold.Chemscore.Lipo.Weighted>
-11.5689

> <Gold.Chemscore.Internal_Hbond.Weighted>
0.0000

> <Gold.Chemscore.DEClash.Weighted>
0.2025

> <Gold.Chemscore.DEInternal.Weighted>
1.9452

> <Gold.Chemscore.Rot.Weighted>
4.3690

> <Gold.Chemscore.Internal.Correction.Weighted>
   9.000000E+99

> <Gold.Protein.RotatedTorsions>
[ 6907 6896 6895 6894 ] final -154.73 input  -60.11 | X-H torsion
[ 7974 7965 7964 7962 ] final  129.00 input  175.53 | X-H torsion
[ 8008 7997 7996 7995 ] final   39.84 input   59.86 | X-H torsion
[ 10167 10162 10161 10158 ] final -125.47 input  -65.29 | X-H torsion
[ 10718 10713 10712 10709 ] final -119.10 input   66.30 | X-H torsion
[ 10763 10752 10751 10750 ] final   78.01 input  -60.55 | X-H torsion
[ 11005 11000 10999 10996 ] final -173.87 input  -57.11 | X-H torsion

> <Gold.Protein.ActiveResidues>
 VAL166  LYS551  ARG553  GLY616  TRP617  ASP618  TYR619  PRO620  LYS621  CYS622 
 ASP623  PHE694  ASN695  SER759  ASP760  ASP761  ALA762  ILE779  LEU786  VAL792 
 PHE793  MET794  SER795  GLU796  ALA797  LYS798  CYS799  TRP800  GLU811  SER814 

> <Gold.Protein.RotatedAtoms>
  151.2618  133.4298  159.2616 H   0  0  0  0  0  0  0  0  0  0  0  0  # atno 6907 bound_to 6896
  151.0524  134.9682  159.8228 H   0  0  0  0  0  0  0  0  0  0  0  0  # atno 6908 bound_to 6896
  152.5385  134.2572  159.8974 H   0  0  0  0  0  0  0  0  0  0  0  0  # atno 6909 bound_to 6896
  145.0335  139.4026  143.5138 H   0  0  0  0  0  0  0  0  0  0  0  0  # atno 7974 bound_to 7965
  155.2433  140.3347  155.4290 H   0  0  0  0  0  0  0  0  0  0  0  0  # atno 8008 bound_to 7997
  156.2246  140.1824  156.7438 H   0  0  0  0  0  0  0  0  0  0  0  0  # atno 8009 bound_to 7997
  154.5879  140.0643  156.9182 H   0  0  0  0  0  0  0  0  0  0  0  0  # atno 8010 bound_to 7997
  139.9817  143.5735  152.2376 H   0  0  0  0  0  0  0  0  0  0  0  0  # atno 10167 bound_to 10162
  156.1155  130.6283  150.9374 H   0  0  0  0  0  0  0  0  0  0  0  0  # atno 10718 bound_to 10713
  153.0842  135.4893  154.8563 H   0  0  0  0  0  0  0  0  0  0  0  0  # atno 10763 bound_to 10752
  154.7189  135.3035  154.9081 H   0  0  0  0  0  0  0  0  0  0  0  0  # atno 10764 bound_to 10752
  153.9751  135.6796  153.4801 H   0  0  0  0  0  0  0  0  0  0  0  0  # atno 10765 bound_to 10752
  140.4809  134.6076  157.4919 H   0  0  0  0  0  0  0  0  0  0  0  0  # atno 11005 bound_to 11000
  146.3501  139.9897  142.8687 LP  0  0  0  0  0  0  0  0  0  0  0  0  # atno 17320 bound_to 7965
  145.1740  140.9735  143.4305 LP  0  0  0  0  0  0  0  0  0  0  0  0  # atno 17321 bound_to 7965
  139.6405  144.7654  151.2349 LP  0  0  0  0  0  0  0  0  0  0  0  0  # atno 17342 bound_to 10162
  140.7486  143.6326  150.8409 LP  0  0  0  0  0  0  0  0  0  0  0  0  # atno 17343 bound_to 10162
  157.6339  131.0918  150.8388 LP  0  0  0  0  0  0  0  0  0  0  0  0  # atno 17370 bound_to 10713
  156.8492  130.5074  149.5313 LP  0  0  0  0  0  0  0  0  0  0  0  0  # atno 17371 bound_to 10713
  139.9827  134.7111  155.9830 LP  0  0  0  0  0  0  0  0  0  0  0  0  # atno 17394 bound_to 11000
  141.1531  133.6546  156.4077 LP  0  0  0  0  0  0  0  0  0  0  0  0  # atno 17395 bound_to 11000

$$$$
