AV-unprocessed.smi:1106|AV-procd|sdf|4778|dock1
  -GOLD-   22720 3313D 1   1.00000     0.00000
 Structure written by MMmdl.
 48 49  0  0  0  0  0  0  0  0  2 V2000
  146.5312  135.1897  154.1096 C   0  0  0  0  0  0  0  0  0  0  0  0
  146.4285  136.5550  154.8056 C   0  0  0  0  0  0  0  0  0  0  0  0
  147.6466  137.3182  154.7266 N   0  0  0  0  0  0  0  0  0  0  0  0
  148.8268  136.8601  155.2795 C   0  0  0  0  0  0  0  0  0  0  0  0
  149.9817  137.5580  155.2228 C   0  0  0  0  0  0  0  0  0  0  0  0
  151.1883  137.0589  155.7946 C   0  0  0  0  0  0  0  0  0  0  0  0
  152.1615  136.6316  156.2520 N   0  0  0  0  0  0  0  0  0  0  0  0
  150.0452  138.8616  154.5658 C   0  0  0  0  0  0  0  0  0  0  0  0
  151.0787  139.5259  154.4608 O   0  0  0  0  0  0  0  0  0  0  0  0
  148.8116  139.3115  154.0307 N   0  0  0  0  0  0  0  0  0  0  0  0
  148.8014  140.5963  153.3495 C   0  0  0  0  0  0  0  0  0  0  0  0
  149.2355  141.7686  154.2563 C   0  0  1  0  0  0  0  0  0  0  0  0
  148.4212  142.8875  153.9648 O   0  0  0  0  0  0  0  0  0  0  0  0
  149.0291  141.4358  155.7472 C   0  0  0  0  0  0  0  0  0  0  0  0
  149.5979  142.4807  156.6358 N   0  3  2  0  0  0  0  0  0  0  0  0
  151.0843  142.5096  156.6267 C   0  0  0  0  0  0  0  0  0  0  0  0
  151.6195  143.6986  157.4417 C   0  0  0  0  0  0  0  0  0  0  0  0
  151.0898  143.6703  158.8858 C   0  0  1  0  0  0  0  0  0  0  0  0
  151.5928  144.8716  159.6984 C   0  0  0  0  0  0  0  0  0  0  0  0
  149.5534  143.5993  158.8616 C   0  0  0  0  0  0  0  0  0  0  0  0
  149.0620  142.4103  158.0188 C   0  0  0  0  0  0  0  0  0  0  0  0
  147.6044  138.5737  154.0763 C   0  0  0  0  0  0  0  0  0  0  0  0
  146.5634  138.9979  153.5672 O   0  0  0  0  0  0  0  0  0  0  0  0
  145.5792  134.6615  154.1578 H   0  0  0  0  0  0  0  0  0  0  0  0
  147.2838  134.5547  154.5774 H   0  0  0  0  0  0  0  0  0  0  0  0
  146.7953  135.3034  153.0578 H   0  0  0  0  0  0  0  0  0  0  0  0
  145.6591  137.1688  154.3353 H   0  0  0  0  0  0  0  0  0  0  0  0
  146.1592  136.4707  155.8600 H   0  0  0  0  0  0  0  0  0  0  0  0
  148.8277  135.9005  155.7769 H   0  0  0  0  0  0  0  0  0  0  0  0
  149.3988  140.5240  152.4389 H   0  0  0  0  0  0  0  0  0  0  0  0
  147.7824  140.7366  152.9846 H   0  0  0  0  0  0  0  0  0  0  0  0
  150.2776  142.0242  154.0661 H   0  0  0  0  0  0  0  0  0  0  0  0
  147.5155  142.6157  153.9834 H   0  0  0  0  0  0  0  0  0  0  0  0
  147.9597  141.3217  155.9331 H   0  0  0  0  0  0  0  0  0  0  0  0
  149.4810  140.4738  155.9942 H   0  0  0  0  0  0  0  0  0  0  0  0
  151.4699  141.5740  157.0348 H   0  0  0  0  0  0  0  0  0  0  0  0
  151.4561  142.5824  155.6052 H   0  0  0  0  0  0  0  0  0  0  0  0
  152.7098  143.6792  157.4437 H   0  0  0  0  0  0  0  0  0  0  0  0
  151.3282  144.6316  156.9568 H   0  0  0  0  0  0  0  0  0  0  0  0
  151.4632  142.7654  159.3675 H   0  0  0  0  0  0  0  0  0  0  0  0
  151.2565  145.8139  159.2649 H   0  0  0  0  0  0  0  0  0  0  0  0
  152.6824  144.8922  159.7342 H   0  0  0  0  0  0  0  0  0  0  0  0
  151.2312  144.8304  160.7264 H   0  0  0  0  0  0  0  0  0  0  0  0
  149.1659  143.5129  159.8773 H   0  0  0  0  0  0  0  0  0  0  0  0
  149.1461  144.5259  158.4542 H   0  0  0  0  0  0  0  0  0  0  0  0
  147.9715  142.4200  157.9931 H   0  0  0  0  0  0  0  0  0  0  0  0
  149.3616  141.4680  158.4804 H   0  0  0  0  0  0  0  0  0  0  0  0
  149.2811  143.3639  156.2611 H   0  0  0  0  0  0  0  0  0  0  0  0
  1  2  1  0  0  0  0
  1 24  1  0  0  0  0
  1 25  1  0  0  0  0
  1 26  1  0  0  0  0
  2  3  1  0  0  0  0
  2 27  1  0  0  0  0
  2 28  1  0  0  0  0
  3 22  1  0  0  0  0
  3  4  1  0  0  0  0
  4  5  2  0  0  0  0
  4 29  1  0  0  0  0
  5  6  1  0  0  0  0
  5  8  1  0  0  0  0
  6  7  3  0  0  0  0
  8  9  2  0  0  0  0
  8 10  1  0  0  0  0
 10 11  1  0  0  0  0
 10 22  1  0  0  0  0
 11 12  1  0  0  0  0
 11 30  1  0  0  0  0
 11 31  1  0  0  0  0
 12 13  1  0  0  0  0
 12 14  1  0  0  0  0
 12 32  1  0  0  0  0
 13 33  1  0  0  0  0
 14 15  1  0  0  0  0
 14 34  1  0  0  0  0
 14 35  1  0  0  0  0
 15 21  1  0  0  0  0
 15 16  1  0  0  0  0
 15 48  1  0  0  0  0
 16 17  1  0  0  0  0
 16 36  1  0  0  0  0
 16 37  1  0  0  0  0
 17 18  1  0  0  0  0
 17 38  1  0  0  0  0
 17 39  1  0  0  0  0
 18 19  1  0  0  0  0
 18 20  1  0  0  0  0
 18 40  1  0  0  0  0
 19 41  1  0  0  0  0
 19 42  1  0  0  0  0
 19 43  1  0  0  0  0
 20 21  1  0  0  0  0
 20 44  1  0  0  0  0
 20 45  1  0  0  0  0
 21 46  1  0  0  0  0
 21 47  1  0  0  0  0
 22 23  2  0  0  0  0
M  CHG  1  15   1
M  END
> <s_m_source_file>
AV-unprocessed.smi

> <i_m_source_file_index>
1106

> <i_lp_mmshare_version>
43012

> <i_f3d_flags>
0

> <s_epik_input>
W0NIM11bQ0gyXW4xW2NIXWMoQyNOKWMoPU8pbihjMT1PKVtDSDJdW0NASF0oW09IXSlbQ0gyXU4yW0NIMl1bQ0gyXVtDSF0oW0NIM10pW0NIMl1bQ0gyXTI=

> <s_epik_cmdline>
J2VwaWtfcHl0aG9uJywgJy1waCcsICc3LjAnLCAnLXRuJywgJzgnLCAnLW1hJywgJzIwMCcsICctbWV0YWxfYmluZGluZycsICctaW1hZScsICc8aW5maWxlLm1hZT4nLCAnLW9tYWUnLCAnPG91dGZpbGUubWFlPic=

> <r_epik_Ionization_Penalty>
0.00136816

> <r_epik_Ionization_Penalty_Charging>
0.00136813

> <r_epik_Ionization_Penalty_Neutral>
3.19882e-08

> <r_epik_State_Penalty>
0.000910892

> <r_epik_Charging_Adjusted_Penalty>
0.00227902

> <i_epik_Tot_Q>
1

> <i_epik_Tot_abs_Q>
1

> <r_epik_Metal_State_Penalty>
-0

> <b_epik_Metal_Only>
0

> <s_lp_Force_Field>
OPLS_2005

> <r_lp_Energy>
28.6797

> <b_lp_Chiralities_Consistent>
1

> <s_lp_Variant>
AV-unprocessed.smi:1106-2

> <Gold.Version>
5.8.1

> <Gold.Id.Protein>
6NUR|6NUR_protein|mol2

> <Gold.PLP.Fitness>
47.3256

> <Gold.PLP.PLP>
-33.6800

> <Gold.PLP.part.hbond>
-5.8383

> <Gold.PLP.part.metal>
0.0000

> <Gold.PLP.part.buried>
3.2583

> <Gold.PLP.part.nonpolar>
-29.6148

> <Gold.PLP.part.repulsive>
0.3237

> <Gold.PLP.ligand.clash>
0.0000

> <Gold.PLP.ligand.torsion>
0.6673

> <Gold.PLP.Chemscore.Hbond>
4.9673

> <Gold.PLP.Chemscore.CHOScore>
0.0000

> <Gold.PLP.Chemscore.Metal>
0.0000

> <Gold.Chemscore.Hbonds>
donor molecule, donor type, donor heavy atom, donor atom, acceptor molecule, acceptor atom, score
      L1  H    15    48       P1  8028  2.00
      P1  H  7989  7998       L1     9  1.00
      P1  H  8022  8030       L1    13  0.99
      P1  H 10752 10764       L1     7  1.00

> <Gold.PLP.Chemscore.Internal.Correction>
0.0785

> <Gold.Rescore>
     Score         DG    S(hbond)    S(metal)    S(lipo)     H(rot)  DE(clash)    DE(int)     intcor
     18.56     -22.16       3.89        0.00      85.97       2.48       2.15       1.45       ----

> <Gold.Chemscore.Fitness>
18.5636

> <Gold.Chemscore.DG>
-22.1634

> <Gold.Chemscore.ZeroCoef>
-5.4800

> <Gold.Chemscore.Hbond>
3.8874

> <Gold.Chemscore.Metal>
0.0000

> <Gold.Chemscore.Lipo>
85.9663

> <Gold.Chemscore.Internal_Hbond>
0.0000

> <Gold.Chemscore.DEClash>
2.1544

> <Gold.Chemscore.DEInternal>
1.4454

> <Gold.Chemscore.Rot>
2.4838

> <Gold.Chemscore.Internal.Correction>
   9.000000E+99

> <Gold.Chemscore.Hbonds>
donor molecule, donor type, donor heavy atom, donor atom, acceptor molecule, acceptor atom, score
      L1  H    15    48       P1  8028  0.93
      P1  H  7989  7998       L1     9  1.00
      P1  H  8022  8030       L1    13  0.74
      P1  H 10752 10764       L1     7  0.91

> <Gold.Chemscore.Hbond.Weighted>
-12.9838

> <Gold.Chemscore.Metal.Weighted>
-0.0000

> <Gold.Chemscore.Lipo.Weighted>
-10.0581

> <Gold.Chemscore.Internal_Hbond.Weighted>
0.0000

> <Gold.Chemscore.DEClash.Weighted>
2.1544

> <Gold.Chemscore.DEInternal.Weighted>
1.4454

> <Gold.Chemscore.Rot.Weighted>
6.3585

> <Gold.Chemscore.Internal.Correction.Weighted>
   9.000000E+99

> <Gold.Protein.RotatedTorsions>
[ 6907 6896 6895 6894 ] final  111.94 input  -60.11 | X-H torsion
[ 7974 7965 7964 7962 ] final -145.35 input  175.53 | X-H torsion
[ 8008 7997 7996 7995 ] final -177.99 input   59.86 | X-H torsion
[ 10167 10162 10161 10158 ] final -129.29 input  -65.29 | X-H torsion
[ 10718 10713 10712 10709 ] final  122.92 input   66.30 | X-H torsion
[ 10763 10752 10751 10750 ] final  -24.88 input  -60.55 | X-H torsion
[ 11005 11000 10999 10996 ] final -125.78 input  -57.11 | X-H torsion

> <Gold.Protein.ActiveResidues>
 VAL166  LYS551  ARG553  GLY616  TRP617  ASP618  TYR619  PRO620  LYS621  CYS622 
 ASP623  PHE694  ASN695  SER759  ASP760  ASP761  ALA762  ILE779  LEU786  VAL792 
 PHE793  MET794  SER795  GLU796  ALA797  LYS798  CYS799  TRP800  GLU811  SER814 

> <Gold.Protein.RotatedAtoms>
  152.4943  133.8587  159.7238 H   0  0  0  0  0  0  0  0  0  0  0  0  # atno 6907 bound_to 6896
  150.9104  133.6995  159.2863 H   0  0  0  0  0  0  0  0  0  0  0  0  # atno 6908 bound_to 6896
  151.4406  135.1024  159.9721 H   0  0  0  0  0  0  0  0  0  0  0  0  # atno 6909 bound_to 6896
  144.8233  140.5594  143.5563 H   0  0  0  0  0  0  0  0  0  0  0  0  # atno 7974 bound_to 7965
  156.0135  140.1245  157.0430 H   0  0  0  0  0  0  0  0  0  0  0  0  # atno 8008 bound_to 7997
  154.4284  140.1083  156.5932 H   0  0  0  0  0  0  0  0  0  0  0  0  # atno 8009 bound_to 7997
  155.6046  140.3471  155.4606 H   0  0  0  0  0  0  0  0  0  0  0  0  # atno 8010 bound_to 7997
  139.9414  143.6159  152.2502 H   0  0  0  0  0  0  0  0  0  0  0  0  # atno 10167 bound_to 10162
  157.5705  131.1083  150.8376 H   0  0  0  0  0  0  0  0  0  0  0  0  # atno 10718 bound_to 10713
  153.6908  135.6962  153.5090 H   0  0  0  0  0  0  0  0  0  0  0  0  # atno 10763 bound_to 10752
  153.2414  135.4304  155.0701 H   0  0  0  0  0  0  0  0  0  0  0  0  # atno 10764 bound_to 10752
  154.8373  135.3509  154.6450 H   0  0  0  0  0  0  0  0  0  0  0  0  # atno 10765 bound_to 10752
  140.9734  134.0773  157.3844 H   0  0  0  0  0  0  0  0  0  0  0  0  # atno 11005 bound_to 11000
  145.5056  139.1481  143.3633 LP  0  0  0  0  0  0  0  0  0  0  0  0  # atno 17320 bound_to 7965
  146.2539  140.5196  142.8882 LP  0  0  0  0  0  0  0  0  0  0  0  0  # atno 17321 bound_to 7965
  139.6702  144.7661  151.1798 LP  0  0  0  0  0  0  0  0  0  0  0  0  # atno 17342 bound_to 10162
  140.7610  143.5877  150.8828 LP  0  0  0  0  0  0  0  0  0  0  0  0  # atno 17343 bound_to 10162
  156.8849  130.5192  149.5289 LP  0  0  0  0  0  0  0  0  0  0  0  0  # atno 17370 bound_to 10713
  156.0751  130.5775  150.9457 LP  0  0  0  0  0  0  0  0  0  0  0  0  # atno 17371 bound_to 10713
  139.8921  135.0122  156.6828 LP  0  0  0  0  0  0  0  0  0  0  0  0  # atno 17394 bound_to 11000
  140.7294  133.9072  155.8201 LP  0  0  0  0  0  0  0  0  0  0  0  0  # atno 17395 bound_to 11000

$$$$
