AV-unprocessed.smi:2850|AV-procd|sdf|10968|dock3
  -GOLD-   2272015423D 1   1.00000     0.00000
 Structure written by MMmdl.
 45 46  0  0  0  0  0  0  0  0  2 V2000
  152.5923  142.8820  161.4302 C   0  0  0  0  0  0  0  0  0  0  0  0
  153.6610  141.5919  160.7327 S   0  0  0  0  0  0  0  0  0  0  0  0
  152.9263  141.0682  159.2129 C   0  0  0  0  0  0  0  0  0  0  0  0
  151.7471  141.6728  158.7420 C   0  0  0  0  0  0  0  0  0  0  0  0
  151.2262  141.1955  157.5266 C   0  0  0  0  0  0  0  0  0  0  0  0
  151.9217  140.1538  156.8797 C   0  0  0  0  0  0  0  0  0  0  0  0
  151.4247  139.6580  155.6671 N   0  0  0  0  0  0  0  0  0  0  0  0
  151.8121  138.3354  155.1962 C   0  0  0  0  0  0  0  0  0  0  0  0
  150.5929  137.5089  154.7646 C   0  0  1  0  0  0  0  0  0  0  0  0
  150.9201  136.0041  154.6924 C   0  0  0  0  0  0  0  0  0  0  0  0
  149.7062  135.2216  154.3494 N   0  3  1  0  0  0  0  0  0  0  0  0
  149.9526  133.7630  154.2115 C   0  0  0  0  0  0  0  0  0  0  0  0
  148.6690  132.9521  153.9304 C   0  0  0  0  0  0  0  0  0  0  0  0
  148.8922  131.4414  154.1128 C   0  0  0  0  0  0  0  0  0  0  0  0
  148.1430  133.2483  152.5178 C   0  0  0  0  0  0  0  0  0  0  0  0
  148.6140  135.5205  155.3050 C   0  0  0  0  0  0  0  0  0  0  0  0
  148.3581  137.0344  155.3712 C   0  0  0  0  0  0  0  0  0  0  0  0
  149.5615  137.7021  155.7276 O   0  0  0  0  0  0  0  0  0  0  0  0
  153.0584  139.6205  157.3954 N   0  0  0  0  0  0  0  0  0  0  0  0
  153.5579  140.0718  158.5515 N   0  0  0  0  0  0  0  0  0  0  0  0
  153.0096  143.2461  162.3690 H   0  0  0  0  0  0  0  0  0  0  0  0
  151.5953  142.4872  161.6268 H   0  0  0  0  0  0  0  0  0  0  0  0
  152.5077  143.7233  160.7420 H   0  0  0  0  0  0  0  0  0  0  0  0
  151.2616  142.4676  159.2886 H   0  0  0  0  0  0  0  0  0  0  0  0
  150.3230  141.6154  157.1087 H   0  0  0  0  0  0  0  0  0  0  0  0
  150.6586  140.1333  155.2121 H   0  0  0  0  0  0  0  0  0  0  0  0
  152.4888  138.4568  154.3495 H   0  0  0  0  0  0  0  0  0  0  0  0
  152.3640  137.8114  155.9778 H   0  0  0  0  0  0  0  0  0  0  0  0
  150.2541  137.8534  153.7853 H   0  0  0  0  0  0  0  0  0  0  0  0
  151.6976  135.8429  153.9465 H   0  0  0  0  0  0  0  0  0  0  0  0
  151.3186  135.6596  155.6481 H   0  0  0  0  0  0  0  0  0  0  0  0
  150.6923  133.5977  153.4265 H   0  0  0  0  0  0  0  0  0  0  0  0
  150.3996  133.3844  155.1323 H   0  0  0  0  0  0  0  0  0  0  0  0
  147.8891  133.2627  154.6249 H   0  0  0  0  0  0  0  0  0  0  0  0
  149.6692  131.0716  153.4429 H   0  0  0  0  0  0  0  0  0  0  0  0
  147.9799  130.8825  153.9020 H   0  0  0  0  0  0  0  0  0  0  0  0
  149.1898  131.2013  155.1337 H   0  0  0  0  0  0  0  0  0  0  0  0
  148.8611  132.9464  151.7547 H   0  0  0  0  0  0  0  0  0  0  0  0
  147.9450  134.3124  152.3859 H   0  0  0  0  0  0  0  0  0  0  0  0
  147.2106  132.7165  152.3255 H   0  0  0  0  0  0  0  0  0  0  0  0
  147.7006  135.0092  154.9984 H   0  0  0  0  0  0  0  0  0  0  0  0
  148.8785  135.1420  156.2937 H   0  0  0  0  0  0  0  0  0  0  0  0
  147.9858  137.4109  154.4171 H   0  0  0  0  0  0  0  0  0  0  0  0
  147.5970  137.2548  156.1199 H   0  0  0  0  0  0  0  0  0  0  0  0
  149.3891  135.5466  153.4470 H   0  0  0  0  0  0  0  0  0  0  0  0
  1  2  1  0  0  0  0
  1 21  1  0  0  0  0
  1 22  1  0  0  0  0
  1 23  1  0  0  0  0
  2  3  1  0  0  0  0
  3 20  1  0  0  0  0
  3  4  2  0  0  0  0
  4  5  1  0  0  0  0
  4 24  1  0  0  0  0
  5  6  2  0  0  0  0
  5 25  1  0  0  0  0
  6  7  1  0  0  0  0
  6 19  1  0  0  0  0
  7  8  1  0  0  0  0
  7 26  1  0  0  0  0
  8  9  1  0  0  0  0
  8 27  1  0  0  0  0
  8 28  1  0  0  0  0
  9 18  1  0  0  0  0
  9 10  1  0  0  0  0
  9 29  1  0  0  0  0
 10 11  1  0  0  0  0
 10 30  1  0  0  0  0
 10 31  1  0  0  0  0
 11 12  1  0  0  0  0
 11 16  1  0  0  0  0
 11 45  1  0  0  0  0
 12 13  1  0  0  0  0
 12 32  1  0  0  0  0
 12 33  1  0  0  0  0
 13 14  1  0  0  0  0
 13 15  1  0  0  0  0
 13 34  1  0  0  0  0
 14 35  1  0  0  0  0
 14 36  1  0  0  0  0
 14 37  1  0  0  0  0
 15 38  1  0  0  0  0
 15 39  1  0  0  0  0
 15 40  1  0  0  0  0
 16 17  1  0  0  0  0
 16 41  1  0  0  0  0
 16 42  1  0  0  0  0
 17 18  1  0  0  0  0
 17 43  1  0  0  0  0
 17 44  1  0  0  0  0
 19 20  2  0  0  0  0
M  CHG  1  11   1
M  END
> <s_m_source_file>
AV-unprocessed.smi

> <i_m_source_file_index>
2850

> <i_lp_mmshare_version>
43012

> <i_f3d_flags>
0

> <s_epik_input>
W0NIM11TYzFbY0hdW2NIXWMobm4xKVtOSF1bQ0gyXVtDQEBIXTJbQ0gyXU4oW0NIMl1bQ0gyXU8yKVtDSDJdW0NIXShbQ0gzXSlbQ0gzXQ==

> <s_epik_cmdline>
J2VwaWtfcHl0aG9uJywgJy1waCcsICc3LjAnLCAnLXRuJywgJzgnLCAnLW1hJywgJzIwMCcsICctbWV0YWxfYmluZGluZycsICctaW1hZScsICc8aW5maWxlLm1hZT4nLCAnLW9tYWUnLCAnPG91dGZpbGUubWFlPic=

> <r_lp_tautomer_probability>
0.999978

> <r_epik_Ionization_Penalty>
0.0874875

> <r_epik_Ionization_Penalty_Charging>
0.0831532

> <r_epik_Ionization_Penalty_Neutral>
0.00433433

> <r_epik_State_Penalty>
0.0738301

> <r_epik_Charging_Adjusted_Penalty>
0.156983

> <i_epik_Tot_Q>
1

> <i_epik_Tot_abs_Q>
1

> <r_epik_Metal_State_Penalty>
0.073888

> <b_epik_Metal_Only>
0

> <s_lp_Force_Field>
OPLS_2005

> <r_lp_Energy>
24.628

> <b_lp_Chiralities_Consistent>
1

> <s_lp_Variant>
AV-unprocessed.smi:2850-4

> <Gold.Version>
5.8.1

> <Gold.Id.Protein>
6NUR|6NUR_protein|mol2

> <Gold.PLP.Fitness>
44.0648

> <Gold.PLP.PLP>
-36.3260

> <Gold.PLP.part.hbond>
-3.0000

> <Gold.PLP.part.metal>
0.0000

> <Gold.PLP.part.buried>
-1.9704

> <Gold.PLP.part.nonpolar>
-29.9586

> <Gold.PLP.part.repulsive>
0.2217

> <Gold.PLP.ligand.clash>
0.0000

> <Gold.PLP.ligand.torsion>
0.3971

> <Gold.PLP.Chemscore.Hbond>
2.7888

> <Gold.PLP.Chemscore.CHOScore>
0.0000

> <Gold.PLP.Chemscore.Metal>
0.0000

> <Gold.Chemscore.Hbonds>
donor molecule, donor type, donor heavy atom, donor atom, acceptor molecule, acceptor atom, score
      L1  H    11    45       P1  7948  2.00
      P1  H  7997  8010       L1    19  0.73

> <Gold.PLP.Chemscore.Internal.Correction>
0.1666

> <Gold.Rescore>
     Score         DG    S(hbond)    S(metal)    S(lipo)     H(rot)  DE(clash)    DE(int)     intcor
     14.97     -15.29       0.95        0.00      91.87       1.60       0.05       0.28       ----

> <Gold.Chemscore.Fitness>
14.9666

> <Gold.Chemscore.DG>
-15.2902

> <Gold.Chemscore.ZeroCoef>
-5.4800

> <Gold.Chemscore.Hbond>
0.9457

> <Gold.Chemscore.Metal>
0.0000

> <Gold.Chemscore.Lipo>
91.8676

> <Gold.Chemscore.Internal_Hbond>
0.0000

> <Gold.Chemscore.DEClash>
0.0471

> <Gold.Chemscore.DEInternal>
0.2765

> <Gold.Chemscore.Rot>
1.6003

> <Gold.Chemscore.Internal.Correction>
   9.000000E+99

> <Gold.Chemscore.Hbonds>
donor molecule, donor type, donor heavy atom, donor atom, acceptor molecule, acceptor atom, score
      L1  H    11    45       P1  7948  0.26
      P1  H  7997  8010       L1    19  0.07

> <Gold.Chemscore.Hbond.Weighted>
-3.1585

> <Gold.Chemscore.Metal.Weighted>
-0.0000

> <Gold.Chemscore.Lipo.Weighted>
-10.7485

> <Gold.Chemscore.Internal_Hbond.Weighted>
0.0000

> <Gold.Chemscore.DEClash.Weighted>
0.0471

> <Gold.Chemscore.DEInternal.Weighted>
0.2765

> <Gold.Chemscore.Rot.Weighted>
4.0968

> <Gold.Chemscore.Internal.Correction.Weighted>
   9.000000E+99

> <Gold.Protein.RotatedTorsions>
[ 6907 6896 6895 6894 ] final -116.83 input  -60.11 | X-H torsion
[ 7974 7965 7964 7962 ] final   66.79 input  175.53 | X-H torsion
[ 8008 7997 7996 7995 ] final   72.72 input   59.86 | X-H torsion
[ 10167 10162 10161 10158 ] final  -67.76 input  -65.29 | X-H torsion
[ 10718 10713 10712 10709 ] final   37.85 input   66.30 | X-H torsion
[ 10763 10752 10751 10750 ] final  172.72 input  -60.55 | X-H torsion
[ 11005 11000 10999 10996 ] final   91.57 input  -57.11 | X-H torsion

> <Gold.Protein.ActiveResidues>
 VAL166  LYS551  ARG553  GLY616  TRP617  ASP618  TYR619  PRO620  LYS621  CYS622 
 ASP623  PHE694  ASN695  SER759  ASP760  ASP761  ALA762  ILE779  LEU786  VAL792 
 PHE793  MET794  SER795  GLU796  ALA797  LYS798  CYS799  TRP800  GLU811  SER814 

> <Gold.Protein.RotatedAtoms>
  150.8088  133.8461  159.3192 H   0  0  0  0  0  0  0  0  0  0  0  0  # atno 6907 bound_to 6896
  151.6252  135.1026  160.0119 H   0  0  0  0  0  0  0  0  0  0  0  0  # atno 6908 bound_to 6896
  152.4179  133.7028  159.6490 H   0  0  0  0  0  0  0  0  0  0  0  0  # atno 6909 bound_to 6896
  145.8224  139.3092  143.1035 H   0  0  0  0  0  0  0  0  0  0  0  0  # atno 7974 bound_to 7965
  155.7730  140.3484  155.5257 H   0  0  0  0  0  0  0  0  0  0  0  0  # atno 8008 bound_to 7997
  155.8803  140.1001  157.1510 H   0  0  0  0  0  0  0  0  0  0  0  0  # atno 8009 bound_to 7997
  154.4024  140.1323  156.4175 H   0  0  0  0  0  0  0  0  0  0  0  0  # atno 8010 bound_to 7997
  140.5559  143.2312  151.6822 H   0  0  0  0  0  0  0  0  0  0  0  0  # atno 10167 bound_to 10162
  157.3518  130.7602  149.6984 H   0  0  0  0  0  0  0  0  0  0  0  0  # atno 10718 bound_to 10713
  154.4300  135.2759  155.1918 H   0  0  0  0  0  0  0  0  0  0  0  0  # atno 10763 bound_to 10752
  154.3828  135.6083  153.5804 H   0  0  0  0  0  0  0  0  0  0  0  0  # atno 10764 bound_to 10752
  152.9836  135.5884  154.4610 H   0  0  0  0  0  0  0  0  0  0  0  0  # atno 10765 bound_to 10752
  139.8836  134.8682  156.3448 H   0  0  0  0  0  0  0  0  0  0  0  0  # atno 11005 bound_to 11000
  145.9660  140.8798  143.0186 LP  0  0  0  0  0  0  0  0  0  0  0  0  # atno 17320 bound_to 7965
  144.6746  140.1879  143.7399 LP  0  0  0  0  0  0  0  0  0  0  0  0  # atno 17321 bound_to 7965
  139.5048  144.3742  152.0440 LP  0  0  0  0  0  0  0  0  0  0  0  0  # atno 17342 bound_to 10162
  140.2864  144.3803  150.6102 LP  0  0  0  0  0  0  0  0  0  0  0  0  # atno 17343 bound_to 10162
  155.9723  130.4138  150.4102 LP  0  0  0  0  0  0  0  0  0  0  0  0  # atno 17370 bound_to 10713
  157.2166  131.0472  151.2570 LP  0  0  0  0  0  0  0  0  0  0  0  0  # atno 17371 bound_to 10713
  140.9634  133.7373  156.0433 LP  0  0  0  0  0  0  0  0  0  0  0  0  # atno 17394 bound_to 11000
  140.7961  134.3562  157.5452 LP  0  0  0  0  0  0  0  0  0  0  0  0  # atno 17395 bound_to 11000

$$$$
