AV-unprocessed.smi:1599|AV-procd|sdf|6425|dock5
  -GOLD-   22720 7 63D 1   1.00000     0.00000
 Structure written by MMmdl.
 39 40  0  0  0  0  0  0  0  0  1 V2000
  151.9991  137.7784  155.0187 C   0  0  0  0  0  0  0  0  0  0  0  0
  150.4666  137.8661  155.0638 C   0  0  2  0  0  0  0  0  0  0  0  0
  149.9104  136.6606  154.4508 N   0  0  0  0  0  0  0  0  0  0  0  0
  150.0240  135.4123  154.9274 C   0  0  0  0  0  0  0  0  0  0  0  0
  150.6234  135.1277  155.9644 O   0  0  0  0  0  0  0  0  0  0  0  0
  149.3966  134.5296  154.1330 N   0  0  0  0  0  0  0  0  0  0  0  0
  149.2826  133.1296  154.3252 C   0  0  0  0  0  0  0  0  0  0  0  0
  149.7530  132.4263  155.4645 C   0  0  0  0  0  0  0  0  0  0  0  0
  149.5092  131.1287  155.3608 N   0  0  0  0  0  0  0  0  0  0  0  0
  148.8845  130.9813  154.1653 N   0  0  0  0  0  0  0  0  0  0  0  0
  148.4735  129.6595  153.7247 C   0  0  0  0  0  0  0  0  0  0  0  0
  146.9623  129.5895  153.4926 C   0  0  0  0  0  0  0  0  0  0  0  0
  146.1693  129.8093  154.5454 N   0  0  0  0  0  0  0  0  0  0  0  0
  146.5148  129.3311  152.3775 O   0  0  0  0  0  0  0  0  0  0  0  0
  148.7283  132.1859  153.5077 C   0  0  0  0  0  0  0  0  0  0  0  0
  149.9442  139.1292  154.3477 C   0  0  1  0  0  0  0  0  0  0  0  0
  148.4363  139.3647  154.4585 C   0  0  0  0  0  0  0  0  0  0  0  0
  148.3423  140.8518  154.2074 C   0  0  0  0  0  0  0  0  0  0  0  0
  149.5784  141.3682  154.9371 C   0  0  0  0  0  0  0  0  0  0  0  0
  150.5256  140.3027  154.9118 O   0  0  0  0  0  0  0  0  0  0  0  0
  152.4582  138.6441  155.4968 H   0  0  0  0  0  0  0  0  0  0  0  0
  152.3653  137.7333  153.9924 H   0  0  0  0  0  0  0  0  0  0  0  0
  152.3573  136.8900  155.5400 H   0  0  0  0  0  0  0  0  0  0  0  0
  150.1722  137.9168  156.1136 H   0  0  0  0  0  0  0  0  0  0  0  0
  149.3952  136.7914  153.5925 H   0  0  0  0  0  0  0  0  0  0  0  0
  148.9426  134.8994  153.3109 H   0  0  0  0  0  0  0  0  0  0  0  0
  150.2538  132.8044  156.3435 H   0  0  0  0  0  0  0  0  0  0  0  0
  149.0058  129.4030  152.8073 H   0  0  0  0  0  0  0  0  0  0  0  0
  148.7675  128.9284  154.4788 H   0  0  0  0  0  0  0  0  0  0  0  0
  145.1660  129.7685  154.4408 H   0  0  0  0  0  0  0  0  0  0  0  0
  146.5792  130.0113  155.4459 H   0  0  0  0  0  0  0  0  0  0  0  0
  148.2507  132.2524  152.5414 H   0  0  0  0  0  0  0  0  0  0  0  0
  150.2191  139.1008  153.2917 H   0  0  0  0  0  0  0  0  0  0  0  0
  147.8570  138.7739  153.7484 H   0  0  0  0  0  0  0  0  0  0  0  0
  148.0829  139.1349  155.4649 H   0  0  0  0  0  0  0  0  0  0  0  0
  148.4231  141.0561  153.1390 H   0  0  0  0  0  0  0  0  0  0  0  0
  147.4147  141.2934  154.5724 H   0  0  0  0  0  0  0  0  0  0  0  0
  149.9820  142.2711  154.4787 H   0  0  0  0  0  0  0  0  0  0  0  0
  149.3417  141.5932  155.9776 H   0  0  0  0  0  0  0  0  0  0  0  0
  1  2  1  0  0  0  0
  1 21  1  0  0  0  0
  1 22  1  0  0  0  0
  1 23  1  0  0  0  0
  2  3  1  0  0  0  0
  2 16  1  0  0  0  0
  2 24  1  0  0  0  0
  3  4  1  0  0  0  0
  3 25  1  0  0  0  0
  4  5  2  0  0  0  0
  4  6  1  0  0  0  0
  6  7  1  0  0  0  0
  6 26  1  0  0  0  0
  7 15  2  0  0  0  0
  7  8  1  0  0  0  0
  8  9  2  0  0  0  0
  8 27  1  0  0  0  0
  9 10  1  0  0  0  0
 10 11  1  0  0  0  0
 10 15  1  0  0  0  0
 11 12  1  0  0  0  0
 11 28  1  0  0  0  0
 11 29  1  0  0  0  0
 12 13  1  0  0  0  0
 12 14  2  0  0  0  0
 13 30  1  0  0  0  0
 13 31  1  0  0  0  0
 15 32  1  0  0  0  0
 16 20  1  0  0  0  0
 16 17  1  0  0  0  0
 16 33  1  0  0  0  0
 17 18  1  0  0  0  0
 17 34  1  0  0  0  0
 17 35  1  0  0  0  0
 18 19  1  0  0  0  0
 18 36  1  0  0  0  0
 18 37  1  0  0  0  0
 19 20  1  0  0  0  0
 19 38  1  0  0  0  0
 19 39  1  0  0  0  0
M  END
> <s_m_source_file>
AV-unprocessed.smi

> <i_m_source_file_index>
1599

> <i_lp_mmshare_version>
43012

> <i_f3d_flags>
0

> <s_epik_input>
TzFbQ0gyXVtDSDJdW0NIMl1bQ0BIXTFbQ0BIXShbQ0gzXSlbTkhdQyg9TylbTkhdYzJbY0hdbm4oW2NIXTIpW0NIMl1DKD1PKVtOSDJd

> <s_epik_cmdline>
J2VwaWtfcHl0aG9uJywgJy1waCcsICc3LjAnLCAnLXRuJywgJzgnLCAnLW1hJywgJzIwMCcsICctbWV0YWxfYmluZGluZycsICctaW1hZScsICc8aW5maWxlLm1hZT4nLCAnLW9tYWUnLCAnPG91dGZpbGUubWFlPic=

> <r_lp_tautomer_probability>
1

> <r_epik_Ionization_Penalty>
4.15391e-05

> <r_epik_Ionization_Penalty_Charging>
0

> <r_epik_Ionization_Penalty_Neutral>
4.15391e-05

> <r_epik_State_Penalty>
-0

> <r_epik_Charging_Adjusted_Penalty>
0

> <i_epik_Tot_Q>
0

> <i_epik_Tot_abs_Q>
0

> <r_epik_Metal_State_Penalty>
-0

> <b_epik_Metal_Only>
0

> <s_lp_Force_Field>
OPLS_2005

> <r_lp_Energy>
20.4971

> <b_lp_Chiralities_Consistent>
1

> <s_lp_Variant>
AV-unprocessed.smi:1599-3

> <Gold.Version>
5.8.1

> <Gold.Id.Protein>
6NUR|6NUR_protein|mol2

> <Gold.PLP.Fitness>
47.7351

> <Gold.PLP.PLP>
-34.0699

> <Gold.PLP.part.hbond>
-4.3178

> <Gold.PLP.part.metal>
0.0000

> <Gold.PLP.part.buried>
-3.5578

> <Gold.PLP.part.nonpolar>
-27.2804

> <Gold.PLP.part.repulsive>
0.3088

> <Gold.PLP.ligand.clash>
0.0000

> <Gold.PLP.ligand.torsion>
0.0781

> <Gold.PLP.Chemscore.Hbond>
3.8345

> <Gold.PLP.Chemscore.CHOScore>
0.7646

> <Gold.PLP.Chemscore.Metal>
0.0000

> <Gold.Chemscore.Hbonds>
donor molecule, donor type, donor heavy atom, donor atom, acceptor molecule, acceptor atom, score
      L1  H     3    25       P1  7948  0.98
      L1  H     6    26       P1  7948  0.94
      L1  H    13    30       P1 10956  1.00
      P1  H  7989  7998       L1    20  1.00
      L1  C    15    32       P1 10747  0.42

> <Gold.PLP.Chemscore.Internal.Correction>
0.0243

> <Gold.Rescore>
     Score         DG    S(hbond)    S(metal)    S(lipo)     H(rot)  DE(clash)    DE(int)     intcor
     14.92     -16.73       3.06        0.00      58.86       2.28       0.04       1.77       ----

> <Gold.Chemscore.Fitness>
14.9200

> <Gold.Chemscore.DG>
-16.7312

> <Gold.Chemscore.ZeroCoef>
-5.4800

> <Gold.Chemscore.Hbond>
3.0560

> <Gold.Chemscore.Metal>
0.0000

> <Gold.Chemscore.Lipo>
58.8606

> <Gold.Chemscore.Internal_Hbond>
0.0000

> <Gold.Chemscore.DEClash>
0.0402

> <Gold.Chemscore.DEInternal>
1.7709

> <Gold.Chemscore.Rot>
2.2823

> <Gold.Chemscore.Internal.Correction>
   9.000000E+99

> <Gold.Chemscore.Hbonds>
donor molecule, donor type, donor heavy atom, donor atom, acceptor molecule, acceptor atom, score
      L1  H     3    25       P1  7948  0.87
      L1  H     6    26       P1  7948  0.23
      L1  H    13    30       P1 10956  0.82
      P1  H  7989  7998       L1    20  0.08

> <Gold.Chemscore.Hbond.Weighted>
-10.2072

> <Gold.Chemscore.Metal.Weighted>
-0.0000

> <Gold.Chemscore.Lipo.Weighted>
-6.8867

> <Gold.Chemscore.Internal_Hbond.Weighted>
0.0000

> <Gold.Chemscore.DEClash.Weighted>
0.0402

> <Gold.Chemscore.DEInternal.Weighted>
1.7709

> <Gold.Chemscore.Rot.Weighted>
5.8427

> <Gold.Chemscore.Internal.Correction.Weighted>
   9.000000E+99

> <Gold.Protein.RotatedTorsions>
[ 6907 6896 6895 6894 ] final  -17.91 input  -60.11 | X-H torsion
[ 7974 7965 7964 7962 ] final -158.25 input  175.53 | X-H torsion
[ 8008 7997 7996 7995 ] final  -20.54 input   59.86 | X-H torsion
[ 10167 10162 10161 10158 ] final  -62.72 input  -65.29 | X-H torsion
[ 10718 10713 10712 10709 ] final -162.81 input   66.30 | X-H torsion
[ 10763 10752 10751 10750 ] final  -15.43 input  -60.55 | X-H torsion
[ 11005 11000 10999 10996 ] final  116.93 input  -57.11 | X-H torsion

> <Gold.Protein.ActiveResidues>
 VAL166  LYS551  ARG553  GLY616  TRP617  ASP618  TYR619  PRO620  LYS621  CYS622 
 ASP623  PHE694  ASN695  SER759  ASP760  ASP761  ALA762  ILE779  LEU786  VAL792 
 PHE793  MET794  SER795  GLU796  ALA797  LYS798  CYS799  TRP800  GLU811  SER814 

> <Gold.Protein.RotatedAtoms>
  151.2862  135.0728  159.9187 H   0  0  0  0  0  0  0  0  0  0  0  0  # atno 6907 bound_to 6896
  152.5325  133.9979  159.7891 H   0  0  0  0  0  0  0  0  0  0  0  0  # atno 6908 bound_to 6896
  151.0241  133.5799  159.2698 H   0  0  0  0  0  0  0  0  0  0  0  0  # atno 6909 bound_to 6896
  144.7513  140.3854  143.6045 H   0  0  0  0  0  0  0  0  0  0  0  0  # atno 7974 bound_to 7965
  154.4763  140.2059  155.9870 H   0  0  0  0  0  0  0  0  0  0  0  0  # atno 8008 bound_to 7997
  156.1094  140.3231  155.8021 H   0  0  0  0  0  0  0  0  0  0  0  0  # atno 8009 bound_to 7997
  155.4661  140.0527  157.2976 H   0  0  0  0  0  0  0  0  0  0  0  0  # atno 8010 bound_to 7997
  140.5920  143.2343  151.6119 H   0  0  0  0  0  0  0  0  0  0  0  0  # atno 10167 bound_to 10162
  156.6158  130.8869  151.2947 H   0  0  0  0  0  0  0  0  0  0  0  0  # atno 10718 bound_to 10713
  153.5432  135.7013  153.5626 H   0  0  0  0  0  0  0  0  0  0  0  0  # atno 10763 bound_to 10752
  153.3583  135.3976  155.1699 H   0  0  0  0  0  0  0  0  0  0  0  0  # atno 10764 bound_to 10752
  154.8671  135.3782  154.4938 H   0  0  0  0  0  0  0  0  0  0  0  0  # atno 10765 bound_to 10752
  139.9057  134.9604  156.7273 H   0  0  0  0  0  0  0  0  0  0  0  0  # atno 11005 bound_to 11000
  145.6933  139.1644  143.2634 LP  0  0  0  0  0  0  0  0  0  0  0  0  # atno 17320 bound_to 7965
  146.1467  140.6982  142.9341 LP  0  0  0  0  0  0  0  0  0  0  0  0  # atno 17321 bound_to 7965
  139.5233  144.3136  152.0971 LP  0  0  0  0  0  0  0  0  0  0  0  0  # atno 17342 bound_to 10162
  140.2302  144.4376  150.6303 LP  0  0  0  0  0  0  0  0  0  0  0  0  # atno 17343 bound_to 10162
  157.7241  130.9599  150.1562 LP  0  0  0  0  0  0  0  0  0  0  0  0  # atno 17370 bound_to 10713
  156.2352  130.3686  149.8399 LP  0  0  0  0  0  0  0  0  0  0  0  0  # atno 17371 bound_to 10713
  140.6953  133.9354  155.7991 LP  0  0  0  0  0  0  0  0  0  0  0  0  # atno 17394 bound_to 11000
  141.0412  134.0619  157.3900 LP  0  0  0  0  0  0  0  0  0  0  0  0  # atno 17395 bound_to 11000

$$$$
