AV-unprocessed.smi:1757|AV-procd|sdf|7078|dock2
  -GOLD-   22720 8293D 1   1.00000     0.00000
 Structure written by MMmdl.
 39 40  0  0  0  0  0  0  0  0  3 V2000
  147.2422  137.8297  154.2943 C   0  0  0  0  0  0  0  0  0  0  0  0
  148.6894  137.5264  154.2732 N   0  3  2  0  0  0  0  0  0  0  0  0
  149.0755  136.5422  155.3149 C   0  0  0  0  0  0  0  0  0  0  0  0
  150.5598  136.1511  155.1880 C   0  0  0  0  0  0  0  0  0  0  0  0
  151.4857  137.3803  155.2185 C   0  0  2  0  0  0  0  0  0  0  0  0
  151.5302  137.9524  156.5636 N   0  0  0  0  0  0  0  0  0  0  0  0
  152.0427  139.1499  156.8824 C   0  0  0  0  0  0  0  0  0  0  0  0
  152.5354  139.9124  156.0517 O   0  0  0  0  0  0  0  0  0  0  0  0
  151.9168  139.3860  158.2006 N   0  0  0  0  0  0  0  0  0  0  0  0
  152.3176  140.5043  158.9519 C   0  0  0  0  0  0  0  0  0  0  0  0
  151.9828  141.7941  158.6704 C   0  0  0  0  0  0  0  0  0  0  0  0
  152.4399  142.9137  159.4841 C   0  0  0  0  0  0  0  0  0  0  0  0
  152.0056  144.3513  159.2604 C   0  0  0  0  0  0  0  0  0  0  0  0
  152.5719  144.8577  158.1647 F   0  0  0  0  0  0  0  0  0  0  0  0
  150.6834  144.4075  159.1080 F   0  0  0  0  0  0  0  0  0  0  0  0
  152.3379  145.1188  160.2985 F   0  0  0  0  0  0  0  0  0  0  0  0
  153.2243  142.5053  160.5452 C   0  0  0  0  0  0  0  0  0  0  0  0
  153.6242  141.2581  160.8768 N   0  5  0  0  0  0  0  0  0  0  0  0
  153.1902  140.2185  160.1098 C   0  0  0  0  0  0  0  0  0  0  0  0
  153.5089  139.0554  160.3603 O   0  0  0  0  0  0  0  0  0  0  0  0
  151.0162  138.4110  154.1710 C   0  0  0  0  0  0  0  0  0  0  0  0
  149.5240  138.7522  154.3284 C   0  0  0  0  0  0  0  0  0  0  0  0
  146.9559  138.3065  155.2327 H   0  0  0  0  0  0  0  0  0  0  0  0
  146.6560  136.9171  154.1803 H   0  0  0  0  0  0  0  0  0  0  0  0
  146.9772  138.4990  153.4750 H   0  0  0  0  0  0  0  0  0  0  0  0
  148.8756  136.9587  156.3036 H   0  0  0  0  0  0  0  0  0  0  0  0
  148.4574  135.6488  155.2188 H   0  0  0  0  0  0  0  0  0  0  0  0
  150.8326  135.4512  155.9790 H   0  0  0  0  0  0  0  0  0  0  0  0
  150.7069  135.6168  154.2482 H   0  0  0  0  0  0  0  0  0  0  0  0
  152.4946  137.0511  154.9620 H   0  0  0  0  0  0  0  0  0  0  0  0
  151.1495  137.3915  157.3117 H   0  0  0  0  0  0  0  0  0  0  0  0
  151.4341  138.6817  158.7394 H   0  0  0  0  0  0  0  0  0  0  0  0
  151.3756  142.0355  157.8139 H   0  0  0  0  0  0  0  0  0  0  0  0
  153.5796  143.3006  161.2347 H   0  0  0  0  0  0  0  0  0  0  0  0
  151.6153  139.3205  154.2276 H   0  0  0  0  0  0  0  0  0  0  0  0
  151.1839  138.0049  153.1728 H   0  0  0  0  0  0  0  0  0  0  0  0
  149.2232  139.4346  153.5325 H   0  0  0  0  0  0  0  0  0  0  0  0
  149.3509  139.2727  155.2718 H   0  0  0  0  0  0  0  0  0  0  0  0
  148.8771  137.0904  153.3814 H   0  0  0  0  0  0  0  0  0  0  0  0
  1  2  1  0  0  0  0
  1 23  1  0  0  0  0
  1 24  1  0  0  0  0
  1 25  1  0  0  0  0
  2 22  1  0  0  0  0
  2  3  1  0  0  0  0
  2 39  1  0  0  0  0
  3  4  1  0  0  0  0
  3 26  1  0  0  0  0
  3 27  1  0  0  0  0
  4  5  1  0  0  0  0
  4 28  1  0  0  0  0
  4 29  1  0  0  0  0
  5  6  1  0  0  0  0
  5 21  1  0  0  0  0
  5 30  1  0  0  0  0
  6  7  1  0  0  0  0
  6 31  1  0  0  0  0
  7  8  2  0  0  0  0
  7  9  1  0  0  0  0
  9 10  1  0  0  0  0
  9 32  1  0  0  0  0
 10 19  1  0  0  0  0
 10 11  2  0  0  0  0
 11 12  1  0  0  0  0
 11 33  1  0  0  0  0
 12 13  1  0  0  0  0
 12 17  2  0  0  0  0
 13 14  1  0  0  0  0
 13 15  1  0  0  0  0
 13 16  1  0  0  0  0
 17 18  1  0  0  0  0
 17 34  1  0  0  0  0
 18 19  1  0  0  0  0
 19 20  2  0  0  0  0
 21 22  1  0  0  0  0
 21 35  1  0  0  0  0
 21 36  1  0  0  0  0
 22 37  1  0  0  0  0
 22 38  1  0  0  0  0
M  CHG  1   2   1
M  CHG  1  18  -1
M  END
> <s_m_source_file>
AV-unprocessed.smi

> <i_m_source_file_index>
1757

> <i_lp_mmshare_version>
43012

> <i_f3d_flags>
0

> <s_epik_input>
W0NIM11OMVtDSDJdW0NIMl1bQ0hdKFtDSDJdW0NIMl0xKVtOSF1DKD1PKVtOSF1jMltjSF1jKEMoRikoRilGKVtjSF1bbkhdYzI9Tw==

> <s_epik_cmdline>
J2VwaWtfcHl0aG9uJywgJy1waCcsICc3LjAnLCAnLXRuJywgJzgnLCAnLW1hJywgJzIwMCcsICctbWV0YWxfYmluZGluZycsICctaW1hZScsICc8aW5maWxlLm1hZT4nLCAnLW9tYWUnLCAnPG91dGZpbGUubWFlPic=

> <r_lp_tautomer_probability>
1

> <r_epik_Ionization_Penalty>
3.04759

> <r_epik_Ionization_Penalty_Charging>
0.155898

> <r_epik_Ionization_Penalty_Neutral>
2.89169

> <r_epik_State_Penalty>
2.88714

> <r_epik_Charging_Adjusted_Penalty>
3.04304

> <i_epik_Tot_Q>
0

> <i_epik_Tot_abs_Q>
2

> <r_epik_Metal_State_Penalty>
0.445786

> <b_epik_Metal_Only>
1

> <s_lp_Force_Field>
OPLS_2005

> <r_lp_Energy>
26.2534

> <b_lp_Chiralities_Consistent>
1

> <s_lp_Variant>
AV-unprocessed.smi:1757-4

> <Gold.Version>
5.8.1

> <Gold.Id.Protein>
6NUR|6NUR_protein|mol2

> <Gold.PLP.Fitness>
50.3854

> <Gold.PLP.PLP>
-43.2393

> <Gold.PLP.part.hbond>
-2.0000

> <Gold.PLP.part.metal>
0.0000

> <Gold.PLP.part.buried>
-6.4470

> <Gold.PLP.part.nonpolar>
-34.4448

> <Gold.PLP.part.repulsive>
0.1505

> <Gold.PLP.ligand.clash>
0.0000

> <Gold.PLP.ligand.torsion>
0.9531

> <Gold.PLP.Chemscore.Hbond>
3.0000

> <Gold.PLP.Chemscore.CHOScore>
0.0000

> <Gold.PLP.Chemscore.Metal>
0.0000

> <Gold.Chemscore.Hbonds>
donor molecule, donor type, donor heavy atom, donor atom, acceptor molecule, acceptor atom, score
      L1  H     2    39       P1  7948  2.00
      P1  H  7997  8009       L1     8  1.00

> <Gold.PLP.Chemscore.Internal.Correction>
0.0524

> <Gold.Rescore>
     Score         DG    S(hbond)    S(metal)    S(lipo)     H(rot)  DE(clash)    DE(int)     intcor
     16.63     -18.93       1.92        0.00      82.03       1.00       0.06       2.24       ----

> <Gold.Chemscore.Fitness>
16.6266

> <Gold.Chemscore.DG>
-18.9310

> <Gold.Chemscore.ZeroCoef>
-5.4800

> <Gold.Chemscore.Hbond>
1.9203

> <Gold.Chemscore.Metal>
0.0000

> <Gold.Chemscore.Lipo>
82.0281

> <Gold.Chemscore.Internal_Hbond>
0.0000

> <Gold.Chemscore.DEClash>
0.0621

> <Gold.Chemscore.DEInternal>
2.2423

> <Gold.Chemscore.Rot>
1.0000

> <Gold.Chemscore.Internal.Correction>
   9.000000E+99

> <Gold.Chemscore.Hbonds>
donor molecule, donor type, donor heavy atom, donor atom, acceptor molecule, acceptor atom, score
      L1  H     2    39       P1  7948  1.00
      P1  H  7997  8009       L1     8  0.74

> <Gold.Chemscore.Hbond.Weighted>
-6.4137

> <Gold.Chemscore.Metal.Weighted>
-0.0000

> <Gold.Chemscore.Lipo.Weighted>
-9.5973

> <Gold.Chemscore.Internal_Hbond.Weighted>
0.0000

> <Gold.Chemscore.DEClash.Weighted>
0.0621

> <Gold.Chemscore.DEInternal.Weighted>
2.2423

> <Gold.Chemscore.Rot.Weighted>
2.5600

> <Gold.Chemscore.Internal.Correction.Weighted>
   9.000000E+99

> <Gold.Protein.RotatedTorsions>
[ 6907 6896 6895 6894 ] final  -21.98 input  -60.11 | X-H torsion
[ 7974 7965 7964 7962 ] final  -99.68 input  175.53 | X-H torsion
[ 8008 7997 7996 7995 ] final -164.96 input   59.86 | X-H torsion
[ 10167 10162 10161 10158 ] final -128.56 input  -65.29 | X-H torsion
[ 10718 10713 10712 10709 ] final -110.91 input   66.30 | X-H torsion
[ 10763 10752 10751 10750 ] final  151.18 input  -60.55 | X-H torsion
[ 11005 11000 10999 10996 ] final  133.86 input  -57.11 | X-H torsion

> <Gold.Protein.ActiveResidues>
 VAL166  LYS551  ARG553  GLY616  TRP617  ASP618  TYR619  PRO620  LYS621  CYS622 
 ASP623  PHE694  ASN695  SER759  ASP760  ASP761  ALA762  ILE779  LEU786  VAL792 
 PHE793  MET794  SER795  GLU796  ALA797  LYS798  CYS799  TRP800  GLU811  SER814 

> <Gold.Protein.RotatedAtoms>
  151.2253  135.0534  159.8965 H   0  0  0  0  0  0  0  0  0  0  0  0  # atno 6907 bound_to 6896
  152.5411  134.0595  159.8156 H   0  0  0  0  0  0  0  0  0  0  0  0  # atno 6908 bound_to 6896
  151.0767  133.5374  159.2655 H   0  0  0  0  0  0  0  0  0  0  0  0  # atno 6909 bound_to 6896
  145.3043  140.9385  143.2805 H   0  0  0  0  0  0  0  0  0  0  0  0  # atno 7974 bound_to 7965
  155.8431  140.0951  157.1722 H   0  0  0  0  0  0  0  0  0  0  0  0  # atno 8008 bound_to 7997
  154.3982  140.1397  156.3814 H   0  0  0  0  0  0  0  0  0  0  0  0  # atno 8009 bound_to 7997
  155.8043  140.3452  155.5423 H   0  0  0  0  0  0  0  0  0  0  0  0  # atno 8010 bound_to 7997
  139.9490  143.6077  152.2481 H   0  0  0  0  0  0  0  0  0  0  0  0  # atno 10167 bound_to 10162
  156.0617  130.5840  150.8301 H   0  0  0  0  0  0  0  0  0  0  0  0  # atno 10718 bound_to 10713
  154.0996  135.2846  155.3254 H   0  0  0  0  0  0  0  0  0  0  0  0  # atno 10763 bound_to 10752
  154.6564  135.5350  153.7967 H   0  0  0  0  0  0  0  0  0  0  0  0  # atno 10764 bound_to 10752
  153.0383  135.6523  154.1161 H   0  0  0  0  0  0  0  0  0  0  0  0  # atno 10765 bound_to 10752
  139.9878  134.9526  156.9785 H   0  0  0  0  0  0  0  0  0  0  0  0  # atno 11005 bound_to 11000
  144.9067  139.4580  143.6606 LP  0  0  0  0  0  0  0  0  0  0  0  0  # atno 17320 bound_to 7965
  146.3141  139.7853  142.8997 LP  0  0  0  0  0  0  0  0  0  0  0  0  # atno 17321 bound_to 7965
  139.6643  144.7662  151.1903 LP  0  0  0  0  0  0  0  0  0  0  0  0  # atno 17342 bound_to 10162
  140.7588  143.5961  150.8746 LP  0  0  0  0  0  0  0  0  0  0  0  0  # atno 17343 bound_to 10162
  157.5630  131.0946  150.9531 LP  0  0  0  0  0  0  0  0  0  0  0  0  # atno 17370 bound_to 10713
  156.9764  130.5510  149.5293 LP  0  0  0  0  0  0  0  0  0  0  0  0  # atno 17371 bound_to 10713
  140.4967  134.1138  155.7243 LP  0  0  0  0  0  0  0  0  0  0  0  0  # atno 17394 bound_to 11000
  141.1540  133.8917  157.2025 LP  0  0  0  0  0  0  0  0  0  0  0  0  # atno 17395 bound_to 11000

$$$$
