AV-unprocessed.smi:249|AV-procd|sdf|1900|dock10
  -GOLD-   2262020573D 1   1.00000     0.00000
 Structure written by MMmdl.
 64 67  0  0  0  0  0  0  0  0  2 V2000
  149.0609  127.6664  152.8501 C   0  0  0  0  0  0  0  0  0  0  0  0
  147.7537  128.4720  152.9275 C   0  0  0  0  0  0  0  0  0  0  0  0
  147.9477  129.9435  152.7761 N   0  3  2  0  0  0  0  0  0  0  0  0
  148.9808  130.4650  153.7173 C   0  0  0  0  0  0  0  0  0  0  0  0
  149.2455  131.9664  153.5205 C   0  0  0  0  0  0  0  0  0  0  0  0
  147.9568  132.7957  153.6920 C   0  0  2  0  0  0  0  0  0  0  0  0
  147.4317  132.7929  155.0675 N   0  0  0  0  0  0  0  0  0  0  0  0
  146.0026  133.0376  155.2381 C   0  0  0  0  0  0  0  0  0  0  0  0
  148.1431  133.5319  155.9485 C   0  0  0  0  0  0  0  0  0  0  0  0
  147.8252  133.4132  157.2608 N   0  0  0  0  0  0  0  0  0  0  0  0
  148.4997  134.1170  158.1754 C   0  0  0  0  0  0  0  0  0  0  0  0
  149.5027  134.9792  157.9933 N   0  0  0  0  0  0  0  0  0  0  0  0
  149.8193  135.1028  156.6724 C   0  0  0  0  0  0  0  0  0  0  0  0
  149.1958  134.4204  155.5908 C   0  0  0  0  0  0  0  0  0  0  0  0
  149.7820  134.7963  154.3885 N   0  0  0  0  0  0  0  0  0  0  0  0
  150.6985  135.6572  154.7389 C   0  0  0  0  0  0  0  0  0  0  0  0
  150.7934  135.8956  156.0913 N   0  0  0  0  0  0  0  0  0  0  0  0
  151.7192  136.8037  156.7460 C   0  0  0  0  0  0  0  0  0  0  0  0
  151.3967  138.2962  156.4871 C   0  0  2  0  0  0  0  0  0  0  0  0
  152.1037  138.8499  155.2259 C   0  0  0  0  0  0  0  0  0  0  0  0
  153.5071  138.7152  155.3193 O   0  0  0  0  0  0  0  0  0  0  0  0
  151.6680  139.1662  157.7409 C   0  0  2  0  0  0  0  0  0  0  0  0
  151.5355  140.6630  157.5210 C   0  0  0  0  0  0  0  0  0  0  0  0
  152.2874  141.2283  158.7198 C   0  0  0  0  0  0  0  0  0  0  0  0
  153.3449  140.3103  158.9692 O   0  0  0  0  0  0  0  0  0  0  0  0
  153.1014  139.0878  158.2791 C   0  0  0  0  0  0  0  0  0  0  0  0
  146.9442  132.2414  152.6727 C   0  0  0  0  0  0  0  0  0  0  0  0
  146.6729  130.7298  152.8555 C   0  0  1  0  0  0  0  0  0  0  0  0
  145.6249  130.2910  151.8114 C   0  0  0  0  0  0  0  0  0  0  0  0
  148.8454  126.5987  152.8004 H   0  0  0  0  0  0  0  0  0  0  0  0
  149.6941  127.8174  153.7239 H   0  0  0  0  0  0  0  0  0  0  0  0
  149.6351  127.9268  151.9605 H   0  0  0  0  0  0  0  0  0  0  0  0
  147.1239  128.0903  152.1274 H   0  0  0  0  0  0  0  0  0  0  0  0
  147.2323  128.2600  153.8620 H   0  0  0  0  0  0  0  0  0  0  0  0
  148.6710  130.2654  154.7440 H   0  0  0  0  0  0  0  0  0  0  0  0
  149.9266  129.9464  153.5706 H   0  0  0  0  0  0  0  0  0  0  0  0
  150.0314  132.3018  154.1976 H   0  0  0  0  0  0  0  0  0  0  0  0
  149.6435  132.1268  152.5176 H   0  0  0  0  0  0  0  0  0  0  0  0
  148.1733  133.8305  153.4246 H   0  0  0  0  0  0  0  0  0  0  0  0
  145.7520  133.3006  156.2675 H   0  0  0  0  0  0  0  0  0  0  0  0
  145.4348  132.1417  154.9872 H   0  0  0  0  0  0  0  0  0  0  0  0
  145.6680  133.8482  154.5896 H   0  0  0  0  0  0  0  0  0  0  0  0
  148.1917  133.9702  159.2001 H   0  0  0  0  0  0  0  0  0  0  0  0
  151.3372  136.1446  154.0165 H   0  0  0  0  0  0  0  0  0  0  0  0
  151.6884  136.5844  157.8133 H   0  0  0  0  0  0  0  0  0  0  0  0
  152.7320  136.5722  156.4147 H   0  0  0  0  0  0  0  0  0  0  0  0
  150.3259  138.3540  156.2858 H   0  0  0  0  0  0  0  0  0  0  0  0
  151.7618  138.3372  154.3268 H   0  0  0  0  0  0  0  0  0  0  0  0
  151.8647  139.9029  155.0785 H   0  0  0  0  0  0  0  0  0  0  0  0
  153.7337  137.8101  155.1699 H   0  0  0  0  0  0  0  0  0  0  0  0
  150.9823  138.8798  158.5402 H   0  0  0  0  0  0  0  0  0  0  0  0
  152.0300  140.9597  156.5949 H   0  0  0  0  0  0  0  0  0  0  0  0
  150.5006  141.0039  157.4826 H   0  0  0  0  0  0  0  0  0  0  0  0
  152.6637  142.2358  158.5420 H   0  0  0  0  0  0  0  0  0  0  0  0
  151.6384  141.2575  159.5958 H   0  0  0  0  0  0  0  0  0  0  0  0
  153.2506  138.2319  158.9380 H   0  0  0  0  0  0  0  0  0  0  0  0
  153.8199  139.0122  157.4618 H   0  0  0  0  0  0  0  0  0  0  0  0
  146.0116  132.8041  152.7183 H   0  0  0  0  0  0  0  0  0  0  0  0
  147.3298  132.4128  151.6664 H   0  0  0  0  0  0  0  0  0  0  0  0
  146.2432  130.5737  153.8465 H   0  0  0  0  0  0  0  0  0  0  0  0
  144.7810  130.9813  151.7939 H   0  0  0  0  0  0  0  0  0  0  0  0
  145.2030  129.3108  152.0301 H   0  0  0  0  0  0  0  0  0  0  0  0
  146.0479  130.2673  150.8064 H   0  0  0  0  0  0  0  0  0  0  0  0
  148.3084  130.0897  151.8440 H   0  0  0  0  0  0  0  0  0  0  0  0
  1  2  1  0  0  0  0
  1 30  1  0  0  0  0
  1 31  1  0  0  0  0
  1 32  1  0  0  0  0
  2  3  1  0  0  0  0
  2 33  1  0  0  0  0
  2 34  1  0  0  0  0
  3 28  1  0  0  0  0
  3  4  1  0  0  0  0
  3 64  1  0  0  0  0
  4  5  1  0  0  0  0
  4 35  1  0  0  0  0
  4 36  1  0  0  0  0
  5  6  1  0  0  0  0
  5 37  1  0  0  0  0
  5 38  1  0  0  0  0
  6  7  1  0  0  0  0
  6 27  1  0  0  0  0
  6 39  1  0  0  0  0
  7  8  1  0  0  0  0
  7  9  1  0  0  0  0
  8 40  1  0  0  0  0
  8 41  1  0  0  0  0
  8 42  1  0  0  0  0
  9 14  1  0  0  0  0
  9 10  2  0  0  0  0
 10 11  1  0  0  0  0
 11 12  2  0  0  0  0
 11 43  1  0  0  0  0
 12 13  1  0  0  0  0
 13 17  1  0  0  0  0
 13 14  2  0  0  0  0
 14 15  1  0  0  0  0
 15 16  2  0  0  0  0
 16 17  1  0  0  0  0
 16 44  1  0  0  0  0
 17 18  1  0  0  0  0
 18 19  1  0  0  0  0
 18 45  1  0  0  0  0
 18 46  1  0  0  0  0
 19 20  1  0  0  0  0
 19 22  1  0  0  0  0
 19 47  1  0  0  0  0
 20 21  1  0  0  0  0
 20 48  1  0  0  0  0
 20 49  1  0  0  0  0
 21 50  1  0  0  0  0
 22 26  1  0  0  0  0
 22 23  1  0  0  0  0
 22 51  1  0  0  0  0
 23 24  1  0  0  0  0
 23 52  1  0  0  0  0
 23 53  1  0  0  0  0
 24 25  1  0  0  0  0
 24 54  1  0  0  0  0
 24 55  1  0  0  0  0
 25 26  1  0  0  0  0
 26 56  1  0  0  0  0
 26 57  1  0  0  0  0
 27 28  1  0  0  0  0
 27 58  1  0  0  0  0
 27 59  1  0  0  0  0
 28 29  1  0  0  0  0
 28 60  1  0  0  0  0
 29 61  1  0  0  0  0
 29 62  1  0  0  0  0
 29 63  1  0  0  0  0
M  CHG  1   3   1
M  END
> <s_m_source_file>
AV-unprocessed.smi

> <i_m_source_file_index>
249

> <i_lp_mmshare_version>
43012

> <i_f3d_flags>
0

> <s_epik_input>
W0NIM11bQ0gyXU4xW0NIMl1bQ0gyXVtDQEhdKFtDSDJdW0NASF0xW0NIM10pTihbQ0gzXSljKG5bY0hdbjIpYyhjMjMpbltjSF1uM1tDSDJdW0NASF0oW0NIMl1bT0hdKVtDQEBIXTRbQ0gyXVtDSDJdT1tDSDJdNA==

> <s_epik_cmdline>
J2VwaWtfcHl0aG9uJywgJy1waCcsICc3LjAnLCAnLXRuJywgJzgnLCAnLW1hJywgJzIwMCcsICctbWV0YWxfYmluZGluZycsICctaW1hZScsICc8aW5maWxlLm1hZT4nLCAnLW9tYWUnLCAnPG91dGZpbGUubWFlPic=

> <r_lp_tautomer_probability>
1

> <r_epik_Ionization_Penalty>
0.00294688

> <r_epik_Ionization_Penalty_Charging>
0.00169971

> <r_epik_Ionization_Penalty_Neutral>
0.00124717

> <r_epik_State_Penalty>
-0

> <r_epik_Charging_Adjusted_Penalty>
0.00169971

> <i_epik_Tot_Q>
1

> <i_epik_Tot_abs_Q>
1

> <r_epik_Metal_State_Penalty>
-0

> <b_epik_Metal_Only>
0

> <s_lp_Force_Field>
OPLS_2005

> <r_lp_Energy>
57.7525

> <b_lp_Chiralities_Consistent>
1

> <s_lp_Variant>
AV-unprocessed.smi:249-3

> <Gold.Version>
5.8.1

> <Gold.Id.Protein>
6NUR|6NUR_protein|mol2

> <Gold.PLP.Fitness>
46.6058

> <Gold.PLP.PLP>
-36.7659

> <Gold.PLP.part.hbond>
-3.4538

> <Gold.PLP.part.metal>
0.0000

> <Gold.PLP.part.buried>
-5.1018

> <Gold.PLP.part.nonpolar>
-28.1119

> <Gold.PLP.part.repulsive>
1.2782

> <Gold.PLP.ligand.clash>
0.0000

> <Gold.PLP.ligand.torsion>
1.1783

> <Gold.PLP.Chemscore.Hbond>
2.9280

> <Gold.PLP.Chemscore.CHOScore>
0.9252

> <Gold.PLP.Chemscore.Metal>
0.0000

> <Gold.Chemscore.Hbonds>
donor molecule, donor type, donor heavy atom, donor atom, acceptor molecule, acceptor atom, score
      L1  H     3    64       P1 10747  1.00
      P1  H  6896  6909       L1    12  1.00
      P1  H  7997  8009       L1    21  0.91
      L1  C    16    44       P1  7949  0.93

> <Gold.PLP.Chemscore.Internal.Correction>
0.6368

> <Gold.Rescore>
     Score         DG    S(hbond)    S(metal)    S(lipo)     H(rot)  DE(clash)    DE(int)     intcor
     14.32     -17.70       2.63        0.00      92.76       2.90       0.28       3.10       ----

> <Gold.Chemscore.Fitness>
14.3224

> <Gold.Chemscore.DG>
-17.7038

> <Gold.Chemscore.ZeroCoef>
-5.4800

> <Gold.Chemscore.Hbond>
2.6336

> <Gold.Chemscore.Metal>
0.0000

> <Gold.Chemscore.Lipo>
92.7628

> <Gold.Chemscore.Internal_Hbond>
0.0000

> <Gold.Chemscore.DEClash>
0.2836

> <Gold.Chemscore.DEInternal>
3.0978

> <Gold.Chemscore.Rot>
2.9006

> <Gold.Chemscore.Internal.Correction>
   9.000000E+99

> <Gold.Chemscore.Hbonds>
donor molecule, donor type, donor heavy atom, donor atom, acceptor molecule, acceptor atom, score
      L1  H     3    64       P1 10747  0.82
      P1  H  6896  6909       L1    12  0.32
      P1  H  7997  8009       L1    21  0.86

> <Gold.Chemscore.Hbond.Weighted>
-8.7962

> <Gold.Chemscore.Metal.Weighted>
-0.0000

> <Gold.Chemscore.Lipo.Weighted>
-10.8532

> <Gold.Chemscore.Internal_Hbond.Weighted>
0.0000

> <Gold.Chemscore.DEClash.Weighted>
0.2836

> <Gold.Chemscore.DEInternal.Weighted>
3.0978

> <Gold.Chemscore.Rot.Weighted>
7.4256

> <Gold.Chemscore.Internal.Correction.Weighted>
   9.000000E+99

> <Gold.Protein.RotatedTorsions>
[ 6907 6896 6895 6894 ] final   50.04 input  -60.11 | X-H torsion
[ 7974 7965 7964 7962 ] final  -11.26 input  175.53 | X-H torsion
[ 8008 7997 7996 7995 ] final -137.29 input   59.86 | X-H torsion
[ 10167 10162 10161 10158 ] final  -59.68 input  -65.29 | X-H torsion
[ 10718 10713 10712 10709 ] final  156.10 input   66.30 | X-H torsion
[ 10763 10752 10751 10750 ] final   21.63 input  -60.55 | X-H torsion
[ 11005 11000 10999 10996 ] final   83.46 input  -57.11 | X-H torsion

> <Gold.Protein.ActiveResidues>
 VAL166  LYS551  ARG553  GLY616  TRP617  ASP618  TYR619  PRO620  LYS621  CYS622 
 ASP623  PHE694  ASN695  SER759  ASP760  ASP761  ALA762  ILE779  LEU786  VAL792 
 PHE793  MET794  SER795  GLU796  ALA797  LYS798  CYS799  TRP800  GLU811  SER814 

> <Gold.Protein.RotatedAtoms>
  152.2974  134.7651  160.0364 H   0  0  0  0  0  0  0  0  0  0  0  0  # atno 6907 bound_to 6896
  151.8176  133.3385  159.3582 H   0  0  0  0  0  0  0  0  0  0  0  0  # atno 6908 bound_to 6896
  150.7258  134.5534  159.5850 H   0  0  0  0  0  0  0  0  0  0  0  0  # atno 6909 bound_to 6896
  146.2193  140.2884  142.8367 H   0  0  0  0  0  0  0  0  0  0  0  0  # atno 7974 bound_to 7965
  155.4094  140.0511  157.3032 H   0  0  0  0  0  0  0  0  0  0  0  0  # atno 8008 bound_to 7997
  154.4953  140.2136  155.9420 H   0  0  0  0  0  0  0  0  0  0  0  0  # atno 8009 bound_to 7997
  156.1397  140.3156  155.8481 H   0  0  0  0  0  0  0  0  0  0  0  0  # atno 8010 bound_to 7997
  140.6120  143.2390  151.5687 H   0  0  0  0  0  0  0  0  0  0  0  0  # atno 10167 bound_to 10162
  157.2095  131.0694  151.1978 H   0  0  0  0  0  0  0  0  0  0  0  0  # atno 10718 bound_to 10713
  153.0980  135.6665  153.9727 H   0  0  0  0  0  0  0  0  0  0  0  0  # atno 10763 bound_to 10752
  153.9306  135.3004  155.3447 H   0  0  0  0  0  0  0  0  0  0  0  0  # atno 10764 bound_to 10752
  154.7399  135.5084  153.9180 H   0  0  0  0  0  0  0  0  0  0  0  0  # atno 10765 bound_to 10752
  139.9030  134.8146  156.2312 H   0  0  0  0  0  0  0  0  0  0  0  0  # atno 11005 bound_to 11000
  144.9145  140.7796  143.5787 LP  0  0  0  0  0  0  0  0  0  0  0  0  # atno 17320 bound_to 7965
  145.2817  139.1916  143.4787 LP  0  0  0  0  0  0  0  0  0  0  0  0  # atno 17321 bound_to 7965
  139.5368  144.2758  152.1269 LP  0  0  0  0  0  0  0  0  0  0  0  0  # atno 17342 bound_to 10162
  140.1959  144.4706  150.6455 LP  0  0  0  0  0  0  0  0  0  0  0  0  # atno 17343 bound_to 10162
  157.3686  130.7169  149.6550 LP  0  0  0  0  0  0  0  0  0  0  0  0  # atno 17370 bound_to 10713
  155.9692  130.4205  150.4426 LP  0  0  0  0  0  0  0  0  0  0  0  0  # atno 17371 bound_to 10713
  141.0344  133.6971  156.1487 LP  0  0  0  0  0  0  0  0  0  0  0  0  # atno 17394 bound_to 11000
  140.7048  134.4525  157.5584 LP  0  0  0  0  0  0  0  0  0  0  0  0  # atno 17395 bound_to 11000

$$$$
