AV-unprocessed.smi:2083|AV-procd|sdf|8507|dock2
  -GOLD-   2272011223D 1   1.00000     0.00000
 Structure written by MMmdl.
 44 45  0  0  0  0  0  0  0  0  3 V2000
  145.7452  133.9321  162.5390 C   0  0  0  0  0  0  0  0  0  0  0  0
  146.6732  134.6157  161.5943 C   0  0  0  0  0  0  0  0  0  0  0  0
  146.9214  135.9317  161.3242 C   0  0  0  0  0  0  0  0  0  0  0  0
  147.9206  135.8703  160.3166 C   0  0  0  0  0  0  0  0  0  0  0  0
  148.4569  137.0598  159.7568 N   0  0  0  0  0  0  0  0  0  0  0  0
  149.5662  137.2157  159.0112 C   0  0  0  0  0  0  0  0  0  0  0  0
  150.2702  136.2395  158.7263 O   0  0  0  0  0  0  0  0  0  0  0  0
  149.7665  138.5141  158.6553 N   0  5  0  0  0  0  0  0  0  0  0  0
  150.8737  138.9839  157.8241 C   0  0  0  0  0  0  0  0  0  0  0  0
  150.7497  140.5207  157.5692 C   0  0  1  0  0  0  0  0  0  0  0  0
  149.2852  141.0079  157.4556 C   0  0  0  0  0  0  0  0  0  0  0  0
  151.5103  141.4012  158.5217 N   0  3  1  0  0  0  0  0  0  0  0  0
  152.7967  140.8728  159.0662 C   0  0  0  0  0  0  0  0  0  0  0  0
  153.2596  141.7130  160.2664 C   0  0  0  0  0  0  0  0  0  0  0  0
  153.3871  143.1938  159.8845 C   0  0  0  0  0  0  0  0  0  0  0  0
  152.0631  143.7138  159.2977 C   0  0  1  0  0  0  0  0  0  0  0  0
  152.1718  145.1900  158.8903 C   0  0  0  0  0  0  0  0  0  0  0  0
  151.6200  142.8314  158.1132 C   0  0  0  0  0  0  0  0  0  0  0  0
  148.2514  134.6269  160.0004 N   0  0  0  0  0  0  0  0  0  0  0  0
  147.4537  133.8169  160.8173 O   0  0  0  0  0  0  0  0  0  0  0  0
  145.3605  134.6315  163.2812 H   0  0  0  0  0  0  0  0  0  0  0  0
  146.2539  133.1254  163.0671 H   0  0  0  0  0  0  0  0  0  0  0  0
  144.8968  133.5052  162.0041 H   0  0  0  0  0  0  0  0  0  0  0  0
  146.4612  136.7982  161.7756 H   0  0  0  0  0  0  0  0  0  0  0  0
  147.9372  137.9033  159.9480 H   0  0  0  0  0  0  0  0  0  0  0  0
  151.8449  138.7775  158.2758 H   0  0  0  0  0  0  0  0  0  0  0  0
  150.8811  138.4673  156.8641 H   0  0  0  0  0  0  0  0  0  0  0  0
  151.1921  140.7139  156.5904 H   0  0  0  0  0  0  0  0  0  0  0  0
  148.7617  140.5411  156.6190 H   0  0  0  0  0  0  0  0  0  0  0  0
  149.2511  142.0831  157.2791 H   0  0  0  0  0  0  0  0  0  0  0  0
  148.7001  140.8089  158.3548 H   0  0  0  0  0  0  0  0  0  0  0  0
  152.6826  139.8370  159.3839 H   0  0  0  0  0  0  0  0  0  0  0  0
  153.5700  140.8858  158.2966 H   0  0  0  0  0  0  0  0  0  0  0  0
  152.5480  141.6045  161.0859 H   0  0  0  0  0  0  0  0  0  0  0  0
  154.2155  141.3397  160.6351 H   0  0  0  0  0  0  0  0  0  0  0  0
  153.6686  143.7788  160.7608 H   0  0  0  0  0  0  0  0  0  0  0  0
  154.1906  143.3164  159.1566 H   0  0  0  0  0  0  0  0  0  0  0  0
  151.2996  143.6434  160.0742 H   0  0  0  0  0  0  0  0  0  0  0  0
  152.9186  145.3317  158.1083 H   0  0  0  0  0  0  0  0  0  0  0  0
  152.4576  145.8117  159.7394 H   0  0  0  0  0  0  0  0  0  0  0  0
  151.2198  145.5654  158.5139 H   0  0  0  0  0  0  0  0  0  0  0  0
  152.3284  142.9327  157.2898 H   0  0  0  0  0  0  0  0  0  0  0  0
  150.6553  143.1840  157.7459 H   0  0  0  0  0  0  0  0  0  0  0  0
  150.9008  141.4339  159.3256 H   0  0  0  0  0  0  0  0  0  0  0  0
  1  2  1  0  0  0  0
  1 21  1  0  0  0  0
  1 22  1  0  0  0  0
  1 23  1  0  0  0  0
  2 20  1  0  0  0  0
  2  3  2  0  0  0  0
  3  4  1  0  0  0  0
  3 24  1  0  0  0  0
  4  5  1  0  0  0  0
  4 19  2  0  0  0  0
  5  6  1  0  0  0  0
  5 25  1  0  0  0  0
  6  7  2  0  0  0  0
  6  8  1  0  0  0  0
  8  9  1  0  0  0  0
  9 10  1  0  0  0  0
  9 26  1  0  0  0  0
  9 27  1  0  0  0  0
 10 11  1  0  0  0  0
 10 12  1  0  0  0  0
 10 28  1  0  0  0  0
 11 29  1  0  0  0  0
 11 30  1  0  0  0  0
 11 31  1  0  0  0  0
 12 18  1  0  0  0  0
 12 13  1  0  0  0  0
 12 44  1  0  0  0  0
 13 14  1  0  0  0  0
 13 32  1  0  0  0  0
 13 33  1  0  0  0  0
 14 15  1  0  0  0  0
 14 34  1  0  0  0  0
 14 35  1  0  0  0  0
 15 16  1  0  0  0  0
 15 36  1  0  0  0  0
 15 37  1  0  0  0  0
 16 17  1  0  0  0  0
 16 18  1  0  0  0  0
 16 38  1  0  0  0  0
 17 39  1  0  0  0  0
 17 40  1  0  0  0  0
 17 41  1  0  0  0  0
 18 42  1  0  0  0  0
 18 43  1  0  0  0  0
 19 20  1  0  0  0  0
M  CHG  1   8  -1
M  CHG  1  12   1
M  END
> <s_m_source_file>
AV-unprocessed.smi

> <i_m_source_file_index>
2083

> <i_lp_mmshare_version>
43012

> <i_f3d_flags>
0

> <s_epik_input>
W0NIM11jMVtjSF1jKG5vMSlbTkhdQyg9TylbTkhdW0NIMl1bQ0BIXShbQ0gzXSlOMltDSDJdW0NIMl1bQ0gyXVtDQEBIXShbQ0gzXSlbQ0gyXTI=

> <s_epik_cmdline>
J2VwaWtfcHl0aG9uJywgJy1waCcsICc3LjAnLCAnLXRuJywgJzgnLCAnLW1hJywgJzIwMCcsICctbWV0YWxfYmluZGluZycsICctaW1hZScsICc8aW5maWxlLm1hZT4nLCAnLW9tYWUnLCAnPG91dGZpbGUubWFlPic=

> <r_epik_Ionization_Penalty>
6.76934

> <r_epik_Ionization_Penalty_Charging>
6.76934

> <r_epik_Ionization_Penalty_Neutral>
5.77849e-06

> <r_epik_State_Penalty>
6.79457

> <r_epik_Charging_Adjusted_Penalty>
13.5639

> <i_epik_Tot_Q>
0

> <i_epik_Tot_abs_Q>
2

> <r_epik_Metal_State_Penalty>
2.72837

> <b_epik_Metal_Only>
1

> <s_lp_Force_Field>
OPLS_2005

> <r_lp_Energy>
21.1768

> <b_lp_Chiralities_Consistent>
1

> <s_lp_Variant>
AV-unprocessed.smi:2083-18

> <Gold.Version>
5.8.1

> <Gold.Id.Protein>
6NUR|6NUR_protein|mol2

> <Gold.PLP.Fitness>
39.6100

> <Gold.PLP.PLP>
-37.7735

> <Gold.PLP.part.hbond>
-1.3335

> <Gold.PLP.part.metal>
0.0000

> <Gold.PLP.part.buried>
-6.0533

> <Gold.PLP.part.nonpolar>
-31.2394

> <Gold.PLP.part.repulsive>
0.3401

> <Gold.PLP.ligand.clash>
0.0000

> <Gold.PLP.ligand.torsion>
0.6993

> <Gold.PLP.Chemscore.Hbond>
1.0000

> <Gold.PLP.Chemscore.CHOScore>
0.0000

> <Gold.PLP.Chemscore.Metal>
0.0000

> <Gold.Chemscore.Hbonds>
donor molecule, donor type, donor heavy atom, donor atom, acceptor molecule, acceptor atom, score
      P1  H  6896  6908       L1     7  1.00

> <Gold.PLP.Chemscore.Internal.Correction>
0.2352

> <Gold.Rescore>
     Score         DG    S(hbond)    S(metal)    S(lipo)     H(rot)  DE(clash)    DE(int)     intcor
     14.43     -16.52       1.00        0.00      99.14       1.52       0.14       1.95       ----

> <Gold.Chemscore.Fitness>
14.4349

> <Gold.Chemscore.DG>
-16.5221

> <Gold.Chemscore.ZeroCoef>
-5.4800

> <Gold.Chemscore.Hbond>
0.9976

> <Gold.Chemscore.Metal>
0.0000

> <Gold.Chemscore.Lipo>
99.1361

> <Gold.Chemscore.Internal_Hbond>
0.0000

> <Gold.Chemscore.DEClash>
0.1410

> <Gold.Chemscore.DEInternal>
1.9461

> <Gold.Chemscore.Rot>
1.5190

> <Gold.Chemscore.Internal.Correction>
   9.000000E+99

> <Gold.Chemscore.Hbonds>
donor molecule, donor type, donor heavy atom, donor atom, acceptor molecule, acceptor atom, score
      P1  H  6896  6908       L1     7  0.96

> <Gold.Chemscore.Hbond.Weighted>
-3.3318

> <Gold.Chemscore.Metal.Weighted>
-0.0000

> <Gold.Chemscore.Lipo.Weighted>
-11.5989

> <Gold.Chemscore.Internal_Hbond.Weighted>
0.0000

> <Gold.Chemscore.DEClash.Weighted>
0.1410

> <Gold.Chemscore.DEInternal.Weighted>
1.9461

> <Gold.Chemscore.Rot.Weighted>
3.8886

> <Gold.Chemscore.Internal.Correction.Weighted>
   9.000000E+99

> <Gold.Protein.RotatedTorsions>
[ 6907 6896 6895 6894 ] final -174.39 input  -60.11 | X-H torsion
[ 7974 7965 7964 7962 ] final -175.49 input  175.53 | X-H torsion
[ 8008 7997 7996 7995 ] final  -61.63 input   59.86 | X-H torsion
[ 10167 10162 10161 10158 ] final  175.81 input  -65.29 | X-H torsion
[ 10718 10713 10712 10709 ] final   17.21 input   66.30 | X-H torsion
[ 10763 10752 10751 10750 ] final   34.50 input  -60.55 | X-H torsion
[ 11005 11000 10999 10996 ] final  -65.15 input  -57.11 | X-H torsion

> <Gold.Protein.ActiveResidues>
 VAL166  LYS551  ARG553  GLY616  TRP617  ASP618  TYR619  PRO620  LYS621  CYS622 
 ASP623  PHE694  ASN695  SER759  ASP760  ASP761  ALA762  ILE779  LEU786  VAL792 
 PHE793  MET794  SER795  GLU796  ALA797  LYS798  CYS799  TRP800  GLU811  SER814 

> <Gold.Protein.RotatedAtoms>
  151.5716  133.3389  159.2990 H   0  0  0  0  0  0  0  0  0  0  0  0  # atno 6907 bound_to 6896
  150.8364  134.7642  159.6907 H   0  0  0  0  0  0  0  0  0  0  0  0  # atno 6908 bound_to 6896
  152.4439  134.5541  159.9927 H   0  0  0  0  0  0  0  0  0  0  0  0  # atno 6909 bound_to 6896
  144.7128  140.1313  143.6398 H   0  0  0  0  0  0  0  0  0  0  0  0  # atno 7974 bound_to 7965
  154.4458  140.1013  156.6461 H   0  0  0  0  0  0  0  0  0  0  0  0  # atno 8008 bound_to 7997
  155.5449  140.3484  155.4436 H   0  0  0  0  0  0  0  0  0  0  0  0  # atno 8009 bound_to 7997
  156.0571  140.1317  156.9973 H   0  0  0  0  0  0  0  0  0  0  0  0  # atno 8010 bound_to 7997
  139.5191  144.2988  152.0397 H   0  0  0  0  0  0  0  0  0  0  0  0  # atno 10167 bound_to 10162
  157.0789  130.6379  149.5822 H   0  0  0  0  0  0  0  0  0  0  0  0  # atno 10718 bound_to 10713
  153.0161  135.6359  154.1678 H   0  0  0  0  0  0  0  0  0  0  0  0  # atno 10763 bound_to 10752
  154.1417  135.2834  155.3161 H   0  0  0  0  0  0  0  0  0  0  0  0  # atno 10764 bound_to 10752
  154.6120  135.5553  153.7544 H   0  0  0  0  0  0  0  0  0  0  0  0  # atno 10765 bound_to 10752
  141.1446  133.6677  156.5941 H   0  0  0  0  0  0  0  0  0  0  0  0  # atno 11005 bound_to 11000
  145.9284  139.2590  143.1340 LP  0  0  0  0  0  0  0  0  0  0  0  0  # atno 17320 bound_to 7965
  145.9548  140.8881  143.0241 LP  0  0  0  0  0  0  0  0  0  0  0  0  # atno 17321 bound_to 7965
  140.2436  144.4243  150.6250 LP  0  0  0  0  0  0  0  0  0  0  0  0  # atno 17342 bound_to 10162
  140.6273  143.2183  151.6569 LP  0  0  0  0  0  0  0  0  0  0  0  0  # atno 17343 bound_to 10162
  155.9929  130.4988  150.7359 LP  0  0  0  0  0  0  0  0  0  0  0  0  # atno 17370 bound_to 10713
  157.4816  131.0903  151.0529 LP  0  0  0  0  0  0  0  0  0  0  0  0  # atno 17371 bound_to 10713
  140.3740  134.7581  157.4617 LP  0  0  0  0  0  0  0  0  0  0  0  0  # atno 17394 bound_to 11000
  140.0689  134.5890  155.8664 LP  0  0  0  0  0  0  0  0  0  0  0  0  # atno 17395 bound_to 11000

$$$$
