AV-unprocessed.smi:2403|AV-procd|sdf|9510|dock1
  -GOLD-   2272013133D 1   1.00000     0.00000
 Structure written by MMmdl.
 48 50  0  0  0  0  0  0  0  0  2 V2000
  145.1792  135.6994  150.7748 C   0  0  0  0  0  0  0  0  0  0  0  0
  145.1402  134.1845  150.8792 C   0  0  0  0  0  0  0  0  0  0  0  0
  144.1780  133.4593  150.1415 C   0  0  0  0  0  0  0  0  0  0  0  0
  144.1439  132.0547  150.2409 C   0  0  0  0  0  0  0  0  0  0  0  0
  145.0242  131.4182  151.0410 N   0  3  0  0  0  0  0  0  0  0  0  0
  145.9612  132.0680  151.7636 C   0  0  0  0  0  0  0  0  0  0  0  0
  146.0593  133.4807  151.6987 C   0  0  0  0  0  0  0  0  0  0  0  0
  147.0145  134.2176  152.4537 N   0  0  0  0  0  0  0  0  0  0  0  0
  147.6881  133.8218  153.5469 C   0  0  0  0  0  0  0  0  0  0  0  0
  147.5797  132.7189  154.0823 O   0  0  0  0  0  0  0  0  0  0  0  0
  148.5344  134.7777  153.9696 N   0  0  0  0  0  0  0  0  0  0  0  0
  149.4734  134.7162  155.1057 C   0  0  0  0  0  0  0  0  0  0  0  0
  150.2908  136.0276  155.2898 C   0  0  0  0  0  0  0  0  0  0  0  0
  151.5162  135.9783  155.4058 O   0  0  0  0  0  0  0  0  0  0  0  0
  149.6195  137.1903  155.3348 N   0  0  0  0  0  0  0  0  0  0  0  0
  150.2257  138.5030  155.4919 C   0  0  0  0  0  0  0  0  0  0  0  0
  149.8990  139.4608  154.3656 C   0  0  0  0  0  0  0  0  0  0  0  0
  149.6234  140.9186  154.6496 C   0  0  0  0  0  0  0  0  0  0  0  0
  148.5034  140.0134  154.1951 C   0  0  0  0  0  0  0  0  0  0  0  0
  148.6563  134.4586  156.3948 C   0  0  0  0  0  0  0  0  0  0  0  0
  149.5102  133.5434  157.2697 C   0  0  0  0  0  0  0  0  0  0  0  0
  150.1984  132.6226  156.2712 C   0  0  0  0  0  0  0  0  0  0  0  0
  150.4012  133.4641  155.0046 C   0  0  0  0  0  0  0  0  0  0  0  0
  144.4356  136.0691  150.0681 H   0  0  0  0  0  0  0  0  0  0  0  0
  146.1601  136.0331  150.4346 H   0  0  0  0  0  0  0  0  0  0  0  0
  144.9770  136.1530  151.7454 H   0  0  0  0  0  0  0  0  0  0  0  0
  143.4702  133.9707  149.5054 H   0  0  0  0  0  0  0  0  0  0  0  0
  143.4411  131.4266  149.7130 H   0  0  0  0  0  0  0  0  0  0  0  0
  146.5849  131.4312  152.3730 H   0  0  0  0  0  0  0  0  0  0  0  0
  147.2749  135.1146  152.0703 H   0  0  0  0  0  0  0  0  0  0  0  0
  148.5439  135.6427  153.4492 H   0  0  0  0  0  0  0  0  0  0  0  0
  148.6152  137.1598  155.2398 H   0  0  0  0  0  0  0  0  0  0  0  0
  149.9059  138.9350  156.4414 H   0  0  0  0  0  0  0  0  0  0  0  0
  151.3102  138.3941  155.5414 H   0  0  0  0  0  0  0  0  0  0  0  0
  150.4514  139.2611  153.4491 H   0  0  0  0  0  0  0  0  0  0  0  0
  149.6161  141.2418  155.6887 H   0  0  0  0  0  0  0  0  0  0  0  0
  149.9999  141.6492  153.9363 H   0  0  0  0  0  0  0  0  0  0  0  0
  148.1347  140.1387  153.1792 H   0  0  0  0  0  0  0  0  0  0  0  0
  147.7529  139.7348  154.9324 H   0  0  0  0  0  0  0  0  0  0  0  0
  148.3784  135.3723  156.9230 H   0  0  0  0  0  0  0  0  0  0  0  0
  147.7242  133.9421  156.1581 H   0  0  0  0  0  0  0  0  0  0  0  0
  150.2549  134.1306  157.8084 H   0  0  0  0  0  0  0  0  0  0  0  0
  148.9210  132.9969  158.0066 H   0  0  0  0  0  0  0  0  0  0  0  0
  151.1339  132.2170  156.6574 H   0  0  0  0  0  0  0  0  0  0  0  0
  149.5431  131.7800  156.0462 H   0  0  0  0  0  0  0  0  0  0  0  0
  150.1851  132.8464  154.1322 H   0  0  0  0  0  0  0  0  0  0  0  0
  151.4520  133.7426  154.9117 H   0  0  0  0  0  0  0  0  0  0  0  0
  144.9785  130.4009  151.1063 H   0  0  0  0  0  0  0  0  0  0  0  0
  1  2  1  0  0  0  0
  1 24  1  0  0  0  0
  1 25  1  0  0  0  0
  1 26  1  0  0  0  0
  2  7  1  0  0  0  0
  2  3  2  0  0  0  0
  3  4  1  0  0  0  0
  3 27  1  0  0  0  0
  4  5  2  0  0  0  0
  4 28  1  0  0  0  0
  5  6  1  0  0  0  0
  5 48  1  0  0  0  0
  6  7  2  0  0  0  0
  6 29  1  0  0  0  0
  7  8  1  0  0  0  0
  8  9  1  0  0  0  0
  8 30  1  0  0  0  0
  9 10  2  0  0  0  0
  9 11  1  0  0  0  0
 11 12  1  0  0  0  0
 11 31  1  0  0  0  0
 12 23  1  0  0  0  0
 12 13  1  0  0  0  0
 12 20  1  0  0  0  0
 13 14  2  0  0  0  0
 13 15  1  0  0  0  0
 15 16  1  0  0  0  0
 15 32  1  0  0  0  0
 16 17  1  0  0  0  0
 16 33  1  0  0  0  0
 16 34  1  0  0  0  0
 17 19  1  0  0  0  0
 17 18  1  0  0  0  0
 17 35  1  0  0  0  0
 18 19  1  0  0  0  0
 18 36  1  0  0  0  0
 18 37  1  0  0  0  0
 19 38  1  0  0  0  0
 19 39  1  0  0  0  0
 20 21  1  0  0  0  0
 20 40  1  0  0  0  0
 20 41  1  0  0  0  0
 21 22  1  0  0  0  0
 21 42  1  0  0  0  0
 21 43  1  0  0  0  0
 22 23  1  0  0  0  0
 22 44  1  0  0  0  0
 22 45  1  0  0  0  0
 23 46  1  0  0  0  0
 23 47  1  0  0  0  0
M  CHG  1   5   1
M  END
> <s_m_source_file>
AV-unprocessed.smi

> <i_m_source_file_index>
2403

> <i_lp_mmshare_version>
43012

> <i_f3d_flags>
0

> <s_epik_input>
W0NIM11jMVtjSF1bY0hdbltjSF1jMVtOSF1DKD1PKVtOSF1DMihbQ0gyXVtDSDJdW0NIMl1bQ0gyXTIpQyg9TylbTkhdW0NIMl1bQ0hdM1tDSDJdW0NIMl0z

> <s_epik_cmdline>
J2VwaWtfcHl0aG9uJywgJy1waCcsICc3LjAnLCAnLXRuJywgJzgnLCAnLW1hJywgJzIwMCcsICctbWV0YWxfYmluZGluZycsICctaW1hZScsICc8aW5maWxlLm1hZT4nLCAnLW9tYWUnLCAnPG91dGZpbGUubWFlPic=

> <r_epik_Ionization_Penalty>
2.03963

> <r_epik_Ionization_Penalty_Charging>
2.03961

> <r_epik_Ionization_Penalty_Neutral>
1.99712e-05

> <r_epik_State_Penalty>
2.17125

> <r_epik_Charging_Adjusted_Penalty>
4.21085

> <i_epik_Tot_Q>
1

> <i_epik_Tot_abs_Q>
1

> <r_epik_Metal_State_Penalty>
2.19001

> <b_epik_Metal_Only>
0

> <s_lp_Force_Field>
OPLS_2005

> <r_lp_Energy>
38.2062

> <b_lp_Chiralities_Consistent>
1

> <s_lp_Variant>
AV-unprocessed.smi:2403-2

> <Gold.Version>
5.8.1

> <Gold.Id.Protein>
6NUR|6NUR_protein|mol2

> <Gold.PLP.Fitness>
43.6295

> <Gold.PLP.PLP>
-36.4703

> <Gold.PLP.part.hbond>
-3.0000

> <Gold.PLP.part.metal>
0.0000

> <Gold.PLP.part.buried>
-4.5279

> <Gold.PLP.part.nonpolar>
-29.5018

> <Gold.PLP.part.repulsive>
0.2241

> <Gold.PLP.ligand.clash>
0.0000

> <Gold.PLP.ligand.torsion>
0.5963

> <Gold.PLP.Chemscore.Hbond>
2.5360

> <Gold.PLP.Chemscore.CHOScore>
0.0000

> <Gold.PLP.Chemscore.Metal>
0.0000

> <Gold.Chemscore.Hbonds>
donor molecule, donor type, donor heavy atom, donor atom, acceptor molecule, acceptor atom, score
      L1  H     8    30       P1  7948  0.75
      L1  H    11    31       P1  7948  0.77
      P1  H 10752 10765       L1    14  1.00

> <Gold.PLP.Chemscore.Internal.Correction>
0.7438

> <Gold.Rescore>
     Score         DG    S(hbond)    S(metal)    S(lipo)     H(rot)  DE(clash)    DE(int)     intcor
     17.89     -20.62       2.62        0.00      90.36       1.63       0.18       2.55       ----

> <Gold.Chemscore.Fitness>
17.8948

> <Gold.Chemscore.DG>
-20.6214

> <Gold.Chemscore.ZeroCoef>
-5.4800

> <Gold.Chemscore.Hbond>
2.6165

> <Gold.Chemscore.Metal>
0.0000

> <Gold.Chemscore.Lipo>
90.3554

> <Gold.Chemscore.Internal_Hbond>
0.0000

> <Gold.Chemscore.DEClash>
0.1773

> <Gold.Chemscore.DEInternal>
2.5493

> <Gold.Chemscore.Rot>
1.6286

> <Gold.Chemscore.Internal.Correction>
   9.000000E+99

> <Gold.Chemscore.Hbonds>
donor molecule, donor type, donor heavy atom, donor atom, acceptor molecule, acceptor atom, score
      L1  H     8    30       P1  7948  0.72
      L1  H    11    31       P1  7948  0.75
      P1  H 10752 10765       L1    14  0.96

> <Gold.Chemscore.Hbond.Weighted>
-8.7390

> <Gold.Chemscore.Metal.Weighted>
-0.0000

> <Gold.Chemscore.Lipo.Weighted>
-10.5716

> <Gold.Chemscore.Internal_Hbond.Weighted>
0.0000

> <Gold.Chemscore.DEClash.Weighted>
0.1773

> <Gold.Chemscore.DEInternal.Weighted>
2.5493

> <Gold.Chemscore.Rot.Weighted>
4.1692

> <Gold.Chemscore.Internal.Correction.Weighted>
   9.000000E+99

> <Gold.Protein.RotatedTorsions>
[ 6907 6896 6895 6894 ] final   53.48 input  -60.11 | X-H torsion
[ 7974 7965 7964 7962 ] final -109.86 input  175.53 | X-H torsion
[ 8008 7997 7996 7995 ] final    3.07 input   59.86 | X-H torsion
[ 10167 10162 10161 10158 ] final  -43.99 input  -65.29 | X-H torsion
[ 10718 10713 10712 10709 ] final  107.13 input   66.30 | X-H torsion
[ 10763 10752 10751 10750 ] final  172.02 input  -60.55 | X-H torsion
[ 11005 11000 10999 10996 ] final  -17.61 input  -57.11 | X-H torsion

> <Gold.Protein.ActiveResidues>
 VAL166  LYS551  ARG553  GLY616  TRP617  ASP618  TYR619  PRO620  LYS621  CYS622 
 ASP623  PHE694  ASN695  SER759  ASP760  ASP761  ALA762  ILE779  LEU786  VAL792 
 PHE793  MET794  SER795  GLU796  ALA797  LYS798  CYS799  TRP800  GLU811  SER814 

> <Gold.Protein.RotatedAtoms>
  152.3341  134.7221  160.0281 H   0  0  0  0  0  0  0  0  0  0  0  0  # atno 6907 bound_to 6896
  151.7628  133.3329  159.3430 H   0  0  0  0  0  0  0  0  0  0  0  0  # atno 6908 bound_to 6896
  150.7440  134.6022  159.6087 H   0  0  0  0  0  0  0  0  0  0  0  0  # atno 6909 bound_to 6896
  145.1753  140.8945  143.3511 H   0  0  0  0  0  0  0  0  0  0  0  0  # atno 7974 bound_to 7965
  154.6992  140.2669  155.6736 H   0  0  0  0  0  0  0  0  0  0  0  0  # atno 8008 bound_to 7997
  156.2759  140.2775  156.1520 H   0  0  0  0  0  0  0  0  0  0  0  0  # atno 8009 bound_to 7997
  155.0789  140.0372  157.2623 H   0  0  0  0  0  0  0  0  0  0  0  0  # atno 8010 bound_to 7997
  140.6913  143.2953  151.3432 H   0  0  0  0  0  0  0  0  0  0  0  0  # atno 10167 bound_to 10162
  157.6641  131.0866  150.6110 H   0  0  0  0  0  0  0  0  0  0  0  0  # atno 10718 bound_to 10713
  154.4201  135.2757  155.1981 H   0  0  0  0  0  0  0  0  0  0  0  0  # atno 10763 bound_to 10752
  154.3930  135.6062  153.5857 H   0  0  0  0  0  0  0  0  0  0  0  0  # atno 10764 bound_to 10752
  152.9833  135.5908  154.4496 H   0  0  0  0  0  0  0  0  0  0  0  0  # atno 10765 bound_to 10752
  140.8185  133.8086  155.9635 H   0  0  0  0  0  0  0  0  0  0  0  0  # atno 11005 bound_to 11000
  145.0191  139.3440  143.6081 LP  0  0  0  0  0  0  0  0  0  0  0  0  # atno 17320 bound_to 7965
  146.3462  139.9485  142.8732 LP  0  0  0  0  0  0  0  0  0  0  0  0  # atno 17321 bound_to 7965
  139.6320  144.0703  152.2484 LP  0  0  0  0  0  0  0  0  0  0  0  0  # atno 17342 bound_to 10162
  140.0181  144.6174  150.7590 LP  0  0  0  0  0  0  0  0  0  0  0  0  # atno 17343 bound_to 10162
  156.6412  130.4459  149.5752 LP  0  0  0  0  0  0  0  0  0  0  0  0  # atno 17370 bound_to 10713
  156.2208  130.6736  151.1366 LP  0  0  0  0  0  0  0  0  0  0  0  0  # atno 17371 bound_to 10713
  140.9123  134.2245  157.4978 LP  0  0  0  0  0  0  0  0  0  0  0  0  # atno 17394 bound_to 11000
  139.8710  134.9756  156.4888 LP  0  0  0  0  0  0  0  0  0  0  0  0  # atno 17395 bound_to 11000

$$$$
