AV-unprocessed.smi:709|AV-procd|sdf|3458|dock3
  -GOLD-   22720 0443D 1   1.00000     0.00000
 Structure written by MMmdl.
 48 50  0  0  0  0  0  0  0  0  1 V2000
  146.7425  142.1346  155.0311 C   0  0  0  0  0  0  0  0  0  0  0  0
  147.9031  141.9687  154.0482 C   0  0  0  0  0  0  0  0  0  0  0  0
  148.8552  141.0787  154.6062 O   0  0  0  0  0  0  0  0  0  0  0  0
  148.5622  139.7169  154.3350 C   0  0  2  0  0  0  0  0  0  0  0  0
  147.4137  139.1839  155.1938 C   0  0  0  0  0  0  0  0  0  0  0  0
  148.1989  137.8725  155.3006 C   0  0  1  0  0  0  0  0  0  0  0  0
  147.8354  136.9528  154.2206 N   0  0  0  0  0  0  0  0  0  0  0  0
  146.6405  136.3608  154.0917 C   0  0  0  0  0  0  0  0  0  0  0  0
  145.7112  136.5409  154.8782 O   0  0  0  0  0  0  0  0  0  0  0  0
  146.6118  135.5714  153.0024 N   0  0  0  0  0  0  0  0  0  0  0  0
  145.5803  134.7404  152.5316 C   0  0  0  0  0  0  0  0  0  0  0  0
  144.2581  134.9562  152.7470 C   0  0  0  0  0  0  0  0  0  0  0  0
  143.2645  134.0420  152.2373 C   0  0  0  0  0  0  0  0  0  0  0  0
  143.6793  132.9673  151.5523 C   0  0  0  0  0  0  0  0  0  0  0  0
  145.0436  132.7190  151.3255 N   0  0  0  0  0  0  0  0  0  0  0  0
  145.3969  131.5160  150.5673 C   0  0  0  0  0  0  0  0  0  0  0  0
  146.0275  133.5486  151.7845 C   0  0  0  0  0  0  0  0  0  0  0  0
  147.2183  133.3017  151.5773 O   0  0  0  0  0  0  0  0  0  0  0  0
  149.4950  138.6843  155.0234 C   0  0  0  0  0  0  0  0  0  0  0  0
  150.2629  139.1508  156.2635 C   0  0  0  0  0  0  0  0  0  0  0  0
  151.6583  139.5704  155.8027 C   0  0  0  0  0  0  0  0  0  0  0  0
  151.9309  138.7586  154.5350 C   0  0  0  0  0  0  0  0  0  0  0  0
  150.6118  138.0621  154.1792 C   0  0  0  0  0  0  0  0  0  0  0  0
  145.9873  142.8114  154.6314 H   0  0  0  0  0  0  0  0  0  0  0  0
  147.0907  142.5442  155.9796 H   0  0  0  0  0  0  0  0  0  0  0  0
  146.2612  141.1777  155.2343 H   0  0  0  0  0  0  0  0  0  0  0  0
  147.5373  141.5729  153.0999 H   0  0  0  0  0  0  0  0  0  0  0  0
  148.3559  142.9384  153.8436 H   0  0  0  0  0  0  0  0  0  0  0  0
  148.3859  139.5097  153.2767 H   0  0  0  0  0  0  0  0  0  0  0  0
  147.3208  139.6996  156.1511 H   0  0  0  0  0  0  0  0  0  0  0  0
  146.4529  139.1160  154.6822 H   0  0  0  0  0  0  0  0  0  0  0  0
  148.1524  137.4317  156.2979 H   0  0  0  0  0  0  0  0  0  0  0  0
  148.5443  136.7560  153.5293 H   0  0  0  0  0  0  0  0  0  0  0  0
  147.4339  135.5882  152.4163 H   0  0  0  0  0  0  0  0  0  0  0  0
  143.9038  135.8002  153.3163 H   0  0  0  0  0  0  0  0  0  0  0  0
  142.2124  134.2203  152.4039 H   0  0  0  0  0  0  0  0  0  0  0  0
  142.9985  132.2372  151.1395 H   0  0  0  0  0  0  0  0  0  0  0  0
  146.0103  130.8482  151.1738 H   0  0  0  0  0  0  0  0  0  0  0  0
  145.9627  131.7787  149.6723 H   0  0  0  0  0  0  0  0  0  0  0  0
  144.5231  130.9501  150.2430 H   0  0  0  0  0  0  0  0  0  0  0  0
  149.7612  139.9597  156.7956 H   0  0  0  0  0  0  0  0  0  0  0  0
  150.3561  138.3256  156.9708 H   0  0  0  0  0  0  0  0  0  0  0  0
  151.6663  140.6353  155.5687 H   0  0  0  0  0  0  0  0  0  0  0  0
  152.4109  139.4008  156.5732 H   0  0  0  0  0  0  0  0  0  0  0  0
  152.2620  139.4114  153.7268 H   0  0  0  0  0  0  0  0  0  0  0  0
  152.7189  138.0231  154.6999 H   0  0  0  0  0  0  0  0  0  0  0  0
  150.7077  137.0002  154.4074 H   0  0  0  0  0  0  0  0  0  0  0  0
  150.4072  138.1336  153.1106 H   0  0  0  0  0  0  0  0  0  0  0  0
  1  2  1  0  0  0  0
  1 24  1  0  0  0  0
  1 25  1  0  0  0  0
  1 26  1  0  0  0  0
  2  3  1  0  0  0  0
  2 27  1  0  0  0  0
  2 28  1  0  0  0  0
  3  4  1  0  0  0  0
  4 19  1  0  0  0  0
  4  5  1  0  0  0  0
  4 29  1  0  0  0  0
  5  6  1  0  0  0  0
  5 30  1  0  0  0  0
  5 31  1  0  0  0  0
  6  7  1  0  0  0  0
  6 19  1  0  0  0  0
  6 32  1  0  0  0  0
  7  8  1  0  0  0  0
  7 33  1  0  0  0  0
  8  9  2  0  0  0  0
  8 10  1  0  0  0  0
 10 11  1  0  0  0  0
 10 34  1  0  0  0  0
 11 17  1  0  0  0  0
 11 12  2  0  0  0  0
 12 13  1  0  0  0  0
 12 35  1  0  0  0  0
 13 14  2  0  0  0  0
 13 36  1  0  0  0  0
 14 15  1  0  0  0  0
 14 37  1  0  0  0  0
 15 16  1  0  0  0  0
 15 17  1  0  0  0  0
 16 38  1  0  0  0  0
 16 39  1  0  0  0  0
 16 40  1  0  0  0  0
 17 18  2  0  0  0  0
 19 23  1  0  0  0  0
 19 20  1  0  0  0  0
 20 21  1  0  0  0  0
 20 41  1  0  0  0  0
 20 42  1  0  0  0  0
 21 22  1  0  0  0  0
 21 43  1  0  0  0  0
 21 44  1  0  0  0  0
 22 23  1  0  0  0  0
 22 45  1  0  0  0  0
 22 46  1  0  0  0  0
 23 47  1  0  0  0  0
 23 48  1  0  0  0  0
M  END
> <s_m_source_file>
AV-unprocessed.smi

> <i_m_source_file_index>
709

> <i_lp_mmshare_version>
43012

> <i_f3d_flags>
0

> <s_epik_input>
W0NIMl0xW0NIMl1bQ0gyXVtDSDJdQzEyW0NASF0oT1tDSDJdW0NIM10pW0NIMl1bQ0BIXTJbTkhdQyg9TylbTkhdYzNbY0hdW2NIXVtjSF1uKFtDSDNdKWMzPU8=

> <s_epik_cmdline>
J2VwaWtfcHl0aG9uJywgJy1waCcsICc3LjAnLCAnLXRuJywgJzgnLCAnLW1hJywgJzIwMCcsICctbWV0YWxfYmluZGluZycsICctaW1hZScsICc8aW5maWxlLm1hZT4nLCAnLW9tYWUnLCAnPG91dGZpbGUubWFlPic=

> <r_lp_tautomer_probability>
1

> <r_epik_Ionization_Penalty>
2.50859e-05

> <r_epik_Ionization_Penalty_Charging>
5.10493e-06

> <r_epik_Ionization_Penalty_Neutral>
1.9981e-05

> <r_epik_State_Penalty>
-0

> <r_epik_Charging_Adjusted_Penalty>
5.10493e-06

> <i_epik_Tot_Q>
0

> <i_epik_Tot_abs_Q>
0

> <r_epik_Metal_State_Penalty>
-0

> <b_epik_Metal_Only>
0

> <s_lp_Force_Field>
OPLS_2005

> <r_lp_Energy>
50.6908

> <b_lp_Chiralities_Consistent>
1

> <s_lp_Variant>
AV-unprocessed.smi:709-1

> <Gold.Version>
5.8.1

> <Gold.Id.Protein>
6NUR|6NUR_protein|mol2

> <Gold.PLP.Fitness>
40.6861

> <Gold.PLP.PLP>
-35.3941

> <Gold.PLP.part.hbond>
-2.0000

> <Gold.PLP.part.metal>
0.0000

> <Gold.PLP.part.buried>
-5.5386

> <Gold.PLP.part.nonpolar>
-28.9004

> <Gold.PLP.part.repulsive>
0.3903

> <Gold.PLP.ligand.clash>
0.0000

> <Gold.PLP.ligand.torsion>
0.5133

> <Gold.PLP.Chemscore.Hbond>
1.9920

> <Gold.PLP.Chemscore.CHOScore>
0.0000

> <Gold.PLP.Chemscore.Metal>
0.0000

> <Gold.Chemscore.Hbonds>
donor molecule, donor type, donor heavy atom, donor atom, acceptor molecule, acceptor atom, score
      L1  H     7    33       P1  7948  0.99
      L1  H    10    34       P1  7948  1.00

> <Gold.PLP.Chemscore.Internal.Correction>
0.3425

> <Gold.Rescore>
     Score         DG    S(hbond)    S(metal)    S(lipo)     H(rot)  DE(clash)    DE(int)     intcor
     17.59     -18.41       1.95        0.00      84.74       1.36       0.12       0.70       ----

> <Gold.Chemscore.Fitness>
17.5890

> <Gold.Chemscore.DG>
-18.4126

> <Gold.Chemscore.ZeroCoef>
-5.4800

> <Gold.Chemscore.Hbond>
1.9460

> <Gold.Chemscore.Metal>
0.0000

> <Gold.Chemscore.Lipo>
84.7387

> <Gold.Chemscore.Internal_Hbond>
0.0000

> <Gold.Chemscore.DEClash>
0.1217

> <Gold.Chemscore.DEInternal>
0.7019

> <Gold.Chemscore.Rot>
1.3599

> <Gold.Chemscore.Internal.Correction>
   9.000000E+99

> <Gold.Chemscore.Hbonds>
donor molecule, donor type, donor heavy atom, donor atom, acceptor molecule, acceptor atom, score
      L1  H     7    33       P1  7948  0.93
      L1  H    10    34       P1  7948  0.99

> <Gold.Chemscore.Hbond.Weighted>
-6.4995

> <Gold.Chemscore.Metal.Weighted>
-0.0000

> <Gold.Chemscore.Lipo.Weighted>
-9.9144

> <Gold.Chemscore.Internal_Hbond.Weighted>
0.0000

> <Gold.Chemscore.DEClash.Weighted>
0.1217

> <Gold.Chemscore.DEInternal.Weighted>
0.7019

> <Gold.Chemscore.Rot.Weighted>
3.4813

> <Gold.Chemscore.Internal.Correction.Weighted>
   9.000000E+99

> <Gold.Protein.RotatedTorsions>
[ 6907 6896 6895 6894 ] final   45.91 input  -60.11 | X-H torsion
[ 7974 7965 7964 7962 ] final   95.03 input  175.53 | X-H torsion
[ 8008 7997 7996 7995 ] final  167.23 input   59.86 | X-H torsion
[ 10167 10162 10161 10158 ] final -116.79 input  -65.29 | X-H torsion
[ 10718 10713 10712 10709 ] final    6.05 input   66.30 | X-H torsion
[ 10763 10752 10751 10750 ] final  113.90 input  -60.55 | X-H torsion
[ 11005 11000 10999 10996 ] final -179.25 input  -57.11 | X-H torsion

> <Gold.Protein.ActiveResidues>
 VAL166  LYS551  ARG553  GLY616  TRP617  ASP618  TYR619  PRO620  LYS621  CYS622 
 ASP623  PHE694  ASN695  SER759  ASP760  ASP761  ALA762  ILE779  LEU786  VAL792 
 PHE793  MET794  SER795  GLU796  ALA797  LYS798  CYS799  TRP800  GLU811  SER814 

> <Gold.Protein.RotatedAtoms>
  152.2501  134.8141  160.0447 H   0  0  0  0  0  0  0  0  0  0  0  0  # atno 6907 bound_to 6896
  151.8824  133.3493  159.3779 H   0  0  0  0  0  0  0  0  0  0  0  0  # atno 6908 bound_to 6896
  150.7081  134.4931  159.5569 H   0  0  0  0  0  0  0  0  0  0  0  0  # atno 6909 bound_to 6896
  145.4577  139.2289  143.3005 H   0  0  0  0  0  0  0  0  0  0  0  0  # atno 7974 bound_to 7965
  156.1652  140.1622  156.8544 H   0  0  0  0  0  0  0  0  0  0  0  0  # atno 8008 bound_to 7997
  154.5200  140.0780  156.8189 H   0  0  0  0  0  0  0  0  0  0  0  0  # atno 8009 bound_to 7997
  155.3627  140.3396  155.4243 H   0  0  0  0  0  0  0  0  0  0  0  0  # atno 8010 bound_to 7997
  140.0754  143.4838  152.1956 H   0  0  0  0  0  0  0  0  0  0  0  0  # atno 10167 bound_to 10162
  156.9164  130.5775  149.5647 H   0  0  0  0  0  0  0  0  0  0  0  0  # atno 10718 bound_to 10713
  153.4994  135.3641  155.2532 H   0  0  0  0  0  0  0  0  0  0  0  0  # atno 10763 bound_to 10752
  154.8748  135.3996  154.3496 H   0  0  0  0  0  0  0  0  0  0  0  0  # atno 10764 bound_to 10752
  153.4130  135.7078  153.6412 H   0  0  0  0  0  0  0  0  0  0  0  0  # atno 10765 bound_to 10752
  140.4207  134.6608  157.4662 H   0  0  0  0  0  0  0  0  0  0  0  0  # atno 11005 bound_to 11000
  146.2469  140.5343  142.8910 LP  0  0  0  0  0  0  0  0  0  0  0  0  # atno 17320 bound_to 7965
  144.8022  140.6234  143.6470 LP  0  0  0  0  0  0  0  0  0  0  0  0  # atno 17321 bound_to 7965
  139.5811  144.7511  151.3637 LP  0  0  0  0  0  0  0  0  0  0  0  0  # atno 17342 bound_to 10162
  140.7105  143.7403  150.7558 LP  0  0  0  0  0  0  0  0  0  0  0  0  # atno 17343 bound_to 10162
  156.0511  130.5581  150.8992 LP  0  0  0  0  0  0  0  0  0  0  0  0  # atno 17370 bound_to 10713
  157.5935  131.0944  150.9079 LP  0  0  0  0  0  0  0  0  0  0  0  0  # atno 17371 bound_to 10713
  140.0202  134.6558  155.9251 LP  0  0  0  0  0  0  0  0  0  0  0  0  # atno 17394 bound_to 11000
  141.1785  133.6543  156.4924 LP  0  0  0  0  0  0  0  0  0  0  0  0  # atno 17395 bound_to 11000

$$$$
