AV-unprocessed.smi:2881|AV-procd|sdf|11067|dock7
  -GOLD-   2272015543D 1   1.00000     0.00000
 Structure written by MMmdl.
 40 42  0  0  0  0  0  0  0  0  1 V2000
  146.7147  140.3472  152.9818 C   0  0  0  0  0  0  0  0  0  0  0  0
  147.8894  140.6552  153.8627 C   0  0  0  0  0  0  0  0  0  0  0  0
  148.8393  139.7454  154.4128 C   0  0  0  0  0  0  0  0  0  0  0  0
  149.6902  140.5376  155.1316 C   0  0  0  0  0  0  0  0  0  0  0  0
  150.9000  140.2026  155.9426 C   0  0  0  0  0  0  0  0  0  0  0  0
  150.8114  140.8196  157.3382 C   0  0  0  0  0  0  0  0  0  0  0  0
  150.5588  140.1087  158.3104 O   0  0  0  0  0  0  0  0  0  0  0  0
  151.0289  142.1416  157.4227 N   0  0  0  0  0  0  0  0  0  0  0  0
  150.9860  142.9332  158.6530 C   0  0  2  0  0  0  0  0  0  0  0  0
  151.0755  144.4382  158.3201 C   0  0  1  0  0  0  0  0  0  0  0  0
  150.6514  145.2538  159.5553 C   0  0  0  0  0  0  0  0  0  0  0  0
  151.8421  145.0539  160.5123 C   0  0  0  0  0  0  0  0  0  0  0  0
  152.7885  144.1483  159.6990 C   0  0  2  0  0  0  0  0  0  0  0  0
  152.5792  144.6837  158.2882 C   0  0  0  0  0  0  0  0  0  0  0  0
  152.1915  142.7214  159.6192 C   0  0  2  0  0  0  0  0  0  0  0  0
  153.2233  141.6494  159.2001 C   0  0  0  0  0  0  0  0  0  0  0  0
  154.2590  141.5615  160.1561 O   0  0  0  0  0  0  0  0  0  0  0  0
  149.2304  141.8270  154.9819 N   0  0  0  0  0  0  0  0  0  0  0  0
  148.1308  141.9105  154.2105 N   0  0  0  0  0  0  0  0  0  0  0  0
  149.6497  142.6476  155.3954 H   0  0  0  0  0  0  0  0  0  0  0  0
  146.6616  139.2823  152.7546 H   0  0  0  0  0  0  0  0  0  0  0  0
  146.7809  140.8847  152.0356 H   0  0  0  0  0  0  0  0  0  0  0  0
  145.7783  140.6306  153.4627 H   0  0  0  0  0  0  0  0  0  0  0  0
  148.8878  138.6726  154.2977 H   0  0  0  0  0  0  0  0  0  0  0  0
  151.8035  140.5469  155.4372 H   0  0  0  0  0  0  0  0  0  0  0  0
  150.9938  139.1204  156.0396 H   0  0  0  0  0  0  0  0  0  0  0  0
  151.2334  142.6422  156.5702 H   0  0  0  0  0  0  0  0  0  0  0  0
  150.0460  142.7312  159.1704 H   0  0  0  0  0  0  0  0  0  0  0  0
  150.5413  144.7254  157.4133 H   0  0  0  0  0  0  0  0  0  0  0  0
  150.5353  146.3088  159.3039 H   0  0  0  0  0  0  0  0  0  0  0  0
  149.7096  144.9073  159.9823 H   0  0  0  0  0  0  0  0  0  0  0  0
  152.3177  146.0100  160.7345 H   0  0  0  0  0  0  0  0  0  0  0  0
  151.5454  144.6030  161.4601 H   0  0  0  0  0  0  0  0  0  0  0  0
  153.8193  144.1832  160.0522 H   0  0  0  0  0  0  0  0  0  0  0  0
  153.0982  144.1090  157.5200 H   0  0  0  0  0  0  0  0  0  0  0  0
  152.8434  145.7373  158.1817 H   0  0  0  0  0  0  0  0  0  0  0  0
  151.8075  142.4330  160.5991 H   0  0  0  0  0  0  0  0  0  0  0  0
  152.7507  140.6691  159.1355 H   0  0  0  0  0  0  0  0  0  0  0  0
  153.6559  141.8684  158.2237 H   0  0  0  0  0  0  0  0  0  0  0  0
  154.8966  140.9333  159.8530 H   0  0  0  0  0  0  0  0  0  0  0  0
  1 21  1  0  0  0  0
  1 22  1  0  0  0  0
  1 23  1  0  0  0  0
  1  2  1  0  0  0  0
  2 19  2  0  0  0  0
  2  3  1  0  0  0  0
  3  4  2  0  0  0  0
  3 24  1  0  0  0  0
  4 18  1  0  0  0  0
  4  5  1  0  0  0  0
  5  6  1  0  0  0  0
  5 25  1  0  0  0  0
  5 26  1  0  0  0  0
  6  7  2  0  0  0  0
  6  8  1  0  0  0  0
  8  9  1  0  0  0  0
  8 27  1  0  0  0  0
  9 15  1  0  0  0  0
  9 10  1  0  0  0  0
  9 28  1  0  0  0  0
 10 14  1  0  0  0  0
 10 11  1  0  0  0  0
 10 29  1  0  0  0  0
 11 12  1  0  0  0  0
 11 30  1  0  0  0  0
 11 31  1  0  0  0  0
 12 13  1  0  0  0  0
 12 32  1  0  0  0  0
 12 33  1  0  0  0  0
 13 14  1  0  0  0  0
 13 15  1  0  0  0  0
 13 34  1  0  0  0  0
 14 35  1  0  0  0  0
 14 36  1  0  0  0  0
 15 16  1  0  0  0  0
 15 37  1  0  0  0  0
 16 17  1  0  0  0  0
 16 38  1  0  0  0  0
 16 39  1  0  0  0  0
 17 40  1  0  0  0  0
 18 19  1  0  0  0  0
 18 20  1  0  0  0  0
M  END
> <s_m_source_file>
AV-unprocessed.smi

> <i_m_source_file_index>
2881

> <i_lp_mmshare_version>
43012

> <i_f3d_flags>
0

> <s_epik_input>
W0NIM11jMVtjSF1jKG5bbkhdMSlbQ0gyXUMoPU8pW05IXVtDQEhdKFtDQEBIXTIzKVtDQEhdKFtDSDJdW09IXSlbQ0BASF0oW0NIMl0zKVtDSDJdW0NIMl0y

> <s_epik_cmdline>
J2VwaWtfcHl0aG9uJywgJy1waCcsICc3LjAnLCAnLXRuJywgJzgnLCAnLW1hJywgJzIwMCcsICctbWV0YWxfYmluZGluZycsICctaW1hZScsICc8aW5maWxlLm1hZT4nLCAnLW9tYWUnLCAnPG91dGZpbGUubWFlPic=

> <r_lp_tautomer_probability>
0.5

> <r_epik_Ionization_Penalty>
0.00013396

> <r_epik_Ionization_Penalty_Charging>
0

> <r_epik_Ionization_Penalty_Neutral>
0.00013396

> <r_epik_State_Penalty>
0.41068

> <r_epik_Charging_Adjusted_Penalty>
0.41068

> <i_epik_Tot_Q>
0

> <i_epik_Tot_abs_Q>
0

> <r_epik_Metal_State_Penalty>
0.41066

> <b_epik_Metal_Only>
0

> <s_lp_Force_Field>
OPLS_2005

> <r_lp_Energy>
49.1739

> <b_lp_Chiralities_Consistent>
1

> <s_lp_Variant>
AV-unprocessed.smi:2881-13

> <Gold.Version>
5.8.1

> <Gold.Id.Protein>
6NUR|6NUR_protein|mol2

> <Gold.PLP.Fitness>
43.8592

> <Gold.PLP.PLP>
-43.4971

> <Gold.PLP.part.hbond>
-2.0000

> <Gold.PLP.part.metal>
0.0000

> <Gold.PLP.part.buried>
-4.4080

> <Gold.PLP.part.nonpolar>
-38.2074

> <Gold.PLP.part.repulsive>
0.4317

> <Gold.PLP.ligand.clash>
0.0000

> <Gold.PLP.ligand.torsion>
0.3699

> <Gold.PLP.Chemscore.Hbond>
0.3594

> <Gold.PLP.Chemscore.CHOScore>
0.0000

> <Gold.PLP.Chemscore.Metal>
0.0000

> <Gold.Chemscore.Hbonds>
donor molecule, donor type, donor heavy atom, donor atom, acceptor molecule, acceptor atom, score
      L1  H    18    20       P1  8028  0.32

> <Gold.PLP.Chemscore.Internal.Correction>
0.0235

> <Gold.Rescore>
     Score         DG    S(hbond)    S(metal)    S(lipo)     H(rot)  DE(clash)    DE(int)     intcor
     15.71     -16.38       0.64        0.00     124.62       2.28       0.14       0.53       ----

> <Gold.Chemscore.Fitness>
15.7140

> <Gold.Chemscore.DG>
-16.3790

> <Gold.Chemscore.ZeroCoef>
-5.4800

> <Gold.Chemscore.Hbond>
0.6419

> <Gold.Chemscore.Metal>
0.0000

> <Gold.Chemscore.Lipo>
124.6182

> <Gold.Chemscore.Internal_Hbond>
0.0000

> <Gold.Chemscore.DEClash>
0.1393

> <Gold.Chemscore.DEInternal>
0.5257

> <Gold.Chemscore.Rot>
2.2755

> <Gold.Chemscore.Internal.Correction>
   9.000000E+99

> <Gold.Chemscore.Hbonds>
donor molecule, donor type, donor heavy atom, donor atom, acceptor molecule, acceptor atom, score
      L1  H    18    20       P1  8028  0.32

> <Gold.Chemscore.Hbond.Weighted>
-2.1439

> <Gold.Chemscore.Metal.Weighted>
-0.0000

> <Gold.Chemscore.Lipo.Weighted>
-14.5803

> <Gold.Chemscore.Internal_Hbond.Weighted>
0.0000

> <Gold.Chemscore.DEClash.Weighted>
0.1393

> <Gold.Chemscore.DEInternal.Weighted>
0.5257

> <Gold.Chemscore.Rot.Weighted>
5.8252

> <Gold.Chemscore.Internal.Correction.Weighted>
   9.000000E+99

> <Gold.Protein.RotatedTorsions>
[ 6907 6896 6895 6894 ] final   28.77 input  -60.11 | X-H torsion
[ 7974 7965 7964 7962 ] final   90.40 input  175.53 | X-H torsion
[ 8008 7997 7996 7995 ] final   68.10 input   59.86 | X-H torsion
[ 10167 10162 10161 10158 ] final   22.32 input  -65.29 | X-H torsion
[ 10718 10713 10712 10709 ] final  106.72 input   66.30 | X-H torsion
[ 10763 10752 10751 10750 ] final  -68.92 input  -60.55 | X-H torsion
[ 11005 11000 10999 10996 ] final  -80.50 input  -57.11 | X-H torsion

> <Gold.Protein.ActiveResidues>
 VAL166  LYS551  ARG553  GLY616  TRP617  ASP618  TYR619  PRO620  LYS621  CYS622 
 ASP623  PHE694  ASN695  SER759  ASP760  ASP761  ALA762  ILE779  LEU786  VAL792 
 PHE793  MET794  SER795  GLU796  ALA797  LYS798  CYS799  TRP800  GLU811  SER814 

> <Gold.Protein.RotatedAtoms>
  152.0218  134.9818  160.0570 H   0  0  0  0  0  0  0  0  0  0  0  0  # atno 6907 bound_to 6896
  152.1329  133.4414  159.4738 H   0  0  0  0  0  0  0  0  0  0  0  0  # atno 6908 bound_to 6896
  150.6858  134.2316  159.4480 H   0  0  0  0  0  0  0  0  0  0  0  0  # atno 6909 bound_to 6896
  145.5195  139.2279  143.2679 H   0  0  0  0  0  0  0  0  0  0  0  0  # atno 7974 bound_to 7965
  155.7030  140.3495  155.4941 H   0  0  0  0  0  0  0  0  0  0  0  0  # atno 8008 bound_to 7997
  155.9423  140.1104  157.1067 H   0  0  0  0  0  0  0  0  0  0  0  0  # atno 8009 bound_to 7997
  154.4105  140.1210  156.4930 H   0  0  0  0  0  0  0  0  0  0  0  0  # atno 8010 bound_to 7997
  140.5357  143.9764  150.6490 H   0  0  0  0  0  0  0  0  0  0  0  0  # atno 10167 bound_to 10162
  157.6657  131.0857  150.6049 H   0  0  0  0  0  0  0  0  0  0  0  0  # atno 10718 bound_to 10713
  154.3959  135.6042  153.5869 H   0  0  0  0  0  0  0  0  0  0  0  0  # atno 10763 bound_to 10752
  152.9787  135.5895  154.4242 H   0  0  0  0  0  0  0  0  0  0  0  0  # atno 10764 bound_to 10752
  154.4033  135.2843  155.2061 H   0  0  0  0  0  0  0  0  0  0  0  0  # atno 10765 bound_to 10752
  141.1668  133.7153  156.8282 H   0  0  0  0  0  0  0  0  0  0  0  0  # atno 11005 bound_to 11000
  146.2115  140.6007  142.9057 LP  0  0  0  0  0  0  0  0  0  0  0  0  # atno 17320 bound_to 7965
  144.7683  140.5581  143.6687 LP  0  0  0  0  0  0  0  0  0  0  0  0  # atno 17321 bound_to 7965
  140.3151  143.3173  152.0840 LP  0  0  0  0  0  0  0  0  0  0  0  0  # atno 17342 bound_to 10162
  139.4970  144.6611  151.6463 LP  0  0  0  0  0  0  0  0  0  0  0  0  # atno 17343 bound_to 10162
  156.6350  130.4442  149.5773 LP  0  0  0  0  0  0  0  0  0  0  0  0  # atno 17370 bound_to 10713
  156.2253  130.6762  151.1409 LP  0  0  0  0  0  0  0  0  0  0  0  0  # atno 17371 bound_to 10713
  140.2070  134.8855  157.3232 LP  0  0  0  0  0  0  0  0  0  0  0  0  # atno 17394 bound_to 11000
  140.2127  134.4119  155.7605 LP  0  0  0  0  0  0  0  0  0  0  0  0  # atno 17395 bound_to 11000

$$$$
