AV-unprocessed.smi:2339|AV-procd|sdf|9336|dock4
  -GOLD-   2272012553D 1   1.00000     0.00000
 Structure written by MMmdl.
 49 52  0  0  0  0  0  0  0  0  1 V2000
  153.1221  143.1722  162.9119 C   0  0  0  0  0  0  0  0  0  0  0  0
  152.4449  143.6045  161.6067 C   0  0  0  0  0  0  0  0  0  0  0  0
  152.5294  142.5697  160.5863 N   0  0  0  0  0  0  0  0  0  0  0  0
  153.5721  141.6493  160.5745 C   0  0  0  0  0  0  0  0  0  0  0  0
  153.7366  140.7079  159.6255 C   0  0  0  0  0  0  0  0  0  0  0  0
  152.7697  140.6256  158.5124 C   0  0  0  0  0  0  0  0  0  0  0  0
  152.8893  139.7755  157.6306 O   0  0  0  0  0  0  0  0  0  0  0  0
  151.6599  141.6153  158.5195 C   0  0  0  0  0  0  0  0  0  0  0  0
  150.7366  141.5210  157.4657 N   0  0  0  0  0  0  0  0  0  0  0  0
  149.6731  140.7032  157.3267 C   0  0  0  0  0  0  0  0  0  0  0  0
  149.2790  139.8986  158.1680 O   0  0  0  0  0  0  0  0  0  0  0  0
  149.0441  140.8283  156.1447 N   0  0  0  0  0  0  0  0  0  0  0  0
  147.8658  140.0956  155.6774 C   0  0  2  0  0  0  0  0  0  0  0  0
  148.1821  139.2070  154.4658 C   0  0  1  0  0  0  0  0  0  0  0  0
  148.1372  137.7099  154.6062 C   0  0  0  0  0  0  0  0  0  0  0  0
  146.7133  137.3680  154.1569 C   0  0  0  0  0  0  0  0  0  0  0  0
  145.9842  138.5838  154.3117 O   0  0  0  0  0  0  0  0  0  0  0  0
  146.8406  139.6500  153.9077 C   0  0  1  0  0  0  0  0  0  0  0  0
  146.8607  140.9055  154.8090 C   0  0  0  0  0  0  0  0  0  0  0  0
  147.3276  142.2034  154.1129 C   0  0  0  0  0  0  0  0  0  0  0  0
  146.1498  143.1750  154.1013 C   0  0  0  0  0  0  0  0  0  0  0  0
  145.3712  142.8129  155.3567 C   0  0  0  0  0  0  0  0  0  0  0  0
  145.5227  141.2965  155.4539 C   0  0  0  0  0  0  0  0  0  0  0  0
  151.6098  142.5080  159.5411 C   0  0  0  0  0  0  0  0  0  0  0  0
  153.0533  143.9593  163.6627 H   0  0  0  0  0  0  0  0  0  0  0  0
  154.1786  142.9538  162.7539 H   0  0  0  0  0  0  0  0  0  0  0  0
  152.6511  142.2785  163.3223 H   0  0  0  0  0  0  0  0  0  0  0  0
  151.3979  143.8452  161.7943 H   0  0  0  0  0  0  0  0  0  0  0  0
  152.9072  144.5200  161.2360 H   0  0  0  0  0  0  0  0  0  0  0  0
  154.2563  141.7403  161.4058 H   0  0  0  0  0  0  0  0  0  0  0  0
  154.5612  140.0110  159.6588 H   0  0  0  0  0  0  0  0  0  0  0  0
  150.9080  142.1591  156.7020 H   0  0  0  0  0  0  0  0  0  0  0  0
  149.4361  141.4923  155.4928 H   0  0  0  0  0  0  0  0  0  0  0  0
  147.3658  139.5270  156.4651 H   0  0  0  0  0  0  0  0  0  0  0  0
  149.0112  139.5881  153.8669 H   0  0  0  0  0  0  0  0  0  0  0  0
  148.8830  137.2079  153.9896 H   0  0  0  0  0  0  0  0  0  0  0  0
  148.3012  137.4104  155.6419 H   0  0  0  0  0  0  0  0  0  0  0  0
  146.7025  137.0800  153.1047 H   0  0  0  0  0  0  0  0  0  0  0  0
  146.2710  136.5583  154.7374 H   0  0  0  0  0  0  0  0  0  0  0  0
  146.8390  139.8239  152.8307 H   0  0  0  0  0  0  0  0  0  0  0  0
  148.1461  142.6796  154.6500 H   0  0  0  0  0  0  0  0  0  0  0  0
  147.6925  142.0258  153.1008 H   0  0  0  0  0  0  0  0  0  0  0  0
  146.4626  144.2195  154.0834 H   0  0  0  0  0  0  0  0  0  0  0  0
  145.5313  142.9943  153.2211 H   0  0  0  0  0  0  0  0  0  0  0  0
  145.8336  143.2852  156.2245 H   0  0  0  0  0  0  0  0  0  0  0  0
  144.3295  143.1322  155.3168 H   0  0  0  0  0  0  0  0  0  0  0  0
  144.6977  140.8276  154.9164 H   0  0  0  0  0  0  0  0  0  0  0  0
  145.4458  140.9605  156.4874 H   0  0  0  0  0  0  0  0  0  0  0  0
  150.8293  143.2452  159.6403 H   0  0  0  0  0  0  0  0  0  0  0  0
  1  2  1  0  0  0  0
  1 25  1  0  0  0  0
  1 26  1  0  0  0  0
  1 27  1  0  0  0  0
  2  3  1  0  0  0  0
  2 28  1  0  0  0  0
  2 29  1  0  0  0  0
  3 24  1  0  0  0  0
  3  4  1  0  0  0  0
  4  5  2  0  0  0  0
  4 30  1  0  0  0  0
  5  6  1  0  0  0  0
  5 31  1  0  0  0  0
  6  7  2  0  0  0  0
  6  8  1  0  0  0  0
  8  9  1  0  0  0  0
  8 24  2  0  0  0  0
  9 10  1  0  0  0  0
  9 32  1  0  0  0  0
 10 11  2  0  0  0  0
 10 12  1  0  0  0  0
 12 13  1  0  0  0  0
 12 33  1  0  0  0  0
 13 19  1  0  0  0  0
 13 14  1  0  0  0  0
 13 34  1  0  0  0  0
 14 18  1  0  0  0  0
 14 15  1  0  0  0  0
 14 35  1  0  0  0  0
 15 16  1  0  0  0  0
 15 36  1  0  0  0  0
 15 37  1  0  0  0  0
 16 17  1  0  0  0  0
 16 38  1  0  0  0  0
 16 39  1  0  0  0  0
 17 18  1  0  0  0  0
 18 19  1  0  0  0  0
 18 40  1  0  0  0  0
 19 23  1  0  0  0  0
 19 20  1  0  0  0  0
 20 21  1  0  0  0  0
 20 41  1  0  0  0  0
 20 42  1  0  0  0  0
 21 22  1  0  0  0  0
 21 43  1  0  0  0  0
 21 44  1  0  0  0  0
 22 23  1  0  0  0  0
 22 45  1  0  0  0  0
 22 46  1  0  0  0  0
 23 47  1  0  0  0  0
 23 48  1  0  0  0  0
 24 49  1  0  0  0  0
M  END
> <s_m_source_file>
AV-unprocessed.smi

> <i_m_source_file_index>
2339

> <i_lp_mmshare_version>
43012

> <i_f3d_flags>
0

> <s_epik_input>
W0NIM11bQ0gyXW4xW2NIXVtjSF1jKD1PKWMoW2NIXTEpW05IXUMoPU8pW05IXVtDQEBIXTJbQ0BASF0oW0NIMl1bQ0gyXU8zKVtDQEBIXTNDMjRbQ0gyXVtDSDJdW0NIMl1bQ0gyXTQ=

> <s_epik_cmdline>
J2VwaWtfcHl0aG9uJywgJy1waCcsICc3LjAnLCAnLXRuJywgJzgnLCAnLW1hJywgJzIwMCcsICctbWV0YWxfYmluZGluZycsICctaW1hZScsICc8aW5maWxlLm1hZT4nLCAnLW9tYWUnLCAnPG91dGZpbGUubWFlPic=

> <r_lp_tautomer_probability>
1

> <r_epik_Ionization_Penalty>
0.00145966

> <r_epik_Ionization_Penalty_Charging>
0.00143969

> <r_epik_Ionization_Penalty_Neutral>
1.99697e-05

> <r_epik_State_Penalty>
0.000961843

> <r_epik_Charging_Adjusted_Penalty>
0.00240153

> <i_epik_Tot_Q>
0

> <i_epik_Tot_abs_Q>
0

> <r_epik_Metal_State_Penalty>
-0

> <b_epik_Metal_Only>
0

> <s_lp_Force_Field>
OPLS_2005

> <r_lp_Energy>
57.0786

> <b_lp_Chiralities_Consistent>
1

> <s_lp_Variant>
AV-unprocessed.smi:2339-1

> <Gold.Version>
5.8.1

> <Gold.Id.Protein>
6NUR|6NUR_protein|mol2

> <Gold.PLP.Fitness>
41.7210

> <Gold.PLP.PLP>
-41.0809

> <Gold.PLP.part.hbond>
-1.2017

> <Gold.PLP.part.metal>
0.0000

> <Gold.PLP.part.buried>
-7.0778

> <Gold.PLP.part.nonpolar>
-33.3608

> <Gold.PLP.part.repulsive>
0.1663

> <Gold.PLP.ligand.clash>
0.0000

> <Gold.PLP.ligand.torsion>
1.2701

> <Gold.PLP.Chemscore.Hbond>
1.0000

> <Gold.PLP.Chemscore.CHOScore>
0.0000

> <Gold.PLP.Chemscore.Metal>
0.0000

> <Gold.Chemscore.Hbonds>
donor molecule, donor type, donor heavy atom, donor atom, acceptor molecule, acceptor atom, score
      P1  H  7997  8009       L1     7  1.00

> <Gold.PLP.Chemscore.Internal.Correction>
0.1803

> <Gold.Rescore>
     Score         DG    S(hbond)    S(metal)    S(lipo)     H(rot)  DE(clash)    DE(int)     intcor
     16.16     -17.39       0.95        0.00     100.27       1.17       0.06       1.17       ----

> <Gold.Chemscore.Fitness>
16.1624

> <Gold.Chemscore.DG>
-17.3949

> <Gold.Chemscore.ZeroCoef>
-5.4800

> <Gold.Chemscore.Hbond>
0.9495

> <Gold.Chemscore.Metal>
0.0000

> <Gold.Chemscore.Lipo>
100.2663

> <Gold.Chemscore.Internal_Hbond>
0.0000

> <Gold.Chemscore.DEClash>
0.0592

> <Gold.Chemscore.DEInternal>
1.1733

> <Gold.Chemscore.Rot>
1.1670

> <Gold.Chemscore.Internal.Correction>
   9.000000E+99

> <Gold.Chemscore.Hbonds>
donor molecule, donor type, donor heavy atom, donor atom, acceptor molecule, acceptor atom, score
      P1  H  7997  8009       L1     7  0.70

> <Gold.Chemscore.Hbond.Weighted>
-3.1712

> <Gold.Chemscore.Metal.Weighted>
-0.0000

> <Gold.Chemscore.Lipo.Weighted>
-11.7312

> <Gold.Chemscore.Internal_Hbond.Weighted>
0.0000

> <Gold.Chemscore.DEClash.Weighted>
0.0592

> <Gold.Chemscore.DEInternal.Weighted>
1.1733

> <Gold.Chemscore.Rot.Weighted>
2.9874

> <Gold.Chemscore.Internal.Correction.Weighted>
   9.000000E+99

> <Gold.Protein.RotatedTorsions>
[ 6907 6896 6895 6894 ] final  118.42 input  -60.11 | X-H torsion
[ 7974 7965 7964 7962 ] final   15.28 input  175.53 | X-H torsion
[ 8008 7997 7996 7995 ] final  176.41 input   59.86 | X-H torsion
[ 10167 10162 10161 10158 ] final   88.16 input  -65.29 | X-H torsion
[ 10718 10713 10712 10709 ] final -137.23 input   66.30 | X-H torsion
[ 10763 10752 10751 10750 ] final   69.29 input  -60.55 | X-H torsion
[ 11005 11000 10999 10996 ] final -126.07 input  -57.11 | X-H torsion

> <Gold.Protein.ActiveResidues>
 VAL166  LYS551  ARG553  GLY616  TRP617  ASP618  TYR619  PRO620  LYS621  CYS622 
 ASP623  PHE694  ASN695  SER759  ASP760  ASP761  ALA762  ILE779  LEU786  VAL792 
 PHE793  MET794  SER795  GLU796  ALA797  LYS798  CYS799  TRP800  GLU811  SER814 

> <Gold.Protein.RotatedAtoms>
  152.4544  133.7693  159.6789 H   0  0  0  0  0  0  0  0  0  0  0  0  # atno 6907 bound_to 6896
  150.8465  133.7843  159.3047 H   0  0  0  0  0  0  0  0  0  0  0  0  # atno 6908 bound_to 6896
  151.5451  135.1071  159.9988 H   0  0  0  0  0  0  0  0  0  0  0  0  # atno 6909 bound_to 6896
  146.2282  139.8917  142.8553 H   0  0  0  0  0  0  0  0  0  0  0  0  # atno 7974 bound_to 7965
  156.0767  140.1384  156.9762 H   0  0  0  0  0  0  0  0  0  0  0  0  # atno 8008 bound_to 7997
  154.4562  140.0960  156.6813 H   0  0  0  0  0  0  0  0  0  0  0  0  # atno 8009 bound_to 7997
  155.5141  140.3454  155.4396 H   0  0  0  0  0  0  0  0  0  0  0  0  # atno 8010 bound_to 7997
  139.8701  144.6497  150.8959 H   0  0  0  0  0  0  0  0  0  0  0  0  # atno 10167 bound_to 10162
  156.2858  130.7347  151.1358 H   0  0  0  0  0  0  0  0  0  0  0  0  # atno 10718 bound_to 10713
  153.0279  135.5216  154.7266 H   0  0  0  0  0  0  0  0  0  0  0  0  # atno 10763 bound_to 10752
  154.6306  135.2900  155.0223 H   0  0  0  0  0  0  0  0  0  0  0  0  # atno 10764 bound_to 10752
  154.1177  135.6612  153.4949 H   0  0  0  0  0  0  0  0  0  0  0  0  # atno 10765 bound_to 10752
  140.9711  134.0804  157.3868 H   0  0  0  0  0  0  0  0  0  0  0  0  # atno 11005 bound_to 11000
  145.2411  141.0009  143.3935 LP  0  0  0  0  0  0  0  0  0  0  0  0  # atno 17320 bound_to 7965
  144.9451  139.4145  143.6430 LP  0  0  0  0  0  0  0  0  0  0  0  0  # atno 17321 bound_to 7965
  140.7762  143.3671  151.1719 LP  0  0  0  0  0  0  0  0  0  0  0  0  # atno 17342 bound_to 10162
  139.7292  143.9100  152.3013 LP  0  0  0  0  0  0  0  0  0  0  0  0  # atno 17343 bound_to 10162
  157.7328  131.0596  150.5610 LP  0  0  0  0  0  0  0  0  0  0  0  0  # atno 17370 bound_to 10713
  156.5720  130.4282  149.6015 LP  0  0  0  0  0  0  0  0  0  0  0  0  # atno 17371 bound_to 10713
  139.8912  135.0117  156.6781 LP  0  0  0  0  0  0  0  0  0  0  0  0  # atno 17394 bound_to 11000
  140.7328  133.9045  155.8223 LP  0  0  0  0  0  0  0  0  0  0  0  0  # atno 17395 bound_to 11000

$$$$
