AV-unprocessed.smi:926|AV-procd|sdf|4186|dock3
  -GOLD-   22720 2 93D 1   1.00000     0.00000
 Structure written by MMmdl.
 37 39  0  0  0  0  0  0  0  0  1 V2000
  150.5024  139.9856  154.5455 O   0  0  0  0  0  0  0  0  0  0  0  0
  151.2032  139.3488  155.3341 C   0  0  0  0  0  0  0  0  0  0  0  0
  151.9798  138.1056  154.8836 C   0  0  0  0  0  0  0  0  0  0  0  0
  151.4847  136.8807  155.4880 N   0  0  0  0  0  0  0  0  0  0  0  0
  150.3554  136.1973  155.2887 C   0  0  0  0  0  0  0  0  0  0  0  0
  150.2937  135.1200  156.0564 N   0  0  0  0  0  0  0  0  0  0  0  0
  151.4818  135.1713  156.7663 N   0  0  0  0  0  0  0  0  0  0  0  0
  152.1927  136.2137  156.4331 N   0  0  0  0  0  0  0  0  0  0  0  0
  151.3469  139.6889  156.6239 N   0  0  0  0  0  0  0  0  0  0  0  0
  150.7085  140.8342  157.2611 C   0  0  0  0  0  0  0  0  0  0  0  0
  151.6908  141.5976  158.1665 C   0  0  0  0  0  0  0  0  0  0  0  0
  151.5219  143.1282  158.0951 C   0  0  1  0  0  0  0  0  0  0  0  0
  150.3178  143.6651  158.8988 C   0  0  0  0  0  0  0  0  0  0  0  0
  150.9414  144.7916  159.7437 C   0  0  1  0  0  0  0  0  0  0  0  0
  151.7902  144.1690  160.8678 C   0  0  0  0  0  0  0  0  0  0  0  0
  153.0201  143.6388  160.1085 C   0  0  0  0  0  0  0  0  0  0  0  0
  152.6910  143.9850  158.6418 C   0  0  2  0  0  0  0  0  0  0  0  0
  152.0111  145.3405  158.8062 C   0  0  0  0  0  0  0  0  0  0  0  0
  151.9096  138.0087  153.7997 H   0  0  0  0  0  0  0  0  0  0  0  0
  153.0362  138.2237  155.1305 H   0  0  0  0  0  0  0  0  0  0  0  0
  149.5850  136.4890  154.5901 H   0  0  0  0  0  0  0  0  0  0  0  0
  151.9397  139.1143  157.2057 H   0  0  0  0  0  0  0  0  0  0  0  0
  150.2920  141.4926  156.4973 H   0  0  0  0  0  0  0  0  0  0  0  0
  149.8660  140.4706  157.8498 H   0  0  0  0  0  0  0  0  0  0  0  0
  151.5390  141.2791  159.1986 H   0  0  0  0  0  0  0  0  0  0  0  0
  152.7170  141.3204  157.9259 H   0  0  0  0  0  0  0  0  0  0  0  0
  151.3748  143.3955  157.0471 H   0  0  0  0  0  0  0  0  0  0  0  0
  149.5549  144.0591  158.2261 H   0  0  0  0  0  0  0  0  0  0  0  0
  149.8460  142.9042  159.5218 H   0  0  0  0  0  0  0  0  0  0  0  0
  150.2166  145.5247  160.0986 H   0  0  0  0  0  0  0  0  0  0  0  0
  152.0865  144.9233  161.5979 H   0  0  0  0  0  0  0  0  0  0  0  0
  151.2575  143.3796  161.3996 H   0  0  0  0  0  0  0  0  0  0  0  0
  153.9171  144.1696  160.4301 H   0  0  0  0  0  0  0  0  0  0  0  0
  153.1995  142.5775  160.2762 H   0  0  0  0  0  0  0  0  0  0  0  0
  153.5656  143.9973  157.9909 H   0  0  0  0  0  0  0  0  0  0  0  0
  151.6070  145.7411  157.8748 H   0  0  0  0  0  0  0  0  0  0  0  0
  152.6499  146.0936  159.2714 H   0  0  0  0  0  0  0  0  0  0  0  0
  1  2  2  0  0  0  0
  2  3  1  0  0  0  0
  2  9  1  0  0  0  0
  3  4  1  0  0  0  0
  3 19  1  0  0  0  0
  3 20  1  0  0  0  0
  4  8  1  0  0  0  0
  4  5  1  0  0  0  0
  5  6  2  0  0  0  0
  5 21  1  0  0  0  0
  6  7  1  0  0  0  0
  7  8  2  0  0  0  0
  9 10  1  0  0  0  0
  9 22  1  0  0  0  0
 10 11  1  0  0  0  0
 10 23  1  0  0  0  0
 10 24  1  0  0  0  0
 11 12  1  0  0  0  0
 11 25  1  0  0  0  0
 11 26  1  0  0  0  0
 12 17  1  0  0  0  0
 12 13  1  0  0  0  0
 12 27  1  0  0  0  0
 13 14  1  0  0  0  0
 13 28  1  0  0  0  0
 13 29  1  0  0  0  0
 14 18  1  0  0  0  0
 14 15  1  0  0  0  0
 14 30  1  0  0  0  0
 15 16  1  0  0  0  0
 15 31  1  0  0  0  0
 15 32  1  0  0  0  0
 16 17  1  0  0  0  0
 16 33  1  0  0  0  0
 16 34  1  0  0  0  0
 17 18  1  0  0  0  0
 17 35  1  0  0  0  0
 18 36  1  0  0  0  0
 18 37  1  0  0  0  0
M  END
> <s_m_source_file>
AV-unprocessed.smi

> <i_m_source_file_index>
926

> <i_lp_mmshare_version>
43012

> <i_f3d_flags>
0

> <s_epik_input>
bjFubltjSF1uMVtDSDJdQyg9TylbTkhdW0NIMl1bQ0gyXVtDQEhdKFtDSDJdW0NASF0yMylbQ0BIXShbQ0gyXTMpW0NIMl1bQ0gyXTI=

> <s_epik_cmdline>
J2VwaWtfcHl0aG9uJywgJy1waCcsICc3LjAnLCAnLXRuJywgJzgnLCAnLW1hJywgJzIwMCcsICctbWV0YWxfYmluZGluZycsICctaW1hZScsICc8aW5maWxlLm1hZT4nLCAnLW9tYWUnLCAnPG91dGZpbGUubWFlPic=

> <r_lp_tautomer_probability>
1

> <r_epik_Ionization_Penalty>
4.22645e-07

> <r_epik_Ionization_Penalty_Charging>
0

> <r_epik_Ionization_Penalty_Neutral>
4.22645e-07

> <r_epik_State_Penalty>
-0

> <r_epik_Charging_Adjusted_Penalty>
0

> <i_epik_Tot_Q>
0

> <i_epik_Tot_abs_Q>
0

> <r_epik_Metal_State_Penalty>
-0

> <b_epik_Metal_Only>
0

> <s_lp_Force_Field>
OPLS_2005

> <r_lp_Energy>
51.6894

> <b_lp_Chiralities_Consistent>
1

> <s_lp_Variant>
AV-unprocessed.smi:926-4

> <Gold.Version>
5.8.1

> <Gold.Id.Protein>
6NUR|6NUR_protein|mol2

> <Gold.PLP.Fitness>
47.9958

> <Gold.PLP.PLP>
-40.3440

> <Gold.PLP.part.hbond>
-2.0000

> <Gold.PLP.part.metal>
0.0000

> <Gold.PLP.part.buried>
-6.0456

> <Gold.PLP.part.nonpolar>
-32.3129

> <Gold.PLP.part.repulsive>
0.2856

> <Gold.PLP.ligand.clash>
0.0000

> <Gold.PLP.ligand.torsion>
0.6817

> <Gold.PLP.Chemscore.Hbond>
2.0000

> <Gold.PLP.Chemscore.CHOScore>
1.0000

> <Gold.PLP.Chemscore.Metal>
0.0000

> <Gold.Chemscore.Hbonds>
donor molecule, donor type, donor heavy atom, donor atom, acceptor molecule, acceptor atom, score
      P1  H  7989  7998       L1     1  1.00
      P1  H 10752 10765       L1     8  0.48
      L1  C     5    21       P1  7948  0.36

> <Gold.PLP.Chemscore.Internal.Correction>
0.0152

> <Gold.Rescore>
     Score         DG    S(hbond)    S(metal)    S(lipo)     H(rot)  DE(clash)    DE(int)     intcor
     13.78     -14.50       0.98        0.00     104.75       2.54       0.13       0.58       ----

> <Gold.Chemscore.Fitness>
13.7759

> <Gold.Chemscore.DG>
-14.4951

> <Gold.Chemscore.ZeroCoef>
-5.4800

> <Gold.Chemscore.Hbond>
0.9795

> <Gold.Chemscore.Metal>
0.0000

> <Gold.Chemscore.Lipo>
104.7459

> <Gold.Chemscore.Internal_Hbond>
0.0000

> <Gold.Chemscore.DEClash>
0.1348

> <Gold.Chemscore.DEInternal>
0.5845

> <Gold.Chemscore.Rot>
2.5436

> <Gold.Chemscore.Internal.Correction>
   9.000000E+99

> <Gold.Chemscore.Hbonds>
donor molecule, donor type, donor heavy atom, donor atom, acceptor molecule, acceptor atom, score
      P1  H  7989  7998       L1     1  0.55

> <Gold.Chemscore.Hbond.Weighted>
-3.2716

> <Gold.Chemscore.Metal.Weighted>
-0.0000

> <Gold.Chemscore.Lipo.Weighted>
-12.2553

> <Gold.Chemscore.Internal_Hbond.Weighted>
0.0000

> <Gold.Chemscore.DEClash.Weighted>
0.1348

> <Gold.Chemscore.DEInternal.Weighted>
0.5845

> <Gold.Chemscore.Rot.Weighted>
6.5117

> <Gold.Chemscore.Internal.Correction.Weighted>
   9.000000E+99

> <Gold.Protein.RotatedTorsions>
[ 6907 6896 6895 6894 ] final   24.25 input  -60.11 | X-H torsion
[ 7974 7965 7964 7962 ] final   97.04 input  175.53 | X-H torsion
[ 8008 7997 7996 7995 ] final  162.25 input   59.86 | X-H torsion
[ 10167 10162 10161 10158 ] final  -98.71 input  -65.29 | X-H torsion
[ 10718 10713 10712 10709 ] final -103.09 input   66.30 | X-H torsion
[ 10763 10752 10751 10750 ] final -144.81 input  -60.55 | X-H torsion
[ 11005 11000 10999 10996 ] final   35.02 input  -57.11 | X-H torsion

> <Gold.Protein.ActiveResidues>
 VAL166  LYS551  ARG553  GLY616  TRP617  ASP618  TYR619  PRO620  LYS621  CYS622 
 ASP623  PHE694  ASN695  SER759  ASP760  ASP761  ALA762  ILE779  LEU786  VAL792 
 PHE793  MET794  SER795  GLU796  ALA797  LYS798  CYS799  TRP800  GLU811  SER814 

> <Gold.Protein.RotatedAtoms>
  151.9547  135.0152  160.0543 H   0  0  0  0  0  0  0  0  0  0  0  0  # atno 6907 bound_to 6896
  152.1922  133.4776  159.5022 H   0  0  0  0  0  0  0  0  0  0  0  0  # atno 6908 bound_to 6896
  150.6937  134.1615  159.4221 H   0  0  0  0  0  0  0  0  0  0  0  0  # atno 6909 bound_to 6896
  145.4308  139.2311  143.3145 H   0  0  0  0  0  0  0  0  0  0  0  0  # atno 7974 bound_to 7965
  156.2044  140.1755  156.7830 H   0  0  0  0  0  0  0  0  0  0  0  0  # atno 8008 bound_to 7997
  154.5635  140.0695  156.8887 H   0  0  0  0  0  0  0  0  0  0  0  0  # atno 8009 bound_to 7997
  155.2803  140.3348  155.4261 H   0  0  0  0  0  0  0  0  0  0  0  0  # atno 8010 bound_to 7997
  140.2701  143.3350  152.0543 H   0  0  0  0  0  0  0  0  0  0  0  0  # atno 10167 bound_to 10162
  156.0252  130.5451  150.7203 H   0  0  0  0  0  0  0  0  0  0  0  0  # atno 10718 bound_to 10713
  154.8412  135.3430  154.6405 H   0  0  0  0  0  0  0  0  0  0  0  0  # atno 10763 bound_to 10752
  153.7016  135.6969  153.5066 H   0  0  0  0  0  0  0  0  0  0  0  0  # atno 10764 bound_to 10752
  153.2519  135.4351  155.0760 H   0  0  0  0  0  0  0  0  0  0  0  0  # atno 10765 bound_to 10752
  140.2469  134.3349  155.7904 H   0  0  0  0  0  0  0  0  0  0  0  0  # atno 11005 bound_to 11000
  146.2608  140.5044  142.8854 LP  0  0  0  0  0  0  0  0  0  0  0  0  # atno 17320 bound_to 7965
  144.8184  140.6508  143.6369 LP  0  0  0  0  0  0  0  0  0  0  0  0  # atno 17321 bound_to 7965
  139.4991  144.6662  151.6351 LP  0  0  0  0  0  0  0  0  0  0  0  0  # atno 17342 bound_to 10162
  140.5896  143.9802  150.6317 LP  0  0  0  0  0  0  0  0  0  0  0  0  # atno 17343 bound_to 10162
  157.4820  131.0903  151.0525 LP  0  0  0  0  0  0  0  0  0  0  0  0  # atno 17370 bound_to 10713
  157.0956  130.5960  149.5449 LP  0  0  0  0  0  0  0  0  0  0  0  0  # atno 17371 bound_to 10713
  141.2205  133.7331  156.8975 LP  0  0  0  0  0  0  0  0  0  0  0  0  # atno 17394 bound_to 11000
  140.1597  134.9174  157.2699 LP  0  0  0  0  0  0  0  0  0  0  0  0  # atno 17395 bound_to 11000

$$$$
