AV-unprocessed.smi:1047|AV-procd|sdf|4560|dock2
  -GOLD-   22720 3 03D 1   1.00000     0.00000
 Structure written by MMmdl.
 57 59  0  0  0  0  0  0  0  0  3 V2000
  143.8815  132.8170  150.2436 C   0  0  0  0  0  0  0  0  0  0  0  0
  144.4709  134.2349  150.2295 C   0  0  0  0  0  0  0  0  0  0  0  0
  144.5537  134.8319  151.5862 N   0  3  1  0  0  0  0  0  0  0  0  0
  144.9336  133.8360  152.6166 C   0  0  0  0  0  0  0  0  0  0  0  0
  144.9439  134.4804  154.0129 C   0  0  0  0  0  0  0  0  0  0  0  0
  145.8339  135.5901  154.0227 O   0  0  0  0  0  0  0  0  0  0  0  0
  145.4508  136.5982  153.0934 C   0  0  1  0  0  0  0  0  0  0  0  0
  146.3862  137.8084  153.2608 C   0  0  0  0  0  0  0  0  0  0  0  0
  146.0219  138.9212  152.3593 N   0  3  0  0  0  0  0  0  0  0  0  0
  146.9398  140.0761  152.4190 C   0  0  0  0  0  0  0  0  0  0  0  0
  147.0527  140.6181  153.8530 C   0  0  2  0  0  0  0  0  0  0  0  0
  145.9194  141.4208  154.1238 O   0  0  0  0  0  0  0  0  0  0  0  0
  148.3309  141.4534  154.0594 C   0  0  0  0  0  0  0  0  0  0  0  0
  149.4097  140.6759  154.6428 N   0  0  0  0  0  0  0  0  0  0  0  0
  149.9337  139.5277  154.1717 C   0  0  0  0  0  0  0  0  0  0  0  0
  150.9300  138.9843  154.8648 N   0  0  0  0  0  0  0  0  0  0  0  0
  151.0631  139.8796  155.9123 C   0  0  0  0  0  0  0  0  0  0  0  0
  151.9523  139.8830  157.0092 C   0  0  0  0  0  0  0  0  0  0  0  0
  151.9081  140.9139  157.9748 C   0  0  0  0  0  0  0  0  0  0  0  0
  152.8835  140.8782  159.1381 C   0  0  0  0  0  0  0  0  0  0  0  0
  150.9620  141.9631  157.8517 C   0  0  0  0  0  0  0  0  0  0  0  0
  150.8931  143.0785  158.8799 C   0  0  0  0  0  0  0  0  0  0  0  0
  150.0683  141.9766  156.7604 C   0  0  0  0  0  0  0  0  0  0  0  0
  150.1233  140.9462  155.8054 C   0  0  0  0  0  0  0  0  0  0  0  0
  145.4439  136.0175  151.6630 C   0  0  0  0  0  0  0  0  0  0  0  0
  143.9256  132.3750  149.2478 H   0  0  0  0  0  0  0  0  0  0  0  0
  142.8365  132.8104  150.5515 H   0  0  0  0  0  0  0  0  0  0  0  0
  144.4375  132.1648  150.9177 H   0  0  0  0  0  0  0  0  0  0  0  0
  145.4750  134.1744  149.8069 H   0  0  0  0  0  0  0  0  0  0  0  0
  143.8954  134.8835  149.5673 H   0  0  0  0  0  0  0  0  0  0  0  0
  144.2303  133.0024  152.6048 H   0  0  0  0  0  0  0  0  0  0  0  0
  145.9188  133.4271  152.3861 H   0  0  0  0  0  0  0  0  0  0  0  0
  143.9415  134.7984  154.3042 H   0  0  0  0  0  0  0  0  0  0  0  0
  145.2760  133.7565  154.7572 H   0  0  0  0  0  0  0  0  0  0  0  0
  144.4400  136.9281  153.3412 H   0  0  0  0  0  0  0  0  0  0  0  0
  146.3615  138.1572  154.2940 H   0  0  0  0  0  0  0  0  0  0  0  0
  147.4137  137.5067  153.0523 H   0  0  0  0  0  0  0  0  0  0  0  0
  146.0178  138.5761  151.4093 H   0  0  0  0  0  0  0  0  0  0  0  0
  147.9209  139.7545  152.0668 H   0  0  0  0  0  0  0  0  0  0  0  0
  146.5976  140.8592  151.7406 H   0  0  0  0  0  0  0  0  0  0  0  0
  147.0559  139.7836  154.5557 H   0  0  0  0  0  0  0  0  0  0  0  0
  145.2466  141.2132  153.4924 H   0  0  0  0  0  0  0  0  0  0  0  0
  148.6795  141.8544  153.1067 H   0  0  0  0  0  0  0  0  0  0  0  0
  148.1282  142.3105  154.7038 H   0  0  0  0  0  0  0  0  0  0  0  0
  149.5682  139.0681  153.2648 H   0  0  0  0  0  0  0  0  0  0  0  0
  152.6720  139.0829  157.1033 H   0  0  0  0  0  0  0  0  0  0  0  0
  152.3460  140.8190  160.0847 H   0  0  0  0  0  0  0  0  0  0  0  0
  153.5023  141.7756  159.1458 H   0  0  0  0  0  0  0  0  0  0  0  0
  153.5475  140.0154  159.0759 H   0  0  0  0  0  0  0  0  0  0  0  0
  150.1010  143.7896  158.6440 H   0  0  0  0  0  0  0  0  0  0  0  0
  151.8357  143.6256  158.9134 H   0  0  0  0  0  0  0  0  0  0  0  0
  150.6927  142.6727  159.8718 H   0  0  0  0  0  0  0  0  0  0  0  0
  149.3437  142.7702  156.6548 H   0  0  0  0  0  0  0  0  0  0  0  0
  146.4518  135.7272  151.3625 H   0  0  0  0  0  0  0  0  0  0  0  0
  145.1110  136.7861  150.9661 H   0  0  0  0  0  0  0  0  0  0  0  0
  145.0921  139.2401  152.5899 H   0  0  0  0  0  0  0  0  0  0  0  0
  143.6212  135.1419  151.8216 H   0  0  0  0  0  0  0  0  0  0  0  0
  1  2  1  0  0  0  0
  1 26  1  0  0  0  0
  1 27  1  0  0  0  0
  1 28  1  0  0  0  0
  2  3  1  0  0  0  0
  2 29  1  0  0  0  0
  2 30  1  0  0  0  0
  3 25  1  0  0  0  0
  3  4  1  0  0  0  0
  3 57  1  0  0  0  0
  4  5  1  0  0  0  0
  4 31  1  0  0  0  0
  4 32  1  0  0  0  0
  5  6  1  0  0  0  0
  5 33  1  0  0  0  0
  5 34  1  0  0  0  0
  6  7  1  0  0  0  0
  7  8  1  0  0  0  0
  7 25  1  0  0  0  0
  7 35  1  0  0  0  0
  8  9  1  0  0  0  0
  8 36  1  0  0  0  0
  8 37  1  0  0  0  0
  9 10  1  0  0  0  0
  9 38  1  0  0  0  0
  9 56  1  0  0  0  0
 10 11  1  0  0  0  0
 10 39  1  0  0  0  0
 10 40  1  0  0  0  0
 11 12  1  0  0  0  0
 11 13  1  0  0  0  0
 11 41  1  0  0  0  0
 12 42  1  0  0  0  0
 13 14  1  0  0  0  0
 13 43  1  0  0  0  0
 13 44  1  0  0  0  0
 14 24  1  0  0  0  0
 14 15  1  0  0  0  0
 15 16  2  0  0  0  0
 15 45  1  0  0  0  0
 16 17  1  0  0  0  0
 17 24  2  0  0  0  0
 17 18  1  0  0  0  0
 18 19  2  0  0  0  0
 18 46  1  0  0  0  0
 19 20  1  0  0  0  0
 19 21  1  0  0  0  0
 20 47  1  0  0  0  0
 20 48  1  0  0  0  0
 20 49  1  0  0  0  0
 21 22  1  0  0  0  0
 21 23  2  0  0  0  0
 22 50  1  0  0  0  0
 22 51  1  0  0  0  0
 22 52  1  0  0  0  0
 23 24  1  0  0  0  0
 23 53  1  0  0  0  0
 25 54  1  0  0  0  0
 25 55  1  0  0  0  0
M  CHG  1   3   1
M  CHG  1   9   1
M  END
> <s_m_source_file>
AV-unprocessed.smi

> <i_m_source_file_index>
1047

> <i_lp_mmshare_version>
43012

> <i_f3d_flags>
0

> <s_epik_input>
W0NIM11bQ0gyXU4xW0NIMl1bQ0gyXU9bQ0BIXShbQ0gyXTEpW0NIMl1bTkhdW0NIMl1bQ0BIXShbT0hdKVtDSDJdbihbY0hdbjIpYyhjMjMpW2NIXWMoW0NIM10pYyhbY0hdMylbQ0gzXQ==

> <s_epik_cmdline>
J2VwaWtfcHl0aG9uJywgJy1waCcsICc3LjAnLCAnLXRuJywgJzgnLCAnLW1hJywgJzIwMCcsICctbWV0YWxfYmluZGluZycsICctaW1hZScsICc8aW5maWxlLm1hZT4nLCAnLW9tYWUnLCAnPG91dGZpbGUubWFlPic=

> <r_epik_Ionization_Penalty>
0.528991

> <r_epik_Ionization_Penalty_Charging>
0.438567

> <r_epik_Ionization_Penalty_Neutral>
0.0904237

> <r_epik_State_Penalty>
0.533036

> <r_epik_Charging_Adjusted_Penalty>
0.971603

> <i_epik_Tot_Q>
2

> <i_epik_Tot_abs_Q>
2

> <r_epik_Metal_State_Penalty>
0.448985

> <b_epik_Metal_Only>
0

> <s_lp_Force_Field>
OPLS_2005

> <r_lp_Energy>
32.0872

> <b_lp_Chiralities_Consistent>
1

> <s_lp_Variant>
AV-unprocessed.smi:1047-1

> <Gold.Version>
5.8.1

> <Gold.Id.Protein>
6NUR|6NUR_protein|mol2

> <Gold.PLP.Fitness>
51.4222

> <Gold.PLP.PLP>
-41.2813

> <Gold.PLP.part.hbond>
-2.0000

> <Gold.PLP.part.metal>
0.0000

> <Gold.PLP.part.buried>
-0.5955

> <Gold.PLP.part.nonpolar>
-38.6313

> <Gold.PLP.part.repulsive>
0.1908

> <Gold.PLP.ligand.clash>
0.0000

> <Gold.PLP.ligand.torsion>
0.8968

> <Gold.PLP.Chemscore.Hbond>
3.0000

> <Gold.PLP.Chemscore.CHOScore>
0.8982

> <Gold.PLP.Chemscore.Metal>
0.0000

> <Gold.Chemscore.Hbonds>
donor molecule, donor type, donor heavy atom, donor atom, acceptor molecule, acceptor atom, score
      L1  H     9    56       P1 10175  2.00
      L1  H    12    42       P1 10175  1.00
      L1  C    15    45       P1  7957  0.92

> <Gold.PLP.Chemscore.Internal.Correction>
0.2400

> <Gold.Rescore>
     Score         DG    S(hbond)    S(metal)    S(lipo)     H(rot)  DE(clash)    DE(int)     intcor
     15.56     -16.87       1.57        0.00     111.55       2.70       0.46       0.85       ----

> <Gold.Chemscore.Fitness>
15.5601

> <Gold.Chemscore.DG>
-16.8739

> <Gold.Chemscore.ZeroCoef>
-5.4800

> <Gold.Chemscore.Hbond>
1.5719

> <Gold.Chemscore.Metal>
0.0000

> <Gold.Chemscore.Lipo>
111.5539

> <Gold.Chemscore.Internal_Hbond>
0.0000

> <Gold.Chemscore.DEClash>
0.4587

> <Gold.Chemscore.DEInternal>
0.8550

> <Gold.Chemscore.Rot>
2.6985

> <Gold.Chemscore.Internal.Correction>
   9.000000E+99

> <Gold.Chemscore.Hbonds>
donor molecule, donor type, donor heavy atom, donor atom, acceptor molecule, acceptor atom, score
      L1  H     9    56       P1 10175  0.96
      L1  H    12    42       P1 10175  0.34

> <Gold.Chemscore.Hbond.Weighted>
-5.2502

> <Gold.Chemscore.Metal.Weighted>
-0.0000

> <Gold.Chemscore.Lipo.Weighted>
-13.0518

> <Gold.Chemscore.Internal_Hbond.Weighted>
0.0000

> <Gold.Chemscore.DEClash.Weighted>
0.4587

> <Gold.Chemscore.DEInternal.Weighted>
0.8550

> <Gold.Chemscore.Rot.Weighted>
6.9081

> <Gold.Chemscore.Internal.Correction.Weighted>
   9.000000E+99

> <Gold.Protein.RotatedTorsions>
[ 6907 6896 6895 6894 ] final   57.91 input  -60.11 | X-H torsion
[ 7974 7965 7964 7962 ] final   22.03 input  175.53 | X-H torsion
[ 8008 7997 7996 7995 ] final  -62.94 input   59.86 | X-H torsion
[ 10167 10162 10161 10158 ] final   41.96 input  -65.29 | X-H torsion
[ 10718 10713 10712 10709 ] final   13.81 input   66.30 | X-H torsion
[ 10763 10752 10751 10750 ] final  140.72 input  -60.55 | X-H torsion
[ 11005 11000 10999 10996 ] final  -81.45 input  -57.11 | X-H torsion

> <Gold.Protein.ActiveResidues>
 VAL166  LYS551  ARG553  GLY616  TRP617  ASP618  TYR619  PRO620  LYS621  CYS622 
 ASP623  PHE694  ASN695  SER759  ASP760  ASP761  ALA762  ILE779  LEU786  VAL792 
 PHE793  MET794  SER795  GLU796  ALA797  LYS798  CYS799  TRP800  GLU811  SER814 

> <Gold.Protein.RotatedAtoms>
  152.3775  134.6641  160.0154 H   0  0  0  0  0  0  0  0  0  0  0  0  # atno 6907 bound_to 6896
  151.6915  133.3305  159.3252 H   0  0  0  0  0  0  0  0  0  0  0  0  # atno 6908 bound_to 6896
  150.7721  134.6630  159.6395 H   0  0  0  0  0  0  0  0  0  0  0  0  # atno 6909 bound_to 6896
  146.2046  139.7943  142.8735 H   0  0  0  0  0  0  0  0  0  0  0  0  # atno 7974 bound_to 7965
  154.4527  140.0985  156.6665 H   0  0  0  0  0  0  0  0  0  0  0  0  # atno 8008 bound_to 7997
  155.5236  140.3479  155.4393 H   0  0  0  0  0  0  0  0  0  0  0  0  # atno 8009 bound_to 7997
  156.0714  140.1350  156.9813 H   0  0  0  0  0  0  0  0  0  0  0  0  # atno 8010 bound_to 7997
  140.3591  144.2251  150.6139 H   0  0  0  0  0  0  0  0  0  0  0  0  # atno 10167 bound_to 10162
  157.0300  130.6189  149.5734 H   0  0  0  0  0  0  0  0  0  0  0  0  # atno 10718 bound_to 10713
  153.9274  135.2994  155.3446 H   0  0  0  0  0  0  0  0  0  0  0  0  # atno 10763 bound_to 10752
  154.7544  135.4964  153.9351 H   0  0  0  0  0  0  0  0  0  0  0  0  # atno 10764 bound_to 10752
  153.1109  135.6759  153.9606 H   0  0  0  0  0  0  0  0  0  0  0  0  # atno 10765 bound_to 10752
  141.1666  133.7197  156.8424 H   0  0  0  0  0  0  0  0  0  0  0  0  # atno 11005 bound_to 11000
  145.3364  141.0278  143.3417 LP  0  0  0  0  0  0  0  0  0  0  0  0  # atno 17320 bound_to 7965
  144.8763  139.4967  143.6744 LP  0  0  0  0  0  0  0  0  0  0  0  0  # atno 17321 bound_to 7965
  140.5144  143.2282  151.8485 LP  0  0  0  0  0  0  0  0  0  0  0  0  # atno 17342 bound_to 10162
  139.4816  144.4911  151.9183 LP  0  0  0  0  0  0  0  0  0  0  0  0  # atno 17343 bound_to 10162
  156.0073  130.5161  150.7872 LP  0  0  0  0  0  0  0  0  0  0  0  0  # atno 17370 bound_to 10713
  157.5185  131.0930  151.0109 LP  0  0  0  0  0  0  0  0  0  0  0  0  # atno 17371 bound_to 10713
  140.1974  134.8922  157.3129 LP  0  0  0  0  0  0  0  0  0  0  0  0  # atno 17394 bound_to 11000
  140.2225  134.4006  155.7559 LP  0  0  0  0  0  0  0  0  0  0  0  0  # atno 17395 bound_to 11000

$$$$
