AV-unprocessed.smi:2468|AV-procd|sdf|9731|dock7
  -GOLD-   2272013373D 1   1.00000     0.00000
 Structure written by MMmdl.
 32 33  0  0  0  0  0  0  0  0  1 V2000
  152.3700  144.0599  160.0424 C   0  0  0  0  0  0  0  0  0  0  0  0
  152.5683  142.6116  159.6354 C   0  0  0  0  0  0  0  0  0  0  0  0
  153.2950  141.8588  160.4899 N   0  0  0  0  0  0  0  0  0  0  0  0
  153.4933  140.5610  160.1808 C   0  0  0  0  0  0  0  0  0  0  0  0
  152.9882  139.9562  159.0142 C   0  0  0  0  0  0  0  0  0  0  0  0
  152.2403  140.7458  158.1076 C   0  0  0  0  0  0  0  0  0  0  0  0
  151.6694  140.2374  156.9075 N   0  0  0  0  0  0  0  0  0  0  0  0
  152.1853  139.3611  156.0261 C   0  0  0  0  0  0  0  0  0  0  0  0
  153.2829  138.8154  156.1414 O   0  0  0  0  0  0  0  0  0  0  0  0
  151.3019  139.0550  154.8047 C   0  0  2  0  0  0  0  0  0  0  0  0
  150.7968  140.2994  154.3167 O   0  0  0  0  0  0  0  0  0  0  0  0
  149.3727  140.3254  154.3695 C   0  0  0  0  0  0  0  0  0  0  0  0
  148.9840  139.2384  155.3643 C   0  0  0  0  0  0  0  0  0  0  0  0
  150.0487  138.1967  155.0870 C   0  0  2  0  0  0  0  0  0  0  0  0
  150.1680  137.1013  156.1625 C   0  0  0  0  0  0  0  0  0  0  0  0
  152.0154  142.1035  158.4362 C   0  0  0  0  0  0  0  0  0  0  0  0
  151.0872  143.1257  157.3901 Cl  0  0  0  0  0  0  0  0  0  0  0  0
  152.7297  144.7284  159.2599 H   0  0  0  0  0  0  0  0  0  0  0  0
  152.9099  144.2965  160.9603 H   0  0  0  0  0  0  0  0  0  0  0  0
  151.3123  144.2635  160.2114 H   0  0  0  0  0  0  0  0  0  0  0  0
  154.0676  139.9833  160.8899 H   0  0  0  0  0  0  0  0  0  0  0  0
  153.1735  138.9065  158.8490 H   0  0  0  0  0  0  0  0  0  0  0  0
  150.7869  140.6523  156.6447 H   0  0  0  0  0  0  0  0  0  0  0  0
  151.9049  138.5846  154.0261 H   0  0  0  0  0  0  0  0  0  0  0  0
  149.0012  141.3094  154.6561 H   0  0  0  0  0  0  0  0  0  0  0  0
  148.9819  140.0905  153.3786 H   0  0  0  0  0  0  0  0  0  0  0  0
  149.0609  139.6121  156.3860 H   0  0  0  0  0  0  0  0  0  0  0  0
  147.9704  138.8670  155.2107 H   0  0  0  0  0  0  0  0  0  0  0  0
  149.7861  137.6993  154.1516 H   0  0  0  0  0  0  0  0  0  0  0  0
  150.3419  137.5167  157.1552 H   0  0  0  0  0  0  0  0  0  0  0  0
  150.9868  136.4183  155.9351 H   0  0  0  0  0  0  0  0  0  0  0  0
  149.2520  136.5125  156.2147 H   0  0  0  0  0  0  0  0  0  0  0  0
  1  2  1  0  0  0  0
  1 18  1  0  0  0  0
  1 19  1  0  0  0  0
  1 20  1  0  0  0  0
  2 16  1  0  0  0  0
  2  3  2  0  0  0  0
  3  4  1  0  0  0  0
  4  5  2  0  0  0  0
  4 21  1  0  0  0  0
  5  6  1  0  0  0  0
  5 22  1  0  0  0  0
  6  7  1  0  0  0  0
  6 16  2  0  0  0  0
  7  8  1  0  0  0  0
  7 23  1  0  0  0  0
  8  9  2  0  0  0  0
  8 10  1  0  0  0  0
 10 14  1  0  0  0  0
 10 11  1  0  0  0  0
 10 24  1  0  0  0  0
 11 12  1  0  0  0  0
 12 13  1  0  0  0  0
 12 25  1  0  0  0  0
 12 26  1  0  0  0  0
 13 14  1  0  0  0  0
 13 27  1  0  0  0  0
 13 28  1  0  0  0  0
 14 15  1  0  0  0  0
 14 29  1  0  0  0  0
 15 30  1  0  0  0  0
 15 31  1  0  0  0  0
 15 32  1  0  0  0  0
 16 17  1  0  0  0  0
M  END
> <s_m_source_file>
AV-unprocessed.smi

> <i_m_source_file_index>
2468

> <i_lp_mmshare_version>
43012

> <i_f3d_flags>
0

> <s_epik_input>
W0NIM11jMW5bY0hdW2NIXWMoYzFDbClbTkhdQyg9TylbQ0BASF0yT1tDSDJdW0NIMl1bQ0BIXTJbQ0gzXQ==

> <s_epik_cmdline>
J2VwaWtfcHl0aG9uJywgJy1waCcsICc3LjAnLCAnLXRuJywgJzgnLCAnLW1hJywgJzIwMCcsICctbWV0YWxfYmluZGluZycsICctaW1hZScsICc8aW5maWxlLm1hZT4nLCAnLW9tYWUnLCAnPG91dGZpbGUubWFlPic=

> <r_epik_Ionization_Penalty>
0.000361027

> <r_epik_Ionization_Penalty_Charging>
0

> <r_epik_Ionization_Penalty_Neutral>
0.000361027

> <r_epik_State_Penalty>
0.000217849

> <r_epik_Charging_Adjusted_Penalty>
0.000217849

> <i_epik_Tot_Q>
0

> <i_epik_Tot_abs_Q>
0

> <r_epik_Metal_State_Penalty>
-0

> <b_epik_Metal_Only>
0

> <s_lp_Force_Field>
OPLS_2005

> <r_lp_Energy>
25.639

> <b_lp_Chiralities_Consistent>
1

> <s_lp_Variant>
AV-unprocessed.smi:2468-3

> <Gold.Version>
5.8.1

> <Gold.Id.Protein>
6NUR|6NUR_protein|mol2

> <Gold.PLP.Fitness>
36.6225

> <Gold.PLP.PLP>
-31.8268

> <Gold.PLP.part.hbond>
-1.8807

> <Gold.PLP.part.metal>
0.0000

> <Gold.PLP.part.buried>
-5.1938

> <Gold.PLP.part.nonpolar>
-25.8441

> <Gold.PLP.part.repulsive>
0.2096

> <Gold.PLP.ligand.clash>
0.0000

> <Gold.PLP.ligand.torsion>
0.6076

> <Gold.PLP.Chemscore.Hbond>
2.0000

> <Gold.PLP.Chemscore.CHOScore>
0.0000

> <Gold.PLP.Chemscore.Metal>
0.0000

> <Gold.Chemscore.Hbonds>
donor molecule, donor type, donor heavy atom, donor atom, acceptor molecule, acceptor atom, score
      P1  H  7989  7998       L1    11  0.42
      P1  H  7997  8010       L1     9  0.99

> <Gold.PLP.Chemscore.Internal.Correction>
0.0109

> <Gold.Rescore>
     Score         DG    S(hbond)    S(metal)    S(lipo)     H(rot)  DE(clash)    DE(int)     intcor
     18.98     -19.28       1.76        0.00      89.51       1.00       0.00       0.31       ----

> <Gold.Chemscore.Fitness>
18.9752

> <Gold.Chemscore.DG>
-19.2843

> <Gold.Chemscore.ZeroCoef>
-5.4800

> <Gold.Chemscore.Hbond>
1.7640

> <Gold.Chemscore.Metal>
0.0000

> <Gold.Chemscore.Lipo>
89.5084

> <Gold.Chemscore.Internal_Hbond>
0.0000

> <Gold.Chemscore.DEClash>
0.0009

> <Gold.Chemscore.DEInternal>
0.3082

> <Gold.Chemscore.Rot>
1.0000

> <Gold.Chemscore.Internal.Correction>
   9.000000E+99

> <Gold.Chemscore.Hbonds>
donor molecule, donor type, donor heavy atom, donor atom, acceptor molecule, acceptor atom, score
      P1  H  7989  7998       L1    11  0.34
      P1  H  7997  8010       L1     9  0.42

> <Gold.Chemscore.Hbond.Weighted>
-5.8918

> <Gold.Chemscore.Metal.Weighted>
-0.0000

> <Gold.Chemscore.Lipo.Weighted>
-10.4725

> <Gold.Chemscore.Internal_Hbond.Weighted>
0.0000

> <Gold.Chemscore.DEClash.Weighted>
0.0009

> <Gold.Chemscore.DEInternal.Weighted>
0.3082

> <Gold.Chemscore.Rot.Weighted>
2.5600

> <Gold.Chemscore.Internal.Correction.Weighted>
   9.000000E+99

> <Gold.Protein.RotatedTorsions>
[ 6907 6896 6895 6894 ] final -164.14 input  -60.11 | X-H torsion
[ 7974 7965 7964 7962 ] final  -21.92 input  175.53 | X-H torsion
[ 8008 7997 7996 7995 ] final   86.86 input   59.86 | X-H torsion
[ 10167 10162 10161 10158 ] final  125.70 input  -65.29 | X-H torsion
[ 10718 10713 10712 10709 ] final  135.30 input   66.30 | X-H torsion
[ 10763 10752 10751 10750 ] final   10.96 input  -60.55 | X-H torsion
[ 11005 11000 10999 10996 ] final  -43.79 input  -57.11 | X-H torsion

> <Gold.Protein.ActiveResidues>
 VAL166  LYS551  ARG553  GLY616  TRP617  ASP618  TYR619  PRO620  LYS621  CYS622 
 ASP623  PHE694  ASN695  SER759  ASP760  ASP761  ALA762  ILE779  LEU786  VAL792 
 PHE793  MET794  SER795  GLU796  ALA797  LYS798  CYS799  TRP800  GLU811  SER814 

> <Gold.Protein.RotatedAtoms>
  151.4072  133.3739  159.2739 H   0  0  0  0  0  0  0  0  0  0  0  0  # atno 6907 bound_to 6896
  150.9390  134.8801  159.7610 H   0  0  0  0  0  0  0  0  0  0  0  0  # atno 6908 bound_to 6896
  152.5063  134.4021  159.9472 H   0  0  0  0  0  0  0  0  0  0  0  0  # atno 6909 bound_to 6896
  146.1705  140.4408  142.8534 H   0  0  0  0  0  0  0  0  0  0  0  0  # atno 7974 bound_to 7965
  155.9681  140.3388  155.6551 H   0  0  0  0  0  0  0  0  0  0  0  0  # atno 8008 bound_to 7997
  155.6710  140.0727  157.2538 H   0  0  0  0  0  0  0  0  0  0  0  0  # atno 8009 bound_to 7997
  154.4159  140.1691  156.1867 H   0  0  0  0  0  0  0  0  0  0  0  0  # atno 8010 bound_to 7997
  139.5671  144.6917  151.3880 H   0  0  0  0  0  0  0  0  0  0  0  0  # atno 10167 bound_to 10162
  157.4584  131.1071  150.9949 H   0  0  0  0  0  0  0  0  0  0  0  0  # atno 10718 bound_to 10713
  153.1977  135.6851  153.8271 H   0  0  0  0  0  0  0  0  0  0  0  0  # atno 10763 bound_to 10752
  153.7549  135.3218  155.3328 H   0  0  0  0  0  0  0  0  0  0  0  0  # atno 10764 bound_to 10752
  154.8153  135.4689  154.0728 H   0  0  0  0  0  0  0  0  0  0  0  0  # atno 10765 bound_to 10752
  141.0407  133.6781  156.2782 H   0  0  0  0  0  0  0  0  0  0  0  0  # atno 11005 bound_to 11000
  144.8156  140.6462  143.6386 LP  0  0  0  0  0  0  0  0  0  0  0  0  # atno 17320 bound_to 7965
  145.4352  139.1543  143.4000 LP  0  0  0  0  0  0  0  0  0  0  0  0  # atno 17321 bound_to 7965
  140.6955  143.7760  150.7320 LP  0  0  0  0  0  0  0  0  0  0  0  0  # atno 17342 bound_to 10162
  140.1255  143.4573  152.2287 LP  0  0  0  0  0  0  0  0  0  0  0  0  # atno 17343 bound_to 10162
  157.0755  130.5881  149.5410 LP  0  0  0  0  0  0  0  0  0  0  0  0  # atno 17370 bound_to 10713
  156.0017  130.5098  150.7688 LP  0  0  0  0  0  0  0  0  0  0  0  0  # atno 17371 bound_to 10713
  140.6239  134.5333  157.5551 LP  0  0  0  0  0  0  0  0  0  0  0  0  # atno 17394 bound_to 11000
  139.9274  134.8030  156.1030 LP  0  0  0  0  0  0  0  0  0  0  0  0  # atno 17395 bound_to 11000

$$$$
