AV-unprocessed.smi:157|AV-procd|sdf|1295|dock5
  -GOLD-   2262018583D 1   1.00000     0.00000
 Structure written by MMmdl.
 35 37  0  0  0  0  0  0  0  0  1 V2000
  147.4651  142.1392  155.5920 O   0  0  0  0  0  0  0  0  0  0  0  0
  147.7589  141.9450  154.2247 C   0  0  0  0  0  0  0  0  0  0  0  0
  148.9355  140.9694  154.0694 C   0  0  1  0  0  0  0  0  0  0  0  0
  149.9268  141.2680  155.0427 O   0  0  0  0  0  0  0  0  0  0  0  0
  150.6773  140.1192  155.2328 C   0  0  1  0  0  0  0  0  0  0  0  0
  151.3980  140.2245  156.5412 N   0  0  0  0  0  0  0  0  0  0  0  0
  152.1551  139.2627  157.0823 C   0  0  0  0  0  0  0  0  0  0  0  0
  152.6968  139.5775  158.2463 N   0  0  0  0  0  0  0  0  0  0  0  0
  152.2570  140.8790  158.4806 C   0  0  0  0  0  0  0  0  0  0  0  0
  151.4549  141.3052  157.4312 C   0  0  0  0  0  0  0  0  0  0  0  0
  150.7573  142.4575  157.1196 N   0  0  0  0  0  0  0  0  0  0  0  0
  151.0720  143.5508  157.7393 C   0  0  0  0  0  0  0  0  0  0  0  0
  151.9638  143.7660  158.7797 N   0  0  0  0  0  0  0  0  0  0  0  0
  152.0071  142.9442  159.9770 C   0  0  0  0  0  0  0  0  0  0  0  0
  152.6529  141.5718  159.7527 C   0  0  2  0  0  0  0  0  0  0  0  0
  154.0580  141.7177  159.7248 O   0  0  0  0  0  0  0  0  0  0  0  0
  149.6868  138.9577  155.2207 C   0  0  0  0  0  0  0  0  0  0  0  0
  148.5565  139.5012  154.3527 C   0  0  2  0  0  0  0  0  0  0  0  0
  148.4584  138.7656  153.1497 O   0  0  0  0  0  0  0  0  0  0  0  0
  149.3862  141.0535  153.0779 H   0  0  0  0  0  0  0  0  0  0  0  0
  151.4495  140.0360  154.4659 H   0  0  0  0  0  0  0  0  0  0  0  0
  152.4186  140.9367  160.6077 H   0  0  0  0  0  0  0  0  0  0  0  0
  147.6130  139.4293  154.8954 H   0  0  0  0  0  0  0  0  0  0  0  0
  147.8255  142.9700  155.8617 H   0  0  0  0  0  0  0  0  0  0  0  0
  146.8767  141.5885  153.6917 H   0  0  0  0  0  0  0  0  0  0  0  0
  148.0207  142.9175  153.8070 H   0  0  0  0  0  0  0  0  0  0  0  0
  152.3082  138.3022  156.6126 H   0  0  0  0  0  0  0  0  0  0  0  0
  150.5800  144.4765  157.4375 H   0  0  0  0  0  0  0  0  0  0  0  0
  152.2576  144.7124  158.9737 H   0  0  0  0  0  0  0  0  0  0  0  0
  152.5114  143.4838  160.7792 H   0  0  0  0  0  0  0  0  0  0  0  0
  150.9777  142.7986  160.3081 H   0  0  0  0  0  0  0  0  0  0  0  0
  154.2657  142.4812  159.2077 H   0  0  0  0  0  0  0  0  0  0  0  0
  150.1630  138.0550  154.8357 H   0  0  0  0  0  0  0  0  0  0  0  0
  149.3234  138.7550  156.2283 H   0  0  0  0  0  0  0  0  0  0  0  0
  148.8280  139.2829  152.4505 H   0  0  0  0  0  0  0  0  0  0  0  0
  1  2  1  0  0  0  0
  1 24  1  0  0  0  0
  2  3  1  0  0  0  0
  2 25  1  0  0  0  0
  2 26  1  0  0  0  0
  3 20  1  0  0  0  0
  3 18  1  0  0  0  0
  3  4  1  0  0  0  0
  4  5  1  0  0  0  0
  5 21  1  0  0  0  0
  5  6  1  0  0  0  0
  5 17  1  0  0  0  0
  6 10  1  0  0  0  0
  6  7  1  0  0  0  0
  7  8  2  0  0  0  0
  7 27  1  0  0  0  0
  8  9  1  0  0  0  0
  9 15  1  0  0  0  0
  9 10  2  0  0  0  0
 10 11  1  0  0  0  0
 11 12  2  0  0  0  0
 12 13  1  0  0  0  0
 12 28  1  0  0  0  0
 13 14  1  0  0  0  0
 13 29  1  0  0  0  0
 14 15  1  0  0  0  0
 14 30  1  0  0  0  0
 14 31  1  0  0  0  0
 15 22  1  0  0  0  0
 15 16  1  0  0  0  0
 16 32  1  0  0  0  0
 17 18  1  0  0  0  0
 17 33  1  0  0  0  0
 17 34  1  0  0  0  0
 18 23  1  0  0  0  0
 18 19  1  0  0  0  0
 19 35  1  0  0  0  0
M  END
> <s_m_source_file>
AV-unprocessed.smi

> <i_m_source_file_index>
157

> <i_lp_mmshare_version>
43012

> <i_f3d_flags>
0

> <s_epik_input>
W09IXVtDSDJdW0NASF0xT1tDQEhdKFtDSDJdW0NAQEhdMVtPSF0pbihbY0hdbjIpYyhjMjMpTj1bQ0hdW05IXVtDSDJdW0NASF0zW09IXQ==

> <s_epik_cmdline>
J2VwaWtfcHl0aG9uJywgJy1waCcsICc3LjAnLCAnLXRuJywgJzgnLCAnLW1hJywgJzIwMCcsICctbWV0YWxfYmluZGluZycsICctaW1hZScsICc8aW5maWxlLm1hZT4nLCAnLW9tYWUnLCAnPG91dGZpbGUubWFlPic=

> <r_lp_tautomer_probability>
1

> <r_epik_Ionization_Penalty>
0.0357149

> <r_epik_Ionization_Penalty_Charging>
0.0355056

> <r_epik_Ionization_Penalty_Neutral>
0.000209255

> <r_epik_State_Penalty>
0.0296046

> <r_epik_Charging_Adjusted_Penalty>
0.0651102

> <i_epik_Tot_Q>
0

> <i_epik_Tot_abs_Q>
0

> <r_epik_Metal_State_Penalty>
3.03559e-05

> <b_epik_Metal_Only>
0

> <s_epik_Chemistry_Notes>
This compound has an imine and may undergo hydrolysis. This compound contains an acetal/aminal-like group ( X-CH(R)-Y where X, Y are N, S, or O) that may be acid/base labile, releasing an aldehyde.

> <s_lp_Force_Field>
OPLS_2005

> <r_lp_Energy>
44.773

> <b_lp_Chiralities_Consistent>
1

> <s_lp_Variant>
AV-unprocessed.smi:157-5

> <Gold.Version>
5.8.1

> <Gold.Id.Protein>
6NUR|6NUR_protein|mol2

> <Gold.PLP.Fitness>
43.3577

> <Gold.PLP.PLP>
-34.3525

> <Gold.PLP.part.hbond>
-4.4363

> <Gold.PLP.part.metal>
0.0000

> <Gold.PLP.part.buried>
-1.4274

> <Gold.PLP.part.nonpolar>
-27.8056

> <Gold.PLP.part.repulsive>
0.2341

> <Gold.PLP.ligand.clash>
0.0000

> <Gold.PLP.ligand.torsion>
0.1546

> <Gold.PLP.Chemscore.Hbond>
2.1351

> <Gold.PLP.Chemscore.CHOScore>
0.9646

> <Gold.PLP.Chemscore.Metal>
0.0000

> <Gold.Chemscore.Hbonds>
donor molecule, donor type, donor heavy atom, donor atom, acceptor molecule, acceptor atom, score
      L1  H     1    24       P1  8028  0.99
      L1  H    19    35       P1  7957  1.00
      P1  H  7997  8010       L1     8  0.08
      L1  C    12    28       P1  8028  0.95

> <Gold.PLP.Chemscore.Internal.Correction>
0.0153

> <Gold.Rescore>
     Score         DG    S(hbond)    S(metal)    S(lipo)     H(rot)  DE(clash)    DE(int)     intcor
      6.92      -8.85       1.91        0.00      53.92       3.64       0.05       1.89       ----

> <Gold.Chemscore.Fitness>
6.9166

> <Gold.Chemscore.DG>
-8.8527

> <Gold.Chemscore.ZeroCoef>
-5.4800

> <Gold.Chemscore.Hbond>
1.9080

> <Gold.Chemscore.Metal>
0.0000

> <Gold.Chemscore.Lipo>
53.9219

> <Gold.Chemscore.Internal_Hbond>
0.0000

> <Gold.Chemscore.DEClash>
0.0491

> <Gold.Chemscore.DEInternal>
1.8870

> <Gold.Chemscore.Rot>
3.6362

> <Gold.Chemscore.Internal.Correction>
   9.000000E+99

> <Gold.Chemscore.Hbonds>
donor molecule, donor type, donor heavy atom, donor atom, acceptor molecule, acceptor atom, score
      L1  H     1    24       P1  8028  0.46
      L1  H    19    35       P1  7957  1.00

> <Gold.Chemscore.Hbond.Weighted>
-6.3726

> <Gold.Chemscore.Metal.Weighted>
-0.0000

> <Gold.Chemscore.Lipo.Weighted>
-6.3089

> <Gold.Chemscore.Internal_Hbond.Weighted>
0.0000

> <Gold.Chemscore.DEClash.Weighted>
0.0491

> <Gold.Chemscore.DEInternal.Weighted>
1.8870

> <Gold.Chemscore.Rot.Weighted>
9.3087

> <Gold.Chemscore.Internal.Correction.Weighted>
   9.000000E+99

> <Gold.Protein.RotatedTorsions>
[ 6907 6896 6895 6894 ] final  -25.54 input  -60.11 | X-H torsion
[ 7974 7965 7964 7962 ] final  -66.65 input  175.53 | X-H torsion
[ 8008 7997 7996 7995 ] final   21.21 input   59.86 | X-H torsion
[ 10167 10162 10161 10158 ] final  -43.92 input  -65.29 | X-H torsion
[ 10718 10713 10712 10709 ] final  -71.12 input   66.30 | X-H torsion
[ 10763 10752 10751 10750 ] final   49.54 input  -60.55 | X-H torsion
[ 11005 11000 10999 10996 ] final   89.16 input  -57.11 | X-H torsion

> <Gold.Protein.ActiveResidues>
 VAL166  LYS551  ARG553  GLY616  TRP617  ASP618  TYR619  PRO620  LYS621  CYS622 
 ASP623  PHE694  ASN695  SER759  ASP760  ASP761  ALA762  ILE779  LEU786  VAL792 
 PHE793  MET794  SER795  GLU796  ALA797  LYS798  CYS799  TRP800  GLU811  SER814 

> <Gold.Protein.RotatedAtoms>
  151.1737  135.0330  159.8762 H   0  0  0  0  0  0  0  0  0  0  0  0  # atno 6907 bound_to 6896
  152.5448  134.1141  159.8381 H   0  0  0  0  0  0  0  0  0  0  0  0  # atno 6908 bound_to 6896
  151.1250  133.5030  159.2633 H   0  0  0  0  0  0  0  0  0  0  0  0  # atno 6909 bound_to 6896
  145.7391  140.8961  143.0539 H   0  0  0  0  0  0  0  0  0  0  0  0  # atno 7974 bound_to 7965
  154.9472  140.3061  155.5092 H   0  0  0  0  0  0  0  0  0  0  0  0  # atno 8008 bound_to 7997
  156.2990  140.2325  156.4484 H   0  0  0  0  0  0  0  0  0  0  0  0  # atno 8009 bound_to 7997
  154.8089  140.0429  157.1317 H   0  0  0  0  0  0  0  0  0  0  0  0  # atno 8010 bound_to 7997
  140.6916  143.2957  151.3421 H   0  0  0  0  0  0  0  0  0  0  0  0  # atno 10167 bound_to 10162
  156.0377  130.4345  150.2397 H   0  0  0  0  0  0  0  0  0  0  0  0  # atno 10718 bound_to 10713
  152.9786  135.5908  154.4105 H   0  0  0  0  0  0  0  0  0  0  0  0  # atno 10763 bound_to 10752
  154.3741  135.2767  155.2251 H   0  0  0  0  0  0  0  0  0  0  0  0  # atno 10764 bound_to 10752
  154.4194  135.6063  153.6055 H   0  0  0  0  0  0  0  0  0  0  0  0  # atno 10765 bound_to 10752
  139.8881  134.8534  156.3102 H   0  0  0  0  0  0  0  0  0  0  0  0  # atno 11005 bound_to 11000
  144.6874  139.9436  143.7476 LP  0  0  0  0  0  0  0  0  0  0  0  0  # atno 17320 bound_to 7965
  146.0464  139.3470  143.0666 LP  0  0  0  0  0  0  0  0  0  0  0  0  # atno 17321 bound_to 7965
  139.6325  144.0693  152.2488 LP  0  0  0  0  0  0  0  0  0  0  0  0  # atno 17342 bound_to 10162
  140.0172  144.6180  150.7597 LP  0  0  0  0  0  0  0  0  0  0  0  0  # atno 17343 bound_to 10162
  157.0495  131.0058  151.3258 LP  0  0  0  0  0  0  0  0  0  0  0  0  # atno 17370 bound_to 10713
  157.5151  130.7962  149.7747 LP  0  0  0  0  0  0  0  0  0  0  0  0  # atno 17371 bound_to 10713
  140.9855  133.7241  156.0735 LP  0  0  0  0  0  0  0  0  0  0  0  0  # atno 17394 bound_to 11000
  140.7694  134.3850  157.5511 LP  0  0  0  0  0  0  0  0  0  0  0  0  # atno 17395 bound_to 11000

$$$$
