AV-unprocessed.smi:158|AV-procd|sdf|1337|dock1
  -GOLD-   2262019 33D 1   1.00000     0.00000
 Structure written by MMmdl.
 31 33  0  0  0  0  0  0  0  0  1 V2000
  152.4901  144.8400  162.0643 N   0  0  0  0  0  0  0  0  0  0  0  0
  152.5076  143.7672  161.2612 C   0  0  0  0  0  0  0  0  0  0  0  0
  153.4387  142.8105  161.4850 N   0  0  0  0  0  0  0  0  0  0  0  0
  153.4906  141.7225  160.7062 C   0  0  0  0  0  0  0  0  0  0  0  0
  154.7161  140.5685  161.0803 Cl  0  0  0  0  0  0  0  0  0  0  0  0
  152.6997  141.4295  159.6688 N   0  0  0  0  0  0  0  0  0  0  0  0
  151.7613  142.3929  159.4399 C   0  0  0  0  0  0  0  0  0  0  0  0
  151.5988  143.5877  160.1900 C   0  0  0  0  0  0  0  0  0  0  0  0
  150.5430  144.3292  159.6763 N   0  0  0  0  0  0  0  0  0  0  0  0
  150.1080  143.6065  158.6783 C   0  0  0  0  0  0  0  0  0  0  0  0
  150.7900  142.4293  158.4613 N   0  0  0  0  0  0  0  0  0  0  0  0
  150.5323  141.3957  157.4163 C   0  0  2  0  0  0  0  0  0  0  0  0
  150.7283  141.9855  156.1716 O   0  0  0  0  0  0  0  0  0  0  0  0
  149.8586  141.3930  155.2135 C   0  0  1  0  0  0  0  0  0  0  0  0
  150.5472  140.1577  154.5990 C   0  0  0  0  0  0  0  0  0  0  0  0
  149.6434  139.4651  153.7650 O   0  0  0  0  0  0  0  0  0  0  0  0
  148.6051  141.0332  156.0272 C   0  0  2  0  0  0  0  0  0  0  0  0
  147.6327  142.0541  155.9190 O   0  0  0  0  0  0  0  0  0  0  0  0
  149.0837  140.8959  157.4686 C   0  0  1  0  0  0  0  0  0  0  0  0
  149.0790  139.6147  157.8389 F   0  0  0  0  0  0  0  0  0  0  0  0
  151.2708  140.6125  157.5934 H   0  0  0  0  0  0  0  0  0  0  0  0
  149.6195  142.1073  154.4235 H   0  0  0  0  0  0  0  0  0  0  0  0
  148.1412  140.1135  155.6683 H   0  0  0  0  0  0  0  0  0  0  0  0
  148.4781  141.4569  158.1827 H   0  0  0  0  0  0  0  0  0  0  0  0
  151.8051  145.5674  161.9170 H   0  0  0  0  0  0  0  0  0  0  0  0
  153.1617  144.9196  162.8143 H   0  0  0  0  0  0  0  0  0  0  0  0
  149.2728  143.9165  158.0672 H   0  0  0  0  0  0  0  0  0  0  0  0
  151.4466  140.4231  154.0430 H   0  0  0  0  0  0  0  0  0  0  0  0
  150.8498  139.4653  155.3849 H   0  0  0  0  0  0  0  0  0  0  0  0
  149.8076  139.7152  152.8686 H   0  0  0  0  0  0  0  0  0  0  0  0
  148.0661  142.8916  155.9810 H   0  0  0  0  0  0  0  0  0  0  0  0
  1  2  1  0  0  0  0
  1 25  1  0  0  0  0
  1 26  1  0  0  0  0
  2  8  1  0  0  0  0
  2  3  2  0  0  0  0
  3  4  1  0  0  0  0
  4  5  1  0  0  0  0
  4  6  2  0  0  0  0
  6  7  1  0  0  0  0
  7 11  1  0  0  0  0
  7  8  2  0  0  0  0
  8  9  1  0  0  0  0
  9 10  2  0  0  0  0
 10 11  1  0  0  0  0
 10 27  1  0  0  0  0
 11 12  1  0  0  0  0
 12 21  1  0  0  0  0
 12 19  1  0  0  0  0
 12 13  1  0  0  0  0
 13 14  1  0  0  0  0
 14 22  1  0  0  0  0
 14 15  1  0  0  0  0
 14 17  1  0  0  0  0
 15 16  1  0  0  0  0
 15 28  1  0  0  0  0
 15 29  1  0  0  0  0
 16 30  1  0  0  0  0
 17 23  1  0  0  0  0
 17 18  1  0  0  0  0
 17 19  1  0  0  0  0
 18 31  1  0  0  0  0
 19 24  1  0  0  0  0
 19 20  1  0  0  0  0
M  END
> <s_m_source_file>
AV-unprocessed.smi

> <i_m_source_file_index>
158

> <i_lp_mmshare_version>
43012

> <i_f3d_flags>
0

> <s_epik_input>
Q2xjKG4xKW5jKFtOSDJdKWMoYzEyKW5bY0hdbjJbQ0BASF0zT1tDQEhdKFtDSDJdW09IXSlbQ0BASF0oW09IXSlbQ0BASF0zRg==

> <s_epik_cmdline>
J2VwaWtfcHl0aG9uJywgJy1waCcsICc3LjAnLCAnLXRuJywgJzgnLCAnLW1hJywgJzIwMCcsICctbWV0YWxfYmluZGluZycsICctaW1hZScsICc8aW5maWxlLm1hZT4nLCAnLW9tYWUnLCAnPG91dGZpbGUubWFlPic=

> <r_lp_tautomer_probability>
1

> <r_epik_Ionization_Penalty>
6.51543e-05

> <r_epik_Ionization_Penalty_Charging>
0

> <r_epik_Ionization_Penalty_Neutral>
6.51543e-05

> <r_epik_State_Penalty>
-0

> <r_epik_Charging_Adjusted_Penalty>
0

> <i_epik_Tot_Q>
0

> <i_epik_Tot_abs_Q>
0

> <r_epik_Metal_State_Penalty>
-0

> <b_epik_Metal_Only>
0

> <s_epik_Chemistry_Notes>
This compound contains an acetal/aminal-like group ( X-CH(R)-Y where X, Y are N, S, or O) that may be acid/base labile, releasing an aldehyde.

> <s_lp_Force_Field>
OPLS_2005

> <r_lp_Energy>
33.5879

> <b_lp_Chiralities_Consistent>
1

> <s_lp_Variant>
AV-unprocessed.smi:158-15

> <Gold.Version>
5.8.1

> <Gold.Id.Protein>
6NUR|6NUR_protein|mol2

> <Gold.PLP.Fitness>
40.4472

> <Gold.PLP.PLP>
-31.0899

> <Gold.PLP.part.hbond>
-3.7812

> <Gold.PLP.part.metal>
0.0000

> <Gold.PLP.part.buried>
-2.4439

> <Gold.PLP.part.nonpolar>
-25.4880

> <Gold.PLP.part.repulsive>
0.3142

> <Gold.PLP.ligand.clash>
0.0000

> <Gold.PLP.ligand.torsion>
0.0389

> <Gold.PLP.Chemscore.Hbond>
2.0000

> <Gold.PLP.Chemscore.CHOScore>
1.1405

> <Gold.PLP.Chemscore.Metal>
0.0000

> <Gold.Chemscore.Hbonds>
donor molecule, donor type, donor heavy atom, donor atom, acceptor molecule, acceptor atom, score
      L1  H    16    30       P1  7957  1.00
      L1  H    18    31       P1  8028  1.00
      L1  C    10    27       P1  8028  0.62
      L1  C    10    27       P1  8029  0.51

> <Gold.PLP.Chemscore.Internal.Correction>
0.0134

> <Gold.Rescore>
     Score         DG    S(hbond)    S(metal)    S(lipo)     H(rot)  DE(clash)    DE(int)     intcor
      7.29      -8.13       1.85        0.00      38.23       3.12       0.79       0.04       ----

> <Gold.Chemscore.Fitness>
7.2947

> <Gold.Chemscore.DG>
-8.1276

> <Gold.Chemscore.ZeroCoef>
-5.4800

> <Gold.Chemscore.Hbond>
1.8472

> <Gold.Chemscore.Metal>
0.0000

> <Gold.Chemscore.Lipo>
38.2299

> <Gold.Chemscore.Internal_Hbond>
0.0000

> <Gold.Chemscore.DEClash>
0.7908

> <Gold.Chemscore.DEInternal>
0.0421

> <Gold.Chemscore.Rot>
3.1230

> <Gold.Chemscore.Internal.Correction>
   9.000000E+99

> <Gold.Chemscore.Hbonds>
donor molecule, donor type, donor heavy atom, donor atom, acceptor molecule, acceptor atom, score
      L1  H    16    30       P1  7957  1.00
      L1  H    18    31       P1  8028  0.71

> <Gold.Chemscore.Hbond.Weighted>
-6.1697

> <Gold.Chemscore.Metal.Weighted>
-0.0000

> <Gold.Chemscore.Lipo.Weighted>
-4.4729

> <Gold.Chemscore.Internal_Hbond.Weighted>
0.0000

> <Gold.Chemscore.DEClash.Weighted>
0.7908

> <Gold.Chemscore.DEInternal.Weighted>
0.0421

> <Gold.Chemscore.Rot.Weighted>
7.9950

> <Gold.Chemscore.Internal.Correction.Weighted>
   9.000000E+99

> <Gold.Protein.RotatedTorsions>
[ 6907 6896 6895 6894 ] final   98.64 input  -60.11 | X-H torsion
[ 7974 7965 7964 7962 ] final -144.40 input  175.53 | X-H torsion
[ 8008 7997 7996 7995 ] final -159.41 input   59.86 | X-H torsion
[ 10167 10162 10161 10158 ] final   46.02 input  -65.29 | X-H torsion
[ 10718 10713 10712 10709 ] final  101.12 input   66.30 | X-H torsion
[ 10763 10752 10751 10750 ] final  135.02 input  -60.55 | X-H torsion
[ 11005 11000 10999 10996 ] final  -41.12 input  -57.11 | X-H torsion

> <Gold.Protein.ActiveResidues>
 VAL166  LYS551  ARG553  GLY616  TRP617  ASP618  TYR619  PRO620  LYS621  CYS622 
 ASP623  PHE694  ASN695  SER759  ASP760  ASP761  ALA762  ILE779  LEU786  VAL792 
 PHE793  MET794  SER795  GLU796  ALA797  LYS798  CYS799  TRP800  GLU811  SER814 

> <Gold.Protein.RotatedAtoms>
  152.5406  134.0549  159.8126 H   0  0  0  0  0  0  0  0  0  0  0  0  # atno 6907 bound_to 6896
  151.0685  133.5478  159.2636 H   0  0  0  0  0  0  0  0  0  0  0  0  # atno 6908 bound_to 6896
  151.2349  135.0576  159.9056 H   0  0  0  0  0  0  0  0  0  0  0  0  # atno 6909 bound_to 6896
  144.8300  140.5715  143.5521 H   0  0  0  0  0  0  0  0  0  0  0  0  # atno 7974 bound_to 7965
  155.7622  140.0840  157.2149 H   0  0  0  0  0  0  0  0  0  0  0  0  # atno 8008 bound_to 7997
  154.4002  140.1541  156.2902 H   0  0  0  0  0  0  0  0  0  0  0  0  # atno 8009 bound_to 7997
  155.8828  140.3419  155.5903 H   0  0  0  0  0  0  0  0  0  0  0  0  # atno 8010 bound_to 7997
  140.3182  144.2737  150.6187 H   0  0  0  0  0  0  0  0  0  0  0  0  # atno 10167 bound_to 10162
  157.6837  131.0717  150.5203 H   0  0  0  0  0  0  0  0  0  0  0  0  # atno 10718 bound_to 10713
  153.8331  135.3101  155.3420 H   0  0  0  0  0  0  0  0  0  0  0  0  # atno 10763 bound_to 10752
  154.7965  135.4752  154.0175 H   0  0  0  0  0  0  0  0  0  0  0  0  # atno 10764 bound_to 10752
  153.1622  135.6863  153.8818 H   0  0  0  0  0  0  0  0  0  0  0  0  # atno 10765 bound_to 10752
  141.0224  133.6857  156.2415 H   0  0  0  0  0  0  0  0  0  0  0  0  # atno 11005 bound_to 11000
  145.4916  139.1488  143.3706 LP  0  0  0  0  0  0  0  0  0  0  0  0  # atno 17320 bound_to 7965
  146.2604  140.5054  142.8856 LP  0  0  0  0  0  0  0  0  0  0  0  0  # atno 17321 bound_to 7965
  140.5507  143.2207  151.7932 LP  0  0  0  0  0  0  0  0  0  0  0  0  # atno 17342 bound_to 10162
  139.4879  144.4480  151.9687 LP  0  0  0  0  0  0  0  0  0  0  0  0  # atno 17343 bound_to 10162
  156.5517  130.4233  149.6104 LP  0  0  0  0  0  0  0  0  0  0  0  0  # atno 17370 bound_to 10713
  156.2897  130.7117  151.1963 LP  0  0  0  0  0  0  0  0  0  0  0  0  # atno 17371 bound_to 10713
  140.6550  134.5027  157.5580 LP  0  0  0  0  0  0  0  0  0  0  0  0  # atno 17394 bound_to 11000
  139.9154  134.8257  156.1384 LP  0  0  0  0  0  0  0  0  0  0  0  0  # atno 17395 bound_to 11000

$$$$
