AV-unprocessed.smi:227|AV-procd|sdf|1727|dock8
  -GOLD-   2262020213D 1   1.00000     0.00000
 Structure written by MMmdl.
 54 58  0  0  0  0  0  0  0  0  1 V2000
  150.5018  142.5765  156.0019 O   0  0  0  0  0  0  0  0  0  0  0  0
  150.3584  142.1535  157.3418 C   0  0  0  0  0  0  0  0  0  0  0  0
  151.5339  142.6536  158.2202 C   0  0  2  0  0  0  0  0  0  0  0  0
  151.6836  141.7741  159.4965 C   0  0  0  0  0  0  0  0  0  0  0  0
  152.8029  140.8433  159.4552 N   0  0  0  0  0  0  0  0  0  0  0  0
  153.1143  139.9691  158.4394 C   0  0  0  0  0  0  0  0  0  0  0  0
  154.1753  139.2386  158.6412 N   0  0  0  0  0  0  0  0  0  0  0  0
  154.6311  139.6237  159.8968 C   0  0  0  0  0  0  0  0  0  0  0  0
  155.7285  139.2442  160.7267 C   0  0  0  0  0  0  0  0  0  0  0  0
  156.6675  138.3125  160.3992 N   0  0  0  0  0  0  0  0  0  0  0  0
  156.8633  137.1125  161.1998 C   0  0  2  0  0  0  0  0  0  0  0  0
  158.1230  136.4977  160.5666 C   0  0  0  0  0  0  0  0  0  0  0  0
  157.9294  136.8669  159.0894 C   0  0  0  0  0  0  0  0  0  0  0  0
  156.5717  137.5926  159.1350 C   0  0  1  0  0  0  0  0  0  0  0  0
  155.4046  136.6012  159.3810 C   0  0  1  0  0  0  0  0  0  0  0  0
  155.3004  135.4128  158.4072 C   0  0  0  0  0  0  0  0  0  0  0  0
  155.3701  135.8752  157.0755 O   0  0  0  0  0  0  0  0  0  0  0  0
  155.6490  136.2256  160.8553 C   0  0  0  0  0  0  0  0  0  0  0  0
  155.8215  139.8457  161.9425 N   0  0  0  0  0  0  0  0  0  0  0  0
  154.9287  140.7641  162.3191 C   0  0  0  0  0  0  0  0  0  0  0  0
  153.8732  141.2230  161.6471 N   0  0  0  0  0  0  0  0  0  0  0  0
  153.7622  140.6209  160.4291 C   0  0  0  0  0  0  0  0  0  0  0  0
  151.4014  144.1769  158.5360 C   0  0  2  0  0  0  0  0  0  0  0  0
  152.5559  144.7691  159.3410 C   0  0  0  0  0  0  0  0  0  0  0  0
  152.1820  144.4721  160.7930 C   0  0  0  0  0  0  0  0  0  0  0  0
  150.7714  144.2864  160.8017 O   0  0  0  0  0  0  0  0  0  0  0  0
  150.2583  144.5287  159.4996 C   0  0  0  0  0  0  0  0  0  0  0  0
  149.9058  143.2946  155.8500 H   0  0  0  0  0  0  0  0  0  0  0  0
  149.4035  142.5484  157.6800 H   0  0  0  0  0  0  0  0  0  0  0  0
  150.2734  141.0673  157.3740 H   0  0  0  0  0  0  0  0  0  0  0  0
  152.4475  142.5184  157.6394 H   0  0  0  0  0  0  0  0  0  0  0  0
  151.7996  142.4037  160.3789 H   0  0  0  0  0  0  0  0  0  0  0  0
  150.7754  141.2059  159.6905 H   0  0  0  0  0  0  0  0  0  0  0  0
  152.5316  139.8901  157.5336 H   0  0  0  0  0  0  0  0  0  0  0  0
  156.9958  137.2698  162.2684 H   0  0  0  0  0  0  0  0  0  0  0  0
  159.0265  136.9640  160.9618 H   0  0  0  0  0  0  0  0  0  0  0  0
  158.1959  135.4221  160.7308 H   0  0  0  0  0  0  0  0  0  0  0  0
  158.7149  137.5520  158.7675 H   0  0  0  0  0  0  0  0  0  0  0  0
  157.9527  136.0072  158.4211 H   0  0  0  0  0  0  0  0  0  0  0  0
  156.4174  138.2260  158.2608 H   0  0  0  0  0  0  0  0  0  0  0  0
  154.4725  137.1655  159.3158 H   0  0  0  0  0  0  0  0  0  0  0  0
  156.1190  134.7123  158.5741 H   0  0  0  0  0  0  0  0  0  0  0  0
  154.3673  134.8651  158.5360 H   0  0  0  0  0  0  0  0  0  0  0  0
  156.1278  136.4335  156.9911 H   0  0  0  0  0  0  0  0  0  0  0  0
  155.8550  135.1651  161.0057 H   0  0  0  0  0  0  0  0  0  0  0  0
  154.7838  136.4879  161.4653 H   0  0  0  0  0  0  0  0  0  0  0  0
  155.0836  141.1931  163.2980 H   0  0  0  0  0  0  0  0  0  0  0  0
  151.2875  144.7222  157.5986 H   0  0  0  0  0  0  0  0  0  0  0  0
  153.5491  144.4074  159.0849 H   0  0  0  0  0  0  0  0  0  0  0  0
  152.5713  145.8500  159.1933 H   0  0  0  0  0  0  0  0  0  0  0  0
  152.6590  143.5551  161.1406 H   0  0  0  0  0  0  0  0  0  0  0  0
  152.4769  145.2820  161.4609 H   0  0  0  0  0  0  0  0  0  0  0  0
  150.0219  145.5909  159.4195 H   0  0  0  0  0  0  0  0  0  0  0  0
  149.3294  143.9870  159.3364 H   0  0  0  0  0  0  0  0  0  0  0  0
  1  2  1  0  0  0  0
  1 28  1  0  0  0  0
  2  3  1  0  0  0  0
  2 29  1  0  0  0  0
  2 30  1  0  0  0  0
  3  4  1  0  0  0  0
  3 23  1  0  0  0  0
  3 31  1  0  0  0  0
  4  5  1  0  0  0  0
  4 32  1  0  0  0  0
  4 33  1  0  0  0  0
  5 22  1  0  0  0  0
  5  6  1  0  0  0  0
  6  7  2  0  0  0  0
  6 34  1  0  0  0  0
  7  8  1  0  0  0  0
  8 22  2  0  0  0  0
  8  9  1  0  0  0  0
  9 10  1  0  0  0  0
  9 19  2  0  0  0  0
 10 14  1  0  0  0  0
 10 11  1  0  0  0  0
 11 18  1  0  0  0  0
 11 12  1  0  0  0  0
 11 35  1  0  0  0  0
 12 13  1  0  0  0  0
 12 36  1  0  0  0  0
 12 37  1  0  0  0  0
 13 14  1  0  0  0  0
 13 38  1  0  0  0  0
 13 39  1  0  0  0  0
 14 15  1  0  0  0  0
 14 40  1  0  0  0  0
 15 16  1  0  0  0  0
 15 18  1  0  0  0  0
 15 41  1  0  0  0  0
 16 17  1  0  0  0  0
 16 42  1  0  0  0  0
 16 43  1  0  0  0  0
 17 44  1  0  0  0  0
 18 45  1  0  0  0  0
 18 46  1  0  0  0  0
 19 20  1  0  0  0  0
 20 21  2  0  0  0  0
 20 47  1  0  0  0  0
 21 22  1  0  0  0  0
 23 27  1  0  0  0  0
 23 24  1  0  0  0  0
 23 48  1  0  0  0  0
 24 25  1  0  0  0  0
 24 49  1  0  0  0  0
 24 50  1  0  0  0  0
 25 26  1  0  0  0  0
 25 51  1  0  0  0  0
 25 52  1  0  0  0  0
 26 27  1  0  0  0  0
 27 53  1  0  0  0  0
 27 54  1  0  0  0  0
M  END
> <s_m_source_file>
AV-unprocessed.smi

> <i_m_source_file_index>
227

> <i_lp_mmshare_version>
43012

> <i_f3d_flags>
0

> <s_epik_input>
W0NIMl0xT1tDSDJdW0NIMl1bQ0BIXTFbQ0BIXShbQ0gyXVtPSF0pW0NIMl1uKFtjSF1uMiljKGMyMyluW2NIXW5jM04oW0NASF00NSlbQ0BASF0oW0NIMl1bQ0gyXTQpW0NASF0oW0NIMl01KVtDSDJdW09IXQ==

> <s_epik_cmdline>
J2VwaWtfcHl0aG9uJywgJy1waCcsICc3LjAnLCAnLXRuJywgJzgnLCAnLW1hJywgJzIwMCcsICctbWV0YWxfYmluZGluZycsICctaW1hZScsICc8aW5maWxlLm1hZT4nLCAnLW9tYWUnLCAnPG91dGZpbGUubWFlPic=

> <r_lp_tautomer_probability>
1

> <r_epik_Ionization_Penalty>
0.0055791

> <r_epik_Ionization_Penalty_Charging>
0

> <r_epik_Ionization_Penalty_Neutral>
0.0055791

> <r_epik_State_Penalty>
0.00401299

> <r_epik_Charging_Adjusted_Penalty>
0.00401299

> <i_epik_Tot_Q>
0

> <i_epik_Tot_abs_Q>
0

> <r_epik_Metal_State_Penalty>
-0

> <b_epik_Metal_Only>
0

> <s_lp_Force_Field>
OPLS_2005

> <r_lp_Energy>
89.6374

> <b_lp_Chiralities_Consistent>
1

> <s_lp_Variant>
AV-unprocessed.smi:227-1

> <Gold.Version>
5.8.1

> <Gold.Id.Protein>
6NUR|6NUR_protein|mol2

> <Gold.PLP.Fitness>
43.2558

> <Gold.PLP.PLP>
-36.2135

> <Gold.PLP.part.hbond>
-3.3601

> <Gold.PLP.part.metal>
0.0000

> <Gold.PLP.part.buried>
-4.3088

> <Gold.PLP.part.nonpolar>
-28.7323

> <Gold.PLP.part.repulsive>
0.1818

> <Gold.PLP.ligand.clash>
0.0000

> <Gold.PLP.ligand.torsion>
1.0628

> <Gold.PLP.Chemscore.Hbond>
3.0000

> <Gold.PLP.Chemscore.CHOScore>
0.0000

> <Gold.PLP.Chemscore.Metal>
0.0000

> <Gold.Chemscore.Hbonds>
donor molecule, donor type, donor heavy atom, donor atom, acceptor molecule, acceptor atom, score
      L1  H     1    28       P1  8028  1.00
      P1  H  7997  8010       L1     7  0.70
      P1  H 10752 10764       L1    17  0.78

> <Gold.PLP.Chemscore.Internal.Correction>
0.1679

> <Gold.Rescore>
     Score         DG    S(hbond)    S(metal)    S(lipo)     H(rot)  DE(clash)    DE(int)     intcor
      8.12     -12.97       2.04        0.00      84.68       3.61       0.16       4.69       ----

> <Gold.Chemscore.Fitness>
8.1234

> <Gold.Chemscore.DG>
-12.9680

> <Gold.Chemscore.ZeroCoef>
-5.4800

> <Gold.Chemscore.Hbond>
2.0404

> <Gold.Chemscore.Metal>
0.0000

> <Gold.Chemscore.Lipo>
84.6780

> <Gold.Chemscore.Internal_Hbond>
0.0000

> <Gold.Chemscore.DEClash>
0.1566

> <Gold.Chemscore.DEInternal>
4.6880

> <Gold.Chemscore.Rot>
3.6071

> <Gold.Chemscore.Internal.Correction>
   9.000000E+99

> <Gold.Chemscore.Hbonds>
donor molecule, donor type, donor heavy atom, donor atom, acceptor molecule, acceptor atom, score
      L1  H     1    28       P1  8028  1.00
      P1  H  7997  8010       L1     7  0.06
      P1  H 10752 10764       L1    17  0.71

> <Gold.Chemscore.Hbond.Weighted>
-6.8148

> <Gold.Chemscore.Metal.Weighted>
-0.0000

> <Gold.Chemscore.Lipo.Weighted>
-9.9073

> <Gold.Chemscore.Internal_Hbond.Weighted>
0.0000

> <Gold.Chemscore.DEClash.Weighted>
0.1566

> <Gold.Chemscore.DEInternal.Weighted>
4.6880

> <Gold.Chemscore.Rot.Weighted>
9.2342

> <Gold.Chemscore.Internal.Correction.Weighted>
   9.000000E+99

> <Gold.Protein.RotatedTorsions>
[ 6907 6896 6895 6894 ] final   42.42 input  -60.11 | X-H torsion
[ 7974 7965 7964 7962 ] final -106.12 input  175.53 | X-H torsion
[ 8008 7997 7996 7995 ] final   -0.14 input   59.86 | X-H torsion
[ 10167 10162 10161 10158 ] final  128.19 input  -65.29 | X-H torsion
[ 10718 10713 10712 10709 ] final -144.22 input   66.30 | X-H torsion
[ 10763 10752 10751 10750 ] final   52.49 input  -60.55 | X-H torsion
[ 11005 11000 10999 10996 ] final -140.27 input  -57.11 | X-H torsion

> <Gold.Protein.ActiveResidues>
 VAL166  LYS551  ARG553  GLY616  TRP617  ASP618  TYR619  PRO620  LYS621  CYS622 
 ASP623  PHE694  ASN695  SER759  ASP760  ASP761  ALA762  ILE779  LEU786  VAL792 
 PHE793  MET794  SER795  GLU796  ALA797  LYS798  CYS799  TRP800  GLU811  SER814 

> <Gold.Protein.RotatedAtoms>
  152.2076  134.8531  160.0500 H   0  0  0  0  0  0  0  0  0  0  0  0  # atno 6907 bound_to 6896
  151.9361  133.3619  159.3956 H   0  0  0  0  0  0  0  0  0  0  0  0  # atno 6908 bound_to 6896
  150.6969  134.4412  159.5337 H   0  0  0  0  0  0  0  0  0  0  0  0  # atno 6909 bound_to 6896
  145.2219  140.9137  143.3254 H   0  0  0  0  0  0  0  0  0  0  0  0  # atno 7974 bound_to 7965
  154.6615  140.2591  155.7104 H   0  0  0  0  0  0  0  0  0  0  0  0  # atno 8008 bound_to 7997
  156.2620  140.2848  156.1010 H   0  0  0  0  0  0  0  0  0  0  0  0  # atno 8009 bound_to 7997
  155.1302  140.0378  157.2763 H   0  0  0  0  0  0  0  0  0  0  0  0  # atno 8010 bound_to 7997
  139.5540  144.6835  151.4238 H   0  0  0  0  0  0  0  0  0  0  0  0  # atno 10167 bound_to 10162
  156.3674  130.7770  151.1946 H   0  0  0  0  0  0  0  0  0  0  0  0  # atno 10718 bound_to 10713
  152.9789  135.5811  154.4586 H   0  0  0  0  0  0  0  0  0  0  0  0  # atno 10763 bound_to 10752
  154.4165  135.2771  155.2005 H   0  0  0  0  0  0  0  0  0  0  0  0  # atno 10764 bound_to 10752
  154.3772  135.6155  153.5825 H   0  0  0  0  0  0  0  0  0  0  0  0  # atno 10765 bound_to 10752
  140.8439  134.2368  157.4796 H   0  0  0  0  0  0  0  0  0  0  0  0  # atno 11005 bound_to 11000
  144.9757  139.3834  143.6287 LP  0  0  0  0  0  0  0  0  0  0  0  0  # atno 17320 bound_to 7965
  146.3374  139.8876  142.8814 LP  0  0  0  0  0  0  0  0  0  0  0  0  # atno 17321 bound_to 7965
  140.6809  143.8084  150.7120 LP  0  0  0  0  0  0  0  0  0  0  0  0  # atno 17342 bound_to 10162
  140.1537  143.4335  152.2114 LP  0  0  0  0  0  0  0  0  0  0  0  0  # atno 17343 bound_to 10162
  157.7480  131.0382  150.4492 LP  0  0  0  0  0  0  0  0  0  0  0  0  # atno 17370 bound_to 10713
  156.4714  130.4053  149.6516 LP  0  0  0  0  0  0  0  0  0  0  0  0  # atno 17371 bound_to 10713
  139.8703  134.9649  156.4512 LP  0  0  0  0  0  0  0  0  0  0  0  0  # atno 17394 bound_to 11000
  140.8865  133.7880  155.9524 LP  0  0  0  0  0  0  0  0  0  0  0  0  # atno 17395 bound_to 11000

$$$$
