AV-unprocessed.smi:2150|AV-procd|sdf|8756|dock2
  -GOLD-   2272011533D 1   1.00000     0.00000
 Structure written by MMmdl.
 35 36  0  0  0  0  0  0  0  0  1 V2000
  146.2127  131.8243  160.9412 O   0  0  0  0  0  0  0  0  0  0  0  0
  146.1208  132.5051  159.9189 C   0  0  0  0  0  0  0  0  0  0  0  0
  147.1817  133.5624  159.5841 C   0  0  0  0  0  0  0  0  0  0  0  0
  147.2950  134.6062  160.6156 N   0  0  0  0  0  0  0  0  0  0  0  0
  146.4346  134.5229  161.7233 C   0  0  0  0  0  0  0  0  0  0  0  0
  146.4729  135.4456  162.6953 C   0  0  0  0  0  0  0  0  0  0  0  0
  147.4525  136.5275  162.5299 C   0  0  0  0  0  0  0  0  0  0  0  0
  148.2371  136.6072  161.5209 N   0  0  0  0  0  0  0  0  0  0  0  0
  148.1931  135.6385  160.5003 C   0  0  0  0  0  0  0  0  0  0  0  0
  148.9404  135.7120  159.5244 O   0  0  0  0  0  0  0  0  0  0  0  0
  145.1205  132.3710  159.0336 N   0  0  0  0  0  0  0  0  0  0  0  0
  143.9816  131.4610  159.1748 C   0  0  2  0  0  0  0  0  0  0  0  0
  144.1903  130.2882  158.1893 C   0  0  0  0  0  0  0  0  0  0  0  0
  143.4120  129.0157  158.5678 C   0  0  0  0  0  0  0  0  0  0  0  0
  141.8821  129.1504  158.5213 C   0  0  0  0  0  0  0  0  0  0  0  0
  141.3204  130.1844  159.5123 C   0  0  0  0  0  0  0  0  0  0  0  0
  141.4969  131.5501  159.0365 N   0  0  0  0  0  0  0  0  0  0  0  0
  142.6595  132.1861  158.8286 C   0  0  0  0  0  0  0  0  0  0  0  0
  142.6695  133.3263  158.3644 O   0  0  0  0  0  0  0  0  0  0  0  0
  148.1363  133.0528  159.4463 H   0  0  0  0  0  0  0  0  0  0  0  0
  146.9565  134.0180  158.6177 H   0  0  0  0  0  0  0  0  0  0  0  0
  145.7541  133.6839  161.7246 H   0  0  0  0  0  0  0  0  0  0  0  0
  145.8391  135.4435  163.5695 H   0  0  0  0  0  0  0  0  0  0  0  0
  147.4689  137.2693  163.3324 H   0  0  0  0  0  0  0  0  0  0  0  0
  145.1238  132.9717  158.2224 H   0  0  0  0  0  0  0  0  0  0  0  0
  143.9477  131.0880  160.2001 H   0  0  0  0  0  0  0  0  0  0  0  0
  143.9506  130.5877  157.1673 H   0  0  0  0  0  0  0  0  0  0  0  0
  145.2483  130.0216  158.1733 H   0  0  0  0  0  0  0  0  0  0  0  0
  143.7087  128.2143  157.8907 H   0  0  0  0  0  0  0  0  0  0  0  0
  143.7158  128.6890  159.5630 H   0  0  0  0  0  0  0  0  0  0  0  0
  141.5545  129.3838  157.5072 H   0  0  0  0  0  0  0  0  0  0  0  0
  141.4502  128.1773  158.7575 H   0  0  0  0  0  0  0  0  0  0  0  0
  140.2489  130.0222  159.6305 H   0  0  0  0  0  0  0  0  0  0  0  0
  141.7597  130.0631  160.5033 H   0  0  0  0  0  0  0  0  0  0  0  0
  140.6523  132.0558  158.8113 H   0  0  0  0  0  0  0  0  0  0  0  0
  1  2  2  0  0  0  0
  2  3  1  0  0  0  0
  2 11  1  0  0  0  0
  3  4  1  0  0  0  0
  3 20  1  0  0  0  0
  3 21  1  0  0  0  0
  4  9  1  0  0  0  0
  4  5  1  0  0  0  0
  5  6  2  0  0  0  0
  5 22  1  0  0  0  0
  6  7  1  0  0  0  0
  6 23  1  0  0  0  0
  7  8  2  0  0  0  0
  7 24  1  0  0  0  0
  8  9  1  0  0  0  0
  9 10  2  0  0  0  0
 11 12  1  0  0  0  0
 11 25  1  0  0  0  0
 12 18  1  0  0  0  0
 12 13  1  0  0  0  0
 12 26  1  0  0  0  0
 13 14  1  0  0  0  0
 13 27  1  0  0  0  0
 13 28  1  0  0  0  0
 14 15  1  0  0  0  0
 14 29  1  0  0  0  0
 14 30  1  0  0  0  0
 15 16  1  0  0  0  0
 15 31  1  0  0  0  0
 15 32  1  0  0  0  0
 16 17  1  0  0  0  0
 16 33  1  0  0  0  0
 16 34  1  0  0  0  0
 17 18  1  0  0  0  0
 17 35  1  0  0  0  0
 18 19  2  0  0  0  0
M  END
> <s_m_source_file>
AV-unprocessed.smi

> <i_m_source_file_index>
2150

> <i_lp_mmshare_version>
43012

> <i_f3d_flags>
0

> <s_epik_input>
Tz1jMW5bY0hdW2NIXVtjSF1uMVtDSDJdQyg9TylbTkhdW0NAQEhdMltDSDJdW0NIMl1bQ0gyXVtDSDJdW05IXUMyPU8=

> <s_epik_cmdline>
J2VwaWtfcHl0aG9uJywgJy1waCcsICc3LjAnLCAnLXRuJywgJzgnLCAnLW1hJywgJzIwMCcsICctbWV0YWxfYmluZGluZycsICctaW1hZScsICc8aW5maWxlLm1hZT4nLCAnLW9tYWUnLCAnPG91dGZpbGUubWFlPic=

> <r_lp_tautomer_probability>
1

> <r_epik_Ionization_Penalty>
6.25431e-06

> <r_epik_Ionization_Penalty_Charging>
1.47848e-08

> <r_epik_Ionization_Penalty_Neutral>
6.23953e-06

> <r_epik_State_Penalty>
-0

> <r_epik_Charging_Adjusted_Penalty>
1.47848e-08

> <i_epik_Tot_Q>
0

> <i_epik_Tot_abs_Q>
0

> <r_epik_Metal_State_Penalty>
-0

> <b_epik_Metal_Only>
0

> <s_lp_Force_Field>
OPLS_2005

> <r_lp_Energy>
13.567

> <b_lp_Chiralities_Consistent>
1

> <s_lp_Variant>
AV-unprocessed.smi:2150-1

> <Gold.Version>
5.8.1

> <Gold.Id.Protein>
6NUR|6NUR_protein|mol2

> <Gold.PLP.Fitness>
37.3248

> <Gold.PLP.PLP>
-29.5843

> <Gold.PLP.part.hbond>
-3.0000

> <Gold.PLP.part.metal>
0.0000

> <Gold.PLP.part.buried>
-4.8035

> <Gold.PLP.part.nonpolar>
-22.0845

> <Gold.PLP.part.repulsive>
0.1123

> <Gold.PLP.ligand.clash>
0.9030

> <Gold.PLP.ligand.torsion>
0.1667

> <Gold.PLP.Chemscore.Hbond>
2.9913

> <Gold.PLP.Chemscore.CHOScore>
0.0000

> <Gold.PLP.Chemscore.Metal>
0.0000

> <Gold.Chemscore.Hbonds>
donor molecule, donor type, donor heavy atom, donor atom, acceptor molecule, acceptor atom, score
      P1  H  6896  6909       L1    10  0.96
      P1  H  6931  6943       L1     8  0.95
      P1  H 11000 11005       L1    19  1.00

> <Gold.PLP.Chemscore.Internal.Correction>
0.0032

> <Gold.Rescore>
     Score         DG    S(hbond)    S(metal)    S(lipo)     H(rot)  DE(clash)    DE(int)     intcor
     14.50     -15.95       2.79        0.00      46.83       1.69       0.00       1.45       ----

> <Gold.Chemscore.Fitness>
14.4985

> <Gold.Chemscore.DG>
-15.9467

> <Gold.Chemscore.ZeroCoef>
-5.4800

> <Gold.Chemscore.Hbond>
2.7924

> <Gold.Chemscore.Metal>
0.0000

> <Gold.Chemscore.Lipo>
46.8259

> <Gold.Chemscore.Internal_Hbond>
0.0000

> <Gold.Chemscore.DEClash>
0.0029

> <Gold.Chemscore.DEInternal>
1.4452

> <Gold.Chemscore.Rot>
1.6947

> <Gold.Chemscore.Internal.Correction>
   9.000000E+99

> <Gold.Chemscore.Hbonds>
donor molecule, donor type, donor heavy atom, donor atom, acceptor molecule, acceptor atom, score
      P1  H  6896  6909       L1    10  0.86
      P1  H  6931  6943       L1     8  0.22
      P1  H 11000 11005       L1    19  0.94

> <Gold.Chemscore.Hbond.Weighted>
-9.3265

> <Gold.Chemscore.Metal.Weighted>
-0.0000

> <Gold.Chemscore.Lipo.Weighted>
-5.4786

> <Gold.Chemscore.Internal_Hbond.Weighted>
0.0000

> <Gold.Chemscore.DEClash.Weighted>
0.0029

> <Gold.Chemscore.DEInternal.Weighted>
1.4452

> <Gold.Chemscore.Rot.Weighted>
4.3385

> <Gold.Chemscore.Internal.Correction.Weighted>
   9.000000E+99

> <Gold.Protein.RotatedTorsions>
[ 6907 6896 6895 6894 ] final   57.24 input  -60.11 | X-H torsion
[ 7974 7965 7964 7962 ] final -148.99 input  175.53 | X-H torsion
[ 8008 7997 7996 7995 ] final   76.34 input   59.86 | X-H torsion
[ 10167 10162 10161 10158 ] final  -29.20 input  -65.29 | X-H torsion
[ 10718 10713 10712 10709 ] final  131.78 input   66.30 | X-H torsion
[ 10763 10752 10751 10750 ] final   50.30 input  -60.55 | X-H torsion
[ 11005 11000 10999 10996 ] final -108.52 input  -57.11 | X-H torsion

> <Gold.Protein.ActiveResidues>
 VAL166  LYS551  ARG553  GLY616  TRP617  ASP618  TYR619  PRO620  LYS621  CYS622 
 ASP623  PHE694  ASN695  SER759  ASP760  ASP761  ALA762  ILE779  LEU786  VAL792 
 PHE793  MET794  SER795  GLU796  ALA797  LYS798  CYS799  TRP800  GLU811  SER814 

> <Gold.Protein.RotatedAtoms>
  152.3713  134.6730  160.0174 H   0  0  0  0  0  0  0  0  0  0  0  0  # atno 6907 bound_to 6896
  151.7022  133.3306  159.3277 H   0  0  0  0  0  0  0  0  0  0  0  0  # atno 6908 bound_to 6896
  150.7676  134.6541  159.6348 H   0  0  0  0  0  0  0  0  0  0  0  0  # atno 6909 bound_to 6896
  144.7995  140.5124  143.5717 H   0  0  0  0  0  0  0  0  0  0  0  0  # atno 7974 bound_to 7965
  155.8259  140.3468  155.5542 H   0  0  0  0  0  0  0  0  0  0  0  0  # atno 8008 bound_to 7997
  155.8293  140.0924  157.1822 H   0  0  0  0  0  0  0  0  0  0  0  0  # atno 8009 bound_to 7997
  154.4004  140.1415  156.3582 H   0  0  0  0  0  0  0  0  0  0  0  0  # atno 8010 bound_to 7997
  140.7263  143.3948  151.1367 H   0  0  0  0  0  0  0  0  0  0  0  0  # atno 10167 bound_to 10162
  157.4935  131.1091  150.9525 H   0  0  0  0  0  0  0  0  0  0  0  0  # atno 10718 bound_to 10713
  152.9785  135.5883  154.4230 H   0  0  0  0  0  0  0  0  0  0  0  0  # atno 10763 bound_to 10752
  154.3852  135.2767  155.2190 H   0  0  0  0  0  0  0  0  0  0  0  0  # atno 10764 bound_to 10752
  154.4086  135.6087  153.5994 H   0  0  0  0  0  0  0  0  0  0  0  0  # atno 10765 bound_to 10752
  141.0897  133.9076  157.2103 H   0  0  0  0  0  0  0  0  0  0  0  0  # atno 11005 bound_to 11000
  145.5589  139.1479  143.3352 LP  0  0  0  0  0  0  0  0  0  0  0  0  # atno 17320 bound_to 7965
  146.2272  140.5725  142.8991 LP  0  0  0  0  0  0  0  0  0  0  0  0  # atno 17321 bound_to 7965
  139.7559  143.8709  152.3088 LP  0  0  0  0  0  0  0  0  0  0  0  0  # atno 17342 bound_to 10162
  139.8578  144.7132  150.9136 LP  0  0  0  0  0  0  0  0  0  0  0  0  # atno 17343 bound_to 10162
  157.0219  130.5677  149.5332 LP  0  0  0  0  0  0  0  0  0  0  0  0  # atno 17370 bound_to 10713
  156.0187  130.5281  150.8211 LP  0  0  0  0  0  0  0  0  0  0  0  0  # atno 17371 bound_to 10713
  139.9721  135.0125  156.9539 LP  0  0  0  0  0  0  0  0  0  0  0  0  # atno 17394 bound_to 11000
  140.5280  134.0841  155.7308 LP  0  0  0  0  0  0  0  0  0  0  0  0  # atno 17395 bound_to 11000

$$$$
