AV-unprocessed.smi:2445|AV-procd|sdf|9634|dock8
  -GOLD-   2272013263D 1   1.00000     0.00000
 Structure written by MMmdl.
 40 41  0  0  0  0  0  0  0  0  1 V2000
  151.1888  143.4480  158.4670 C   0  0  0  0  0  0  0  0  0  0  0  0
  151.4950  142.1855  157.7353 C   0  0  0  0  0  0  0  0  0  0  0  0
  152.3709  141.1937  158.1010 C   0  0  0  0  0  0  0  0  0  0  0  0
  152.4320  140.1327  157.1951 N   0  0  0  0  0  0  0  0  0  0  0  0
  151.6173  140.3042  156.1500 C   0  0  0  0  0  0  0  0  0  0  0  0
  151.4818  139.3208  155.0301 C   0  0  1  0  0  0  0  0  0  0  0  0
  152.3523  138.0737  155.2632 C   0  0  0  0  0  0  0  0  0  0  0  0
  150.0000  139.0123  154.7240 C   0  0  0  0  0  0  0  0  0  0  0  0
  149.7877  137.6366  154.2855 N   0  0  0  0  0  0  0  0  0  0  0  0
  149.7501  136.5695  155.0946 C   0  0  0  0  0  0  0  0  0  0  0  0
  149.9076  136.6229  156.3145 O   0  0  0  0  0  0  0  0  0  0  0  0
  149.5082  135.4405  154.4152 N   0  0  0  0  0  0  0  0  0  0  0  0
  149.3698  134.1164  155.0132 C   0  0  2  0  0  0  0  0  0  0  0  0
  150.5251  133.7975  155.9393 C   0  0  0  0  0  0  0  0  0  0  0  0
  150.5246  132.2715  155.9469 C   0  0  0  0  0  0  0  0  0  0  0  0
  149.9726  131.8652  154.6980 O   0  0  0  0  0  0  0  0  0  0  0  0
  149.4982  132.9960  153.9743 C   0  0  1  0  0  0  0  0  0  0  0  0
  148.1942  132.6488  153.2458 C   0  0  0  0  0  0  0  0  0  0  0  0
  150.7102  141.8110  156.2234 S   0  0  0  0  0  0  0  0  0  0  0  0
  151.7691  143.5199  159.3874 H   0  0  0  0  0  0  0  0  0  0  0  0
  150.1321  143.4954  158.7307 H   0  0  0  0  0  0  0  0  0  0  0  0
  151.4237  144.3172  157.8525 H   0  0  0  0  0  0  0  0  0  0  0  0
  152.9888  141.1610  158.9862 H   0  0  0  0  0  0  0  0  0  0  0  0
  151.8909  139.8158  154.1484 H   0  0  0  0  0  0  0  0  0  0  0  0
  153.3932  138.3513  155.4314 H   0  0  0  0  0  0  0  0  0  0  0  0
  152.3309  137.4024  154.4047 H   0  0  0  0  0  0  0  0  0  0  0  0
  152.0129  137.5116  156.1336 H   0  0  0  0  0  0  0  0  0  0  0  0
  149.3936  139.1754  155.6155 H   0  0  0  0  0  0  0  0  0  0  0  0
  149.6203  139.6984  153.9648 H   0  0  0  0  0  0  0  0  0  0  0  0
  149.6466  137.4912  153.2965 H   0  0  0  0  0  0  0  0  0  0  0  0
  149.3933  135.5021  153.4141 H   0  0  0  0  0  0  0  0  0  0  0  0
  148.4337  134.0200  155.5674 H   0  0  0  0  0  0  0  0  0  0  0  0
  151.4645  134.1604  155.5188 H   0  0  0  0  0  0  0  0  0  0  0  0
  150.4095  134.2274  156.9345 H   0  0  0  0  0  0  0  0  0  0  0  0
  151.5228  131.8588  156.0936 H   0  0  0  0  0  0  0  0  0  0  0  0
  149.8833  131.8953  156.7448 H   0  0  0  0  0  0  0  0  0  0  0  0
  150.2681  133.2560  153.2455 H   0  0  0  0  0  0  0  0  0  0  0  0
  147.8290  133.4963  152.6658 H   0  0  0  0  0  0  0  0  0  0  0  0
  147.4129  132.3624  153.9498 H   0  0  0  0  0  0  0  0  0  0  0  0
  148.3441  131.8173  152.5569 H   0  0  0  0  0  0  0  0  0  0  0  0
  1  2  1  0  0  0  0
  1 20  1  0  0  0  0
  1 21  1  0  0  0  0
  1 22  1  0  0  0  0
  2 19  1  0  0  0  0
  2  3  2  0  0  0  0
  3  4  1  0  0  0  0
  3 23  1  0  0  0  0
  4  5  2  0  0  0  0
  5  6  1  0  0  0  0
  5 19  1  0  0  0  0
  6  7  1  0  0  0  0
  6  8  1  0  0  0  0
  6 24  1  0  0  0  0
  7 25  1  0  0  0  0
  7 26  1  0  0  0  0
  7 27  1  0  0  0  0
  8  9  1  0  0  0  0
  8 28  1  0  0  0  0
  8 29  1  0  0  0  0
  9 10  1  0  0  0  0
  9 30  1  0  0  0  0
 10 11  2  0  0  0  0
 10 12  1  0  0  0  0
 12 13  1  0  0  0  0
 12 31  1  0  0  0  0
 13 17  1  0  0  0  0
 13 14  1  0  0  0  0
 13 32  1  0  0  0  0
 14 15  1  0  0  0  0
 14 33  1  0  0  0  0
 14 34  1  0  0  0  0
 15 16  1  0  0  0  0
 15 35  1  0  0  0  0
 15 36  1  0  0  0  0
 16 17  1  0  0  0  0
 17 18  1  0  0  0  0
 17 37  1  0  0  0  0
 18 38  1  0  0  0  0
 18 39  1  0  0  0  0
 18 40  1  0  0  0  0
M  END
> <s_m_source_file>
AV-unprocessed.smi

> <i_m_source_file_index>
2445

> <i_lp_mmshare_version>
43012

> <i_f3d_flags>
0

> <s_epik_input>
W0NIM11jMVtjSF1uYyhzMSlbQ0BIXShbQ0gzXSlbQ0gyXVtOSF1DKD1PKVtOSF1bQ0BASF0yW0NIMl1bQ0gyXU9bQ0BIXTJbQ0gzXQ==

> <s_epik_cmdline>
J2VwaWtfcHl0aG9uJywgJy1waCcsICc3LjAnLCAnLXRuJywgJzgnLCAnLW1hJywgJzIwMCcsICctbWV0YWxfYmluZGluZycsICctaW1hZScsICc8aW5maWxlLm1hZT4nLCAnLW9tYWUnLCAnPG91dGZpbGUubWFlPic=

> <r_epik_Ionization_Penalty>
0.000649483

> <r_epik_Ionization_Penalty_Charging>
0

> <r_epik_Ionization_Penalty_Neutral>
0.000649483

> <r_epik_State_Penalty>
0.000379895

> <r_epik_Charging_Adjusted_Penalty>
0.000379895

> <i_epik_Tot_Q>
0

> <i_epik_Tot_abs_Q>
0

> <r_epik_Metal_State_Penalty>
-0

> <b_epik_Metal_Only>
0

> <s_lp_Force_Field>
OPLS_2005

> <r_lp_Energy>
5.33919

> <b_lp_Chiralities_Consistent>
1

> <s_lp_Variant>
AV-unprocessed.smi:2445-2

> <Gold.Version>
5.8.1

> <Gold.Id.Protein>
6NUR|6NUR_protein|mol2

> <Gold.PLP.Fitness>
42.0602

> <Gold.PLP.PLP>
-35.2613

> <Gold.PLP.part.hbond>
-3.0000

> <Gold.PLP.part.metal>
0.0000

> <Gold.PLP.part.buried>
-3.6964

> <Gold.PLP.part.nonpolar>
-27.4077

> <Gold.PLP.part.repulsive>
0.0976

> <Gold.PLP.ligand.clash>
0.0000

> <Gold.PLP.ligand.torsion>
0.9104

> <Gold.PLP.Chemscore.Hbond>
2.8297

> <Gold.PLP.Chemscore.CHOScore>
0.0000

> <Gold.PLP.Chemscore.Metal>
0.0000

> <Gold.Chemscore.Hbonds>
donor molecule, donor type, donor heavy atom, donor atom, acceptor molecule, acceptor atom, score
      L1  H     9    30       P1  7948  0.94
      L1  H    12    31       P1  7948  0.90
      P1  H  7997  8008       L1     4  0.87

> <Gold.PLP.Chemscore.Internal.Correction>
0.1305

> <Gold.Rescore>
     Score         DG    S(hbond)    S(metal)    S(lipo)     H(rot)  DE(clash)    DE(int)     intcor
     13.45     -17.69       1.74        0.00      88.11       1.53       0.05       4.19       ----

> <Gold.Chemscore.Fitness>
13.4480

> <Gold.Chemscore.DG>
-17.6865

> <Gold.Chemscore.ZeroCoef>
-5.4800

> <Gold.Chemscore.Hbond>
1.7427

> <Gold.Chemscore.Metal>
0.0000

> <Gold.Chemscore.Lipo>
88.1138

> <Gold.Chemscore.Internal_Hbond>
0.0000

> <Gold.Chemscore.DEClash>
0.0456

> <Gold.Chemscore.DEInternal>
4.1929

> <Gold.Chemscore.Rot>
1.5325

> <Gold.Chemscore.Internal.Correction>
   9.000000E+99

> <Gold.Chemscore.Hbonds>
donor molecule, donor type, donor heavy atom, donor atom, acceptor molecule, acceptor atom, score
      L1  H     9    30       P1  7948  0.69
      L1  H    12    31       P1  7948  0.18
      P1  H  7997  8008       L1     4  0.20

> <Gold.Chemscore.Hbond.Weighted>
-5.8205

> <Gold.Chemscore.Metal.Weighted>
-0.0000

> <Gold.Chemscore.Lipo.Weighted>
-10.3093

> <Gold.Chemscore.Internal_Hbond.Weighted>
0.0000

> <Gold.Chemscore.DEClash.Weighted>
0.0456

> <Gold.Chemscore.DEInternal.Weighted>
4.1929

> <Gold.Chemscore.Rot.Weighted>
3.9233

> <Gold.Chemscore.Internal.Correction.Weighted>
   9.000000E+99

> <Gold.Protein.RotatedTorsions>
[ 6907 6896 6895 6894 ] final  151.50 input  -60.11 | X-H torsion
[ 7974 7965 7964 7962 ] final  -37.61 input  175.53 | X-H torsion
[ 8008 7997 7996 7995 ] final  -74.00 input   59.86 | X-H torsion
[ 10167 10162 10161 10158 ] final  -90.44 input  -65.29 | X-H torsion
[ 10718 10713 10712 10709 ] final  -95.81 input   66.30 | X-H torsion
[ 10763 10752 10751 10750 ] final  144.71 input  -60.55 | X-H torsion
[ 11005 11000 10999 10996 ] final   36.41 input  -57.11 | X-H torsion

> <Gold.Protein.ActiveResidues>
 VAL166  LYS551  ARG553  GLY616  TRP617  ASP618  TYR619  PRO620  LYS621  CYS622 
 ASP623  PHE694  ASN695  SER759  ASP760  ASP761  ALA762  ILE779  LEU786  VAL792 
 PHE793  MET794  SER795  GLU796  ALA797  LYS798  CYS799  TRP800  GLU811  SER814 

> <Gold.Protein.RotatedAtoms>
  152.0998  133.4244  159.4581 H   0  0  0  0  0  0  0  0  0  0  0  0  # atno 6907 bound_to 6896
  150.6864  134.2774  159.4622 H   0  0  0  0  0  0  0  0  0  0  0  0  # atno 6908 bound_to 6896
  152.0633  134.9580  160.0625 H   0  0  0  0  0  0  0  0  0  0  0  0  # atno 6909 bound_to 6896
  146.0560  140.6416  142.9019 H   0  0  0  0  0  0  0  0  0  0  0  0  # atno 7974 bound_to 7965
  154.5294  140.0769  156.8317 H   0  0  0  0  0  0  0  0  0  0  0  0  # atno 8008 bound_to 7997
  155.3407  140.3407  155.4221 H   0  0  0  0  0  0  0  0  0  0  0  0  # atno 8009 bound_to 7997
  156.1765  140.1637  156.8339 H   0  0  0  0  0  0  0  0  0  0  0  0  # atno 8010 bound_to 7997
  140.3549  143.2872  151.9683 H   0  0  0  0  0  0  0  0  0  0  0  0  # atno 10167 bound_to 10162
  156.0050  130.5125  150.6132 H   0  0  0  0  0  0  0  0  0  0  0  0  # atno 10718 bound_to 10713
  153.9934  135.2930  155.3410 H   0  0  0  0  0  0  0  0  0  0  0  0  # atno 10763 bound_to 10752
  154.7201  135.5112  153.8802 H   0  0  0  0  0  0  0  0  0  0  0  0  # atno 10764 bound_to 10752
  153.0799  135.6675  154.0184 H   0  0  0  0  0  0  0  0  0  0  0  0  # atno 10765 bound_to 10752
  140.2328  134.3507  155.7957 H   0  0  0  0  0  0  0  0  0  0  0  0  # atno 11005 bound_to 11000
  144.7148  140.4170  143.7053 LP  0  0  0  0  0  0  0  0  0  0  0  0  # atno 17320 bound_to 7965
  145.6643  139.1587  143.2790 LP  0  0  0  0  0  0  0  0  0  0  0  0  # atno 17321 bound_to 7965
  139.4821  144.6044  151.7548 LP  0  0  0  0  0  0  0  0  0  0  0  0  # atno 17342 bound_to 10162
  140.5184  144.0918  150.6015 LP  0  0  0  0  0  0  0  0  0  0  0  0  # atno 17343 bound_to 10162
  157.3961  131.0803  151.1351 LP  0  0  0  0  0  0  0  0  0  0  0  0  # atno 17370 bound_to 10713
  157.2027  130.6402  149.5744 LP  0  0  0  0  0  0  0  0  0  0  0  0  # atno 17371 bound_to 10713
  141.2216  133.7255  156.8759 LP  0  0  0  0  0  0  0  0  0  0  0  0  # atno 17394 bound_to 11000
  140.1733  134.9085  157.2860 LP  0  0  0  0  0  0  0  0  0  0  0  0  # atno 17395 bound_to 11000

$$$$
