AV-unprocessed.smi:531|AV-procd|sdf|2846|dock5
  -GOLD-   2262023333D 1   1.00000     0.00000
 Structure written by MMmdl.
 46 48  0  0  0  0  0  0  0  0  1 V2000
  146.5524  142.5937  154.0014 C   0  0  0  0  0  0  0  0  0  0  0  0
  147.3885  141.4291  153.4664 C   0  0  0  0  0  0  0  0  0  0  0  0
  148.7479  141.6479  153.8031 O   0  0  0  0  0  0  0  0  0  0  0  0
  149.0177  141.4044  155.1729 C   0  0  0  0  0  0  0  0  0  0  0  0
  150.2832  142.1721  155.5706 C   0  0  0  0  0  0  0  0  0  0  0  0
  151.0989  141.4065  156.5091 N   0  0  0  0  0  0  0  0  0  0  0  0
  151.5619  141.7784  157.7353 C   0  0  0  0  0  0  0  0  0  0  0  0
  151.3123  143.0395  158.2813 N   0  0  0  0  0  0  0  0  0  0  0  0
  150.4532  143.3399  159.4274 C   0  0  0  0  0  0  0  0  0  0  0  0
  151.1845  144.2019  160.4728 C   0  0  0  0  0  0  0  0  0  0  0  0
  151.6759  145.5102  159.8383 C   0  0  0  0  0  0  0  0  0  0  0  0
  152.4800  145.2079  158.5661 C   0  0  0  0  0  0  0  0  0  0  0  0
  151.6829  144.2905  157.6212 C   0  0  0  0  0  0  0  0  0  0  0  0
  152.2229  140.8212  158.3923 N   0  0  0  0  0  0  0  0  0  0  0  0
  152.1987  139.7555  157.5070 C   0  0  0  0  0  0  0  0  0  0  0  0
  151.5157  140.0793  156.3797 C   0  0  0  0  0  0  0  0  0  0  0  0
  151.2865  139.1125  155.2960 C   0  0  0  0  0  0  0  0  0  0  0  0
  150.6497  139.3702  154.2771 O   0  0  0  0  0  0  0  0  0  0  0  0
  151.8388  137.8992  155.5394 N   0  0  0  0  0  0  0  0  0  0  0  0
  152.5439  137.5128  156.6459 C   0  0  0  0  0  0  0  0  0  0  0  0
  152.9800  136.3646  156.7271 O   0  0  0  0  0  0  0  0  0  0  0  0
  152.7333  138.4418  157.6366 N   0  0  0  0  0  0  0  0  0  0  0  0
  153.4767  138.0847  158.8464 C   0  0  0  0  0  0  0  0  0  0  0  0
  151.7094  137.1977  154.8251 H   0  0  0  0  0  0  0  0  0  0  0  0
  145.4981  142.4604  153.7578 H   0  0  0  0  0  0  0  0  0  0  0  0
  146.8788  143.5406  153.5702 H   0  0  0  0  0  0  0  0  0  0  0  0
  146.6383  142.6708  155.0856 H   0  0  0  0  0  0  0  0  0  0  0  0
  147.0385  140.4913  153.9004 H   0  0  0  0  0  0  0  0  0  0  0  0
  147.2761  141.3557  152.3839 H   0  0  0  0  0  0  0  0  0  0  0  0
  148.1730  141.7327  155.7809 H   0  0  0  0  0  0  0  0  0  0  0  0
  149.1554  140.3361  155.3469 H   0  0  0  0  0  0  0  0  0  0  0  0
  150.8702  142.4226  154.6894 H   0  0  0  0  0  0  0  0  0  0  0  0
  150.0180  143.1318  156.0026 H   0  0  0  0  0  0  0  0  0  0  0  0
  149.5698  143.8709  159.0701 H   0  0  0  0  0  0  0  0  0  0  0  0
  150.0760  142.4211  159.8745 H   0  0  0  0  0  0  0  0  0  0  0  0
  150.5206  144.4196  161.3097 H   0  0  0  0  0  0  0  0  0  0  0  0
  152.0325  143.6529  160.8837 H   0  0  0  0  0  0  0  0  0  0  0  0
  150.8198  146.1379  159.5877 H   0  0  0  0  0  0  0  0  0  0  0  0
  152.2815  146.0744  160.5479 H   0  0  0  0  0  0  0  0  0  0  0  0
  152.7377  146.1370  158.0570 H   0  0  0  0  0  0  0  0  0  0  0  0
  153.4224  144.7273  158.8323 H   0  0  0  0  0  0  0  0  0  0  0  0
  152.2819  144.0743  156.7359 H   0  0  0  0  0  0  0  0  0  0  0  0
  150.7823  144.7960  157.2698 H   0  0  0  0  0  0  0  0  0  0  0  0
  154.4249  137.6064  158.5965 H   0  0  0  0  0  0  0  0  0  0  0  0
  152.8952  137.3926  159.4565 H   0  0  0  0  0  0  0  0  0  0  0  0
  153.7115  138.9530  159.4622 H   0  0  0  0  0  0  0  0  0  0  0  0
  1  2  1  0  0  0  0
  1 25  1  0  0  0  0
  1 26  1  0  0  0  0
  1 27  1  0  0  0  0
  2  3  1  0  0  0  0
  2 28  1  0  0  0  0
  2 29  1  0  0  0  0
  3  4  1  0  0  0  0
  4  5  1  0  0  0  0
  4 30  1  0  0  0  0
  4 31  1  0  0  0  0
  5  6  1  0  0  0  0
  5 32  1  0  0  0  0
  5 33  1  0  0  0  0
  6 16  1  0  0  0  0
  6  7  1  0  0  0  0
  7  8  1  0  0  0  0
  7 14  2  0  0  0  0
  8 13  1  0  0  0  0
  8  9  1  0  0  0  0
  9 10  1  0  0  0  0
  9 34  1  0  0  0  0
  9 35  1  0  0  0  0
 10 11  1  0  0  0  0
 10 36  1  0  0  0  0
 10 37  1  0  0  0  0
 11 12  1  0  0  0  0
 11 38  1  0  0  0  0
 11 39  1  0  0  0  0
 12 13  1  0  0  0  0
 12 40  1  0  0  0  0
 12 41  1  0  0  0  0
 13 42  1  0  0  0  0
 13 43  1  0  0  0  0
 14 15  1  0  0  0  0
 15 22  1  0  0  0  0
 15 16  2  0  0  0  0
 16 17  1  0  0  0  0
 17 18  2  0  0  0  0
 17 19  1  0  0  0  0
 19 24  1  0  0  0  0
 19 20  1  0  0  0  0
 20 21  2  0  0  0  0
 20 22  1  0  0  0  0
 22 23  1  0  0  0  0
 23 44  1  0  0  0  0
 23 45  1  0  0  0  0
 23 46  1  0  0  0  0
M  END
> <s_m_source_file>
AV-unprocessed.smi

> <i_m_source_file_index>
531

> <i_lp_mmshare_version>
43012

> <i_f3d_flags>
0

> <s_epik_input>
W0NIM11uMWMoPU8pW25IXWMoPU8pYyhjMTIpbihbQ0gyXVtDSDJdT1tDSDJdW0NIM10pYyhuMilOM1tDSDJdW0NIMl1bQ0gyXVtDSDJdW0NIMl0z

> <s_epik_cmdline>
J2VwaWtfcHl0aG9uJywgJy1waCcsICc3LjAnLCAnLXRuJywgJzgnLCAnLW1hJywgJzIwMCcsICctbWV0YWxfYmluZGluZycsICctaW1hZScsICc8aW5maWxlLm1hZT4nLCAnLW9tYWUnLCAnPG91dGZpbGUubWFlPic=

> <r_lp_tautomer_probability>
1

> <r_epik_Ionization_Penalty>
0.000274134

> <r_epik_Ionization_Penalty_Charging>
0.000122674

> <r_epik_Ionization_Penalty_Neutral>
0.00015146

> <r_epik_State_Penalty>
-0

> <r_epik_Charging_Adjusted_Penalty>
0.000122674

> <i_epik_Tot_Q>
0

> <i_epik_Tot_abs_Q>
0

> <r_epik_Metal_State_Penalty>
0.0938197

> <b_epik_Metal_Only>
0

> <s_lp_Force_Field>
OPLS_2005

> <r_lp_Energy>
38.5132

> <b_lp_Chiralities_Consistent>
1

> <s_lp_Variant>
AV-unprocessed.smi:531-1

> <Gold.Version>
5.8.1

> <Gold.Id.Protein>
6NUR|6NUR_protein|mol2

> <Gold.PLP.Fitness>
48.8619

> <Gold.PLP.PLP>
-43.7637

> <Gold.PLP.part.hbond>
-3.0000

> <Gold.PLP.part.metal>
0.0000

> <Gold.PLP.part.buried>
-5.2987

> <Gold.PLP.part.nonpolar>
-35.3353

> <Gold.PLP.part.repulsive>
0.4805

> <Gold.PLP.ligand.clash>
0.0000

> <Gold.PLP.ligand.torsion>
1.6445

> <Gold.PLP.Chemscore.Hbond>
2.6400

> <Gold.PLP.Chemscore.CHOScore>
0.0000

> <Gold.PLP.Chemscore.Metal>
0.0000

> <Gold.Chemscore.Hbonds>
donor molecule, donor type, donor heavy atom, donor atom, acceptor molecule, acceptor atom, score
      P1  H  7989  7998       L1    18  1.00
      P1  H  8011  8017       L1     3  0.64
      P1  H 10752 10763       L1    21  1.00

> <Gold.PLP.Chemscore.Internal.Correction>
0.4671

> <Gold.Rescore>
     Score         DG    S(hbond)    S(metal)    S(lipo)     H(rot)  DE(clash)    DE(int)     intcor
     15.25     -19.24       2.02        0.00      95.33       1.62       0.88       3.11       ----

> <Gold.Chemscore.Fitness>
15.2506

> <Gold.Chemscore.DG>
-19.2401

> <Gold.Chemscore.ZeroCoef>
-5.4800

> <Gold.Chemscore.Hbond>
2.0224

> <Gold.Chemscore.Metal>
0.0000

> <Gold.Chemscore.Lipo>
95.3276

> <Gold.Chemscore.Internal_Hbond>
0.0000

> <Gold.Chemscore.DEClash>
0.8804

> <Gold.Chemscore.DEInternal>
3.1091

> <Gold.Chemscore.Rot>
1.6204

> <Gold.Chemscore.Internal.Correction>
   9.000000E+99

> <Gold.Chemscore.Hbonds>
donor molecule, donor type, donor heavy atom, donor atom, acceptor molecule, acceptor atom, score
      P1  H  7989  7998       L1    18  0.44
      P1  H  8011  8017       L1     3  0.54
      P1  H 10752 10763       L1    21  0.97

> <Gold.Chemscore.Hbond.Weighted>
-6.7550

> <Gold.Chemscore.Metal.Weighted>
-0.0000

> <Gold.Chemscore.Lipo.Weighted>
-11.1533

> <Gold.Chemscore.Internal_Hbond.Weighted>
0.0000

> <Gold.Chemscore.DEClash.Weighted>
0.8804

> <Gold.Chemscore.DEInternal.Weighted>
3.1091

> <Gold.Chemscore.Rot.Weighted>
4.1481

> <Gold.Chemscore.Internal.Correction.Weighted>
   9.000000E+99

> <Gold.Protein.RotatedTorsions>
[ 6907 6896 6895 6894 ] final  -51.39 input  -60.11 | X-H torsion
[ 7974 7965 7964 7962 ] final  177.16 input  175.53 | X-H torsion
[ 8008 7997 7996 7995 ] final  169.29 input   59.86 | X-H torsion
[ 10167 10162 10161 10158 ] final  107.00 input  -65.29 | X-H torsion
[ 10718 10713 10712 10709 ] final  -39.72 input   66.30 | X-H torsion
[ 10763 10752 10751 10750 ] final  105.80 input  -60.55 | X-H torsion
[ 11005 11000 10999 10996 ] final  -51.63 input  -57.11 | X-H torsion

> <Gold.Protein.ActiveResidues>
 VAL166  LYS551  ARG553  GLY616  TRP617  ASP618  TYR619  PRO620  LYS621  CYS622 
 ASP623  PHE694  ASN695  SER759  ASP760  ASP761  ALA762  ILE779  LEU786  VAL792 
 PHE793  MET794  SER795  GLU796  ALA797  LYS798  CYS799  TRP800  GLU811  SER814 

> <Gold.Protein.RotatedAtoms>
  150.8616  134.7969  159.7086 H   0  0  0  0  0  0  0  0  0  0  0  0  # atno 6907 bound_to 6896
  152.4651  134.5091  159.9758 H   0  0  0  0  0  0  0  0  0  0  0  0  # atno 6908 bound_to 6896
  151.5194  133.3431  159.2934 H   0  0  0  0  0  0  0  0  0  0  0  0  # atno 6909 bound_to 6896
  144.7173  140.0205  143.6440 H   0  0  0  0  0  0  0  0  0  0  0  0  # atno 7974 bound_to 7965
  156.1471  140.1568  156.8830 H   0  0  0  0  0  0  0  0  0  0  0  0  # atno 8008 bound_to 7997
  154.5037  140.0818  156.7889 H   0  0  0  0  0  0  0  0  0  0  0  0  # atno 8009 bound_to 7997
  155.3968  140.3412  155.4257 H   0  0  0  0  0  0  0  0  0  0  0  0  # atno 8010 bound_to 7997
  139.6963  144.7101  151.1262 H   0  0  0  0  0  0  0  0  0  0  0  0  # atno 10167 bound_to 10162
  156.2893  130.4226  149.8255 H   0  0  0  0  0  0  0  0  0  0  0  0  # atno 10718 bound_to 10713
  153.3843  135.3898  155.1878 H   0  0  0  0  0  0  0  0  0  0  0  0  # atno 10763 bound_to 10752
  154.8711  135.3733  154.4818 H   0  0  0  0  0  0  0  0  0  0  0  0  # atno 10764 bound_to 10752
  153.5298  135.7086  153.5750 H   0  0  0  0  0  0  0  0  0  0  0  0  # atno 10765 bound_to 10752
  141.0881  133.6638  156.3905 H   0  0  0  0  0  0  0  0  0  0  0  0  # atno 11005 bound_to 11000
  146.0185  139.3230  143.0827 LP  0  0  0  0  0  0  0  0  0  0  0  0  # atno 17320 bound_to 7965
  145.8597  140.9482  143.0706 LP  0  0  0  0  0  0  0  0  0  0  0  0  # atno 17321 bound_to 7965
  140.7697  143.5488  150.9228 LP  0  0  0  0  0  0  0  0  0  0  0  0  # atno 17342 bound_to 10162
  139.9167  143.6654  152.3105 LP  0  0  0  0  0  0  0  0  0  0  0  0  # atno 17343 bound_to 10162
  156.5674  130.8410  151.3346 LP  0  0  0  0  0  0  0  0  0  0  0  0  # atno 17370 bound_to 10713
  157.7338  130.9735  150.1994 LP  0  0  0  0  0  0  0  0  0  0  0  0  # atno 17371 bound_to 10713
  140.5315  134.6207  157.5351 LP  0  0  0  0  0  0  0  0  0  0  0  0  # atno 17394 bound_to 11000
  139.9702  134.7305  156.0056 LP  0  0  0  0  0  0  0  0  0  0  0  0  # atno 17395 bound_to 11000

$$$$
