AV-unprocessed.smi:1451|AV-procd|sdf|5902|dock7
  -GOLD-   22720 5593D 1   1.00000     0.00000
 Structure written by MMmdl.
 47 48  0  0  0  0  0  0  0  0  2 V2000
  145.7198  132.1508  151.7291 C   0  0  0  0  0  0  0  0  0  0  0  0
  146.0508  133.6401  151.9002 C   0  0  1  0  0  0  0  0  0  0  0  0
  144.8059  134.5192  151.6943 C   0  0  0  0  0  0  0  0  0  0  0  0
  145.1596  135.9976  151.8982 C   0  0  0  0  0  0  0  0  0  0  0  0
  145.8138  136.2229  153.2705 C   0  0  0  0  0  0  0  0  0  0  0  0
  147.0160  135.3658  153.4379 N   0  3  1  0  0  0  0  0  0  0  0  0
  147.7454  135.6637  154.6967 C   0  0  0  0  0  0  0  0  0  0  0  0
  147.2973  134.7659  155.8620 C   0  0  0  0  0  0  0  0  0  0  0  0
  147.3852  135.4876  157.1248 N   0  0  0  0  0  0  0  0  0  0  0  0
  148.3839  135.3557  158.0097 C   0  0  0  0  0  0  0  0  0  0  0  0
  149.3526  134.6181  157.8258 O   0  0  0  0  0  0  0  0  0  0  0  0
  148.2754  136.2020  159.2860 C   0  0  0  0  0  0  0  0  0  0  0  0
  147.8630  135.4162  160.4610 N   0  0  0  0  0  0  0  0  0  0  0  0
  147.7774  134.0187  160.3042 C   0  0  0  0  0  0  0  0  0  0  0  0
  147.3933  133.1924  161.2960 C   0  0  0  0  0  0  0  0  0  0  0  0
  147.3614  131.6831  161.1118 C   0  0  0  0  0  0  0  0  0  0  0  0
  148.2452  131.0828  161.9094 F   0  0  0  0  0  0  0  0  0  0  0  0
  146.1497  131.2158  161.4089 F   0  0  0  0  0  0  0  0  0  0  0  0
  147.6384  131.3463  159.8514 F   0  0  0  0  0  0  0  0  0  0  0  0
  147.0957  133.8113  162.5728 C   0  0  0  0  0  0  0  0  0  0  0  0
  147.1794  135.1454  162.7416 C   0  0  0  0  0  0  0  0  0  0  0  0
  147.5760  136.0331  161.6465 C   0  0  0  0  0  0  0  0  0  0  0  0
  147.6456  137.2548  161.7851 O   0  0  0  0  0  0  0  0  0  0  0  0
  146.6828  133.9241  153.2780 C   0  0  0  0  0  0  0  0  0  0  0  0
  144.9847  131.8202  152.4635 H   0  0  0  0  0  0  0  0  0  0  0  0
  146.6107  131.5336  151.8487 H   0  0  0  0  0  0  0  0  0  0  0  0
  145.3125  131.9507  150.7375 H   0  0  0  0  0  0  0  0  0  0  0  0
  146.7819  133.9030  151.1340 H   0  0  0  0  0  0  0  0  0  0  0  0
  144.3971  134.3702  150.6945 H   0  0  0  0  0  0  0  0  0  0  0  0
  144.0239  134.2291  152.3976 H   0  0  0  0  0  0  0  0  0  0  0  0
  145.8391  136.3247  151.1098 H   0  0  0  0  0  0  0  0  0  0  0  0
  144.2625  136.6107  151.8074 H   0  0  0  0  0  0  0  0  0  0  0  0
  146.0916  137.2735  153.3631 H   0  0  0  0  0  0  0  0  0  0  0  0
  145.1003  136.0113  154.0688 H   0  0  0  0  0  0  0  0  0  0  0  0
  148.8132  135.5023  154.5405 H   0  0  0  0  0  0  0  0  0  0  0  0
  147.6277  136.7186  154.9502 H   0  0  0  0  0  0  0  0  0  0  0  0
  146.2731  134.4244  155.7113 H   0  0  0  0  0  0  0  0  0  0  0  0
  147.9275  133.8773  155.9197 H   0  0  0  0  0  0  0  0  0  0  0  0
  146.6343  136.1252  157.3468 H   0  0  0  0  0  0  0  0  0  0  0  0
  149.2413  136.6782  159.4594 H   0  0  0  0  0  0  0  0  0  0  0  0
  147.5771  137.0257  159.1250 H   0  0  0  0  0  0  0  0  0  0  0  0
  148.0410  133.6592  159.3200 H   0  0  0  0  0  0  0  0  0  0  0  0
  146.7942  133.1960  163.4075 H   0  0  0  0  0  0  0  0  0  0  0  0
  146.9466  135.5723  163.7061 H   0  0  0  0  0  0  0  0  0  0  0  0
  146.0032  133.6180  154.0755 H   0  0  0  0  0  0  0  0  0  0  0  0
  147.5810  133.3171  153.3832 H   0  0  0  0  0  0  0  0  0  0  0  0
  147.6403  135.6099  152.6822 H   0  0  0  0  0  0  0  0  0  0  0  0
  1  2  1  0  0  0  0
  1 25  1  0  0  0  0
  1 26  1  0  0  0  0
  1 27  1  0  0  0  0
  2 24  1  0  0  0  0
  2  3  1  0  0  0  0
  2 28  1  0  0  0  0
  3  4  1  0  0  0  0
  3 29  1  0  0  0  0
  3 30  1  0  0  0  0
  4  5  1  0  0  0  0
  4 31  1  0  0  0  0
  4 32  1  0  0  0  0
  5  6  1  0  0  0  0
  5 33  1  0  0  0  0
  5 34  1  0  0  0  0
  6  7  1  0  0  0  0
  6 24  1  0  0  0  0
  6 47  1  0  0  0  0
  7  8  1  0  0  0  0
  7 35  1  0  0  0  0
  7 36  1  0  0  0  0
  8  9  1  0  0  0  0
  8 37  1  0  0  0  0
  8 38  1  0  0  0  0
  9 10  1  0  0  0  0
  9 39  1  0  0  0  0
 10 11  2  0  0  0  0
 10 12  1  0  0  0  0
 12 13  1  0  0  0  0
 12 40  1  0  0  0  0
 12 41  1  0  0  0  0
 13 22  1  0  0  0  0
 13 14  1  0  0  0  0
 14 15  2  0  0  0  0
 14 42  1  0  0  0  0
 15 16  1  0  0  0  0
 15 20  1  0  0  0  0
 16 17  1  0  0  0  0
 16 18  1  0  0  0  0
 16 19  1  0  0  0  0
 20 21  2  0  0  0  0
 20 43  1  0  0  0  0
 21 22  1  0  0  0  0
 21 44  1  0  0  0  0
 22 23  2  0  0  0  0
 24 45  1  0  0  0  0
 24 46  1  0  0  0  0
M  CHG  1   6   1
M  END
> <s_m_source_file>
AV-unprocessed.smi

> <i_m_source_file_index>
1451

> <i_lp_mmshare_version>
43012

> <i_f3d_flags>
0

> <s_epik_input>
W0NIM11bQ0BASF0xW0NIMl1bQ0gyXVtDSDJdTihbQ0gyXTEpW0NIMl1bQ0gyXVtOSF1DKD1PKVtDSDJdbjJbY0hdYyhDKEYpKEYpRilbY0hdW2NIXWMyPU8=

> <s_epik_cmdline>
J2VwaWtfcHl0aG9uJywgJy1waCcsICc3LjAnLCAnLXRuJywgJzgnLCAnLW1hJywgJzIwMCcsICctbWV0YWxfYmluZGluZycsICctaW1hZScsICc8aW5maWxlLm1hZT4nLCAnLW9tYWUnLCAnPG91dGZpbGUubWFlPic=

> <r_lp_tautomer_probability>
1

> <r_epik_Ionization_Penalty>
0.00192452

> <r_epik_Ionization_Penalty_Charging>
0.00192444

> <r_epik_Ionization_Penalty_Neutral>
8.16761e-08

> <r_epik_State_Penalty>
0.00131115

> <r_epik_Charging_Adjusted_Penalty>
0.00323559

> <i_epik_Tot_Q>
1

> <i_epik_Tot_abs_Q>
1

> <r_epik_Metal_State_Penalty>
-0

> <b_epik_Metal_Only>
0

> <s_lp_Force_Field>
OPLS_2005

> <r_lp_Energy>
29.222

> <b_lp_Chiralities_Consistent>
1

> <s_lp_Variant>
AV-unprocessed.smi:1451-4

> <Gold.Version>
5.8.1

> <Gold.Id.Protein>
6NUR|6NUR_protein|mol2

> <Gold.PLP.Fitness>
48.9439

> <Gold.PLP.PLP>
-39.1227

> <Gold.PLP.part.hbond>
-4.0000

> <Gold.PLP.part.metal>
0.0000

> <Gold.PLP.part.buried>
-3.7221

> <Gold.PLP.part.nonpolar>
-31.5161

> <Gold.PLP.part.repulsive>
0.0000

> <Gold.PLP.ligand.clash>
2.2408

> <Gold.PLP.ligand.torsion>
1.0183

> <Gold.PLP.Chemscore.Hbond>
4.6800

> <Gold.PLP.Chemscore.CHOScore>
0.0000

> <Gold.PLP.Chemscore.Metal>
0.0000

> <Gold.Chemscore.Hbonds>
donor molecule, donor type, donor heavy atom, donor atom, acceptor molecule, acceptor atom, score
      L1  H     6    47       P1  7948  2.00
      P1  H  6896  6907       L1    11  0.91
      P1  H  6931  6943       L1    23  0.98
      P1  H  6934  6947       L1    23  0.69

> <Gold.PLP.Chemscore.Internal.Correction>
0.0586

> <Gold.Rescore>
     Score         DG    S(hbond)    S(metal)    S(lipo)     H(rot)  DE(clash)    DE(int)     intcor
     18.69     -20.64       3.64        0.00      71.03       2.08       0.00       1.94       ----

> <Gold.Chemscore.Fitness>
18.6948

> <Gold.Chemscore.DG>
-20.6368

> <Gold.Chemscore.ZeroCoef>
-5.4800

> <Gold.Chemscore.Hbond>
3.6411

> <Gold.Chemscore.Metal>
0.0000

> <Gold.Chemscore.Lipo>
71.0291

> <Gold.Chemscore.Internal_Hbond>
0.0000

> <Gold.Chemscore.DEClash>
0.0029

> <Gold.Chemscore.DEInternal>
1.9391

> <Gold.Chemscore.Rot>
2.0762

> <Gold.Chemscore.Internal.Correction>
   9.000000E+99

> <Gold.Chemscore.Hbonds>
donor molecule, donor type, donor heavy atom, donor atom, acceptor molecule, acceptor atom, score
      L1  H     6    47       P1  7948  1.00
      P1  H  6896  6907       L1    11  0.86
      P1  H  6931  6943       L1    23  0.92
      P1  H  6934  6947       L1    23  0.65

> <Gold.Chemscore.Hbond.Weighted>
-12.1614

> <Gold.Chemscore.Metal.Weighted>
-0.0000

> <Gold.Chemscore.Lipo.Weighted>
-8.3104

> <Gold.Chemscore.Internal_Hbond.Weighted>
0.0000

> <Gold.Chemscore.DEClash.Weighted>
0.0029

> <Gold.Chemscore.DEInternal.Weighted>
1.9391

> <Gold.Chemscore.Rot.Weighted>
5.3150

> <Gold.Chemscore.Internal.Correction.Weighted>
   9.000000E+99

> <Gold.Protein.RotatedTorsions>
[ 6907 6896 6895 6894 ] final  -91.44 input  -60.11 | X-H torsion
[ 7974 7965 7964 7962 ] final   15.86 input  175.53 | X-H torsion
[ 8008 7997 7996 7995 ] final -157.85 input   59.86 | X-H torsion
[ 10167 10162 10161 10158 ] final   86.75 input  -65.29 | X-H torsion
[ 10718 10713 10712 10709 ] final  145.28 input   66.30 | X-H torsion
[ 10763 10752 10751 10750 ] final   35.86 input  -60.55 | X-H torsion
[ 11005 11000 10999 10996 ] final -114.12 input  -57.11 | X-H torsion

> <Gold.Protein.ActiveResidues>
 VAL166  LYS551  ARG553  GLY616  TRP617  ASP618  TYR619  PRO620  LYS621  CYS622 
 ASP623  PHE694  ASN695  SER759  ASP760  ASP761  ALA762  ILE779  LEU786  VAL792 
 PHE793  MET794  SER795  GLU796  ALA797  LYS798  CYS799  TRP800  GLU811  SER814 

> <Gold.Protein.RotatedAtoms>
  150.6892  134.2277  159.4421 H   0  0  0  0  0  0  0  0  0  0  0  0  # atno 6907 bound_to 6896
  152.0230  134.9809  160.0580 H   0  0  0  0  0  0  0  0  0  0  0  0  # atno 6908 bound_to 6896
  152.1379  133.4411  159.4789 H   0  0  0  0  0  0  0  0  0  0  0  0  # atno 6909 bound_to 6896
  146.2266  139.8833  142.8567 H   0  0  0  0  0  0  0  0  0  0  0  0  # atno 7974 bound_to 7965
  155.7386  140.0811  157.2256 H   0  0  0  0  0  0  0  0  0  0  0  0  # atno 8008 bound_to 7997
  154.4024  140.1582  156.2645 H   0  0  0  0  0  0  0  0  0  0  0  0  # atno 8009 bound_to 7997
  155.9041  140.3408  155.6052 H   0  0  0  0  0  0  0  0  0  0  0  0  # atno 8010 bound_to 7997
  139.8843  144.6422  150.8808 H   0  0  0  0  0  0  0  0  0  0  0  0  # atno 10167 bound_to 10162
  157.3472  131.0945  151.1032 H   0  0  0  0  0  0  0  0  0  0  0  0  # atno 10718 bound_to 10713
  153.0101  135.6322  154.1893 H   0  0  0  0  0  0  0  0  0  0  0  0  # atno 10763 bound_to 10752
  154.1635  135.2822  155.3103 H   0  0  0  0  0  0  0  0  0  0  0  0  # atno 10764 bound_to 10752
  154.5963  135.5601  153.7389 H   0  0  0  0  0  0  0  0  0  0  0  0  # atno 10765 bound_to 10752
  141.0572  133.9593  157.2733 H   0  0  0  0  0  0  0  0  0  0  0  0  # atno 11005 bound_to 11000
  145.2491  141.0037  143.3891 LP  0  0  0  0  0  0  0  0  0  0  0  0  # atno 17320 bound_to 7965
  144.9389  139.4212  143.6458 LP  0  0  0  0  0  0  0  0  0  0  0  0  # atno 17321 bound_to 7965
  140.7739  143.3560  151.1920 LP  0  0  0  0  0  0  0  0  0  0  0  0  # atno 17342 bound_to 10162
  139.7167  143.9289  152.2969 LP  0  0  0  0  0  0  0  0  0  0  0  0  # atno 17343 bound_to 10162
  157.2221  130.6486  149.5815 LP  0  0  0  0  0  0  0  0  0  0  0  0  # atno 17370 bound_to 10713
  155.9716  130.4626  150.6150 LP  0  0  0  0  0  0  0  0  0  0  0  0  # atno 17371 bound_to 10713
  139.9400  135.0192  156.8679 LP  0  0  0  0  0  0  0  0  0  0  0  0  # atno 17394 bound_to 11000
  140.5941  134.0234  155.7511 LP  0  0  0  0  0  0  0  0  0  0  0  0  # atno 17395 bound_to 11000

$$$$
