AV-unprocessed.smi:2867|AV-procd|sdf|11025|dock3
  -GOLD-   2272015483D 1   1.00000     0.00000
 Structure written by MMmdl.
 39 41  0  0  0  0  0  0  0  0  2 V2000
  149.1680  140.7537  154.7925 C   0  0  0  0  0  0  0  0  0  0  0  0
  150.5200  140.8179  155.2114 O   0  0  0  0  0  0  0  0  0  0  0  0
  150.7335  141.8076  156.2022 C   0  0  0  0  0  0  0  0  0  0  0  0
  150.3698  141.2237  157.5722 C   0  0  0  0  0  0  0  0  0  0  0  0
  151.4969  140.5238  158.1664 N   0  0  0  0  0  0  0  0  0  0  0  0
  152.3523  140.9829  159.1147 C   0  0  0  0  0  0  0  0  0  0  0  0
  152.2786  142.3122  159.7030 C   0  0  0  0  0  0  0  0  0  0  0  0
  151.9080  143.4215  158.9138 C   0  0  0  0  0  0  0  0  0  0  0  0
  151.8370  144.7050  159.4897 C   0  0  0  0  0  0  0  0  0  0  0  0
  152.1395  144.8827  160.8539 C   0  0  0  0  0  0  0  0  0  0  0  0
  152.5155  143.7773  161.6422 C   0  0  0  0  0  0  0  0  0  0  0  0
  152.8066  143.9488  162.9533 F   0  0  0  0  0  0  0  0  0  0  0  0
  152.5875  142.4938  161.0670 C   0  0  0  0  0  0  0  0  0  0  0  0
  153.2861  140.1117  159.5019 N   0  0  0  0  0  0  0  0  0  0  0  0
  153.0114  138.9944  158.7379 C   0  0  0  0  0  0  0  0  0  0  0  0
  153.6471  137.7343  158.6915 C   0  0  0  0  0  0  0  0  0  0  0  0
  153.1664  136.7323  157.8218 C   0  0  0  0  0  0  0  0  0  0  0  0
  153.9823  135.1387  157.7813 S   0  0  0  0  0  0  0  0  0  0  0  0
  155.1797  135.5523  156.7829 N   0  5  0  0  0  0  0  0  0  0  0  0
  154.4480  134.8675  159.1502 O   0  0  0  0  0  0  0  0  0  0  0  0
  153.0306  134.1967  157.1717 O   0  0  0  0  0  0  0  0  0  0  0  0
  152.0532  136.9701  156.9873 C   0  0  0  0  0  0  0  0  0  0  0  0
  151.4104  138.2223  157.0202 C   0  0  0  0  0  0  0  0  0  0  0  0
  151.8917  139.2198  157.8897 C   0  0  0  0  0  0  0  0  0  0  0  0
  149.0577  139.9861  154.0267 H   0  0  0  0  0  0  0  0  0  0  0  0
  148.8401  141.7031  154.3674 H   0  0  0  0  0  0  0  0  0  0  0  0
  148.5103  140.4962  155.6239 H   0  0  0  0  0  0  0  0  0  0  0  0
  151.7772  142.1263  156.1923 H   0  0  0  0  0  0  0  0  0  0  0  0
  150.1182  142.6846  155.9934 H   0  0  0  0  0  0  0  0  0  0  0  0
  150.0560  142.0198  158.2481 H   0  0  0  0  0  0  0  0  0  0  0  0
  149.5234  140.5430  157.4863 H   0  0  0  0  0  0  0  0  0  0  0  0
  151.6761  143.2887  157.8669 H   0  0  0  0  0  0  0  0  0  0  0  0
  151.5508  145.5532  158.8854 H   0  0  0  0  0  0  0  0  0  0  0  0
  152.0842  145.8669  161.2951 H   0  0  0  0  0  0  0  0  0  0  0  0
  152.8754  141.6480  161.6744 H   0  0  0  0  0  0  0  0  0  0  0  0
  154.4967  137.5368  159.3283 H   0  0  0  0  0  0  0  0  0  0  0  0
  156.0297  135.0699  157.0975 H   0  0  0  0  0  0  0  0  0  0  0  0
  151.6895  136.1952  156.3287 H   0  0  0  0  0  0  0  0  0  0  0  0
  150.5559  138.4105  156.3876 H   0  0  0  0  0  0  0  0  0  0  0  0
  1  2  1  0  0  0  0
  1 25  1  0  0  0  0
  1 26  1  0  0  0  0
  1 27  1  0  0  0  0
  2  3  1  0  0  0  0
  3  4  1  0  0  0  0
  3 28  1  0  0  0  0
  3 29  1  0  0  0  0
  4  5  1  0  0  0  0
  4 30  1  0  0  0  0
  4 31  1  0  0  0  0
  5 24  1  0  0  0  0
  5  6  1  0  0  0  0
  6  7  1  0  0  0  0
  6 14  2  0  0  0  0
  7 13  1  0  0  0  0
  7  8  2  0  0  0  0
  8  9  1  0  0  0  0
  8 32  1  0  0  0  0
  9 10  2  0  0  0  0
  9 33  1  0  0  0  0
 10 11  1  0  0  0  0
 10 34  1  0  0  0  0
 11 12  1  0  0  0  0
 11 13  2  0  0  0  0
 13 35  1  0  0  0  0
 14 15  1  0  0  0  0
 15 24  2  0  0  0  0
 15 16  1  0  0  0  0
 16 17  2  0  0  0  0
 16 36  1  0  0  0  0
 17 18  1  0  0  0  0
 17 22  1  0  0  0  0
 18 19  1  0  0  0  0
 18 20  2  0  0  0  0
 18 21  2  0  0  0  0
 19 37  1  0  0  0  0
 22 23  2  0  0  0  0
 22 38  1  0  0  0  0
 23 24  1  0  0  0  0
 23 39  1  0  0  0  0
M  CHG  1  19  -1
M  END
> <s_m_source_file>
AV-unprocessed.smi

> <i_m_source_file_index>
2867

> <i_lp_mmshare_version>
43012

> <i_f3d_flags>
0

> <s_epik_input>
W05IMl1TKD1PKSg9TyljKFtjSF0xKVtjSF1bY0hdYyhjMTIpbihbQ0gyXVtDSDJdT1tDSDNdKWMobjIpLWMzW2NIXVtjSF1bY0hdYyhGKVtjSF0z

> <s_epik_cmdline>
J2VwaWtfcHl0aG9uJywgJy1waCcsICc3LjAnLCAnLXRuJywgJzgnLCAnLW1hJywgJzIwMCcsICctbWV0YWxfYmluZGluZycsICctaW1hZScsICc8aW5maWxlLm1hZT4nLCAnLW9tYWUnLCAnPG91dGZpbGUubWFlPic=

> <r_epik_Ionization_Penalty>
4.13732

> <r_epik_Ionization_Penalty_Charging>
3.73366

> <r_epik_Ionization_Penalty_Neutral>
0.403663

> <r_epik_State_Penalty>
3.79183

> <r_epik_Charging_Adjusted_Penalty>
7.52549

> <i_epik_Tot_Q>
-1

> <i_epik_Tot_abs_Q>
1

> <r_epik_Metal_State_Penalty>
0.634538

> <b_epik_Metal_Only>
1

> <s_lp_Force_Field>
OPLS_2005

> <r_lp_Energy>
13.7357

> <b_lp_Chiralities_Consistent>
1

> <s_lp_Variant>
AV-unprocessed.smi:2867-3

> <Gold.Version>
5.8.1

> <Gold.Id.Protein>
6NUR|6NUR_protein|mol2

> <Gold.PLP.Fitness>
55.8017

> <Gold.PLP.PLP>
-45.4995

> <Gold.PLP.part.hbond>
-4.6571

> <Gold.PLP.part.metal>
0.0000

> <Gold.PLP.part.buried>
-3.9272

> <Gold.PLP.part.nonpolar>
-36.6774

> <Gold.PLP.part.repulsive>
0.0748

> <Gold.PLP.ligand.clash>
0.0204

> <Gold.PLP.ligand.torsion>
2.1514

> <Gold.PLP.Chemscore.Hbond>
3.7820

> <Gold.PLP.Chemscore.CHOScore>
0.0000

> <Gold.PLP.Chemscore.Metal>
0.0000

> <Gold.Chemscore.Hbonds>
donor molecule, donor type, donor heavy atom, donor atom, acceptor molecule, acceptor atom, score
      P1  H  6896  6909       L1    20  0.72
      P1  H  7989  7998       L1     2  0.81
      P1  H 10752 10764       L1    19  2.00

> <Gold.PLP.Chemscore.Internal.Correction>
3.2793

> <Gold.Rescore>
     Score         DG    S(hbond)    S(metal)    S(lipo)     H(rot)  DE(clash)    DE(int)     intcor
     16.89     -20.25       1.59        0.00     112.20       1.43       0.22       3.14       ----

> <Gold.Chemscore.Fitness>
16.8929

> <Gold.Chemscore.DG>
-20.2484

> <Gold.Chemscore.ZeroCoef>
-5.4800

> <Gold.Chemscore.Hbond>
1.5878

> <Gold.Chemscore.Metal>
0.0000

> <Gold.Chemscore.Lipo>
112.2037

> <Gold.Chemscore.Internal_Hbond>
0.0000

> <Gold.Chemscore.DEClash>
0.2202

> <Gold.Chemscore.DEInternal>
3.1353

> <Gold.Chemscore.Rot>
1.4308

> <Gold.Chemscore.Internal.Correction>
   9.000000E+99

> <Gold.Chemscore.Hbonds>
donor molecule, donor type, donor heavy atom, donor atom, acceptor molecule, acceptor atom, score
      P1  H  6896  6909       L1    20  0.10
      P1  H  7989  7998       L1     2  0.40
      P1  H 10752 10764       L1    19  0.26

> <Gold.Chemscore.Hbond.Weighted>
-5.3033

> <Gold.Chemscore.Metal.Weighted>
-0.0000

> <Gold.Chemscore.Lipo.Weighted>
-13.1278

> <Gold.Chemscore.Internal_Hbond.Weighted>
0.0000

> <Gold.Chemscore.DEClash.Weighted>
0.2202

> <Gold.Chemscore.DEInternal.Weighted>
3.1353

> <Gold.Chemscore.Rot.Weighted>
3.6628

> <Gold.Chemscore.Internal.Correction.Weighted>
   9.000000E+99

> <Gold.Protein.RotatedTorsions>
[ 6907 6896 6895 6894 ] final -159.92 input  -60.11 | X-H torsion
[ 7974 7965 7964 7962 ] final -178.04 input  175.53 | X-H torsion
[ 8008 7997 7996 7995 ] final  117.83 input   59.86 | X-H torsion
[ 10167 10162 10161 10158 ] final  147.64 input  -65.29 | X-H torsion
[ 10718 10713 10712 10709 ] final -158.39 input   66.30 | X-H torsion
[ 10763 10752 10751 10750 ] final   49.44 input  -60.55 | X-H torsion
[ 11005 11000 10999 10996 ] final  -97.52 input  -57.11 | X-H torsion

> <Gold.Protein.ActiveResidues>
 VAL166  LYS551  ARG553  GLY616  TRP617  ASP618  TYR619  PRO620  LYS621  CYS622 
 ASP623  PHE694  ASN695  SER759  ASP760  ASP761  ALA762  ILE779  LEU786  VAL792 
 PHE793  MET794  SER795  GLU796  ALA797  LYS798  CYS799  TRP800  GLU811  SER814 

> <Gold.Protein.RotatedAtoms>
  151.3411  133.3962  159.2670 H   0  0  0  0  0  0  0  0  0  0  0  0  # atno 6907 bound_to 6896
  150.9877  134.9220  159.7892 H   0  0  0  0  0  0  0  0  0  0  0  0  # atno 6908 bound_to 6896
  152.5237  134.3375  159.9257 H   0  0  0  0  0  0  0  0  0  0  0  0  # atno 6909 bound_to 6896
  144.7129  140.0929  143.6420 H   0  0  0  0  0  0  0  0  0  0  0  0  # atno 7974 bound_to 7965
  156.2515  140.2888  156.0739 H   0  0  0  0  0  0  0  0  0  0  0  0  # atno 8008 bound_to 7997
  155.1640  140.0400  157.2866 H   0  0  0  0  0  0  0  0  0  0  0  0  # atno 8009 bound_to 7997
  154.6372  140.2513  155.7371 H   0  0  0  0  0  0  0  0  0  0  0  0  # atno 8010 bound_to 7997
  139.4887  144.5740  151.7001 H   0  0  0  0  0  0  0  0  0  0  0  0  # atno 10167 bound_to 10162
  156.5535  130.8616  151.2787 H   0  0  0  0  0  0  0  0  0  0  0  0  # atno 10718 bound_to 10713
  152.9787  135.5911  154.4090 H   0  0  0  0  0  0  0  0  0  0  0  0  # atno 10763 bound_to 10752
  154.3727  135.2767  155.2259 H   0  0  0  0  0  0  0  0  0  0  0  0  # atno 10764 bound_to 10752
  154.4207  135.6060  153.6063 H   0  0  0  0  0  0  0  0  0  0  0  0  # atno 10765 bound_to 10752
  141.1376  133.8177  157.0717 H   0  0  0  0  0  0  0  0  0  0  0  0  # atno 11005 bound_to 11000
  145.9604  139.2797  143.1159 LP  0  0  0  0  0  0  0  0  0  0  0  0  # atno 17320 bound_to 7965
  145.9226  140.9104  143.0397 LP  0  0  0  0  0  0  0  0  0  0  0  0  # atno 17321 bound_to 7965
  140.5333  144.0696  150.6061 LP  0  0  0  0  0  0  0  0  0  0  0  0  # atno 17342 bound_to 10162
  140.3694  143.2863  152.0295 LP  0  0  0  0  0  0  0  0  0  0  0  0  # atno 17343 bound_to 10162
  157.7383  130.9810  150.2243 LP  0  0  0  0  0  0  0  0  0  0  0  0  # atno 17370 bound_to 10713
  156.2863  130.3740  149.7885 LP  0  0  0  0  0  0  0  0  0  0  0  0  # atno 17371 bound_to 10713
  140.0507  134.9807  157.1131 LP  0  0  0  0  0  0  0  0  0  0  0  0  # atno 17394 bound_to 11000
  140.3994  134.2099  155.7164 LP  0  0  0  0  0  0  0  0  0  0  0  0  # atno 17395 bound_to 11000

$$$$
