AV-unprocessed.smi:1097|AV-procd|sdf|4751|dock3
  -GOLD-   22720 3283D 1   1.00000     0.00000
 Structure written by MMmdl.
 40 41  0  0  0  0  0  0  0  0  1 V2000
  148.8133  126.7107  150.7143 C   0  0  0  0  0  0  0  0  0  0  0  0
  147.9874  127.8542  150.8465 O   0  0  0  0  0  0  0  0  0  0  0  0
  147.3744  127.9359  152.1222 C   0  0  0  0  0  0  0  0  0  0  0  0
  146.1112  128.7943  152.0155 C   0  0  0  0  0  0  0  0  0  0  0  0
  146.4513  130.1414  152.3282 O   0  0  0  0  0  0  0  0  0  0  0  0
  145.6368  131.1611  151.8717 C   0  0  0  0  0  0  0  0  0  0  0  0
  144.6617  130.8447  150.9816 N   0  0  0  0  0  0  0  0  0  0  0  0
  143.8494  131.8231  150.5334 C   0  0  0  0  0  0  0  0  0  0  0  0
  143.9621  133.1636  150.9429 C   0  0  0  0  0  0  0  0  0  0  0  0
  144.9711  133.4968  151.8648 C   0  0  0  0  0  0  0  0  0  0  0  0
  145.8281  132.4831  152.3523 C   0  0  0  0  0  0  0  0  0  0  0  0
  146.9290  132.8187  153.3202 C   0  0  0  0  0  0  0  0  0  0  0  0
  146.7718  133.6641  154.2014 O   0  0  0  0  0  0  0  0  0  0  0  0
  148.0834  132.1615  153.1238 N   0  0  0  0  0  0  0  0  0  0  0  0
  149.2923  132.3376  153.9233 C   0  0  2  0  0  0  0  0  0  0  0  0
  149.1166  131.7869  155.3472 C   0  0  0  0  0  0  0  0  0  0  0  0
  149.6562  132.8986  156.2311 C   0  0  0  0  0  0  0  0  0  0  0  0
  149.7848  132.7810  157.4487 O   0  0  0  0  0  0  0  0  0  0  0  0
  149.9605  133.9805  155.5082 N   0  0  0  0  0  0  0  0  0  0  0  0
  150.4959  135.2303  156.0300 C   0  0  0  0  0  0  0  0  0  0  0  0
  149.6541  133.8266  154.0972 C   0  0  0  0  0  0  0  0  0  0  0  0
  149.2519  126.6891  149.7168 H   0  0  0  0  0  0  0  0  0  0  0  0
  148.2399  125.7926  150.8490 H   0  0  0  0  0  0  0  0  0  0  0  0
  149.6274  126.7254  151.4402 H   0  0  0  0  0  0  0  0  0  0  0  0
  147.1155  126.9369  152.4765 H   0  0  0  0  0  0  0  0  0  0  0  0
  148.0647  128.3743  152.8446 H   0  0  0  0  0  0  0  0  0  0  0  0
  145.7044  128.7275  151.0051 H   0  0  0  0  0  0  0  0  0  0  0  0
  145.3566  128.4228  152.7111 H   0  0  0  0  0  0  0  0  0  0  0  0
  143.0876  131.5288  149.8268 H   0  0  0  0  0  0  0  0  0  0  0  0
  143.2935  133.9184  150.5561 H   0  0  0  0  0  0  0  0  0  0  0  0
  145.0819  134.5227  152.1847 H   0  0  0  0  0  0  0  0  0  0  0  0
  148.1293  131.4971  152.3649 H   0  0  0  0  0  0  0  0  0  0  0  0
  150.1248  131.8134  153.4497 H   0  0  0  0  0  0  0  0  0  0  0  0
  148.0701  131.6082  155.5987 H   0  0  0  0  0  0  0  0  0  0  0  0
  149.6723  130.8607  155.4983 H   0  0  0  0  0  0  0  0  0  0  0  0
  151.4255  135.0526  156.5723 H   0  0  0  0  0  0  0  0  0  0  0  0
  149.7830  135.6952  156.7119 H   0  0  0  0  0  0  0  0  0  0  0  0
  150.7040  135.9357  155.2246 H   0  0  0  0  0  0  0  0  0  0  0  0
  150.5058  134.1058  153.4755 H   0  0  0  0  0  0  0  0  0  0  0  0
  148.8206  134.4845  153.8451 H   0  0  0  0  0  0  0  0  0  0  0  0
  1  2  1  0  0  0  0
  1 22  1  0  0  0  0
  1 23  1  0  0  0  0
  1 24  1  0  0  0  0
  2  3  1  0  0  0  0
  3  4  1  0  0  0  0
  3 25  1  0  0  0  0
  3 26  1  0  0  0  0
  4  5  1  0  0  0  0
  4 27  1  0  0  0  0
  4 28  1  0  0  0  0
  5  6  1  0  0  0  0
  6 11  1  0  0  0  0
  6  7  2  0  0  0  0
  7  8  1  0  0  0  0
  8  9  2  0  0  0  0
  8 29  1  0  0  0  0
  9 10  1  0  0  0  0
  9 30  1  0  0  0  0
 10 11  2  0  0  0  0
 10 31  1  0  0  0  0
 11 12  1  0  0  0  0
 12 13  2  0  0  0  0
 12 14  1  0  0  0  0
 14 15  1  0  0  0  0
 14 32  1  0  0  0  0
 15 21  1  0  0  0  0
 15 16  1  0  0  0  0
 15 33  1  0  0  0  0
 16 17  1  0  0  0  0
 16 34  1  0  0  0  0
 16 35  1  0  0  0  0
 17 18  2  0  0  0  0
 17 19  1  0  0  0  0
 19 20  1  0  0  0  0
 19 21  1  0  0  0  0
 20 36  1  0  0  0  0
 20 37  1  0  0  0  0
 20 38  1  0  0  0  0
 21 39  1  0  0  0  0
 21 40  1  0  0  0  0
M  END
> <s_m_source_file>
AV-unprocessed.smi

> <i_m_source_file_index>
1097

> <i_lp_mmshare_version>
43012

> <i_f3d_flags>
0

> <s_epik_input>
W0NIM11PW0NIMl1bQ0gyXU9jMW5bY0hdW2NIXVtjSF1jMUMoPU8pW05IXVtDQEBIXTJbQ0gyXUMoPU8pTihbQ0gzXSlbQ0gyXTI=

> <s_epik_cmdline>
J2VwaWtfcHl0aG9uJywgJy1waCcsICc3LjAnLCAnLXRuJywgJzgnLCAnLW1hJywgJzIwMCcsICctbWV0YWxfYmluZGluZycsICctaW1hZScsICc8aW5maWxlLm1hZT4nLCAnLW9tYWUnLCAnPG91dGZpbGUubWFlPic=

> <r_lp_tautomer_probability>
1

> <r_epik_Ionization_Penalty>
2.30122e-06

> <r_epik_Ionization_Penalty_Charging>
0

> <r_epik_Ionization_Penalty_Neutral>
2.30122e-06

> <r_epik_State_Penalty>
-0

> <r_epik_Charging_Adjusted_Penalty>
0

> <i_epik_Tot_Q>
0

> <i_epik_Tot_abs_Q>
0

> <r_epik_Metal_State_Penalty>
-0

> <b_epik_Metal_Only>
0

> <s_lp_Force_Field>
OPLS_2005

> <r_lp_Energy>
19.8502

> <b_lp_Chiralities_Consistent>
1

> <s_lp_Variant>
AV-unprocessed.smi:1097-1

> <Gold.Version>
5.8.1

> <Gold.Id.Protein>
6NUR|6NUR_protein|mol2

> <Gold.PLP.Fitness>
40.1735

> <Gold.PLP.PLP>
-36.8911

> <Gold.PLP.part.hbond>
-1.0499

> <Gold.PLP.part.metal>
0.0000

> <Gold.PLP.part.buried>
-6.5222

> <Gold.PLP.part.nonpolar>
-29.2241

> <Gold.PLP.part.repulsive>
0.8059

> <Gold.PLP.ligand.clash>
0.0000

> <Gold.PLP.ligand.torsion>
1.1880

> <Gold.PLP.Chemscore.Hbond>
0.8613

> <Gold.PLP.Chemscore.CHOScore>
0.9809

> <Gold.PLP.Chemscore.Metal>
0.0000

> <Gold.Chemscore.Hbonds>
donor molecule, donor type, donor heavy atom, donor atom, acceptor molecule, acceptor atom, score
      L1  H    14    32       P1 10747  0.24
      P1  H  6896  6907       L1    18  0.37
      L1  C     8    29       P1 10952  0.90

> <Gold.PLP.Chemscore.Internal.Correction>
0.1319

> <Gold.Rescore>
     Score         DG    S(hbond)    S(metal)    S(lipo)     H(rot)  DE(clash)    DE(int)     intcor
     10.21     -12.91       1.05        0.00      76.04       1.95       0.29       2.41       ----

> <Gold.Chemscore.Fitness>
10.2087

> <Gold.Chemscore.DG>
-12.9126

> <Gold.Chemscore.ZeroCoef>
-5.4800

> <Gold.Chemscore.Hbond>
1.0537

> <Gold.Chemscore.Metal>
0.0000

> <Gold.Chemscore.Lipo>
76.0431

> <Gold.Chemscore.Internal_Hbond>
0.0000

> <Gold.Chemscore.DEClash>
0.2938

> <Gold.Chemscore.DEInternal>
2.4101

> <Gold.Chemscore.Rot>
1.9468

> <Gold.Chemscore.Internal.Correction>
   9.000000E+99

> <Gold.Chemscore.Hbonds>
donor molecule, donor type, donor heavy atom, donor atom, acceptor molecule, acceptor atom, score
      L1  H    14    32       P1 10747  0.24
      P1  H  6896  6907       L1    18  0.37

> <Gold.Chemscore.Hbond.Weighted>
-3.5194

> <Gold.Chemscore.Metal.Weighted>
-0.0000

> <Gold.Chemscore.Lipo.Weighted>
-8.8970

> <Gold.Chemscore.Internal_Hbond.Weighted>
0.0000

> <Gold.Chemscore.DEClash.Weighted>
0.2938

> <Gold.Chemscore.DEInternal.Weighted>
2.4101

> <Gold.Chemscore.Rot.Weighted>
4.9839

> <Gold.Chemscore.Internal.Correction.Weighted>
   9.000000E+99

> <Gold.Protein.RotatedTorsions>
[ 6907 6896 6895 6894 ] final -140.07 input  -60.11 | X-H torsion
[ 7974 7965 7964 7962 ] final -104.49 input  175.53 | X-H torsion
[ 8008 7997 7996 7995 ] final   29.53 input   59.86 | X-H torsion
[ 10167 10162 10161 10158 ] final -110.64 input  -65.29 | X-H torsion
[ 10718 10713 10712 10709 ] final   95.05 input   66.30 | X-H torsion
[ 10763 10752 10751 10750 ] final   89.01 input  -60.55 | X-H torsion
[ 11005 11000 10999 10996 ] final   -4.33 input  -57.11 | X-H torsion

> <Gold.Protein.ActiveResidues>
 VAL166  LYS551  ARG553  GLY616  TRP617  ASP618  TYR619  PRO620  LYS621  CYS622 
 ASP623  PHE694  ASN695  SER759  ASP760  ASP761  ALA762  ILE779  LEU786  VAL792 
 PHE793  MET794  SER795  GLU796  ALA797  LYS798  CYS799  TRP800  GLU811  SER814 

> <Gold.Protein.RotatedAtoms>
  151.0559  133.5585  159.2638 H   0  0  0  0  0  0  0  0  0  0  0  0  # atno 6907 bound_to 6896
  151.2578  135.0643  159.9096 H   0  0  0  0  0  0  0  0  0  0  0  0  # atno 6908 bound_to 6896
  152.5390  134.0309  159.8078 H   0  0  0  0  0  0  0  0  0  0  0  0  # atno 6909 bound_to 6896
  145.2424  140.9210  143.3142 H   0  0  0  0  0  0  0  0  0  0  0  0  # atno 7974 bound_to 7965
  155.0760  140.3205  155.4616 H   0  0  0  0  0  0  0  0  0  0  0  0  # atno 8008 bound_to 7997
  156.2779  140.2103  156.5833 H   0  0  0  0  0  0  0  0  0  0  0  0  # atno 8009 bound_to 7997
  154.7016  140.0506  157.0451 H   0  0  0  0  0  0  0  0  0  0  0  0  # atno 8010 bound_to 7997
  140.1423  143.4269  152.1553 H   0  0  0  0  0  0  0  0  0  0  0  0  # atno 10167 bound_to 10162
  157.6942  131.0532  150.4279 H   0  0  0  0  0  0  0  0  0  0  0  0  # atno 10718 bound_to 10713
  153.1827  135.4486  155.0049 H   0  0  0  0  0  0  0  0  0  0  0  0  # atno 10763 bound_to 10752
  154.8040  135.3267  154.7480 H   0  0  0  0  0  0  0  0  0  0  0  0  # atno 10764 bound_to 10752
  153.7942  135.6968  153.4921 H   0  0  0  0  0  0  0  0  0  0  0  0  # atno 10765 bound_to 10752
  140.6791  133.9169  155.8543 H   0  0  0  0  0  0  0  0  0  0  0  0  # atno 11005 bound_to 11000
  144.9577  139.4014  143.6371 LP  0  0  0  0  0  0  0  0  0  0  0  0  # atno 17320 bound_to 7965
  146.3325  139.8615  142.8855 LP  0  0  0  0  0  0  0  0  0  0  0  0  # atno 17321 bound_to 7965
  139.5466  144.7303  151.4564 LP  0  0  0  0  0  0  0  0  0  0  0  0  # atno 17342 bound_to 10162
  140.6753  143.8203  150.7050 LP  0  0  0  0  0  0  0  0  0  0  0  0  # atno 17343 bound_to 10162
  156.4648  130.4040  149.6554 LP  0  0  0  0  0  0  0  0  0  0  0  0  # atno 17370 bound_to 10713
  156.3656  130.7504  151.2481 LP  0  0  0  0  0  0  0  0  0  0  0  0  # atno 17371 bound_to 10713
  141.0332  134.0727  157.3990 LP  0  0  0  0  0  0  0  0  0  0  0  0  # atno 17394 bound_to 11000
  139.8957  135.0142  156.7016 LP  0  0  0  0  0  0  0  0  0  0  0  0  # atno 17395 bound_to 11000

$$$$
