AV-unprocessed.smi:1957|AV-procd|sdf|7905|dock8
  -GOLD-   2272010 63D 1   1.00000     0.00000
 Structure written by MMmdl.
 42 43  0  0  0  0  0  0  0  0  1 V2000
  151.8847  144.7127  158.6691 C   0  0  0  0  0  0  0  0  0  0  0  0
  152.7458  143.5908  158.7534 O   0  0  0  0  0  0  0  0  0  0  0  0
  152.5661  142.8588  159.9539 C   0  0  0  0  0  0  0  0  0  0  0  0
  153.6664  141.7915  160.0534 C   0  0  0  0  0  0  0  0  0  0  0  0
  153.1249  140.4416  159.8681 N   0  0  0  0  0  0  0  0  0  0  0  0
  152.0255  140.3849  159.0277 N   0  0  0  0  0  0  0  0  0  0  0  0
  151.4601  139.2493  158.7724 C   0  0  0  0  0  0  0  0  0  0  0  0
  150.2794  139.1451  157.8712 C   0  0  0  0  0  0  0  0  0  0  0  0
  149.4850  138.2061  157.9445 O   0  0  0  0  0  0  0  0  0  0  0  0
  150.1510  140.1408  156.9744 N   0  0  0  0  0  0  0  0  0  0  0  0
  149.1097  140.2365  155.9491 C   0  0  1  0  0  0  0  0  0  0  0  0
  148.5668  141.6837  155.9699 C   0  0  0  0  0  0  0  0  0  0  0  0
  147.1588  141.8264  155.3658 C   0  0  0  0  0  0  0  0  0  0  0  0
  147.0623  141.5196  153.8635 C   0  0  0  0  0  0  0  0  0  0  0  0
  147.4251  140.0685  153.5039 C   0  0  0  0  0  0  0  0  0  0  0  0
  148.8653  139.8483  153.5008 N   0  0  0  0  0  0  0  0  0  0  0  0
  149.6968  139.9351  154.5499 C   0  0  0  0  0  0  0  0  0  0  0  0
  150.9086  139.7814  154.3957 O   0  0  0  0  0  0  0  0  0  0  0  0
  151.9630  138.0189  159.3598 C   0  0  0  0  0  0  0  0  0  0  0  0
  153.0378  138.0898  160.1753 C   0  0  0  0  0  0  0  0  0  0  0  0
  153.6986  139.3605  160.4774 C   0  0  0  0  0  0  0  0  0  0  0  0
  154.6833  139.4495  161.2100 O   0  0  0  0  0  0  0  0  0  0  0  0
  152.0553  145.2355  157.7282 H   0  0  0  0  0  0  0  0  0  0  0  0
  152.0714  145.4143  159.4831 H   0  0  0  0  0  0  0  0  0  0  0  0
  150.8371  144.4100  158.7007 H   0  0  0  0  0  0  0  0  0  0  0  0
  152.6171  143.5307  160.8124 H   0  0  0  0  0  0  0  0  0  0  0  0
  151.5799  142.3921  159.9589 H   0  0  0  0  0  0  0  0  0  0  0  0
  154.4502  141.9916  159.3207 H   0  0  0  0  0  0  0  0  0  0  0  0
  154.1543  141.8656  161.0271 H   0  0  0  0  0  0  0  0  0  0  0  0
  150.8496  140.8701  156.9799 H   0  0  0  0  0  0  0  0  0  0  0  0
  148.3100  139.5310  156.1823 H   0  0  0  0  0  0  0  0  0  0  0  0
  148.5039  142.0238  157.0050 H   0  0  0  0  0  0  0  0  0  0  0  0
  149.2602  142.3701  155.4805 H   0  0  0  0  0  0  0  0  0  0  0  0
  146.4653  141.1846  155.9108 H   0  0  0  0  0  0  0  0  0  0  0  0
  146.8111  142.8463  155.5334 H   0  0  0  0  0  0  0  0  0  0  0  0
  146.0361  141.7065  153.5456 H   0  0  0  0  0  0  0  0  0  0  0  0
  147.6816  142.2152  153.2955 H   0  0  0  0  0  0  0  0  0  0  0  0
  146.9296  139.3591  154.1684 H   0  0  0  0  0  0  0  0  0  0  0  0
  147.0661  139.8485  152.4982 H   0  0  0  0  0  0  0  0  0  0  0  0
  149.2812  139.6396  152.6046 H   0  0  0  0  0  0  0  0  0  0  0  0
  151.4954  137.0669  159.1542 H   0  0  0  0  0  0  0  0  0  0  0  0
  153.4228  137.1828  160.6179 H   0  0  0  0  0  0  0  0  0  0  0  0
  1  2  1  0  0  0  0
  1 23  1  0  0  0  0
  1 24  1  0  0  0  0
  1 25  1  0  0  0  0
  2  3  1  0  0  0  0
  3  4  1  0  0  0  0
  3 26  1  0  0  0  0
  3 27  1  0  0  0  0
  4  5  1  0  0  0  0
  4 28  1  0  0  0  0
  4 29  1  0  0  0  0
  5 21  1  0  0  0  0
  5  6  1  0  0  0  0
  6  7  2  0  0  0  0
  7  8  1  0  0  0  0
  7 19  1  0  0  0  0
  8  9  2  0  0  0  0
  8 10  1  0  0  0  0
 10 11  1  0  0  0  0
 10 30  1  0  0  0  0
 11 17  1  0  0  0  0
 11 12  1  0  0  0  0
 11 31  1  0  0  0  0
 12 13  1  0  0  0  0
 12 32  1  0  0  0  0
 12 33  1  0  0  0  0
 13 14  1  0  0  0  0
 13 34  1  0  0  0  0
 13 35  1  0  0  0  0
 14 15  1  0  0  0  0
 14 36  1  0  0  0  0
 14 37  1  0  0  0  0
 15 16  1  0  0  0  0
 15 38  1  0  0  0  0
 15 39  1  0  0  0  0
 16 17  1  0  0  0  0
 16 40  1  0  0  0  0
 17 18  2  0  0  0  0
 19 20  2  0  0  0  0
 19 41  1  0  0  0  0
 20 21  1  0  0  0  0
 20 42  1  0  0  0  0
 21 22  2  0  0  0  0
M  END
> <s_m_source_file>
AV-unprocessed.smi

> <i_m_source_file_index>
1957

> <i_lp_mmshare_version>
43012

> <i_f3d_flags>
0

> <s_epik_input>
W0NIM11PW0NIMl1bQ0gyXW4xbmMoW2NIXVtjSF1jMT1PKUMoPU8pW05IXVtDQEBIXTJbQ0gyXVtDSDJdW0NIMl1bQ0gyXVtOSF1DMj1P

> <s_epik_cmdline>
J2VwaWtfcHl0aG9uJywgJy1waCcsICc3LjAnLCAnLXRuJywgJzgnLCAnLW1hJywgJzIwMCcsICctbWV0YWxfYmluZGluZycsICctaW1hZScsICc8aW5maWxlLm1hZT4nLCAnLW9tYWUnLCAnPG91dGZpbGUubWFlPic=

> <r_lp_tautomer_probability>
1

> <r_epik_Ionization_Penalty>
2.17512e-06

> <r_epik_Ionization_Penalty_Charging>
5.0222e-09

> <r_epik_Ionization_Penalty_Neutral>
2.1701e-06

> <r_epik_State_Penalty>
-0

> <r_epik_Charging_Adjusted_Penalty>
5.0222e-09

> <i_epik_Tot_Q>
0

> <i_epik_Tot_abs_Q>
0

> <r_epik_Metal_State_Penalty>
-0

> <b_epik_Metal_Only>
0

> <s_lp_Force_Field>
OPLS_2005

> <r_lp_Energy>
29.6922

> <b_lp_Chiralities_Consistent>
1

> <s_lp_Variant>
AV-unprocessed.smi:1957-2

> <Gold.Version>
5.8.1

> <Gold.Id.Protein>
6NUR|6NUR_protein|mol2

> <Gold.PLP.Fitness>
41.5287

> <Gold.PLP.PLP>
-37.8216

> <Gold.PLP.part.hbond>
-1.8262

> <Gold.PLP.part.metal>
0.0000

> <Gold.PLP.part.buried>
-5.5410

> <Gold.PLP.part.nonpolar>
-30.4393

> <Gold.PLP.part.repulsive>
0.2729

> <Gold.PLP.ligand.clash>
0.0000

> <Gold.PLP.ligand.torsion>
1.1520

> <Gold.PLP.Chemscore.Hbond>
2.0000

> <Gold.PLP.Chemscore.CHOScore>
0.0000

> <Gold.PLP.Chemscore.Metal>
0.0000

> <Gold.Chemscore.Hbonds>
donor molecule, donor type, donor heavy atom, donor atom, acceptor molecule, acceptor atom, score
      L1  H    16    40       P1  7957  1.00
      P1  H  7989  7998       L1    18  1.00

> <Gold.PLP.Chemscore.Internal.Correction>
0.0113

> <Gold.Rescore>
     Score         DG    S(hbond)    S(metal)    S(lipo)     H(rot)  DE(clash)    DE(int)     intcor
     14.94     -16.05       1.98        0.00      72.86       1.78       0.00       1.11       ----

> <Gold.Chemscore.Fitness>
14.9394

> <Gold.Chemscore.DG>
-16.0538

> <Gold.Chemscore.ZeroCoef>
-5.4800

> <Gold.Chemscore.Hbond>
1.9773

> <Gold.Chemscore.Metal>
0.0000

> <Gold.Chemscore.Lipo>
72.8560

> <Gold.Chemscore.Internal_Hbond>
0.0000

> <Gold.Chemscore.DEClash>
0.0033

> <Gold.Chemscore.DEInternal>
1.1111

> <Gold.Chemscore.Rot>
1.7791

> <Gold.Chemscore.Internal.Correction>
   9.000000E+99

> <Gold.Chemscore.Hbonds>
donor molecule, donor type, donor heavy atom, donor atom, acceptor molecule, acceptor atom, score
      L1  H    16    40       P1  7957  0.89
      P1  H  7989  7998       L1    18  0.91

> <Gold.Chemscore.Hbond.Weighted>
-6.6041

> <Gold.Chemscore.Metal.Weighted>
-0.0000

> <Gold.Chemscore.Lipo.Weighted>
-8.5242

> <Gold.Chemscore.Internal_Hbond.Weighted>
0.0000

> <Gold.Chemscore.DEClash.Weighted>
0.0033

> <Gold.Chemscore.DEInternal.Weighted>
1.1111

> <Gold.Chemscore.Rot.Weighted>
4.5544

> <Gold.Chemscore.Internal.Correction.Weighted>
   9.000000E+99

> <Gold.Protein.RotatedTorsions>
[ 6907 6896 6895 6894 ] final   32.45 input  -60.11 | X-H torsion
[ 7974 7965 7964 7962 ] final  172.44 input  175.53 | X-H torsion
[ 8008 7997 7996 7995 ] final   87.90 input   59.86 | X-H torsion
[ 10167 10162 10161 10158 ] final   40.69 input  -65.29 | X-H torsion
[ 10718 10713 10712 10709 ] final  127.79 input   66.30 | X-H torsion
[ 10763 10752 10751 10750 ] final  -52.52 input  -60.55 | X-H torsion
[ 11005 11000 10999 10996 ] final -157.63 input  -57.11 | X-H torsion

> <Gold.Protein.ActiveResidues>
 VAL166  LYS551  ARG553  GLY616  TRP617  ASP618  TYR619  PRO620  LYS621  CYS622 
 ASP623  PHE694  ASN695  SER759  ASP760  ASP761  ALA762  ILE779  LEU786  VAL792 
 PHE793  MET794  SER795  GLU796  ALA797  LYS798  CYS799  TRP800  GLU811  SER814 

> <Gold.Protein.RotatedAtoms>
  152.0746  134.9511  160.0573 H   0  0  0  0  0  0  0  0  0  0  0  0  # atno 6907 bound_to 6896
  152.0824  133.4154  159.4515 H   0  0  0  0  0  0  0  0  0  0  0  0  # atno 6908 bound_to 6896
  150.6836  134.2887  159.4701 H   0  0  0  0  0  0  0  0  0  0  0  0  # atno 6909 bound_to 6896
  144.7268  139.9498  143.6431 H   0  0  0  0  0  0  0  0  0  0  0  0  # atno 7974 bound_to 7965
  155.9812  140.3377  155.6664 H   0  0  0  0  0  0  0  0  0  0  0  0  # atno 8008 bound_to 7997
  155.6546  140.0709  157.2593 H   0  0  0  0  0  0  0  0  0  0  0  0  # atno 8009 bound_to 7997
  154.4192  140.1719  156.1699 H   0  0  0  0  0  0  0  0  0  0  0  0  # atno 8010 bound_to 7997
  140.3717  144.2096  150.6133 H   0  0  0  0  0  0  0  0  0  0  0  0  # atno 10167 bound_to 10162
  157.5302  131.1098  150.9021 H   0  0  0  0  0  0  0  0  0  0  0  0  # atno 10718 bound_to 10713
  154.1441  135.6500  153.4948 H   0  0  0  0  0  0  0  0  0  0  0  0  # atno 10763 bound_to 10752
  153.0157  135.5322  154.6875 H   0  0  0  0  0  0  0  0  0  0  0  0  # atno 10764 bound_to 10752
  154.6145  135.2957  155.0367 H   0  0  0  0  0  0  0  0  0  0  0  0  # atno 10765 bound_to 10752
  140.6625  134.4334  157.5234 H   0  0  0  0  0  0  0  0  0  0  0  0  # atno 11005 bound_to 11000
  146.0720  139.3708  143.0517 LP  0  0  0  0  0  0  0  0  0  0  0  0  # atno 17320 bound_to 7965
  145.7955  140.9795  143.1026 LP  0  0  0  0  0  0  0  0  0  0  0  0  # atno 17321 bound_to 7965
  140.5026  143.2313  151.8655 LP  0  0  0  0  0  0  0  0  0  0  0  0  # atno 17342 bound_to 10162
  139.4803  144.5042  151.9020 LP  0  0  0  0  0  0  0  0  0  0  0  0  # atno 17343 bound_to 10162
  156.9605  130.5453  149.5286 LP  0  0  0  0  0  0  0  0  0  0  0  0  # atno 17370 bound_to 10713
  156.0417  130.5498  150.8785 LP  0  0  0  0  0  0  0  0  0  0  0  0  # atno 17371 bound_to 10713
  139.9008  134.8560  156.1904 LP  0  0  0  0  0  0  0  0  0  0  0  0  # atno 17394 bound_to 11000
  141.0454  133.6916  156.1674 LP  0  0  0  0  0  0  0  0  0  0  0  0  # atno 17395 bound_to 11000

$$$$
