AV-unprocessed.smi:1536|AV-procd|sdf|6186|dock7
  -GOLD-   22720 6353D 1   1.00000     0.00000
 Structure written by MMmdl.
 48 49  0  0  0  0  0  0  0  0  2 V2000
  145.3594  132.6259  150.0340 C   0  0  0  0  0  0  0  0  0  0  0  0
  145.2656  133.6055  151.2121 C   0  0  2  0  0  0  0  0  0  0  0  0
  145.0487  135.0512  150.7342 C   0  0  0  0  0  0  0  0  0  0  0  0
  144.9819  136.0222  151.9234 C   0  0  0  0  0  0  0  0  0  0  0  0
  146.2211  135.9388  152.7463 N   0  3  1  0  0  0  0  0  0  0  0  0
  146.3927  136.9945  153.7945 C   0  0  2  0  0  0  0  0  0  0  0  0
  145.5144  136.7712  155.0566 C   0  0  0  0  0  0  0  0  0  0  0  0
  146.2844  136.1894  156.1512 N   0  0  0  0  0  0  0  0  0  0  0  0
  147.0656  136.8665  157.0079 C   0  0  0  0  0  0  0  0  0  0  0  0
  147.1356  138.0942  157.0466 O   0  0  0  0  0  0  0  0  0  0  0  0
  147.9405  136.0221  157.9327 C   0  0  0  0  0  0  0  0  0  0  0  0
  147.8558  136.5223  159.2918 N   0  0  0  0  0  0  0  0  0  0  0  0
  148.6549  136.3391  160.3447 C   0  0  0  0  0  0  0  0  0  0  0  0
  148.1851  136.9437  161.4252 N   0  0  0  0  0  0  0  0  0  0  0  0
  147.0163  137.5331  160.9737 N   0  0  0  0  0  0  0  0  0  0  0  0
  146.8151  137.2863  159.7088 N   0  0  0  0  0  0  0  0  0  0  0  0
  146.3089  138.4209  153.1754 C   0  0  0  0  0  0  0  0  0  0  0  0
  146.6705  138.4945  151.6821 C   0  0  0  0  0  0  0  0  0  0  0  0
  147.1222  139.4452  153.9853 C   0  0  0  0  0  0  0  0  0  0  0  0
  146.4368  134.5599  153.2590 C   0  0  0  0  0  0  0  0  0  0  0  0
  146.5180  133.5476  152.1032 C   0  0  0  0  0  0  0  0  0  0  0  0
  146.2034  132.8631  149.3857 H   0  0  0  0  0  0  0  0  0  0  0  0
  144.4546  132.6552  149.4262 H   0  0  0  0  0  0  0  0  0  0  0  0
  145.4865  131.6012  150.3843 H   0  0  0  0  0  0  0  0  0  0  0  0
  144.4054  133.3144  151.8170 H   0  0  0  0  0  0  0  0  0  0  0  0
  145.8569  135.3491  150.0644 H   0  0  0  0  0  0  0  0  0  0  0  0
  144.1269  135.1181  150.1552 H   0  0  0  0  0  0  0  0  0  0  0  0
  144.8356  137.0336  151.5479 H   0  0  0  0  0  0  0  0  0  0  0  0
  144.1105  135.7826  152.5343 H   0  0  0  0  0  0  0  0  0  0  0  0
  147.4196  136.9198  154.1560 H   0  0  0  0  0  0  0  0  0  0  0  0
  145.0368  137.6964  155.3800 H   0  0  0  0  0  0  0  0  0  0  0  0
  144.7062  136.0770  154.8239 H   0  0  0  0  0  0  0  0  0  0  0  0
  146.2927  135.1809  156.2110 H   0  0  0  0  0  0  0  0  0  0  0  0
  147.6114  134.9823  157.9179 H   0  0  0  0  0  0  0  0  0  0  0  0
  148.9792  136.0410  157.5994 H   0  0  0  0  0  0  0  0  0  0  0  0
  149.5647  135.7575  160.3228 H   0  0  0  0  0  0  0  0  0  0  0  0
  145.2740  138.7531  153.2559 H   0  0  0  0  0  0  0  0  0  0  0  0
  147.7305  138.3044  151.5146 H   0  0  0  0  0  0  0  0  0  0  0  0
  146.4555  139.4861  151.2829 H   0  0  0  0  0  0  0  0  0  0  0  0
  146.0994  137.7796  151.0907 H   0  0  0  0  0  0  0  0  0  0  0  0
  148.1912  139.2350  153.9452 H   0  0  0  0  0  0  0  0  0  0  0  0
  146.8213  139.4486  155.0334 H   0  0  0  0  0  0  0  0  0  0  0  0
  146.9713  140.4546  153.6015 H   0  0  0  0  0  0  0  0  0  0  0  0
  147.3676  134.5128  153.8254 H   0  0  0  0  0  0  0  0  0  0  0  0
  145.6312  134.2938  153.9450 H   0  0  0  0  0  0  0  0  0  0  0  0
  146.6444  132.5418  152.5053 H   0  0  0  0  0  0  0  0  0  0  0  0
  147.4066  133.7535  151.5044 H   0  0  0  0  0  0  0  0  0  0  0  0
  146.9855  136.0951  152.1045 H   0  0  0  0  0  0  0  0  0  0  0  0
  1  2  1  0  0  0  0
  1 22  1  0  0  0  0
  1 23  1  0  0  0  0
  1 24  1  0  0  0  0
  2 21  1  0  0  0  0
  2  3  1  0  0  0  0
  2 25  1  0  0  0  0
  3  4  1  0  0  0  0
  3 26  1  0  0  0  0
  3 27  1  0  0  0  0
  4  5  1  0  0  0  0
  4 28  1  0  0  0  0
  4 29  1  0  0  0  0
  5  6  1  0  0  0  0
  5 20  1  0  0  0  0
  5 48  1  0  0  0  0
  6  7  1  0  0  0  0
  6 17  1  0  0  0  0
  6 30  1  0  0  0  0
  7  8  1  0  0  0  0
  7 31  1  0  0  0  0
  7 32  1  0  0  0  0
  8  9  1  0  0  0  0
  8 33  1  0  0  0  0
  9 10  2  0  0  0  0
  9 11  1  0  0  0  0
 11 12  1  0  0  0  0
 11 34  1  0  0  0  0
 11 35  1  0  0  0  0
 12 16  1  0  0  0  0
 12 13  1  0  0  0  0
 13 14  2  0  0  0  0
 13 36  1  0  0  0  0
 14 15  1  0  0  0  0
 15 16  2  0  0  0  0
 17 18  1  0  0  0  0
 17 19  1  0  0  0  0
 17 37  1  0  0  0  0
 18 38  1  0  0  0  0
 18 39  1  0  0  0  0
 18 40  1  0  0  0  0
 19 41  1  0  0  0  0
 19 42  1  0  0  0  0
 19 43  1  0  0  0  0
 20 21  1  0  0  0  0
 20 44  1  0  0  0  0
 20 45  1  0  0  0  0
 21 46  1  0  0  0  0
 21 47  1  0  0  0  0
M  CHG  1   5   1
M  END
> <s_m_source_file>
AV-unprocessed.smi

> <i_m_source_file_index>
1536

> <i_lp_mmshare_version>
43012

> <i_f3d_flags>
0

> <s_epik_input>
W0NIM11bQ0hdMVtDSDJdW0NIMl1OKFtDSDJdW0NIMl0xKVtDQEBIXShbQ0hdKFtDSDNdKVtDSDNdKVtDSDJdW05IXUMoPU8pW0NIMl1uMltjSF1ubm4y

> <s_epik_cmdline>
J2VwaWtfcHl0aG9uJywgJy1waCcsICc3LjAnLCAnLXRuJywgJzgnLCAnLW1hJywgJzIwMCcsICctbWV0YWxfYmluZGluZycsICctaW1hZScsICc8aW5maWxlLm1hZT4nLCAnLW9tYWUnLCAnPG91dGZpbGUubWFlPic=

> <r_lp_tautomer_probability>
1

> <r_epik_Ionization_Penalty>
0.00109671

> <r_epik_Ionization_Penalty_Charging>
0.00109273

> <r_epik_Ionization_Penalty_Neutral>
3.97951e-06

> <r_epik_State_Penalty>
0.000716588

> <r_epik_Charging_Adjusted_Penalty>
0.00180932

> <i_epik_Tot_Q>
1

> <i_epik_Tot_abs_Q>
1

> <r_epik_Metal_State_Penalty>
-0

> <b_epik_Metal_Only>
0

> <s_lp_Force_Field>
OPLS_2005

> <r_lp_Energy>
28.917

> <b_lp_Chiralities_Consistent>
1

> <s_lp_Variant>
AV-unprocessed.smi:1536-1

> <Gold.Version>
5.8.1

> <Gold.Id.Protein>
6NUR|6NUR_protein|mol2

> <Gold.PLP.Fitness>
36.5583

> <Gold.PLP.PLP>
-27.9876

> <Gold.PLP.part.hbond>
-5.0266

> <Gold.PLP.part.metal>
0.0000

> <Gold.PLP.part.buried>
-3.6301

> <Gold.PLP.part.nonpolar>
-21.2019

> <Gold.PLP.part.repulsive>
0.0021

> <Gold.PLP.ligand.clash>
0.0000

> <Gold.PLP.ligand.torsion>
1.9150

> <Gold.PLP.Chemscore.Hbond>
3.9520

> <Gold.PLP.Chemscore.CHOScore>
0.0000

> <Gold.PLP.Chemscore.Metal>
0.0000

> <Gold.Chemscore.Hbonds>
donor molecule, donor type, donor heavy atom, donor atom, acceptor molecule, acceptor atom, score
      L1  H     5    48       P1  7948  1.92
      P1  H  6931  6943       L1    14  1.00
      P1  H  6934  6947       L1    15  0.91

> <Gold.PLP.Chemscore.Internal.Correction>
0.5446

> <Gold.Rescore>
     Score         DG    S(hbond)    S(metal)    S(lipo)     H(rot)  DE(clash)    DE(int)     intcor
      8.09     -11.43       1.69        0.00      63.31       2.77       0.11       3.23       ----

> <Gold.Chemscore.Fitness>
8.0890

> <Gold.Chemscore.DG>
-11.4313

> <Gold.Chemscore.ZeroCoef>
-5.4800

> <Gold.Chemscore.Hbond>
1.6879

> <Gold.Chemscore.Metal>
0.0000

> <Gold.Chemscore.Lipo>
63.3084

> <Gold.Chemscore.Internal_Hbond>
0.0000

> <Gold.Chemscore.DEClash>
0.1115

> <Gold.Chemscore.DEInternal>
3.2309

> <Gold.Chemscore.Rot>
2.7709

> <Gold.Chemscore.Internal.Correction>
   9.000000E+99

> <Gold.Chemscore.Hbonds>
donor molecule, donor type, donor heavy atom, donor atom, acceptor molecule, acceptor atom, score
      L1  H     5    48       P1  7948  0.91
      P1  H  6931  6943       L1    14  0.27
      P1  H  6934  6947       L1    15  0.17

> <Gold.Chemscore.Hbond.Weighted>
-5.6377

> <Gold.Chemscore.Metal.Weighted>
-0.0000

> <Gold.Chemscore.Lipo.Weighted>
-7.4071

> <Gold.Chemscore.Internal_Hbond.Weighted>
0.0000

> <Gold.Chemscore.DEClash.Weighted>
0.1115

> <Gold.Chemscore.DEInternal.Weighted>
3.2309

> <Gold.Chemscore.Rot.Weighted>
7.0935

> <Gold.Chemscore.Internal.Correction.Weighted>
   9.000000E+99

> <Gold.Protein.RotatedTorsions>
[ 6907 6896 6895 6894 ] final  125.91 input  -60.11 | X-H torsion
[ 7974 7965 7964 7962 ] final   -5.40 input  175.53 | X-H torsion
[ 8008 7997 7996 7995 ] final  -38.32 input   59.86 | X-H torsion
[ 10167 10162 10161 10158 ] final  154.16 input  -65.29 | X-H torsion
[ 10718 10713 10712 10709 ] final  -31.90 input   66.30 | X-H torsion
[ 10763 10752 10751 10750 ] final  134.98 input  -60.55 | X-H torsion
[ 11005 11000 10999 10996 ] final -169.18 input  -57.11 | X-H torsion

> <Gold.Protein.ActiveResidues>
 VAL166  LYS551  ARG553  GLY616  TRP617  ASP618  TYR619  PRO620  LYS621  CYS622 
 ASP623  PHE694  ASN695  SER759  ASP760  ASP761  ALA762  ILE779  LEU786  VAL792 
 PHE793  MET794  SER795  GLU796  ALA797  LYS798  CYS799  TRP800  GLU811  SER814 

> <Gold.Protein.RotatedAtoms>
  152.3950  133.6734  159.6268 H   0  0  0  0  0  0  0  0  0  0  0  0  # atno 6907 bound_to 6896
  150.7851  133.8889  159.3316 H   0  0  0  0  0  0  0  0  0  0  0  0  # atno 6908 bound_to 6896
  151.6667  135.0983  160.0241 H   0  0  0  0  0  0  0  0  0  0  0  0  # atno 6909 bound_to 6896
  146.2353  140.2015  142.8334 H   0  0  0  0  0  0  0  0  0  0  0  0  # atno 7974 bound_to 7965
  154.4039  140.1581  156.2680 H   0  0  0  0  0  0  0  0  0  0  0  0  # atno 8008 bound_to 7997
  155.8978  140.3435  155.5982 H   0  0  0  0  0  0  0  0  0  0  0  0  # atno 8009 bound_to 7997
  155.7483  140.0801  157.2204 H   0  0  0  0  0  0  0  0  0  0  0  0  # atno 8010 bound_to 7997
  139.4824  144.5211  151.7875 H   0  0  0  0  0  0  0  0  0  0  0  0  # atno 10167 bound_to 10162
  156.3816  130.4357  149.7465 H   0  0  0  0  0  0  0  0  0  0  0  0  # atno 10718 bound_to 10713
  153.8324  135.3102  155.3420 H   0  0  0  0  0  0  0  0  0  0  0  0  # atno 10763 bound_to 10752
  154.7967  135.4751  154.0181 H   0  0  0  0  0  0  0  0  0  0  0  0  # atno 10764 bound_to 10752
  153.1626  135.6863  153.8812 H   0  0  0  0  0  0  0  0  0  0  0  0  # atno 10765 bound_to 10752
  140.5337  134.5591  157.5081 H   0  0  0  0  0  0  0  0  0  0  0  0  # atno 11005 bound_to 11000
  144.9778  140.8431  143.5415 LP  0  0  0  0  0  0  0  0  0  0  0  0  # atno 17320 bound_to 7965
  145.2004  139.2255  143.5196 LP  0  0  0  0  0  0  0  0  0  0  0  0  # atno 17321 bound_to 7965
  140.4725  144.1566  150.5920 LP  0  0  0  0  0  0  0  0  0  0  0  0  # atno 17342 bound_to 10162
  140.4367  143.2544  151.9526 LP  0  0  0  0  0  0  0  0  0  0  0  0  # atno 17343 bound_to 10162
  156.4553  130.7926  151.2947 LP  0  0  0  0  0  0  0  0  0  0  0  0  # atno 17370 bound_to 10713
  157.7493  131.0082  150.3221 LP  0  0  0  0  0  0  0  0  0  0  0  0  # atno 17371 bound_to 10713
  139.9541  134.7566  156.0382 LP  0  0  0  0  0  0  0  0  0  0  0  0  # atno 17394 bound_to 11000
  141.1267  133.6597  156.3355 LP  0  0  0  0  0  0  0  0  0  0  0  0  # atno 17395 bound_to 11000

$$$$
