AV-unprocessed.smi:370|AV-procd|sdf|2438|dock5
  -GOLD-   2262022373D 1   1.00000     0.00000
 Structure written by MMmdl.
 41 42  0  0  0  0  0  0  0  0  2 V2000
  149.0799  140.5404  154.0769 C   0  0  0  0  0  0  0  0  0  0  0  0
  150.0935  139.5103  154.4411 C   0  0  0  0  0  0  0  0  0  0  0  0
  150.0199  138.1572  154.6129 C   0  0  0  0  0  0  0  0  0  0  0  0
  151.3557  137.7979  154.9414 C   0  0  0  0  0  0  0  0  0  0  0  0
  151.7970  136.5597  155.2115 N   0  5  0  0  0  0  0  0  0  0  0  0
  151.0781  135.7428  156.0159 C   0  0  0  0  0  0  0  0  0  0  0  0
  150.7829  135.9519  157.1949 O   0  0  0  0  0  0  0  0  0  0  0  0
  150.6746  134.6133  155.4200 N   0  0  0  0  0  0  0  0  0  0  0  0
  149.8841  133.5625  156.0554 C   0  0  0  0  0  0  0  0  0  0  0  0
  150.0338  132.1906  155.3377 C   0  0  0  0  0  0  0  0  0  0  0  0
  148.9633  131.2451  155.9347 C   0  0  0  0  0  0  0  0  0  0  0  0
  149.6587  132.4334  153.8534 C   0  0  0  0  0  0  0  0  0  0  0  0
  151.4180  131.6521  155.4571 N   0  0  0  0  0  0  0  0  0  0  0  0
  151.5965  130.2866  154.9506 C   0  0  0  0  0  0  0  0  0  0  0  0
  153.0683  129.8417  154.9923 C   0  0  0  0  0  0  0  0  0  0  0  0
  153.5657  129.9519  156.3204 O   0  0  0  0  0  0  0  0  0  0  0  0
  153.4684  131.2779  156.8255 C   0  0  0  0  0  0  0  0  0  0  0  0
  152.0000  131.7348  156.8018 C   0  0  0  0  0  0  0  0  0  0  0  0
  152.1641  138.8440  154.9852 N   0  0  0  0  0  0  0  0  0  0  0  0
  151.3641  139.9452  154.6580 O   0  0  0  0  0  0  0  0  0  0  0  0
  148.2518  140.5334  154.7855 H   0  0  0  0  0  0  0  0  0  0  0  0
  148.6767  140.3483  153.0825 H   0  0  0  0  0  0  0  0  0  0  0  0
  149.5159  141.5397  154.0769 H   0  0  0  0  0  0  0  0  0  0  0  0
  149.1516  137.5232  154.5133 H   0  0  0  0  0  0  0  0  0  0  0  0
  150.9358  134.4702  154.4554 H   0  0  0  0  0  0  0  0  0  0  0  0
  150.1596  133.4894  157.1080 H   0  0  0  0  0  0  0  0  0  0  0  0
  148.8380  133.8738  156.0548 H   0  0  0  0  0  0  0  0  0  0  0  0
  147.9643  131.6694  155.8272 H   0  0  0  0  0  0  0  0  0  0  0  0
  149.1168  131.0709  156.9994 H   0  0  0  0  0  0  0  0  0  0  0  0
  148.9456  130.2751  155.4385 H   0  0  0  0  0  0  0  0  0  0  0  0
  148.7221  132.9847  153.7626 H   0  0  0  0  0  0  0  0  0  0  0  0
  149.5169  131.5028  153.3044 H   0  0  0  0  0  0  0  0  0  0  0  0
  150.4254  133.0094  153.3337 H   0  0  0  0  0  0  0  0  0  0  0  0
  151.0023  129.5858  155.5367 H   0  0  0  0  0  0  0  0  0  0  0  0
  151.2563  130.2068  153.9197 H   0  0  0  0  0  0  0  0  0  0  0  0
  153.1604  128.8069  154.6622 H   0  0  0  0  0  0  0  0  0  0  0  0
  153.6739  130.4483  154.3172 H   0  0  0  0  0  0  0  0  0  0  0  0
  153.8557  131.3006  157.8442 H   0  0  0  0  0  0  0  0  0  0  0  0
  154.0909  131.9489  156.2314 H   0  0  0  0  0  0  0  0  0  0  0  0
  151.9673  132.7556  157.1778 H   0  0  0  0  0  0  0  0  0  0  0  0
  151.4292  131.1211  157.4986 H   0  0  0  0  0  0  0  0  0  0  0  0
  1  2  1  0  0  0  0
  1 21  1  0  0  0  0
  1 22  1  0  0  0  0
  1 23  1  0  0  0  0
  2 20  1  0  0  0  0
  2  3  2  0  0  0  0
  3  4  1  0  0  0  0
  3 24  1  0  0  0  0
  4  5  1  0  0  0  0
  4 19  2  0  0  0  0
  5  6  1  0  0  0  0
  6  7  2  0  0  0  0
  6  8  1  0  0  0  0
  8  9  1  0  0  0  0
  8 25  1  0  0  0  0
  9 10  1  0  0  0  0
  9 26  1  0  0  0  0
  9 27  1  0  0  0  0
 10 11  1  0  0  0  0
 10 12  1  0  0  0  0
 10 13  1  0  0  0  0
 11 28  1  0  0  0  0
 11 29  1  0  0  0  0
 11 30  1  0  0  0  0
 12 31  1  0  0  0  0
 12 32  1  0  0  0  0
 12 33  1  0  0  0  0
 13 18  1  0  0  0  0
 13 14  1  0  0  0  0
 14 15  1  0  0  0  0
 14 34  1  0  0  0  0
 14 35  1  0  0  0  0
 15 16  1  0  0  0  0
 15 36  1  0  0  0  0
 15 37  1  0  0  0  0
 16 17  1  0  0  0  0
 17 18  1  0  0  0  0
 17 38  1  0  0  0  0
 17 39  1  0  0  0  0
 18 40  1  0  0  0  0
 18 41  1  0  0  0  0
 19 20  1  0  0  0  0
M  CHG  1   5  -1
M  END
> <s_m_source_file>
AV-unprocessed.smi

> <i_m_source_file_index>
370

> <i_lp_mmshare_version>
43012

> <i_f3d_flags>
0

> <s_epik_input>
W0NIM11jMVtjSF1jKG5vMSlbTkhdQyg9TylbTkhdW0NIMl1DKFtDSDNdKShbQ0gzXSlOMltDSDJdW0NIMl1PW0NIMl1bQ0gyXTI=

> <s_epik_cmdline>
J2VwaWtfcHl0aG9uJywgJy1waCcsICc3LjAnLCAnLXRuJywgJzgnLCAnLW1hJywgJzIwMCcsICctbWV0YWxfYmluZGluZycsICctaW1hZScsICc8aW5maWxlLm1hZT4nLCAnLW9tYWUnLCAnPG91dGZpbGUubWFlPic=

> <r_epik_Ionization_Penalty>
6.88367

> <r_epik_Ionization_Penalty_Charging>
6.57198

> <r_epik_Ionization_Penalty_Neutral>
0.311685

> <r_epik_State_Penalty>
6.77619

> <r_epik_Charging_Adjusted_Penalty>
13.3482

> <i_epik_Tot_Q>
-1

> <i_epik_Tot_abs_Q>
1

> <r_epik_Metal_State_Penalty>
2.70533

> <b_epik_Metal_Only>
1

> <s_lp_Force_Field>
OPLS_2005

> <r_lp_Energy>
34.5841

> <b_lp_Chiralities_Consistent>
1

> <s_lp_Variant>
AV-unprocessed.smi:370-3

> <Gold.Version>
5.8.1

> <Gold.Id.Protein>
6NUR|6NUR_protein|mol2

> <Gold.PLP.Fitness>
36.6358

> <Gold.PLP.PLP>
-30.2627

> <Gold.PLP.part.hbond>
-2.4694

> <Gold.PLP.part.metal>
0.0000

> <Gold.PLP.part.buried>
-4.6406

> <Gold.PLP.part.nonpolar>
-22.8452

> <Gold.PLP.part.repulsive>
0.2873

> <Gold.PLP.ligand.clash>
0.0000

> <Gold.PLP.ligand.torsion>
1.3596

> <Gold.PLP.Chemscore.Hbond>
3.0000

> <Gold.PLP.Chemscore.CHOScore>
0.0000

> <Gold.PLP.Chemscore.Metal>
0.0000

> <Gold.Chemscore.Hbonds>
donor molecule, donor type, donor heavy atom, donor atom, acceptor molecule, acceptor atom, score
      P1  H  7989  7998       L1    20  0.93
      P1  H 10752 10764       L1     5  2.00

> <Gold.PLP.Chemscore.Internal.Correction>
0.0922

> <Gold.Rescore>
     Score         DG    S(hbond)    S(metal)    S(lipo)     H(rot)  DE(clash)    DE(int)     intcor
     13.62     -14.80       2.07        0.00      54.13       1.53       0.00       1.18       ----

> <Gold.Chemscore.Fitness>
13.6182

> <Gold.Chemscore.DG>
-14.8034

> <Gold.Chemscore.ZeroCoef>
-5.4800

> <Gold.Chemscore.Hbond>
2.0656

> <Gold.Chemscore.Metal>
0.0000

> <Gold.Chemscore.Lipo>
54.1298

> <Gold.Chemscore.Internal_Hbond>
0.0000

> <Gold.Chemscore.DEClash>
0.0048

> <Gold.Chemscore.DEInternal>
1.1804

> <Gold.Chemscore.Rot>
1.5269

> <Gold.Chemscore.Internal.Correction>
   9.000000E+99

> <Gold.Chemscore.Hbonds>
donor molecule, donor type, donor heavy atom, donor atom, acceptor molecule, acceptor atom, score
      P1  H  7989  7998       L1    20  0.39
      P1  H 10752 10764       L1     5  0.34

> <Gold.Chemscore.Hbond.Weighted>
-6.8991

> <Gold.Chemscore.Metal.Weighted>
-0.0000

> <Gold.Chemscore.Lipo.Weighted>
-6.3332

> <Gold.Chemscore.Internal_Hbond.Weighted>
0.0000

> <Gold.Chemscore.DEClash.Weighted>
0.0048

> <Gold.Chemscore.DEInternal.Weighted>
1.1804

> <Gold.Chemscore.Rot.Weighted>
3.9090

> <Gold.Chemscore.Internal.Correction.Weighted>
   9.000000E+99

> <Gold.Protein.RotatedTorsions>
[ 6907 6896 6895 6894 ] final   18.53 input  -60.11 | X-H torsion
[ 7974 7965 7964 7962 ] final -122.44 input  175.53 | X-H torsion
[ 8008 7997 7996 7995 ] final  -18.85 input   59.86 | X-H torsion
[ 10167 10162 10161 10158 ] final   82.50 input  -65.29 | X-H torsion
[ 10718 10713 10712 10709 ] final  111.33 input   66.30 | X-H torsion
[ 10763 10752 10751 10750 ] final  -54.89 input  -60.55 | X-H torsion
[ 11005 11000 10999 10996 ] final  -78.90 input  -57.11 | X-H torsion

> <Gold.Protein.ActiveResidues>
 VAL166  LYS551  ARG553  GLY616  TRP617  ASP618  TYR619  PRO620  LYS621  CYS622 
 ASP623  PHE694  ASN695  SER759  ASP760  ASP761  ALA762  ILE779  LEU786  VAL792 
 PHE793  MET794  SER795  GLU796  ALA797  LYS798  CYS799  TRP800  GLU811  SER814 

> <Gold.Protein.RotatedAtoms>
  151.8668  135.0504  160.0474 H   0  0  0  0  0  0  0  0  0  0  0  0  # atno 6907 bound_to 6896
  152.2620  133.5301  159.5396 H   0  0  0  0  0  0  0  0  0  0  0  0  # atno 6908 bound_to 6896
  150.7120  134.0733  159.3914 H   0  0  0  0  0  0  0  0  0  0  0  0  # atno 6909 bound_to 6896
  145.0294  140.8055  143.4333 H   0  0  0  0  0  0  0  0  0  0  0  0  # atno 7974 bound_to 7965
  154.4877  140.2105  155.9617 H   0  0  0  0  0  0  0  0  0  0  0  0  # atno 8008 bound_to 7997
  156.1261  140.3205  155.8247 H   0  0  0  0  0  0  0  0  0  0  0  0  # atno 8009 bound_to 7997
  155.4382  140.0508  157.3003 H   0  0  0  0  0  0  0  0  0  0  0  0  # atno 8010 bound_to 7997
  139.9282  144.6169  150.8371 H   0  0  0  0  0  0  0  0  0  0  0  0  # atno 10167 bound_to 10162
  157.6450  131.0949  150.6733 H   0  0  0  0  0  0  0  0  0  0  0  0  # atno 10718 bound_to 10713
  154.1821  135.6441  153.5037 H   0  0  0  0  0  0  0  0  0  0  0  0  # atno 10763 bound_to 10752
  153.0056  135.5408  154.6503 H   0  0  0  0  0  0  0  0  0  0  0  0  # atno 10764 bound_to 10752
  154.5870  135.2930  155.0647 H   0  0  0  0  0  0  0  0  0  0  0  0  # atno 10765 bound_to 10752
  141.1666  133.7082  156.8041 H   0  0  0  0  0  0  0  0  0  0  0  0  # atno 11005 bound_to 11000
  145.1791  139.2362  143.5302 LP  0  0  0  0  0  0  0  0  0  0  0  0  # atno 17320 bound_to 7965
  146.3496  140.1560  142.8591 LP  0  0  0  0  0  0  0  0  0  0  0  0  # atno 17321 bound_to 7965
  140.7644  143.3249  151.2539 LP  0  0  0  0  0  0  0  0  0  0  0  0  # atno 17342 bound_to 10162
  139.6804  143.9864  152.2805 LP  0  0  0  0  0  0  0  0  0  0  0  0  # atno 17343 bound_to 10162
  156.7051  130.4635  149.5562 LP  0  0  0  0  0  0  0  0  0  0  0  0  # atno 17370 bound_to 10713
  156.1768  130.6473  151.0904 LP  0  0  0  0  0  0  0  0  0  0  0  0  # atno 17371 bound_to 10713
  140.2235  134.8739  157.3402 LP  0  0  0  0  0  0  0  0  0  0  0  0  # atno 17394 bound_to 11000
  140.1964  134.4309  155.7687 LP  0  0  0  0  0  0  0  0  0  0  0  0  # atno 17395 bound_to 11000

$$$$
