AV-unprocessed.smi:1762|AV-procd|sdf|7110|dock6
  -GOLD-   22720 8333D 1   1.00000     0.00000
 Structure written by MMmdl.
 53 54  0  0  0  0  0  0  0  0  2 V2000
  153.5904  138.6374  154.5736 C   0  0  0  0  0  0  0  0  0  0  0  0
  152.2387  139.2941  154.8756 C   0  0  1  0  0  0  0  0  0  0  0  0
  151.0586  138.3508  154.5814 C   0  0  0  0  0  0  0  0  0  0  0  0
  149.7611  138.9307  154.9451 N   0  0  0  0  0  0  0  0  0  0  0  0
  148.6158  138.0498  154.5782 C   0  0  1  0  0  0  0  0  0  0  0  0
  148.6641  136.6556  155.2501 C   0  0  0  0  0  0  0  0  0  0  0  0
  148.5112  136.5384  156.4656 O   0  0  0  0  0  0  0  0  0  0  0  0
  148.9161  135.6097  154.4462 N   0  0  0  0  0  0  0  0  0  0  0  0
  149.0756  134.2292  154.8935 C   0  0  0  0  0  0  0  0  0  0  0  0
  149.1533  133.2178  153.7335 C   0  0  0  0  0  0  0  0  0  0  0  0
  147.8512  133.0686  152.9664 C   0  0  0  0  0  0  0  0  0  0  0  0
  147.1572  131.8409  152.9032 C   0  0  0  0  0  0  0  0  0  0  0  0
  145.9575  131.7642  152.1654 C   0  0  0  0  0  0  0  0  0  0  0  0
  145.4779  132.9147  151.5056 C   0  0  0  0  0  0  0  0  0  0  0  0
  146.2112  134.1147  151.6013 C   0  0  0  0  0  0  0  0  0  0  0  0
  147.3561  134.1473  152.3177 N   0  3  0  0  0  0  0  0  0  0  0  0
  147.2070  138.7176  154.7372 C   0  0  0  0  0  0  0  0  0  0  0  0
  146.0299  137.8069  154.3342 C   0  0  0  0  0  0  0  0  0  0  0  0
  147.0875  140.0869  154.0409 C   0  0  0  0  0  0  0  0  0  0  0  0
  149.8108  139.3321  156.3624 C   0  0  0  0  0  0  0  0  0  0  0  0
  151.0065  140.2447  156.7023 C   0  0  2  0  0  0  0  0  0  0  0  0
  150.8386  141.6865  156.1912 C   0  0  0  0  0  0  0  0  0  0  0  0
  152.2252  139.6588  156.2513 O   0  0  0  0  0  0  0  0  0  0  0  0
  153.6629  138.3537  153.5234 H   0  0  0  0  0  0  0  0  0  0  0  0
  153.7360  137.7388  155.1740 H   0  0  0  0  0  0  0  0  0  0  0  0
  154.4125  139.3196  154.7906 H   0  0  0  0  0  0  0  0  0  0  0  0
  152.1507  140.1897  154.2601 H   0  0  0  0  0  0  0  0  0  0  0  0
  151.0980  138.1207  153.5190 H   0  0  0  0  0  0  0  0  0  0  0  0
  151.2036  137.4076  155.1111 H   0  0  0  0  0  0  0  0  0  0  0  0
  148.7137  137.8449  153.5097 H   0  0  0  0  0  0  0  0  0  0  0  0
  149.0480  135.7906  153.4615 H   0  0  0  0  0  0  0  0  0  0  0  0
  149.9895  134.1760  155.4856 H   0  0  0  0  0  0  0  0  0  0  0  0
  148.2607  133.9627  155.5683 H   0  0  0  0  0  0  0  0  0  0  0  0
  149.9360  133.5235  153.0385 H   0  0  0  0  0  0  0  0  0  0  0  0
  149.4561  132.2404  154.1124 H   0  0  0  0  0  0  0  0  0  0  0  0
  147.5392  130.9675  153.4116 H   0  0  0  0  0  0  0  0  0  0  0  0
  145.4125  130.8334  152.1059 H   0  0  0  0  0  0  0  0  0  0  0  0
  144.5613  132.8768  150.9351 H   0  0  0  0  0  0  0  0  0  0  0  0
  145.9200  135.0421  151.1298 H   0  0  0  0  0  0  0  0  0  0  0  0
  147.0722  138.9506  155.7919 H   0  0  0  0  0  0  0  0  0  0  0  0
  146.0232  137.5918  153.2665 H   0  0  0  0  0  0  0  0  0  0  0  0
  145.0764  138.2791  154.5727 H   0  0  0  0  0  0  0  0  0  0  0  0
  146.0573  136.8554  154.8651 H   0  0  0  0  0  0  0  0  0  0  0  0
  147.0849  139.9949  152.9546 H   0  0  0  0  0  0  0  0  0  0  0  0
  147.9092  140.7443  154.3255 H   0  0  0  0  0  0  0  0  0  0  0  0
  146.1597  140.5856  154.3224 H   0  0  0  0  0  0  0  0  0  0  0  0
  148.9105  139.8690  156.6604 H   0  0  0  0  0  0  0  0  0  0  0  0
  149.8597  138.4394  156.9882 H   0  0  0  0  0  0  0  0  0  0  0  0
  151.0833  140.3034  157.7883 H   0  0  0  0  0  0  0  0  0  0  0  0
  149.9724  142.1619  156.6517 H   0  0  0  0  0  0  0  0  0  0  0  0
  150.6935  141.7260  155.1117 H   0  0  0  0  0  0  0  0  0  0  0  0
  151.7132  142.2900  156.4346 H   0  0  0  0  0  0  0  0  0  0  0  0
  147.8720  135.0260  152.3726 H   0  0  0  0  0  0  0  0  0  0  0  0
  1  2  1  0  0  0  0
  1 24  1  0  0  0  0
  1 25  1  0  0  0  0
  1 26  1  0  0  0  0
  2 23  1  0  0  0  0
  2  3  1  0  0  0  0
  2 27  1  0  0  0  0
  3  4  1  0  0  0  0
  3 28  1  0  0  0  0
  3 29  1  0  0  0  0
  4  5  1  0  0  0  0
  4 20  1  0  0  0  0
  5  6  1  0  0  0  0
  5 17  1  0  0  0  0
  5 30  1  0  0  0  0
  6  7  2  0  0  0  0
  6  8  1  0  0  0  0
  8  9  1  0  0  0  0
  8 31  1  0  0  0  0
  9 10  1  0  0  0  0
  9 32  1  0  0  0  0
  9 33  1  0  0  0  0
 10 11  1  0  0  0  0
 10 34  1  0  0  0  0
 10 35  1  0  0  0  0
 11 16  1  0  0  0  0
 11 12  2  0  0  0  0
 12 13  1  0  0  0  0
 12 36  1  0  0  0  0
 13 14  2  0  0  0  0
 13 37  1  0  0  0  0
 14 15  1  0  0  0  0
 14 38  1  0  0  0  0
 15 16  2  0  0  0  0
 15 39  1  0  0  0  0
 16 53  1  0  0  0  0
 17 18  1  0  0  0  0
 17 19  1  0  0  0  0
 17 40  1  0  0  0  0
 18 41  1  0  0  0  0
 18 42  1  0  0  0  0
 18 43  1  0  0  0  0
 19 44  1  0  0  0  0
 19 45  1  0  0  0  0
 19 46  1  0  0  0  0
 20 21  1  0  0  0  0
 20 47  1  0  0  0  0
 20 48  1  0  0  0  0
 21 22  1  0  0  0  0
 21 23  1  0  0  0  0
 21 49  1  0  0  0  0
 22 50  1  0  0  0  0
 22 51  1  0  0  0  0
 22 52  1  0  0  0  0
M  CHG  1  16   1
M  END
> <s_m_source_file>
AV-unprocessed.smi

> <i_m_source_file_index>
1762

> <i_lp_mmshare_version>
43012

> <i_f3d_flags>
0

> <s_epik_input>
W0NIM11bQ0BASF0xW0NIMl1OKFtDSDJdW0NASF0oTzEpW0NIM10pW0NAQEhdKFtDSF0oW0NIM10pW0NIM10pQyg9TylbTkhdW0NIMl1bQ0gyXWMyW2NIXVtjSF1bY0hdW2NIXW4y

> <s_epik_cmdline>
J2VwaWtfcHl0aG9uJywgJy1waCcsICc3LjAnLCAnLXRuJywgJzgnLCAnLW1hJywgJzIwMCcsICctbWV0YWxfYmluZGluZycsICctaW1hZScsICc8aW5maWxlLm1hZT4nLCAnLW9tYWUnLCAnPG91dGZpbGUubWFlPic=

> <r_epik_Ionization_Penalty>
1.86475

> <r_epik_Ionization_Penalty_Charging>
1.85347

> <r_epik_Ionization_Penalty_Neutral>
0.0112771

> <r_epik_State_Penalty>
1.99714

> <r_epik_Charging_Adjusted_Penalty>
3.85061

> <i_epik_Tot_Q>
1

> <i_epik_Tot_abs_Q>
1

> <r_epik_Metal_State_Penalty>
2.02271

> <b_epik_Metal_Only>
0

> <s_lp_Force_Field>
OPLS_2005

> <r_lp_Energy>
36.5288

> <b_lp_Chiralities_Consistent>
1

> <s_lp_Variant>
AV-unprocessed.smi:1762-12

> <Gold.Version>
5.8.1

> <Gold.Id.Protein>
6NUR|6NUR_protein|mol2

> <Gold.PLP.Fitness>
46.2457

> <Gold.PLP.PLP>
-34.3289

> <Gold.PLP.part.hbond>
-3.0000

> <Gold.PLP.part.metal>
0.0000

> <Gold.PLP.part.buried>
-2.5202

> <Gold.PLP.part.nonpolar>
-28.7298

> <Gold.PLP.part.repulsive>
0.1459

> <Gold.PLP.ligand.clash>
0.0000

> <Gold.PLP.ligand.torsion>
0.2160

> <Gold.PLP.Chemscore.Hbond>
4.0000

> <Gold.PLP.Chemscore.CHOScore>
0.0000

> <Gold.PLP.Chemscore.Metal>
0.0000

> <Gold.Chemscore.Hbonds>
donor molecule, donor type, donor heavy atom, donor atom, acceptor molecule, acceptor atom, score
      L1  H     8    31       P1  7948  1.00
      L1  H    16    53       P1  7948  2.00
      P1  H  7997  8010       L1    23  0.60

> <Gold.PLP.Chemscore.Internal.Correction>
0.3488

> <Gold.Rescore>
     Score         DG    S(hbond)    S(metal)    S(lipo)     H(rot)  DE(clash)    DE(int)     intcor
     19.96     -20.52       2.59        0.00      92.23       1.72       0.11       0.45       ----

> <Gold.Chemscore.Fitness>
19.9591

> <Gold.Chemscore.DG>
-20.5196

> <Gold.Chemscore.ZeroCoef>
-5.4800

> <Gold.Chemscore.Hbond>
2.5885

> <Gold.Chemscore.Metal>
0.0000

> <Gold.Chemscore.Lipo>
92.2281

> <Gold.Chemscore.Internal_Hbond>
0.0000

> <Gold.Chemscore.DEClash>
0.1119

> <Gold.Chemscore.DEInternal>
0.4485

> <Gold.Chemscore.Rot>
1.7174

> <Gold.Chemscore.Internal.Correction>
   9.000000E+99

> <Gold.Chemscore.Hbonds>
donor molecule, donor type, donor heavy atom, donor atom, acceptor molecule, acceptor atom, score
      L1  H     8    31       P1  7948  0.85
      L1  H    16    53       P1  7948  0.89
      P1  H  7997  8010       L1    23  0.15

> <Gold.Chemscore.Hbond.Weighted>
-8.6455

> <Gold.Chemscore.Metal.Weighted>
-0.0000

> <Gold.Chemscore.Lipo.Weighted>
-10.7907

> <Gold.Chemscore.Internal_Hbond.Weighted>
0.0000

> <Gold.Chemscore.DEClash.Weighted>
0.1119

> <Gold.Chemscore.DEInternal.Weighted>
0.4485

> <Gold.Chemscore.Rot.Weighted>
4.3966

> <Gold.Chemscore.Internal.Correction.Weighted>
   9.000000E+99

> <Gold.Protein.RotatedTorsions>
[ 6907 6896 6895 6894 ] final  -39.49 input  -60.11 | X-H torsion
[ 7974 7965 7964 7962 ] final  -12.16 input  175.53 | X-H torsion
[ 8008 7997 7996 7995 ] final   65.06 input   59.86 | X-H torsion
[ 10167 10162 10161 10158 ] final   71.00 input  -65.29 | X-H torsion
[ 10718 10713 10712 10709 ] final  -72.43 input   66.30 | X-H torsion
[ 10763 10752 10751 10750 ] final  -41.11 input  -60.55 | X-H torsion
[ 11005 11000 10999 10996 ] final  -10.47 input  -57.11 | X-H torsion

> <Gold.Protein.ActiveResidues>
 VAL166  LYS551  ARG553  GLY616  TRP617  ASP618  TYR619  PRO620  LYS621  CYS622 
 ASP623  PHE694  ASN695  SER759  ASP760  ASP761  ALA762  ILE779  LEU786  VAL792 
 PHE793  MET794  SER795  GLU796  ALA797  LYS798  CYS799  TRP800  GLU811  SER814 

> <Gold.Protein.RotatedAtoms>
  150.9897  134.9235  159.7892 H   0  0  0  0  0  0  0  0  0  0  0  0  # atno 6907 bound_to 6896
  152.5247  134.3298  159.9188 H   0  0  0  0  0  0  0  0  0  0  0  0  # atno 6908 bound_to 6896
  151.3304  133.3962  159.2696 H   0  0  0  0  0  0  0  0  0  0  0  0  # atno 6909 bound_to 6896
  146.2162  140.3017  142.8375 H   0  0  0  0  0  0  0  0  0  0  0  0  # atno 7974 bound_to 7965
  155.6559  140.3497  155.4765 H   0  0  0  0  0  0  0  0  0  0  0  0  # atno 8008 bound_to 7997
  155.9809  140.1174  157.0750 H   0  0  0  0  0  0  0  0  0  0  0  0  # atno 8009 bound_to 7997
  154.4191  140.1138  156.5420 H   0  0  0  0  0  0  0  0  0  0  0  0  # atno 8010 bound_to 7997
  140.0508  144.5313  150.7365 H   0  0  0  0  0  0  0  0  0  0  0  0  # atno 10167 bound_to 10162
  156.0321  130.4372  150.2591 H   0  0  0  0  0  0  0  0  0  0  0  0  # atno 10718 bound_to 10713
  153.9570  135.6744  153.4744 H   0  0  0  0  0  0  0  0  0  0  0  0  # atno 10763 bound_to 10752
  153.0856  135.4900  154.8587 H   0  0  0  0  0  0  0  0  0  0  0  0  # atno 10764 bound_to 10752
  154.7294  135.3134  154.8877 H   0  0  0  0  0  0  0  0  0  0  0  0  # atno 10765 bound_to 10752
  140.7450  133.8639  155.8998 H   0  0  0  0  0  0  0  0  0  0  0  0  # atno 11005 bound_to 11000
  144.9052  140.7691  143.5842 LP  0  0  0  0  0  0  0  0  0  0  0  0  # atno 17320 bound_to 7965
  145.2945  139.1872  143.4722 LP  0  0  0  0  0  0  0  0  0  0  0  0  # atno 17321 bound_to 7965
  140.7217  143.2596  151.4255 LP  0  0  0  0  0  0  0  0  0  0  0  0  # atno 17342 bound_to 10162
  139.5954  144.1408  152.2138 LP  0  0  0  0  0  0  0  0  0  0  0  0  # atno 17343 bound_to 10162
  157.0693  131.0112  151.3196 LP  0  0  0  0  0  0  0  0  0  0  0  0  # atno 17370 bound_to 10713
  157.5012  130.7881  149.7606 LP  0  0  0  0  0  0  0  0  0  0  0  0  # atno 17371 bound_to 10713
  140.9802  134.1415  157.4501 LP  0  0  0  0  0  0  0  0  0  0  0  0  # atno 17394 bound_to 11000
  139.8798  135.0008  156.6030 LP  0  0  0  0  0  0  0  0  0  0  0  0  # atno 17395 bound_to 11000

$$$$
