AV-unprocessed.smi:2870|AV-procd|sdf|11029|dock5
  -GOLD-   2272015493D 1   1.00000     0.00000
 Structure written by MMmdl.
 40 42  0  0  0  0  0  0  0  0  1 V2000
  140.5683  135.4268  154.0588 N   0  0  0  0  0  0  0  0  0  0  0  0
  141.5970  135.3040  153.5427 C   0  0  0  0  0  0  0  0  0  0  0  0
  142.8630  135.1219  152.9132 C   0  0  0  0  0  0  0  0  0  0  0  0
  143.2487  133.9246  152.4263 C   0  0  0  0  0  0  0  0  0  0  0  0
  144.4623  133.7344  151.8027 N   0  0  0  0  0  0  0  0  0  0  0  0
  144.9084  132.4247  151.4186 C   0  0  0  0  0  0  0  0  0  0  0  0
  145.4610  132.1766  150.0283 C   0  0  0  0  0  0  0  0  0  0  0  0
  144.1001  131.6444  150.4049 C   0  0  0  0  0  0  0  0  0  0  0  0
  145.3952  134.7916  151.7272 C   0  0  0  0  0  0  0  0  0  0  0  0
  146.5180  134.6193  151.2459 O   0  0  0  0  0  0  0  0  0  0  0  0
  145.0030  136.0584  152.2243 N   0  0  0  0  0  0  0  0  0  0  0  0
  145.9456  137.1915  152.0936 C   0  0  0  0  0  0  0  0  0  0  0  0
  146.4100  137.7599  153.4435 C   0  0  0  0  0  0  0  0  0  0  0  0
  145.5988  138.0636  154.3197 O   0  0  0  0  0  0  0  0  0  0  0  0
  147.7351  137.8873  153.5976 N   0  0  0  0  0  0  0  0  0  0  0  0
  148.3839  138.3837  154.8029 C   0  0  0  0  0  0  0  0  0  0  0  0
  148.2212  139.8951  154.9097 C   0  0  0  0  0  0  0  0  0  0  0  0
  147.0325  140.5892  154.2267 C   0  0  0  0  0  0  0  0  0  0  0  0
  147.9514  141.7796  153.9402 C   0  0  0  0  0  0  0  0  0  0  0  0
  149.1331  140.8169  154.0865 C   0  0  0  0  0  0  0  0  0  0  0  0
  143.7356  136.2900  152.8178 C   0  0  0  0  0  0  0  0  0  0  0  0
  143.4166  137.4110  153.2178 O   0  0  0  0  0  0  0  0  0  0  0  0
  142.5784  133.0821  152.5194 H   0  0  0  0  0  0  0  0  0  0  0  0
  145.3585  131.8375  152.2172 H   0  0  0  0  0  0  0  0  0  0  0  0
  145.4908  133.0090  149.3278 H   0  0  0  0  0  0  0  0  0  0  0  0
  146.2738  131.4597  149.9334 H   0  0  0  0  0  0  0  0  0  0  0  0
  144.0047  130.5716  150.5587 H   0  0  0  0  0  0  0  0  0  0  0  0
  143.2355  132.1289  149.9552 H   0  0  0  0  0  0  0  0  0  0  0  0
  146.8300  136.9060  151.5223 H   0  0  0  0  0  0  0  0  0  0  0  0
  145.5034  137.9978  151.5062 H   0  0  0  0  0  0  0  0  0  0  0  0
  148.3348  137.6134  152.8327 H   0  0  0  0  0  0  0  0  0  0  0  0
  147.9552  137.8969  155.6803 H   0  0  0  0  0  0  0  0  0  0  0  0
  149.4401  138.1117  154.7739 H   0  0  0  0  0  0  0  0  0  0  0  0
  148.2585  140.2142  155.9537 H   0  0  0  0  0  0  0  0  0  0  0  0
  146.7078  140.0790  153.3181 H   0  0  0  0  0  0  0  0  0  0  0  0
  146.1926  140.8073  154.8870 H   0  0  0  0  0  0  0  0  0  0  0  0
  147.8370  142.2174  152.9481 H   0  0  0  0  0  0  0  0  0  0  0  0
  147.9218  142.5366  154.7255 H   0  0  0  0  0  0  0  0  0  0  0  0
  149.9868  141.2198  154.6324 H   0  0  0  0  0  0  0  0  0  0  0  0
  149.4359  140.3760  153.1350 H   0  0  0  0  0  0  0  0  0  0  0  0
  1  2  3  0  0  0  0
  2  3  1  0  0  0  0
  3 21  1  0  0  0  0
  3  4  2  0  0  0  0
  4  5  1  0  0  0  0
  4 23  1  0  0  0  0
  5  6  1  0  0  0  0
  5  9  1  0  0  0  0
  6  8  1  0  0  0  0
  6  7  1  0  0  0  0
  6 24  1  0  0  0  0
  7  8  1  0  0  0  0
  7 25  1  0  0  0  0
  7 26  1  0  0  0  0
  8 27  1  0  0  0  0
  8 28  1  0  0  0  0
  9 10  2  0  0  0  0
  9 11  1  0  0  0  0
 11 12  1  0  0  0  0
 11 21  1  0  0  0  0
 12 13  1  0  0  0  0
 12 29  1  0  0  0  0
 12 30  1  0  0  0  0
 13 14  2  0  0  0  0
 13 15  1  0  0  0  0
 15 16  1  0  0  0  0
 15 31  1  0  0  0  0
 16 17  1  0  0  0  0
 16 32  1  0  0  0  0
 16 33  1  0  0  0  0
 17 20  1  0  0  0  0
 17 18  1  0  0  0  0
 17 34  1  0  0  0  0
 18 19  1  0  0  0  0
 18 35  1  0  0  0  0
 18 36  1  0  0  0  0
 19 20  1  0  0  0  0
 19 37  1  0  0  0  0
 19 38  1  0  0  0  0
 20 39  1  0  0  0  0
 20 40  1  0  0  0  0
 21 22  2  0  0  0  0
M  END
> <s_m_source_file>
AV-unprocessed.smi

> <i_m_source_file_index>
2870

> <i_lp_mmshare_version>
43012

> <i_f3d_flags>
0

> <s_epik_input>
TiNDYzFbY0hdbihbQ0hdMltDSDJdW0NIMl0yKWMoPU8pbihjMT1PKVtDSDJdQyg9TylbTkhdW0NIMl1bQ0hdM1tDSDJdW0NIMl1bQ0gyXTM=

> <s_epik_cmdline>
J2VwaWtfcHl0aG9uJywgJy1waCcsICc3LjAnLCAnLXRuJywgJzgnLCAnLW1hJywgJzIwMCcsICctbWV0YWxfYmluZGluZycsICctaW1hZScsICc8aW5maWxlLm1hZT4nLCAnLW9tYWUnLCAnPG91dGZpbGUubWFlPic=

> <r_lp_tautomer_probability>
1

> <r_epik_Ionization_Penalty>
1.93838e-08

> <r_epik_Ionization_Penalty_Charging>
8.20545e-11

> <r_epik_Ionization_Penalty_Neutral>
1.93017e-08

> <r_epik_State_Penalty>
-0

> <r_epik_Charging_Adjusted_Penalty>
8.20545e-11

> <i_epik_Tot_Q>
0

> <i_epik_Tot_abs_Q>
0

> <r_epik_Metal_State_Penalty>
-0

> <b_epik_Metal_Only>
0

> <s_lp_Force_Field>
OPLS_2005

> <r_lp_Energy>
38.3845

> <b_lp_Chiralities_Consistent>
1

> <s_lp_Variant>
AV-unprocessed.smi:2870-1

> <Gold.Version>
5.8.1

> <Gold.Id.Protein>
6NUR|6NUR_protein|mol2

> <Gold.PLP.Fitness>
43.0421

> <Gold.PLP.PLP>
-36.2897

> <Gold.PLP.part.hbond>
-2.3609

> <Gold.PLP.part.metal>
0.0000

> <Gold.PLP.part.buried>
-5.8340

> <Gold.PLP.part.nonpolar>
-29.6147

> <Gold.PLP.part.repulsive>
2.3973

> <Gold.PLP.ligand.clash>
0.0000

> <Gold.PLP.ligand.torsion>
0.6118

> <Gold.PLP.Chemscore.Hbond>
1.9280

> <Gold.PLP.Chemscore.CHOScore>
0.6358

> <Gold.PLP.Chemscore.Metal>
0.0000

> <Gold.Chemscore.Hbonds>
donor molecule, donor type, donor heavy atom, donor atom, acceptor molecule, acceptor atom, score
      L1  H    15    31       P1  7948  0.93
      P1  H 11000 11005       L1     1  1.00
      L1  C     4    23       P1 10957  0.63

> <Gold.PLP.Chemscore.Internal.Correction>
0.2846

> <Gold.Rescore>
     Score         DG    S(hbond)    S(metal)    S(lipo)     H(rot)  DE(clash)    DE(int)     intcor
      8.19     -14.08       1.61        0.00      70.97       1.98       0.51       5.38       ----

> <Gold.Chemscore.Fitness>
8.1920

> <Gold.Chemscore.DG>
-14.0826

> <Gold.Chemscore.ZeroCoef>
-5.4800

> <Gold.Chemscore.Hbond>
1.6063

> <Gold.Chemscore.Metal>
0.0000

> <Gold.Chemscore.Lipo>
70.9730

> <Gold.Chemscore.Internal_Hbond>
0.0000

> <Gold.Chemscore.DEClash>
0.5101

> <Gold.Chemscore.DEInternal>
5.3805

> <Gold.Chemscore.Rot>
1.9791

> <Gold.Chemscore.Internal.Correction>
   9.000000E+99

> <Gold.Chemscore.Hbonds>
donor molecule, donor type, donor heavy atom, donor atom, acceptor molecule, acceptor atom, score
      L1  H    15    31       P1  7948  0.91
      P1  H 11000 11005       L1     1  0.87

> <Gold.Chemscore.Hbond.Weighted>
-5.3652

> <Gold.Chemscore.Metal.Weighted>
-0.0000

> <Gold.Chemscore.Lipo.Weighted>
-8.3038

> <Gold.Chemscore.Internal_Hbond.Weighted>
0.0000

> <Gold.Chemscore.DEClash.Weighted>
0.5101

> <Gold.Chemscore.DEInternal.Weighted>
5.3805

> <Gold.Chemscore.Rot.Weighted>
5.0665

> <Gold.Chemscore.Internal.Correction.Weighted>
   9.000000E+99

> <Gold.Protein.RotatedTorsions>
[ 6907 6896 6895 6894 ] final  141.80 input  -60.11 | X-H torsion
[ 7974 7965 7964 7962 ] final   30.36 input  175.53 | X-H torsion
[ 8008 7997 7996 7995 ] final  -91.32 input   59.86 | X-H torsion
[ 10167 10162 10161 10158 ] final -103.12 input  -65.29 | X-H torsion
[ 10718 10713 10712 10709 ] final -124.62 input   66.30 | X-H torsion
[ 10763 10752 10751 10750 ] final  -77.03 input  -60.55 | X-H torsion
[ 11005 11000 10999 10996 ] final   32.96 input  -57.11 | X-H torsion

> <Gold.Protein.ActiveResidues>
 VAL166  LYS551  ARG553  GLY616  TRP617  ASP618  TYR619  PRO620  LYS621  CYS622 
 ASP623  PHE694  ASN695  SER759  ASP760  ASP761  ALA762  ILE779  LEU786  VAL792 
 PHE793  MET794  SER795  GLU796  ALA797  LYS798  CYS799  TRP800  GLU811  SER814 

> <Gold.Protein.RotatedAtoms>
  152.2265  133.5024  159.5191 H   0  0  0  0  0  0  0  0  0  0  0  0  # atno 6907 bound_to 6896
  150.7026  134.1273  159.4066 H   0  0  0  0  0  0  0  0  0  0  0  0  # atno 6908 bound_to 6896
  151.9194  135.0305  160.0571 H   0  0  0  0  0  0  0  0  0  0  0  0  # atno 6909 bound_to 6896
  146.1616  139.6798  142.9029 H   0  0  0  0  0  0  0  0  0  0  0  0  # atno 7974 bound_to 7965
  154.7093  140.0521  157.0534 H   0  0  0  0  0  0  0  0  0  0  0  0  # atno 8008 bound_to 7997
  155.0577  140.3186  155.4652 H   0  0  0  0  0  0  0  0  0  0  0  0  # atno 8009 bound_to 7997
  156.2784  140.2104  156.5703 H   0  0  0  0  0  0  0  0  0  0  0  0  # atno 8010 bound_to 7997
  140.2233  143.3659  152.0950 H   0  0  0  0  0  0  0  0  0  0  0  0  # atno 10167 bound_to 10162
  156.1603  130.6597  151.0041 H   0  0  0  0  0  0  0  0  0  0  0  0  # atno 10718 bound_to 10713
  154.5076  135.5778  153.6579 H   0  0  0  0  0  0  0  0  0  0  0  0  # atno 10763 bound_to 10752
  152.9890  135.6151  154.2921 H   0  0  0  0  0  0  0  0  0  0  0  0  # atno 10764 bound_to 10752
  154.2833  135.2850  155.2667 H   0  0  0  0  0  0  0  0  0  0  0  0  # atno 10765 bound_to 10752
  140.2681  134.3114  155.7836 H   0  0  0  0  0  0  0  0  0  0  0  0  # atno 11005 bound_to 11000
  145.4573  141.0431  143.2771 LP  0  0  0  0  0  0  0  0  0  0  0  0  # atno 17320 bound_to 7965
  144.8035  139.6096  143.7061 LP  0  0  0  0  0  0  0  0  0  0  0  0  # atno 17321 bound_to 7965
  139.5136  144.6935  151.5695 LP  0  0  0  0  0  0  0  0  0  0  0  0  # atno 17342 bound_to 10162
  140.6239  143.9206  150.6548 LP  0  0  0  0  0  0  0  0  0  0  0  0  # atno 17343 bound_to 10162
  157.6727  131.0857  150.7571 LP  0  0  0  0  0  0  0  0  0  0  0  0  # atno 17370 bound_to 10713
  156.7634  130.4806  149.5432 LP  0  0  0  0  0  0  0  0  0  0  0  0  # atno 17371 bound_to 10713
  141.2181  133.7450  156.9291 LP  0  0  0  0  0  0  0  0  0  0  0  0  # atno 17394 bound_to 11000
  140.1400  134.9300  157.2454 LP  0  0  0  0  0  0  0  0  0  0  0  0  # atno 17395 bound_to 11000

$$$$
