AV-unprocessed.smi:2083|AV-procd|sdf|8499|dock8
  -GOLD-   2272011213D 1   1.00000     0.00000
 Structure written by MMmdl.
 44 45  0  0  0  0  0  0  0  0  3 V2000
  146.0803  134.5797  162.7390 C   0  0  0  0  0  0  0  0  0  0  0  0
  146.9928  135.3275  161.8283 C   0  0  0  0  0  0  0  0  0  0  0  0
  147.8372  134.9312  160.8302 C   0  0  0  0  0  0  0  0  0  0  0  0
  148.4067  136.1542  160.3819 C   0  0  0  0  0  0  0  0  0  0  0  0
  149.3027  136.2924  159.3927 N   0  5  0  0  0  0  0  0  0  0  0  0
  148.9953  137.0159  158.2925 C   0  0  0  0  0  0  0  0  0  0  0  0
  148.6442  138.1979  158.2671 O   0  0  0  0  0  0  0  0  0  0  0  0
  149.1082  136.3283  157.1472 N   0  0  0  0  0  0  0  0  0  0  0  0
  148.8602  136.8559  155.8087 C   0  0  0  0  0  0  0  0  0  0  0  0
  147.5664  136.2832  155.1643 C   0  0  1  0  0  0  0  0  0  0  0  0
  146.7592  137.4155  154.4898 C   0  0  0  0  0  0  0  0  0  0  0  0
  147.8039  135.1739  154.1824 N   0  3  1  0  0  0  0  0  0  0  0  0
  148.6578  134.0481  154.6620 C   0  0  0  0  0  0  0  0  0  0  0  0
  148.9386  133.0319  153.5423 C   0  0  0  0  0  0  0  0  0  0  0  0
  147.6391  132.4991  152.9326 C   0  0  0  0  0  0  0  0  0  0  0  0
  146.7717  133.6701  152.4494 C   0  0  1  0  0  0  0  0  0  0  0  0
  145.4503  133.1752  151.8445 C   0  0  0  0  0  0  0  0  0  0  0  0
  146.5279  134.6573  153.6073 C   0  0  0  0  0  0  0  0  0  0  0  0
  147.9359  137.2016  161.0377 N   0  0  0  0  0  0  0  0  0  0  0  0
  147.0324  136.6794  161.9709 O   0  0  0  0  0  0  0  0  0  0  0  0
  145.2467  134.1522  162.1821 H   0  0  0  0  0  0  0  0  0  0  0  0
  145.6719  135.2331  163.5104 H   0  0  0  0  0  0  0  0  0  0  0  0
  146.6113  133.7661  163.2332 H   0  0  0  0  0  0  0  0  0  0  0  0
  148.0221  133.9271  160.4793 H   0  0  0  0  0  0  0  0  0  0  0  0
  149.3924  135.3617  157.2143 H   0  0  0  0  0  0  0  0  0  0  0  0
  148.7935  137.9415  155.8875 H   0  0  0  0  0  0  0  0  0  0  0  0
  149.7415  136.6363  155.2047 H   0  0  0  0  0  0  0  0  0  0  0  0
  146.9630  135.8718  155.9751 H   0  0  0  0  0  0  0  0  0  0  0  0
  146.5036  138.2053  155.1965 H   0  0  0  0  0  0  0  0  0  0  0  0
  145.8156  137.0686  154.0725 H   0  0  0  0  0  0  0  0  0  0  0  0
  147.3279  137.8720  153.6792 H   0  0  0  0  0  0  0  0  0  0  0  0
  149.6261  134.4124  155.0026 H   0  0  0  0  0  0  0  0  0  0  0  0
  148.1759  133.5569  155.5091 H   0  0  0  0  0  0  0  0  0  0  0  0
  149.5413  133.5026  152.7645 H   0  0  0  0  0  0  0  0  0  0  0  0
  149.5317  132.2040  153.9323 H   0  0  0  0  0  0  0  0  0  0  0  0
  147.8657  131.8255  152.1053 H   0  0  0  0  0  0  0  0  0  0  0  0
  147.0970  131.9123  153.6759 H   0  0  0  0  0  0  0  0  0  0  0  0
  147.3155  134.1964  151.6633 H   0  0  0  0  0  0  0  0  0  0  0  0
  144.8515  132.6398  152.5822 H   0  0  0  0  0  0  0  0  0  0  0  0
  145.6301  132.4991  151.0082 H   0  0  0  0  0  0  0  0  0  0  0  0
  144.8525  134.0071  151.4712 H   0  0  0  0  0  0  0  0  0  0  0  0
  145.9491  134.1726  154.3957 H   0  0  0  0  0  0  0  0  0  0  0  0
  145.9152  135.4779  153.2378 H   0  0  0  0  0  0  0  0  0  0  0  0
  148.3183  135.5919  153.4205 H   0  0  0  0  0  0  0  0  0  0  0  0
  1  2  1  0  0  0  0
  1 21  1  0  0  0  0
  1 22  1  0  0  0  0
  1 23  1  0  0  0  0
  2 20  1  0  0  0  0
  2  3  2  0  0  0  0
  3  4  1  0  0  0  0
  3 24  1  0  0  0  0
  4  5  1  0  0  0  0
  4 19  2  0  0  0  0
  5  6  1  0  0  0  0
  6  7  2  0  0  0  0
  6  8  1  0  0  0  0
  8  9  1  0  0  0  0
  8 25  1  0  0  0  0
  9 10  1  0  0  0  0
  9 26  1  0  0  0  0
  9 27  1  0  0  0  0
 10 11  1  0  0  0  0
 10 12  1  0  0  0  0
 10 28  1  0  0  0  0
 11 29  1  0  0  0  0
 11 30  1  0  0  0  0
 11 31  1  0  0  0  0
 12 18  1  0  0  0  0
 12 13  1  0  0  0  0
 12 44  1  0  0  0  0
 13 14  1  0  0  0  0
 13 32  1  0  0  0  0
 13 33  1  0  0  0  0
 14 15  1  0  0  0  0
 14 34  1  0  0  0  0
 14 35  1  0  0  0  0
 15 16  1  0  0  0  0
 15 36  1  0  0  0  0
 15 37  1  0  0  0  0
 16 17  1  0  0  0  0
 16 18  1  0  0  0  0
 16 38  1  0  0  0  0
 17 39  1  0  0  0  0
 17 40  1  0  0  0  0
 17 41  1  0  0  0  0
 18 42  1  0  0  0  0
 18 43  1  0  0  0  0
 19 20  1  0  0  0  0
M  CHG  1   5  -1
M  CHG  1  12   1
M  END
> <s_m_source_file>
AV-unprocessed.smi

> <i_m_source_file_index>
2083

> <i_lp_mmshare_version>
43012

> <i_f3d_flags>
0

> <s_epik_input>
W0NIM11jMVtjSF1jKG5vMSlbTkhdQyg9TylbTkhdW0NIMl1bQ0BIXShbQ0gzXSlOMltDSDJdW0NIMl1bQ0gyXVtDQEBIXShbQ0gzXSlbQ0gyXTI=

> <s_epik_cmdline>
J2VwaWtfcHl0aG9uJywgJy1waCcsICc3LjAnLCAnLXRuJywgJzgnLCAnLW1hJywgJzIwMCcsICctbWV0YWxfYmluZGluZycsICctaW1hZScsICc8aW5maWxlLm1hZT4nLCAnLW9tYWUnLCAnPG91dGZpbGUubWFlPic=

> <r_epik_Ionization_Penalty>
6.22434

> <r_epik_Ionization_Penalty_Charging>
6.22425

> <r_epik_Ionization_Penalty_Neutral>
9.62407e-05

> <r_epik_State_Penalty>
6.22423

> <r_epik_Charging_Adjusted_Penalty>
12.4485

> <i_epik_Tot_Q>
0

> <i_epik_Tot_abs_Q>
2

> <r_epik_Metal_State_Penalty>
2.16764

> <b_epik_Metal_Only>
1

> <s_lp_Force_Field>
OPLS_2005

> <r_lp_Energy>
9.18004

> <b_lp_Chiralities_Consistent>
1

> <s_lp_Variant>
AV-unprocessed.smi:2083-10

> <Gold.Version>
5.8.1

> <Gold.Id.Protein>
6NUR|6NUR_protein|mol2

> <Gold.PLP.Fitness>
43.0186

> <Gold.PLP.PLP>
-29.2303

> <Gold.PLP.part.hbond>
-3.9884

> <Gold.PLP.part.metal>
0.0000

> <Gold.PLP.part.buried>
-2.9876

> <Gold.PLP.part.nonpolar>
-22.6131

> <Gold.PLP.part.repulsive>
0.0436

> <Gold.PLP.ligand.clash>
0.0000

> <Gold.PLP.ligand.torsion>
1.7811

> <Gold.PLP.Chemscore.Hbond>
5.7533

> <Gold.PLP.Chemscore.CHOScore>
0.0000

> <Gold.PLP.Chemscore.Metal>
0.0000

> <Gold.Chemscore.Hbonds>
donor molecule, donor type, donor heavy atom, donor atom, acceptor molecule, acceptor atom, score
      L1  H    12    44       P1  7948  2.00
      P1  H  6896  6909       L1     5  1.59
      P1  H  6931  6943       L1    19  0.94
      P1  H  6934  6947       L1    19  0.68

> <Gold.PLP.Chemscore.Internal.Correction>
0.0907

> <Gold.Rescore>
     Score         DG    S(hbond)    S(metal)    S(lipo)     H(rot)  DE(clash)    DE(int)     intcor
     16.67     -18.59       3.03        0.00      58.74       1.52       0.01       1.91       ----

> <Gold.Chemscore.Fitness>
16.6725

> <Gold.Chemscore.DG>
-18.5933

> <Gold.Chemscore.ZeroCoef>
-5.4800

> <Gold.Chemscore.Hbond>
3.0327

> <Gold.Chemscore.Metal>
0.0000

> <Gold.Chemscore.Lipo>
58.7413

> <Gold.Chemscore.Internal_Hbond>
0.0000

> <Gold.Chemscore.DEClash>
0.0098

> <Gold.Chemscore.DEInternal>
1.9109

> <Gold.Chemscore.Rot>
1.5190

> <Gold.Chemscore.Internal.Correction>
   9.000000E+99

> <Gold.Chemscore.Hbonds>
donor molecule, donor type, donor heavy atom, donor atom, acceptor molecule, acceptor atom, score
      L1  H    12    44       P1  7948  1.00
      P1  H  6896  6909       L1     5  0.51
      P1  H  6931  6943       L1    19  0.58
      P1  H  6934  6947       L1    19  0.13

> <Gold.Chemscore.Hbond.Weighted>
-10.1292

> <Gold.Chemscore.Metal.Weighted>
-0.0000

> <Gold.Chemscore.Lipo.Weighted>
-6.8727

> <Gold.Chemscore.Internal_Hbond.Weighted>
0.0000

> <Gold.Chemscore.DEClash.Weighted>
0.0098

> <Gold.Chemscore.DEInternal.Weighted>
1.9109

> <Gold.Chemscore.Rot.Weighted>
3.8886

> <Gold.Chemscore.Internal.Correction.Weighted>
   9.000000E+99

> <Gold.Protein.RotatedTorsions>
[ 6907 6896 6895 6894 ] final   71.25 input  -60.11 | X-H torsion
[ 7974 7965 7964 7962 ] final  -89.76 input  175.53 | X-H torsion
[ 8008 7997 7996 7995 ] final  158.24 input   59.86 | X-H torsion
[ 10167 10162 10161 10158 ] final  113.58 input  -65.29 | X-H torsion
[ 10718 10713 10712 10709 ] final   42.14 input   66.30 | X-H torsion
[ 10763 10752 10751 10750 ] final  -36.56 input  -60.55 | X-H torsion
[ 11005 11000 10999 10996 ] final  -83.26 input  -57.11 | X-H torsion

> <Gold.Protein.ActiveResidues>
 VAL166  LYS551  ARG553  GLY616  TRP617  ASP618  TYR619  PRO620  LYS621  CYS622 
 ASP623  PHE694  ASN695  SER759  ASP760  ASP761  ALA762  ILE779  LEU786  VAL792 
 PHE793  MET794  SER795  GLU796  ALA797  LYS798  CYS799  TRP800  GLU811  SER814 

> <Gold.Protein.RotatedAtoms>
  152.4799  134.4747  159.9646 H   0  0  0  0  0  0  0  0  0  0  0  0  # atno 6907 bound_to 6896
  151.4755  133.3553  159.2838 H   0  0  0  0  0  0  0  0  0  0  0  0  # atno 6908 bound_to 6896
  150.8864  134.8288  159.7323 H   0  0  0  0  0  0  0  0  0  0  0  0  # atno 6909 bound_to 6896
  145.4355  140.9557  143.2104 H   0  0  0  0  0  0  0  0  0  0  0  0  # atno 7974 bound_to 7965
  156.2315  140.1863  156.7231 H   0  0  0  0  0  0  0  0  0  0  0  0  # atno 8008 bound_to 7997
  154.6030  140.0633  156.9422 H   0  0  0  0  0  0  0  0  0  0  0  0  # atno 8009 bound_to 7997
  155.2142  140.3302  155.4327 H   0  0  0  0  0  0  0  0  0  0  0  0  # atno 8010 bound_to 7997
  139.6451  144.7126  151.2159 H   0  0  0  0  0  0  0  0  0  0  0  0  # atno 10167 bound_to 10162
  157.4015  130.7863  149.7352 H   0  0  0  0  0  0  0  0  0  0  0  0  # atno 10718 bound_to 10713
  153.8817  135.6821  153.4766 H   0  0  0  0  0  0  0  0  0  0  0  0  # atno 10763 bound_to 10752
  153.1230  135.4731  154.9224 H   0  0  0  0  0  0  0  0  0  0  0  0  # atno 10764 bound_to 10752
  154.7665  135.3226  154.8227 H   0  0  0  0  0  0  0  0  0  0  0  0  # atno 10765 bound_to 10752
  141.1659  133.7285  156.8693 H   0  0  0  0  0  0  0  0  0  0  0  0  # atno 11005 bound_to 11000
  144.8155  139.5885  143.7010 LP  0  0  0  0  0  0  0  0  0  0  0  0  # atno 17320 bound_to 7965
  146.2584  139.6354  142.9379 LP  0  0  0  0  0  0  0  0  0  0  0  0  # atno 17321 bound_to 7965
  140.7510  143.6245  150.8481 LP  0  0  0  0  0  0  0  0  0  0  0  0  # atno 17342 bound_to 10162
  139.9887  143.5871  152.2918 LP  0  0  0  0  0  0  0  0  0  0  0  0  # atno 17343 bound_to 10162
  155.9824  130.4009  150.3416 LP  0  0  0  0  0  0  0  0  0  0  0  0  # atno 17370 bound_to 10713
  157.1544  131.0329  151.2870 LP  0  0  0  0  0  0  0  0  0  0  0  0  # atno 17371 bound_to 10713
  140.1793  134.9045  157.2929 LP  0  0  0  0  0  0  0  0  0  0  0  0  # atno 17394 bound_to 11000
  140.2413  134.3792  155.7479 LP  0  0  0  0  0  0  0  0  0  0  0  0  # atno 17395 bound_to 11000

$$$$
