AV-unprocessed.smi:2083|AV-procd|sdf|8510|dock4
  -GOLD-   2272011223D 1   1.00000     0.00000
 Structure written by MMmdl.
 44 45  0  0  0  0  0  0  0  0  3 V2000
  146.9894  135.5488  163.2510 C   0  0  0  0  0  0  0  0  0  0  0  0
  147.4369  135.5481  161.8298 C   0  0  0  0  0  0  0  0  0  0  0  0
  147.2553  134.6718  160.7972 C   0  0  0  0  0  0  0  0  0  0  0  0
  147.9486  135.2919  159.7237 C   0  0  0  0  0  0  0  0  0  0  0  0
  147.9939  134.6810  158.4425 N   0  0  0  0  0  0  0  0  0  0  0  0
  149.0160  134.6304  157.5685 C   0  0  0  0  0  0  0  0  0  0  0  0
  150.1031  135.1499  157.8479 O   0  0  0  0  0  0  0  0  0  0  0  0
  148.6831  133.9702  156.4256 N   0  5  0  0  0  0  0  0  0  0  0  0
  148.0351  134.5906  155.2713 C   0  0  0  0  0  0  0  0  0  0  0  0
  147.9074  133.5736  154.1067 C   0  0  2  0  0  0  0  0  0  0  0  0
  149.2606  133.0351  153.5763 C   0  0  0  0  0  0  0  0  0  0  0  0
  147.0378  134.1283  153.0222 N   0  3  1  0  0  0  0  0  0  0  0  0
  146.7996  133.2385  151.8475 C   0  0  0  0  0  0  0  0  0  0  0  0
  146.1257  134.0129  150.7051 C   0  0  0  0  0  0  0  0  0  0  0  0
  144.8139  134.6556  151.1786 C   0  0  0  0  0  0  0  0  0  0  0  0
  145.0332  135.5171  152.4364 C   0  0  2  0  0  0  0  0  0  0  0  0
  145.7407  136.8489  152.1286 C   0  0  0  0  0  0  0  0  0  0  0  0
  145.7652  134.7105  153.5295 C   0  0  0  0  0  0  0  0  0  0  0  0
  148.5042  136.4431  160.0718 N   0  0  0  0  0  0  0  0  0  0  0  0
  148.1790  136.6132  161.4227 O   0  0  0  0  0  0  0  0  0  0  0  0
  146.4909  134.6127  163.5033 H   0  0  0  0  0  0  0  0  0  0  0  0
  146.2900  136.3644  163.4340 H   0  0  0  0  0  0  0  0  0  0  0  0
  147.8381  135.6721  163.9238 H   0  0  0  0  0  0  0  0  0  0  0  0
  146.7126  133.7384  160.8088 H   0  0  0  0  0  0  0  0  0  0  0  0
  147.1416  134.2304  158.1451 H   0  0  0  0  0  0  0  0  0  0  0  0
  147.0355  134.9446  155.5283 H   0  0  0  0  0  0  0  0  0  0  0  0
  148.5770  135.4702  154.9216 H   0  0  0  0  0  0  0  0  0  0  0  0
  147.3775  132.7173  154.5274 H   0  0  0  0  0  0  0  0  0  0  0  0
  149.8115  132.4929  154.3468 H   0  0  0  0  0  0  0  0  0  0  0  0
  149.9162  133.8256  153.2070 H   0  0  0  0  0  0  0  0  0  0  0  0
  149.1035  132.3319  152.7580 H   0  0  0  0  0  0  0  0  0  0  0  0
  147.7387  132.8194  151.4850 H   0  0  0  0  0  0  0  0  0  0  0  0
  146.1685  132.3974  152.1375 H   0  0  0  0  0  0  0  0  0  0  0  0
  146.8045  134.7784  150.3278 H   0  0  0  0  0  0  0  0  0  0  0  0
  145.9274  133.3420  149.8688 H   0  0  0  0  0  0  0  0  0  0  0  0
  144.3721  135.2501  150.3782 H   0  0  0  0  0  0  0  0  0  0  0  0
  144.0948  133.8673  151.4053 H   0  0  0  0  0  0  0  0  0  0  0  0
  144.0487  135.7770  152.8271 H   0  0  0  0  0  0  0  0  0  0  0  0
  146.7541  136.6964  151.7570 H   0  0  0  0  0  0  0  0  0  0  0  0
  145.8096  137.4700  153.0221 H   0  0  0  0  0  0  0  0  0  0  0  0
  145.1941  137.4188  151.3769 H   0  0  0  0  0  0  0  0  0  0  0  0
  145.1244  133.9055  153.8924 H   0  0  0  0  0  0  0  0  0  0  0  0
  145.9586  135.3630  154.3820 H   0  0  0  0  0  0  0  0  0  0  0  0
  147.5602  134.9174  152.6686 H   0  0  0  0  0  0  0  0  0  0  0  0
  1  2  1  0  0  0  0
  1 21  1  0  0  0  0
  1 22  1  0  0  0  0
  1 23  1  0  0  0  0
  2 20  1  0  0  0  0
  2  3  2  0  0  0  0
  3  4  1  0  0  0  0
  3 24  1  0  0  0  0
  4  5  1  0  0  0  0
  4 19  2  0  0  0  0
  5  6  1  0  0  0  0
  5 25  1  0  0  0  0
  6  7  2  0  0  0  0
  6  8  1  0  0  0  0
  8  9  1  0  0  0  0
  9 10  1  0  0  0  0
  9 26  1  0  0  0  0
  9 27  1  0  0  0  0
 10 11  1  0  0  0  0
 10 12  1  0  0  0  0
 10 28  1  0  0  0  0
 11 29  1  0  0  0  0
 11 30  1  0  0  0  0
 11 31  1  0  0  0  0
 12 18  1  0  0  0  0
 12 13  1  0  0  0  0
 12 44  1  0  0  0  0
 13 14  1  0  0  0  0
 13 32  1  0  0  0  0
 13 33  1  0  0  0  0
 14 15  1  0  0  0  0
 14 34  1  0  0  0  0
 14 35  1  0  0  0  0
 15 16  1  0  0  0  0
 15 36  1  0  0  0  0
 15 37  1  0  0  0  0
 16 17  1  0  0  0  0
 16 18  1  0  0  0  0
 16 38  1  0  0  0  0
 17 39  1  0  0  0  0
 17 40  1  0  0  0  0
 17 41  1  0  0  0  0
 18 42  1  0  0  0  0
 18 43  1  0  0  0  0
 19 20  1  0  0  0  0
M  CHG  1   8  -1
M  CHG  1  12   1
M  END
> <s_m_source_file>
AV-unprocessed.smi

> <i_m_source_file_index>
2083

> <i_lp_mmshare_version>
43012

> <i_f3d_flags>
0

> <s_epik_input>
W0NIM11jMVtjSF1jKG5vMSlbTkhdQyg9TylbTkhdW0NIMl1bQ0BIXShbQ0gzXSlOMltDSDJdW0NIMl1bQ0gyXVtDQEBIXShbQ0gzXSlbQ0gyXTI=

> <s_epik_cmdline>
J2VwaWtfcHl0aG9uJywgJy1waCcsICc3LjAnLCAnLXRuJywgJzgnLCAnLW1hJywgJzIwMCcsICctbWV0YWxfYmluZGluZycsICctaW1hZScsICc8aW5maWxlLm1hZT4nLCAnLW9tYWUnLCAnPG91dGZpbGUubWFlPic=

> <r_epik_Ionization_Penalty>
6.76934

> <r_epik_Ionization_Penalty_Charging>
6.76934

> <r_epik_Ionization_Penalty_Neutral>
5.77849e-06

> <r_epik_State_Penalty>
6.79457

> <r_epik_Charging_Adjusted_Penalty>
13.5639

> <i_epik_Tot_Q>
0

> <i_epik_Tot_abs_Q>
2

> <r_epik_Metal_State_Penalty>
2.72837

> <b_epik_Metal_Only>
1

> <s_lp_Force_Field>
OPLS_2005

> <r_lp_Energy>
20.9735

> <b_lp_Chiralities_Consistent>
1

> <s_lp_Variant>
AV-unprocessed.smi:2083-21

> <Gold.Version>
5.8.1

> <Gold.Id.Protein>
6NUR|6NUR_protein|mol2

> <Gold.PLP.Fitness>
38.8560

> <Gold.PLP.PLP>
-29.5842

> <Gold.PLP.part.hbond>
-4.2499

> <Gold.PLP.part.metal>
0.0000

> <Gold.PLP.part.buried>
-4.4475

> <Gold.PLP.part.nonpolar>
-22.3900

> <Gold.PLP.part.repulsive>
0.0651

> <Gold.PLP.ligand.clash>
0.0000

> <Gold.PLP.ligand.torsion>
1.1276

> <Gold.PLP.Chemscore.Hbond>
3.7806

> <Gold.PLP.Chemscore.CHOScore>
0.0000

> <Gold.PLP.Chemscore.Metal>
0.0000

> <Gold.Chemscore.Hbonds>
donor molecule, donor type, donor heavy atom, donor atom, acceptor molecule, acceptor atom, score
      L1  H    12    44       P1  7948  1.92
      P1  H  6896  6908       L1     7  0.74
      P1  H  6931  6943       L1    20  1.00

> <Gold.PLP.Chemscore.Internal.Correction>
0.1852

> <Gold.Rescore>
     Score         DG    S(hbond)    S(metal)    S(lipo)     H(rot)  DE(clash)    DE(int)     intcor
     15.87     -18.61       2.74        0.00      67.20       1.52       0.54       2.20       ----

> <Gold.Chemscore.Fitness>
15.8722

> <Gold.Chemscore.DG>
-18.6084

> <Gold.Chemscore.ZeroCoef>
-5.4800

> <Gold.Chemscore.Hbond>
2.7410

> <Gold.Chemscore.Metal>
0.0000

> <Gold.Chemscore.Lipo>
67.1971

> <Gold.Chemscore.Internal_Hbond>
0.0000

> <Gold.Chemscore.DEClash>
0.5353

> <Gold.Chemscore.DEInternal>
2.2010

> <Gold.Chemscore.Rot>
1.5190

> <Gold.Chemscore.Internal.Correction>
   9.000000E+99

> <Gold.Chemscore.Hbonds>
donor molecule, donor type, donor heavy atom, donor atom, acceptor molecule, acceptor atom, score
      L1  H    12    44       P1  7948  0.88
      P1  H  6896  6908       L1     7  0.58
      P1  H  6931  6943       L1    20  0.45

> <Gold.Chemscore.Hbond.Weighted>
-9.1550

> <Gold.Chemscore.Metal.Weighted>
-0.0000

> <Gold.Chemscore.Lipo.Weighted>
-7.8621

> <Gold.Chemscore.Internal_Hbond.Weighted>
0.0000

> <Gold.Chemscore.DEClash.Weighted>
0.5353

> <Gold.Chemscore.DEInternal.Weighted>
2.2010

> <Gold.Chemscore.Rot.Weighted>
3.8886

> <Gold.Chemscore.Internal.Correction.Weighted>
   9.000000E+99

> <Gold.Protein.RotatedTorsions>
[ 6907 6896 6895 6894 ] final  171.66 input  -60.11 | X-H torsion
[ 7974 7965 7964 7962 ] final -175.98 input  175.53 | X-H torsion
[ 8008 7997 7996 7995 ] final  146.87 input   59.86 | X-H torsion
[ 10167 10162 10161 10158 ] final -110.95 input  -65.29 | X-H torsion
[ 10718 10713 10712 10709 ] final  -65.32 input   66.30 | X-H torsion
[ 10763 10752 10751 10750 ] final   14.44 input  -60.55 | X-H torsion
[ 11005 11000 10999 10996 ] final  -64.78 input  -57.11 | X-H torsion

> <Gold.Protein.ActiveResidues>
 VAL166  LYS551  ARG553  GLY616  TRP617  ASP618  TYR619  PRO620  LYS621  CYS622 
 ASP623  PHE694  ASN695  SER759  ASP760  ASP761  ALA762  ILE779  LEU786  VAL792 
 PHE793  MET794  SER795  GLU796  ALA797  LYS798  CYS799  TRP800  GLU811  SER814 

> <Gold.Protein.RotatedAtoms>
  151.7967  133.3365  159.3514 H   0  0  0  0  0  0  0  0  0  0  0  0  # atno 6907 bound_to 6896
  150.7373  134.5792  159.5939 H   0  0  0  0  0  0  0  0  0  0  0  0  # atno 6908 bound_to 6896
  152.3172  134.7426  160.0374 H   0  0  0  0  0  0  0  0  0  0  0  0  # atno 6909 bound_to 6896
  144.7127  140.1240  143.6403 H   0  0  0  0  0  0  0  0  0  0  0  0  # atno 7974 bound_to 7965
  156.2842  140.2171  156.5446 H   0  0  0  0  0  0  0  0  0  0  0  0  # atno 8008 bound_to 7997
  154.7341  140.0493  157.0775 H   0  0  0  0  0  0  0  0  0  0  0  0  # atno 8009 bound_to 7997
  155.0315  140.3135  155.4760 H   0  0  0  0  0  0  0  0  0  0  0  0  # atno 8010 bound_to 7997
  140.1389  143.4296  152.1576 H   0  0  0  0  0  0  0  0  0  0  0  0  # atno 10167 bound_to 10162
  156.0676  130.4245  150.1548 H   0  0  0  0  0  0  0  0  0  0  0  0  # atno 10718 bound_to 10713
  153.1622  135.6798  153.8726 H   0  0  0  0  0  0  0  0  0  0  0  0  # atno 10763 bound_to 10752
  153.8118  135.3142  155.3402 H   0  0  0  0  0  0  0  0  0  0  0  0  # atno 10764 bound_to 10752
  154.7940  135.4818  154.0208 H   0  0  0  0  0  0  0  0  0  0  0  0  # atno 10765 bound_to 10752
  141.1435  133.6671  156.5885 H   0  0  0  0  0  0  0  0  0  0  0  0  # atno 11005 bound_to 11000
  145.9346  139.2628  143.1305 LP  0  0  0  0  0  0  0  0  0  0  0  0  # atno 17320 bound_to 7965
  145.9487  140.8925  143.0270 LP  0  0  0  0  0  0  0  0  0  0  0  0  # atno 17321 bound_to 7965
  139.5482  144.7316  151.4517 LP  0  0  0  0  0  0  0  0  0  0  0  0  # atno 17342 bound_to 10162
  140.6772  143.8162  150.7074 LP  0  0  0  0  0  0  0  0  0  0  0  0  # atno 17343 bound_to 10162
  156.9604  130.9803  151.3480 LP  0  0  0  0  0  0  0  0  0  0  0  0  # atno 17370 bound_to 10713
  157.5728  130.8322  149.8414 LP  0  0  0  0  0  0  0  0  0  0  0  0  # atno 17371 bound_to 10713
  140.3781  134.7547  157.4643 LP  0  0  0  0  0  0  0  0  0  0  0  0  # atno 17394 bound_to 11000
  140.0658  134.5931  155.8697 LP  0  0  0  0  0  0  0  0  0  0  0  0  # atno 17395 bound_to 11000

$$$$
