AV-unprocessed.smi:2356|AV-procd|sdf|9393|dock3
  -GOLD-   2272013 23D 1   1.00000     0.00000
 Structure written by MMmdl.
 53 56  0  0  0  0  0  0  0  0  1 V2000
  149.8483  140.3620  154.7337 C   0  0  0  0  0  0  0  0  0  0  0  0
  150.5738  140.2587  156.0647 C   0  0  0  0  0  0  0  0  0  0  0  0
  151.0042  141.4303  156.5799 N   0  0  0  0  0  0  0  0  0  0  0  0
  151.6686  141.4304  157.7587 C   0  0  0  0  0  0  0  0  0  0  0  0
  152.0994  142.6772  158.2547 N   0  0  0  0  0  0  0  0  0  0  0  0
  151.6777  143.9341  157.6578 C   0  0  0  0  0  0  0  0  0  0  0  0
  152.2318  145.0127  158.5881 C   0  0  0  0  0  0  0  0  0  0  0  0
  152.2008  144.3384  159.9592 C   0  0  0  0  0  0  0  0  0  0  0  0
  152.4713  142.8614  159.6521 C   0  0  0  0  0  0  0  0  0  0  0  0
  151.9152  140.2330  158.4696 C   0  0  0  0  0  0  0  0  0  0  0  0
  151.4684  139.0108  157.9331 C   0  0  0  0  0  0  0  0  0  0  0  0
  150.7754  139.0104  156.6994 C   0  0  0  0  0  0  0  0  0  0  0  0
  150.2967  137.8385  156.0491 N   0  0  0  0  0  0  0  0  0  0  0  0
  150.7810  136.5814  156.0510 C   0  0  0  0  0  0  0  0  0  0  0  0
  151.7445  136.1964  156.7088 O   0  0  0  0  0  0  0  0  0  0  0  0
  150.0942  135.7333  155.2632 N   0  0  0  0  0  0  0  0  0  0  0  0
  150.3432  134.3078  155.0315 C   0  0  2  0  0  0  0  0  0  0  0  0
  149.2676  133.7088  154.1107 C   0  0  0  0  0  0  0  0  0  0  0  0
  149.4487  132.1894  153.9794 C   0  0  0  0  0  0  0  0  0  0  0  0
  149.4327  131.5732  155.2651 O   0  0  0  0  0  0  0  0  0  0  0  0
  150.4408  132.0270  156.1693 C   0  0  1  0  0  0  0  0  0  0  0  0
  151.8280  131.5594  155.7473 C   0  0  0  0  0  0  0  0  0  0  0  0
  152.2696  130.1391  156.0081 C   0  0  0  0  0  0  0  0  0  0  0  0
  152.8989  131.2781  156.7751 C   0  0  0  0  0  0  0  0  0  0  0  0
  150.3389  133.5527  156.3695 C   0  0  0  0  0  0  0  0  0  0  0  0
  148.8392  139.9576  154.8182 H   0  0  0  0  0  0  0  0  0  0  0  0
  150.3819  139.8006  153.9661 H   0  0  0  0  0  0  0  0  0  0  0  0
  149.7683  141.3974  154.3997 H   0  0  0  0  0  0  0  0  0  0  0  0
  152.0596  144.0470  156.6427 H   0  0  0  0  0  0  0  0  0  0  0  0
  150.5880  143.9744  157.6275 H   0  0  0  0  0  0  0  0  0  0  0  0
  153.2628  145.2425  158.3155 H   0  0  0  0  0  0  0  0  0  0  0  0
  151.6583  145.9394  158.5542 H   0  0  0  0  0  0  0  0  0  0  0  0
  152.9197  144.7634  160.6600 H   0  0  0  0  0  0  0  0  0  0  0  0
  151.2059  144.4450  160.3934 H   0  0  0  0  0  0  0  0  0  0  0  0
  151.9064  142.2143  160.3244 H   0  0  0  0  0  0  0  0  0  0  0  0
  153.5311  142.6305  159.7653 H   0  0  0  0  0  0  0  0  0  0  0  0
  152.4422  140.2302  159.4119 H   0  0  0  0  0  0  0  0  0  0  0  0
  151.6805  138.1062  158.4794 H   0  0  0  0  0  0  0  0  0  0  0  0
  149.4611  137.9736  155.4993 H   0  0  0  0  0  0  0  0  0  0  0  0
  149.3028  136.1233  154.7715 H   0  0  0  0  0  0  0  0  0  0  0  0
  151.3249  134.1747  154.5750 H   0  0  0  0  0  0  0  0  0  0  0  0
  148.2760  133.9174  154.5151 H   0  0  0  0  0  0  0  0  0  0  0  0
  149.3051  134.1715  153.1241 H   0  0  0  0  0  0  0  0  0  0  0  0
  148.6366  131.7698  153.3856 H   0  0  0  0  0  0  0  0  0  0  0  0
  150.3718  131.9529  153.4500 H   0  0  0  0  0  0  0  0  0  0  0  0
  150.2210  131.5532  157.1268 H   0  0  0  0  0  0  0  0  0  0  0  0
  152.1823  131.9884  154.8125 H   0  0  0  0  0  0  0  0  0  0  0  0
  151.5862  129.4869  156.5482 H   0  0  0  0  0  0  0  0  0  0  0  0
  152.8710  129.6533  155.2424 H   0  0  0  0  0  0  0  0  0  0  0  0
  153.9214  131.5505  156.5218 H   0  0  0  0  0  0  0  0  0  0  0  0
  152.6352  131.3817  157.8258 H   0  0  0  0  0  0  0  0  0  0  0  0
  151.1504  133.9037  157.0083 H   0  0  0  0  0  0  0  0  0  0  0  0
  149.4128  133.7721  156.9034 H   0  0  0  0  0  0  0  0  0  0  0  0
  1  2  1  0  0  0  0
  1 26  1  0  0  0  0
  1 27  1  0  0  0  0
  1 28  1  0  0  0  0
  2 12  1  0  0  0  0
  2  3  2  0  0  0  0
  3  4  1  0  0  0  0
  4  5  1  0  0  0  0
  4 10  2  0  0  0  0
  5  9  1  0  0  0  0
  5  6  1  0  0  0  0
  6  7  1  0  0  0  0
  6 29  1  0  0  0  0
  6 30  1  0  0  0  0
  7  8  1  0  0  0  0
  7 31  1  0  0  0  0
  7 32  1  0  0  0  0
  8  9  1  0  0  0  0
  8 33  1  0  0  0  0
  8 34  1  0  0  0  0
  9 35  1  0  0  0  0
  9 36  1  0  0  0  0
 10 11  1  0  0  0  0
 10 37  1  0  0  0  0
 11 12  2  0  0  0  0
 11 38  1  0  0  0  0
 12 13  1  0  0  0  0
 13 14  1  0  0  0  0
 13 39  1  0  0  0  0
 14 15  2  0  0  0  0
 14 16  1  0  0  0  0
 16 17  1  0  0  0  0
 16 40  1  0  0  0  0
 17 25  1  0  0  0  0
 17 18  1  0  0  0  0
 17 41  1  0  0  0  0
 18 19  1  0  0  0  0
 18 42  1  0  0  0  0
 18 43  1  0  0  0  0
 19 20  1  0  0  0  0
 19 44  1  0  0  0  0
 19 45  1  0  0  0  0
 20 21  1  0  0  0  0
 21 22  1  0  0  0  0
 21 25  1  0  0  0  0
 21 46  1  0  0  0  0
 22 24  1  0  0  0  0
 22 23  1  0  0  0  0
 22 47  1  0  0  0  0
 23 24  1  0  0  0  0
 23 48  1  0  0  0  0
 23 49  1  0  0  0  0
 24 50  1  0  0  0  0
 24 51  1  0  0  0  0
 25 52  1  0  0  0  0
 25 53  1  0  0  0  0
M  END
> <s_m_source_file>
AV-unprocessed.smi

> <i_m_source_file_index>
2356

> <i_lp_mmshare_version>
43012

> <i_f3d_flags>
0

> <s_epik_input>
W0NIMl0xW0NIMl1bQ0gyXVtDSDJdTjFjKG5jMltDSDNdKVtjSF1bY0hdYzJbTkhdQyg9TylbTkhdW0NAQEhdM1tDSDJdW0NIMl1PW0NASF0oW0NIMl0zKVtDSF00W0NIMl1bQ0gyXTQ=

> <s_epik_cmdline>
J2VwaWtfcHl0aG9uJywgJy1waCcsICc3LjAnLCAnLXRuJywgJzgnLCAnLW1hJywgJzIwMCcsICctbWV0YWxfYmluZGluZycsICctaW1hZScsICc8aW5maWxlLm1hZT4nLCAnLW9tYWUnLCAnPG91dGZpbGUubWFlPic=

> <r_lp_tautomer_probability>
1

> <r_epik_Ionization_Penalty>
0.308781

> <r_epik_Ionization_Penalty_Charging>
0

> <r_epik_Ionization_Penalty_Neutral>
0.308781

> <r_epik_State_Penalty>
0.302092

> <r_epik_Charging_Adjusted_Penalty>
0.302092

> <i_epik_Tot_Q>
0

> <i_epik_Tot_abs_Q>
0

> <r_epik_Metal_State_Penalty>
0.197467

> <b_epik_Metal_Only>
0

> <s_lp_Force_Field>
OPLS_2005

> <r_lp_Energy>
55.4092

> <b_lp_Chiralities_Consistent>
1

> <s_lp_Variant>
AV-unprocessed.smi:2356-1

> <Gold.Version>
5.8.1

> <Gold.Id.Protein>
6NUR|6NUR_protein|mol2

> <Gold.PLP.Fitness>
46.7386

> <Gold.PLP.PLP>
-45.6740

> <Gold.PLP.part.hbond>
-0.3016

> <Gold.PLP.part.metal>
0.0000

> <Gold.PLP.part.buried>
-6.1307

> <Gold.PLP.part.nonpolar>
-37.5044

> <Gold.PLP.part.repulsive>
0.1221

> <Gold.PLP.ligand.clash>
0.0000

> <Gold.PLP.ligand.torsion>
0.8468

> <Gold.PLP.Chemscore.Hbond>
0.5038

> <Gold.PLP.Chemscore.CHOScore>
0.0000

> <Gold.PLP.Chemscore.Metal>
0.0000

> <Gold.Chemscore.Hbonds>
donor molecule, donor type, donor heavy atom, donor atom, acceptor molecule, acceptor atom, score
      P1  H 10752 10765       L1    15  0.37

> <Gold.PLP.Chemscore.Internal.Correction>
1.2471

> <Gold.Rescore>
     Score         DG    S(hbond)    S(metal)    S(lipo)     H(rot)  DE(clash)    DE(int)     intcor
     18.76     -19.90       0.87        0.00     123.19       1.14       0.26       0.88       ----

> <Gold.Chemscore.Fitness>
18.7605

> <Gold.Chemscore.DG>
-19.8983

> <Gold.Chemscore.ZeroCoef>
-5.4800

> <Gold.Chemscore.Hbond>
0.8747

> <Gold.Chemscore.Metal>
0.0000

> <Gold.Chemscore.Lipo>
123.1949

> <Gold.Chemscore.Internal_Hbond>
0.0000

> <Gold.Chemscore.DEClash>
0.2625

> <Gold.Chemscore.DEInternal>
0.8753

> <Gold.Chemscore.Rot>
1.1395

> <Gold.Chemscore.Internal.Correction>
   9.000000E+99

> <Gold.Chemscore.Hbonds>
donor molecule, donor type, donor heavy atom, donor atom, acceptor molecule, acceptor atom, score
      P1  H 10752 10765       L1    15  0.15

> <Gold.Chemscore.Hbond.Weighted>
-2.9217

> <Gold.Chemscore.Metal.Weighted>
-0.0000

> <Gold.Chemscore.Lipo.Weighted>
-14.4138

> <Gold.Chemscore.Internal_Hbond.Weighted>
0.0000

> <Gold.Chemscore.DEClash.Weighted>
0.2625

> <Gold.Chemscore.DEInternal.Weighted>
0.8753

> <Gold.Chemscore.Rot.Weighted>
2.9171

> <Gold.Chemscore.Internal.Correction.Weighted>
   9.000000E+99

> <Gold.Protein.RotatedTorsions>
[ 6907 6896 6895 6894 ] final  -54.73 input  -60.11 | X-H torsion
[ 7974 7965 7964 7962 ] final -126.72 input  175.53 | X-H torsion
[ 8008 7997 7996 7995 ] final -144.22 input   59.86 | X-H torsion
[ 10167 10162 10161 10158 ] final    4.66 input  -65.29 | X-H torsion
[ 10718 10713 10712 10709 ] final   78.65 input   66.30 | X-H torsion
[ 10763 10752 10751 10750 ] final -145.96 input  -60.55 | X-H torsion
[ 11005 11000 10999 10996 ] final -175.09 input  -57.11 | X-H torsion

> <Gold.Protein.ActiveResidues>
 VAL166  LYS551  ARG553  GLY616  TRP617  ASP618  TYR619  PRO620  LYS621  CYS622 
 ASP623  PHE694  ASN695  SER759  ASP760  ASP761  ALA762  ILE779  LEU786  VAL792 
 PHE793  MET794  SER795  GLU796  ALA797  LYS798  CYS799  TRP800  GLU811  SER814 

> <Gold.Protein.RotatedAtoms>
  150.8312  134.7566  159.6854 H   0  0  0  0  0  0  0  0  0  0  0  0  # atno 6907 bound_to 6896
  152.4416  134.5575  159.9894 H   0  0  0  0  0  0  0  0  0  0  0  0  # atno 6908 bound_to 6896
  151.5736  133.3349  159.3030 H   0  0  0  0  0  0  0  0  0  0  0  0  # atno 6909 bound_to 6896
  144.9843  140.7671  143.4593 H   0  0  0  0  0  0  0  0  0  0  0  0  # atno 7974 bound_to 7965
  155.5233  140.0593  157.2902 H   0  0  0  0  0  0  0  0  0  0  0  0  # atno 8008 bound_to 7997
  154.4510  140.1948  156.0466 H   0  0  0  0  0  0  0  0  0  0  0  0  # atno 8009 bound_to 7997
  156.0703  140.3261  155.7572 H   0  0  0  0  0  0  0  0  0  0  0  0  # atno 8010 bound_to 7997
  140.6523  143.7514  150.7595 H   0  0  0  0  0  0  0  0  0  0  0  0  # atno 10167 bound_to 10162
  157.6751  130.9878  150.1817 H   0  0  0  0  0  0  0  0  0  0  0  0  # atno 10718 bound_to 10713
  154.8359  135.3399  154.6586 H   0  0  0  0  0  0  0  0  0  0  0  0  # atno 10763 bound_to 10752
  153.7201  135.6958  153.5019 H   0  0  0  0  0  0  0  0  0  0  0  0  # atno 10764 bound_to 10752
  153.2388  135.4391  155.0628 H   0  0  0  0  0  0  0  0  0  0  0  0  # atno 10765 bound_to 10752
  140.4672  134.6199  157.4867 H   0  0  0  0  0  0  0  0  0  0  0  0  # atno 11005 bound_to 11000
  145.2376  139.2087  143.5010 LP  0  0  0  0  0  0  0  0  0  0  0  0  # atno 17320 bound_to 7965
  146.3416  140.2265  142.8592 LP  0  0  0  0  0  0  0  0  0  0  0  0  # atno 17321 bound_to 7965
  140.1167  143.4649  152.2337 LP  0  0  0  0  0  0  0  0  0  0  0  0  # atno 17342 bound_to 10162
  139.5740  144.7477  151.3815 LP  0  0  0  0  0  0  0  0  0  0  0  0  # atno 17343 bound_to 10162
  156.2548  130.3704  149.8194 LP  0  0  0  0  0  0  0  0  0  0  0  0  # atno 17370 bound_to 10713
  156.5956  130.8525  151.3419 LP  0  0  0  0  0  0  0  0  0  0  0  0  # atno 17371 bound_to 10713
  139.9908  134.6989  155.9694 LP  0  0  0  0  0  0  0  0  0  0  0  0  # atno 17394 bound_to 11000
  141.1594  133.6540  156.4267 LP  0  0  0  0  0  0  0  0  0  0  0  0  # atno 17395 bound_to 11000

$$$$
