AV-unprocessed.smi:2193|AV-procd|sdf|8899|dock9
  -GOLD-   2272012113D 1   1.00000     0.00000
 Structure written by MMmdl.
 40 42  0  0  0  0  0  0  0  0  1 V2000
  150.8357  140.1694  154.8179 O   0  0  0  0  0  0  0  0  0  0  0  0
  151.0941  139.7109  156.1297 C   0  0  0  0  0  0  0  0  0  0  0  0
  151.3784  140.8082  157.1168 C   0  0  0  0  0  0  0  0  0  0  0  0
  151.3400  142.1043  156.7977 N   0  0  0  0  0  0  0  0  0  0  0  0
  151.6476  142.7241  157.9927 C   0  0  0  0  0  0  0  0  0  0  0  0
  151.7644  144.0959  158.3122 C   0  0  0  0  0  0  0  0  0  0  0  0
  152.0916  144.4982  159.6237 C   0  0  0  0  0  0  0  0  0  0  0  0
  152.3068  143.5364  160.6319 C   0  0  0  0  0  0  0  0  0  0  0  0
  152.1953  142.1644  160.3347 C   0  0  0  0  0  0  0  0  0  0  0  0
  151.8679  141.7680  159.0239 C   0  0  0  0  0  0  0  0  0  0  0  0
  151.6843  140.5323  158.4098 N   0  0  0  0  0  0  0  0  0  0  0  0
  151.7966  139.2259  159.0459 C   0  0  0  0  0  0  0  0  0  0  0  0
  153.2420  138.6864  159.0566 C   0  0  1  0  0  0  0  0  0  0  0  0
  153.9164  139.0778  157.8771 O   0  0  0  0  0  0  0  0  0  0  0  0
  154.0475  139.1884  160.2636 C   0  0  0  0  0  0  0  0  0  0  0  0
  153.9856  138.2161  161.2987 O   0  0  0  0  0  0  0  0  0  0  0  0
  154.4764  138.5538  162.5416 C   0  0  0  0  0  0  0  0  0  0  0  0
  154.4230  137.5605  163.5416 C   0  0  0  0  0  0  0  0  0  0  0  0
  154.9055  137.8174  164.8394 C   0  0  0  0  0  0  0  0  0  0  0  0
  155.4494  139.0770  165.1510 C   0  0  0  0  0  0  0  0  0  0  0  0
  155.9159  139.3255  166.3976 F   0  0  0  0  0  0  0  0  0  0  0  0
  155.5077  140.0779  164.1638 C   0  0  0  0  0  0  0  0  0  0  0  0
  155.0243  139.8212  162.8658 C   0  0  0  0  0  0  0  0  0  0  0  0
  150.2426  139.5648  154.3994 H   0  0  0  0  0  0  0  0  0  0  0  0
  150.2308  139.1396  156.4718 H   0  0  0  0  0  0  0  0  0  0  0  0
  151.9435  139.0297  156.0914 H   0  0  0  0  0  0  0  0  0  0  0  0
  151.6020  144.8400  157.5466 H   0  0  0  0  0  0  0  0  0  0  0  0
  152.1782  145.5495  159.8569 H   0  0  0  0  0  0  0  0  0  0  0  0
  152.5580  143.8527  161.6337 H   0  0  0  0  0  0  0  0  0  0  0  0
  152.3610  141.4262  161.1049 H   0  0  0  0  0  0  0  0  0  0  0  0
  151.4151  139.3035  160.0647 H   0  0  0  0  0  0  0  0  0  0  0  0
  151.1337  138.5286  158.5333 H   0  0  0  0  0  0  0  0  0  0  0  0
  153.2289  137.5965  159.0734 H   0  0  0  0  0  0  0  0  0  0  0  0
  153.7046  138.4635  157.1911 H   0  0  0  0  0  0  0  0  0  0  0  0
  155.0880  139.3385  159.9699 H   0  0  0  0  0  0  0  0  0  0  0  0
  153.6511  140.1451  160.6085 H   0  0  0  0  0  0  0  0  0  0  0  0
  154.0075  136.5903  163.3115 H   0  0  0  0  0  0  0  0  0  0  0  0
  154.8590  137.0475  165.5953 H   0  0  0  0  0  0  0  0  0  0  0  0
  155.9249  141.0452  164.4015 H   0  0  0  0  0  0  0  0  0  0  0  0
  155.0877  140.6139  162.1363 H   0  0  0  0  0  0  0  0  0  0  0  0
  1  2  1  0  0  0  0
  1 24  1  0  0  0  0
  2  3  1  0  0  0  0
  2 25  1  0  0  0  0
  2 26  1  0  0  0  0
  3 11  1  0  0  0  0
  3  4  2  0  0  0  0
  4  5  1  0  0  0  0
  5 10  2  0  0  0  0
  5  6  1  0  0  0  0
  6  7  2  0  0  0  0
  6 27  1  0  0  0  0
  7  8  1  0  0  0  0
  7 28  1  0  0  0  0
  8  9  2  0  0  0  0
  8 29  1  0  0  0  0
  9 10  1  0  0  0  0
  9 30  1  0  0  0  0
 10 11  1  0  0  0  0
 11 12  1  0  0  0  0
 12 13  1  0  0  0  0
 12 31  1  0  0  0  0
 12 32  1  0  0  0  0
 13 14  1  0  0  0  0
 13 15  1  0  0  0  0
 13 33  1  0  0  0  0
 14 34  1  0  0  0  0
 15 16  1  0  0  0  0
 15 35  1  0  0  0  0
 15 36  1  0  0  0  0
 16 17  1  0  0  0  0
 17 23  1  0  0  0  0
 17 18  2  0  0  0  0
 18 19  1  0  0  0  0
 18 37  1  0  0  0  0
 19 20  2  0  0  0  0
 19 38  1  0  0  0  0
 20 21  1  0  0  0  0
 20 22  1  0  0  0  0
 22 23  2  0  0  0  0
 22 39  1  0  0  0  0
 23 40  1  0  0  0  0
M  END
> <s_m_source_file>
AV-unprocessed.smi

> <i_m_source_file_index>
2193

> <i_lp_mmshare_version>
43012

> <i_f3d_flags>
0

> <s_epik_input>
W2NIXTFbY0hdW2NIXVtjSF1jKGMxMiluKGMobjIpW0NIMl1bT0hdKVtDSDJdW0NASF0oW09IXSlbQ0gyXU9jM1tjSF1bY0hdYyhGKVtjSF1bY0hdMw==

> <s_epik_cmdline>
J2VwaWtfcHl0aG9uJywgJy1waCcsICc3LjAnLCAnLXRuJywgJzgnLCAnLW1hJywgJzIwMCcsICctbWV0YWxfYmluZGluZycsICctaW1hZScsICc8aW5maWxlLm1hZT4nLCAnLW9tYWUnLCAnPG91dGZpbGUubWFlPic=

> <r_lp_tautomer_probability>
1

> <r_epik_Ionization_Penalty>
0.0549747

> <r_epik_Ionization_Penalty_Charging>
0

> <r_epik_Ionization_Penalty_Neutral>
0.0549747

> <r_epik_State_Penalty>
0.0472568

> <r_epik_Charging_Adjusted_Penalty>
0.0472568

> <i_epik_Tot_Q>
0

> <i_epik_Tot_abs_Q>
0

> <r_epik_Metal_State_Penalty>
4.91905e-05

> <b_epik_Metal_Only>
0

> <s_lp_Force_Field>
OPLS_2005

> <r_lp_Energy>
14.6926

> <b_lp_Chiralities_Consistent>
1

> <s_lp_Variant>
AV-unprocessed.smi:2193-2

> <Gold.Version>
5.8.1

> <Gold.Id.Protein>
6NUR|6NUR_protein|mol2

> <Gold.PLP.Fitness>
49.6258

> <Gold.PLP.PLP>
-45.9623

> <Gold.PLP.part.hbond>
-1.7229

> <Gold.PLP.part.metal>
0.0000

> <Gold.PLP.part.buried>
-5.8352

> <Gold.PLP.part.nonpolar>
-38.9415

> <Gold.PLP.part.repulsive>
0.0663

> <Gold.PLP.ligand.clash>
0.0000

> <Gold.PLP.ligand.torsion>
1.1708

> <Gold.PLP.Chemscore.Hbond>
1.9600

> <Gold.PLP.Chemscore.CHOScore>
0.0000

> <Gold.PLP.Chemscore.Metal>
0.0000

> <Gold.Chemscore.Hbonds>
donor molecule, donor type, donor heavy atom, donor atom, acceptor molecule, acceptor atom, score
      P1  H  7989  7998       L1     1  1.00
      P1  H  7997  8009       L1    14  0.89

> <Gold.PLP.Chemscore.Internal.Correction>
0.1251

> <Gold.Rescore>
     Score         DG    S(hbond)    S(metal)    S(lipo)     H(rot)  DE(clash)    DE(int)     intcor
     16.49     -17.66       1.73        0.00     125.12       3.22       0.05       1.13       ----

> <Gold.Chemscore.Fitness>
16.4918

> <Gold.Chemscore.DG>
-17.6644

> <Gold.Chemscore.ZeroCoef>
-5.4800

> <Gold.Chemscore.Hbond>
1.7328

> <Gold.Chemscore.Metal>
0.0000

> <Gold.Chemscore.Lipo>
125.1197

> <Gold.Chemscore.Internal_Hbond>
0.0000

> <Gold.Chemscore.DEClash>
0.0460

> <Gold.Chemscore.DEInternal>
1.1266

> <Gold.Chemscore.Rot>
3.2196

> <Gold.Chemscore.Internal.Correction>
   9.000000E+99

> <Gold.Chemscore.Hbonds>
donor molecule, donor type, donor heavy atom, donor atom, acceptor molecule, acceptor atom, score
      P1  H  7989  7998       L1     1  0.40
      P1  H  7997  8009       L1    14  0.37

> <Gold.Chemscore.Hbond.Weighted>
-5.7876

> <Gold.Chemscore.Metal.Weighted>
-0.0000

> <Gold.Chemscore.Lipo.Weighted>
-14.6390

> <Gold.Chemscore.Internal_Hbond.Weighted>
0.0000

> <Gold.Chemscore.DEClash.Weighted>
0.0460

> <Gold.Chemscore.DEInternal.Weighted>
1.1266

> <Gold.Chemscore.Rot.Weighted>
8.2422

> <Gold.Chemscore.Internal.Correction.Weighted>
   9.000000E+99

> <Gold.Protein.RotatedTorsions>
[ 6907 6896 6895 6894 ] final  -81.68 input  -60.11 | X-H torsion
[ 7974 7965 7964 7962 ] final  138.74 input  175.53 | X-H torsion
[ 8008 7997 7996 7995 ] final  131.80 input   59.86 | X-H torsion
[ 10167 10162 10161 10158 ] final -177.17 input  -65.29 | X-H torsion
[ 10718 10713 10712 10709 ] final -136.06 input   66.30 | X-H torsion
[ 10763 10752 10751 10750 ] final   97.76 input  -60.55 | X-H torsion
[ 11005 11000 10999 10996 ] final -166.35 input  -57.11 | X-H torsion

> <Gold.Protein.ActiveResidues>
 VAL166  LYS551  ARG553  GLY616  TRP617  ASP618  TYR619  PRO620  LYS621  CYS622 
 ASP623  PHE694  ASN695  SER759  ASP760  ASP761  ALA762  ILE779  LEU786  VAL792 
 PHE793  MET794  SER795  GLU796  ALA797  LYS798  CYS799  TRP800  GLU811  SER814 

> <Gold.Protein.RotatedAtoms>
  150.6908  134.3781  159.5021 H   0  0  0  0  0  0  0  0  0  0  0  0  # atno 6907 bound_to 6896
  152.1587  134.8927  160.0552 H   0  0  0  0  0  0  0  0  0  0  0  0  # atno 6908 bound_to 6896
  151.9997  133.3786  159.4214 H   0  0  0  0  0  0  0  0  0  0  0  0  # atno 6909 bound_to 6896
  144.9344  139.5008  143.5602 H   0  0  0  0  0  0  0  0  0  0  0  0  # atno 7974 bound_to 7965
  156.2975  140.2562  156.2984 H   0  0  0  0  0  0  0  0  0  0  0  0  # atno 8008 bound_to 7997
  154.9441  140.0395  157.2130 H   0  0  0  0  0  0  0  0  0  0  0  0  # atno 8009 bound_to 7997
  154.8098  140.2842  155.5866 H   0  0  0  0  0  0  0  0  0  0  0  0  # atno 8010 bound_to 7997
  139.5493  144.2152  152.1047 H   0  0  0  0  0  0  0  0  0  0  0  0  # atno 10167 bound_to 10162
  156.2729  130.7276  151.1249 H   0  0  0  0  0  0  0  0  0  0  0  0  # atno 10718 bound_to 10713
  153.2809  135.4172  155.1077 H   0  0  0  0  0  0  0  0  0  0  0  0  # atno 10763 bound_to 10752
  154.8489  135.3495  154.6114 H   0  0  0  0  0  0  0  0  0  0  0  0  # atno 10764 bound_to 10752
  153.6535  135.7051  153.5259 H   0  0  0  0  0  0  0  0  0  0  0  0  # atno 10765 bound_to 10752
  140.5655  134.5290  157.5152 H   0  0  0  0  0  0  0  0  0  0  0  0  # atno 11005 bound_to 11000
  146.3260  139.8317  142.8907 LP  0  0  0  0  0  0  0  0  0  0  0  0  # atno 17320 bound_to 7965
  145.3091  141.0215  143.3565 LP  0  0  0  0  0  0  0  0  0  0  0  0  # atno 17321 bound_to 7965
  140.1644  144.4995  150.6614 LP  0  0  0  0  0  0  0  0  0  0  0  0  # atno 17342 bound_to 10162
  140.6751  143.2301  151.5528 LP  0  0  0  0  0  0  0  0  0  0  0  0  # atno 17343 bound_to 10162
  157.7290  131.0628  150.5795 LP  0  0  0  0  0  0  0  0  0  0  0  0  # atno 17370 bound_to 10713
  156.5893  130.4325  149.5943 LP  0  0  0  0  0  0  0  0  0  0  0  0  # atno 17371 bound_to 10713
  139.9387  134.7827  156.0735 LP  0  0  0  0  0  0  0  0  0  0  0  0  # atno 17394 bound_to 11000
  141.1088  133.6650  156.2929 LP  0  0  0  0  0  0  0  0  0  0  0  0  # atno 17395 bound_to 11000

$$$$
