AV-unprocessed.smi:101|AV-procd|sdf|931|dock6
  -GOLD-   2262017443D 1   1.00000     0.00000
 Structure written by MMmdl.
 43 45  0  0  0  0  0  0  0  0  2 V2000
  148.9517  131.8327  154.4264 C   0  0  0  0  0  0  0  0  0  0  0  0
  149.5395  132.9868  155.2195 C   0  0  0  0  0  0  0  0  0  0  0  0
  149.8390  134.1756  154.6503 C   0  0  0  0  0  0  0  0  0  0  0  0
  150.3606  135.2298  155.3820 N   0  0  0  0  0  0  0  0  0  0  0  0
  150.6783  136.5628  154.7358 C   0  0  2  0  0  0  0  0  0  0  0  0
  151.8714  137.0651  155.2697 O   0  0  0  0  0  0  0  0  0  0  0  0
  151.6666  138.3696  155.7999 C   0  0  2  0  0  0  0  0  0  0  0  0
  152.6236  138.6330  156.9729 C   0  0  0  0  0  0  0  0  0  0  0  0
  152.2523  139.8215  157.6535 O   0  0  0  0  0  0  0  0  0  0  0  0
  153.0749  140.3748  158.5624 C   0  0  0  0  0  0  0  0  0  0  0  0
  154.0863  139.8203  158.9970 O   0  0  0  0  0  0  0  0  0  0  0  0
  152.6310  141.7335  158.9881 C   0  0  0  0  0  0  0  0  0  0  0  0
  151.7280  142.4554  158.1733 C   0  0  0  0  0  0  0  0  0  0  0  0
  151.2932  143.7411  158.5495 C   0  0  0  0  0  0  0  0  0  0  0  0
  151.7544  144.3200  159.7462 C   0  0  0  0  0  0  0  0  0  0  0  0
  152.6495  143.6103  160.5676 C   0  0  0  0  0  0  0  0  0  0  0  0
  153.0862  142.3248  160.1929 C   0  0  0  0  0  0  0  0  0  0  0  0
  150.1750  138.4302  156.1305 C   0  0  1  0  0  0  0  0  0  0  0  0
  149.6685  139.7507  156.1773 O   0  0  0  0  0  0  0  0  0  0  0  0
  149.5616  137.5864  155.0216 C   0  0  1  0  0  0  0  0  0  0  0  0
  149.2560  138.3330  153.8582 O   0  0  0  0  0  0  0  0  0  0  0  0
  150.5908  135.0694  156.7735 C   0  0  0  0  0  0  0  0  0  0  0  0
  151.0504  136.0272  157.3964 O   0  0  0  0  0  0  0  0  0  0  0  0
  150.3007  133.8707  157.3541 N   0  5  0  0  0  0  0  0  0  0  0  0
  149.7899  132.8167  156.6555 C   0  0  0  0  0  0  0  0  0  0  0  0
  149.5375  131.7380  157.1914 O   0  0  0  0  0  0  0  0  0  0  0  0
  148.7809  132.1117  153.3864 H   0  0  0  0  0  0  0  0  0  0  0  0
  147.9957  131.5258  154.8519 H   0  0  0  0  0  0  0  0  0  0  0  0
  149.6267  130.9767  154.4424 H   0  0  0  0  0  0  0  0  0  0  0  0
  149.6543  134.2936  153.5940 H   0  0  0  0  0  0  0  0  0  0  0  0
  150.8185  136.3385  153.6766 H   0  0  0  0  0  0  0  0  0  0  0  0
  151.8862  139.0716  154.9935 H   0  0  0  0  0  0  0  0  0  0  0  0
  152.6131  137.7836  157.6574 H   0  0  0  0  0  0  0  0  0  0  0  0
  153.6436  138.7415  156.6025 H   0  0  0  0  0  0  0  0  0  0  0  0
  151.3609  142.0318  157.2494 H   0  0  0  0  0  0  0  0  0  0  0  0
  150.6055  144.2841  157.9179 H   0  0  0  0  0  0  0  0  0  0  0  0
  151.4225  145.3069  160.0334 H   0  0  0  0  0  0  0  0  0  0  0  0
  153.0060  144.0536  161.4858 H   0  0  0  0  0  0  0  0  0  0  0  0
  153.7765  141.8102  160.8456 H   0  0  0  0  0  0  0  0  0  0  0  0
  149.9721  137.9405  157.0832 H   0  0  0  0  0  0  0  0  0  0  0  0
  149.4320  139.9466  157.0708 H   0  0  0  0  0  0  0  0  0  0  0  0
  148.6461  137.0976  155.3568 H   0  0  0  0  0  0  0  0  0  0  0  0
  149.2227  137.7365  153.1256 H   0  0  0  0  0  0  0  0  0  0  0  0
  1  2  1  0  0  0  0
  1 27  1  0  0  0  0
  1 28  1  0  0  0  0
  1 29  1  0  0  0  0
  2 25  1  0  0  0  0
  2  3  2  0  0  0  0
  3  4  1  0  0  0  0
  3 30  1  0  0  0  0
  4  5  1  0  0  0  0
  4 22  1  0  0  0  0
  5 20  1  0  0  0  0
  5  6  1  0  0  0  0
  5 31  1  0  0  0  0
  6  7  1  0  0  0  0
  7  8  1  0  0  0  0
  7 18  1  0  0  0  0
  7 32  1  0  0  0  0
  8  9  1  0  0  0  0
  8 33  1  0  0  0  0
  8 34  1  0  0  0  0
  9 10  1  0  0  0  0
 10 11  2  0  0  0  0
 10 12  1  0  0  0  0
 12 17  1  0  0  0  0
 12 13  2  0  0  0  0
 13 14  1  0  0  0  0
 13 35  1  0  0  0  0
 14 15  2  0  0  0  0
 14 36  1  0  0  0  0
 15 16  1  0  0  0  0
 15 37  1  0  0  0  0
 16 17  2  0  0  0  0
 16 38  1  0  0  0  0
 17 39  1  0  0  0  0
 18 19  1  0  0  0  0
 18 20  1  0  0  0  0
 18 40  1  0  0  0  0
 19 41  1  0  0  0  0
 20 21  1  0  0  0  0
 20 42  1  0  0  0  0
 21 43  1  0  0  0  0
 22 23  2  0  0  0  0
 22 24  1  0  0  0  0
 24 25  1  0  0  0  0
 25 26  2  0  0  0  0
M  CHG  1  24  -1
M  END
> <s_m_source_file>
AV-unprocessed.smi

> <i_m_source_file_index>
101

> <i_lp_mmshare_version>
43012

> <i_f3d_flags>
0

> <s_epik_input>
Tz1jMVtuSF1jKD1PKW4oW2NIXWMxW0NIM10pW0NAQEhdMk9bQ0BIXShbQ0BASF0oW09IXSlbQ0BIXTJbT0hdKVtDSDJdT0MoPU8pYzNbY0hdW2NIXVtjSF1bY0hdW2NIXTM=

> <s_epik_cmdline>
J2VwaWtfcHl0aG9uJywgJy1waCcsICc3LjAnLCAnLXRuJywgJzgnLCAnLW1hJywgJzIwMCcsICctbWV0YWxfYmluZGluZycsICctaW1hZScsICc8aW5maWxlLm1hZT4nLCAnLW9tYWUnLCAnPG91dGZpbGUubWFlPic=

> <r_lp_tautomer_probability>
0.999537

> <r_epik_Ionization_Penalty>
3.21006

> <r_epik_Ionization_Penalty_Charging>
5.75142e-08

> <r_epik_Ionization_Penalty_Neutral>
3.21006

> <r_epik_State_Penalty>
3.20925

> <r_epik_Charging_Adjusted_Penalty>
3.20925

> <i_epik_Tot_Q>
-1

> <i_epik_Tot_abs_Q>
1

> <r_epik_Metal_State_Penalty>
0.119957

> <b_epik_Metal_Only>
1

> <s_epik_Chemistry_Notes>
This compound has an ester and may undergo hydrolysis at high or low pH. This compound contains an acetal/aminal-like group ( X-CH(R)-Y where X, Y are N, S, or O) that may be acid/base labile, releasing an aldehyde.

> <s_lp_Force_Field>
OPLS_2005

> <r_lp_Energy>
43.2015

> <b_lp_Chiralities_Consistent>
1

> <s_lp_Variant>
AV-unprocessed.smi:101-19

> <Gold.Version>
5.8.1

> <Gold.Id.Protein>
6NUR|6NUR_protein|mol2

> <Gold.PLP.Fitness>
52.6638

> <Gold.PLP.PLP>
-39.7628

> <Gold.PLP.part.hbond>
-4.7534

> <Gold.PLP.part.metal>
0.0000

> <Gold.PLP.part.buried>
-4.7754

> <Gold.PLP.part.nonpolar>
-31.5395

> <Gold.PLP.part.repulsive>
0.0833

> <Gold.PLP.ligand.clash>
0.0000

> <Gold.PLP.ligand.torsion>
0.9033

> <Gold.PLP.Chemscore.Hbond>
4.6528

> <Gold.PLP.Chemscore.CHOScore>
0.2310

> <Gold.PLP.Chemscore.Metal>
0.0000

> <Gold.Chemscore.Hbonds>
donor molecule, donor type, donor heavy atom, donor atom, acceptor molecule, acceptor atom, score
      L1  H    21    43       P1  7948  1.00
      P1  H  6896  6908       L1    24  1.70
      P1  H  7997  8009       L1    11  0.75
      P1  H 10752 10764       L1     6  0.84
      L1  C     3    30       P1  7948  0.15

> <Gold.PLP.Chemscore.Internal.Correction>
0.0561

> <Gold.Rescore>
     Score         DG    S(hbond)    S(metal)    S(lipo)     H(rot)  DE(clash)    DE(int)     intcor
      9.71     -17.48       2.69        0.00      97.32       3.27       0.74       7.03       ----

> <Gold.Chemscore.Fitness>
9.7094

> <Gold.Chemscore.DG>
-17.4811

> <Gold.Chemscore.ZeroCoef>
-5.4800

> <Gold.Chemscore.Hbond>
2.6870

> <Gold.Chemscore.Metal>
0.0000

> <Gold.Chemscore.Lipo>
97.3195

> <Gold.Chemscore.Internal_Hbond>
0.0000

> <Gold.Chemscore.DEClash>
0.7388

> <Gold.Chemscore.DEInternal>
7.0330

> <Gold.Chemscore.Rot>
3.2656

> <Gold.Chemscore.Internal.Correction>
   9.000000E+99

> <Gold.Chemscore.Hbonds>
donor molecule, donor type, donor heavy atom, donor atom, acceptor molecule, acceptor atom, score
      L1  H    21    43       P1  7948  0.98
      P1  H  6896  6908       L1    24  0.73
      P1  H  7997  8009       L1    11  0.09
      P1  H 10752 10764       L1     6  0.14

> <Gold.Chemscore.Hbond.Weighted>
-8.9746

> <Gold.Chemscore.Metal.Weighted>
-0.0000

> <Gold.Chemscore.Lipo.Weighted>
-11.3864

> <Gold.Chemscore.Internal_Hbond.Weighted>
0.0000

> <Gold.Chemscore.DEClash.Weighted>
0.7388

> <Gold.Chemscore.DEInternal.Weighted>
7.0330

> <Gold.Chemscore.Rot.Weighted>
8.3598

> <Gold.Chemscore.Internal.Correction.Weighted>
   9.000000E+99

> <Gold.Protein.RotatedTorsions>
[ 6907 6896 6895 6894 ] final  112.78 input  -60.11 | X-H torsion
[ 7974 7965 7964 7962 ] final  122.67 input  175.53 | X-H torsion
[ 8008 7997 7996 7995 ] final  119.01 input   59.86 | X-H torsion
[ 10167 10162 10161 10158 ] final -124.22 input  -65.29 | X-H torsion
[ 10718 10713 10712 10709 ] final  -87.04 input   66.30 | X-H torsion
[ 10763 10752 10751 10750 ] final  -48.00 input  -60.55 | X-H torsion
[ 11005 11000 10999 10996 ] final  -84.31 input  -57.11 | X-H torsion

> <Gold.Protein.ActiveResidues>
 VAL166  LYS551  ARG553  GLY616  TRP617  ASP618  TYR619  PRO620  LYS621  CYS622 
 ASP623  PHE694  ASN695  SER759  ASP760  ASP761  ALA762  ILE779  LEU786  VAL792 
 PHE793  MET794  SER795  GLU796  ALA797  LYS798  CYS799  TRP800  GLU811  SER814 

> <Gold.Protein.RotatedAtoms>
  152.4897  133.8468  159.7180 H   0  0  0  0  0  0  0  0  0  0  0  0  # atno 6907 bound_to 6896
  150.9016  133.7102  159.2884 H   0  0  0  0  0  0  0  0  0  0  0  0  # atno 6908 bound_to 6896
  151.4541  135.1036  159.9758 H   0  0  0  0  0  0  0  0  0  0  0  0  # atno 6909 bound_to 6896
  145.1049  139.3493  143.4793 H   0  0  0  0  0  0  0  0  0  0  0  0  # atno 7974 bound_to 7965
  156.2575  140.2862  156.0925 H   0  0  0  0  0  0  0  0  0  0  0  0  # atno 8008 bound_to 7997
  155.1448  140.0396  157.2824 H   0  0  0  0  0  0  0  0  0  0  0  0  # atno 8009 bound_to 7997
  154.6503  140.2543  155.7227 H   0  0  0  0  0  0  0  0  0  0  0  0  # atno 8010 bound_to 7997
  139.9951  143.5600  152.2326 H   0  0  0  0  0  0  0  0  0  0  0  0  # atno 10167 bound_to 10162
  155.9987  130.4786  150.4806 H   0  0  0  0  0  0  0  0  0  0  0  0  # atno 10718 bound_to 10713
  154.0706  135.6605  153.4824 H   0  0  0  0  0  0  0  0  0  0  0  0  # atno 10763 bound_to 10752
  153.0392  135.5156  154.7570 H   0  0  0  0  0  0  0  0  0  0  0  0  # atno 10764 bound_to 10752
  154.6635  135.3018  154.9803 H   0  0  0  0  0  0  0  0  0  0  0  0  # atno 10765 bound_to 10752
  141.1651  133.7339  156.8850 H   0  0  0  0  0  0  0  0  0  0  0  0  # atno 11005 bound_to 11000
  146.3528  140.0942  142.8611 LP  0  0  0  0  0  0  0  0  0  0  0  0  # atno 17320 bound_to 7965
  145.0913  140.9286  143.4767 LP  0  0  0  0  0  0  0  0  0  0  0  0  # atno 17321 bound_to 7965
  139.6312  144.7644  151.2532 LP  0  0  0  0  0  0  0  0  0  0  0  0  # atno 17342 bound_to 10162
  140.7440  143.6476  150.8277 LP  0  0  0  0  0  0  0  0  0  0  0  0  # atno 17343 bound_to 10162
  157.2812  131.0607  151.2196 LP  0  0  0  0  0  0  0  0  0  0  0  0  # atno 17370 bound_to 10713
  157.3242  130.6952  149.6287 LP  0  0  0  0  0  0  0  0  0  0  0  0  # atno 17371 bound_to 10713
  140.1689  134.9114  157.2808 LP  0  0  0  0  0  0  0  0  0  0  0  0  # atno 17394 bound_to 11000
  140.2525  134.3666  155.7437 LP  0  0  0  0  0  0  0  0  0  0  0  0  # atno 17395 bound_to 11000

$$$$
