AV-unprocessed.smi:686|AV-procd|sdf|3341|dock10
  -GOLD-   22720 0313D 1   1.00000     0.00000
 Structure written by MMmdl.
 41 42  0  0  0  0  0  0  0  0  2 V2000
  150.1349  132.8598  155.0566 C   0  0  0  0  0  0  0  0  0  0  0  0
  148.7512  133.4189  154.6882 C   0  0  2  0  0  0  0  0  0  0  0  0
  148.3328  133.2038  153.2315 C   0  0  0  0  0  0  0  0  0  0  0  0
  147.3135  134.2413  152.9336 N   0  3  1  0  0  0  0  0  0  0  0  0
  145.9739  133.7598  152.4930 C   0  0  0  0  0  0  0  0  0  0  0  0
  146.0325  132.6187  151.4550 C   0  0  0  0  0  0  0  0  0  0  0  0
  145.1114  134.9308  151.9960 C   0  0  0  0  0  0  0  0  0  0  0  0
  147.2971  135.2181  154.0521 C   0  0  0  0  0  0  0  0  0  0  0  0
  148.5338  134.9211  154.9073 C   0  0  2  0  0  0  0  0  0  0  0  0
  149.6754  135.7189  154.4422 N   0  0  0  0  0  0  0  0  0  0  0  0
  150.4739  136.8339  155.4904 S   0  0  0  0  0  0  0  0  0  0  0  0
  149.4469  137.4215  156.3640 O   0  0  0  0  0  0  0  0  0  0  0  0
  151.6262  136.1251  156.0682 O   0  0  0  0  0  0  0  0  0  0  0  0
  151.0713  138.1381  154.3205 C   0  0  0  0  0  0  0  0  0  0  0  0
  150.6115  139.4975  154.7641 C   0  0  0  0  0  0  0  0  0  0  0  0
  149.4345  140.1999  154.3833 C   0  0  0  0  0  0  0  0  0  0  0  0
  149.5216  141.3684  155.0839 C   0  0  0  0  0  0  0  0  0  0  0  0
  150.6511  141.3892  155.8354 O   0  0  0  0  0  0  0  0  0  0  0  0
  151.3395  140.1889  155.6263 N   0  0  0  0  0  0  0  0  0  0  0  0
  150.9282  133.3064  154.4565 H   0  0  0  0  0  0  0  0  0  0  0  0
  150.1717  131.7819  154.8984 H   0  0  0  0  0  0  0  0  0  0  0  0
  150.3640  133.0459  156.1059 H   0  0  0  0  0  0  0  0  0  0  0  0
  148.0185  132.9015  155.3098 H   0  0  0  0  0  0  0  0  0  0  0  0
  149.1815  133.3833  152.5702 H   0  0  0  0  0  0  0  0  0  0  0  0
  148.0009  132.1826  153.0469 H   0  0  0  0  0  0  0  0  0  0  0  0
  145.4803  133.3674  153.3837 H   0  0  0  0  0  0  0  0  0  0  0  0
  145.0302  132.2440  151.2451 H   0  0  0  0  0  0  0  0  0  0  0  0
  146.6205  131.7708  151.8044 H   0  0  0  0  0  0  0  0  0  0  0  0
  146.4539  132.9438  150.5042 H   0  0  0  0  0  0  0  0  0  0  0  0
  144.1005  134.5975  151.7590 H   0  0  0  0  0  0  0  0  0  0  0  0
  145.5251  135.3853  151.0954 H   0  0  0  0  0  0  0  0  0  0  0  0
  145.0290  135.7094  152.7551 H   0  0  0  0  0  0  0  0  0  0  0  0
  147.2734  136.2426  153.6783 H   0  0  0  0  0  0  0  0  0  0  0  0
  146.4057  135.0852  154.6647 H   0  0  0  0  0  0  0  0  0  0  0  0
  148.3466  135.1440  155.9585 H   0  0  0  0  0  0  0  0  0  0  0  0
  149.6642  135.9916  153.4595 H   0  0  0  0  0  0  0  0  0  0  0  0
  152.1585  138.0979  154.2684 H   0  0  0  0  0  0  0  0  0  0  0  0
  150.6930  137.9001  153.3257 H   0  0  0  0  0  0  0  0  0  0  0  0
  148.6523  139.8971  153.7035 H   0  0  0  0  0  0  0  0  0  0  0  0
  148.8899  142.2417  155.1526 H   0  0  0  0  0  0  0  0  0  0  0  0
  147.6853  134.7507  152.1446 H   0  0  0  0  0  0  0  0  0  0  0  0
  1  2  1  0  0  0  0
  1 20  1  0  0  0  0
  1 21  1  0  0  0  0
  1 22  1  0  0  0  0
  2  9  1  0  0  0  0
  2  3  1  0  0  0  0
  2 23  1  0  0  0  0
  3  4  1  0  0  0  0
  3 24  1  0  0  0  0
  3 25  1  0  0  0  0
  4  5  1  0  0  0  0
  4  8  1  0  0  0  0
  4 41  1  0  0  0  0
  5  6  1  0  0  0  0
  5  7  1  0  0  0  0
  5 26  1  0  0  0  0
  6 27  1  0  0  0  0
  6 28  1  0  0  0  0
  6 29  1  0  0  0  0
  7 30  1  0  0  0  0
  7 31  1  0  0  0  0
  7 32  1  0  0  0  0
  8  9  1  0  0  0  0
  8 33  1  0  0  0  0
  8 34  1  0  0  0  0
  9 10  1  0  0  0  0
  9 35  1  0  0  0  0
 10 11  1  0  0  0  0
 10 36  1  0  0  0  0
 11 12  2  0  0  0  0
 11 13  2  0  0  0  0
 11 14  1  0  0  0  0
 14 15  1  0  0  0  0
 14 37  1  0  0  0  0
 14 38  1  0  0  0  0
 15 19  2  0  0  0  0
 15 16  1  0  0  0  0
 16 17  2  0  0  0  0
 16 39  1  0  0  0  0
 17 18  1  0  0  0  0
 17 40  1  0  0  0  0
 18 19  1  0  0  0  0
M  CHG  1   4   1
M  END
> <s_m_source_file>
AV-unprocessed.smi

> <i_m_source_file_index>
686

> <i_lp_mmshare_version>
43012

> <i_f3d_flags>
0

> <s_epik_input>
W0NIM11bQ0BASF0xW0NIMl1OKFtDSF0oW0NIM10pW0NIM10pW0NIMl1bQ0BIXTFbTkhdUyg9TykoPU8pW0NIMl1jMltjSF1bY0hdb24y

> <s_epik_cmdline>
J2VwaWtfcHl0aG9uJywgJy1waCcsICc3LjAnLCAnLXRuJywgJzgnLCAnLW1hJywgJzIwMCcsICctbWV0YWxfYmluZGluZycsICctaW1hZScsICc8aW5maWxlLm1hZT4nLCAnLW9tYWUnLCAnPG91dGZpbGUubWFlPic=

> <r_epik_Ionization_Penalty>
0.00200818

> <r_epik_Ionization_Penalty_Charging>
0.000701289

> <r_epik_Ionization_Penalty_Neutral>
0.00130689

> <r_epik_State_Penalty>
0.00131314

> <r_epik_Charging_Adjusted_Penalty>
0.00201443

> <i_epik_Tot_Q>
1

> <i_epik_Tot_abs_Q>
1

> <r_epik_Metal_State_Penalty>
0.310831

> <b_epik_Metal_Only>
0

> <s_lp_Force_Field>
OPLS_2005

> <r_lp_Energy>
24.0056

> <b_lp_Chiralities_Consistent>
1

> <s_lp_Variant>
AV-unprocessed.smi:686-5

> <Gold.Version>
5.8.1

> <Gold.Id.Protein>
6NUR|6NUR_protein|mol2

> <Gold.PLP.Fitness>
42.3493

> <Gold.PLP.PLP>
-30.1036

> <Gold.PLP.part.hbond>
-3.7308

> <Gold.PLP.part.metal>
0.0000

> <Gold.PLP.part.buried>
-1.1169

> <Gold.PLP.part.nonpolar>
-25.2758

> <Gold.PLP.part.repulsive>
0.1394

> <Gold.PLP.ligand.clash>
0.0000

> <Gold.PLP.ligand.torsion>
1.1721

> <Gold.PLP.Chemscore.Hbond>
3.4680

> <Gold.PLP.Chemscore.CHOScore>
1.0000

> <Gold.PLP.Chemscore.Metal>
0.0000

> <Gold.Chemscore.Hbonds>
donor molecule, donor type, donor heavy atom, donor atom, acceptor molecule, acceptor atom, score
      L1  H     4    41       P1  7948  1.54
      L1  H    10    36       P1  7948  0.90
      P1  H 10752 10763       L1    13  1.00
      L1  C    17    40       P1  8028  1.00

> <Gold.PLP.Chemscore.Internal.Correction>
1.1859

> <Gold.Rescore>
     Score         DG    S(hbond)    S(metal)    S(lipo)     H(rot)  DE(clash)    DE(int)     intcor
     15.38     -16.66       2.47        0.00      61.31       1.66       0.05       1.23       ----

> <Gold.Chemscore.Fitness>
15.3819

> <Gold.Chemscore.DG>
-16.6638

> <Gold.Chemscore.ZeroCoef>
-5.4800

> <Gold.Chemscore.Hbond>
2.4707

> <Gold.Chemscore.Metal>
0.0000

> <Gold.Chemscore.Lipo>
61.3082

> <Gold.Chemscore.Internal_Hbond>
0.0000

> <Gold.Chemscore.DEClash>
0.0534

> <Gold.Chemscore.DEInternal>
1.2284

> <Gold.Chemscore.Rot>
1.6567

> <Gold.Chemscore.Internal.Correction>
   9.000000E+99

> <Gold.Chemscore.Hbonds>
donor molecule, donor type, donor heavy atom, donor atom, acceptor molecule, acceptor atom, score
      L1  H     4    41       P1  7948  0.53
      L1  H    10    36       P1  7948  0.18
      P1  H 10752 10763       L1    13  0.99

> <Gold.Chemscore.Hbond.Weighted>
-8.2520

> <Gold.Chemscore.Metal.Weighted>
-0.0000

> <Gold.Chemscore.Lipo.Weighted>
-7.1731

> <Gold.Chemscore.Internal_Hbond.Weighted>
0.0000

> <Gold.Chemscore.DEClash.Weighted>
0.0534

> <Gold.Chemscore.DEInternal.Weighted>
1.2284

> <Gold.Chemscore.Rot.Weighted>
4.2413

> <Gold.Chemscore.Internal.Correction.Weighted>
   9.000000E+99

> <Gold.Protein.RotatedTorsions>
[ 6907 6896 6895 6894 ] final   82.15 input  -60.11 | X-H torsion
[ 7974 7965 7964 7962 ] final   50.97 input  175.53 | X-H torsion
[ 8008 7997 7996 7995 ] final   10.63 input   59.86 | X-H torsion
[ 10167 10162 10161 10158 ] final  -12.24 input  -65.29 | X-H torsion
[ 10718 10713 10712 10709 ] final   83.14 input   66.30 | X-H torsion
[ 10763 10752 10751 10750 ] final   92.31 input  -60.55 | X-H torsion
[ 11005 11000 10999 10996 ] final  -62.23 input  -57.11 | X-H torsion

> <Gold.Protein.ActiveResidues>
 VAL166  LYS551  ARG553  GLY616  TRP617  ASP618  TYR619  PRO620  LYS621  CYS622 
 ASP623  PHE694  ASN695  SER759  ASP760  ASP761  ALA762  ILE779  LEU786  VAL792 
 PHE793  MET794  SER795  GLU796  ALA797  LYS798  CYS799  TRP800  GLU811  SER814 

> <Gold.Protein.RotatedAtoms>
  152.5290  134.3093  159.9107 H   0  0  0  0  0  0  0  0  0  0  0  0  # atno 6907 bound_to 6896
  151.3043  133.4102  159.2649 H   0  0  0  0  0  0  0  0  0  0  0  0  # atno 6908 bound_to 6896
  151.0092  134.9400  159.8055 H   0  0  0  0  0  0  0  0  0  0  0  0  # atno 6909 bound_to 6896
  145.9960  139.4388  143.0044 H   0  0  0  0  0  0  0  0  0  0  0  0  # atno 7974 bound_to 7965
  154.7960  140.2844  155.5957 H   0  0  0  0  0  0  0  0  0  0  0  0  # atno 8008 bound_to 7997
  156.2971  140.2595  156.2746 H   0  0  0  0  0  0  0  0  0  0  0  0  # atno 8009 bound_to 7997
  154.9614  140.0377  157.2181 H   0  0  0  0  0  0  0  0  0  0  0  0  # atno 8010 bound_to 7997
  140.7157  143.5553  150.9255 H   0  0  0  0  0  0  0  0  0  0  0  0  # atno 10167 bound_to 10162
  157.6872  131.0078  150.2479 H   0  0  0  0  0  0  0  0  0  0  0  0  # atno 10718 bound_to 10713
  153.2178  135.4366  155.0454 H   0  0  0  0  0  0  0  0  0  0  0  0  # atno 10763 bound_to 10752
  154.8234  135.3349  154.6972 H   0  0  0  0  0  0  0  0  0  0  0  0  # atno 10764 bound_to 10752
  153.7406  135.7005  153.5024 H   0  0  0  0  0  0  0  0  0  0  0  0  # atno 10765 bound_to 10752
  141.1352  133.6638  156.5496 H   0  0  0  0  0  0  0  0  0  0  0  0  # atno 11005 bound_to 11000
  145.7560  140.9954  143.1225 LP  0  0  0  0  0  0  0  0  0  0  0  0  # atno 17320 bound_to 7965
  144.6904  139.9272  143.7470 LP  0  0  0  0  0  0  0  0  0  0  0  0  # atno 17321 bound_to 7965
  139.9278  143.6529  152.3083 LP  0  0  0  0  0  0  0  0  0  0  0  0  # atno 17342 bound_to 10162
  139.6969  144.7640  151.1340 LP  0  0  0  0  0  0  0  0  0  0  0  0  # atno 17343 bound_to 10162
  156.3081  130.3768  149.7687 LP  0  0  0  0  0  0  0  0  0  0  0  0  # atno 17370 bound_to 10713
  156.5296  130.8251  151.3232 LP  0  0  0  0  0  0  0  0  0  0  0  0  # atno 17371 bound_to 10713
  140.4074  134.7302  157.4816 LP  0  0  0  0  0  0  0  0  0  0  0  0  # atno 17394 bound_to 11000
  140.0452  134.6210  155.8930 LP  0  0  0  0  0  0  0  0  0  0  0  0  # atno 17395 bound_to 11000

$$$$
