AV-unprocessed.smi:852|AV-procd|sdf|3951|dock1
  -GOLD-   22720 1423D 1   1.00000     0.00000
 Structure written by MMmdl.
 30 31  0  0  0  0  0  0  0  0  1 V2000
  152.2281  144.6190  157.9326 C   0  0  0  0  0  0  0  0  0  0  0  0
  151.1092  143.8497  158.6632 C   0  0  1  0  0  0  0  0  0  0  0  0
  150.3153  144.8005  159.4702 C   0  0  0  0  0  0  0  0  0  0  0  0
  149.6932  145.5446  160.1020 N   0  0  0  0  0  0  0  0  0  0  0  0
  150.2611  143.1780  157.6755 N   0  0  0  0  0  0  0  0  0  0  0  0
  149.2300  142.3491  157.9139 C   0  0  0  0  0  0  0  0  0  0  0  0
  148.8448  142.0439  159.0417 O   0  0  0  0  0  0  0  0  0  0  0  0
  148.5172  141.7803  156.6868 C   0  0  0  0  0  0  0  0  0  0  0  0
  149.4177  140.9630  155.8946 N   0  0  0  0  0  0  0  0  0  0  0  0
  149.2997  140.5002  154.6452 C   0  0  0  0  0  0  0  0  0  0  0  0
  150.3318  139.7705  154.2402 N   0  0  0  0  0  0  0  0  0  0  0  0
  151.0933  139.8349  155.3710 C   0  0  0  0  0  0  0  0  0  0  0  0
  152.3841  139.1727  155.4563 C   0  0  0  0  0  0  0  0  0  0  0  0
  153.4122  138.6457  155.5243 N   0  0  0  0  0  0  0  0  0  0  0  0
  150.6025  140.5327  156.3931 N   0  0  0  0  0  0  0  0  0  0  0  0
  151.7568  142.8167  159.5833 C   0  0  0  0  0  0  0  0  0  0  0  0
  152.8677  143.1619  160.5502 C   0  0  0  0  0  0  0  0  0  0  0  0
  153.1538  142.2837  159.3518 C   0  0  0  0  0  0  0  0  0  0  0  0
  152.9075  145.0894  158.6443 H   0  0  0  0  0  0  0  0  0  0  0  0
  151.8318  145.4124  157.2985 H   0  0  0  0  0  0  0  0  0  0  0  0
  152.8211  143.9559  157.3011 H   0  0  0  0  0  0  0  0  0  0  0  0
  150.4908  143.3559  156.7086 H   0  0  0  0  0  0  0  0  0  0  0  0
  147.6620  141.1721  156.9849 H   0  0  0  0  0  0  0  0  0  0  0  0
  148.1321  142.5968  156.0736 H   0  0  0  0  0  0  0  0  0  0  0  0
  148.4411  140.7005  154.0211 H   0  0  0  0  0  0  0  0  0  0  0  0
  151.0440  142.0798  159.9499 H   0  0  0  0  0  0  0  0  0  0  0  0
  153.2679  144.1736  160.5398 H   0  0  0  0  0  0  0  0  0  0  0  0
  152.8453  142.6845  161.5277 H   0  0  0  0  0  0  0  0  0  0  0  0
  153.3219  141.2245  159.5350 H   0  0  0  0  0  0  0  0  0  0  0  0
  153.7435  142.7124  158.5443 H   0  0  0  0  0  0  0  0  0  0  0  0
  1  2  1  0  0  0  0
  1 19  1  0  0  0  0
  1 20  1  0  0  0  0
  1 21  1  0  0  0  0
  2  3  1  0  0  0  0
  2  5  1  0  0  0  0
  2 16  1  0  0  0  0
  3  4  3  0  0  0  0
  5  6  1  0  0  0  0
  5 22  1  0  0  0  0
  6  7  2  0  0  0  0
  6  8  1  0  0  0  0
  8  9  1  0  0  0  0
  8 23  1  0  0  0  0
  8 24  1  0  0  0  0
  9 15  1  0  0  0  0
  9 10  1  0  0  0  0
 10 11  2  0  0  0  0
 10 25  1  0  0  0  0
 11 12  1  0  0  0  0
 12 13  1  0  0  0  0
 12 15  2  0  0  0  0
 13 14  3  0  0  0  0
 16 18  1  0  0  0  0
 16 17  1  0  0  0  0
 16 26  1  0  0  0  0
 17 18  1  0  0  0  0
 17 27  1  0  0  0  0
 17 28  1  0  0  0  0
 18 29  1  0  0  0  0
 18 30  1  0  0  0  0
M  END
> <s_m_source_file>
AV-unprocessed.smi

> <i_m_source_file_index>
852

> <i_lp_mmshare_version>
43012

> <i_f3d_flags>
0

> <s_epik_input>
W0NIMl0xW0NIMl1bQ0hdMVtDQF0oW0NIM10pKEMjTilbTkhdQyg9TylbQ0gyXW4yW2NIXW5jKG4yKUMjTg==

> <s_epik_cmdline>
J2VwaWtfcHl0aG9uJywgJy1waCcsICc3LjAnLCAnLXRuJywgJzgnLCAnLW1hJywgJzIwMCcsICctbWV0YWxfYmluZGluZycsICctaW1hZScsICc8aW5maWxlLm1hZT4nLCAnLW9tYWUnLCAnPG91dGZpbGUubWFlPic=

> <r_lp_tautomer_probability>
1

> <r_epik_Ionization_Penalty>
2.64294e-06

> <r_epik_Ionization_Penalty_Charging>
0

> <r_epik_Ionization_Penalty_Neutral>
2.64294e-06

> <r_epik_State_Penalty>
-0

> <r_epik_Charging_Adjusted_Penalty>
0

> <i_epik_Tot_Q>
0

> <i_epik_Tot_abs_Q>
0

> <r_epik_Metal_State_Penalty>
-0

> <b_epik_Metal_Only>
0

> <s_lp_Force_Field>
OPLS_2005

> <r_lp_Energy>
16.8811

> <b_lp_Chiralities_Consistent>
1

> <s_lp_Variant>
AV-unprocessed.smi:852-1

> <Gold.Version>
5.8.1

> <Gold.Id.Protein>
6NUR|6NUR_protein|mol2

> <Gold.PLP.Fitness>
40.6236

> <Gold.PLP.PLP>
-37.2883

> <Gold.PLP.part.hbond>
-5.5372

> <Gold.PLP.part.metal>
0.0000

> <Gold.PLP.part.buried>
-0.6145

> <Gold.PLP.part.nonpolar>
-30.7950

> <Gold.PLP.part.repulsive>
0.5514

> <Gold.PLP.ligand.clash>
0.0000

> <Gold.PLP.ligand.torsion>
1.0475

> <Gold.PLP.Chemscore.Hbond>
1.2893

> <Gold.PLP.Chemscore.CHOScore>
0.0000

> <Gold.PLP.Chemscore.Metal>
0.0000

> <Gold.Chemscore.Hbonds>
donor molecule, donor type, donor heavy atom, donor atom, acceptor molecule, acceptor atom, score
      L1  H     5    22       P1  8028  0.05
      P1  H  7989  7998       L1    11  0.30
      P1  H  7997  8008       L1    14  0.78

> <Gold.PLP.Chemscore.Internal.Correction>
1.5623

> <Gold.Rescore>
     Score         DG    S(hbond)    S(metal)    S(lipo)     H(rot)  DE(clash)    DE(int)     intcor
      7.33      -9.80       1.18        0.00      57.00       2.46       0.45       2.03       ----

> <Gold.Chemscore.Fitness>
7.3264

> <Gold.Chemscore.DG>
-9.7989

> <Gold.Chemscore.ZeroCoef>
-5.4800

> <Gold.Chemscore.Hbond>
1.1796

> <Gold.Chemscore.Metal>
0.0000

> <Gold.Chemscore.Lipo>
57.0008

> <Gold.Chemscore.Internal_Hbond>
0.0000

> <Gold.Chemscore.DEClash>
0.4473

> <Gold.Chemscore.DEInternal>
2.0252

> <Gold.Chemscore.Rot>
2.4571

> <Gold.Chemscore.Internal.Correction>
   9.000000E+99

> <Gold.Chemscore.Hbonds>
donor molecule, donor type, donor heavy atom, donor atom, acceptor molecule, acceptor atom, score
      L1  H     5    22       P1  8028  0.06
      P1  H  6933  6944       L1     7  0.01
      P1  H  7997  8008       L1    14  0.13

> <Gold.Chemscore.Hbond.Weighted>
-3.9399

> <Gold.Chemscore.Metal.Weighted>
-0.0000

> <Gold.Chemscore.Lipo.Weighted>
-6.6691

> <Gold.Chemscore.Internal_Hbond.Weighted>
0.0000

> <Gold.Chemscore.DEClash.Weighted>
0.4473

> <Gold.Chemscore.DEInternal.Weighted>
2.0252

> <Gold.Chemscore.Rot.Weighted>
6.2901

> <Gold.Chemscore.Internal.Correction.Weighted>
   9.000000E+99

> <Gold.Protein.RotatedTorsions>
[ 6907 6896 6895 6894 ] final -169.62 input  -60.11 | X-H torsion
[ 7974 7965 7964 7962 ] final -172.60 input  175.53 | X-H torsion
[ 8008 7997 7996 7995 ] final  -24.12 input   59.86 | X-H torsion
[ 10167 10162 10161 10158 ] final  -90.75 input  -65.29 | X-H torsion
[ 10718 10713 10712 10709 ] final -100.64 input   66.30 | X-H torsion
[ 10763 10752 10751 10750 ] final  -45.91 input  -60.55 | X-H torsion
[ 11005 11000 10999 10996 ] final   -8.94 input  -57.11 | X-H torsion

> <Gold.Protein.ActiveResidues>
 VAL166  LYS551  ARG553  GLY616  TRP617  ASP618  TYR619  PRO620  LYS621  CYS622 
 ASP623  PHE694  ASN695  SER759  ASP760  ASP761  ALA762  ILE779  LEU786  VAL792 
 PHE793  MET794  SER795  GLU796  ALA797  LYS798  CYS799  TRP800  GLU811  SER814 

> <Gold.Protein.RotatedAtoms>
  151.4946  133.3517  159.2858 H   0  0  0  0  0  0  0  0  0  0  0  0  # atno 6907 bound_to 6896
  150.8812  134.8205  159.7237 H   0  0  0  0  0  0  0  0  0  0  0  0  # atno 6908 bound_to 6896
  152.4764  134.4844  159.9727 H   0  0  0  0  0  0  0  0  0  0  0  0  # atno 6909 bound_to 6896
  144.7145  140.1748  143.6364 H   0  0  0  0  0  0  0  0  0  0  0  0  # atno 7974 bound_to 7965
  154.4547  140.1962  156.0415 H   0  0  0  0  0  0  0  0  0  0  0  0  # atno 8008 bound_to 7997
  156.0721  140.3283  155.7561 H   0  0  0  0  0  0  0  0  0  0  0  0  # atno 8009 bound_to 7997
  155.5246  140.0573  157.2891 H   0  0  0  0  0  0  0  0  0  0  0  0  # atno 8010 bound_to 7997
  140.3518  143.2887  151.9717 H   0  0  0  0  0  0  0  0  0  0  0  0  # atno 10167 bound_to 10162
  156.0169  130.5337  150.6846 H   0  0  0  0  0  0  0  0  0  0  0  0  # atno 10718 bound_to 10713
  154.0363  135.6650  153.4785 H   0  0  0  0  0  0  0  0  0  0  0  0  # atno 10763 bound_to 10752
  153.0520  135.5079  154.7885 H   0  0  0  0  0  0  0  0  0  0  0  0  # atno 10764 bound_to 10752
  154.6846  135.3051  154.9530 H   0  0  0  0  0  0  0  0  0  0  0  0  # atno 10765 bound_to 10752
  140.7288  133.8766  155.8877 H   0  0  0  0  0  0  0  0  0  0  0  0  # atno 11005 bound_to 11000
  145.8911  139.2376  143.1549 LP  0  0  0  0  0  0  0  0  0  0  0  0  # atno 17320 bound_to 7965
  145.9903  140.8608  143.0070 LP  0  0  0  0  0  0  0  0  0  0  0  0  # atno 17321 bound_to 7965
  139.4825  144.6069  151.7504 LP  0  0  0  0  0  0  0  0  0  0  0  0  # atno 17342 bound_to 10162
  140.5212  144.0876  150.6023 LP  0  0  0  0  0  0  0  0  0  0  0  0  # atno 17343 bound_to 10162
  157.4541  131.0876  151.0815 LP  0  0  0  0  0  0  0  0  0  0  0  0  # atno 17370 bound_to 10713
  157.1322  130.6107  149.5532 LP  0  0  0  0  0  0  0  0  0  0  0  0  # atno 17371 bound_to 10713
  140.9939  134.1241  157.4382 LP  0  0  0  0  0  0  0  0  0  0  0  0  # atno 17394 bound_to 11000
  139.8831  135.0048  156.6276 LP  0  0  0  0  0  0  0  0  0  0  0  0  # atno 17395 bound_to 11000

$$$$
