AV-unprocessed.smi:290|AV-procd|sdf|2242|dock8
  -GOLD-   2262022123D 1   1.00000     0.00000
 Structure written by MMmdl.
 59 62  0  0  0  0  0  0  0  0  2 V2000
  154.8119  141.0009  160.1663 C   0  0  0  0  0  0  0  0  0  0  0  0
  153.5319  141.3530  160.9408 C   0  0  1  0  0  0  0  0  0  0  0  0
  153.9193  142.0709  162.1093 O   0  0  0  0  0  0  0  0  0  0  0  0
  152.8828  142.9709  162.4578 C   0  0  0  0  0  0  0  0  0  0  0  0
  152.4405  143.4991  161.1018 C   0  0  0  0  0  0  0  0  0  0  0  0
  152.4972  142.2586  160.2135 C   0  0  2  0  0  0  0  0  0  0  0  0
  151.2365  141.6148  160.2885 O   0  0  0  0  0  0  0  0  0  0  0  0
  152.7868  142.5740  158.7223 C   0  0  0  0  0  0  0  0  0  0  0  0
  151.7612  142.0844  157.8133 N   0  0  0  0  0  0  0  0  0  0  0  0
  150.5944  142.7267  157.4682 C   0  0  0  0  0  0  0  0  0  0  0  0
  149.8340  142.0828  156.6261 N   0  0  0  0  0  0  0  0  0  0  0  0
  150.5336  140.9118  156.3556 C   0  0  0  0  0  0  0  0  0  0  0  0
  150.2954  139.7727  155.5318 C   0  0  0  0  0  0  0  0  0  0  0  0
  149.2036  139.6146  154.7398 N   0  0  0  0  0  0  0  0  0  0  0  0
  148.5931  140.7133  154.0188 C   0  0  0  0  0  0  0  0  0  0  0  0
  147.7191  140.0112  152.9891 C   0  0  0  0  0  0  0  0  0  0  0  0
  147.2057  138.7610  153.7283 C   0  0  1  0  0  0  0  0  0  0  0  0
  146.8472  137.6401  152.8036 N   0  3  2  0  0  0  0  0  0  0  0  0
  146.2102  138.1354  151.5548 C   0  0  0  0  0  0  0  0  0  0  0  0
  146.0466  136.5559  153.4426 C   0  0  0  0  0  0  0  0  0  0  0  0
  145.5973  135.4598  152.4579 C   0  0  0  0  0  0  0  0  0  0  0  0
  146.7187  134.9103  151.7986 O   0  0  0  0  0  0  0  0  0  0  0  0
  148.3369  138.4394  154.7467 C   0  0  2  0  0  0  0  0  0  0  0  0
  147.7691  138.1769  156.1599 C   0  0  0  0  0  0  0  0  0  0  0  0
  151.2264  138.7834  155.5516 N   0  0  0  0  0  0  0  0  0  0  0  0
  152.3255  138.9018  156.3016 C   0  0  0  0  0  0  0  0  0  0  0  0
  152.6844  139.9072  157.1011 N   0  0  0  0  0  0  0  0  0  0  0  0
  151.7471  140.8972  157.1019 C   0  0  0  0  0  0  0  0  0  0  0  0
  146.3073  139.0497  154.2777 H   0  0  0  0  0  0  0  0  0  0  0  0
  148.9218  137.5895  154.3955 H   0  0  0  0  0  0  0  0  0  0  0  0
  154.5874  140.4444  159.2563 H   0  0  0  0  0  0  0  0  0  0  0  0
  155.4689  140.3783  160.7742 H   0  0  0  0  0  0  0  0  0  0  0  0
  155.3732  141.8946  159.8924 H   0  0  0  0  0  0  0  0  0  0  0  0
  153.0606  140.4234  161.2657 H   0  0  0  0  0  0  0  0  0  0  0  0
  152.0751  142.4319  162.9553 H   0  0  0  0  0  0  0  0  0  0  0  0
  153.2386  143.7574  163.1236 H   0  0  0  0  0  0  0  0  0  0  0  0
  151.4626  143.9822  161.1266 H   0  0  0  0  0  0  0  0  0  0  0  0
  153.1675  144.2375  160.7610 H   0  0  0  0  0  0  0  0  0  0  0  0
  150.5664  142.2363  160.0478 H   0  0  0  0  0  0  0  0  0  0  0  0
  152.8667  143.6505  158.5697 H   0  0  0  0  0  0  0  0  0  0  0  0
  153.7445  142.1478  158.4205 H   0  0  0  0  0  0  0  0  0  0  0  0
  150.3215  143.6936  157.8657 H   0  0  0  0  0  0  0  0  0  0  0  0
  147.9939  141.3134  154.7048 H   0  0  0  0  0  0  0  0  0  0  0  0
  149.3327  141.3581  153.5425 H   0  0  0  0  0  0  0  0  0  0  0  0
  146.9191  140.6551  152.6225 H   0  0  0  0  0  0  0  0  0  0  0  0
  148.3355  139.7191  152.1371 H   0  0  0  0  0  0  0  0  0  0  0  0
  145.2483  138.6033  151.7686 H   0  0  0  0  0  0  0  0  0  0  0  0
  146.0449  137.3346  150.8365 H   0  0  0  0  0  0  0  0  0  0  0  0
  146.8337  138.8668  151.0420 H   0  0  0  0  0  0  0  0  0  0  0  0
  146.6235  136.0512  154.2141 H   0  0  0  0  0  0  0  0  0  0  0  0
  145.1812  136.9929  153.9430 H   0  0  0  0  0  0  0  0  0  0  0  0
  145.1034  134.6584  153.0082 H   0  0  0  0  0  0  0  0  0  0  0  0
  144.8737  135.8168  151.7266 H   0  0  0  0  0  0  0  0  0  0  0  0
  147.4693  135.4594  151.9704 H   0  0  0  0  0  0  0  0  0  0  0  0
  147.0480  137.3611  156.1676 H   0  0  0  0  0  0  0  0  0  0  0  0
  147.2604  139.0600  156.5482 H   0  0  0  0  0  0  0  0  0  0  0  0
  148.5518  137.9156  156.8710 H   0  0  0  0  0  0  0  0  0  0  0  0
  153.0170  138.0735  156.2525 H   0  0  0  0  0  0  0  0  0  0  0  0
  147.7223  137.2127  152.5347 H   0  0  0  0  0  0  0  0  0  0  0  0
  1  2  1  0  0  0  0
  1 31  1  0  0  0  0
  1 32  1  0  0  0  0
  1 33  1  0  0  0  0
  2  6  1  0  0  0  0
  2  3  1  0  0  0  0
  2 34  1  0  0  0  0
  3  4  1  0  0  0  0
  4  5  1  0  0  0  0
  4 35  1  0  0  0  0
  4 36  1  0  0  0  0
  5  6  1  0  0  0  0
  5 37  1  0  0  0  0
  5 38  1  0  0  0  0
  6  7  1  0  0  0  0
  6  8  1  0  0  0  0
  7 39  1  0  0  0  0
  8  9  1  0  0  0  0
  8 40  1  0  0  0  0
  8 41  1  0  0  0  0
  9 28  1  0  0  0  0
  9 10  1  0  0  0  0
 10 11  2  0  0  0  0
 10 42  1  0  0  0  0
 11 12  1  0  0  0  0
 12 28  2  0  0  0  0
 12 13  1  0  0  0  0
 13 14  1  0  0  0  0
 13 25  2  0  0  0  0
 14 23  1  0  0  0  0
 14 15  1  0  0  0  0
 15 16  1  0  0  0  0
 15 43  1  0  0  0  0
 15 44  1  0  0  0  0
 16 17  1  0  0  0  0
 16 45  1  0  0  0  0
 16 46  1  0  0  0  0
 17 29  1  0  0  0  0
 17 18  1  0  0  0  0
 17 23  1  0  0  0  0
 18 19  1  0  0  0  0
 18 20  1  0  0  0  0
 18 59  1  0  0  0  0
 19 47  1  0  0  0  0
 19 48  1  0  0  0  0
 19 49  1  0  0  0  0
 20 21  1  0  0  0  0
 20 50  1  0  0  0  0
 20 51  1  0  0  0  0
 21 22  1  0  0  0  0
 21 52  1  0  0  0  0
 21 53  1  0  0  0  0
 22 54  1  0  0  0  0
 23 30  1  0  0  0  0
 23 24  1  0  0  0  0
 24 55  1  0  0  0  0
 24 56  1  0  0  0  0
 24 57  1  0  0  0  0
 25 26  1  0  0  0  0
 26 27  2  0  0  0  0
 26 58  1  0  0  0  0
 27 28  1  0  0  0  0
M  CHG  1  18   1
M  END
> <s_m_source_file>
AV-unprocessed.smi

> <i_m_source_file_index>
290

> <i_lp_mmshare_version>
43012

> <i_f3d_flags>
0

> <s_epik_input>
W0NIMl0xW0NIMl1PW0NAQEhdKFtDSDNdKVtDQEBdMShbT0hdKVtDSDJdbihbY0hdbjIpYyhjMjMpbltjSF1uYzNONFtDSDJdW0NIMl1bQ0BIXShbQ0BIXTRbQ0gzXSlOKFtDSDNdKVtDSDJdW0NIMl1bT0hd

> <s_epik_cmdline>
J2VwaWtfcHl0aG9uJywgJy1waCcsICc3LjAnLCAnLXRuJywgJzgnLCAnLW1hJywgJzIwMCcsICctbWV0YWxfYmluZGluZycsICctaW1hZScsICc8aW5maWxlLm1hZT4nLCAnLW9tYWUnLCAnPG91dGZpbGUubWFlPic=

> <r_lp_tautomer_probability>
1

> <r_epik_Ionization_Penalty>
0.0036983

> <r_epik_Ionization_Penalty_Charging>
0.0032725

> <r_epik_Ionization_Penalty_Neutral>
0.000425798

> <r_epik_State_Penalty>
-0

> <r_epik_Charging_Adjusted_Penalty>
0.0032725

> <i_epik_Tot_Q>
1

> <i_epik_Tot_abs_Q>
1

> <r_epik_Metal_State_Penalty>
-0

> <b_epik_Metal_Only>
0

> <s_lp_Force_Field>
OPLS_2005

> <r_lp_Energy>
64.6527

> <b_lp_Chiralities_Consistent>
1

> <s_lp_Variant>
AV-unprocessed.smi:290-28

> <Gold.Version>
5.8.1

> <Gold.Id.Protein>
6NUR|6NUR_protein|mol2

> <Gold.PLP.Fitness>
51.2624

> <Gold.PLP.PLP>
-44.0195

> <Gold.PLP.part.hbond>
-4.9975

> <Gold.PLP.part.metal>
0.0000

> <Gold.PLP.part.buried>
3.4748

> <Gold.PLP.part.nonpolar>
-42.5427

> <Gold.PLP.part.repulsive>
1.0094

> <Gold.PLP.ligand.clash>
0.0000

> <Gold.PLP.ligand.torsion>
2.5900

> <Gold.PLP.Chemscore.Hbond>
4.0000

> <Gold.PLP.Chemscore.CHOScore>
0.0835

> <Gold.PLP.Chemscore.Metal>
0.0000

> <Gold.Chemscore.Hbonds>
donor molecule, donor type, donor heavy atom, donor atom, acceptor molecule, acceptor atom, score
      L1  H    18    59       P1  7948  2.00
      L1  H    22    54       P1  7948  1.00
      P1  H  7997  8010       L1    27  0.90
      L1  C    10    42       P1  8028  0.13

> <Gold.PLP.Chemscore.Internal.Correction>
0.1722

> <Gold.Rescore>
     Score         DG    S(hbond)    S(metal)    S(lipo)     H(rot)  DE(clash)    DE(int)     intcor
     11.43     -18.36       2.39        0.00     115.18       3.35       3.28       3.65       ----

> <Gold.Chemscore.Fitness>
11.4313

> <Gold.Chemscore.DG>
-18.3600

> <Gold.Chemscore.ZeroCoef>
-5.4800

> <Gold.Chemscore.Hbond>
2.3907

> <Gold.Chemscore.Metal>
0.0000

> <Gold.Chemscore.Lipo>
115.1774

> <Gold.Chemscore.Internal_Hbond>
0.0000

> <Gold.Chemscore.DEClash>
3.2755

> <Gold.Chemscore.DEInternal>
3.6532

> <Gold.Chemscore.Rot>
3.3518

> <Gold.Chemscore.Internal.Correction>
   9.000000E+99

> <Gold.Chemscore.Hbonds>
donor molecule, donor type, donor heavy atom, donor atom, acceptor molecule, acceptor atom, score
      L1  H    18    59       P1  7948  1.00
      L1  H    22    54       P1  7948  0.99
      P1  H  7997  8010       L1    27  0.18

> <Gold.Chemscore.Hbond.Weighted>
-7.9848

> <Gold.Chemscore.Metal.Weighted>
-0.0000

> <Gold.Chemscore.Lipo.Weighted>
-13.4758

> <Gold.Chemscore.Internal_Hbond.Weighted>
0.0000

> <Gold.Chemscore.DEClash.Weighted>
3.2755

> <Gold.Chemscore.DEInternal.Weighted>
3.6532

> <Gold.Chemscore.Rot.Weighted>
8.5806

> <Gold.Chemscore.Internal.Correction.Weighted>
   9.000000E+99

> <Gold.Protein.RotatedTorsions>
[ 6907 6896 6895 6894 ] final   -9.89 input  -60.11 | X-H torsion
[ 7974 7965 7964 7962 ] final -143.23 input  175.53 | X-H torsion
[ 8008 7997 7996 7995 ] final   67.08 input   59.86 | X-H torsion
[ 10167 10162 10161 10158 ] final  -91.64 input  -65.29 | X-H torsion
[ 10718 10713 10712 10709 ] final   92.43 input   66.30 | X-H torsion
[ 10763 10752 10751 10750 ] final  131.14 input  -60.55 | X-H torsion
[ 11005 11000 10999 10996 ] final  168.27 input  -57.11 | X-H torsion

> <Gold.Protein.ActiveResidues>
 VAL166  LYS551  ARG553  GLY616  TRP617  ASP618  TYR619  PRO620  LYS621  CYS622 
 ASP623  PHE694  ASN695  SER759  ASP760  ASP761  ALA762  ILE779  LEU786  VAL792 
 PHE793  MET794  SER795  GLU796  ALA797  LYS798  CYS799  TRP800  GLU811  SER814 

> <Gold.Protein.RotatedAtoms>
  151.4105  135.0984  159.9583 H   0  0  0  0  0  0  0  0  0  0  0  0  # atno 6907 bound_to 6896
  152.5021  133.8802  159.7353 H   0  0  0  0  0  0  0  0  0  0  0  0  # atno 6908 bound_to 6896
  150.9295  133.6726  159.2842 H   0  0  0  0  0  0  0  0  0  0  0  0  # atno 6909 bound_to 6896
  144.8384  140.5860  143.5468 H   0  0  0  0  0  0  0  0  0  0  0  0  # atno 7974 bound_to 7965
  155.6874  140.3496  155.4879 H   0  0  0  0  0  0  0  0  0  0  0  0  # atno 8008 bound_to 7997
  155.9554  140.1127  157.0963 H   0  0  0  0  0  0  0  0  0  0  0  0  # atno 8009 bound_to 7997
  154.4131  140.1186  156.5094 H   0  0  0  0  0  0  0  0  0  0  0  0  # atno 8010 bound_to 7997
  140.3428  143.2933  151.9815 H   0  0  0  0  0  0  0  0  0  0  0  0  # atno 10167 bound_to 10162
  157.6958  131.0443  150.3881 H   0  0  0  0  0  0  0  0  0  0  0  0  # atno 10718 bound_to 10713
  153.7694  135.3184  155.3349 H   0  0  0  0  0  0  0  0  0  0  0  0  # atno 10763 bound_to 10752
  154.8202  135.4609  154.0759 H   0  0  0  0  0  0  0  0  0  0  0  0  # atno 10764 bound_to 10752
  153.2014  135.6923  153.8311 H   0  0  0  0  0  0  0  0  0  0  0  0  # atno 10765 bound_to 10752
  140.2855  134.7716  157.3794 H   0  0  0  0  0  0  0  0  0  0  0  0  # atno 11005 bound_to 11000
  145.4745  139.1500  143.3796 LP  0  0  0  0  0  0  0  0  0  0  0  0  # atno 17320 bound_to 7965
  146.2680  140.4880  142.8826 LP  0  0  0  0  0  0  0  0  0  0  0  0  # atno 17321 bound_to 7965
  139.4838  144.6142  151.7377 LP  0  0  0  0  0  0  0  0  0  0  0  0  # atno 17342 bound_to 10162
  140.5293  144.0756  150.6048 LP  0  0  0  0  0  0  0  0  0  0  0  0  # atno 17343 bound_to 10162
  156.4287  130.3967  149.6775 LP  0  0  0  0  0  0  0  0  0  0  0  0  # atno 17370 bound_to 10713
  156.4000  130.7670  151.2677 LP  0  0  0  0  0  0  0  0  0  0  0  0  # atno 17371 bound_to 10713
  140.1243  134.5178  155.8157 LP  0  0  0  0  0  0  0  0  0  0  0  0  # atno 17394 bound_to 11000
  141.2155  133.6767  156.6924 LP  0  0  0  0  0  0  0  0  0  0  0  0  # atno 17395 bound_to 11000

$$$$
