AV-unprocessed.smi:1548|AV-procd|sdf|6221|dock1
  -GOLD-   22720 6393D 1   1.00000     0.00000
 Structure written by MMmdl.
 45 46  0  0  0  0  0  0  0  0  1 V2000
  146.3397  133.5053  150.7394 C   0  0  0  0  0  0  0  0  0  0  0  0
  146.5244  133.1547  152.2178 C   0  0  0  0  0  0  0  0  0  0  0  0
  146.8865  134.3369  152.9252 O   0  0  0  0  0  0  0  0  0  0  0  0
  146.2893  134.5898  154.1456 C   0  0  0  0  0  0  0  0  0  0  0  0
  145.3395  133.7292  154.5910 N   0  0  0  0  0  0  0  0  0  0  0  0
  144.7589  133.9733  155.7839 C   0  0  0  0  0  0  0  0  0  0  0  0
  145.0940  135.0746  156.5929 C   0  0  0  0  0  0  0  0  0  0  0  0
  146.0774  135.9693  156.1327 C   0  0  0  0  0  0  0  0  0  0  0  0
  146.6859  135.7341  154.8763 C   0  0  0  0  0  0  0  0  0  0  0  0
  147.7063  136.5634  154.3360 N   0  0  0  0  0  0  0  0  0  0  0  0
  148.2913  137.6330  154.9006 C   0  0  0  0  0  0  0  0  0  0  0  0
  147.9854  138.1138  155.9917 O   0  0  0  0  0  0  0  0  0  0  0  0
  149.2479  138.1356  154.1071 N   0  0  0  0  0  0  0  0  0  0  0  0
  150.0690  139.3074  154.4003 C   0  0  0  0  0  0  0  0  0  0  0  0
  151.0805  138.9833  155.5103 C   0  0  0  0  0  0  0  0  0  0  0  0
  151.9011  140.2250  155.9017 C   0  0  0  0  0  0  0  0  0  0  0  0
  151.0316  141.3647  156.2572 N   0  0  0  0  0  0  0  0  0  0  0  0
  150.7589  141.7632  157.9293 S   0  0  0  0  0  0  0  0  0  0  0  0
  151.7058  143.3200  158.1807 C   0  0  0  0  0  0  0  0  0  0  0  0
  149.3284  142.0645  158.0926 O   0  0  0  0  0  0  0  0  0  0  0  0
  151.3805  140.7118  158.7488 O   0  0  0  0  0  0  0  0  0  0  0  0
  150.0124  141.7018  155.2433 C   0  0  0  0  0  0  0  0  0  0  0  0
  149.1754  140.4727  154.8478 C   0  0  0  0  0  0  0  0  0  0  0  0
  146.0474  132.6265  150.1645 H   0  0  0  0  0  0  0  0  0  0  0  0
  147.2638  133.8934  150.3109 H   0  0  0  0  0  0  0  0  0  0  0  0
  145.5656  134.2620  150.6103 H   0  0  0  0  0  0  0  0  0  0  0  0
  145.5946  132.7439  152.6144 H   0  0  0  0  0  0  0  0  0  0  0  0
  147.3014  132.3955  152.3193 H   0  0  0  0  0  0  0  0  0  0  0  0
  144.0096  133.2656  156.1059 H   0  0  0  0  0  0  0  0  0  0  0  0
  144.6121  135.2265  157.5474 H   0  0  0  0  0  0  0  0  0  0  0  0
  146.3576  136.8056  156.7548 H   0  0  0  0  0  0  0  0  0  0  0  0
  147.9796  136.3512  153.3876 H   0  0  0  0  0  0  0  0  0  0  0  0
  149.4207  137.6729  153.2267 H   0  0  0  0  0  0  0  0  0  0  0  0
  150.6153  139.6213  153.5087 H   0  0  0  0  0  0  0  0  0  0  0  0
  150.5605  138.5921  156.3844 H   0  0  0  0  0  0  0  0  0  0  0  0
  151.7547  138.1926  155.1793 H   0  0  0  0  0  0  0  0  0  0  0  0
  152.5764  139.9904  156.7241 H   0  0  0  0  0  0  0  0  0  0  0  0
  152.5312  140.5227  155.0629 H   0  0  0  0  0  0  0  0  0  0  0  0
  151.5943  143.6404  159.2162 H   0  0  0  0  0  0  0  0  0  0  0  0
  151.3190  144.0994  157.5266 H   0  0  0  0  0  0  0  0  0  0  0  0
  152.7614  143.1500  157.9766 H   0  0  0  0  0  0  0  0  0  0  0  0
  149.3654  142.5005  155.6050 H   0  0  0  0  0  0  0  0  0  0  0  0
  150.5212  142.0946  154.3622 H   0  0  0  0  0  0  0  0  0  0  0  0
  148.4906  140.7444  154.0434 H   0  0  0  0  0  0  0  0  0  0  0  0
  148.5513  140.1628  155.6853 H   0  0  0  0  0  0  0  0  0  0  0  0
  1  2  1  0  0  0  0
  1 24  1  0  0  0  0
  1 25  1  0  0  0  0
  1 26  1  0  0  0  0
  2  3  1  0  0  0  0
  2 27  1  0  0  0  0
  2 28  1  0  0  0  0
  3  4  1  0  0  0  0
  4  9  1  0  0  0  0
  4  5  2  0  0  0  0
  5  6  1  0  0  0  0
  6  7  2  0  0  0  0
  6 29  1  0  0  0  0
  7  8  1  0  0  0  0
  7 30  1  0  0  0  0
  8  9  2  0  0  0  0
  8 31  1  0  0  0  0
  9 10  1  0  0  0  0
 10 11  1  0  0  0  0
 10 32  1  0  0  0  0
 11 12  2  0  0  0  0
 11 13  1  0  0  0  0
 13 14  1  0  0  0  0
 13 33  1  0  0  0  0
 14 23  1  0  0  0  0
 14 15  1  0  0  0  0
 14 34  1  0  0  0  0
 15 16  1  0  0  0  0
 15 35  1  0  0  0  0
 15 36  1  0  0  0  0
 16 17  1  0  0  0  0
 16 37  1  0  0  0  0
 16 38  1  0  0  0  0
 17 18  1  0  0  0  0
 17 22  1  0  0  0  0
 18 19  1  0  0  0  0
 18 20  2  0  0  0  0
 18 21  2  0  0  0  0
 19 39  1  0  0  0  0
 19 40  1  0  0  0  0
 19 41  1  0  0  0  0
 22 23  1  0  0  0  0
 22 42  1  0  0  0  0
 22 43  1  0  0  0  0
 23 44  1  0  0  0  0
 23 45  1  0  0  0  0
M  END
> <s_m_source_file>
AV-unprocessed.smi

> <i_m_source_file_index>
1548

> <i_lp_mmshare_version>
43012

> <i_f3d_flags>
0

> <s_epik_input>
W0NIM11bQ0gyXU9jMW5bY0hdW2NIXVtjSF1jMVtOSF1DKD1PKVtOSF1bQ0hdMltDSDJdW0NIMl1OKFMoPU8pKD1PKVtDSDNdKVtDSDJdW0NIMl0y

> <s_epik_cmdline>
J2VwaWtfcHl0aG9uJywgJy1waCcsICc3LjAnLCAnLXRuJywgJzgnLCAnLW1hJywgJzIwMCcsICctbWV0YWxfYmluZGluZycsICctaW1hZScsICc8aW5maWxlLm1hZT4nLCAnLW9tYWUnLCAnPG91dGZpbGUubWFlPic=

> <r_lp_tautomer_probability>
1

> <r_epik_Ionization_Penalty>
0.000113093

> <r_epik_Ionization_Penalty_Charging>
0

> <r_epik_Ionization_Penalty_Neutral>
0.000113093

> <r_epik_State_Penalty>
-0

> <r_epik_Charging_Adjusted_Penalty>
0

> <i_epik_Tot_Q>
0

> <i_epik_Tot_abs_Q>
0

> <r_epik_Metal_State_Penalty>
-0

> <b_epik_Metal_Only>
0

> <s_lp_Force_Field>
OPLS_2005

> <r_lp_Energy>
3.39389

> <b_lp_Chiralities_Consistent>
1

> <s_lp_Variant>
AV-unprocessed.smi:1548-1

> <Gold.Version>
5.8.1

> <Gold.Id.Protein>
6NUR|6NUR_protein|mol2

> <Gold.PLP.Fitness>
35.8536

> <Gold.PLP.PLP>
-27.8882

> <Gold.PLP.part.hbond>
-2.0000

> <Gold.PLP.part.metal>
0.0000

> <Gold.PLP.part.buried>
-3.7732

> <Gold.PLP.part.nonpolar>
-23.0859

> <Gold.PLP.part.repulsive>
1.6148

> <Gold.PLP.ligand.clash>
0.0000

> <Gold.PLP.ligand.torsion>
1.4616

> <Gold.PLP.Chemscore.Hbond>
2.0000

> <Gold.PLP.Chemscore.CHOScore>
0.9276

> <Gold.PLP.Chemscore.Metal>
0.0000

> <Gold.Chemscore.Hbonds>
donor molecule, donor type, donor heavy atom, donor atom, acceptor molecule, acceptor atom, score
      L1  H    10    32       P1  7948  1.00
      L1  H    13    33       P1  7948  1.00
      L1  C     6    29       P1 10957  1.00

> <Gold.PLP.Chemscore.Internal.Correction>
2.1056

> <Gold.Rescore>
     Score         DG    S(hbond)    S(metal)    S(lipo)     H(rot)  DE(clash)    DE(int)     intcor
     11.26     -15.56       1.92        0.00      63.11       1.45       0.34       3.95       ----

> <Gold.Chemscore.Fitness>
11.2598

> <Gold.Chemscore.DG>
-15.5555

> <Gold.Chemscore.ZeroCoef>
-5.4800

> <Gold.Chemscore.Hbond>
1.9211

> <Gold.Chemscore.Metal>
0.0000

> <Gold.Chemscore.Lipo>
63.1053

> <Gold.Chemscore.Internal_Hbond>
0.0000

> <Gold.Chemscore.DEClash>
0.3447

> <Gold.Chemscore.DEInternal>
3.9511

> <Gold.Chemscore.Rot>
1.4549

> <Gold.Chemscore.Internal.Correction>
   9.000000E+99

> <Gold.Chemscore.Hbonds>
donor molecule, donor type, donor heavy atom, donor atom, acceptor molecule, acceptor atom, score
      L1  H    10    32       P1  7948  1.00
      L1  H    13    33       P1  7948  0.87

> <Gold.Chemscore.Hbond.Weighted>
-6.4166

> <Gold.Chemscore.Metal.Weighted>
-0.0000

> <Gold.Chemscore.Lipo.Weighted>
-7.3833

> <Gold.Chemscore.Internal_Hbond.Weighted>
0.0000

> <Gold.Chemscore.DEClash.Weighted>
0.3447

> <Gold.Chemscore.DEInternal.Weighted>
3.9511

> <Gold.Chemscore.Rot.Weighted>
3.7244

> <Gold.Chemscore.Internal.Correction.Weighted>
   9.000000E+99

> <Gold.Protein.RotatedTorsions>
[ 6907 6896 6895 6894 ] final  -58.11 input  -60.11 | X-H torsion
[ 7974 7965 7964 7962 ] final -166.47 input  175.53 | X-H torsion
[ 8008 7997 7996 7995 ] final  -18.06 input   59.86 | X-H torsion
[ 10167 10162 10161 10158 ] final  152.41 input  -65.29 | X-H torsion
[ 10718 10713 10712 10709 ] final  -98.51 input   66.30 | X-H torsion
[ 10763 10752 10751 10750 ] final  -76.62 input  -60.55 | X-H torsion
[ 11005 11000 10999 10996 ] final  -34.66 input  -57.11 | X-H torsion

> <Gold.Protein.ActiveResidues>
 VAL166  LYS551  ARG553  GLY616  TRP617  ASP618  TYR619  PRO620  LYS621  CYS622 
 ASP623  PHE694  ASN695  SER759  ASP760  ASP761  ALA762  ILE779  LEU786  VAL792 
 PHE793  MET794  SER795  GLU796  ALA797  LYS798  CYS799  TRP800  GLU811  SER814 

> <Gold.Protein.RotatedAtoms>
  150.8033  134.7141  159.6620 H   0  0  0  0  0  0  0  0  0  0  0  0  # atno 6907 bound_to 6896
  152.4151  134.6053  160.0021 H   0  0  0  0  0  0  0  0  0  0  0  0  # atno 6908 bound_to 6896
  151.6284  133.3297  159.3139 H   0  0  0  0  0  0  0  0  0  0  0  0  # atno 6909 bound_to 6896
  144.7244  140.2661  143.6257 H   0  0  0  0  0  0  0  0  0  0  0  0  # atno 7974 bound_to 7965
  154.4933  140.2126  155.9501 H   0  0  0  0  0  0  0  0  0  0  0  0  # atno 8008 bound_to 7997
  156.1336  140.3192  155.8354 H   0  0  0  0  0  0  0  0  0  0  0  0  # atno 8009 bound_to 7997
  155.4252  140.0499  157.3013 H   0  0  0  0  0  0  0  0  0  0  0  0  # atno 8010 bound_to 7997
  139.4833  144.5360  151.7644 H   0  0  0  0  0  0  0  0  0  0  0  0  # atno 10167 bound_to 10162
  156.0109  130.5241  150.6534 H   0  0  0  0  0  0  0  0  0  0  0  0  # atno 10718 bound_to 10713
  154.5023  135.5791  153.6540 H   0  0  0  0  0  0  0  0  0  0  0  0  # atno 10763 bound_to 10752
  152.9881  135.6138  154.2987 H   0  0  0  0  0  0  0  0  0  0  0  0  # atno 10764 bound_to 10752
  154.2895  135.2849  155.2640 H   0  0  0  0  0  0  0  0  0  0  0  0  # atno 10765 bound_to 10752
  140.9734  133.7096  156.1562 H   0  0  0  0  0  0  0  0  0  0  0  0  # atno 11005 bound_to 11000
  145.8088  139.1994  143.2005 LP  0  0  0  0  0  0  0  0  0  0  0  0  # atno 17320 bound_to 7965
  146.0613  140.7967  142.9733 LP  0  0  0  0  0  0  0  0  0  0  0  0  # atno 17321 bound_to 7965
  140.4893  144.1334  150.5947 LP  0  0  0  0  0  0  0  0  0  0  0  0  # atno 17342 bound_to 10162
  140.4189  143.2621  151.9740 LP  0  0  0  0  0  0  0  0  0  0  0  0  # atno 17343 bound_to 10162
  157.4291  131.0847  151.1056 LP  0  0  0  0  0  0  0  0  0  0  0  0  # atno 17370 bound_to 10713
  157.1635  130.6236  149.5618 LP  0  0  0  0  0  0  0  0  0  0  0  0  # atno 17371 bound_to 10713
  140.7294  134.4271  157.5567 LP  0  0  0  0  0  0  0  0  0  0  0  0  # atno 17394 bound_to 11000
  139.8921  134.8763  156.2287 LP  0  0  0  0  0  0  0  0  0  0  0  0  # atno 17395 bound_to 11000

$$$$
