AV-unprocessed.smi:3234|AV-procd|sdf|12352|dock2
  -GOLD-   2272018213D 1   1.00000     0.00000
 Structure written by MMmdl.
 38 40  0  0  0  0  0  0  0  0  3 V2000
  146.6130  132.1906  153.8804 O   0  0  0  0  0  0  0  0  0  0  0  0
  147.3344  131.8369  152.9490 C   0  0  0  0  0  0  0  0  0  0  0  0
  146.9856  131.8111  151.6501 N   0  0  0  0  0  0  0  0  0  0  0  0
  145.7550  132.1707  151.0304 C   0  0  0  0  0  0  0  0  0  0  0  0
  144.7195  132.6218  151.8797 C   0  0  0  0  0  0  0  0  0  0  0  0
  143.4749  132.9917  151.3303 C   0  0  0  0  0  0  0  0  0  0  0  0
  143.2788  132.9116  149.9974 N   0  3  0  0  0  0  0  0  0  0  0  0
  144.2344  132.4850  149.1445 C   0  0  0  0  0  0  0  0  0  0  0  0
  145.4992  132.1016  149.6358 C   0  0  0  0  0  0  0  0  0  0  0  0
  148.5968  131.4190  153.1202 N   0  0  0  0  0  0  0  0  0  0  0  0
  149.2736  131.3355  154.4105 C   0  0  2  0  0  0  0  0  0  0  0  0
  149.9963  132.6112  154.8320 C   0  0  0  0  0  0  0  0  0  0  0  0
  150.9980  132.0986  155.8731 C   0  0  0  0  0  0  0  0  0  0  0  0
  151.2946  130.6867  155.5231 N   0  3  1  0  0  0  0  0  0  0  0  0
  151.2099  129.7625  156.6751 C   0  0  0  0  0  0  0  0  0  0  0  0
  150.1782  130.1684  157.7005 C   0  0  0  0  0  0  0  0  0  0  0  0
  151.6503  130.3812  157.9803 C   0  0  0  0  0  0  0  0  0  0  0  0
  150.4088  130.3128  154.3982 C   0  0  0  0  0  0  0  0  0  0  0  0
  147.6984  131.4809  151.0160 H   0  0  0  0  0  0  0  0  0  0  0  0
  144.8731  132.6863  152.9473 H   0  0  0  0  0  0  0  0  0  0  0  0
  142.6372  133.3459  151.9131 H   0  0  0  0  0  0  0  0  0  0  0  0
  143.9606  132.4619  148.0997 H   0  0  0  0  0  0  0  0  0  0  0  0
  146.2359  131.7630  148.9254 H   0  0  0  0  0  0  0  0  0  0  0  0
  149.1247  131.1407  152.3057 H   0  0  0  0  0  0  0  0  0  0  0  0
  148.5559  131.0536  155.1840 H   0  0  0  0  0  0  0  0  0  0  0  0
  150.5290  133.0441  153.9837 H   0  0  0  0  0  0  0  0  0  0  0  0
  149.3239  133.3709  155.2325 H   0  0  0  0  0  0  0  0  0  0  0  0
  151.9096  132.6964  155.8926 H   0  0  0  0  0  0  0  0  0  0  0  0
  150.5483  132.1546  156.8660 H   0  0  0  0  0  0  0  0  0  0  0  0
  151.4019  128.7108  156.4688 H   0  0  0  0  0  0  0  0  0  0  0  0
  149.5715  131.0499  157.5007 H   0  0  0  0  0  0  0  0  0  0  0  0
  149.6767  129.3738  158.2492 H   0  0  0  0  0  0  0  0  0  0  0  0
  152.1177  129.7269  158.7134 H   0  0  0  0  0  0  0  0  0  0  0  0
  152.0223  131.4042  157.9664 H   0  0  0  0  0  0  0  0  0  0  0  0
  150.0458  129.2860  154.4669 H   0  0  0  0  0  0  0  0  0  0  0  0
  150.9866  130.3960  153.4764 H   0  0  0  0  0  0  0  0  0  0  0  0
  152.2433  130.6459  155.1788 H   0  0  0  0  0  0  0  0  0  0  0  0
  142.3711  133.1835  149.6188 H   0  0  0  0  0  0  0  0  0  0  0  0
  1  2  2  0  0  0  0
  2  3  1  0  0  0  0
  2 10  1  0  0  0  0
  3  4  1  0  0  0  0
  3 19  1  0  0  0  0
  4  9  1  0  0  0  0
  4  5  2  0  0  0  0
  5  6  1  0  0  0  0
  5 20  1  0  0  0  0
  6  7  2  0  0  0  0
  6 21  1  0  0  0  0
  7  8  1  0  0  0  0
  7 38  1  0  0  0  0
  8  9  2  0  0  0  0
  8 22  1  0  0  0  0
  9 23  1  0  0  0  0
 10 11  1  0  0  0  0
 10 24  1  0  0  0  0
 11 18  1  0  0  0  0
 11 12  1  0  0  0  0
 11 25  1  0  0  0  0
 12 13  1  0  0  0  0
 12 26  1  0  0  0  0
 12 27  1  0  0  0  0
 13 14  1  0  0  0  0
 13 28  1  0  0  0  0
 13 29  1  0  0  0  0
 14 15  1  0  0  0  0
 14 18  1  0  0  0  0
 14 37  1  0  0  0  0
 15 17  1  0  0  0  0
 15 16  1  0  0  0  0
 15 30  1  0  0  0  0
 16 17  1  0  0  0  0
 16 31  1  0  0  0  0
 16 32  1  0  0  0  0
 17 33  1  0  0  0  0
 17 34  1  0  0  0  0
 18 35  1  0  0  0  0
 18 36  1  0  0  0  0
M  CHG  1   7   1
M  CHG  1  14   1
M  END
> <s_m_source_file>
AV-unprocessed.smi

> <i_m_source_file_index>
3234

> <i_lp_mmshare_version>
43012

> <i_f3d_flags>
0

> <s_epik_input>
W2NIXTFbY0hdbltjSF1bY0hdYzFbTkhdQyg9TylbTkhdW0NAQEhdMltDSDJdW0NIMl1OKFtDSDJdMilbQ0hdM1tDSDJdW0NIMl0z

> <s_epik_cmdline>
J2VwaWtfcHl0aG9uJywgJy1waCcsICc3LjAnLCAnLXRuJywgJzgnLCAnLW1hJywgJzIwMCcsICctbWV0YWxfYmluZGluZycsICctaW1hZScsICc8aW5maWxlLm1hZT4nLCAnLW9tYWUnLCAnPG91dGZpbGUubWFlPic=

> <r_epik_Ionization_Penalty>
1.14489

> <r_epik_Ionization_Penalty_Charging>
1.14487

> <r_epik_Ionization_Penalty_Neutral>
1.95212e-05

> <r_epik_State_Penalty>
1.205

> <r_epik_Charging_Adjusted_Penalty>
2.34987

> <i_epik_Tot_Q>
2

> <i_epik_Tot_abs_Q>
2

> <r_epik_Metal_State_Penalty>
1.28709

> <b_epik_Metal_Only>
0

> <s_lp_Force_Field>
OPLS_2005

> <r_lp_Energy>
49.761

> <b_lp_Chiralities_Consistent>
1

> <s_lp_Variant>
AV-unprocessed.smi:3234-5

> <Gold.Version>
5.8.1

> <Gold.Id.Protein>
6NUR|6NUR_protein|mol2

> <Gold.PLP.Fitness>
42.3512

> <Gold.PLP.PLP>
-31.4226

> <Gold.PLP.part.hbond>
-3.0000

> <Gold.PLP.part.metal>
0.0000

> <Gold.PLP.part.buried>
-6.1466

> <Gold.PLP.part.nonpolar>
-22.6027

> <Gold.PLP.part.repulsive>
0.1882

> <Gold.PLP.ligand.clash>
0.0000

> <Gold.PLP.ligand.torsion>
0.9879

> <Gold.PLP.Chemscore.Hbond>
3.8800

> <Gold.PLP.Chemscore.CHOScore>
0.0000

> <Gold.PLP.Chemscore.Metal>
0.0000

> <Gold.Chemscore.Hbonds>
donor molecule, donor type, donor heavy atom, donor atom, acceptor molecule, acceptor atom, score
      L1  H     3    19       P1 10747  1.00
      L1  H     7    38       P1 10186  1.95
      L1  H    10    24       P1 10747  0.90

> <Gold.PLP.Chemscore.Internal.Correction>
1.2645

> <Gold.Rescore>
     Score         DG    S(hbond)    S(metal)    S(lipo)     H(rot)  DE(clash)    DE(int)     intcor
     17.63     -20.03       2.63        0.00      76.10       1.22       0.01       2.39       ----

> <Gold.Chemscore.Fitness>
17.6286

> <Gold.Chemscore.DG>
-20.0310

> <Gold.Chemscore.ZeroCoef>
-5.4800

> <Gold.Chemscore.Hbond>
2.6295

> <Gold.Chemscore.Metal>
0.0000

> <Gold.Chemscore.Lipo>
76.1017

> <Gold.Chemscore.Internal_Hbond>
0.0000

> <Gold.Chemscore.DEClash>
0.0077

> <Gold.Chemscore.DEInternal>
2.3946

> <Gold.Chemscore.Rot>
1.2248

> <Gold.Chemscore.Internal.Correction>
   9.000000E+99

> <Gold.Chemscore.Hbonds>
donor molecule, donor type, donor heavy atom, donor atom, acceptor molecule, acceptor atom, score
      L1  H     3    19       P1 10747  0.99
      L1  H     7    38       P1 10186  0.93
      L1  H    10    24       P1 10747  0.33

> <Gold.Chemscore.Hbond.Weighted>
-8.7826

> <Gold.Chemscore.Metal.Weighted>
-0.0000

> <Gold.Chemscore.Lipo.Weighted>
-8.9039

> <Gold.Chemscore.Internal_Hbond.Weighted>
0.0000

> <Gold.Chemscore.DEClash.Weighted>
0.0077

> <Gold.Chemscore.DEInternal.Weighted>
2.3946

> <Gold.Chemscore.Rot.Weighted>
3.1355

> <Gold.Chemscore.Internal.Correction.Weighted>
   9.000000E+99

> <Gold.Protein.RotatedTorsions>
[ 6907 6896 6895 6894 ] final  -22.82 input  -60.11 | X-H torsion
[ 7974 7965 7964 7962 ] final    7.84 input  175.53 | X-H torsion
[ 8008 7997 7996 7995 ] final  166.83 input   59.86 | X-H torsion
[ 10167 10162 10161 10158 ] final  142.32 input  -65.29 | X-H torsion
[ 10718 10713 10712 10709 ] final  124.45 input   66.30 | X-H torsion
[ 10763 10752 10751 10750 ] final    5.52 input  -60.55 | X-H torsion
[ 11005 11000 10999 10996 ] final  -66.61 input  -57.11 | X-H torsion

> <Gold.Protein.ActiveResidues>
 VAL166  LYS551  ARG553  GLY616  TRP617  ASP618  TYR619  PRO620  LYS621  CYS622 
 ASP623  PHE694  ASN695  SER759  ASP760  ASP761  ALA762  ILE779  LEU786  VAL792 
 PHE793  MET794  SER795  GLU796  ALA797  LYS798  CYS799  TRP800  GLU811  SER814 

> <Gold.Protein.RotatedAtoms>
  151.2130  135.0489  159.8918 H   0  0  0  0  0  0  0  0  0  0  0  0  # atno 6907 bound_to 6896
  152.5423  134.0724  159.8210 H   0  0  0  0  0  0  0  0  0  0  0  0  # atno 6908 bound_to 6896
  151.0880  133.5290  159.2648 H   0  0  0  0  0  0  0  0  0  0  0  0  # atno 6909 bound_to 6896
  146.2422  140.0023  142.8414 H   0  0  0  0  0  0  0  0  0  0  0  0  # atno 7974 bound_to 7965
  156.1685  140.1633  156.8489 H   0  0  0  0  0  0  0  0  0  0  0  0  # atno 8008 bound_to 7997
  154.5232  140.0773  156.8245 H   0  0  0  0  0  0  0  0  0  0  0  0  # atno 8009 bound_to 7997
  155.3562  140.3392  155.4242 H   0  0  0  0  0  0  0  0  0  0  0  0  # atno 8010 bound_to 7997
  139.4997  144.6114  151.6262 H   0  0  0  0  0  0  0  0  0  0  0  0  # atno 10167 bound_to 10162
  157.5584  131.1091  150.8582 H   0  0  0  0  0  0  0  0  0  0  0  0  # atno 10718 bound_to 10713
  153.2584  135.6920  153.7605 H   0  0  0  0  0  0  0  0  0  0  0  0  # atno 10763 bound_to 10752
  153.6673  135.3350  155.3144 H   0  0  0  0  0  0  0  0  0  0  0  0  # atno 10764 bound_to 10752
  154.8421  135.4491  154.1565 H   0  0  0  0  0  0  0  0  0  0  0  0  # atno 10765 bound_to 10752
  141.1487  133.6703  156.6166 H   0  0  0  0  0  0  0  0  0  0  0  0  # atno 11005 bound_to 11000
  145.1404  140.9568  143.4492 LP  0  0  0  0  0  0  0  0  0  0  0  0  # atno 17320 bound_to 7965
  145.0301  139.3348  143.6029 LP  0  0  0  0  0  0  0  0  0  0  0  0  # atno 17321 bound_to 7965
  140.5790  143.9979  150.6257 LP  0  0  0  0  0  0  0  0  0  0  0  0  # atno 17342 bound_to 10162
  140.3121  143.3191  152.0868 LP  0  0  0  0  0  0  0  0  0  0  0  0  # atno 17343 bound_to 10162
  156.9087  130.5273  149.5281 LP  0  0  0  0  0  0  0  0  0  0  0  0  # atno 17370 bound_to 10713
  156.0639  130.5686  150.9249 LP  0  0  0  0  0  0  0  0  0  0  0  0  # atno 17371 bound_to 10713
  140.3573  134.7718  157.4509 LP  0  0  0  0  0  0  0  0  0  0  0  0  # atno 17394 bound_to 11000
  140.0813  134.5727  155.8537 LP  0  0  0  0  0  0  0  0  0  0  0  0  # atno 17395 bound_to 11000

$$$$
