AV-unprocessed.smi:170|AV-procd|sdf|1410|dock3
  -GOLD-   2262019163D 1   1.00000     0.00000
 Structure written by MMmdl.
 57 61  0  0  0  0  0  0  0  0  1 V2000
  146.2891  137.5647  151.3881 O   0  0  0  0  0  0  0  0  0  0  0  0
  145.1897  137.1693  152.1871 C   0  0  2  0  0  0  0  0  0  0  0  0
  145.3141  137.7427  153.6122 C   0  0  0  0  0  0  0  0  0  0  0  0
  146.6954  137.9829  153.9899 N   0  0  0  0  0  0  0  0  0  0  0  0
  147.5529  137.0847  154.5830 C   0  0  0  0  0  0  0  0  0  0  0  0
  148.7483  137.5428  154.8358 N   0  0  0  0  0  0  0  0  0  0  0  0
  148.7108  138.8579  154.3862 C   0  0  0  0  0  0  0  0  0  0  0  0
  149.6467  139.9315  154.3607 C   0  0  0  0  0  0  0  0  0  0  0  0
  150.9080  139.8754  154.8451 N   0  0  0  0  0  0  0  0  0  0  0  0
  151.4796  138.5490  154.6468 C   0  0  0  0  0  0  0  0  0  0  0  0
  152.9678  138.5515  155.0210 C   0  0  0  0  0  0  0  0  0  0  0  0
  153.1068  138.9976  156.3634 O   0  0  0  0  0  0  0  0  0  0  0  0
  152.6296  140.3277  156.5356 C   0  0  0  0  0  0  0  0  0  0  0  0
  151.1229  140.4094  156.1961 C   0  0  1  0  0  0  0  0  0  0  0  0
  150.5797  141.8543  156.3548 C   0  0  0  0  0  0  0  0  0  0  0  0
  150.4289  142.3206  157.8049 C   0  0  0  0  0  0  0  0  0  0  0  0
  150.6508  143.8052  158.1446 C   0  0  0  0  0  0  0  0  0  0  0  0
  152.0669  143.4465  158.5984 C   0  0  0  0  0  0  0  0  0  0  0  0
  151.5694  142.0119  158.7886 C   0  0  0  0  0  0  0  0  0  0  0  0
  149.2514  141.1073  153.8137 N   0  0  0  0  0  0  0  0  0  0  0  0
  148.0102  141.2381  153.3358 C   0  0  0  0  0  0  0  0  0  0  0  0
  147.0275  140.3350  153.3040 N   0  0  0  0  0  0  0  0  0  0  0  0
  147.4277  139.1475  153.8430 C   0  0  0  0  0  0  0  0  0  0  0  0
  145.0398  135.6349  152.1694 C   0  0  1  0  0  0  0  0  0  0  0  0
  144.9508  134.9769  150.7819 C   0  0  0  0  0  0  0  0  0  0  0  0
  145.9599  133.8411  150.8501 C   0  0  0  0  0  0  0  0  0  0  0  0
  146.2051  133.6733  152.3450 C   0  0  0  0  0  0  0  0  0  0  0  0
  146.1281  135.0021  152.8320 O   0  0  0  0  0  0  0  0  0  0  0  0
  147.0420  137.0543  151.6454 H   0  0  0  0  0  0  0  0  0  0  0  0
  144.3009  137.5965  151.7214 H   0  0  0  0  0  0  0  0  0  0  0  0
  144.7702  138.6849  153.6883 H   0  0  0  0  0  0  0  0  0  0  0  0
  144.8661  137.0658  154.3405 H   0  0  0  0  0  0  0  0  0  0  0  0
  147.2602  136.0739  154.8271 H   0  0  0  0  0  0  0  0  0  0  0  0
  150.9440  137.8238  155.2615 H   0  0  0  0  0  0  0  0  0  0  0  0
  151.3611  138.2402  153.6072 H   0  0  0  0  0  0  0  0  0  0  0  0
  153.3800  137.5462  154.9348 H   0  0  0  0  0  0  0  0  0  0  0  0
  153.5400  139.1921  154.3479 H   0  0  0  0  0  0  0  0  0  0  0  0
  152.8082  140.6095  157.5726 H   0  0  0  0  0  0  0  0  0  0  0  0
  153.2089  141.0134  155.9149 H   0  0  0  0  0  0  0  0  0  0  0  0
  150.6003  139.7588  156.8959 H   0  0  0  0  0  0  0  0  0  0  0  0
  151.2324  142.5418  155.8159 H   0  0  0  0  0  0  0  0  0  0  0  0
  149.6076  141.9436  155.8704 H   0  0  0  0  0  0  0  0  0  0  0  0
  149.4860  141.9786  158.2324 H   0  0  0  0  0  0  0  0  0  0  0  0
  150.6135  144.4915  157.2985 H   0  0  0  0  0  0  0  0  0  0  0  0
  150.0203  144.1489  158.9664 H   0  0  0  0  0  0  0  0  0  0  0  0
  152.8032  143.5379  157.7977 H   0  0  0  0  0  0  0  0  0  0  0  0
  152.3949  143.9431  159.5116 H   0  0  0  0  0  0  0  0  0  0  0  0
  151.2151  141.8204  159.8028 H   0  0  0  0  0  0  0  0  0  0  0  0
  152.2679  141.2433  158.4560 H   0  0  0  0  0  0  0  0  0  0  0  0
  147.7689  142.2065  152.9227 H   0  0  0  0  0  0  0  0  0  0  0  0
  144.1403  135.3686  152.7274 H   0  0  0  0  0  0  0  0  0  0  0  0
  143.9436  134.5958  150.6103 H   0  0  0  0  0  0  0  0  0  0  0  0
  145.1851  135.6576  149.9630 H   0  0  0  0  0  0  0  0  0  0  0  0
  145.6073  132.9262  150.3736 H   0  0  0  0  0  0  0  0  0  0  0  0
  146.8858  134.1425  150.3590 H   0  0  0  0  0  0  0  0  0  0  0  0
  145.4224  133.0676  152.8043 H   0  0  0  0  0  0  0  0  0  0  0  0
  147.1702  133.2177  152.5664 H   0  0  0  0  0  0  0  0  0  0  0  0
  1  2  1  0  0  0  0
  1 29  1  0  0  0  0
  2  3  1  0  0  0  0
  2 24  1  0  0  0  0
  2 30  1  0  0  0  0
  3  4  1  0  0  0  0
  3 31  1  0  0  0  0
  3 32  1  0  0  0  0
  4 23  1  0  0  0  0
  4  5  1  0  0  0  0
  5  6  2  0  0  0  0
  5 33  1  0  0  0  0
  6  7  1  0  0  0  0
  7 23  2  0  0  0  0
  7  8  1  0  0  0  0
  8  9  1  0  0  0  0
  8 20  2  0  0  0  0
  9 14  1  0  0  0  0
  9 10  1  0  0  0  0
 10 11  1  0  0  0  0
 10 34  1  0  0  0  0
 10 35  1  0  0  0  0
 11 12  1  0  0  0  0
 11 36  1  0  0  0  0
 11 37  1  0  0  0  0
 12 13  1  0  0  0  0
 13 14  1  0  0  0  0
 13 38  1  0  0  0  0
 13 39  1  0  0  0  0
 14 15  1  0  0  0  0
 14 40  1  0  0  0  0
 15 16  1  0  0  0  0
 15 41  1  0  0  0  0
 15 42  1  0  0  0  0
 16 19  1  0  0  0  0
 16 17  1  0  0  0  0
 16 43  1  0  0  0  0
 17 18  1  0  0  0  0
 17 44  1  0  0  0  0
 17 45  1  0  0  0  0
 18 19  1  0  0  0  0
 18 46  1  0  0  0  0
 18 47  1  0  0  0  0
 19 48  1  0  0  0  0
 19 49  1  0  0  0  0
 20 21  1  0  0  0  0
 21 22  2  0  0  0  0
 21 50  1  0  0  0  0
 22 23  1  0  0  0  0
 24 28  1  0  0  0  0
 24 25  1  0  0  0  0
 24 51  1  0  0  0  0
 25 26  1  0  0  0  0
 25 52  1  0  0  0  0
 25 53  1  0  0  0  0
 26 27  1  0  0  0  0
 26 54  1  0  0  0  0
 26 55  1  0  0  0  0
 27 28  1  0  0  0  0
 27 56  1  0  0  0  0
 27 57  1  0  0  0  0
M  END
> <s_m_source_file>
AV-unprocessed.smi

> <i_m_source_file_index>
170

> <i_lp_mmshare_version>
43012

> <i_f3d_flags>
0

> <s_epik_input>
TzFbQ0gyXVtDSDJdW0NIMl1bQ0BIXTFbQ0BIXShbT0hdKVtDSDJdbihbY0hdbjIpYyhjMjMpbltjSF1uYzNONFtDSDJdW0NIMl1PW0NIMl1bQ0BIXTRbQ0gyXVtDSF01W0NIMl1bQ0gyXVtDSDJdNQ==

> <s_epik_cmdline>
J2VwaWtfcHl0aG9uJywgJy1waCcsICc3LjAnLCAnLXRuJywgJzgnLCAnLW1hJywgJzIwMCcsICctbWV0YWxfYmluZGluZycsICctaW1hZScsICc8aW5maWxlLm1hZT4nLCAnLW9tYWUnLCAnPG91dGZpbGUubWFlPic=

> <r_lp_tautomer_probability>
1

> <r_epik_Ionization_Penalty>
4.98275e-05

> <r_epik_Ionization_Penalty_Charging>
0

> <r_epik_Ionization_Penalty_Neutral>
4.98275e-05

> <r_epik_State_Penalty>
-0

> <r_epik_Charging_Adjusted_Penalty>
0

> <i_epik_Tot_Q>
0

> <i_epik_Tot_abs_Q>
0

> <r_epik_Metal_State_Penalty>
-0

> <b_epik_Metal_Only>
0

> <s_lp_Force_Field>
OPLS_2005

> <r_lp_Energy>
54.4618

> <b_lp_Chiralities_Consistent>
1

> <s_lp_Variant>
AV-unprocessed.smi:170-5

> <Gold.Version>
5.8.1

> <Gold.Id.Protein>
6NUR|6NUR_protein|mol2

> <Gold.PLP.Fitness>
42.7283

> <Gold.PLP.PLP>
-40.6008

> <Gold.PLP.part.hbond>
-5.5996

> <Gold.PLP.part.metal>
0.0000

> <Gold.PLP.part.buried>
-2.9469

> <Gold.PLP.part.nonpolar>
-33.6674

> <Gold.PLP.part.repulsive>
1.5341

> <Gold.PLP.ligand.clash>
0.0000

> <Gold.PLP.ligand.torsion>
1.9330

> <Gold.PLP.Chemscore.Hbond>
1.8902

> <Gold.PLP.Chemscore.CHOScore>
0.0000

> <Gold.PLP.Chemscore.Metal>
0.0000

> <Gold.Chemscore.Hbonds>
donor molecule, donor type, donor heavy atom, donor atom, acceptor molecule, acceptor atom, score
      L1  H     1    29       P1  7948  0.93
      P1  H  7989  7998       L1     9  0.75
      P1  H  8011  8017       L1    20  0.27

> <Gold.PLP.Chemscore.Internal.Correction>
0.3230

> <Gold.Rescore>
     Score         DG    S(hbond)    S(metal)    S(lipo)     H(rot)  DE(clash)    DE(int)     intcor
      7.25     -13.72       0.99        0.00      99.48       2.61       1.03       5.43       ----

> <Gold.Chemscore.Fitness>
7.2547

> <Gold.Chemscore.DG>
-13.7176

> <Gold.Chemscore.ZeroCoef>
-5.4800

> <Gold.Chemscore.Hbond>
0.9853

> <Gold.Chemscore.Metal>
0.0000

> <Gold.Chemscore.Lipo>
99.4838

> <Gold.Chemscore.Internal_Hbond>
0.0000

> <Gold.Chemscore.DEClash>
1.0325

> <Gold.Chemscore.DEInternal>
5.4305

> <Gold.Chemscore.Rot>
2.6144

> <Gold.Chemscore.Internal.Correction>
   9.000000E+99

> <Gold.Chemscore.Hbonds>
donor molecule, donor type, donor heavy atom, donor atom, acceptor molecule, acceptor atom, score
      L1  H     1    29       P1  7948  0.88
      P1  H  7989  7998       L1     9  0.04

> <Gold.Chemscore.Hbond.Weighted>
-3.2910

> <Gold.Chemscore.Metal.Weighted>
-0.0000

> <Gold.Chemscore.Lipo.Weighted>
-11.6396

> <Gold.Chemscore.Internal_Hbond.Weighted>
0.0000

> <Gold.Chemscore.DEClash.Weighted>
1.0325

> <Gold.Chemscore.DEInternal.Weighted>
5.4305

> <Gold.Chemscore.Rot.Weighted>
6.6929

> <Gold.Chemscore.Internal.Correction.Weighted>
   9.000000E+99

> <Gold.Protein.RotatedTorsions>
[ 6907 6896 6895 6894 ] final   60.93 input  -60.11 | X-H torsion
[ 7974 7965 7964 7962 ] final   14.33 input  175.53 | X-H torsion
[ 8008 7997 7996 7995 ] final   12.72 input   59.86 | X-H torsion
[ 10167 10162 10161 10158 ] final   84.73 input  -65.29 | X-H torsion
[ 10718 10713 10712 10709 ] final   93.98 input   66.30 | X-H torsion
[ 10763 10752 10751 10750 ] final  -53.07 input  -60.55 | X-H torsion
[ 11005 11000 10999 10996 ] final  123.18 input  -57.11 | X-H torsion

> <Gold.Protein.ActiveResidues>
 VAL166  LYS551  ARG553  GLY616  TRP617  ASP618  TYR619  PRO620  LYS621  CYS622 
 ASP623  PHE694  ASN695  SER759  ASP760  ASP761  ALA762  ILE779  LEU786  VAL792 
 PHE793  MET794  SER795  GLU796  ALA797  LYS798  CYS799  TRP800  GLU811  SER814 

> <Gold.Protein.RotatedAtoms>
  152.4046  134.6229  160.0055 H   0  0  0  0  0  0  0  0  0  0  0  0  # atno 6907 bound_to 6896
  151.6425  133.3319  159.3141 H   0  0  0  0  0  0  0  0  0  0  0  0  # atno 6908 bound_to 6896
  150.7942  134.7031  159.6606 H   0  0  0  0  0  0  0  0  0  0  0  0  # atno 6909 bound_to 6896
  146.2307  139.9057  142.8532 H   0  0  0  0  0  0  0  0  0  0  0  0  # atno 7974 bound_to 7965
  154.8245  140.2889  155.5764 H   0  0  0  0  0  0  0  0  0  0  0  0  # atno 8008 bound_to 7997
  156.3000  140.2544  156.3089 H   0  0  0  0  0  0  0  0  0  0  0  0  # atno 8009 bound_to 7997
  154.9301  140.0383  157.2033 H   0  0  0  0  0  0  0  0  0  0  0  0  # atno 8010 bound_to 7997
  139.9050  144.6306  150.8597 H   0  0  0  0  0  0  0  0  0  0  0  0  # atno 10167 bound_to 10162
  157.6951  131.0497  150.4116 H   0  0  0  0  0  0  0  0  0  0  0  0  # atno 10718 bound_to 10713
  154.1529  135.6487  153.4967 H   0  0  0  0  0  0  0  0  0  0  0  0  # atno 10763 bound_to 10752
  153.0132  135.5342  154.6790 H   0  0  0  0  0  0  0  0  0  0  0  0  # atno 10764 bound_to 10752
  154.6082  135.2951  155.0432 H   0  0  0  0  0  0  0  0  0  0  0  0  # atno 10765 bound_to 10752
  139.9301  134.9641  156.8220 H   0  0  0  0  0  0  0  0  0  0  0  0  # atno 11005 bound_to 11000
  145.2279  140.9961  143.4007 LP  0  0  0  0  0  0  0  0  0  0  0  0  # atno 17320 bound_to 7965
  144.9555  139.4037  143.6382 LP  0  0  0  0  0  0  0  0  0  0  0  0  # atno 17321 bound_to 7965
  140.7698  143.3408  151.2212 LP  0  0  0  0  0  0  0  0  0  0  0  0  # atno 17342 bound_to 10162
  139.6992  143.9561  152.2897 LP  0  0  0  0  0  0  0  0  0  0  0  0  # atno 17343 bound_to 10162
  156.4500  130.4009  149.6642 LP  0  0  0  0  0  0  0  0  0  0  0  0  # atno 17370 bound_to 10713
  156.3795  130.7572  151.2563 LP  0  0  0  0  0  0  0  0  0  0  0  0  # atno 17371 bound_to 10713
  140.6226  133.9979  155.7625 LP  0  0  0  0  0  0  0  0  0  0  0  0  # atno 17394 bound_to 11000
  141.0884  133.9955  157.3277 LP  0  0  0  0  0  0  0  0  0  0  0  0  # atno 17395 bound_to 11000

$$$$
