AV-unprocessed.smi:2061|AV-procd|sdf|8361|dock2
  -GOLD-   2272011 33D 1   1.00000     0.00000
 Structure written by MMmdl.
 45 46  0  0  0  0  0  0  0  0  1 V2000
  143.8329  132.6507  149.7944 C   0  0  0  0  0  0  0  0  0  0  0  0
  144.3507  133.6819  150.7374 C   0  0  0  0  0  0  0  0  0  0  0  0
  145.5747  134.2704  150.8906 C   0  0  0  0  0  0  0  0  0  0  0  0
  145.3657  135.1658  151.9728 C   0  0  0  0  0  0  0  0  0  0  0  0
  146.4171  135.9899  152.4494 N   0  0  0  0  0  0  0  0  0  0  0  0
  146.3248  137.0220  153.3052 C   0  0  0  0  0  0  0  0  0  0  0  0
  145.2855  137.4045  153.8432 O   0  0  0  0  0  0  0  0  0  0  0  0
  147.5200  137.5985  153.5005 N   0  0  0  0  0  0  0  0  0  0  0  0
  147.7776  138.7524  154.3595 C   0  0  0  0  0  0  0  0  0  0  0  0
  148.5482  139.8914  153.6329 C   0  0  1  0  0  0  0  0  0  0  0  0
  147.6192  141.1248  153.4925 C   0  0  0  0  0  0  0  0  0  0  0  0
  149.8428  140.2217  154.2746 N   0  0  0  0  0  0  0  0  0  0  0  0
  149.6893  141.0556  155.4719 C   0  0  0  0  0  0  0  0  0  0  0  0
  151.0318  141.3821  156.1539 C   0  0  1  0  0  0  0  0  0  0  0  0
  150.8451  142.1833  157.4467 C   0  0  0  0  0  0  0  0  0  0  0  0
  151.6996  140.1691  156.4760 O   0  0  0  0  0  0  0  0  0  0  0  0
  151.9464  139.3604  155.3333 C   0  0  1  0  0  0  0  0  0  0  0  0
  152.6945  138.1029  155.7878 C   0  0  0  0  0  0  0  0  0  0  0  0
  150.6055  139.0267  154.6527 C   0  0  0  0  0  0  0  0  0  0  0  0
  144.1270  135.1264  152.4394 N   0  0  0  0  0  0  0  0  0  0  0  0
  143.4702  134.1754  151.6497 O   0  0  0  0  0  0  0  0  0  0  0  0
  144.6197  131.9501  149.5146 H   0  0  0  0  0  0  0  0  0  0  0  0
  143.4544  133.1169  148.8847 H   0  0  0  0  0  0  0  0  0  0  0  0
  143.0204  132.0811  150.2462 H   0  0  0  0  0  0  0  0  0  0  0  0
  146.4717  134.0890  150.3172 H   0  0  0  0  0  0  0  0  0  0  0  0
  147.3358  135.7808  152.0878 H   0  0  0  0  0  0  0  0  0  0  0  0
  148.3158  137.2147  153.0127 H   0  0  0  0  0  0  0  0  0  0  0  0
  146.8564  139.1433  154.7952 H   0  0  0  0  0  0  0  0  0  0  0  0
  148.3586  138.3487  155.1862 H   0  0  0  0  0  0  0  0  0  0  0  0
  148.7571  139.5369  152.6222 H   0  0  0  0  0  0  0  0  0  0  0  0
  146.6600  140.8734  153.0425 H   0  0  0  0  0  0  0  0  0  0  0  0
  148.0380  141.8903  152.8415 H   0  0  0  0  0  0  0  0  0  0  0  0
  147.4170  141.5788  154.4631 H   0  0  0  0  0  0  0  0  0  0  0  0
  149.2266  142.0075  155.2191 H   0  0  0  0  0  0  0  0  0  0  0  0
  149.0285  140.5589  156.1839 H   0  0  0  0  0  0  0  0  0  0  0  0
  151.6569  141.9610  155.4716 H   0  0  0  0  0  0  0  0  0  0  0  0
  150.3465  143.1331  157.2518 H   0  0  0  0  0  0  0  0  0  0  0  0
  151.8069  142.4020  157.9113 H   0  0  0  0  0  0  0  0  0  0  0  0
  150.2442  141.6308  158.1696 H   0  0  0  0  0  0  0  0  0  0  0  0
  152.5812  139.9119  154.6376 H   0  0  0  0  0  0  0  0  0  0  0  0
  152.9204  137.4535  154.9417 H   0  0  0  0  0  0  0  0  0  0  0  0
  152.1047  137.5290  156.5032 H   0  0  0  0  0  0  0  0  0  0  0  0
  153.6380  138.3639  156.2674 H   0  0  0  0  0  0  0  0  0  0  0  0
  150.0049  138.4011  155.3151 H   0  0  0  0  0  0  0  0  0  0  0  0
  150.8373  138.4270  153.7746 H   0  0  0  0  0  0  0  0  0  0  0  0
  1  2  1  0  0  0  0
  1 22  1  0  0  0  0
  1 23  1  0  0  0  0
  1 24  1  0  0  0  0
  2 21  1  0  0  0  0
  2  3  2  0  0  0  0
  3  4  1  0  0  0  0
  3 25  1  0  0  0  0
  4  5  1  0  0  0  0
  4 20  2  0  0  0  0
  5  6  1  0  0  0  0
  5 26  1  0  0  0  0
  6  7  2  0  0  0  0
  6  8  1  0  0  0  0
  8  9  1  0  0  0  0
  8 27  1  0  0  0  0
  9 10  1  0  0  0  0
  9 28  1  0  0  0  0
  9 29  1  0  0  0  0
 10 11  1  0  0  0  0
 10 12  1  0  0  0  0
 10 30  1  0  0  0  0
 11 31  1  0  0  0  0
 11 32  1  0  0  0  0
 11 33  1  0  0  0  0
 12 19  1  0  0  0  0
 12 13  1  0  0  0  0
 13 14  1  0  0  0  0
 13 34  1  0  0  0  0
 13 35  1  0  0  0  0
 14 15  1  0  0  0  0
 14 16  1  0  0  0  0
 14 36  1  0  0  0  0
 15 37  1  0  0  0  0
 15 38  1  0  0  0  0
 15 39  1  0  0  0  0
 16 17  1  0  0  0  0
 17 18  1  0  0  0  0
 17 19  1  0  0  0  0
 17 40  1  0  0  0  0
 18 41  1  0  0  0  0
 18 42  1  0  0  0  0
 18 43  1  0  0  0  0
 19 44  1  0  0  0  0
 19 45  1  0  0  0  0
 20 21  1  0  0  0  0
M  END
> <s_m_source_file>
AV-unprocessed.smi

> <i_m_source_file_index>
2061

> <i_lp_mmshare_version>
43012

> <i_f3d_flags>
0

> <s_epik_input>
W0NIM11jMVtjSF1jKG5vMSlbTkhdQyg9TylbTkhdW0NIMl1bQ0BIXShbQ0gzXSlOMltDSDJdW0NAQEhdKFtDSDNdKU9bQ0BASF0oW0NIM10pW0NIMl0y

> <s_epik_cmdline>
J2VwaWtfcHl0aG9uJywgJy1waCcsICc3LjAnLCAnLXRuJywgJzgnLCAnLW1hJywgJzIwMCcsICctbWV0YWxfYmluZGluZycsICctaW1hZScsICc8aW5maWxlLm1hZT4nLCAnLW9tYWUnLCAnPG91dGZpbGUubWFlPic=

> <r_epik_Ionization_Penalty>
0.214073

> <r_epik_Ionization_Penalty_Charging>
0

> <r_epik_Ionization_Penalty_Neutral>
0.214073

> <r_epik_State_Penalty>
0.204211

> <r_epik_Charging_Adjusted_Penalty>
0.204211

> <i_epik_Tot_Q>
0

> <i_epik_Tot_abs_Q>
0

> <r_epik_Metal_State_Penalty>
0.217067

> <b_epik_Metal_Only>
0

> <s_lp_Force_Field>
OPLS_2005

> <r_lp_Energy>
26.0702

> <b_lp_Chiralities_Consistent>
1

> <s_lp_Variant>
AV-unprocessed.smi:2061-2

> <Gold.Version>
5.8.1

> <Gold.Id.Protein>
6NUR|6NUR_protein|mol2

> <Gold.PLP.Fitness>
38.6517

> <Gold.PLP.PLP>
-34.0044

> <Gold.PLP.part.hbond>
-3.0000

> <Gold.PLP.part.metal>
0.0000

> <Gold.PLP.part.buried>
-2.4803

> <Gold.PLP.part.nonpolar>
-29.9325

> <Gold.PLP.part.repulsive>
0.6112

> <Gold.PLP.ligand.clash>
0.0000

> <Gold.PLP.ligand.torsion>
1.0220

> <Gold.PLP.Chemscore.Hbond>
2.2145

> <Gold.PLP.Chemscore.CHOScore>
0.0000

> <Gold.PLP.Chemscore.Metal>
0.0000

> <Gold.Chemscore.Hbonds>
donor molecule, donor type, donor heavy atom, donor atom, acceptor molecule, acceptor atom, score
      L1  H     5    26       P1  7948  1.00
      L1  H     8    27       P1  7948  1.00
      P1  H  7989  7998       L1    12  0.21

> <Gold.PLP.Chemscore.Internal.Correction>
0.0477

> <Gold.Rescore>
     Score         DG    S(hbond)    S(metal)    S(lipo)     H(rot)  DE(clash)    DE(int)     intcor
     15.14     -17.58       1.95        0.00      81.50       1.55       0.22       2.22       ----

> <Gold.Chemscore.Fitness>
15.1422

> <Gold.Chemscore.DG>
-17.5805

> <Gold.Chemscore.ZeroCoef>
-5.4800

> <Gold.Chemscore.Hbond>
1.9541

> <Gold.Chemscore.Metal>
0.0000

> <Gold.Chemscore.Lipo>
81.4952

> <Gold.Chemscore.Internal_Hbond>
0.0000

> <Gold.Chemscore.DEClash>
0.2154

> <Gold.Chemscore.DEInternal>
2.2228

> <Gold.Chemscore.Rot>
1.5474

> <Gold.Chemscore.Internal.Correction>
   9.000000E+99

> <Gold.Chemscore.Hbonds>
donor molecule, donor type, donor heavy atom, donor atom, acceptor molecule, acceptor atom, score
      L1  H     5    26       P1  7948  0.95
      L1  H     8    27       P1  7948  0.95

> <Gold.Chemscore.Hbond.Weighted>
-6.5267

> <Gold.Chemscore.Metal.Weighted>
-0.0000

> <Gold.Chemscore.Lipo.Weighted>
-9.5349

> <Gold.Chemscore.Internal_Hbond.Weighted>
0.0000

> <Gold.Chemscore.DEClash.Weighted>
0.2154

> <Gold.Chemscore.DEInternal.Weighted>
2.2228

> <Gold.Chemscore.Rot.Weighted>
3.9612

> <Gold.Chemscore.Internal.Correction.Weighted>
   9.000000E+99

> <Gold.Protein.RotatedTorsions>
[ 6907 6896 6895 6894 ] final  119.58 input  -60.11 | X-H torsion
[ 7974 7965 7964 7962 ] final  159.79 input  175.53 | X-H torsion
[ 8008 7997 7996 7995 ] final   14.94 input   59.86 | X-H torsion
[ 10167 10162 10161 10158 ] final   85.70 input  -65.29 | X-H torsion
[ 10718 10713 10712 10709 ] final  116.62 input   66.30 | X-H torsion
[ 10763 10752 10751 10750 ] final -133.95 input  -60.55 | X-H torsion
[ 11005 11000 10999 10996 ] final  174.51 input  -57.11 | X-H torsion

> <Gold.Protein.ActiveResidues>
 VAL166  LYS551  ARG553  GLY616  TRP617  ASP618  TYR619  PRO620  LYS621  CYS622 
 ASP623  PHE694  ASN695  SER759  ASP760  ASP761  ALA762  ILE779  LEU786  VAL792 
 PHE793  MET794  SER795  GLU796  ALA797  LYS798  CYS799  TRP800  GLU811  SER814 

> <Gold.Protein.RotatedAtoms>
  152.4461  133.7540  159.6709 H   0  0  0  0  0  0  0  0  0  0  0  0  # atno 6907 bound_to 6896
  150.8362  133.8000  159.3085 H   0  0  0  0  0  0  0  0  0  0  0  0  # atno 6908 bound_to 6896
  151.5639  135.1067  160.0031 H   0  0  0  0  0  0  0  0  0  0  0  0  # atno 6909 bound_to 6896
  144.7771  139.7666  143.6274 H   0  0  0  0  0  0  0  0  0  0  0  0  # atno 7974 bound_to 7965
  154.8556  140.2936  155.5571 H   0  0  0  0  0  0  0  0  0  0  0  0  # atno 8008 bound_to 7997
  156.3018  140.2487  156.3455 H   0  0  0  0  0  0  0  0  0  0  0  0  # atno 8009 bound_to 7997
  154.8973  140.0392  157.1862 H   0  0  0  0  0  0  0  0  0  0  0  0  # atno 8010 bound_to 7997
  139.8951  144.6363  150.8697 H   0  0  0  0  0  0  0  0  0  0  0  0  # atno 10167 bound_to 10162
  157.6148  131.1027  150.7499 H   0  0  0  0  0  0  0  0  0  0  0  0  # atno 10718 bound_to 10713
  154.8726  135.3750  154.4656 H   0  0  0  0  0  0  0  0  0  0  0  0  # atno 10763 bound_to 10752
  153.5321  135.7027  153.5683 H   0  0  0  0  0  0  0  0  0  0  0  0  # atno 10764 bound_to 10752
  153.3883  135.3979  155.1870 H   0  0  0  0  0  0  0  0  0  0  0  0  # atno 10765 bound_to 10752
  140.3521  134.7186  157.4275 H   0  0  0  0  0  0  0  0  0  0  0  0  # atno 11005 bound_to 11000
  146.1958  139.5223  142.9776 LP  0  0  0  0  0  0  0  0  0  0  0  0  # atno 17320 bound_to 7965
  145.6154  141.0332  143.1944 LP  0  0  0  0  0  0  0  0  0  0  0  0  # atno 17321 bound_to 7965
  140.7719  143.3480  151.2072 LP  0  0  0  0  0  0  0  0  0  0  0  0  # atno 17342 bound_to 10162
  139.7075  143.9431  152.2933 LP  0  0  0  0  0  0  0  0  0  0  0  0  # atno 17343 bound_to 10162
  156.7869  130.4877  149.5391 LP  0  0  0  0  0  0  0  0  0  0  0  0  # atno 17370 bound_to 10713
  156.1266  130.6148  151.0272 LP  0  0  0  0  0  0  0  0  0  0  0  0  # atno 17371 bound_to 10713
  140.0695  134.5883  155.8658 LP  0  0  0  0  0  0  0  0  0  0  0  0  # atno 17394 bound_to 11000
  141.2009  133.6615  156.5922 LP  0  0  0  0  0  0  0  0  0  0  0  0  # atno 17395 bound_to 11000

$$$$
