AV-unprocessed.smi:2844|AV-procd|sdf|10942|dock8
  -GOLD-   2272015393D 1   1.00000     0.00000
 Structure written by MMmdl.
 39 41  0  0  0  0  0  0  0  0  2 V2000
  152.6094  143.3283  160.9283 C   0  0  0  0  0  0  0  0  0  0  0  0
  152.2607  142.5389  159.6776 C   0  0  0  0  0  0  0  0  0  0  0  0
  151.4133  143.1365  158.7170 C   0  0  0  0  0  0  0  0  0  0  0  0
  151.1096  142.3879  157.5860 C   0  0  0  0  0  0  0  0  0  0  0  0
  150.3136  142.6847  156.4774 N   0  3  0  0  0  0  0  0  0  0  0  0
  150.3173  141.6275  155.6187 C   0  0  0  0  0  0  0  0  0  0  0  0
  151.1042  140.6603  156.1634 N   0  0  0  0  0  0  0  0  0  0  0  0
  151.4451  139.3225  155.6621 C   0  0  0  0  0  0  0  0  0  0  0  0
  150.5097  138.8576  154.5296 C   0  0  1  0  0  0  0  0  0  0  0  0
  151.0270  137.6759  153.9461 O   0  0  0  0  0  0  0  0  0  0  0  0
  149.0731  138.6116  155.0288 C   0  0  0  0  0  0  0  0  0  0  0  0
  148.2932  139.8339  155.1094 N   0  0  0  0  0  0  0  0  0  0  0  0
  147.8423  140.6310  154.0747 C   0  0  0  0  0  0  0  0  0  0  0  0
  147.1637  141.6493  154.6716 C   0  0  0  0  0  0  0  0  0  0  0  0
  146.3735  142.9647  153.8845 Cl  0  0  0  0  0  0  0  0  0  0  0  0
  147.2347  141.4140  156.0681 C   0  0  0  0  0  0  0  0  0  0  0  0
  147.9189  140.3086  156.3253 N   0  0  0  0  0  0  0  0  0  0  0  0
  151.6192  141.0897  157.3909 C   0  0  0  0  0  0  0  0  0  0  0  0
  152.4563  140.4862  158.3259 C   0  0  0  0  0  0  0  0  0  0  0  0
  152.7752  141.2305  159.4844 C   0  0  0  0  0  0  0  0  0  0  0  0
  153.6845  140.5979  160.5240 C   0  0  0  0  0  0  0  0  0  0  0  0
  152.1514  144.3178  160.9162 H   0  0  0  0  0  0  0  0  0  0  0  0
  153.6883  143.4627  161.0092 H   0  0  0  0  0  0  0  0  0  0  0  0
  152.2566  142.8087  161.8194 H   0  0  0  0  0  0  0  0  0  0  0  0
  151.0178  144.1318  158.8573 H   0  0  0  0  0  0  0  0  0  0  0  0
  149.7874  141.5659  154.6791 H   0  0  0  0  0  0  0  0  0  0  0  0
  152.4789  139.3538  155.3147 H   0  0  0  0  0  0  0  0  0  0  0  0
  151.4212  138.6254  156.5007 H   0  0  0  0  0  0  0  0  0  0  0  0
  150.4857  139.6228  153.7528 H   0  0  0  0  0  0  0  0  0  0  0  0
  150.8091  137.6741  153.0265 H   0  0  0  0  0  0  0  0  0  0  0  0
  148.5553  137.9109  154.3723 H   0  0  0  0  0  0  0  0  0  0  0  0
  149.0919  138.1542  156.0190 H   0  0  0  0  0  0  0  0  0  0  0  0
  148.0400  140.4111  153.0361 H   0  0  0  0  0  0  0  0  0  0  0  0
  146.8231  141.9918  156.8825 H   0  0  0  0  0  0  0  0  0  0  0  0
  152.8459  139.4896  158.1789 H   0  0  0  0  0  0  0  0  0  0  0  0
  153.9952  139.5960  160.2265 H   0  0  0  0  0  0  0  0  0  0  0  0
  153.1716  140.5162  161.4826 H   0  0  0  0  0  0  0  0  0  0  0  0
  154.5843  141.1979  160.6614 H   0  0  0  0  0  0  0  0  0  0  0  0
  149.8020  143.5431  156.3175 H   0  0  0  0  0  0  0  0  0  0  0  0
  1  2  1  0  0  0  0
  1 22  1  0  0  0  0
  1 23  1  0  0  0  0
  1 24  1  0  0  0  0
  2 20  1  0  0  0  0
  2  3  2  0  0  0  0
  3  4  1  0  0  0  0
  3 25  1  0  0  0  0
  4 18  2  0  0  0  0
  4  5  1  0  0  0  0
  5  6  2  0  0  0  0
  5 39  1  0  0  0  0
  6  7  1  0  0  0  0
  6 26  1  0  0  0  0
  7  8  1  0  0  0  0
  7 18  1  0  0  0  0
  8  9  1  0  0  0  0
  8 27  1  0  0  0  0
  8 28  1  0  0  0  0
  9 10  1  0  0  0  0
  9 11  1  0  0  0  0
  9 29  1  0  0  0  0
 10 30  1  0  0  0  0
 11 12  1  0  0  0  0
 11 31  1  0  0  0  0
 11 32  1  0  0  0  0
 12 17  1  0  0  0  0
 12 13  1  0  0  0  0
 13 14  2  0  0  0  0
 13 33  1  0  0  0  0
 14 15  1  0  0  0  0
 14 16  1  0  0  0  0
 16 17  2  0  0  0  0
 16 34  1  0  0  0  0
 18 19  1  0  0  0  0
 19 20  2  0  0  0  0
 19 35  1  0  0  0  0
 20 21  1  0  0  0  0
 21 36  1  0  0  0  0
 21 37  1  0  0  0  0
 21 38  1  0  0  0  0
M  CHG  1   5   1
M  END
> <s_m_source_file>
AV-unprocessed.smi

> <i_m_source_file_index>
2844

> <i_lp_mmshare_version>
43012

> <i_f3d_flags>
0

> <s_epik_input>
W0NIM11jKFtjSF0xKWMoW0NIM10pW2NIXWMoYzEyKW4oW2NIXW4yKVtDSDJdW0NASF0oW09IXSlbQ0gyXW4zW2NIXWMoQ2wpW2NIXW4z

> <s_epik_cmdline>
J2VwaWtfcHl0aG9uJywgJy1waCcsICc3LjAnLCAnLXRuJywgJzgnLCAnLW1hJywgJzIwMCcsICctbWV0YWxfYmluZGluZycsICctaW1hZScsICc8aW5maWxlLm1hZT4nLCAnLW9tYWUnLCAnPG91dGZpbGUubWFlPic=

> <r_lp_tautomer_probability>
1

> <r_epik_Ionization_Penalty>
1.09214

> <r_epik_Ionization_Penalty_Charging>
1.09214

> <r_epik_Ionization_Penalty_Neutral>
2.93683e-06

> <r_epik_State_Penalty>
1.14852

> <r_epik_Charging_Adjusted_Penalty>
2.24066

> <i_epik_Tot_Q>
1

> <i_epik_Tot_abs_Q>
1

> <r_epik_Metal_State_Penalty>
1.23687

> <b_epik_Metal_Only>
0

> <s_lp_Force_Field>
OPLS_2005

> <r_lp_Energy>
15.1146

> <b_lp_Chiralities_Consistent>
1

> <s_lp_Variant>
AV-unprocessed.smi:2844-4

> <Gold.Version>
5.8.1

> <Gold.Id.Protein>
6NUR|6NUR_protein|mol2

> <Gold.PLP.Fitness>
53.9168

> <Gold.PLP.PLP>
-45.4638

> <Gold.PLP.part.hbond>
-2.1815

> <Gold.PLP.part.metal>
0.0000

> <Gold.PLP.part.buried>
-5.9176

> <Gold.PLP.part.nonpolar>
-36.6157

> <Gold.PLP.part.repulsive>
0.1025

> <Gold.PLP.ligand.clash>
0.0000

> <Gold.PLP.ligand.torsion>
0.5527

> <Gold.PLP.Chemscore.Hbond>
2.1830

> <Gold.PLP.Chemscore.CHOScore>
1.0000

> <Gold.PLP.Chemscore.Metal>
0.0000

> <Gold.Chemscore.Hbonds>
donor molecule, donor type, donor heavy atom, donor atom, acceptor molecule, acceptor atom, score
      L1  H     5    39       P1  8028  2.00
      L1  H    10    30       P1  7949  0.14
      L1  C    13    33       P1  7957  1.00

> <Gold.PLP.Chemscore.Internal.Correction>
0.0092

> <Gold.Rescore>
     Score         DG    S(hbond)    S(metal)    S(lipo)     H(rot)  DE(clash)    DE(int)     intcor
     14.27     -17.93       1.38        0.00     115.57       2.21       0.41       3.25       ----

> <Gold.Chemscore.Fitness>
14.2744

> <Gold.Chemscore.DG>
-17.9317

> <Gold.Chemscore.ZeroCoef>
-5.4800

> <Gold.Chemscore.Hbond>
1.3759

> <Gold.Chemscore.Metal>
0.0000

> <Gold.Chemscore.Lipo>
115.5658

> <Gold.Chemscore.Internal_Hbond>
0.0000

> <Gold.Chemscore.DEClash>
0.4066

> <Gold.Chemscore.DEInternal>
3.2507

> <Gold.Chemscore.Rot>
2.2129

> <Gold.Chemscore.Internal.Correction>
   9.000000E+99

> <Gold.Chemscore.Hbonds>
donor molecule, donor type, donor heavy atom, donor atom, acceptor molecule, acceptor atom, score
      L1  H     5    39       P1  8028  0.99
      L1  H    10    30       P1  7949  0.02

> <Gold.Chemscore.Hbond.Weighted>
-4.5954

> <Gold.Chemscore.Metal.Weighted>
-0.0000

> <Gold.Chemscore.Lipo.Weighted>
-13.5212

> <Gold.Chemscore.Internal_Hbond.Weighted>
0.0000

> <Gold.Chemscore.DEClash.Weighted>
0.4066

> <Gold.Chemscore.DEInternal.Weighted>
3.2507

> <Gold.Chemscore.Rot.Weighted>
5.6649

> <Gold.Chemscore.Internal.Correction.Weighted>
   9.000000E+99

> <Gold.Protein.RotatedTorsions>
[ 6907 6896 6895 6894 ] final   81.97 input  -60.11 | X-H torsion
[ 7974 7965 7964 7962 ] final   84.80 input  175.53 | X-H torsion
[ 8008 7997 7996 7995 ] final -172.58 input   59.86 | X-H torsion
[ 10167 10162 10161 10158 ] final  -77.58 input  -65.29 | X-H torsion
[ 10718 10713 10712 10709 ] final  -40.28 input   66.30 | X-H torsion
[ 10763 10752 10751 10750 ] final -147.51 input  -60.55 | X-H torsion
[ 11005 11000 10999 10996 ] final  179.49 input  -57.11 | X-H torsion

> <Gold.Protein.ActiveResidues>
 VAL166  LYS551  ARG553  GLY616  TRP617  ASP618  TYR619  PRO620  LYS621  CYS622 
 ASP623  PHE694  ASN695  SER759  ASP760  ASP761  ALA762  ILE779  LEU786  VAL792 
 PHE793  MET794  SER795  GLU796  ALA797  LYS798  CYS799  TRP800  GLU811  SER814 

> <Gold.Protein.RotatedAtoms>
  152.5285  134.3122  159.9117 H   0  0  0  0  0  0  0  0  0  0  0  0  # atno 6907 bound_to 6896
  151.3071  133.4090  159.2651 H   0  0  0  0  0  0  0  0  0  0  0  0  # atno 6908 bound_to 6896
  151.0070  134.9383  159.8043 H   0  0  0  0  0  0  0  0  0  0  0  0  # atno 6909 bound_to 6896
  145.5939  139.2342  143.2284 H   0  0  0  0  0  0  0  0  0  0  0  0  # atno 7974 bound_to 7965
  155.9464  140.1118  157.1013 H   0  0  0  0  0  0  0  0  0  0  0  0  # atno 8008 bound_to 7997
  154.4100  140.1209  156.5061 H   0  0  0  0  0  0  0  0  0  0  0  0  # atno 8009 bound_to 7997
  155.6897  140.3472  155.4891 H   0  0  0  0  0  0  0  0  0  0  0  0  # atno 8010 bound_to 7997
  140.4758  143.2415  151.8135 H   0  0  0  0  0  0  0  0  0  0  0  0  # atno 10167 bound_to 10162
  156.2831  130.4219  149.8316 H   0  0  0  0  0  0  0  0  0  0  0  0  # atno 10718 bound_to 10713
  154.8282  135.3358  154.6829 H   0  0  0  0  0  0  0  0  0  0  0  0  # atno 10763 bound_to 10752
  153.7452  135.6943  153.4962 H   0  0  0  0  0  0  0  0  0  0  0  0  # atno 10764 bound_to 10752
  153.2215  135.4447  155.0445 H   0  0  0  0  0  0  0  0  0  0  0  0  # atno 10765 bound_to 10752
  140.4067  134.6728  157.4592 H   0  0  0  0  0  0  0  0  0  0  0  0  # atno 11005 bound_to 11000
  146.1626  140.6765  142.9270 LP  0  0  0  0  0  0  0  0  0  0  0  0  # atno 17320 bound_to 7965
  144.7339  140.4752  143.6918 LP  0  0  0  0  0  0  0  0  0  0  0  0  # atno 17321 bound_to 7965
  139.4825  144.4835  151.9277 LP  0  0  0  0  0  0  0  0  0  0  0  0  # atno 17342 bound_to 10162
  140.3920  144.2603  150.5899 LP  0  0  0  0  0  0  0  0  0  0  0  0  # atno 17343 bound_to 10162
  156.5756  130.8443  151.3369 LP  0  0  0  0  0  0  0  0  0  0  0  0  # atno 17370 bound_to 10713
  157.7320  130.9709  150.1908 LP  0  0  0  0  0  0  0  0  0  0  0  0  # atno 17371 bound_to 10713
  140.0297  134.6425  155.9124 LP  0  0  0  0  0  0  0  0  0  0  0  0  # atno 17394 bound_to 11000
  141.1836  133.6551  156.5125 LP  0  0  0  0  0  0  0  0  0  0  0  0  # atno 17395 bound_to 11000

$$$$
