AV-unprocessed.smi:91|AV-procd|sdf|840|dock2
  -GOLD-   2262017273D 1   1.00000     0.00000
 Structure written by MMmdl.
 60 63  0  0  0  0  0  0  0  0  1 V2000
  140.9357  137.0085  154.0871 C   0  0  0  0  0  0  0  0  0  0  0  0
  141.8427  137.9987  153.6361 O   0  0  0  0  0  0  0  0  0  0  0  0
  142.8962  138.2316  154.5565 C   0  0  0  0  0  0  0  0  0  0  0  0
  144.2203  137.7650  153.9390 C   0  0  1  0  0  0  0  0  0  0  0  0
  145.4385  138.2411  154.7483 C   0  0  0  0  0  0  0  0  0  0  0  0
  146.6536  137.6739  154.1832 N   0  0  0  0  0  0  0  0  0  0  0  0
  147.8050  138.1689  154.6822 C   0  0  0  0  0  0  0  0  0  0  0  0
  148.7195  137.2702  155.1213 N   0  0  0  0  0  0  0  0  0  0  0  0
  149.8762  137.6940  155.6401 C   0  0  0  0  0  0  0  0  0  0  0  0
  150.3059  138.9462  155.8124 N   0  0  0  0  0  0  0  0  0  0  0  0
  149.3838  139.8513  155.3749 C   0  0  0  0  0  0  0  0  0  0  0  0
  148.1152  139.5533  154.8027 C   0  0  0  0  0  0  0  0  0  0  0  0
  147.4467  140.7323  154.4935 N   0  0  0  0  0  0  0  0  0  0  0  0
  148.2764  141.6730  154.8547 C   0  0  0  0  0  0  0  0  0  0  0  0
  149.4664  141.2321  155.3879 N   0  0  0  0  0  0  0  0  0  0  0  0
  150.5595  142.0520  155.8788 C   0  0  0  0  0  0  0  0  0  0  0  0
  150.7618  141.9535  157.4161 C   0  0  1  0  0  0  0  0  0  0  0  0
  151.1822  140.5388  157.8778 C   0  0  0  0  0  0  0  0  0  0  0  0
  152.3687  140.1061  157.2457 O   0  0  0  0  0  0  0  0  0  0  0  0
  151.7466  143.0173  157.9689 C   0  0  1  0  0  0  0  0  0  0  0  0
  151.4348  144.4686  157.6072 C   0  0  0  0  0  0  0  0  0  0  0  0
  151.9033  145.2339  158.8376 C   0  0  0  0  0  0  0  0  0  0  0  0
  151.5451  144.3629  159.8964 O   0  0  0  0  0  0  0  0  0  0  0  0
  151.8936  143.0426  159.5011 C   0  0  0  0  0  0  0  0  0  0  0  0
  146.6247  136.2191  154.1396 C   0  0  0  0  0  0  0  0  0  0  0  0
  145.3842  135.7150  153.3676 C   0  0  0  0  0  0  0  0  0  0  0  0
  145.5072  135.9710  151.8506 C   0  0  0  0  0  0  0  0  0  0  0  0
  145.1981  134.2098  153.6129 C   0  0  0  0  0  0  0  0  0  0  0  0
  144.2078  136.3365  153.9001 O   0  0  0  0  0  0  0  0  0  0  0  0
  140.1471  136.8706  153.3475 H   0  0  0  0  0  0  0  0  0  0  0  0
  140.4676  137.3016  155.0278 H   0  0  0  0  0  0  0  0  0  0  0  0
  141.4365  136.0500  154.2281 H   0  0  0  0  0  0  0  0  0  0  0  0
  142.9506  139.2883  154.8237 H   0  0  0  0  0  0  0  0  0  0  0  0
  142.7031  137.6721  155.4733 H   0  0  0  0  0  0  0  0  0  0  0  0
  144.2744  138.1546  152.9223 H   0  0  0  0  0  0  0  0  0  0  0  0
  145.4980  139.3304  154.7382 H   0  0  0  0  0  0  0  0  0  0  0  0
  145.3303  137.9310  155.7879 H   0  0  0  0  0  0  0  0  0  0  0  0
  150.5541  136.9186  155.9648 H   0  0  0  0  0  0  0  0  0  0  0  0
  148.0428  142.7212  154.7379 H   0  0  0  0  0  0  0  0  0  0  0  0
  151.4668  141.7588  155.3505 H   0  0  0  0  0  0  0  0  0  0  0  0
  150.3505  143.0767  155.5740 H   0  0  0  0  0  0  0  0  0  0  0  0
  149.8059  142.1742  157.8937 H   0  0  0  0  0  0  0  0  0  0  0  0
  151.3124  140.5051  158.9599 H   0  0  0  0  0  0  0  0  0  0  0  0
  150.4082  139.8118  157.6303 H   0  0  0  0  0  0  0  0  0  0  0  0
  152.2504  139.2122  156.9633 H   0  0  0  0  0  0  0  0  0  0  0  0
  152.7383  142.7878  157.5750 H   0  0  0  0  0  0  0  0  0  0  0  0
  151.9355  144.7942  156.6950 H   0  0  0  0  0  0  0  0  0  0  0  0
  150.3669  144.6335  157.4747 H   0  0  0  0  0  0  0  0  0  0  0  0
  152.9851  145.3760  158.8244 H   0  0  0  0  0  0  0  0  0  0  0  0
  151.4259  146.2089  158.9364 H   0  0  0  0  0  0  0  0  0  0  0  0
  151.2761  142.3066  160.0160 H   0  0  0  0  0  0  0  0  0  0  0  0
  152.9296  142.8506  159.7847 H   0  0  0  0  0  0  0  0  0  0  0  0
  147.5372  135.8386  153.6776 H   0  0  0  0  0  0  0  0  0  0  0  0
  146.6057  135.8399  155.1626 H   0  0  0  0  0  0  0  0  0  0  0  0
  146.3328  135.3997  151.4252 H   0  0  0  0  0  0  0  0  0  0  0  0
  145.6968  137.0185  151.6180 H   0  0  0  0  0  0  0  0  0  0  0  0
  144.5976  135.6750  151.3271 H   0  0  0  0  0  0  0  0  0  0  0  0
  146.0610  133.6412  153.2643 H   0  0  0  0  0  0  0  0  0  0  0  0
  144.3181  133.8303  153.0927 H   0  0  0  0  0  0  0  0  0  0  0  0
  145.0684  133.9960  154.6743 H   0  0  0  0  0  0  0  0  0  0  0  0
  1  2  1  0  0  0  0
  1 30  1  0  0  0  0
  1 31  1  0  0  0  0
  1 32  1  0  0  0  0
  2  3  1  0  0  0  0
  3  4  1  0  0  0  0
  3 33  1  0  0  0  0
  3 34  1  0  0  0  0
  4 29  1  0  0  0  0
  4  5  1  0  0  0  0
  4 35  1  0  0  0  0
  5  6  1  0  0  0  0
  5 36  1  0  0  0  0
  5 37  1  0  0  0  0
  6  7  1  0  0  0  0
  6 25  1  0  0  0  0
  7 12  1  0  0  0  0
  7  8  2  0  0  0  0
  8  9  1  0  0  0  0
  9 10  2  0  0  0  0
  9 38  1  0  0  0  0
 10 11  1  0  0  0  0
 11 15  1  0  0  0  0
 11 12  2  0  0  0  0
 12 13  1  0  0  0  0
 13 14  2  0  0  0  0
 14 15  1  0  0  0  0
 14 39  1  0  0  0  0
 15 16  1  0  0  0  0
 16 17  1  0  0  0  0
 16 40  1  0  0  0  0
 16 41  1  0  0  0  0
 17 18  1  0  0  0  0
 17 20  1  0  0  0  0
 17 42  1  0  0  0  0
 18 19  1  0  0  0  0
 18 43  1  0  0  0  0
 18 44  1  0  0  0  0
 19 45  1  0  0  0  0
 20 24  1  0  0  0  0
 20 21  1  0  0  0  0
 20 46  1  0  0  0  0
 21 22  1  0  0  0  0
 21 47  1  0  0  0  0
 21 48  1  0  0  0  0
 22 23  1  0  0  0  0
 22 49  1  0  0  0  0
 22 50  1  0  0  0  0
 23 24  1  0  0  0  0
 24 51  1  0  0  0  0
 24 52  1  0  0  0  0
 25 26  1  0  0  0  0
 25 53  1  0  0  0  0
 25 54  1  0  0  0  0
 26 27  1  0  0  0  0
 26 28  1  0  0  0  0
 26 29  1  0  0  0  0
 27 55  1  0  0  0  0
 27 56  1  0  0  0  0
 27 57  1  0  0  0  0
 28 58  1  0  0  0  0
 28 59  1  0  0  0  0
 28 60  1  0  0  0  0
M  END
> <s_m_source_file>
AV-unprocessed.smi

> <i_m_source_file_index>
91

> <i_lp_mmshare_version>
43012

> <i_f3d_flags>
0

> <s_epik_input>
W0NIM11PW0NIMl1bQ0BASF0oTzEpW0NIMl1OKFtDSDJdQzEoW0NIM10pW0NIM10pYyhuW2NIXW4yKWMoYzIzKW5bY0hdbjNbQ0gyXVtDQEhdKFtDSDJdW09IXSlbQ0BASF00W0NIMl1bQ0gyXU9bQ0gyXTQ=

> <s_epik_cmdline>
J2VwaWtfcHl0aG9uJywgJy1waCcsICc3LjAnLCAnLXRuJywgJzgnLCAnLW1hJywgJzIwMCcsICctbWV0YWxfYmluZGluZycsICctaW1hZScsICc8aW5maWxlLm1hZT4nLCAnLW9tYWUnLCAnPG91dGZpbGUubWFlPic=

> <r_lp_tautomer_probability>
1

> <r_epik_Ionization_Penalty>
8.63591e-05

> <r_epik_Ionization_Penalty_Charging>
0

> <r_epik_Ionization_Penalty_Neutral>
8.63591e-05

> <r_epik_State_Penalty>
-0

> <r_epik_Charging_Adjusted_Penalty>
0

> <i_epik_Tot_Q>
0

> <i_epik_Tot_abs_Q>
0

> <r_epik_Metal_State_Penalty>
-0

> <b_epik_Metal_Only>
0

> <s_lp_Force_Field>
OPLS_2005

> <r_lp_Energy>
49.4407

> <b_lp_Chiralities_Consistent>
1

> <s_lp_Variant>
AV-unprocessed.smi:91-8

> <Gold.Version>
5.8.1

> <Gold.Id.Protein>
6NUR|6NUR_protein|mol2

> <Gold.PLP.Fitness>
41.9233

> <Gold.PLP.PLP>
-36.8413

> <Gold.PLP.part.hbond>
-1.0000

> <Gold.PLP.part.metal>
0.0000

> <Gold.PLP.part.buried>
-6.7509

> <Gold.PLP.part.nonpolar>
-30.6657

> <Gold.PLP.part.repulsive>
0.5980

> <Gold.PLP.ligand.clash>
0.0000

> <Gold.PLP.ligand.torsion>
0.6469

> <Gold.PLP.Chemscore.Hbond>
1.0000

> <Gold.PLP.Chemscore.CHOScore>
1.0000

> <Gold.PLP.Chemscore.Metal>
0.0000

> <Gold.Chemscore.Hbonds>
donor molecule, donor type, donor heavy atom, donor atom, acceptor molecule, acceptor atom, score
      P1  H  7997  8009       L1    19  0.47
      L1  C    14    39       P1  8028  1.00

> <Gold.PLP.Chemscore.Internal.Correction>
0.3758

> <Gold.Rescore>
     Score         DG    S(hbond)    S(metal)    S(lipo)     H(rot)  DE(clash)    DE(int)     intcor
      8.87     -11.28       0.94        0.00      88.96       3.03       0.19       2.22       ----

> <Gold.Chemscore.Fitness>
8.8677

> <Gold.Chemscore.DG>
-11.2830

> <Gold.Chemscore.ZeroCoef>
-5.4800

> <Gold.Chemscore.Hbond>
0.9423

> <Gold.Chemscore.Metal>
0.0000

> <Gold.Chemscore.Lipo>
88.9625

> <Gold.Chemscore.Internal_Hbond>
0.0000

> <Gold.Chemscore.DEClash>
0.1937

> <Gold.Chemscore.DEInternal>
2.2216

> <Gold.Chemscore.Rot>
3.0284

> <Gold.Chemscore.Internal.Correction>
   9.000000E+99

> <Gold.Chemscore.Hbonds>
donor molecule, donor type, donor heavy atom, donor atom, acceptor molecule, acceptor atom, score
      P1  H  7997  8009       L1    19  0.04

> <Gold.Chemscore.Hbond.Weighted>
-3.1472

> <Gold.Chemscore.Metal.Weighted>
-0.0000

> <Gold.Chemscore.Lipo.Weighted>
-10.4086

> <Gold.Chemscore.Internal_Hbond.Weighted>
0.0000

> <Gold.Chemscore.DEClash.Weighted>
0.1937

> <Gold.Chemscore.DEInternal.Weighted>
2.2216

> <Gold.Chemscore.Rot.Weighted>
7.7528

> <Gold.Chemscore.Internal.Correction.Weighted>
   9.000000E+99

> <Gold.Protein.RotatedTorsions>
[ 6907 6896 6895 6894 ] final -151.58 input  -60.11 | X-H torsion
[ 7974 7965 7964 7962 ] final  134.27 input  175.53 | X-H torsion
[ 8008 7997 7996 7995 ] final  165.91 input   59.86 | X-H torsion
[ 10167 10162 10161 10158 ] final   90.12 input  -65.29 | X-H torsion
[ 10718 10713 10712 10709 ] final  103.32 input   66.30 | X-H torsion
[ 10763 10752 10751 10750 ] final  -64.27 input  -60.55 | X-H torsion
[ 11005 11000 10999 10996 ] final   -4.53 input  -57.11 | X-H torsion

> <Gold.Protein.ActiveResidues>
 VAL166  LYS551  ARG553  GLY616  TRP617  ASP618  TYR619  PRO620  LYS621  CYS622 
 ASP623  PHE694  ASN695  SER759  ASP760  ASP761  ALA762  ILE779  LEU786  VAL792 
 PHE793  MET794  SER795  GLU796  ALA797  LYS798  CYS799  TRP800  GLU811  SER814 

> <Gold.Protein.RotatedAtoms>
  151.2151  133.4533  159.2598 H   0  0  0  0  0  0  0  0  0  0  0  0  # atno 6907 bound_to 6896
  151.0938  134.9932  159.8426 H   0  0  0  0  0  0  0  0  0  0  0  0  # atno 6908 bound_to 6896
  152.5437  134.2083  159.8792 H   0  0  0  0  0  0  0  0  0  0  0  0  # atno 6909 bound_to 6896
  144.9780  139.4534  143.5400 H   0  0  0  0  0  0  0  0  0  0  0  0  # atno 7974 bound_to 7965
  156.1762  140.1657  156.8359 H   0  0  0  0  0  0  0  0  0  0  0  0  # atno 8008 bound_to 7997
  154.5309  140.0757  156.8377 H   0  0  0  0  0  0  0  0  0  0  0  0  # atno 8009 bound_to 7997
  155.3409  140.3384  155.4241 H   0  0  0  0  0  0  0  0  0  0  0  0  # atno 8010 bound_to 7997
  139.8505  144.6596  150.9176 H   0  0  0  0  0  0  0  0  0  0  0  0  # atno 10167 bound_to 10162
  157.6776  131.0776  150.5537 H   0  0  0  0  0  0  0  0  0  0  0  0  # atno 10718 bound_to 10713
  154.3276  135.6183  153.5536 H   0  0  0  0  0  0  0  0  0  0  0  0  # atno 10763 bound_to 10752
  152.9814  135.5739  154.4998 H   0  0  0  0  0  0  0  0  0  0  0  0  # atno 10764 bound_to 10752
  154.4679  135.2858  155.1641 H   0  0  0  0  0  0  0  0  0  0  0  0  # atno 10765 bound_to 10752
  140.6813  133.9151  155.8557 H   0  0  0  0  0  0  0  0  0  0  0  0  # atno 11005 bound_to 11000
  146.3400  139.9035  142.8791 LP  0  0  0  0  0  0  0  0  0  0  0  0  # atno 17320 bound_to 7965
  145.2462  141.0027  143.3907 LP  0  0  0  0  0  0  0  0  0  0  0  0  # atno 17321 bound_to 7965
  140.7788  143.3832  151.1440 LP  0  0  0  0  0  0  0  0  0  0  0  0  # atno 17342 bound_to 10162
  139.7470  143.8836  152.3066 LP  0  0  0  0  0  0  0  0  0  0  0  0  # atno 17343 bound_to 10162
  156.5841  130.4312  149.5964 LP  0  0  0  0  0  0  0  0  0  0  0  0  # atno 17370 bound_to 10713
  156.2637  130.6977  151.1754 LP  0  0  0  0  0  0  0  0  0  0  0  0  # atno 17371 bound_to 10713
  141.0315  134.0749  157.4008 LP  0  0  0  0  0  0  0  0  0  0  0  0  # atno 17394 bound_to 11000
  139.8951  135.0139  156.6984 LP  0  0  0  0  0  0  0  0  0  0  0  0  # atno 17395 bound_to 11000

$$$$
