AV-unprocessed.smi:2448|AV-procd|sdf|9657|dock8
  -GOLD-   2272013293D 1   1.00000     0.00000
 Structure written by MMmdl.
 38 39  0  0  0  0  0  0  0  0  2 V2000
  146.3613  135.5074  151.7841 O   0  0  0  0  0  0  0  0  0  0  0  0
  146.0823  134.3346  152.5297 C   0  0  1  0  0  0  0  0  0  0  0  0
  146.9465  134.3610  153.8067 C   0  0  0  0  0  0  0  0  0  0  0  0
  148.3882  134.2499  153.4901 N   0  3  0  0  0  0  0  0  0  0  0  0
  149.3216  134.6261  154.5776 C   0  0  1  0  0  0  0  0  0  0  0  0
  148.7903  135.8621  155.3449 C   0  0  0  0  0  0  0  0  0  0  0  0
  149.5927  137.1304  155.1174 C   0  0  0  0  0  0  0  0  0  0  0  0
  148.9843  138.2803  154.5725 C   0  0  0  0  0  0  0  0  0  0  0  0
  149.7725  139.4338  154.3874 C   0  0  0  0  0  0  0  0  0  0  0  0
  151.0838  139.4941  154.7041 N   0  0  0  0  0  0  0  0  0  0  0  0
  151.6610  138.3883  155.2210 C   0  0  0  0  0  0  0  0  0  0  0  0
  150.9632  137.1845  155.4467 C   0  0  0  0  0  0  0  0  0  0  0  0
  149.5662  133.3931  155.4781 C   0  0  0  0  0  0  0  0  0  0  0  0
  148.4246  133.0482  156.0751 F   0  0  0  0  0  0  0  0  0  0  0  0
  149.9852  132.3440  154.7720 F   0  0  0  0  0  0  0  0  0  0  0  0
  150.4689  133.6764  156.4175 F   0  0  0  0  0  0  0  0  0  0  0  0
  144.5776  134.3244  152.8467 C   0  0  0  0  0  0  0  0  0  0  0  0
  143.8285  133.9797  151.5555 C   0  0  0  0  0  0  0  0  0  0  0  0
  144.8614  132.8264  150.6180 S   0  0  0  0  0  0  0  0  0  0  0  0
  146.3270  133.0945  151.6503 C   0  0  0  0  0  0  0  0  0  0  0  0
  147.2789  135.7158  151.8763 H   0  0  0  0  0  0  0  0  0  0  0  0
  146.7661  135.2858  154.3567 H   0  0  0  0  0  0  0  0  0  0  0  0
  146.6538  133.5407  154.4621 H   0  0  0  0  0  0  0  0  0  0  0  0
  148.5951  133.3081  153.1897 H   0  0  0  0  0  0  0  0  0  0  0  0
  150.2766  134.8824  154.1165 H   0  0  0  0  0  0  0  0  0  0  0  0
  147.7631  136.0795  155.0528 H   0  0  0  0  0  0  0  0  0  0  0  0
  148.7581  135.6472  156.4140 H   0  0  0  0  0  0  0  0  0  0  0  0
  147.9378  138.2857  154.3050 H   0  0  0  0  0  0  0  0  0  0  0  0
  149.3372  140.3320  153.9748 H   0  0  0  0  0  0  0  0  0  0  0  0
  152.7105  138.4653  155.4633 H   0  0  0  0  0  0  0  0  0  0  0  0
  151.4716  136.3280  155.8645 H   0  0  0  0  0  0  0  0  0  0  0  0
  144.3692  133.5506  153.5870 H   0  0  0  0  0  0  0  0  0  0  0  0
  144.2342  135.2682  153.2726 H   0  0  0  0  0  0  0  0  0  0  0  0
  142.8442  133.5540  151.7517 H   0  0  0  0  0  0  0  0  0  0  0  0
  143.6868  134.8772  150.9522 H   0  0  0  0  0  0  0  0  0  0  0  0
  147.2250  133.1813  151.0372 H   0  0  0  0  0  0  0  0  0  0  0  0
  146.4453  132.2093  152.2763 H   0  0  0  0  0  0  0  0  0  0  0  0
  148.5654  134.8735  152.7148 H   0  0  0  0  0  0  0  0  0  0  0  0
  1  2  1  0  0  0  0
  1 21  1  0  0  0  0
  2 20  1  0  0  0  0
  2  3  1  0  0  0  0
  2 17  1  0  0  0  0
  3  4  1  0  0  0  0
  3 22  1  0  0  0  0
  3 23  1  0  0  0  0
  4  5  1  0  0  0  0
  4 24  1  0  0  0  0
  4 38  1  0  0  0  0
  5  6  1  0  0  0  0
  5 13  1  0  0  0  0
  5 25  1  0  0  0  0
  6  7  1  0  0  0  0
  6 26  1  0  0  0  0
  6 27  1  0  0  0  0
  7 12  1  0  0  0  0
  7  8  2  0  0  0  0
  8  9  1  0  0  0  0
  8 28  1  0  0  0  0
  9 10  2  0  0  0  0
  9 29  1  0  0  0  0
 10 11  1  0  0  0  0
 11 12  2  0  0  0  0
 11 30  1  0  0  0  0
 12 31  1  0  0  0  0
 13 14  1  0  0  0  0
 13 15  1  0  0  0  0
 13 16  1  0  0  0  0
 17 18  1  0  0  0  0
 17 32  1  0  0  0  0
 17 33  1  0  0  0  0
 18 19  1  0  0  0  0
 18 34  1  0  0  0  0
 18 35  1  0  0  0  0
 19 20  1  0  0  0  0
 20 36  1  0  0  0  0
 20 37  1  0  0  0  0
M  CHG  1   4   1
M  END
> <s_m_source_file>
AV-unprocessed.smi

> <i_m_source_file_index>
2448

> <i_lp_mmshare_version>
43012

> <i_f3d_flags>
0

> <s_epik_input>
W0NIMl0xU1tDSDJdW0NIMl1bQ0BAXTEoW09IXSlbQ0gyXVtOSF1bQ0BASF0oQyhGKShGKUYpW0NIMl1jMltjSF1bY0hdbltjSF1bY0hdMg==

> <s_epik_cmdline>
J2VwaWtfcHl0aG9uJywgJy1waCcsICc3LjAnLCAnLXRuJywgJzgnLCAnLW1hJywgJzIwMCcsICctbWV0YWxfYmluZGluZycsICctaW1hZScsICc8aW5maWxlLm1hZT4nLCAnLW9tYWUnLCAnPG91dGZpbGUubWFlPic=

> <r_epik_Ionization_Penalty>
1.19945

> <r_epik_Ionization_Penalty_Charging>
1.19892

> <r_epik_Ionization_Penalty_Neutral>
0.000532129

> <r_epik_State_Penalty>
0.752927

> <r_epik_Charging_Adjusted_Penalty>
1.95185

> <i_epik_Tot_Q>
1

> <i_epik_Tot_abs_Q>
1

> <r_epik_Metal_State_Penalty>
0.804507

> <b_epik_Metal_Only>
0

> <s_lp_Force_Field>
OPLS_2005

> <r_lp_Energy>
21.3844

> <b_lp_Chiralities_Consistent>
1

> <s_lp_Variant>
AV-unprocessed.smi:2448-7

> <Gold.Version>
5.8.1

> <Gold.Id.Protein>
6NUR|6NUR_protein|mol2

> <Gold.PLP.Fitness>
42.5698

> <Gold.PLP.PLP>
-30.5083

> <Gold.PLP.part.hbond>
-3.0000

> <Gold.PLP.part.metal>
0.0000

> <Gold.PLP.part.buried>
-1.5465

> <Gold.PLP.part.nonpolar>
-25.1919

> <Gold.PLP.part.repulsive>
0.1220

> <Gold.PLP.ligand.clash>
0.0000

> <Gold.PLP.ligand.torsion>
1.0653

> <Gold.PLP.Chemscore.Hbond>
4.0000

> <Gold.PLP.Chemscore.CHOScore>
0.5542

> <Gold.PLP.Chemscore.Metal>
0.0000

> <Gold.Chemscore.Hbonds>
donor molecule, donor type, donor heavy atom, donor atom, acceptor molecule, acceptor atom, score
      L1  H     1    21       P1  7948  1.00
      L1  H     4    38       P1  7948  2.00
      P1  H  7989  7998       L1    10  1.00
      L1  C     9    29       P1  7957  0.11

> <Gold.PLP.Chemscore.Internal.Correction>
0.5294

> <Gold.Rescore>
     Score         DG    S(hbond)    S(metal)    S(lipo)     H(rot)  DE(clash)    DE(int)     intcor
     13.74     -15.18       2.36        0.00      67.83       2.39       0.14       1.30       ----

> <Gold.Chemscore.Fitness>
13.7358

> <Gold.Chemscore.DG>
-15.1755

> <Gold.Chemscore.ZeroCoef>
-5.4800

> <Gold.Chemscore.Hbond>
2.3560

> <Gold.Chemscore.Metal>
0.0000

> <Gold.Chemscore.Lipo>
67.8308

> <Gold.Chemscore.Internal_Hbond>
0.0000

> <Gold.Chemscore.DEClash>
0.1400

> <Gold.Chemscore.DEInternal>
1.2997

> <Gold.Chemscore.Rot>
2.3866

> <Gold.Chemscore.Internal.Correction>
   9.000000E+99

> <Gold.Chemscore.Hbonds>
donor molecule, donor type, donor heavy atom, donor atom, acceptor molecule, acceptor atom, score
      L1  H     1    21       P1  7948  1.00
      L1  H     4    38       P1  7948  0.30
      P1  H  7989  7998       L1    10  0.26

> <Gold.Chemscore.Hbond.Weighted>
-7.8689

> <Gold.Chemscore.Metal.Weighted>
-0.0000

> <Gold.Chemscore.Lipo.Weighted>
-7.9362

> <Gold.Chemscore.Internal_Hbond.Weighted>
0.0000

> <Gold.Chemscore.DEClash.Weighted>
0.1400

> <Gold.Chemscore.DEInternal.Weighted>
1.2997

> <Gold.Chemscore.Rot.Weighted>
6.1096

> <Gold.Chemscore.Internal.Correction.Weighted>
   9.000000E+99

> <Gold.Protein.RotatedTorsions>
[ 6907 6896 6895 6894 ] final -114.72 input  -60.11 | X-H torsion
[ 7974 7965 7964 7962 ] final -170.12 input  175.53 | X-H torsion
[ 8008 7997 7996 7995 ] final   31.25 input   59.86 | X-H torsion
[ 10167 10162 10161 10158 ] final   89.44 input  -65.29 | X-H torsion
[ 10718 10713 10712 10709 ] final   38.50 input   66.30 | X-H torsion
[ 10763 10752 10751 10750 ] final   31.36 input  -60.55 | X-H torsion
[ 11005 11000 10999 10996 ] final    8.74 input  -57.11 | X-H torsion

> <Gold.Protein.ActiveResidues>
 VAL166  LYS551  ARG553  GLY616  TRP617  ASP618  TYR619  PRO620  LYS621  CYS622 
 ASP623  PHE694  ASN695  SER759  ASP760  ASP761  ALA762  ILE779  LEU786  VAL792 
 PHE793  MET794  SER795  GLU796  ALA797  LYS798  CYS799  TRP800  GLU811  SER814 

> <Gold.Protein.RotatedAtoms>
  150.7923  133.8761  159.3272 H   0  0  0  0  0  0  0  0  0  0  0  0  # atno 6907 bound_to 6896
  151.6595  135.0989  160.0186 H   0  0  0  0  0  0  0  0  0  0  0  0  # atno 6908 bound_to 6896
  152.3999  133.6764  159.6343 H   0  0  0  0  0  0  0  0  0  0  0  0  # atno 6909 bound_to 6896
  144.7175  140.2119  143.6326 H   0  0  0  0  0  0  0  0  0  0  0  0  # atno 7974 bound_to 7965
  155.1034  140.3232  155.4541 H   0  0  0  0  0  0  0  0  0  0  0  0  # atno 8008 bound_to 7997
  156.2711  140.2057  156.6106 H   0  0  0  0  0  0  0  0  0  0  0  0  # atno 8009 bound_to 7997
  154.6812  140.0526  157.0254 H   0  0  0  0  0  0  0  0  0  0  0  0  # atno 8010 bound_to 7997
  139.8572  144.6563  150.9100 H   0  0  0  0  0  0  0  0  0  0  0  0  # atno 10167 bound_to 10162
  157.3595  130.7642  149.7037 H   0  0  0  0  0  0  0  0  0  0  0  0  # atno 10718 bound_to 10713
  153.0320  135.6441  154.1187 H   0  0  0  0  0  0  0  0  0  0  0  0  # atno 10763 bound_to 10752
  154.0907  135.2866  155.3273 H   0  0  0  0  0  0  0  0  0  0  0  0  # atno 10764 bound_to 10752
  154.6466  135.5441  153.7916 H   0  0  0  0  0  0  0  0  0  0  0  0  # atno 10765 bound_to 10752
  140.5336  134.0443  155.7881 H   0  0  0  0  0  0  0  0  0  0  0  0  # atno 11005 bound_to 11000
  145.8583  139.2210  143.1732 LP  0  0  0  0  0  0  0  0  0  0  0  0  # atno 17320 bound_to 7965
  146.0197  140.8359  142.9929 LP  0  0  0  0  0  0  0  0  0  0  0  0  # atno 17321 bound_to 7965
  140.7780  143.3776  151.1536 LP  0  0  0  0  0  0  0  0  0  0  0  0  # atno 17342 bound_to 10162
  139.7408  143.8927  152.3049 LP  0  0  0  0  0  0  0  0  0  0  0  0  # atno 17343 bound_to 10162
  155.9735  130.4118  150.3998 LP  0  0  0  0  0  0  0  0  0  0  0  0  # atno 17370 bound_to 10713
  157.2073  131.0452  151.2618 LP  0  0  0  0  0  0  0  0  0  0  0  0  # atno 17371 bound_to 10713
  141.1267  133.9370  157.2619 LP  0  0  0  0  0  0  0  0  0  0  0  0  # atno 17394 bound_to 11000
  139.9541  135.0169  156.9078 LP  0  0  0  0  0  0  0  0  0  0  0  0  # atno 17395 bound_to 11000

$$$$
