AV-unprocessed.smi:1658|AV-procd|sdf|6648|dock4
  -GOLD-   22720 7353D 1   1.00000     0.00000
 Structure written by MMmdl.
 46 47  0  0  0  0  0  0  0  0  1 V2000
  143.1811  132.2237  148.7399 C   0  0  0  0  0  0  0  0  0  0  0  0
  144.1235  131.8484  149.7385 O   0  0  0  0  0  0  0  0  0  0  0  0
  144.7023  132.8427  150.5002 C   0  0  0  0  0  0  0  0  0  0  0  0
  145.8902  132.5502  151.1995 C   0  0  0  0  0  0  0  0  0  0  0  0
  146.4853  133.5578  151.9825 C   0  0  0  0  0  0  0  0  0  0  0  0
  145.8661  134.8283  152.0469 C   0  0  0  0  0  0  0  0  0  0  0  0
  146.3820  135.9272  152.7843 N   0  0  0  0  0  0  0  0  0  0  0  0
  145.7031  136.8319  153.5097 C   0  0  0  0  0  0  0  0  0  0  0  0
  144.4781  136.8760  153.6216 O   0  0  0  0  0  0  0  0  0  0  0  0
  146.5357  137.7111  154.0836 N   0  0  0  0  0  0  0  0  0  0  0  0
  146.1419  138.8621  154.8959 C   0  0  0  0  0  0  0  0  0  0  0  0
  146.9446  140.1449  154.5316 C   0  0  0  0  0  0  0  0  0  0  0  0
  146.8209  140.3149  152.9960 C   0  0  0  0  0  0  0  0  0  0  0  0
  146.2134  141.3426  155.1852 C   0  0  0  0  0  0  0  0  0  0  0  0
  148.3724  140.0369  154.9459 N   0  0  0  0  0  0  0  0  0  0  0  0
  149.1834  139.1198  154.1362 C   0  0  0  0  0  0  0  0  0  0  0  0
  150.6112  138.9672  154.6884 C   0  0  0  0  0  0  0  0  0  0  0  0
  151.2329  140.2437  154.7719 O   0  0  0  0  0  0  0  0  0  0  0  0
  150.5089  141.1457  155.5992 C   0  0  0  0  0  0  0  0  0  0  0  0
  149.0815  141.3176  155.0535 C   0  0  0  0  0  0  0  0  0  0  0  0
  144.6889  135.0248  151.2957 C   0  0  0  0  0  0  0  0  0  0  0  0
  144.1123  134.0630  150.5448 N   0  0  0  0  0  0  0  0  0  0  0  0
  142.8136  131.3296  148.2367 H   0  0  0  0  0  0  0  0  0  0  0  0
  143.6353  132.8658  147.9838 H   0  0  0  0  0  0  0  0  0  0  0  0
  142.3210  132.7349  149.1747 H   0  0  0  0  0  0  0  0  0  0  0  0
  146.3396  131.5705  151.1335 H   0  0  0  0  0  0  0  0  0  0  0  0
  147.4061  133.3434  152.5028 H   0  0  0  0  0  0  0  0  0  0  0  0
  147.3767  136.0784  152.7010 H   0  0  0  0  0  0  0  0  0  0  0  0
  147.5257  137.5978  153.9220 H   0  0  0  0  0  0  0  0  0  0  0  0
  145.0717  139.0550  154.8022 H   0  0  0  0  0  0  0  0  0  0  0  0
  146.2770  138.5961  155.9438 H   0  0  0  0  0  0  0  0  0  0  0  0
  145.7868  140.2130  152.6643 H   0  0  0  0  0  0  0  0  0  0  0  0
  147.4081  139.5691  152.4590 H   0  0  0  0  0  0  0  0  0  0  0  0
  147.1514  141.2981  152.6608 H   0  0  0  0  0  0  0  0  0  0  0  0
  145.1781  141.3998  154.8469 H   0  0  0  0  0  0  0  0  0  0  0  0
  146.6769  142.2966  154.9348 H   0  0  0  0  0  0  0  0  0  0  0  0
  146.1832  141.2634  156.2718 H   0  0  0  0  0  0  0  0  0  0  0  0
  148.7347  138.1287  154.1040 H   0  0  0  0  0  0  0  0  0  0  0  0
  149.2422  139.4758  153.1077 H   0  0  0  0  0  0  0  0  0  0  0  0
  150.5971  138.4958  155.6725 H   0  0  0  0  0  0  0  0  0  0  0  0
  151.2029  138.3257  154.0352 H   0  0  0  0  0  0  0  0  0  0  0  0
  150.4880  140.7747  156.6252 H   0  0  0  0  0  0  0  0  0  0  0  0
  151.0251  142.1055  155.6162 H   0  0  0  0  0  0  0  0  0  0  0  0
  149.1355  141.8017  154.0783 H   0  0  0  0  0  0  0  0  0  0  0  0
  148.5550  142.0007  155.7172 H   0  0  0  0  0  0  0  0  0  0  0  0
  144.1883  135.9823  151.3014 H   0  0  0  0  0  0  0  0  0  0  0  0
  1  2  1  0  0  0  0
  1 23  1  0  0  0  0
  1 24  1  0  0  0  0
  1 25  1  0  0  0  0
  2  3  1  0  0  0  0
  3 22  1  0  0  0  0
  3  4  2  0  0  0  0
  4  5  1  0  0  0  0
  4 26  1  0  0  0  0
  5  6  2  0  0  0  0
  5 27  1  0  0  0  0
  6  7  1  0  0  0  0
  6 21  1  0  0  0  0
  7  8  1  0  0  0  0
  7 28  1  0  0  0  0
  8  9  2  0  0  0  0
  8 10  1  0  0  0  0
 10 11  1  0  0  0  0
 10 29  1  0  0  0  0
 11 12  1  0  0  0  0
 11 30  1  0  0  0  0
 11 31  1  0  0  0  0
 12 13  1  0  0  0  0
 12 14  1  0  0  0  0
 12 15  1  0  0  0  0
 13 32  1  0  0  0  0
 13 33  1  0  0  0  0
 13 34  1  0  0  0  0
 14 35  1  0  0  0  0
 14 36  1  0  0  0  0
 14 37  1  0  0  0  0
 15 20  1  0  0  0  0
 15 16  1  0  0  0  0
 16 17  1  0  0  0  0
 16 38  1  0  0  0  0
 16 39  1  0  0  0  0
 17 18  1  0  0  0  0
 17 40  1  0  0  0  0
 17 41  1  0  0  0  0
 18 19  1  0  0  0  0
 19 20  1  0  0  0  0
 19 42  1  0  0  0  0
 19 43  1  0  0  0  0
 20 44  1  0  0  0  0
 20 45  1  0  0  0  0
 21 22  2  0  0  0  0
 21 46  1  0  0  0  0
M  END
> <s_m_source_file>
AV-unprocessed.smi

> <i_m_source_file_index>
1658

> <i_lp_mmshare_version>
43012

> <i_f3d_flags>
0

> <s_epik_input>
W0NIM11PYzFbY0hdW2NIXWMoW2NIXW4xKVtOSF1DKD1PKVtOSF1bQ0gyXUMoW0NIM10pKFtDSDNdKU4yW0NIMl1bQ0gyXU9bQ0gyXVtDSDJdMg==

> <s_epik_cmdline>
J2VwaWtfcHl0aG9uJywgJy1waCcsICc3LjAnLCAnLXRuJywgJzgnLCAnLW1hJywgJzIwMCcsICctbWV0YWxfYmluZGluZycsICctaW1hZScsICc8aW5maWxlLm1hZT4nLCAnLW9tYWUnLCAnPG91dGZpbGUubWFlPic=

> <r_lp_tautomer_probability>
1

> <r_epik_Ionization_Penalty>
0.266086

> <r_epik_Ionization_Penalty_Charging>
0

> <r_epik_Ionization_Penalty_Neutral>
0.266086

> <r_epik_State_Penalty>
0.257924

> <r_epik_Charging_Adjusted_Penalty>
0.257924

> <i_epik_Tot_Q>
0

> <i_epik_Tot_abs_Q>
0

> <r_epik_Metal_State_Penalty>
0.257921

> <b_epik_Metal_Only>
0

> <s_lp_Force_Field>
OPLS_2005

> <r_lp_Energy>
44.8547

> <b_lp_Chiralities_Consistent>
1

> <s_lp_Variant>
AV-unprocessed.smi:1658-1

> <Gold.Version>
5.8.1

> <Gold.Id.Protein>
6NUR|6NUR_protein|mol2

> <Gold.PLP.Fitness>
43.1515

> <Gold.PLP.PLP>
-36.4143

> <Gold.PLP.part.hbond>
-2.9375

> <Gold.PLP.part.metal>
0.0000

> <Gold.PLP.part.buried>
-2.6133

> <Gold.PLP.part.nonpolar>
-31.6821

> <Gold.PLP.part.repulsive>
1.4466

> <Gold.PLP.ligand.clash>
0.0119

> <Gold.PLP.ligand.torsion>
1.1606

> <Gold.PLP.Chemscore.Hbond>
2.0000

> <Gold.PLP.Chemscore.CHOScore>
1.0000

> <Gold.PLP.Chemscore.Metal>
0.0000

> <Gold.Chemscore.Hbonds>
donor molecule, donor type, donor heavy atom, donor atom, acceptor molecule, acceptor atom, score
      L1  H     7    28       P1  7948  1.00
      P1  H  7989  7998       L1    18  0.86

> <Gold.PLP.Chemscore.Internal.Correction>
0.0702

> <Gold.Rescore>
     Score         DG    S(hbond)    S(metal)    S(lipo)     H(rot)  DE(clash)    DE(int)     intcor
     13.52     -16.99       1.70        0.00      87.19       1.70       0.26       3.21       ----

> <Gold.Chemscore.Fitness>
13.5219

> <Gold.Chemscore.DG>
-16.9880

> <Gold.Chemscore.ZeroCoef>
-5.4800

> <Gold.Chemscore.Hbond>
1.6962

> <Gold.Chemscore.Metal>
0.0000

> <Gold.Chemscore.Lipo>
87.1877

> <Gold.Chemscore.Internal_Hbond>
0.0000

> <Gold.Chemscore.DEClash>
0.2584

> <Gold.Chemscore.DEInternal>
3.2077

> <Gold.Chemscore.Rot>
1.7024

> <Gold.Chemscore.Internal.Correction>
   9.000000E+99

> <Gold.Chemscore.Hbonds>
donor molecule, donor type, donor heavy atom, donor atom, acceptor molecule, acceptor atom, score
      L1  H     7    28       P1  7948  0.99
      P1  H  7989  7998       L1    18  0.65

> <Gold.Chemscore.Hbond.Weighted>
-5.6653

> <Gold.Chemscore.Metal.Weighted>
-0.0000

> <Gold.Chemscore.Lipo.Weighted>
-10.2010

> <Gold.Chemscore.Internal_Hbond.Weighted>
0.0000

> <Gold.Chemscore.DEClash.Weighted>
0.2584

> <Gold.Chemscore.DEInternal.Weighted>
3.2077

> <Gold.Chemscore.Rot.Weighted>
4.3583

> <Gold.Chemscore.Internal.Correction.Weighted>
   9.000000E+99

> <Gold.Protein.RotatedTorsions>
[ 6907 6896 6895 6894 ] final  104.63 input  -60.11 | X-H torsion
[ 7974 7965 7964 7962 ] final  -18.41 input  175.53 | X-H torsion
[ 8008 7997 7996 7995 ] final -125.44 input   59.86 | X-H torsion
[ 10167 10162 10161 10158 ] final -129.07 input  -65.29 | X-H torsion
[ 10718 10713 10712 10709 ] final -124.63 input   66.30 | X-H torsion
[ 10763 10752 10751 10750 ] final  -44.17 input  -60.55 | X-H torsion
[ 11005 11000 10999 10996 ] final   59.84 input  -57.11 | X-H torsion

> <Gold.Protein.ActiveResidues>
 VAL166  LYS551  ARG553  GLY616  TRP617  ASP618  TYR619  PRO620  LYS621  CYS622 
 ASP623  PHE694  ASN695  SER759  ASP760  ASP761  ALA762  ILE779  LEU786  VAL792 
 PHE793  MET794  SER795  GLU796  ALA797  LYS798  CYS799  TRP800  GLU811  SER814 

> <Gold.Protein.RotatedAtoms>
  152.5258  133.9647  159.7733 H   0  0  0  0  0  0  0  0  0  0  0  0  # atno 6907 bound_to 6896
  150.9931  133.6122  159.2712 H   0  0  0  0  0  0  0  0  0  0  0  0  # atno 6908 bound_to 6896
  151.3258  135.0836  159.9374 H   0  0  0  0  0  0  0  0  0  0  0  0  # atno 6909 bound_to 6896
  146.1893  140.3917  142.8464 H   0  0  0  0  0  0  0  0  0  0  0  0  # atno 7974 bound_to 7965
  155.2133  140.0419  157.2937 H   0  0  0  0  0  0  0  0  0  0  0  0  # atno 8008 bound_to 7997
  154.5997  140.2449  155.7780 H   0  0  0  0  0  0  0  0  0  0  0  0  # atno 8009 bound_to 7997
  156.2313  140.2937  156.0205 H   0  0  0  0  0  0  0  0  0  0  0  0  # atno 8010 bound_to 7997
  139.9437  143.6134  152.2496 H   0  0  0  0  0  0  0  0  0  0  0  0  # atno 10167 bound_to 10162
  156.1604  130.6598  151.0042 H   0  0  0  0  0  0  0  0  0  0  0  0  # atno 10718 bound_to 10713
  154.0077  135.6685  153.4763 H   0  0  0  0  0  0  0  0  0  0  0  0  # atno 10763 bound_to 10752
  153.0634  135.5014  154.8142 H   0  0  0  0  0  0  0  0  0  0  0  0  # atno 10764 bound_to 10752
  154.7014  135.3079  154.9298 H   0  0  0  0  0  0  0  0  0  0  0  0  # atno 10765 bound_to 10752
  140.0275  134.6061  155.9553 H   0  0  0  0  0  0  0  0  0  0  0  0  # atno 11005 bound_to 11000
  144.8457  140.6925  143.6201 LP  0  0  0  0  0  0  0  0  0  0  0  0  # atno 17320 bound_to 7965
  145.3841  139.1630  143.4265 LP  0  0  0  0  0  0  0  0  0  0  0  0  # atno 17321 bound_to 7965
  139.6684  144.7661  151.1830 LP  0  0  0  0  0  0  0  0  0  0  0  0  # atno 17342 bound_to 10162
  140.7603  143.5903  150.8803 LP  0  0  0  0  0  0  0  0  0  0  0  0  # atno 17343 bound_to 10162
  157.6728  131.0857  150.7569 LP  0  0  0  0  0  0  0  0  0  0  0  0  # atno 17370 bound_to 10713
  156.7632  130.4805  149.5433 LP  0  0  0  0  0  0  0  0  0  0  0  0  # atno 17371 bound_to 10713
  141.1811  133.6547  156.5025 LP  0  0  0  0  0  0  0  0  0  0  0  0  # atno 17394 bound_to 11000
  140.4282  134.7126  157.4927 LP  0  0  0  0  0  0  0  0  0  0  0  0  # atno 17395 bound_to 11000

$$$$
