AV-unprocessed.smi:1489|AV-procd|sdf|6026|dock5
  -GOLD-   22720 6123D 1   1.00000     0.00000
 Structure written by MMmdl.
 46 48  0  0  0  0  0  0  0  0  1 V2000
  145.9908  138.7817  154.0574 O   0  0  0  0  0  0  0  0  0  0  0  0
  146.8778  138.2741  153.3725 C   0  0  0  0  0  0  0  0  0  0  0  0
  148.1875  138.5713  153.4371 N   0  0  0  0  0  0  0  0  0  0  0  0
  148.8654  139.5110  154.2627 C   0  0  0  0  0  0  0  0  0  0  0  0
  148.3765  140.7929  154.6096 C   0  0  0  0  0  0  0  0  0  0  0  0
  149.1610  141.6230  155.4330 C   0  0  0  0  0  0  0  0  0  0  0  0
  150.4175  141.1583  155.8876 C   0  0  0  0  0  0  0  0  0  0  0  0
  151.2303  141.9569  156.7167 N   0  0  0  0  0  0  0  0  0  0  0  0
  150.9956  143.3840  156.8750 C   0  0  0  0  0  0  0  0  0  0  0  0
  151.9886  143.8219  157.9501 C   0  0  0  0  0  0  0  0  0  0  0  0
  152.0978  142.5869  158.8442 C   0  0  0  0  0  0  0  0  0  0  0  0
  151.9132  141.4089  157.8807 C   0  0  0  0  0  0  0  0  0  0  0  0
  150.8821  139.9303  155.5575 N   0  0  0  0  0  0  0  0  0  0  0  0
  150.1271  139.1388  154.7681 C   0  0  0  0  0  0  0  0  0  0  0  0
  146.6461  137.3298  152.4491 N   0  0  0  0  0  0  0  0  0  0  0  0
  145.3373  136.7728  152.1198 C   0  0  2  0  0  0  0  0  0  0  0  0
  144.6256  136.3309  153.4114 C   0  0  0  0  0  0  0  0  0  0  0  0
  143.2587  135.6898  153.1127 C   0  0  0  0  0  0  0  0  0  0  0  0
  143.3676  134.5230  152.1133 C   0  0  2  0  0  0  0  0  0  0  0  0
  144.0171  133.4240  152.7213 O   0  0  0  0  0  0  0  0  0  0  0  0
  144.1196  134.9405  150.8355 C   0  0  0  0  0  0  0  0  0  0  0  0
  145.4812  135.5878  151.1435 C   0  0  0  0  0  0  0  0  0  0  0  0
  148.7842  138.0451  152.8157 H   0  0  0  0  0  0  0  0  0  0  0  0
  147.4251  141.1659  154.2673 H   0  0  0  0  0  0  0  0  0  0  0  0
  148.7861  142.5978  155.7072 H   0  0  0  0  0  0  0  0  0  0  0  0
  151.1485  143.9246  155.9404 H   0  0  0  0  0  0  0  0  0  0  0  0
  149.9701  143.5500  157.2076 H   0  0  0  0  0  0  0  0  0  0  0  0
  152.9572  144.0337  157.4952 H   0  0  0  0  0  0  0  0  0  0  0  0
  151.6657  144.7132  158.4886 H   0  0  0  0  0  0  0  0  0  0  0  0
  153.0384  142.5408  159.3935 H   0  0  0  0  0  0  0  0  0  0  0  0
  151.2851  142.5932  159.5719 H   0  0  0  0  0  0  0  0  0  0  0  0
  151.3468  140.6056  158.3530 H   0  0  0  0  0  0  0  0  0  0  0  0
  152.8786  141.0106  157.5671 H   0  0  0  0  0  0  0  0  0  0  0  0
  150.5478  138.1719  154.5333 H   0  0  0  0  0  0  0  0  0  0  0  0
  147.4345  136.9672  151.9332 H   0  0  0  0  0  0  0  0  0  0  0  0
  144.7299  137.5476  151.6475 H   0  0  0  0  0  0  0  0  0  0  0  0
  145.2497  135.6193  153.9539 H   0  0  0  0  0  0  0  0  0  0  0  0
  144.4893  137.1867  154.0738 H   0  0  0  0  0  0  0  0  0  0  0  0
  142.7919  135.3521  154.0389 H   0  0  0  0  0  0  0  0  0  0  0  0
  142.5955  136.4505  152.6992 H   0  0  0  0  0  0  0  0  0  0  0  0
  142.3646  134.1899  151.8440 H   0  0  0  0  0  0  0  0  0  0  0  0
  143.4287  133.0390  153.3529 H   0  0  0  0  0  0  0  0  0  0  0  0
  144.2533  134.0816  150.1764 H   0  0  0  0  0  0  0  0  0  0  0  0
  143.5084  135.6544  150.2818 H   0  0  0  0  0  0  0  0  0  0  0  0
  145.9423  135.9209  150.2127 H   0  0  0  0  0  0  0  0  0  0  0  0
  146.1531  134.8397  151.5669 H   0  0  0  0  0  0  0  0  0  0  0  0
  1  2  2  0  0  0  0
  2  3  1  0  0  0  0
  2 15  1  0  0  0  0
  3  4  1  0  0  0  0
  3 23  1  0  0  0  0
  4 14  1  0  0  0  0
  4  5  2  0  0  0  0
  5  6  1  0  0  0  0
  5 24  1  0  0  0  0
  6  7  2  0  0  0  0
  6 25  1  0  0  0  0
  7  8  1  0  0  0  0
  7 13  1  0  0  0  0
  8 12  1  0  0  0  0
  8  9  1  0  0  0  0
  9 10  1  0  0  0  0
  9 26  1  0  0  0  0
  9 27  1  0  0  0  0
 10 11  1  0  0  0  0
 10 28  1  0  0  0  0
 10 29  1  0  0  0  0
 11 12  1  0  0  0  0
 11 30  1  0  0  0  0
 11 31  1  0  0  0  0
 12 32  1  0  0  0  0
 12 33  1  0  0  0  0
 13 14  2  0  0  0  0
 14 34  1  0  0  0  0
 15 16  1  0  0  0  0
 15 35  1  0  0  0  0
 16 22  1  0  0  0  0
 16 17  1  0  0  0  0
 16 36  1  0  0  0  0
 17 18  1  0  0  0  0
 17 37  1  0  0  0  0
 17 38  1  0  0  0  0
 18 19  1  0  0  0  0
 18 39  1  0  0  0  0
 18 40  1  0  0  0  0
 19 20  1  0  0  0  0
 19 21  1  0  0  0  0
 19 41  1  0  0  0  0
 20 42  1  0  0  0  0
 21 22  1  0  0  0  0
 21 43  1  0  0  0  0
 21 44  1  0  0  0  0
 22 45  1  0  0  0  0
 22 46  1  0  0  0  0
M  END
> <s_m_source_file>
AV-unprocessed.smi

> <i_m_source_file_index>
1489

> <i_lp_mmshare_version>
43012

> <i_f3d_flags>
0

> <s_epik_input>
W0NIMl0xW0NIMl1bQ0BIXShbT0hdKVtDSDJdW0NIMl1bQ0BIXTFbTkhdQyg9TylbTkhdYzJbY0hdW2NIXWMobltjSF0yKU4zW0NIMl1bQ0gyXVtDSDJdW0NIMl0z

> <s_epik_cmdline>
J2VwaWtfcHl0aG9uJywgJy1waCcsICc3LjAnLCAnLXRuJywgJzgnLCAnLW1hJywgJzIwMCcsICctbWV0YWxfYmluZGluZycsICctaW1hZScsICc8aW5maWxlLm1hZT4nLCAnLW9tYWUnLCAnPG91dGZpbGUubWFlPic=

> <r_lp_tautomer_probability>
1

> <r_epik_Ionization_Penalty>
0.104121

> <r_epik_Ionization_Penalty_Charging>
0

> <r_epik_Ionization_Penalty_Neutral>
0.104121

> <r_epik_State_Penalty>
0.0934704

> <r_epik_Charging_Adjusted_Penalty>
0.0934704

> <i_epik_Tot_Q>
0

> <i_epik_Tot_abs_Q>
0

> <r_epik_Metal_State_Penalty>
0.0794432

> <b_epik_Metal_Only>
0

> <s_lp_Force_Field>
OPLS_2005

> <r_lp_Energy>
35.391

> <b_lp_Chiralities_Consistent>
1

> <s_lp_Variant>
AV-unprocessed.smi:1489-2

> <Gold.Version>
5.8.1

> <Gold.Id.Protein>
6NUR|6NUR_protein|mol2

> <Gold.PLP.Fitness>
44.9151

> <Gold.PLP.PLP>
-37.6769

> <Gold.PLP.part.hbond>
-3.9107

> <Gold.PLP.part.metal>
0.0000

> <Gold.PLP.part.buried>
-3.1189

> <Gold.PLP.part.nonpolar>
-33.2679

> <Gold.PLP.part.repulsive>
0.2354

> <Gold.PLP.ligand.clash>
0.0000

> <Gold.PLP.ligand.torsion>
0.7657

> <Gold.PLP.Chemscore.Hbond>
2.8619

> <Gold.PLP.Chemscore.CHOScore>
0.0000

> <Gold.PLP.Chemscore.Metal>
0.0000

> <Gold.Chemscore.Hbonds>
donor molecule, donor type, donor heavy atom, donor atom, acceptor molecule, acceptor atom, score
      L1  H     3    23       P1  7948  0.88
      L1  H    15    35       P1  7948  1.00
      L1  H    20    42       P1 10957  0.94
      P1  H  7989  7998       L1    13  0.01

> <Gold.PLP.Chemscore.Internal.Correction>
0.1840

> <Gold.Rescore>
     Score         DG    S(hbond)    S(metal)    S(lipo)     H(rot)  DE(clash)    DE(int)     intcor
     19.81     -21.86       2.82        0.00      90.34       1.41       0.04       2.01       ----

> <Gold.Chemscore.Fitness>
19.8127

> <Gold.Chemscore.DG>
-21.8605

> <Gold.Chemscore.ZeroCoef>
-5.4800

> <Gold.Chemscore.Hbond>
2.8200

> <Gold.Chemscore.Metal>
0.0000

> <Gold.Chemscore.Lipo>
90.3366

> <Gold.Chemscore.Internal_Hbond>
0.0000

> <Gold.Chemscore.DEClash>
0.0419

> <Gold.Chemscore.DEInternal>
2.0059

> <Gold.Chemscore.Rot>
1.4093

> <Gold.Chemscore.Internal.Correction>
   9.000000E+99

> <Gold.Chemscore.Hbonds>
donor molecule, donor type, donor heavy atom, donor atom, acceptor molecule, acceptor atom, score
      L1  H     3    23       P1  7948  0.81
      L1  H    15    35       P1  7948  0.97
      L1  H    20    42       P1 10957  0.74

> <Gold.Chemscore.Hbond.Weighted>
-9.4189

> <Gold.Chemscore.Metal.Weighted>
-0.0000

> <Gold.Chemscore.Lipo.Weighted>
-10.5694

> <Gold.Chemscore.Internal_Hbond.Weighted>
0.0000

> <Gold.Chemscore.DEClash.Weighted>
0.0419

> <Gold.Chemscore.DEInternal.Weighted>
2.0059

> <Gold.Chemscore.Rot.Weighted>
3.6077

> <Gold.Chemscore.Internal.Correction.Weighted>
   9.000000E+99

> <Gold.Protein.RotatedTorsions>
[ 6907 6896 6895 6894 ] final -114.72 input  -60.11 | X-H torsion
[ 7974 7965 7964 7962 ] final  136.14 input  175.53 | X-H torsion
[ 8008 7997 7996 7995 ] final -140.70 input   59.86 | X-H torsion
[ 10167 10162 10161 10158 ] final -117.33 input  -65.29 | X-H torsion
[ 10718 10713 10712 10709 ] final  142.11 input   66.30 | X-H torsion
[ 10763 10752 10751 10750 ] final   25.24 input  -60.55 | X-H torsion
[ 11005 11000 10999 10996 ] final   72.93 input  -57.11 | X-H torsion

> <Gold.Protein.ActiveResidues>
 VAL166  LYS551  ARG553  GLY616  TRP617  ASP618  TYR619  PRO620  LYS621  CYS622 
 ASP623  PHE694  ASN695  SER759  ASP760  ASP761  ALA762  ILE779  LEU786  VAL792 
 PHE793  MET794  SER795  GLU796  ALA797  LYS798  CYS799  TRP800  GLU811  SER814 

> <Gold.Protein.RotatedAtoms>
  150.7923  133.8760  159.3272 H   0  0  0  0  0  0  0  0  0  0  0  0  # atno 6907 bound_to 6896
  151.6595  135.0989  160.0186 H   0  0  0  0  0  0  0  0  0  0  0  0  # atno 6908 bound_to 6896
  152.4000  133.6764  159.6343 H   0  0  0  0  0  0  0  0  0  0  0  0  # atno 6909 bound_to 6896
  144.9594  139.4728  143.5487 H   0  0  0  0  0  0  0  0  0  0  0  0  # atno 7974 bound_to 7965
  155.4657  140.0549  157.2985 H   0  0  0  0  0  0  0  0  0  0  0  0  # atno 8008 bound_to 7997
  154.4719  140.2044  155.9928 H   0  0  0  0  0  0  0  0  0  0  0  0  # atno 8009 bound_to 7997
  156.1070  140.3210  155.8024 H   0  0  0  0  0  0  0  0  0  0  0  0  # atno 8010 bound_to 7997
  140.0695  143.4890  152.1987 H   0  0  0  0  0  0  0  0  0  0  0  0  # atno 10167 bound_to 10162
  157.3844  131.0996  151.0708 H   0  0  0  0  0  0  0  0  0  0  0  0  # atno 10718 bound_to 10713
  153.0706  135.6587  154.0256 H   0  0  0  0  0  0  0  0  0  0  0  0  # atno 10763 bound_to 10752
  153.9902  135.2947  155.3414 H   0  0  0  0  0  0  0  0  0  0  0  0  # atno 10764 bound_to 10752
  154.7079  135.5217  153.8692 H   0  0  0  0  0  0  0  0  0  0  0  0  # atno 10765 bound_to 10752
  139.9466  134.7302  156.0965 H   0  0  0  0  0  0  0  0  0  0  0  0  # atno 11005 bound_to 11000
  146.3348  139.8733  142.8836 LP  0  0  0  0  0  0  0  0  0  0  0  0  # atno 17320 bound_to 7965
  145.2723  141.0112  143.3765 LP  0  0  0  0  0  0  0  0  0  0  0  0  # atno 17321 bound_to 7965
  139.5844  144.7525  151.3557 LP  0  0  0  0  0  0  0  0  0  0  0  0  # atno 17342 bound_to 10162
  140.7132  143.7335  150.7606 LP  0  0  0  0  0  0  0  0  0  0  0  0  # atno 17343 bound_to 10162
  157.1765  130.6290  149.5657 LP  0  0  0  0  0  0  0  0  0  0  0  0  # atno 17370 bound_to 10713
  155.9783  130.4768  150.6647 LP  0  0  0  0  0  0  0  0  0  0  0  0  # atno 17371 bound_to 10713
  141.1118  133.6641  156.2996 LP  0  0  0  0  0  0  0  0  0  0  0  0  # atno 17394 bound_to 11000
  140.5820  134.5736  157.5481 LP  0  0  0  0  0  0  0  0  0  0  0  0  # atno 17395 bound_to 11000

$$$$
