AV-unprocessed.smi:81|AV-procd|sdf|790|dock9
  -GOLD-   2262017163D 1   1.00000     0.00000
 Structure written by MMmdl.
 64 67  0  0  0  0  0  0  0  0  2 V2000
  140.6728  136.9478  153.8213 C   0  0  0  0  0  0  0  0  0  0  0  0
  141.7832  136.0533  153.2463 C   0  0  0  0  0  0  0  0  0  0  0  0
  142.2906  135.0732  154.3132 C   0  0  0  0  0  0  0  0  0  0  0  0
  142.9567  136.8864  152.6795 C   0  0  0  0  0  0  0  0  0  0  0  0
  144.2773  136.2674  152.8404 N   0  0  0  0  0  0  0  0  0  0  0  0
  145.0475  136.7732  153.8343 C   0  0  0  0  0  0  0  0  0  0  0  0
  144.8621  136.2704  155.0806 N   0  0  0  0  0  0  0  0  0  0  0  0
  145.5656  136.7502  156.1098 C   0  0  0  0  0  0  0  0  0  0  0  0
  146.4834  137.7185  156.1131 N   0  0  0  0  0  0  0  0  0  0  0  0
  146.6603  138.2407  154.8656 C   0  0  0  0  0  0  0  0  0  0  0  0
  145.9883  137.8319  153.6799 C   0  0  0  0  0  0  0  0  0  0  0  0
  146.4314  138.5905  152.6036 N   0  0  0  0  0  0  0  0  0  0  0  0
  147.3099  139.4027  153.1236 C   0  0  0  0  0  0  0  0  0  0  0  0
  147.5062  139.2671  154.4797 N   0  0  0  0  0  0  0  0  0  0  0  0
  148.4058  140.0354  155.3320 C   0  0  0  0  0  0  0  0  0  0  0  0
  149.8853  140.0184  154.8615 C   0  0  1  0  0  0  0  0  0  0  0  0
  149.9900  140.8450  153.7130 O   0  0  0  0  0  0  0  0  0  0  0  0
  150.8602  140.5272  155.9094 C   0  0  0  0  0  0  0  0  0  0  0  0
  152.2003  139.9775  155.4258 C   0  0  0  0  0  0  0  0  0  0  0  0
  151.9004  138.8200  154.6488 O   0  0  0  0  0  0  0  0  0  0  0  0
  150.4909  138.6431  154.5069 C   0  0  1  0  0  0  0  0  0  0  0  0
  150.1357  137.4880  155.4633 C   0  0  0  0  0  0  0  0  0  0  0  0
  144.9369  135.7791  151.6167 C   0  0  2  0  0  0  0  0  0  0  0  0
  144.0048  135.1438  150.5569 C   0  0  0  0  0  0  0  0  0  0  0  0
  143.7795  133.6302  150.7404 C   0  0  0  0  0  0  0  0  0  0  0  0
  145.0672  132.9066  150.8532 N   0  3  2  0  0  0  0  0  0  0  0  0
  144.8852  131.4394  150.8823 C   0  0  0  0  0  0  0  0  0  0  0  0
  145.8711  133.3960  151.9972 C   0  0  0  0  0  0  0  0  0  0  0  0
  146.1848  134.8968  151.8574 C   0  0  0  0  0  0  0  0  0  0  0  0
  141.0492  137.5753  154.6298 H   0  0  0  0  0  0  0  0  0  0  0  0
  139.8530  136.3487  154.2189 H   0  0  0  0  0  0  0  0  0  0  0  0
  140.2537  137.6041  153.0585 H   0  0  0  0  0  0  0  0  0  0  0  0
  141.3490  135.4477  152.4502 H   0  0  0  0  0  0  0  0  0  0  0  0
  142.7328  135.6006  155.1591 H   0  0  0  0  0  0  0  0  0  0  0  0
  143.0490  134.4054  153.9033 H   0  0  0  0  0  0  0  0  0  0  0  0
  141.4792  134.4525  154.6946 H   0  0  0  0  0  0  0  0  0  0  0  0
  142.7794  137.0621  151.6179 H   0  0  0  0  0  0  0  0  0  0  0  0
  142.9623  137.8730  153.1414 H   0  0  0  0  0  0  0  0  0  0  0  0
  145.3624  136.2952  157.0681 H   0  0  0  0  0  0  0  0  0  0  0  0
  147.8343  140.1251  152.5185 H   0  0  0  0  0  0  0  0  0  0  0  0
  148.0487  141.0659  155.3424 H   0  0  0  0  0  0  0  0  0  0  0  0
  148.3045  139.6852  156.3587 H   0  0  0  0  0  0  0  0  0  0  0  0
  149.6766  140.3587  152.9656 H   0  0  0  0  0  0  0  0  0  0  0  0
  150.8588  141.6128  156.0170 H   0  0  0  0  0  0  0  0  0  0  0  0
  150.6194  140.0999  156.8836 H   0  0  0  0  0  0  0  0  0  0  0  0
  152.7042  140.7023  154.7859 H   0  0  0  0  0  0  0  0  0  0  0  0
  152.8681  139.7366  156.2531 H   0  0  0  0  0  0  0  0  0  0  0  0
  150.2468  138.3469  153.4856 H   0  0  0  0  0  0  0  0  0  0  0  0
  149.0788  137.2350  155.4368 H   0  0  0  0  0  0  0  0  0  0  0  0
  150.3915  137.7263  156.4956 H   0  0  0  0  0  0  0  0  0  0  0  0
  150.6856  136.5865  155.1927 H   0  0  0  0  0  0  0  0  0  0  0  0
  145.3046  136.6959  151.1537 H   0  0  0  0  0  0  0  0  0  0  0  0
  143.0530  135.6740  150.5109 H   0  0  0  0  0  0  0  0  0  0  0  0
  144.4638  135.2895  149.5781 H   0  0  0  0  0  0  0  0  0  0  0  0
  143.1722  133.4199  151.6197 H   0  0  0  0  0  0  0  0  0  0  0  0
  143.2226  133.2471  149.8844 H   0  0  0  0  0  0  0  0  0  0  0  0
  144.3174  131.1330  151.7620 H   0  0  0  0  0  0  0  0  0  0  0  0
  145.8500  130.9316  150.9040 H   0  0  0  0  0  0  0  0  0  0  0  0
  144.3515  131.0998  149.9942 H   0  0  0  0  0  0  0  0  0  0  0  0
  145.3410  133.1864  152.9239 H   0  0  0  0  0  0  0  0  0  0  0  0
  146.8082  132.8401  152.0460 H   0  0  0  0  0  0  0  0  0  0  0  0
  146.8495  135.0161  151.0007 H   0  0  0  0  0  0  0  0  0  0  0  0
  146.7561  135.2450  152.7179 H   0  0  0  0  0  0  0  0  0  0  0  0
  145.5933  133.1149  150.0165 H   0  0  0  0  0  0  0  0  0  0  0  0
  1  2  1  0  0  0  0
  1 30  1  0  0  0  0
  1 31  1  0  0  0  0
  1 32  1  0  0  0  0
  2  3  1  0  0  0  0
  2  4  1  0  0  0  0
  2 33  1  0  0  0  0
  3 34  1  0  0  0  0
  3 35  1  0  0  0  0
  3 36  1  0  0  0  0
  4  5  1  0  0  0  0
  4 37  1  0  0  0  0
  4 38  1  0  0  0  0
  5  6  1  0  0  0  0
  5 23  1  0  0  0  0
  6 11  1  0  0  0  0
  6  7  2  0  0  0  0
  7  8  1  0  0  0  0
  8  9  2  0  0  0  0
  8 39  1  0  0  0  0
  9 10  1  0  0  0  0
 10 14  1  0  0  0  0
 10 11  2  0  0  0  0
 11 12  1  0  0  0  0
 12 13  2  0  0  0  0
 13 14  1  0  0  0  0
 13 40  1  0  0  0  0
 14 15  1  0  0  0  0
 15 16  1  0  0  0  0
 15 41  1  0  0  0  0
 15 42  1  0  0  0  0
 16 21  1  0  0  0  0
 16 17  1  0  0  0  0
 16 18  1  0  0  0  0
 17 43  1  0  0  0  0
 18 19  1  0  0  0  0
 18 44  1  0  0  0  0
 18 45  1  0  0  0  0
 19 20  1  0  0  0  0
 19 46  1  0  0  0  0
 19 47  1  0  0  0  0
 20 21  1  0  0  0  0
 21 22  1  0  0  0  0
 21 48  1  0  0  0  0
 22 49  1  0  0  0  0
 22 50  1  0  0  0  0
 22 51  1  0  0  0  0
 23 29  1  0  0  0  0
 23 24  1  0  0  0  0
 23 52  1  0  0  0  0
 24 25  1  0  0  0  0
 24 53  1  0  0  0  0
 24 54  1  0  0  0  0
 25 26  1  0  0  0  0
 25 55  1  0  0  0  0
 25 56  1  0  0  0  0
 26 27  1  0  0  0  0
 26 28  1  0  0  0  0
 26 64  1  0  0  0  0
 27 57  1  0  0  0  0
 27 58  1  0  0  0  0
 27 59  1  0  0  0  0
 28 29  1  0  0  0  0
 28 60  1  0  0  0  0
 28 61  1  0  0  0  0
 29 62  1  0  0  0  0
 29 63  1  0  0  0  0
M  CHG  1  26   1
M  END
> <s_m_source_file>
AV-unprocessed.smi

> <i_m_source_file_index>
81

> <i_lp_mmshare_version>
43012

> <i_f3d_flags>
0

> <s_epik_input>
W0NIMl0xW0NIMl1OKFtDSDNdKVtDSDJdW0NIMl1bQ0hdMU4oW0NIMl1bQ0hdKFtDSDNdKVtDSDNdKWMobltjSF1uMiljKGMyMyluW2NIXW4zW0NIMl1bQ0BAXTQoW09IXSlbQ0gyXVtDSDJdT1tDQEhdNFtDSDNd

> <s_epik_cmdline>
J2VwaWtfcHl0aG9uJywgJy1waCcsICc3LjAnLCAnLXRuJywgJzgnLCAnLW1hJywgJzIwMCcsICctbWV0YWxfYmluZGluZycsICctaW1hZScsICc8aW5maWxlLm1hZT4nLCAnLW9tYWUnLCAnPG91dGZpbGUubWFlPic=

> <r_lp_tautomer_probability>
1

> <r_epik_Ionization_Penalty>
0.00272708

> <r_epik_Ionization_Penalty_Charging>
0.00158983

> <r_epik_Ionization_Penalty_Neutral>
0.00113725

> <r_epik_State_Penalty>
-0

> <r_epik_Charging_Adjusted_Penalty>
0.00158983

> <i_epik_Tot_Q>
1

> <i_epik_Tot_abs_Q>
1

> <r_epik_Metal_State_Penalty>
-0

> <b_epik_Metal_Only>
0

> <s_lp_Force_Field>
OPLS_2005

> <r_lp_Energy>
53.2372

> <b_lp_Chiralities_Consistent>
1

> <s_lp_Variant>
AV-unprocessed.smi:81-5

> <Gold.Version>
5.8.1

> <Gold.Id.Protein>
6NUR|6NUR_protein|mol2

> <Gold.PLP.Fitness>
41.9008

> <Gold.PLP.PLP>
-37.5349

> <Gold.PLP.part.hbond>
-1.9295

> <Gold.PLP.part.metal>
0.0000

> <Gold.PLP.part.buried>
-2.6496

> <Gold.PLP.part.nonpolar>
-32.6659

> <Gold.PLP.part.repulsive>
0.3749

> <Gold.PLP.ligand.clash>
0.0000

> <Gold.PLP.ligand.torsion>
2.3421

> <Gold.PLP.Chemscore.Hbond>
1.5660

> <Gold.PLP.Chemscore.CHOScore>
1.0000

> <Gold.PLP.Chemscore.Metal>
0.0000

> <Gold.Chemscore.Hbonds>
donor molecule, donor type, donor heavy atom, donor atom, acceptor molecule, acceptor atom, score
      L1  H    17    43       P1  7957  1.00
      P1  H  7989  7998       L1    17  0.43
      P1  H  8011  8017       L1    17  0.04
      L1  C    13    40       P1  7957  1.00

> <Gold.PLP.Chemscore.Internal.Correction>
1.3520

> <Gold.Rescore>
     Score         DG    S(hbond)    S(metal)    S(lipo)     H(rot)  DE(clash)    DE(int)     intcor
     11.33     -14.07       1.03        0.00      94.77       2.32       0.25       2.48       ----

> <Gold.Chemscore.Fitness>
11.3349

> <Gold.Chemscore.DG>
-14.0655

> <Gold.Chemscore.ZeroCoef>
-5.4800

> <Gold.Chemscore.Hbond>
1.0261

> <Gold.Chemscore.Metal>
0.0000

> <Gold.Chemscore.Lipo>
94.7688

> <Gold.Chemscore.Internal_Hbond>
0.0000

> <Gold.Chemscore.DEClash>
0.2511

> <Gold.Chemscore.DEInternal>
2.4795

> <Gold.Chemscore.Rot>
2.3163

> <Gold.Chemscore.Internal.Correction>
   9.000000E+99

> <Gold.Chemscore.Hbonds>
donor molecule, donor type, donor heavy atom, donor atom, acceptor molecule, acceptor atom, score
      L1  H    17    43       P1  7957  0.95
      P1  H  7989  7998       L1    17  0.07

> <Gold.Chemscore.Hbond.Weighted>
-3.4273

> <Gold.Chemscore.Metal.Weighted>
-0.0000

> <Gold.Chemscore.Lipo.Weighted>
-11.0879

> <Gold.Chemscore.Internal_Hbond.Weighted>
0.0000

> <Gold.Chemscore.DEClash.Weighted>
0.2511

> <Gold.Chemscore.DEInternal.Weighted>
2.4795

> <Gold.Chemscore.Rot.Weighted>
5.9297

> <Gold.Chemscore.Internal.Correction.Weighted>
   9.000000E+99

> <Gold.Protein.RotatedTorsions>
[ 6907 6896 6895 6894 ] final  -35.78 input  -60.11 | X-H torsion
[ 7974 7965 7964 7962 ] final   71.33 input  175.53 | X-H torsion
[ 8008 7997 7996 7995 ] final   84.79 input   59.86 | X-H torsion
[ 10167 10162 10161 10158 ] final   42.60 input  -65.29 | X-H torsion
[ 10718 10713 10712 10709 ] final   68.26 input   66.30 | X-H torsion
[ 10763 10752 10751 10750 ] final -162.26 input  -60.55 | X-H torsion
[ 11005 11000 10999 10996 ] final  -26.98 input  -57.11 | X-H torsion

> <Gold.Protein.ActiveResidues>
 VAL166  LYS551  ARG553  GLY616  TRP617  ASP618  TYR619  PRO620  LYS621  CYS622 
 ASP623  PHE694  ASN695  SER759  ASP760  ASP761  ALA762  ILE779  LEU786  VAL792 
 PHE793  MET794  SER795  GLU796  ALA797  LYS798  CYS799  TRP800  GLU811  SER814 

> <Gold.Protein.RotatedAtoms>
  151.0354  134.9569  159.8133 H   0  0  0  0  0  0  0  0  0  0  0  0  # atno 6907 bound_to 6896
  152.5354  134.2726  159.8987 H   0  0  0  0  0  0  0  0  0  0  0  0  # atno 6908 bound_to 6896
  151.2737  133.4200  159.2656 H   0  0  0  0  0  0  0  0  0  0  0  0  # atno 6909 bound_to 6896
  145.7671  139.2826  143.1342 H   0  0  0  0  0  0  0  0  0  0  0  0  # atno 7974 bound_to 7965
  155.9416  140.3407  155.6332 H   0  0  0  0  0  0  0  0  0  0  0  0  # atno 8008 bound_to 7997
  155.7032  140.0763  157.2420 H   0  0  0  0  0  0  0  0  0  0  0  0  # atno 8009 bound_to 7997
  154.4104  140.1636  156.2201 H   0  0  0  0  0  0  0  0  0  0  0  0  # atno 8010 bound_to 7997
  140.3527  144.2329  150.6144 H   0  0  0  0  0  0  0  0  0  0  0  0  # atno 10167 bound_to 10162
  157.6279  130.9364  150.0353 H   0  0  0  0  0  0  0  0  0  0  0  0  # atno 10718 bound_to 10713
  154.7230  135.3030  154.9016 H   0  0  0  0  0  0  0  0  0  0  0  0  # atno 10763 bound_to 10752
  153.9882  135.6722  153.4757 H   0  0  0  0  0  0  0  0  0  0  0  0  # atno 10764 bound_to 10752
  153.0851  135.4988  154.8498 H   0  0  0  0  0  0  0  0  0  0  0  0  # atno 10765 bound_to 10752
  140.9078  133.7481  156.0630 H   0  0  0  0  0  0  0  0  0  0  0  0  # atno 11005 bound_to 11000
  146.0206  140.8351  142.9925 LP  0  0  0  0  0  0  0  0  0  0  0  0  # atno 17320 bound_to 7965
  144.6819  140.2623  143.7317 LP  0  0  0  0  0  0  0  0  0  0  0  0  # atno 17321 bound_to 7965
  140.5203  143.2267  151.8399 LP  0  0  0  0  0  0  0  0  0  0  0  0  # atno 17342 bound_to 10162
  139.4824  144.4845  151.9265 LP  0  0  0  0  0  0  0  0  0  0  0  0  # atno 17343 bound_to 10162
  156.1462  130.3642  149.9506 LP  0  0  0  0  0  0  0  0  0  0  0  0  # atno 17370 bound_to 10713
  156.7536  130.9124  151.3638 LP  0  0  0  0  0  0  0  0  0  0  0  0  # atno 17371 bound_to 10713
  140.8148  134.3357  157.5400 LP  0  0  0  0  0  0  0  0  0  0  0  0  # atno 17394 bound_to 11000
  139.8752  134.9275  156.3427 LP  0  0  0  0  0  0  0  0  0  0  0  0  # atno 17395 bound_to 11000

$$$$
