AV-unprocessed.smi:157|AV-procd|sdf|1293|dock2
  -GOLD-   2262018573D 1   1.00000     0.00000
 Structure written by MMmdl.
 35 37  0  0  0  0  0  0  0  0  1 V2000
  151.9738  137.1814  153.9896 O   0  0  0  0  0  0  0  0  0  0  0  0
  151.3049  138.1910  154.7151 C   0  0  0  0  0  0  0  0  0  0  0  0
  152.1473  138.6114  155.9285 C   0  0  1  0  0  0  0  0  0  0  0  0
  151.2924  139.0545  156.9787 O   0  0  0  0  0  0  0  0  0  0  0  0
  151.9126  138.8660  158.2171 C   0  0  2  0  0  0  0  0  0  0  0  0
  152.3055  140.2022  158.7725 N   0  0  0  0  0  0  0  0  0  0  0  0
  153.0098  140.4335  159.8892 C   0  0  0  0  0  0  0  0  0  0  0  0
  153.2185  141.7123  160.1524 N   0  0  0  0  0  0  0  0  0  0  0  0
  152.5817  142.3787  159.1075 C   0  0  0  0  0  0  0  0  0  0  0  0
  152.0004  141.4603  158.2450 C   0  0  0  0  0  0  0  0  0  0  0  0
  151.2614  141.5170  157.0786 N   0  0  0  0  0  0  0  0  0  0  0  0
  150.7003  142.6422  156.7649 C   0  0  0  0  0  0  0  0  0  0  0  0
  150.7833  143.8871  157.3722 N   0  0  0  0  0  0  0  0  0  0  0  0
  152.0361  144.4995  157.7802 C   0  0  0  0  0  0  0  0  0  0  0  0
  152.6368  143.8773  159.0460 C   0  0  1  0  0  0  0  0  0  0  0  0
  151.9478  144.3630  160.1798 O   0  0  0  0  0  0  0  0  0  0  0  0
  153.1620  138.0127  157.9746 C   0  0  0  0  0  0  0  0  0  0  0  0
  152.8932  137.4526  156.5923 C   0  0  2  0  0  0  0  0  0  0  0  0
  154.1016  137.1376  155.9315 O   0  0  0  0  0  0  0  0  0  0  0  0
  152.8519  139.4039  155.6684 H   0  0  0  0  0  0  0  0  0  0  0  0
  151.2070  138.4417  158.9320 H   0  0  0  0  0  0  0  0  0  0  0  0
  153.6705  144.2130  159.1374 H   0  0  0  0  0  0  0  0  0  0  0  0
  152.2557  136.5698  156.6592 H   0  0  0  0  0  0  0  0  0  0  0  0
  151.5946  137.1309  153.1255 H   0  0  0  0  0  0  0  0  0  0  0  0
  151.0858  139.0424  154.0701 H   0  0  0  0  0  0  0  0  0  0  0  0
  150.3504  137.7796  155.0445 H   0  0  0  0  0  0  0  0  0  0  0  0
  153.3844  139.6465  160.5269 H   0  0  0  0  0  0  0  0  0  0  0  0
  150.0537  142.6695  155.8867 H   0  0  0  0  0  0  0  0  0  0  0  0
  150.0974  144.5869  157.1287 H   0  0  0  0  0  0  0  0  0  0  0  0
  152.7418  144.3744  156.9577 H   0  0  0  0  0  0  0  0  0  0  0  0
  151.9002  145.5743  157.9039 H   0  0  0  0  0  0  0  0  0  0  0  0
  152.1447  143.7948  160.9091 H   0  0  0  0  0  0  0  0  0  0  0  0
  154.0504  138.6478  157.9736 H   0  0  0  0  0  0  0  0  0  0  0  0
  153.2731  137.2486  158.7444 H   0  0  0  0  0  0  0  0  0  0  0  0
  154.8062  137.6030  156.3560 H   0  0  0  0  0  0  0  0  0  0  0  0
  1  2  1  0  0  0  0
  1 24  1  0  0  0  0
  2  3  1  0  0  0  0
  2 25  1  0  0  0  0
  2 26  1  0  0  0  0
  3 20  1  0  0  0  0
  3 18  1  0  0  0  0
  3  4  1  0  0  0  0
  4  5  1  0  0  0  0
  5 21  1  0  0  0  0
  5  6  1  0  0  0  0
  5 17  1  0  0  0  0
  6 10  1  0  0  0  0
  6  7  1  0  0  0  0
  7  8  2  0  0  0  0
  7 27  1  0  0  0  0
  8  9  1  0  0  0  0
  9 15  1  0  0  0  0
  9 10  2  0  0  0  0
 10 11  1  0  0  0  0
 11 12  2  0  0  0  0
 12 13  1  0  0  0  0
 12 28  1  0  0  0  0
 13 14  1  0  0  0  0
 13 29  1  0  0  0  0
 14 15  1  0  0  0  0
 14 30  1  0  0  0  0
 14 31  1  0  0  0  0
 15 22  1  0  0  0  0
 15 16  1  0  0  0  0
 16 32  1  0  0  0  0
 17 18  1  0  0  0  0
 17 33  1  0  0  0  0
 17 34  1  0  0  0  0
 18 23  1  0  0  0  0
 18 19  1  0  0  0  0
 19 35  1  0  0  0  0
M  END
> <s_m_source_file>
AV-unprocessed.smi

> <i_m_source_file_index>
157

> <i_lp_mmshare_version>
43012

> <i_f3d_flags>
0

> <s_epik_input>
W09IXVtDSDJdW0NASF0xT1tDQEhdKFtDSDJdW0NAQEhdMVtPSF0pbihbY0hdbjIpYyhjMjMpTj1bQ0hdW05IXVtDSDJdW0NASF0zW09IXQ==

> <s_epik_cmdline>
J2VwaWtfcHl0aG9uJywgJy1waCcsICc3LjAnLCAnLXRuJywgJzgnLCAnLW1hJywgJzIwMCcsICctbWV0YWxfYmluZGluZycsICctaW1hZScsICc8aW5maWxlLm1hZT4nLCAnLW9tYWUnLCAnPG91dGZpbGUubWFlPic=

> <r_lp_tautomer_probability>
1

> <r_epik_Ionization_Penalty>
0.0357149

> <r_epik_Ionization_Penalty_Charging>
0.0355056

> <r_epik_Ionization_Penalty_Neutral>
0.000209255

> <r_epik_State_Penalty>
0.0296046

> <r_epik_Charging_Adjusted_Penalty>
0.0651102

> <i_epik_Tot_Q>
0

> <i_epik_Tot_abs_Q>
0

> <r_epik_Metal_State_Penalty>
3.03559e-05

> <b_epik_Metal_Only>
0

> <s_epik_Chemistry_Notes>
This compound has an imine and may undergo hydrolysis. This compound contains an acetal/aminal-like group ( X-CH(R)-Y where X, Y are N, S, or O) that may be acid/base labile, releasing an aldehyde.

> <s_lp_Force_Field>
OPLS_2005

> <r_lp_Energy>
43.2358

> <b_lp_Chiralities_Consistent>
1

> <s_lp_Variant>
AV-unprocessed.smi:157-3

> <Gold.Version>
5.8.1

> <Gold.Id.Protein>
6NUR|6NUR_protein|mol2

> <Gold.PLP.Fitness>
42.8335

> <Gold.PLP.PLP>
-33.7394

> <Gold.PLP.part.hbond>
-3.7659

> <Gold.PLP.part.metal>
0.0000

> <Gold.PLP.part.buried>
-5.4732

> <Gold.PLP.part.nonpolar>
-25.7218

> <Gold.PLP.part.repulsive>
0.0502

> <Gold.PLP.ligand.clash>
1.4019

> <Gold.PLP.ligand.torsion>
0.3462

> <Gold.PLP.Chemscore.Hbond>
3.0800

> <Gold.PLP.Chemscore.CHOScore>
0.6430

> <Gold.PLP.Chemscore.Metal>
0.0000

> <Gold.Chemscore.Hbonds>
donor molecule, donor type, donor heavy atom, donor atom, acceptor molecule, acceptor atom, score
      L1  H     1    24       P1  7949  0.94
      L1  H    13    29       P1  8028  0.67
      P1  H 10752 10764       L1     1  1.00
      P1  H 10752 10765       L1    19  0.32
      L1  C    12    28       P1  8028  0.66

> <Gold.PLP.Chemscore.Internal.Correction>
0.0195

> <Gold.Rescore>
     Score         DG    S(hbond)    S(metal)    S(lipo)     H(rot)  DE(clash)    DE(int)     intcor
     10.38     -12.69       2.77        0.00      62.22       3.64       0.38       1.93       ----

> <Gold.Chemscore.Fitness>
10.3801

> <Gold.Chemscore.DG>
-12.6872

> <Gold.Chemscore.ZeroCoef>
-5.4800

> <Gold.Chemscore.Hbond>
2.7652

> <Gold.Chemscore.Metal>
0.0000

> <Gold.Chemscore.Lipo>
62.2227

> <Gold.Chemscore.Internal_Hbond>
0.0000

> <Gold.Chemscore.DEClash>
0.3754

> <Gold.Chemscore.DEInternal>
1.9318

> <Gold.Chemscore.Rot>
3.6362

> <Gold.Chemscore.Internal.Correction>
   9.000000E+99

> <Gold.Chemscore.Hbonds>
donor molecule, donor type, donor heavy atom, donor atom, acceptor molecule, acceptor atom, score
      L1  H     1    24       P1  7949  0.80
      L1  H    13    29       P1  8028  0.30
      P1  H 10752 10764       L1     1  0.28
      P1  H 10752 10765       L1    19  0.19

> <Gold.Chemscore.Hbond.Weighted>
-9.2359

> <Gold.Chemscore.Metal.Weighted>
-0.0000

> <Gold.Chemscore.Lipo.Weighted>
-7.2801

> <Gold.Chemscore.Internal_Hbond.Weighted>
0.0000

> <Gold.Chemscore.DEClash.Weighted>
0.3754

> <Gold.Chemscore.DEInternal.Weighted>
1.9318

> <Gold.Chemscore.Rot.Weighted>
9.3087

> <Gold.Chemscore.Internal.Correction.Weighted>
   9.000000E+99

> <Gold.Protein.RotatedTorsions>
[ 6907 6896 6895 6894 ] final  -72.54 input  -60.11 | X-H torsion
[ 7974 7965 7964 7962 ] final -118.65 input  175.53 | X-H torsion
[ 8008 7997 7996 7995 ] final   -6.49 input   59.86 | X-H torsion
[ 10167 10162 10161 10158 ] final  149.45 input  -65.29 | X-H torsion
[ 10718 10713 10712 10709 ] final  -79.72 input   66.30 | X-H torsion
[ 10763 10752 10751 10750 ] final  -96.52 input  -60.55 | X-H torsion
[ 11005 11000 10999 10996 ] final -107.09 input  -57.11 | X-H torsion

> <Gold.Protein.ActiveResidues>
 VAL166  LYS551  ARG553  GLY616  TRP617  ASP618  TYR619  PRO620  LYS621  CYS622 
 ASP623  PHE694  ASN695  SER759  ASP760  ASP761  ALA762  ILE779  LEU786  VAL792 
 PHE793  MET794  SER795  GLU796  ALA797  LYS798  CYS799  TRP800  GLU811  SER814 

> <Gold.Protein.RotatedAtoms>
  150.7166  134.5148  159.5624 H   0  0  0  0  0  0  0  0  0  0  0  0  # atno 6907 bound_to 6896
  152.2717  134.7923  160.0422 H   0  0  0  0  0  0  0  0  0  0  0  0  # atno 6908 bound_to 6896
  151.8601  133.3420  159.3738 H   0  0  0  0  0  0  0  0  0  0  0  0  # atno 6909 bound_to 6896
  145.0714  140.8362  143.4093 H   0  0  0  0  0  0  0  0  0  0  0  0  # atno 7974 bound_to 7965
  154.5933  140.2431  155.7891 H   0  0  0  0  0  0  0  0  0  0  0  0  # atno 8008 bound_to 7997
  156.2262  140.2982  156.0026 H   0  0  0  0  0  0  0  0  0  0  0  0  # atno 8009 bound_to 7997
  155.2337  140.0404  157.2956 H   0  0  0  0  0  0  0  0  0  0  0  0  # atno 8010 bound_to 7997
  139.4861  144.5600  151.7248 H   0  0  0  0  0  0  0  0  0  0  0  0  # atno 10167 bound_to 10162
  156.0086  130.4554  150.3692 H   0  0  0  0  0  0  0  0  0  0  0  0  # atno 10718 bound_to 10713
  154.7247  135.5080  153.8867 H   0  0  0  0  0  0  0  0  0  0  0  0  # atno 10763 bound_to 10752
  153.0894  135.6655  153.9893 H   0  0  0  0  0  0  0  0  0  0  0  0  # atno 10764 bound_to 10752
  153.9708  135.3038  155.3407 H   0  0  0  0  0  0  0  0  0  0  0  0  # atno 10765 bound_to 10752
  141.0972  133.8950  157.1934 H   0  0  0  0  0  0  0  0  0  0  0  0  # atno 11005 bound_to 11000
  145.1288  139.2645  143.5550 LP  0  0  0  0  0  0  0  0  0  0  0  0  # atno 17320 bound_to 7965
  146.3529  140.0933  142.8611 LP  0  0  0  0  0  0  0  0  0  0  0  0  # atno 17321 bound_to 7965
  140.5168  144.0940  150.6011 LP  0  0  0  0  0  0  0  0  0  0  0  0  # atno 17342 bound_to 10162
  140.3884  143.2765  152.0089 LP  0  0  0  0  0  0  0  0  0  0  0  0  # atno 17343 bound_to 10162
  157.1777  131.0384  151.2764 LP  0  0  0  0  0  0  0  0  0  0  0  0  # atno 17370 bound_to 10713
  157.4173  130.7418  149.6886 LP  0  0  0  0  0  0  0  0  0  0  0  0  # atno 17371 bound_to 10713
  139.9812  135.0097  156.9753 LP  0  0  0  0  0  0  0  0  0  0  0  0  # atno 17394 bound_to 11000
  140.5111  134.1001  155.7270 LP  0  0  0  0  0  0  0  0  0  0  0  0  # atno 17395 bound_to 11000

$$$$
