AV-unprocessed.smi:2775|AV-procd|sdf|10688|dock9
  -GOLD-   2272015133D 1   1.00000     0.00000
 Structure written by MMmdl.
 42 45  0  0  0  0  0  0  0  0  1 V2000
  144.3550  132.2352  151.2348 C   0  0  0  0  0  0  0  0  0  0  0  0
  144.3123  133.6115  151.8719 C   0  0  0  0  0  0  0  0  0  0  0  0
  143.0788  134.1232  152.0752 N   0  0  0  0  0  0  0  0  0  0  0  0
  142.9835  135.3460  152.6358 C   0  0  0  0  0  0  0  0  0  0  0  0
  144.1004  136.1084  153.0265 C   0  0  0  0  0  0  0  0  0  0  0  0
  145.3940  135.5679  152.8311 C   0  0  0  0  0  0  0  0  0  0  0  0
  146.5915  136.2528  153.1771 N   0  0  0  0  0  0  0  0  0  0  0  0
  146.7942  137.1800  154.1336 C   0  0  0  0  0  0  0  0  0  0  0  0
  145.9198  137.6493  154.8584 O   0  0  0  0  0  0  0  0  0  0  0  0
  148.0773  137.5598  154.2569 N   0  0  0  0  0  0  0  0  0  0  0  0
  148.6277  138.5450  155.1982 C   0  0  2  0  0  0  0  0  0  0  0  0
  148.0842  139.9680  155.0064 C   0  0  2  0  0  0  0  0  0  0  0  0
  146.8501  140.5626  154.4306 C   0  0  0  0  0  0  0  0  0  0  0  0
  147.5262  141.7725  153.7373 C   0  0  0  0  0  0  0  0  0  0  0  0
  148.9540  141.5422  153.8436 O   0  0  0  0  0  0  0  0  0  0  0  0
  149.0862  140.1328  153.8752 C   0  0  1  0  0  0  0  0  0  0  0  0
  149.9680  139.1963  154.7183 C   0  0  0  0  0  0  0  0  0  0  0  0
  150.9995  139.7488  155.7158 C   0  0  0  0  0  0  0  0  0  0  0  0
  151.8783  138.5345  155.4009 C   0  0  0  0  0  0  0  0  0  0  0  0
  151.0959  138.3624  154.0948 C   0  0  0  0  0  0  0  0  0  0  0  0
  145.4999  134.2948  152.2235 C   0  0  0  0  0  0  0  0  0  0  0  0
  147.0500  133.5831  151.9212 Cl  0  0  0  0  0  0  0  0  0  0  0  0
  144.8545  131.5274  151.8968 H   0  0  0  0  0  0  0  0  0  0  0  0
  144.9002  132.2695  150.2913 H   0  0  0  0  0  0  0  0  0  0  0  0
  143.3526  131.8558  151.0319 H   0  0  0  0  0  0  0  0  0  0  0  0
  141.9843  135.7324  152.7733 H   0  0  0  0  0  0  0  0  0  0  0  0
  143.9419  137.0865  153.4530 H   0  0  0  0  0  0  0  0  0  0  0  0
  147.4226  135.9233  152.7078 H   0  0  0  0  0  0  0  0  0  0  0  0
  148.7426  137.1206  153.6370 H   0  0  0  0  0  0  0  0  0  0  0  0
  148.6564  138.2115  156.2365 H   0  0  0  0  0  0  0  0  0  0  0  0
  148.3717  140.5470  155.8918 H   0  0  0  0  0  0  0  0  0  0  0  0
  146.3651  139.8997  153.7131 H   0  0  0  0  0  0  0  0  0  0  0  0
  146.1281  140.8634  155.1895 H   0  0  0  0  0  0  0  0  0  0  0  0
  147.2278  141.8352  152.6902 H   0  0  0  0  0  0  0  0  0  0  0  0
  147.2699  142.7158  154.2203 H   0  0  0  0  0  0  0  0  0  0  0  0
  148.7724  139.6806  152.9297 H   0  0  0  0  0  0  0  0  0  0  0  0
  151.4440  140.6884  155.3841 H   0  0  0  0  0  0  0  0  0  0  0  0
  150.6578  139.8061  156.7497 H   0  0  0  0  0  0  0  0  0  0  0  0
  152.9376  138.7586  155.2720 H   0  0  0  0  0  0  0  0  0  0  0  0
  151.7203  137.7098  156.0976 H   0  0  0  0  0  0  0  0  0  0  0  0
  150.8364  137.3308  153.8566 H   0  0  0  0  0  0  0  0  0  0  0  0
  151.5713  138.8638  153.2505 H   0  0  0  0  0  0  0  0  0  0  0  0
  1  2  1  0  0  0  0
  1 23  1  0  0  0  0
  1 24  1  0  0  0  0
  1 25  1  0  0  0  0
  2 21  1  0  0  0  0
  2  3  2  0  0  0  0
  3  4  1  0  0  0  0
  4  5  2  0  0  0  0
  4 26  1  0  0  0  0
  5  6  1  0  0  0  0
  5 27  1  0  0  0  0
  6  7  1  0  0  0  0
  6 21  2  0  0  0  0
  7  8  1  0  0  0  0
  7 28  1  0  0  0  0
  8  9  2  0  0  0  0
  8 10  1  0  0  0  0
 10 11  1  0  0  0  0
 10 29  1  0  0  0  0
 11 17  1  0  0  0  0
 11 12  1  0  0  0  0
 11 30  1  0  0  0  0
 12 16  1  0  0  0  0
 12 13  1  0  0  0  0
 12 31  1  0  0  0  0
 13 14  1  0  0  0  0
 13 32  1  0  0  0  0
 13 33  1  0  0  0  0
 14 15  1  0  0  0  0
 14 34  1  0  0  0  0
 14 35  1  0  0  0  0
 15 16  1  0  0  0  0
 16 17  1  0  0  0  0
 16 36  1  0  0  0  0
 17 20  1  0  0  0  0
 17 18  1  0  0  0  0
 18 19  1  0  0  0  0
 18 37  1  0  0  0  0
 18 38  1  0  0  0  0
 19 20  1  0  0  0  0
 19 39  1  0  0  0  0
 19 40  1  0  0  0  0
 20 41  1  0  0  0  0
 20 42  1  0  0  0  0
 21 22  1  0  0  0  0
M  END
> <s_m_source_file>
AV-unprocessed.smi

> <i_m_source_file_index>
2775

> <i_lp_mmshare_version>
43012

> <i_f3d_flags>
0

> <s_epik_input>
W0NIM11jMW5bY0hdW2NIXWMoYzFDbClbTkhdQyg9TylbTkhdW0NAQEhdMltDQEhdKFtDSDJdW0NIMl1PMylbQ0BASF0zQzI0W0NIMl1bQ0gyXVtDSDJdNA==

> <s_epik_cmdline>
J2VwaWtfcHl0aG9uJywgJy1waCcsICc3LjAnLCAnLXRuJywgJzgnLCAnLW1hJywgJzIwMCcsICctbWV0YWxfYmluZGluZycsICctaW1hZScsICc8aW5maWxlLm1hZT4nLCAnLW9tYWUnLCAnPG91dGZpbGUubWFlPic=

> <r_epik_Ionization_Penalty>
0.01026

> <r_epik_Ionization_Penalty_Charging>
0

> <r_epik_Ionization_Penalty_Neutral>
0.01026

> <r_epik_State_Penalty>
0.00780685

> <r_epik_Charging_Adjusted_Penalty>
0.00780685

> <i_epik_Tot_Q>
0

> <i_epik_Tot_abs_Q>
0

> <r_epik_Metal_State_Penalty>
0.00767411

> <b_epik_Metal_Only>
0

> <s_lp_Force_Field>
OPLS_2005

> <r_lp_Energy>
81.865

> <b_lp_Chiralities_Consistent>
1

> <s_lp_Variant>
AV-unprocessed.smi:2775-1

> <Gold.Version>
5.8.1

> <Gold.Id.Protein>
6NUR|6NUR_protein|mol2

> <Gold.PLP.Fitness>
40.3246

> <Gold.PLP.PLP>
-32.8234

> <Gold.PLP.part.hbond>
-3.3612

> <Gold.PLP.part.metal>
0.0000

> <Gold.PLP.part.buried>
-3.8397

> <Gold.PLP.part.nonpolar>
-25.6913

> <Gold.PLP.part.repulsive>
0.4601

> <Gold.PLP.ligand.clash>
0.0000

> <Gold.PLP.ligand.torsion>
0.3315

> <Gold.PLP.Chemscore.Hbond>
2.6160

> <Gold.PLP.Chemscore.CHOScore>
0.0000

> <Gold.PLP.Chemscore.Metal>
0.0000

> <Gold.Chemscore.Hbonds>
donor molecule, donor type, donor heavy atom, donor atom, acceptor molecule, acceptor atom, score
      L1  H     7    28       P1  7948  1.00
      L1  H    10    29       P1  7948  0.90
      P1  H  8011  8017       L1    15  0.70

> <Gold.PLP.Chemscore.Internal.Correction>
0.3163

> <Gold.Rescore>
     Score         DG    S(hbond)    S(metal)    S(lipo)     H(rot)  DE(clash)    DE(int)     intcor
     19.23     -21.38       2.41        0.00      89.01       1.00       1.69       0.46       ----

> <Gold.Chemscore.Fitness>
19.2301

> <Gold.Chemscore.DG>
-21.3799

> <Gold.Chemscore.ZeroCoef>
-5.4800

> <Gold.Chemscore.Hbond>
2.4089

> <Gold.Chemscore.Metal>
0.0000

> <Gold.Chemscore.Lipo>
89.0104

> <Gold.Chemscore.Internal_Hbond>
0.0000

> <Gold.Chemscore.DEClash>
1.6924

> <Gold.Chemscore.DEInternal>
0.4574

> <Gold.Chemscore.Rot>
1.0000

> <Gold.Chemscore.Internal.Correction>
   9.000000E+99

> <Gold.Chemscore.Hbonds>
donor molecule, donor type, donor heavy atom, donor atom, acceptor molecule, acceptor atom, score
      L1  H     7    28       P1  7948  0.96
      L1  H    10    29       P1  7948  0.86
      P1  H  8011  8017       L1    15  0.39

> <Gold.Chemscore.Hbond.Weighted>
-8.0457

> <Gold.Chemscore.Metal.Weighted>
-0.0000

> <Gold.Chemscore.Lipo.Weighted>
-10.4142

> <Gold.Chemscore.Internal_Hbond.Weighted>
0.0000

> <Gold.Chemscore.DEClash.Weighted>
1.6924

> <Gold.Chemscore.DEInternal.Weighted>
0.4574

> <Gold.Chemscore.Rot.Weighted>
2.5600

> <Gold.Chemscore.Internal.Correction.Weighted>
   9.000000E+99

> <Gold.Protein.RotatedTorsions>
[ 6907 6896 6895 6894 ] final   39.01 input  -60.11 | X-H torsion
[ 7974 7965 7964 7962 ] final  114.61 input  175.53 | X-H torsion
[ 8008 7997 7996 7995 ] final  -32.13 input   59.86 | X-H torsion
[ 10167 10162 10161 10158 ] final  -55.33 input  -65.29 | X-H torsion
[ 10718 10713 10712 10709 ] final  176.85 input   66.30 | X-H torsion
[ 10763 10752 10751 10750 ] final  -65.26 input  -60.55 | X-H torsion
[ 11005 11000 10999 10996 ] final  -26.69 input  -57.11 | X-H torsion

> <Gold.Protein.ActiveResidues>
 VAL166  LYS551  ARG553  GLY616  TRP617  ASP618  TYR619  PRO620  LYS621  CYS622 
 ASP623  PHE694  ASN695  SER759  ASP760  ASP761  ALA762  ILE779  LEU786  VAL792 
 PHE793  MET794  SER795  GLU796  ALA797  LYS798  CYS799  TRP800  GLU811  SER814 

> <Gold.Protein.RotatedAtoms>
  152.1639  134.8889  160.0539 H   0  0  0  0  0  0  0  0  0  0  0  0  # atno 6907 bound_to 6896
  151.9875  133.3774  159.4139 H   0  0  0  0  0  0  0  0  0  0  0  0  # atno 6908 bound_to 6896
  150.6892  134.3895  159.5114 H   0  0  0  0  0  0  0  0  0  0  0  0  # atno 6909 bound_to 6896
  145.2023  139.2946  143.4312 H   0  0  0  0  0  0  0  0  0  0  0  0  # atno 7974 bound_to 7965
  154.4190  140.1745  156.1678 H   0  0  0  0  0  0  0  0  0  0  0  0  # atno 8008 bound_to 7997
  155.9785  140.3379  155.6617 H   0  0  0  0  0  0  0  0  0  0  0  0  # atno 8009 bound_to 7997
  155.6532  140.0692  157.2570 H   0  0  0  0  0  0  0  0  0  0  0  0  # atno 8010 bound_to 7997
  140.6380  143.2492  151.5065 H   0  0  0  0  0  0  0  0  0  0  0  0  # atno 10167 bound_to 10162
  156.9141  130.9919  151.3016 H   0  0  0  0  0  0  0  0  0  0  0  0  # atno 10718 bound_to 10713
  154.3424  135.6154  153.5603 H   0  0  0  0  0  0  0  0  0  0  0  0  # atno 10763 bound_to 10752
  152.9803  135.5772  154.4838 H   0  0  0  0  0  0  0  0  0  0  0  0  # atno 10764 bound_to 10752
  154.4544  135.2854  155.1735 H   0  0  0  0  0  0  0  0  0  0  0  0  # atno 10765 bound_to 10752
  140.9052  133.7498  156.0596 H   0  0  0  0  0  0  0  0  0  0  0  0  # atno 11005 bound_to 11000
  146.3415  140.2271  142.8592 LP  0  0  0  0  0  0  0  0  0  0  0  0  # atno 17320 bound_to 7965
  144.9936  140.8569  143.5324 LP  0  0  0  0  0  0  0  0  0  0  0  0  # atno 17321 bound_to 7965
  139.5590  144.2203  152.1660 LP  0  0  0  0  0  0  0  0  0  0  0  0  # atno 17342 bound_to 10162
  140.1466  144.5153  150.6712 LP  0  0  0  0  0  0  0  0  0  0  0  0  # atno 17343 bound_to 10162
  157.5949  130.8470  149.8714 LP  0  0  0  0  0  0  0  0  0  0  0  0  # atno 17370 bound_to 10713
  156.0522  130.3715  150.1174 LP  0  0  0  0  0  0  0  0  0  0  0  0  # atno 17371 bound_to 10713
  140.8180  134.3322  157.5391 LP  0  0  0  0  0  0  0  0  0  0  0  0  # atno 17394 bound_to 11000
  139.8748  134.9293  156.3472 LP  0  0  0  0  0  0  0  0  0  0  0  0  # atno 17395 bound_to 11000

$$$$
