AV-unprocessed.smi:109|AV-procd|sdf|1049|dock5
  -GOLD-   2262018 93D 1   1.00000     0.00000
 Structure written by MMmdl.
 58 61  0  0  0  0  0  0  0  0  1 V2000
  151.7469  138.7718  155.3193 O   0  0  0  0  0  0  0  0  0  0  0  0
  151.4693  138.4275  156.6594 C   0  0  0  0  0  0  0  0  0  0  0  0
  152.0731  139.4802  157.6047 C   0  0  0  0  0  0  0  0  0  0  0  0
  151.4451  140.8858  157.4526 C   0  0  2  0  0  0  0  0  0  0  0  0
  151.2191  141.1561  156.0308 N   0  0  0  0  0  0  0  0  0  0  0  0
  149.9870  141.3755  155.5193 C   0  0  0  0  0  0  0  0  0  0  0  0
  149.7182  141.1841  154.2026 N   0  0  0  0  0  0  0  0  0  0  0  0
  148.4877  141.4043  153.7342 C   0  0  0  0  0  0  0  0  0  0  0  0
  147.4039  141.8073  154.3991 N   0  0  0  0  0  0  0  0  0  0  0  0
  147.6614  142.0080  155.7249 C   0  0  0  0  0  0  0  0  0  0  0  0
  148.9260  141.8164  156.3520 C   0  0  0  0  0  0  0  0  0  0  0  0
  148.8351  142.1191  157.7021 N   0  0  0  0  0  0  0  0  0  0  0  0
  147.5884  142.4691  157.8609 C   0  0  0  0  0  0  0  0  0  0  0  0
  146.7992  142.4136  156.7321 N   0  0  0  0  0  0  0  0  0  0  0  0
  145.3391  142.7753  156.6639 C   0  0  1  0  0  0  0  0  0  0  0  0
  145.1776  144.0731  157.1392 O   0  0  0  0  0  0  0  0  0  0  0  0
  145.1791  144.9906  156.0548 C   0  0  2  0  0  0  0  0  0  0  0  0
  144.4210  146.2664  156.4544 C   0  0  0  0  0  0  0  0  0  0  0  0
  144.4622  147.2086  155.4043 O   0  0  0  0  0  0  0  0  0  0  0  0
  144.4885  144.2077  154.9253 C   0  0  1  0  0  0  0  0  0  0  0  0
  145.0481  144.5628  153.6768 O   0  0  0  0  0  0  0  0  0  0  0  0
  144.7591  142.7325  155.2404 C   0  0  2  0  0  0  0  0  0  0  0  0
  143.5530  141.9964  155.2059 O   0  0  0  0  0  0  0  0  0  0  0  0
  152.3011  142.0298  158.0678 C   0  0  0  0  0  0  0  0  0  0  0  0
  152.4589  141.9156  159.6049 C   0  0  0  0  0  0  0  0  0  0  0  0
  153.2667  143.0794  160.2020 C   0  0  0  0  0  0  0  0  0  0  0  0
  152.6487  144.4349  159.8396 C   0  0  0  0  0  0  0  0  0  0  0  0
  152.5166  144.5770  158.3189 C   0  0  0  0  0  0  0  0  0  0  0  0
  151.7029  143.4181  157.7224 C   0  0  0  0  0  0  0  0  0  0  0  0
  144.8656  142.0648  157.3431 H   0  0  0  0  0  0  0  0  0  0  0  0
  146.2086  145.2284  155.7866 H   0  0  0  0  0  0  0  0  0  0  0  0
  143.4168  144.4144  154.9201 H   0  0  0  0  0  0  0  0  0  0  0  0
  145.4602  142.2608  154.5518 H   0  0  0  0  0  0  0  0  0  0  0  0
  151.8435  137.9760  154.8186 H   0  0  0  0  0  0  0  0  0  0  0  0
  150.3883  138.3573  156.7822 H   0  0  0  0  0  0  0  0  0  0  0  0
  151.8865  137.4415  156.8665 H   0  0  0  0  0  0  0  0  0  0  0  0
  151.9252  139.1141  158.6193 H   0  0  0  0  0  0  0  0  0  0  0  0
  153.1518  139.5400  157.4519 H   0  0  0  0  0  0  0  0  0  0  0  0
  150.5052  140.8751  158.0035 H   0  0  0  0  0  0  0  0  0  0  0  0
  152.0495  141.1609  155.4562 H   0  0  0  0  0  0  0  0  0  0  0  0
  148.3513  141.2305  152.6771 H   0  0  0  0  0  0  0  0  0  0  0  0
  147.2035  142.7755  158.8228 H   0  0  0  0  0  0  0  0  0  0  0  0
  143.3721  146.0338  156.6410 H   0  0  0  0  0  0  0  0  0  0  0  0
  144.8249  146.6992  157.3703 H   0  0  0  0  0  0  0  0  0  0  0  0
  145.2873  147.6677  155.4445 H   0  0  0  0  0  0  0  0  0  0  0  0
  144.5495  144.1365  152.9952 H   0  0  0  0  0  0  0  0  0  0  0  0
  143.5322  141.4923  154.4068 H   0  0  0  0  0  0  0  0  0  0  0  0
  153.2995  141.9764  157.6302 H   0  0  0  0  0  0  0  0  0  0  0  0
  151.4750  141.8758  160.0740 H   0  0  0  0  0  0  0  0  0  0  0  0
  152.9710  140.9932  159.8746 H   0  0  0  0  0  0  0  0  0  0  0  0
  153.3209  142.9752  161.2861 H   0  0  0  0  0  0  0  0  0  0  0  0
  154.2935  143.0367  159.8367 H   0  0  0  0  0  0  0  0  0  0  0  0
  151.6665  144.5276  160.3049 H   0  0  0  0  0  0  0  0  0  0  0  0
  153.2603  145.2441  160.2395 H   0  0  0  0  0  0  0  0  0  0  0  0
  152.0414  145.5277  158.0756 H   0  0  0  0  0  0  0  0  0  0  0  0
  153.5078  144.6008  157.8643 H   0  0  0  0  0  0  0  0  0  0  0  0
  151.6504  143.5588  156.6426 H   0  0  0  0  0  0  0  0  0  0  0  0
  150.6759  143.4739  158.0859 H   0  0  0  0  0  0  0  0  0  0  0  0
  1  2  1  0  0  0  0
  1 34  1  0  0  0  0
  2  3  1  0  0  0  0
  2 35  1  0  0  0  0
  2 36  1  0  0  0  0
  3  4  1  0  0  0  0
  3 37  1  0  0  0  0
  3 38  1  0  0  0  0
  4  5  1  0  0  0  0
  4 24  1  0  0  0  0
  4 39  1  0  0  0  0
  5  6  1  0  0  0  0
  5 40  1  0  0  0  0
  6 11  1  0  0  0  0
  6  7  2  0  0  0  0
  7  8  1  0  0  0  0
  8  9  2  0  0  0  0
  8 41  1  0  0  0  0
  9 10  1  0  0  0  0
 10 14  1  0  0  0  0
 10 11  2  0  0  0  0
 11 12  1  0  0  0  0
 12 13  2  0  0  0  0
 13 14  1  0  0  0  0
 13 42  1  0  0  0  0
 14 15  1  0  0  0  0
 15 30  1  0  0  0  0
 15 22  1  0  0  0  0
 15 16  1  0  0  0  0
 16 17  1  0  0  0  0
 17 31  1  0  0  0  0
 17 18  1  0  0  0  0
 17 20  1  0  0  0  0
 18 19  1  0  0  0  0
 18 43  1  0  0  0  0
 18 44  1  0  0  0  0
 19 45  1  0  0  0  0
 20 32  1  0  0  0  0
 20 21  1  0  0  0  0
 20 22  1  0  0  0  0
 21 46  1  0  0  0  0
 22 33  1  0  0  0  0
 22 23  1  0  0  0  0
 23 47  1  0  0  0  0
 24 29  1  0  0  0  0
 24 25  1  0  0  0  0
 24 48  1  0  0  0  0
 25 26  1  0  0  0  0
 25 49  1  0  0  0  0
 25 50  1  0  0  0  0
 26 27  1  0  0  0  0
 26 51  1  0  0  0  0
 26 52  1  0  0  0  0
 27 28  1  0  0  0  0
 27 53  1  0  0  0  0
 27 54  1  0  0  0  0
 28 29  1  0  0  0  0
 28 55  1  0  0  0  0
 28 56  1  0  0  0  0
 29 57  1  0  0  0  0
 29 58  1  0  0  0  0
M  END
> <s_m_source_file>
AV-unprocessed.smi

> <i_m_source_file_index>
109

> <i_lp_mmshare_version>
43012

> <i_f3d_flags>
0

> <s_epik_input>
W0NIMl0xW0NIMl1bQ0gyXVtDSDJdW0NIMl1bQ0hdMVtDQEhdKFtDSDJdW0NIMl1bT0hdKVtOSF1jKG5bY0hdbjIpYyhjMjMpbltjSF1uM1tDQEBIXTRPW0NASF0oW0NIMl1bT0hdKVtDQEBIXShbT0hdKVtDQEhdNFtPSF0=

> <s_epik_cmdline>
J2VwaWtfcHl0aG9uJywgJy1waCcsICc3LjAnLCAnLXRuJywgJzgnLCAnLW1hJywgJzIwMCcsICctbWV0YWxfYmluZGluZycsICctaW1hZScsICc8aW5maWxlLm1hZT4nLCAnLW9tYWUnLCAnPG91dGZpbGUubWFlPic=

> <r_lp_tautomer_probability>
1

> <r_epik_Ionization_Penalty>
0.000793976

> <r_epik_Ionization_Penalty_Charging>
0

> <r_epik_Ionization_Penalty_Neutral>
0.000793976

> <r_epik_State_Penalty>
-0

> <r_epik_Charging_Adjusted_Penalty>
0

> <i_epik_Tot_Q>
0

> <i_epik_Tot_abs_Q>
0

> <r_epik_Metal_State_Penalty>
-0

> <b_epik_Metal_Only>
0

> <s_epik_Chemistry_Notes>
This compound contains an acetal/aminal-like group ( X-CH(R)-Y where X, Y are N, S, or O) that may be acid/base labile, releasing an aldehyde.

> <s_lp_Force_Field>
OPLS_2005

> <r_lp_Energy>
48.8451

> <b_lp_Chiralities_Consistent>
1

> <s_lp_Variant>
AV-unprocessed.smi:109-19

> <Gold.Version>
5.8.1

> <Gold.Id.Protein>
6NUR|6NUR_protein|mol2

> <Gold.PLP.Fitness>
54.9009

> <Gold.PLP.PLP>
-45.7794

> <Gold.PLP.part.hbond>
-4.2336

> <Gold.PLP.part.metal>
0.0000

> <Gold.PLP.part.buried>
-7.6913

> <Gold.PLP.part.nonpolar>
-35.1092

> <Gold.PLP.part.repulsive>
0.6531

> <Gold.PLP.ligand.clash>
0.0000

> <Gold.PLP.ligand.torsion>
0.3852

> <Gold.PLP.Chemscore.Hbond>
2.2024

> <Gold.PLP.Chemscore.CHOScore>
1.0000

> <Gold.PLP.Chemscore.Metal>
0.0000

> <Gold.Chemscore.Hbonds>
donor molecule, donor type, donor heavy atom, donor atom, acceptor molecule, acceptor atom, score
      L1  H    23    47       P1 10175  0.71
      P1  H  7989  7998       L1     7  0.41
      L1  C     8    41       P1  7957  1.00

> <Gold.PLP.Chemscore.Internal.Correction>
0.2847

> <Gold.Rescore>
     Score         DG    S(hbond)    S(metal)    S(lipo)     H(rot)  DE(clash)    DE(int)     intcor
      6.44      -9.96       1.98        0.00     101.29       5.47       0.47       3.05       ----

> <Gold.Chemscore.Fitness>
6.4366

> <Gold.Chemscore.DG>
-9.9649

> <Gold.Chemscore.ZeroCoef>
-5.4800

> <Gold.Chemscore.Hbond>
1.9843

> <Gold.Chemscore.Metal>
0.0000

> <Gold.Chemscore.Lipo>
101.2882

> <Gold.Chemscore.Internal_Hbond>
0.0000

> <Gold.Chemscore.DEClash>
0.4738

> <Gold.Chemscore.DEInternal>
3.0545

> <Gold.Chemscore.Rot>
5.4662

> <Gold.Chemscore.Internal.Correction>
   9.000000E+99

> <Gold.Chemscore.Hbonds>
donor molecule, donor type, donor heavy atom, donor atom, acceptor molecule, acceptor atom, score
      L1  H    23    47       P1 10175  0.16
      P1  H  7989  7998       L1     7  0.12

> <Gold.Chemscore.Hbond.Weighted>
-6.6277

> <Gold.Chemscore.Metal.Weighted>
-0.0000

> <Gold.Chemscore.Lipo.Weighted>
-11.8507

> <Gold.Chemscore.Internal_Hbond.Weighted>
0.0000

> <Gold.Chemscore.DEClash.Weighted>
0.4738

> <Gold.Chemscore.DEInternal.Weighted>
3.0545

> <Gold.Chemscore.Rot.Weighted>
13.9935

> <Gold.Chemscore.Internal.Correction.Weighted>
   9.000000E+99

> <Gold.Protein.RotatedTorsions>
[ 6907 6896 6895 6894 ] final  121.15 input  -60.11 | X-H torsion
[ 7974 7965 7964 7962 ] final  -58.86 input  175.53 | X-H torsion
[ 8008 7997 7996 7995 ] final   71.29 input   59.86 | X-H torsion
[ 10167 10162 10161 10158 ] final   60.51 input  -65.29 | X-H torsion
[ 10718 10713 10712 10709 ] final   74.61 input   66.30 | X-H torsion
[ 10763 10752 10751 10750 ] final  104.70 input  -60.55 | X-H torsion
[ 11005 11000 10999 10996 ] final -164.08 input  -57.11 | X-H torsion

> <Gold.Protein.ActiveResidues>
 VAL166  LYS551  ARG553  GLY616  TRP617  ASP618  TYR619  PRO620  LYS621  CYS622 
 ASP623  PHE694  ASN695  SER759  ASP760  ASP761  ALA762  ILE779  LEU786  VAL792 
 PHE793  MET794  SER795  GLU796  ALA797  LYS798  CYS799  TRP800  GLU811  SER814 

> <Gold.Protein.RotatedAtoms>
  152.4343  133.7333  159.6599 H   0  0  0  0  0  0  0  0  0  0  0  0  # atno 6907 bound_to 6896
  150.8225  133.8217  159.3138 H   0  0  0  0  0  0  0  0  0  0  0  0  # atno 6908 bound_to 6896
  151.5895  135.1056  160.0087 H   0  0  0  0  0  0  0  0  0  0  0  0  # atno 6909 bound_to 6896
  145.8343  140.8459  143.0067 H   0  0  0  0  0  0  0  0  0  0  0  0  # atno 7974 bound_to 7965
  155.7517  140.3488  155.5154 H   0  0  0  0  0  0  0  0  0  0  0  0  # atno 8008 bound_to 7997
  155.8998  140.1032  157.1379 H   0  0  0  0  0  0  0  0  0  0  0  0  # atno 8009 bound_to 7997
  154.4042  140.1288  156.4408 H   0  0  0  0  0  0  0  0  0  0  0  0  # atno 8010 bound_to 7997
  140.1648  144.4335  150.6691 H   0  0  0  0  0  0  0  0  0  0  0  0  # atno 10167 bound_to 10162
  157.6599  130.9686  150.1236 H   0  0  0  0  0  0  0  0  0  0  0  0  # atno 10718 bound_to 10713
  153.3695  135.3934  155.1778 H   0  0  0  0  0  0  0  0  0  0  0  0  # atno 10763 bound_to 10752
  154.8692  135.3699  154.4996 H   0  0  0  0  0  0  0  0  0  0  0  0  # atno 10764 bound_to 10752
  153.5463  135.7083  153.5673 H   0  0  0  0  0  0  0  0  0  0  0  0  # atno 10765 bound_to 10752
  140.5909  134.5045  157.5192 H   0  0  0  0  0  0  0  0  0  0  0  0  # atno 11005 bound_to 11000
  144.6737  140.0718  143.7472 LP  0  0  0  0  0  0  0  0  0  0  0  0  # atno 17320 bound_to 7965
  145.9536  139.2751  143.1197 LP  0  0  0  0  0  0  0  0  0  0  0  0  # atno 17321 bound_to 7965
  140.6620  143.2255  151.5834 LP  0  0  0  0  0  0  0  0  0  0  0  0  # atno 17342 bound_to 10162
  139.5364  144.2768  152.1261 LP  0  0  0  0  0  0  0  0  0  0  0  0  # atno 17343 bound_to 10162
  156.2101  130.3666  149.8681 LP  0  0  0  0  0  0  0  0  0  0  0  0  # atno 17370 bound_to 10713
  156.6562  130.8763  151.3540 LP  0  0  0  0  0  0  0  0  0  0  0  0  # atno 17371 bound_to 10713
  139.9274  134.8028  156.1027 LP  0  0  0  0  0  0  0  0  0  0  0  0  # atno 17394 bound_to 11000
  141.0935  133.6705  156.2594 LP  0  0  0  0  0  0  0  0  0  0  0  0  # atno 17395 bound_to 11000

$$$$
