AV-unprocessed.smi:750|AV-procd|sdf|3593|dock7
  -GOLD-   22720 0583D 1   1.00000     0.00000
 Structure written by MMmdl.
 22 23  0  0  0  0  0  0  0  0  2 V2000
  147.9498  138.9695  154.3507 C   0  0  0  0  0  0  0  0  0  0  0  0
  148.9406  139.7882  155.2066 C   0  0  2  0  0  0  0  0  0  0  0  0
  150.3919  139.3078  155.0137 C   0  0  0  0  0  0  0  0  0  0  0  0
  150.7262  138.1924  154.2060 C   0  0  0  0  0  0  0  0  0  0  0  0
  152.0753  137.8100  154.0786 C   0  0  0  0  0  0  0  0  0  0  0  0
  153.0518  138.5571  154.7628 C   0  0  0  0  0  0  0  0  0  0  0  0
  152.7590  139.6217  155.5367 N   0  0  0  0  0  0  0  0  0  0  0  0
  151.4622  139.9798  155.6536 C   0  0  0  0  0  0  0  0  0  0  0  0
  148.4860  139.7702  156.5924 N   0  5  0  0  0  0  0  0  0  0  0  0
  148.2232  141.0378  156.9883 C   0  0  0  0  0  0  0  0  0  0  0  0
  147.8357  141.4171  158.0910 O   0  0  0  0  0  0  0  0  0  0  0  0
  148.4398  141.8964  155.9885 N   0  0  0  0  0  0  0  0  0  0  0  0
  148.8426  141.2755  154.8844 C   0  0  0  0  0  0  0  0  0  0  0  0
  149.0888  141.7908  153.7940 O   0  0  0  0  0  0  0  0  0  0  0  0
  148.1641  139.0470  153.2848 H   0  0  0  0  0  0  0  0  0  0  0  0
  146.9215  139.3062  154.4927 H   0  0  0  0  0  0  0  0  0  0  0  0
  147.9854  137.9123  154.6158 H   0  0  0  0  0  0  0  0  0  0  0  0
  149.9730  137.6223  153.6832 H   0  0  0  0  0  0  0  0  0  0  0  0
  152.3535  136.9627  153.4700 H   0  0  0  0  0  0  0  0  0  0  0  0
  154.0959  138.2916  154.6870 H   0  0  0  0  0  0  0  0  0  0  0  0
  151.2772  140.8330  156.2887 H   0  0  0  0  0  0  0  0  0  0  0  0
  148.2974  142.8928  156.0586 H   0  0  0  0  0  0  0  0  0  0  0  0
  1  2  1  0  0  0  0
  1 15  1  0  0  0  0
  1 16  1  0  0  0  0
  1 17  1  0  0  0  0
  2 13  1  0  0  0  0
  2  3  1  0  0  0  0
  2  9  1  0  0  0  0
  3  8  1  0  0  0  0
  3  4  2  0  0  0  0
  4  5  1  0  0  0  0
  4 18  1  0  0  0  0
  5  6  2  0  0  0  0
  5 19  1  0  0  0  0
  6  7  1  0  0  0  0
  6 20  1  0  0  0  0
  7  8  2  0  0  0  0
  8 21  1  0  0  0  0
  9 10  1  0  0  0  0
 10 11  2  0  0  0  0
 10 12  1  0  0  0  0
 12 13  1  0  0  0  0
 12 22  1  0  0  0  0
 13 14  2  0  0  0  0
M  CHG  1   9  -1
M  END
> <s_m_source_file>
AV-unprocessed.smi

> <i_m_source_file_index>
750

> <i_lp_mmshare_version>
43012

> <i_f3d_flags>
0

> <s_epik_input>
Tz1DMVtOSF1DKD1PKVtOSF1bQ0BAXTEoW0NIM10pYzJbY0hdW2NIXVtjSF1uW2NIXTI=

> <s_epik_cmdline>
J2VwaWtfcHl0aG9uJywgJy1waCcsICc3LjAnLCAnLXRuJywgJzgnLCAnLW1hJywgJzIwMCcsICctbWV0YWxfYmluZGluZycsICctaW1hZScsICc8aW5maWxlLm1hZT4nLCAnLW9tYWUnLCAnPG91dGZpbGUubWFlPic=

> <r_lp_tautomer_probability>
1

> <r_epik_Ionization_Penalty>
4.84674

> <r_epik_Ionization_Penalty_Charging>
4.8337

> <r_epik_Ionization_Penalty_Neutral>
0.0130349

> <r_epik_State_Penalty>
4.85653

> <r_epik_Charging_Adjusted_Penalty>
9.69023

> <i_epik_Tot_Q>
-1

> <i_epik_Tot_abs_Q>
1

> <r_epik_Metal_State_Penalty>
1.3191

> <b_epik_Metal_Only>
1

> <s_lp_Force_Field>
OPLS_2005

> <r_lp_Energy>
14.3278

> <b_lp_Chiralities_Consistent>
1

> <s_lp_Variant>
AV-unprocessed.smi:750-6

> <Gold.Version>
5.8.1

> <Gold.Id.Protein>
6NUR|6NUR_protein|mol2

> <Gold.PLP.Fitness>
31.3991

> <Gold.PLP.PLP>
-23.7005

> <Gold.PLP.part.hbond>
-4.0643

> <Gold.PLP.part.metal>
0.0000

> <Gold.PLP.part.buried>
-2.1735

> <Gold.PLP.part.nonpolar>
-17.9114

> <Gold.PLP.part.repulsive>
0.3209

> <Gold.PLP.ligand.clash>
0.0000

> <Gold.PLP.ligand.torsion>
0.0661

> <Gold.PLP.Chemscore.Hbond>
2.5920

> <Gold.PLP.Chemscore.CHOScore>
0.0000

> <Gold.PLP.Chemscore.Metal>
0.0000

> <Gold.Chemscore.Hbonds>
donor molecule, donor type, donor heavy atom, donor atom, acceptor molecule, acceptor atom, score
      L1  H    12    22       P1  8028  1.00
      P1  H  7997  8009       L1     7  1.00
      P1  H  8011  8017       L1    14  0.59

> <Gold.PLP.Chemscore.Internal.Correction>
0.0547

> <Gold.Rescore>
     Score         DG    S(hbond)    S(metal)    S(lipo)     H(rot)  DE(clash)    DE(int)     intcor
     16.70     -17.01       2.54        0.00      47.77       1.00       0.22       0.09       ----

> <Gold.Chemscore.Fitness>
16.7012

> <Gold.Chemscore.DG>
-17.0091

> <Gold.Chemscore.ZeroCoef>
-5.4800

> <Gold.Chemscore.Hbond>
2.5449

> <Gold.Chemscore.Metal>
0.0000

> <Gold.Chemscore.Lipo>
47.7700

> <Gold.Chemscore.Internal_Hbond>
0.0000

> <Gold.Chemscore.DEClash>
0.2209

> <Gold.Chemscore.DEInternal>
0.0871

> <Gold.Chemscore.Rot>
1.0000

> <Gold.Chemscore.Internal.Correction>
   9.000000E+99

> <Gold.Chemscore.Hbonds>
donor molecule, donor type, donor heavy atom, donor atom, acceptor molecule, acceptor atom, score
      L1  H    12    22       P1  8028  0.83
      P1  H  7997  8009       L1     7  0.40
      P1  H  8011  8017       L1    14  0.58

> <Gold.Chemscore.Hbond.Weighted>
-8.5000

> <Gold.Chemscore.Metal.Weighted>
-0.0000

> <Gold.Chemscore.Lipo.Weighted>
-5.5891

> <Gold.Chemscore.Internal_Hbond.Weighted>
0.0000

> <Gold.Chemscore.DEClash.Weighted>
0.2209

> <Gold.Chemscore.DEInternal.Weighted>
0.0871

> <Gold.Chemscore.Rot.Weighted>
2.5600

> <Gold.Chemscore.Internal.Correction.Weighted>
   9.000000E+99

> <Gold.Protein.RotatedTorsions>
[ 6907 6896 6895 6894 ] final -123.87 input  -60.11 | X-H torsion
[ 7974 7965 7964 7962 ] final  174.18 input  175.53 | X-H torsion
[ 8008 7997 7996 7995 ] final -149.26 input   59.86 | X-H torsion
[ 10167 10162 10161 10158 ] final   81.40 input  -65.29 | X-H torsion
[ 10718 10713 10712 10709 ] final  -30.77 input   66.30 | X-H torsion
[ 10763 10752 10751 10750 ] final  115.46 input  -60.55 | X-H torsion
[ 11005 11000 10999 10996 ] final -161.55 input  -57.11 | X-H torsion

> <Gold.Protein.ActiveResidues>
 VAL166  LYS551  ARG553  GLY616  TRP617  ASP618  TYR619  PRO620  LYS621  CYS622 
 ASP623  PHE694  ASN695  SER759  ASP760  ASP761  ALA762  ILE779  LEU786  VAL792 
 PHE793  MET794  SER795  GLU796  ALA797  LYS798  CYS799  TRP800  GLU811  SER814 

> <Gold.Protein.RotatedAtoms>
  150.8713  133.7502  159.2960 H   0  0  0  0  0  0  0  0  0  0  0  0  # atno 6907 bound_to 6896
  151.5113  135.1063  159.9864 H   0  0  0  0  0  0  0  0  0  0  0  0  # atno 6908 bound_to 6896
  152.4697  133.7956  159.6981 H   0  0  0  0  0  0  0  0  0  0  0  0  # atno 6909 bound_to 6896
  144.7227  139.9758  143.6438 H   0  0  0  0  0  0  0  0  0  0  0  0  # atno 7974 bound_to 7965
  155.6048  140.0666  157.2723 H   0  0  0  0  0  0  0  0  0  0  0  0  # atno 8008 bound_to 7997
  154.4269  140.1812  156.1259 H   0  0  0  0  0  0  0  0  0  0  0  0  # atno 8009 bound_to 7997
  156.0131  140.3324  155.6964 H   0  0  0  0  0  0  0  0  0  0  0  0  # atno 8010 bound_to 7997
  139.9396  144.6098  150.8264 H   0  0  0  0  0  0  0  0  0  0  0  0  # atno 10167 bound_to 10162
  156.3957  130.4381  149.7361 H   0  0  0  0  0  0  0  0  0  0  0  0  # atno 10718 bound_to 10713
  153.5225  135.3595  155.2638 H   0  0  0  0  0  0  0  0  0  0  0  0  # atno 10763 bound_to 10752
  154.8734  135.4049  154.3244 H   0  0  0  0  0  0  0  0  0  0  0  0  # atno 10764 bound_to 10752
  153.3917  135.7072  153.6557 H   0  0  0  0  0  0  0  0  0  0  0  0  # atno 10765 bound_to 10752
  140.6191  134.4769  157.5222 H   0  0  0  0  0  0  0  0  0  0  0  0  # atno 11005 bound_to 11000
  146.0526  139.3526  143.0630 LP  0  0  0  0  0  0  0  0  0  0  0  0  # atno 17320 bound_to 7965
  145.8195  140.9686  143.0906 LP  0  0  0  0  0  0  0  0  0  0  0  0  # atno 17321 bound_to 7965
  140.7614  143.3175  151.2700 LP  0  0  0  0  0  0  0  0  0  0  0  0  # atno 17342 bound_to 10162
  139.6715  144.0012  152.2756 LP  0  0  0  0  0  0  0  0  0  0  0  0  # atno 17343 bound_to 10162
  156.4397  130.7855  151.2876 LP  0  0  0  0  0  0  0  0  0  0  0  0  # atno 17370 bound_to 10713
  157.7501  131.0129  150.3401 LP  0  0  0  0  0  0  0  0  0  0  0  0  # atno 17371 bound_to 10713
  139.9160  134.8245  156.1364 LP  0  0  0  0  0  0  0  0  0  0  0  0  # atno 17394 bound_to 11000
  141.0755  133.6777  156.2227 LP  0  0  0  0  0  0  0  0  0  0  0  0  # atno 17395 bound_to 11000

$$$$
