AV-unprocessed.smi:2164|AV-procd|sdf|8810|dock3
  -GOLD-   2272012 03D 1   1.00000     0.00000
 Structure written by MMmdl.
 38 40  0  0  0  0  0  0  0  0  2 V2000
  148.9010  132.6567  156.0968 O   0  0  0  0  0  0  0  0  0  0  0  0
  148.9100  133.6368  155.3408 C   0  0  0  0  0  0  0  0  0  0  0  0
  148.2234  133.7250  154.1612 N   0  5  0  0  0  0  0  0  0  0  0  0
  147.3363  132.6956  153.6197 C   0  0  0  0  0  0  0  0  0  0  0  0
  147.3774  132.7354  152.0790 C   0  0  0  0  0  0  0  0  0  0  0  0
  146.0039  132.6591  151.4263 C   0  0  0  0  0  0  0  0  0  0  0  0
  145.0066  133.6157  151.7164 C   0  0  0  0  0  0  0  0  0  0  0  0
  143.7476  133.4957  151.0973 C   0  0  0  0  0  0  0  0  0  0  0  0
  143.5352  132.4190  150.2138 C   0  0  0  0  0  0  0  0  0  0  0  0
  144.4768  131.4933  149.9318 N   0  0  0  0  0  0  0  0  0  0  0  0
  145.6819  131.6157  150.5294 C   0  0  0  0  0  0  0  0  0  0  0  0
  149.7167  134.8039  155.7275 C   0  0  0  0  0  0  0  0  0  0  0  0
  149.8835  135.8848  154.9342 C   0  0  0  0  0  0  0  0  0  0  0  0
  150.6490  136.9974  155.2931 N   0  0  0  0  0  0  0  0  0  0  0  0
  150.8274  138.0544  154.3042 C   0  0  0  0  0  0  0  0  0  0  0  0
  150.7415  139.4199  154.9673 C   0  0  0  0  0  0  0  0  0  0  0  0
  152.1374  139.5062  156.1528 S   0  0  0  0  0  0  0  0  0  0  0  0
  153.3894  139.3605  155.3937 O   0  0  0  0  0  0  0  0  0  0  0  0
  151.9437  140.6916  157.0019 O   0  0  0  0  0  0  0  0  0  0  0  0
  151.8710  138.1147  157.0484 N   0  0  0  0  0  0  0  0  0  0  0  0
  151.2475  137.0778  156.5763 C   0  0  0  0  0  0  0  0  0  0  0  0
  151.1044  135.9003  157.4164 C   0  0  0  0  0  0  0  0  0  0  0  0
  150.3841  134.8317  157.0194 C   0  0  0  0  0  0  0  0  0  0  0  0
  147.6257  131.6991  153.9560 H   0  0  0  0  0  0  0  0  0  0  0  0
  146.3065  132.8374  153.9502 H   0  0  0  0  0  0  0  0  0  0  0  0
  147.8684  133.6508  151.7448 H   0  0  0  0  0  0  0  0  0  0  0  0
  147.9852  131.9108  151.7034 H   0  0  0  0  0  0  0  0  0  0  0  0
  145.2036  134.4287  152.3997 H   0  0  0  0  0  0  0  0  0  0  0  0
  142.9640  134.2116  151.2953 H   0  0  0  0  0  0  0  0  0  0  0  0
  142.5816  132.2964  149.7219 H   0  0  0  0  0  0  0  0  0  0  0  0
  146.4118  130.8580  150.2846 H   0  0  0  0  0  0  0  0  0  0  0  0
  149.4336  135.9665  153.9551 H   0  0  0  0  0  0  0  0  0  0  0  0
  151.7893  137.9237  153.8075 H   0  0  0  0  0  0  0  0  0  0  0  0
  150.0632  137.9882  153.5290 H   0  0  0  0  0  0  0  0  0  0  0  0
  150.8454  140.2278  154.2436 H   0  0  0  0  0  0  0  0  0  0  0  0
  149.8017  139.5545  155.5039 H   0  0  0  0  0  0  0  0  0  0  0  0
  151.5659  135.8523  158.3921 H   0  0  0  0  0  0  0  0  0  0  0  0
  150.3130  133.9874  157.6897 H   0  0  0  0  0  0  0  0  0  0  0  0
  1  2  2  0  0  0  0
  2  3  1  0  0  0  0
  2 12  1  0  0  0  0
  3  4  1  0  0  0  0
  4  5  1  0  0  0  0
  4 24  1  0  0  0  0
  4 25  1  0  0  0  0
  5  6  1  0  0  0  0
  5 26  1  0  0  0  0
  5 27  1  0  0  0  0
  6 11  1  0  0  0  0
  6  7  2  0  0  0  0
  7  8  1  0  0  0  0
  7 28  1  0  0  0  0
  8  9  2  0  0  0  0
  8 29  1  0  0  0  0
  9 10  1  0  0  0  0
  9 30  1  0  0  0  0
 10 11  2  0  0  0  0
 11 31  1  0  0  0  0
 12 23  1  0  0  0  0
 12 13  2  0  0  0  0
 13 14  1  0  0  0  0
 13 32  1  0  0  0  0
 14 21  1  0  0  0  0
 14 15  1  0  0  0  0
 15 16  1  0  0  0  0
 15 33  1  0  0  0  0
 15 34  1  0  0  0  0
 16 17  1  0  0  0  0
 16 35  1  0  0  0  0
 16 36  1  0  0  0  0
 17 18  2  0  0  0  0
 17 19  2  0  0  0  0
 17 20  1  0  0  0  0
 20 21  2  0  0  0  0
 21 22  1  0  0  0  0
 22 23  2  0  0  0  0
 22 37  1  0  0  0  0
 23 38  1  0  0  0  0
M  CHG  1   3  -1
M  END
> <s_m_source_file>
AV-unprocessed.smi

> <i_m_source_file_index>
2164

> <i_lp_mmshare_version>
43012

> <i_f3d_flags>
0

> <s_epik_input>
W0NIMl0xW0NIMl1TKD1PKSg9TylOPUMoTjEyKVtDSF09W0NIXUMoPVtDSF0yKUMoPU8pW05IXVtDSDJdW0NIMl1jM1tjSF1bY0hdW2NIXW5bY0hdMw==

> <s_epik_cmdline>
J2VwaWtfcHl0aG9uJywgJy1waCcsICc3LjAnLCAnLXRuJywgJzgnLCAnLW1hJywgJzIwMCcsICctbWV0YWxfYmluZGluZycsICctaW1hZScsICc8aW5maWxlLm1hZT4nLCAnLW9tYWUnLCAnPG91dGZpbGUubWFlPic=

> <r_epik_Ionization_Penalty>
5.17728

> <r_epik_Ionization_Penalty_Charging>
5.15676

> <r_epik_Ionization_Penalty_Neutral>
0.0205175

> <r_epik_State_Penalty>
5.1638

> <r_epik_Charging_Adjusted_Penalty>
10.3206

> <i_epik_Tot_Q>
-1

> <i_epik_Tot_abs_Q>
1

> <r_epik_Metal_State_Penalty>
1.2481

> <b_epik_Metal_Only>
1

> <s_lp_Force_Field>
OPLS_2005

> <r_lp_Energy>
26.7817

> <b_lp_Chiralities_Consistent>
1

> <s_lp_Variant>
AV-unprocessed.smi:2164-3

> <Gold.Version>
5.8.1

> <Gold.Id.Protein>
6NUR|6NUR_protein|mol2

> <Gold.PLP.Fitness>
48.1802

> <Gold.PLP.PLP>
-35.3322

> <Gold.PLP.part.hbond>
-1.7325

> <Gold.PLP.part.metal>
0.0000

> <Gold.PLP.part.buried>
-1.6241

> <Gold.PLP.part.nonpolar>
-33.4878

> <Gold.PLP.part.repulsive>
0.3189

> <Gold.PLP.ligand.clash>
0.0000

> <Gold.PLP.ligand.torsion>
0.5244

> <Gold.PLP.Chemscore.Hbond>
1.2506

> <Gold.PLP.Chemscore.CHOScore>
3.3677

> <Gold.PLP.Chemscore.Metal>
0.0000

> <Gold.Chemscore.Hbonds>
donor molecule, donor type, donor heavy atom, donor atom, acceptor molecule, acceptor atom, score
      P1  H  7997  8009       L1    18  0.87
      P1  H 10785 10796       L1    10  0.25
      L1  C     9    30       P1 10186  0.55
      L1  C     9    30       P1 10952  0.77
      L1  C    11    31       P1 10747  0.95
      L1  C    13    32       P1  7948  1.00

> <Gold.PLP.Chemscore.Internal.Correction>
0.0420

> <Gold.Rescore>
     Score         DG    S(hbond)    S(metal)    S(lipo)     H(rot)  DE(clash)    DE(int)     intcor
     14.31     -16.51       1.45        0.00      84.45       1.44       1.59       0.61       ----

> <Gold.Chemscore.Fitness>
14.3083

> <Gold.Chemscore.DG>
-16.5096

> <Gold.Chemscore.ZeroCoef>
-5.4800

> <Gold.Chemscore.Hbond>
1.4504

> <Gold.Chemscore.Metal>
0.0000

> <Gold.Chemscore.Lipo>
84.4470

> <Gold.Chemscore.Internal_Hbond>
0.0000

> <Gold.Chemscore.DEClash>
1.5917

> <Gold.Chemscore.DEInternal>
0.6096

> <Gold.Chemscore.Rot>
1.4433

> <Gold.Chemscore.Internal.Correction>
   9.000000E+99

> <Gold.Chemscore.Hbonds>
donor molecule, donor type, donor heavy atom, donor atom, acceptor molecule, acceptor atom, score
      P1  H  7997  8009       L1    18  0.25
      P1  H 10785 10796       L1    10  0.05

> <Gold.Chemscore.Hbond.Weighted>
-4.8442

> <Gold.Chemscore.Metal.Weighted>
-0.0000

> <Gold.Chemscore.Lipo.Weighted>
-9.8803

> <Gold.Chemscore.Internal_Hbond.Weighted>
0.0000

> <Gold.Chemscore.DEClash.Weighted>
1.5917

> <Gold.Chemscore.DEInternal.Weighted>
0.6096

> <Gold.Chemscore.Rot.Weighted>
3.6949

> <Gold.Chemscore.Internal.Correction.Weighted>
   9.000000E+99

> <Gold.Protein.RotatedTorsions>
[ 6907 6896 6895 6894 ] final   14.16 input  -60.11 | X-H torsion
[ 7974 7965 7964 7962 ] final  -52.70 input  175.53 | X-H torsion
[ 8008 7997 7996 7995 ] final -160.92 input   59.86 | X-H torsion
[ 10167 10162 10161 10158 ] final  113.53 input  -65.29 | X-H torsion
[ 10718 10713 10712 10709 ] final  -22.15 input   66.30 | X-H torsion
[ 10763 10752 10751 10750 ] final   57.29 input  -60.55 | X-H torsion
[ 11005 11000 10999 10996 ] final  179.55 input  -57.11 | X-H torsion

> <Gold.Protein.ActiveResidues>
 VAL166  LYS551  ARG553  GLY616  TRP617  ASP618  TYR619  PRO620  LYS621  CYS622 
 ASP623  PHE694  ASN695  SER759  ASP760  ASP761  ALA762  ILE779  LEU786  VAL792 
 PHE793  MET794  SER795  GLU796  ALA797  LYS798  CYS799  TRP800  GLU811  SER814 

> <Gold.Protein.RotatedAtoms>
  151.7978  135.0717  160.0395 H   0  0  0  0  0  0  0  0  0  0  0  0  # atno 6907 bound_to 6896
  152.3110  133.5749  159.5689 H   0  0  0  0  0  0  0  0  0  0  0  0  # atno 6908 bound_to 6896
  150.7320  134.0068  159.3698 H   0  0  0  0  0  0  0  0  0  0  0  0  # atno 6909 bound_to 6896
  145.9050  140.7963  142.9724 H   0  0  0  0  0  0  0  0  0  0  0  0  # atno 7974 bound_to 7965
  155.7846  140.0870  157.2041 H   0  0  0  0  0  0  0  0  0  0  0  0  # atno 8008 bound_to 7997
  154.3988  140.1501  156.3149 H   0  0  0  0  0  0  0  0  0  0  0  0  # atno 8009 bound_to 7997
  155.8620  140.3430  155.5765 H   0  0  0  0  0  0  0  0  0  0  0  0  # atno 8010 bound_to 7997
  139.6455  144.7126  151.2152 H   0  0  0  0  0  0  0  0  0  0  0  0  # atno 10167 bound_to 10162
  156.5084  130.4604  149.6662 H   0  0  0  0  0  0  0  0  0  0  0  0  # atno 10718 bound_to 10713
  152.9847  135.5647  154.5367 H   0  0  0  0  0  0  0  0  0  0  0  0  # atno 10763 bound_to 10752
  154.4829  135.2789  155.1559 H   0  0  0  0  0  0  0  0  0  0  0  0  # atno 10764 bound_to 10752
  154.3060  135.6298  153.5498 H   0  0  0  0  0  0  0  0  0  0  0  0  # atno 10765 bound_to 10752
  140.4074  134.6722  157.4595 H   0  0  0  0  0  0  0  0  0  0  0  0  # atno 11005 bound_to 11000
  144.6738  140.1736  143.7412 LP  0  0  0  0  0  0  0  0  0  0  0  0  # atno 17320 bound_to 7965
  145.8743  139.2289  143.1642 LP  0  0  0  0  0  0  0  0  0  0  0  0  # atno 17321 bound_to 7965
  140.7512  143.6239  150.8487 LP  0  0  0  0  0  0  0  0  0  0  0  0  # atno 17342 bound_to 10162
  139.9881  143.5877  152.2919 LP  0  0  0  0  0  0  0  0  0  0  0  0  # atno 17343 bound_to 10162
  156.3264  130.7308  151.2230 LP  0  0  0  0  0  0  0  0  0  0  0  0  # atno 17370 bound_to 10713
  157.7454  131.0441  150.4779 LP  0  0  0  0  0  0  0  0  0  0  0  0  # atno 17371 bound_to 10713
  140.0292  134.6432  155.9130 LP  0  0  0  0  0  0  0  0  0  0  0  0  # atno 17394 bound_to 11000
  141.1834  133.6551  156.5114 LP  0  0  0  0  0  0  0  0  0  0  0  0  # atno 17395 bound_to 11000

$$$$
