AV-unprocessed.smi:1708|AV-procd|sdf|6890|dock3
  -GOLD-   22720 8 93D 1   1.00000     0.00000
 Structure written by MMmdl.
 36 38  0  0  0  0  0  0  0  0  1 V2000
  153.8438  140.8592  160.3695 C   0  0  0  0  0  0  0  0  0  0  0  0
  152.9283  141.5148  159.4436 N   0  0  0  0  0  0  0  0  0  0  0  0
  152.4493  141.0136  158.2812 C   0  0  0  0  0  0  0  0  0  0  0  0
  152.7060  139.9053  157.8114 O   0  0  0  0  0  0  0  0  0  0  0  0
  151.6251  141.9392  157.7332 N   0  0  0  0  0  0  0  0  0  0  0  0
  150.8441  141.8011  156.5026 C   0  0  0  0  0  0  0  0  0  0  0  0
  149.8452  140.6248  156.5650 C   0  0  1  0  0  0  0  0  0  0  0  0
  149.1618  140.6856  157.7995 O   0  0  0  0  0  0  0  0  0  0  0  0
  148.8913  140.5903  155.3783 C   0  0  0  0  0  0  0  0  0  0  0  0
  148.8376  139.4598  154.5337 C   0  0  0  0  0  0  0  0  0  0  0  0
  147.9324  139.4222  153.4556 C   0  0  0  0  0  0  0  0  0  0  0  0
  147.0755  140.5135  153.2164 C   0  0  0  0  0  0  0  0  0  0  0  0
  147.1236  141.6426  154.0562 C   0  0  0  0  0  0  0  0  0  0  0  0
  146.2968  142.6905  153.8298 F   0  0  0  0  0  0  0  0  0  0  0  0
  148.0294  141.6813  155.1336 C   0  0  0  0  0  0  0  0  0  0  0  0
  151.5787  143.0633  158.5702 C   0  0  0  0  0  0  0  0  0  0  0  0
  150.8771  144.2757  158.4532 C   0  0  0  0  0  0  0  0  0  0  0  0
  151.0448  145.2221  159.4912 C   0  0  0  0  0  0  0  0  0  0  0  0
  151.8899  144.9458  160.5977 C   0  0  0  0  0  0  0  0  0  0  0  0
  152.5848  143.7168  160.6900 C   0  0  0  0  0  0  0  0  0  0  0  0
  152.3988  142.7953  159.6456 C   0  0  0  0  0  0  0  0  0  0  0  0
  153.9754  139.8023  160.1341 H   0  0  0  0  0  0  0  0  0  0  0  0
  153.4661  140.9275  161.3898 H   0  0  0  0  0  0  0  0  0  0  0  0
  154.8215  141.3399  160.3330 H   0  0  0  0  0  0  0  0  0  0  0  0
  150.3141  142.7350  156.3112 H   0  0  0  0  0  0  0  0  0  0  0  0
  151.5221  141.6649  155.6582 H   0  0  0  0  0  0  0  0  0  0  0  0
  150.4081  139.6907  156.5726 H   0  0  0  0  0  0  0  0  0  0  0  0
  148.5531  139.9639  157.8406 H   0  0  0  0  0  0  0  0  0  0  0  0
  149.4839  138.6138  154.7171 H   0  0  0  0  0  0  0  0  0  0  0  0
  147.8930  138.5540  152.8144 H   0  0  0  0  0  0  0  0  0  0  0  0
  146.3800  140.4831  152.3909 H   0  0  0  0  0  0  0  0  0  0  0  0
  148.0525  142.5479  155.7781 H   0  0  0  0  0  0  0  0  0  0  0  0
  150.2360  144.4799  157.6088 H   0  0  0  0  0  0  0  0  0  0  0  0
  150.5233  146.1666  159.4409 H   0  0  0  0  0  0  0  0  0  0  0  0
  152.0036  145.6822  161.3793 H   0  0  0  0  0  0  0  0  0  0  0  0
  153.2289  143.4989  161.5291 H   0  0  0  0  0  0  0  0  0  0  0  0
  1  2  1  0  0  0  0
  1 22  1  0  0  0  0
  1 23  1  0  0  0  0
  1 24  1  0  0  0  0
  2 21  1  0  0  0  0
  2  3  1  0  0  0  0
  3  4  2  0  0  0  0
  3  5  1  0  0  0  0
  5  6  1  0  0  0  0
  5 16  1  0  0  0  0
  6  7  1  0  0  0  0
  6 25  1  0  0  0  0
  6 26  1  0  0  0  0
  7  8  1  0  0  0  0
  7  9  1  0  0  0  0
  7 27  1  0  0  0  0
  8 28  1  0  0  0  0
  9 15  1  0  0  0  0
  9 10  2  0  0  0  0
 10 11  1  0  0  0  0
 10 29  1  0  0  0  0
 11 12  2  0  0  0  0
 11 30  1  0  0  0  0
 12 13  1  0  0  0  0
 12 31  1  0  0  0  0
 13 14  1  0  0  0  0
 13 15  2  0  0  0  0
 15 32  1  0  0  0  0
 16 21  2  0  0  0  0
 16 17  1  0  0  0  0
 17 18  2  0  0  0  0
 17 33  1  0  0  0  0
 18 19  1  0  0  0  0
 18 34  1  0  0  0  0
 19 20  2  0  0  0  0
 19 35  1  0  0  0  0
 20 21  1  0  0  0  0
 20 36  1  0  0  0  0
M  END
> <s_m_source_file>
AV-unprocessed.smi

> <i_m_source_file_index>
1708

> <i_lp_mmshare_version>
43012

> <i_f3d_flags>
0

> <s_epik_input>
W2NIXTFbY0hdW2NIXVtjSF1jKGMxMiluKFtDSDNdKWMoPU8pbjJbQ0gyXVtDQEhdKFtPSF0pYzNbY0hdW2NIXVtjSF1jKEYpW2NIXTM=

> <s_epik_cmdline>
J2VwaWtfcHl0aG9uJywgJy1waCcsICc3LjAnLCAnLXRuJywgJzgnLCAnLW1hJywgJzIwMCcsICctbWV0YWxfYmluZGluZycsICctaW1hZScsICc8aW5maWxlLm1hZT4nLCAnLW9tYWUnLCAnPG91dGZpbGUubWFlPic=

> <r_lp_tautomer_probability>
1

> <r_epik_Ionization_Penalty>
3.53466e-06

> <r_epik_Ionization_Penalty_Charging>
2.57375e-09

> <r_epik_Ionization_Penalty_Neutral>
3.53208e-06

> <r_epik_State_Penalty>
-0

> <r_epik_Charging_Adjusted_Penalty>
2.57375e-09

> <i_epik_Tot_Q>
0

> <i_epik_Tot_abs_Q>
0

> <r_epik_Metal_State_Penalty>
-0

> <b_epik_Metal_Only>
0

> <s_lp_Force_Field>
OPLS_2005

> <r_lp_Energy>
40.1168

> <b_lp_Chiralities_Consistent>
1

> <s_lp_Variant>
AV-unprocessed.smi:1708-2

> <Gold.Version>
5.8.1

> <Gold.Id.Protein>
6NUR|6NUR_protein|mol2

> <Gold.PLP.Fitness>
51.6933

> <Gold.PLP.PLP>
-48.8261

> <Gold.PLP.part.hbond>
-1.0000

> <Gold.PLP.part.metal>
0.0000

> <Gold.PLP.part.buried>
-4.1746

> <Gold.PLP.part.nonpolar>
-44.1166

> <Gold.PLP.part.repulsive>
0.0000

> <Gold.PLP.ligand.clash>
0.0000

> <Gold.PLP.ligand.torsion>
0.0795

> <Gold.PLP.Chemscore.Hbond>
1.0000

> <Gold.PLP.Chemscore.CHOScore>
0.0000

> <Gold.PLP.Chemscore.Metal>
0.0000

> <Gold.Chemscore.Hbonds>
donor molecule, donor type, donor heavy atom, donor atom, acceptor molecule, acceptor atom, score
      P1  H  7997  8008       L1     4  1.00

> <Gold.PLP.Chemscore.Internal.Correction>
0.0262

> <Gold.Rescore>
     Score         DG    S(hbond)    S(metal)    S(lipo)     H(rot)  DE(clash)    DE(int)     intcor
     18.29     -18.54       0.88        0.00     126.83       1.85       0.15       0.10       ----

> <Gold.Chemscore.Fitness>
18.2880

> <Gold.Chemscore.DG>
-18.5404

> <Gold.Chemscore.ZeroCoef>
-5.4800

> <Gold.Chemscore.Hbond>
0.8829

> <Gold.Chemscore.Metal>
0.0000

> <Gold.Chemscore.Lipo>
126.8265

> <Gold.Chemscore.Internal_Hbond>
0.0000

> <Gold.Chemscore.DEClash>
0.1523

> <Gold.Chemscore.DEInternal>
0.1001

> <Gold.Chemscore.Rot>
1.8465

> <Gold.Chemscore.Internal.Correction>
   9.000000E+99

> <Gold.Chemscore.Hbonds>
donor molecule, donor type, donor heavy atom, donor atom, acceptor molecule, acceptor atom, score
      P1  H  7997  8008       L1     4  0.51

> <Gold.Chemscore.Hbond.Weighted>
-2.9488

> <Gold.Chemscore.Metal.Weighted>
-0.0000

> <Gold.Chemscore.Lipo.Weighted>
-14.8387

> <Gold.Chemscore.Internal_Hbond.Weighted>
0.0000

> <Gold.Chemscore.DEClash.Weighted>
0.1523

> <Gold.Chemscore.DEInternal.Weighted>
0.1001

> <Gold.Chemscore.Rot.Weighted>
4.7270

> <Gold.Chemscore.Internal.Correction.Weighted>
   9.000000E+99

> <Gold.Protein.RotatedTorsions>
[ 6907 6896 6895 6894 ] final  -39.72 input  -60.11 | X-H torsion
[ 7974 7965 7964 7962 ] final   18.59 input  175.53 | X-H torsion
[ 8008 7997 7996 7995 ] final  -80.99 input   59.86 | X-H torsion
[ 10167 10162 10161 10158 ] final -148.79 input  -65.29 | X-H torsion
[ 10718 10713 10712 10709 ] final   15.54 input   66.30 | X-H torsion
[ 10763 10752 10751 10750 ] final   71.64 input  -60.55 | X-H torsion
[ 11005 11000 10999 10996 ] final  127.83 input  -57.11 | X-H torsion

> <Gold.Protein.ActiveResidues>
 VAL166  LYS551  ARG553  GLY616  TRP617  ASP618  TYR619  PRO620  LYS621  CYS622 
 ASP623  PHE694  ASN695  SER759  ASP760  ASP761  ALA762  ILE779  LEU786  VAL792 
 PHE793  MET794  SER795  GLU796  ALA797  LYS798  CYS799  TRP800  GLU811  SER814 

> <Gold.Protein.RotatedAtoms>
  150.9869  134.9213  159.7876 H   0  0  0  0  0  0  0  0  0  0  0  0  # atno 6907 bound_to 6896
  152.5239  134.3334  159.9201 H   0  0  0  0  0  0  0  0  0  0  0  0  # atno 6908 bound_to 6896
  151.3340  133.3948  159.2699 H   0  0  0  0  0  0  0  0  0  0  0  0  # atno 6909 bound_to 6896
  146.2180  139.8436  142.8636 H   0  0  0  0  0  0  0  0  0  0  0  0  # atno 7974 bound_to 7965
  154.5939  140.0654  156.9276 H   0  0  0  0  0  0  0  0  0  0  0  0  # atno 8008 bound_to 7997
  155.2248  140.3333  155.4292 H   0  0  0  0  0  0  0  0  0  0  0  0  # atno 8009 bound_to 7997
  156.2274  140.1825  156.7313 H   0  0  0  0  0  0  0  0  0  0  0  0  # atno 8010 bound_to 7997
  139.7500  143.8533  152.2584 H   0  0  0  0  0  0  0  0  0  0  0  0  # atno 10167 bound_to 10162
  157.0550  130.6285  149.5775 H   0  0  0  0  0  0  0  0  0  0  0  0  # atno 10718 bound_to 10713
  153.0411  135.5129  154.7624 H   0  0  0  0  0  0  0  0  0  0  0  0  # atno 10763 bound_to 10752
  154.6560  135.2932  154.9929 H   0  0  0  0  0  0  0  0  0  0  0  0  # atno 10764 bound_to 10752
  154.0796  135.6666  153.4888 H   0  0  0  0  0  0  0  0  0  0  0  0  # atno 10765 bound_to 10752
  139.9528  134.9619  156.8912 H   0  0  0  0  0  0  0  0  0  0  0  0  # atno 11005 bound_to 11000
  145.2874  141.0157  143.3683 LP  0  0  0  0  0  0  0  0  0  0  0  0  # atno 17320 bound_to 7965
  144.9103  139.4537  143.6590 LP  0  0  0  0  0  0  0  0  0  0  0  0  # atno 17321 bound_to 7965
  139.8508  144.7165  150.9216 LP  0  0  0  0  0  0  0  0  0  0  0  0  # atno 17342 bound_to 10162
  140.7796  143.3901  151.1325 LP  0  0  0  0  0  0  0  0  0  0  0  0  # atno 17343 bound_to 10162
  155.9996  130.5072  150.7612 LP  0  0  0  0  0  0  0  0  0  0  0  0  # atno 17370 bound_to 10713
  157.5000  131.0918  151.0325 LP  0  0  0  0  0  0  0  0  0  0  0  0  # atno 17371 bound_to 10713
  140.5679  134.0472  155.7420 LP  0  0  0  0  0  0  0  0  0  0  0  0  # atno 17394 bound_to 11000
  141.1194  133.9486  157.2759 LP  0  0  0  0  0  0  0  0  0  0  0  0  # atno 17395 bound_to 11000

$$$$
