AV-unprocessed.smi:1236|AV-procd|sdf|5179|dock3
  -GOLD-   22720 4263D 1   1.00000     0.00000
 Structure written by MMmdl.
 39 40  0  0  0  0  0  0  0  0  1 V2000
  146.9367  139.8091  152.1049 C   0  0  0  0  0  0  0  0  0  0  0  0
  146.4956  138.7028  153.0725 C   0  0  2  0  0  0  0  0  0  0  0  0
  147.2623  138.7913  154.4097 C   0  0  0  0  0  0  0  0  0  0  0  0
  148.5414  139.5015  154.3617 N   0  0  0  0  0  0  0  0  0  0  0  0
  149.6822  138.6327  154.6429 C   0  0  0  0  0  0  0  0  0  0  0  0
  151.0122  139.4042  154.5948 C   0  0  0  0  0  0  0  0  0  0  0  0
  150.9665  140.4941  155.5101 O   0  0  0  0  0  0  0  0  0  0  0  0
  149.8909  141.3887  155.2456 C   0  0  0  0  0  0  0  0  0  0  0  0
  148.5584  140.6215  155.2957 C   0  0  0  0  0  0  0  0  0  0  0  0
  146.7222  137.4012  152.4453 N   0  0  0  0  0  0  0  0  0  0  0  0
  145.7696  136.5492  152.0371 C   0  0  0  0  0  0  0  0  0  0  0  0
  144.5634  136.7840  152.1168 O   0  0  0  0  0  0  0  0  0  0  0  0
  146.3093  135.4207  151.5438 N   0  0  0  0  0  0  0  0  0  0  0  0
  145.6394  134.2804  151.0255 C   0  0  0  0  0  0  0  0  0  0  0  0
  146.4845  133.2809  150.4924 C   0  0  0  0  0  0  0  0  0  0  0  0
  145.9180  132.1093  149.9540 C   0  0  0  0  0  0  0  0  0  0  0  0
  144.5190  131.9675  149.9613 C   0  0  0  0  0  0  0  0  0  0  0  0
  143.7499  133.0102  150.5102 C   0  0  0  0  0  0  0  0  0  0  0  0
  144.2908  134.1334  151.0271 N   0  0  0  0  0  0  0  0  0  0  0  0
  146.7647  140.7962  152.5349 H   0  0  0  0  0  0  0  0  0  0  0  0
  146.3796  139.7572  151.1689 H   0  0  0  0  0  0  0  0  0  0  0  0
  147.9979  139.7307  151.8665 H   0  0  0  0  0  0  0  0  0  0  0  0
  145.4316  138.8560  153.2558 H   0  0  0  0  0  0  0  0  0  0  0  0
  146.6126  139.2895  155.1307 H   0  0  0  0  0  0  0  0  0  0  0  0
  147.4214  137.7856  154.8016 H   0  0  0  0  0  0  0  0  0  0  0  0
  149.5656  138.1740  155.6258 H   0  0  0  0  0  0  0  0  0  0  0  0
  149.7289  137.8181  153.9221 H   0  0  0  0  0  0  0  0  0  0  0  0
  151.8414  138.7486  154.8609 H   0  0  0  0  0  0  0  0  0  0  0  0
  151.2062  139.7734  153.5867 H   0  0  0  0  0  0  0  0  0  0  0  0
  149.8986  142.1860  155.9889 H   0  0  0  0  0  0  0  0  0  0  0  0
  150.0298  141.8573  154.2703 H   0  0  0  0  0  0  0  0  0  0  0  0
  147.7413  141.3068  155.0677 H   0  0  0  0  0  0  0  0  0  0  0  0
  148.3885  140.2600  156.3111 H   0  0  0  0  0  0  0  0  0  0  0  0
  147.6845  137.1168  152.3390 H   0  0  0  0  0  0  0  0  0  0  0  0
  147.3170  135.3675  151.5466 H   0  0  0  0  0  0  0  0  0  0  0  0
  147.5574  133.4063  150.4947 H   0  0  0  0  0  0  0  0  0  0  0  0
  146.5467  131.3337  149.5426 H   0  0  0  0  0  0  0  0  0  0  0  0
  144.0474  131.0841  149.5570 H   0  0  0  0  0  0  0  0  0  0  0  0
  142.6725  132.9413  150.5345 H   0  0  0  0  0  0  0  0  0  0  0  0
  1  2  1  0  0  0  0
  1 20  1  0  0  0  0
  1 21  1  0  0  0  0
  1 22  1  0  0  0  0
  2  3  1  0  0  0  0
  2 10  1  0  0  0  0
  2 23  1  0  0  0  0
  3  4  1  0  0  0  0
  3 24  1  0  0  0  0
  3 25  1  0  0  0  0
  4  9  1  0  0  0  0
  4  5  1  0  0  0  0
  5  6  1  0  0  0  0
  5 26  1  0  0  0  0
  5 27  1  0  0  0  0
  6  7  1  0  0  0  0
  6 28  1  0  0  0  0
  6 29  1  0  0  0  0
  7  8  1  0  0  0  0
  8  9  1  0  0  0  0
  8 30  1  0  0  0  0
  8 31  1  0  0  0  0
  9 32  1  0  0  0  0
  9 33  1  0  0  0  0
 10 11  1  0  0  0  0
 10 34  1  0  0  0  0
 11 12  2  0  0  0  0
 11 13  1  0  0  0  0
 13 14  1  0  0  0  0
 13 35  1  0  0  0  0
 14 19  1  0  0  0  0
 14 15  2  0  0  0  0
 15 16  1  0  0  0  0
 15 36  1  0  0  0  0
 16 17  2  0  0  0  0
 16 37  1  0  0  0  0
 17 18  1  0  0  0  0
 17 38  1  0  0  0  0
 18 19  2  0  0  0  0
 18 39  1  0  0  0  0
M  END
> <s_m_source_file>
AV-unprocessed.smi

> <i_m_source_file_index>
1236

> <i_lp_mmshare_version>
43012

> <i_f3d_flags>
0

> <s_epik_input>
W0NIMl0xW0NIMl1PW0NIMl1bQ0gyXU4xW0NIMl1bQ0BASF0oW0NIM10pW05IXUMoPU8pW05IXWMyW2NIXVtjSF1bY0hdW2NIXW4y

> <s_epik_cmdline>
J2VwaWtfcHl0aG9uJywgJy1waCcsICc3LjAnLCAnLXRuJywgJzgnLCAnLW1hJywgJzIwMCcsICctbWV0YWxfYmluZGluZycsICctaW1hZScsICc8aW5maWxlLm1hZT4nLCAnLW9tYWUnLCAnPG91dGZpbGUubWFlPic=

> <r_epik_Ionization_Penalty>
0.26604

> <r_epik_Ionization_Penalty_Charging>
0

> <r_epik_Ionization_Penalty_Neutral>
0.26604

> <r_epik_State_Penalty>
0.257924

> <r_epik_Charging_Adjusted_Penalty>
0.257924

> <i_epik_Tot_Q>
0

> <i_epik_Tot_abs_Q>
0

> <r_epik_Metal_State_Penalty>
0.257923

> <b_epik_Metal_Only>
0

> <s_lp_Force_Field>
OPLS_2005

> <r_lp_Energy>
27.6221

> <b_lp_Chiralities_Consistent>
1

> <s_lp_Variant>
AV-unprocessed.smi:1236-1

> <Gold.Version>
5.8.1

> <Gold.Id.Protein>
6NUR|6NUR_protein|mol2

> <Gold.PLP.Fitness>
37.8735

> <Gold.PLP.PLP>
-31.5694

> <Gold.PLP.part.hbond>
-2.9715

> <Gold.PLP.part.metal>
0.0000

> <Gold.PLP.part.buried>
-0.1308

> <Gold.PLP.part.nonpolar>
-29.7075

> <Gold.PLP.part.repulsive>
1.4338

> <Gold.PLP.ligand.clash>
0.0000

> <Gold.PLP.ligand.torsion>
1.3376

> <Gold.PLP.Chemscore.Hbond>
1.9920

> <Gold.PLP.Chemscore.CHOScore>
0.9976

> <Gold.PLP.Chemscore.Metal>
0.0000

> <Gold.Chemscore.Hbonds>
donor molecule, donor type, donor heavy atom, donor atom, acceptor molecule, acceptor atom, score
      L1  H    10    34       P1  7948  1.00
      L1  H    13    35       P1  7948  0.99
      L1  C    18    39       P1 10186  1.00

> <Gold.PLP.Chemscore.Internal.Correction>
0.0103

> <Gold.Rescore>
     Score         DG    S(hbond)    S(metal)    S(lipo)     H(rot)  DE(clash)    DE(int)     intcor
     14.16     -17.20       1.94        0.00      77.85       1.51       0.41       2.62       ----

> <Gold.Chemscore.Fitness>
14.1626

> <Gold.Chemscore.DG>
-17.1952

> <Gold.Chemscore.ZeroCoef>
-5.4800

> <Gold.Chemscore.Hbond>
1.9383

> <Gold.Chemscore.Metal>
0.0000

> <Gold.Chemscore.Lipo>
77.8455

> <Gold.Chemscore.Internal_Hbond>
0.0000

> <Gold.Chemscore.DEClash>
0.4137

> <Gold.Chemscore.DEInternal>
2.6189

> <Gold.Chemscore.Rot>
1.5104

> <Gold.Chemscore.Internal.Correction>
   9.000000E+99

> <Gold.Chemscore.Hbonds>
donor molecule, donor type, donor heavy atom, donor atom, acceptor molecule, acceptor atom, score
      L1  H    10    34       P1  7948  0.98
      L1  H    13    35       P1  7948  0.88

> <Gold.Chemscore.Hbond.Weighted>
-6.4738

> <Gold.Chemscore.Metal.Weighted>
-0.0000

> <Gold.Chemscore.Lipo.Weighted>
-9.1079

> <Gold.Chemscore.Internal_Hbond.Weighted>
0.0000

> <Gold.Chemscore.DEClash.Weighted>
0.4137

> <Gold.Chemscore.DEInternal.Weighted>
2.6189

> <Gold.Chemscore.Rot.Weighted>
3.8665

> <Gold.Chemscore.Internal.Correction.Weighted>
   9.000000E+99

> <Gold.Protein.RotatedTorsions>
[ 6907 6896 6895 6894 ] final  126.37 input  -60.11 | X-H torsion
[ 7974 7965 7964 7962 ] final -158.61 input  175.53 | X-H torsion
[ 8008 7997 7996 7995 ] final -118.37 input   59.86 | X-H torsion
[ 10167 10162 10161 10158 ] final  -65.10 input  -65.29 | X-H torsion
[ 10718 10713 10712 10709 ] final  -66.96 input   66.30 | X-H torsion
[ 10763 10752 10751 10750 ] final -140.57 input  -60.55 | X-H torsion
[ 11005 11000 10999 10996 ] final  -10.15 input  -57.11 | X-H torsion

> <Gold.Protein.ActiveResidues>
 VAL166  LYS551  ARG553  GLY616  TRP617  ASP618  TYR619  PRO620  LYS621  CYS622 
 ASP623  PHE694  ASN695  SER759  ASP760  ASP761  ALA762  ILE779  LEU786  VAL792 
 PHE793  MET794  SER795  GLU796  ALA797  LYS798  CYS799  TRP800  GLU811  SER814 

> <Gold.Protein.RotatedAtoms>
  152.3909  133.6678  159.6236 H   0  0  0  0  0  0  0  0  0  0  0  0  # atno 6907 bound_to 6896
  150.7818  133.8956  159.3335 H   0  0  0  0  0  0  0  0  0  0  0  0  # atno 6908 bound_to 6896
  151.6742  135.0973  160.0255 H   0  0  0  0  0  0  0  0  0  0  0  0  # atno 6909 bound_to 6896
  144.7498  140.3803  143.6056 H   0  0  0  0  0  0  0  0  0  0  0  0  # atno 7974 bound_to 7965
  155.0986  140.0396  157.2690 H   0  0  0  0  0  0  0  0  0  0  0  0  # atno 8008 bound_to 7997
  154.6776  140.2626  155.6917 H   0  0  0  0  0  0  0  0  0  0  0  0  # atno 8009 bound_to 7997
  156.2682  140.2785  156.1308 H   0  0  0  0  0  0  0  0  0  0  0  0  # atno 8010 bound_to 7997
  140.5754  143.2321  151.6453 H   0  0  0  0  0  0  0  0  0  0  0  0  # atno 10167 bound_to 10162
  156.0584  130.4270  150.1784 H   0  0  0  0  0  0  0  0  0  0  0  0  # atno 10718 bound_to 10713
  154.8574  135.3549  154.5729 H   0  0  0  0  0  0  0  0  0  0  0  0  # atno 10763 bound_to 10752
  153.6342  135.7001  153.5269 H   0  0  0  0  0  0  0  0  0  0  0  0  # atno 10764 bound_to 10752
  153.3025  135.4202  155.1224 H   0  0  0  0  0  0  0  0  0  0  0  0  # atno 10765 bound_to 10752
  140.7417  133.8664  155.8973 H   0  0  0  0  0  0  0  0  0  0  0  0  # atno 11005 bound_to 11000
  145.6985  139.1655  143.2606 LP  0  0  0  0  0  0  0  0  0  0  0  0  # atno 17320 bound_to 7965
  146.1433  140.7028  142.9357 LP  0  0  0  0  0  0  0  0  0  0  0  0  # atno 17321 bound_to 7965
  139.5140  144.3425  152.0727 LP  0  0  0  0  0  0  0  0  0  0  0  0  # atno 17342 bound_to 10162
  140.2568  144.4110  150.6200 LP  0  0  0  0  0  0  0  0  0  0  0  0  # atno 17343 bound_to 10162
  156.9857  130.9878  151.3427 LP  0  0  0  0  0  0  0  0  0  0  0  0  # atno 17370 bound_to 10713
  157.5572  130.8222  149.8220 LP  0  0  0  0  0  0  0  0  0  0  0  0  # atno 17371 bound_to 10713
  140.9830  134.1380  157.4477 LP  0  0  0  0  0  0  0  0  0  0  0  0  # atno 17394 bound_to 11000
  139.8805  135.0016  156.6080 LP  0  0  0  0  0  0  0  0  0  0  0  0  # atno 17395 bound_to 11000

$$$$
