AV-unprocessed.smi:725|AV-procd|sdf|3508|dock6
  -GOLD-   22720 0503D 1   1.00000     0.00000
 Structure written by MMmdl.
 47 48  0  0  0  0  0  0  0  0  1 V2000
  145.8862  138.2344  153.3978 C   0  0  0  0  0  0  0  0  0  0  0  0
  146.7741  139.4836  153.4162 C   0  0  0  0  0  0  0  0  0  0  0  0
  146.5909  140.3138  154.7017 C   0  0  0  0  0  0  0  0  0  0  0  0
  147.2234  141.7295  154.6812 C   0  0  1  0  0  0  0  0  0  0  0  0
  146.4735  142.6980  153.7446 C   0  0  0  0  0  0  0  0  0  0  0  0
  147.1484  142.2645  155.9884 O   0  0  0  0  0  0  0  0  0  0  0  0
  148.7335  141.6627  154.3435 C   0  0  0  0  0  0  0  0  0  0  0  0
  149.5884  141.9708  155.4871 N   0  0  0  0  0  0  0  0  0  0  0  0
  150.3231  141.0822  156.1749 C   0  0  0  0  0  0  0  0  0  0  0  0
  150.3759  139.8833  155.8993 O   0  0  0  0  0  0  0  0  0  0  0  0
  151.1225  141.6613  157.3128 C   0  0  0  0  0  0  0  0  0  0  0  0
  151.2761  143.0643  157.4064 C   0  0  0  0  0  0  0  0  0  0  0  0
  151.9782  143.6160  158.4923 C   0  0  0  0  0  0  0  0  0  0  0  0
  152.4999  142.7405  159.4594 C   0  0  0  0  0  0  0  0  0  0  0  0
  152.3630  141.4014  159.3911 N   0  0  0  0  0  0  0  0  0  0  0  0
  151.6907  140.8575  158.3459 C   0  0  0  0  0  0  0  0  0  0  0  0
  151.6185  139.4503  158.3090 N   0  0  0  0  0  0  0  0  0  0  0  0
  150.5417  138.8094  159.0564 C   0  0  0  0  0  0  0  0  0  0  0  0
  150.4736  137.3164  158.6932 C   0  0  0  0  0  0  0  0  0  0  0  0
  151.7404  136.7083  158.9303 O   0  0  0  0  0  0  0  0  0  0  0  0
  152.7728  137.2934  158.1412 C   0  0  0  0  0  0  0  0  0  0  0  0
  152.9043  138.7867  158.4855 C   0  0  0  0  0  0  0  0  0  0  0  0
  146.0378  137.6638  152.4814 H   0  0  0  0  0  0  0  0  0  0  0  0
  144.8304  138.5008  153.4522 H   0  0  0  0  0  0  0  0  0  0  0  0
  146.1115  137.5786  154.2391 H   0  0  0  0  0  0  0  0  0  0  0  0
  147.8137  139.1721  153.3153 H   0  0  0  0  0  0  0  0  0  0  0  0
  146.5453  140.0914  152.5404 H   0  0  0  0  0  0  0  0  0  0  0  0
  145.5232  140.4076  154.9065 H   0  0  0  0  0  0  0  0  0  0  0  0
  147.0033  139.7446  155.5356 H   0  0  0  0  0  0  0  0  0  0  0  0
  146.4100  142.3025  152.7307 H   0  0  0  0  0  0  0  0  0  0  0  0
  146.9778  143.6635  153.6899 H   0  0  0  0  0  0  0  0  0  0  0  0
  145.4555  142.8880  154.0852 H   0  0  0  0  0  0  0  0  0  0  0  0
  147.6727  143.0501  156.0220 H   0  0  0  0  0  0  0  0  0  0  0  0
  148.9899  140.6872  153.9257 H   0  0  0  0  0  0  0  0  0  0  0  0
  148.9692  142.3880  153.5639 H   0  0  0  0  0  0  0  0  0  0  0  0
  149.6208  142.9361  155.7806 H   0  0  0  0  0  0  0  0  0  0  0  0
  150.8513  143.7212  156.6607 H   0  0  0  0  0  0  0  0  0  0  0  0
  152.1065  144.6843  158.5853 H   0  0  0  0  0  0  0  0  0  0  0  0
  153.0420  143.1249  160.3107 H   0  0  0  0  0  0  0  0  0  0  0  0
  150.7181  138.9205  160.1272 H   0  0  0  0  0  0  0  0  0  0  0  0
  149.5915  139.2942  158.8293 H   0  0  0  0  0  0  0  0  0  0  0  0
  149.7190  136.8160  159.2999 H   0  0  0  0  0  0  0  0  0  0  0  0
  150.1842  137.1831  157.6495 H   0  0  0  0  0  0  0  0  0  0  0  0
  153.7109  136.7765  158.3428 H   0  0  0  0  0  0  0  0  0  0  0  0
  152.5553  137.1582  157.0805 H   0  0  0  0  0  0  0  0  0  0  0  0
  153.6683  139.2460  157.8581 H   0  0  0  0  0  0  0  0  0  0  0  0
  153.2278  138.9055  159.5203 H   0  0  0  0  0  0  0  0  0  0  0  0
  1  2  1  0  0  0  0
  1 23  1  0  0  0  0
  1 24  1  0  0  0  0
  1 25  1  0  0  0  0
  2  3  1  0  0  0  0
  2 26  1  0  0  0  0
  2 27  1  0  0  0  0
  3  4  1  0  0  0  0
  3 28  1  0  0  0  0
  3 29  1  0  0  0  0
  4  5  1  0  0  0  0
  4  6  1  0  0  0  0
  4  7  1  0  0  0  0
  5 30  1  0  0  0  0
  5 31  1  0  0  0  0
  5 32  1  0  0  0  0
  6 33  1  0  0  0  0
  7  8  1  0  0  0  0
  7 34  1  0  0  0  0
  7 35  1  0  0  0  0
  8  9  1  0  0  0  0
  8 36  1  0  0  0  0
  9 10  2  0  0  0  0
  9 11  1  0  0  0  0
 11 16  1  0  0  0  0
 11 12  2  0  0  0  0
 12 13  1  0  0  0  0
 12 37  1  0  0  0  0
 13 14  2  0  0  0  0
 13 38  1  0  0  0  0
 14 15  1  0  0  0  0
 14 39  1  0  0  0  0
 15 16  2  0  0  0  0
 16 17  1  0  0  0  0
 17 22  1  0  0  0  0
 17 18  1  0  0  0  0
 18 19  1  0  0  0  0
 18 40  1  0  0  0  0
 18 41  1  0  0  0  0
 19 20  1  0  0  0  0
 19 42  1  0  0  0  0
 19 43  1  0  0  0  0
 20 21  1  0  0  0  0
 21 22  1  0  0  0  0
 21 44  1  0  0  0  0
 21 45  1  0  0  0  0
 22 46  1  0  0  0  0
 22 47  1  0  0  0  0
M  END
> <s_m_source_file>
AV-unprocessed.smi

> <i_m_source_file_index>
725

> <i_lp_mmshare_version>
43012

> <i_f3d_flags>
0

> <s_epik_input>
W0NIM11bQ0gyXVtDSDJdW0NAQF0oW0NIM10pKFtPSF0pW0NIMl1bTkhdQyg9TyljMVtjSF1bY0hdW2NIXW5jMU4yW0NIMl1bQ0gyXU9bQ0gyXVtDSDJdMg==

> <s_epik_cmdline>
J2VwaWtfcHl0aG9uJywgJy1waCcsICc3LjAnLCAnLXRuJywgJzgnLCAnLW1hJywgJzIwMCcsICctbWV0YWxfYmluZGluZycsICctaW1hZScsICc8aW5maWxlLm1hZT4nLCAnLW9tYWUnLCAnPG91dGZpbGUubWFlPic=

> <r_lp_tautomer_probability>
1

> <r_epik_Ionization_Penalty>
1.23446e-05

> <r_epik_Ionization_Penalty_Charging>
0

> <r_epik_Ionization_Penalty_Neutral>
1.23446e-05

> <r_epik_State_Penalty>
-0

> <r_epik_Charging_Adjusted_Penalty>
0

> <i_epik_Tot_Q>
0

> <i_epik_Tot_abs_Q>
0

> <r_epik_Metal_State_Penalty>
-0

> <b_epik_Metal_Only>
0

> <s_lp_Force_Field>
OPLS_2005

> <r_lp_Energy>
26.7516

> <b_lp_Chiralities_Consistent>
1

> <s_lp_Variant>
AV-unprocessed.smi:725-1

> <Gold.Version>
5.8.1

> <Gold.Id.Protein>
6NUR|6NUR_protein|mol2

> <Gold.PLP.Fitness>
42.6792

> <Gold.PLP.PLP>
-37.7473

> <Gold.PLP.part.hbond>
-3.0000

> <Gold.PLP.part.metal>
0.0000

> <Gold.PLP.part.buried>
-5.2612

> <Gold.PLP.part.nonpolar>
-30.4588

> <Gold.PLP.part.repulsive>
0.1934

> <Gold.PLP.ligand.clash>
0.0000

> <Gold.PLP.ligand.torsion>
1.7649

> <Gold.PLP.Chemscore.Hbond>
2.6965

> <Gold.PLP.Chemscore.CHOScore>
0.0000

> <Gold.PLP.Chemscore.Metal>
0.0000

> <Gold.Chemscore.Hbonds>
donor molecule, donor type, donor heavy atom, donor atom, acceptor molecule, acceptor atom, score
      L1  H     6    33       P1  8028  0.86
      L1  H     8    36       P1  8028  0.96
      P1  H  6896  6909       L1    20  0.88

> <Gold.PLP.Chemscore.Internal.Correction>
0.3722

> <Gold.Rescore>
     Score         DG    S(hbond)    S(metal)    S(lipo)     H(rot)  DE(clash)    DE(int)     intcor
     13.55     -19.74       2.49        0.00      98.80       2.19       3.19       3.01       ----

> <Gold.Chemscore.Fitness>
13.5507

> <Gold.Chemscore.DG>
-19.7445

> <Gold.Chemscore.ZeroCoef>
-5.4800

> <Gold.Chemscore.Hbond>
2.4910

> <Gold.Chemscore.Metal>
0.0000

> <Gold.Chemscore.Lipo>
98.7984

> <Gold.Chemscore.Internal_Hbond>
0.0000

> <Gold.Chemscore.DEClash>
3.1853

> <Gold.Chemscore.DEInternal>
3.0085

> <Gold.Chemscore.Rot>
2.1933

> <Gold.Chemscore.Internal.Correction>
   9.000000E+99

> <Gold.Chemscore.Hbonds>
donor molecule, donor type, donor heavy atom, donor atom, acceptor molecule, acceptor atom, score
      L1  H     6    33       P1  8028  0.19
      L1  H     8    36       P1  8028  0.92
      P1  H  6896  6909       L1    20  0.64

> <Gold.Chemscore.Hbond.Weighted>
-8.3200

> <Gold.Chemscore.Metal.Weighted>
-0.0000

> <Gold.Chemscore.Lipo.Weighted>
-11.5594

> <Gold.Chemscore.Internal_Hbond.Weighted>
0.0000

> <Gold.Chemscore.DEClash.Weighted>
3.1853

> <Gold.Chemscore.DEInternal.Weighted>
3.0085

> <Gold.Chemscore.Rot.Weighted>
5.6149

> <Gold.Chemscore.Internal.Correction.Weighted>
   9.000000E+99

> <Gold.Protein.RotatedTorsions>
[ 6907 6896 6895 6894 ] final  115.83 input  -60.11 | X-H torsion
[ 7974 7965 7964 7962 ] final  125.16 input  175.53 | X-H torsion
[ 8008 7997 7996 7995 ] final -170.47 input   59.86 | X-H torsion
[ 10167 10162 10161 10158 ] final -178.91 input  -65.29 | X-H torsion
[ 10718 10713 10712 10709 ] final  -70.26 input   66.30 | X-H torsion
[ 10763 10752 10751 10750 ] final   12.39 input  -60.55 | X-H torsion
[ 11005 11000 10999 10996 ] final  131.72 input  -57.11 | X-H torsion

> <Gold.Protein.ActiveResidues>
 VAL166  LYS551  ARG553  GLY616  TRP617  ASP618  TYR619  PRO620  LYS621  CYS622 
 ASP623  PHE694  ASN695  SER759  ASP760  ASP761  ALA762  ILE779  LEU786  VAL792 
 PHE793  MET794  SER795  GLU796  ALA797  LYS798  CYS799  TRP800  GLU811  SER814 

> <Gold.Protein.RotatedAtoms>
  152.4717  133.8044  159.6969 H   0  0  0  0  0  0  0  0  0  0  0  0  # atno 6907 bound_to 6896
  150.8709  133.7497  159.2968 H   0  0  0  0  0  0  0  0  0  0  0  0  # atno 6908 bound_to 6896
  151.5032  135.1066  159.9886 H   0  0  0  0  0  0  0  0  0  0  0  0  # atno 6909 bound_to 6896
  145.0761  139.3692  143.4933 H   0  0  0  0  0  0  0  0  0  0  0  0  # atno 7974 bound_to 7965
  155.9188  140.1070  157.1223 H   0  0  0  0  0  0  0  0  0  0  0  0  # atno 8008 bound_to 7997
  154.4051  140.1260  156.4717 H   0  0  0  0  0  0  0  0  0  0  0  0  # atno 8009 bound_to 7997
  155.7221  140.3469  155.5023 H   0  0  0  0  0  0  0  0  0  0  0  0  # atno 8010 bound_to 7997
  139.5410  144.2363  152.0895 H   0  0  0  0  0  0  0  0  0  0  0  0  # atno 10167 bound_to 10162
  156.0416  130.4328  150.2269 H   0  0  0  0  0  0  0  0  0  0  0  0  # atno 10718 bound_to 10713
  153.1828  135.6830  153.8455 H   0  0  0  0  0  0  0  0  0  0  0  0  # atno 10763 bound_to 10752
  153.7781  135.3186  155.3363 H   0  0  0  0  0  0  0  0  0  0  0  0  # atno 10764 bound_to 10752
  154.8070  135.4742  154.0513 H   0  0  0  0  0  0  0  0  0  0  0  0  # atno 10765 bound_to 10752
  139.9747  134.9567  156.9479 H   0  0  0  0  0  0  0  0  0  0  0  0  # atno 11005 bound_to 11000
  146.3530  140.0529  142.8634 LP  0  0  0  0  0  0  0  0  0  0  0  0  # atno 17320 bound_to 7965
  145.1234  140.9476  143.4587 LP  0  0  0  0  0  0  0  0  0  0  0  0  # atno 17321 bound_to 7965
  140.1841  144.4815  150.6512 LP  0  0  0  0  0  0  0  0  0  0  0  0  # atno 17342 bound_to 10162
  140.6640  143.2261  151.5788 LP  0  0  0  0  0  0  0  0  0  0  0  0  # atno 17343 bound_to 10162
  157.0363  131.0022  151.3297 LP  0  0  0  0  0  0  0  0  0  0  0  0  # atno 17370 bound_to 10713
  157.5241  130.8017  149.7842 LP  0  0  0  0  0  0  0  0  0  0  0  0  # atno 17371 bound_to 10713
  140.5220  134.0898  155.7294 LP  0  0  0  0  0  0  0  0  0  0  0  0  # atno 17394 bound_to 11000
  141.1425  133.9114  157.2293 LP  0  0  0  0  0  0  0  0  0  0  0  0  # atno 17395 bound_to 11000

$$$$
