AV-unprocessed.smi:885|AV-procd|sdf|4045|dock3
  -GOLD-   22720 1533D 1   1.00000     0.00000
 Structure written by MMmdl.
 40 42  0  0  0  0  0  0  0  0  2 V2000
  152.4982  142.7383  161.6400 C   0  0  0  0  0  0  0  0  0  0  0  0
  152.4856  144.0925  160.9138 C   0  0  0  0  0  0  0  0  0  0  0  0
  151.3412  144.2073  159.8930 C   0  0  0  0  0  0  0  0  0  0  0  0
  151.5487  143.4097  158.5969 C   0  0  0  0  0  0  0  0  0  0  0  0
  151.7718  141.8932  158.7846 C   0  0  0  0  0  0  0  0  0  0  0  0
  151.5571  141.1639  157.4912 C   0  0  0  0  0  0  0  0  0  0  0  0
  152.4333  140.2724  157.0397 N   0  0  0  0  0  0  0  0  0  0  0  0
  151.8624  139.8343  155.8368 O   0  0  0  0  0  0  0  0  0  0  0  0
  150.7107  140.5331  155.6969 C   0  0  0  0  0  0  0  0  0  0  0  0
  149.8391  140.2471  154.5162 C   0  0  1  0  0  0  0  0  0  0  0  0
  149.8072  138.7488  154.1594 C   0  0  0  0  0  0  0  0  0  0  0  0
  148.8631  138.5147  153.0491 N   0  3  0  0  0  0  0  0  0  0  0  0
  147.5209  139.0457  153.3601 C   0  0  0  0  0  0  0  0  0  0  0  0
  147.6165  140.5309  153.7522 C   0  0  0  0  0  0  0  0  0  0  0  0
  148.5212  140.6839  154.8413 O   0  0  0  0  0  0  0  0  0  0  0  0
  150.4590  141.3602  156.7097 N   0  0  0  0  0  0  0  0  0  0  0  0
  153.1546  141.5610  159.3852 C   0  0  0  0  0  0  0  0  0  0  0  0
  153.2516  141.6048  160.9218 C   0  0  0  0  0  0  0  0  0  0  0  0
  151.4725  142.4256  161.8392 H   0  0  0  0  0  0  0  0  0  0  0  0
  152.9508  142.8691  162.6235 H   0  0  0  0  0  0  0  0  0  0  0  0
  152.3376  144.8719  161.6623 H   0  0  0  0  0  0  0  0  0  0  0  0
  153.4509  144.3024  160.4520 H   0  0  0  0  0  0  0  0  0  0  0  0
  150.3998  143.9140  160.3590 H   0  0  0  0  0  0  0  0  0  0  0  0
  151.2199  145.2577  159.6262 H   0  0  0  0  0  0  0  0  0  0  0  0
  150.6595  143.5603  157.9830 H   0  0  0  0  0  0  0  0  0  0  0  0
  152.3744  143.8388  158.0278 H   0  0  0  0  0  0  0  0  0  0  0  0
  151.0090  141.5235  159.4719 H   0  0  0  0  0  0  0  0  0  0  0  0
  150.2129  140.8277  153.6708 H   0  0  0  0  0  0  0  0  0  0  0  0
  150.7989  138.3988  153.8705 H   0  0  0  0  0  0  0  0  0  0  0  0
  149.4955  138.1579  155.0220 H   0  0  0  0  0  0  0  0  0  0  0  0
  149.2121  138.9803  152.2233 H   0  0  0  0  0  0  0  0  0  0  0  0
  146.8706  138.9176  152.4946 H   0  0  0  0  0  0  0  0  0  0  0  0
  147.0869  138.4676  154.1771 H   0  0  0  0  0  0  0  0  0  0  0  0
  147.9440  141.1368  152.9059 H   0  0  0  0  0  0  0  0  0  0  0  0
  146.6372  140.9053  154.0510 H   0  0  0  0  0  0  0  0  0  0  0  0
  153.4437  140.5518  159.0880 H   0  0  0  0  0  0  0  0  0  0  0  0
  153.9086  142.2133  158.9431 H   0  0  0  0  0  0  0  0  0  0  0  0
  154.3075  141.6572  161.1887 H   0  0  0  0  0  0  0  0  0  0  0  0
  152.8975  140.6567  161.3277 H   0  0  0  0  0  0  0  0  0  0  0  0
  148.7984  137.5234  152.8654 H   0  0  0  0  0  0  0  0  0  0  0  0
  1 18  1  0  0  0  0
  1  2  1  0  0  0  0
  1 19  1  0  0  0  0
  1 20  1  0  0  0  0
  2  3  1  0  0  0  0
  2 21  1  0  0  0  0
  2 22  1  0  0  0  0
  3  4  1  0  0  0  0
  3 23  1  0  0  0  0
  3 24  1  0  0  0  0
  4  5  1  0  0  0  0
  4 25  1  0  0  0  0
  4 26  1  0  0  0  0
  5  6  1  0  0  0  0
  5 17  1  0  0  0  0
  5 27  1  0  0  0  0
  6 16  1  0  0  0  0
  6  7  2  0  0  0  0
  7  8  1  0  0  0  0
  8  9  1  0  0  0  0
  9 10  1  0  0  0  0
  9 16  2  0  0  0  0
 10 15  1  0  0  0  0
 10 11  1  0  0  0  0
 10 28  1  0  0  0  0
 11 12  1  0  0  0  0
 11 29  1  0  0  0  0
 11 30  1  0  0  0  0
 12 13  1  0  0  0  0
 12 31  1  0  0  0  0
 12 40  1  0  0  0  0
 13 14  1  0  0  0  0
 13 32  1  0  0  0  0
 13 33  1  0  0  0  0
 14 15  1  0  0  0  0
 14 34  1  0  0  0  0
 14 35  1  0  0  0  0
 17 18  1  0  0  0  0
 17 36  1  0  0  0  0
 17 37  1  0  0  0  0
 18 38  1  0  0  0  0
 18 39  1  0  0  0  0
M  CHG  1  12   1
M  END
> <s_m_source_file>
AV-unprocessed.smi

> <i_m_source_file_index>
885

> <i_lp_mmshare_version>
43012

> <i_f3d_flags>
0

> <s_epik_input>
W0NIMl0xW0NIMl1bQ0gyXVtDSDJdW0NIMl1bQ0gyXVtDSF0xYzJub2MobjIpW0NAQEhdM1tDSDJdW05IXVtDSDJdW0NIMl1PMw==

> <s_epik_cmdline>
J2VwaWtfcHl0aG9uJywgJy1waCcsICc3LjAnLCAnLXRuJywgJzgnLCAnLW1hJywgJzIwMCcsICctbWV0YWxfYmluZGluZycsICctaW1hZScsICc8aW5maWxlLm1hZT4nLCAnLW9tYWUnLCAnPG91dGZpbGUubWFlPic=

> <r_lp_tautomer_probability>
1

> <r_epik_Ionization_Penalty>
0.157575

> <r_epik_Ionization_Penalty_Charging>
0.157575

> <r_epik_Ionization_Penalty_Neutral>
1.7642e-13

> <r_epik_State_Penalty>
0.146877

> <r_epik_Charging_Adjusted_Penalty>
0.304452

> <i_epik_Tot_Q>
1

> <i_epik_Tot_abs_Q>
1

> <r_epik_Metal_State_Penalty>
0.146877

> <b_epik_Metal_Only>
0

> <s_lp_Force_Field>
OPLS_2005

> <r_lp_Energy>
20.5432

> <b_lp_Chiralities_Consistent>
1

> <s_lp_Variant>
AV-unprocessed.smi:885-2

> <Gold.Version>
5.8.1

> <Gold.Id.Protein>
6NUR|6NUR_protein|mol2

> <Gold.PLP.Fitness>
49.0373

> <Gold.PLP.PLP>
-38.4283

> <Gold.PLP.part.hbond>
-3.0000

> <Gold.PLP.part.metal>
0.0000

> <Gold.PLP.part.buried>
-2.8807

> <Gold.PLP.part.nonpolar>
-31.7598

> <Gold.PLP.part.repulsive>
0.2460

> <Gold.PLP.ligand.clash>
0.0000

> <Gold.PLP.ligand.torsion>
0.7007

> <Gold.PLP.Chemscore.Hbond>
3.9840

> <Gold.PLP.Chemscore.CHOScore>
0.0000

> <Gold.PLP.Chemscore.Metal>
0.0000

> <Gold.Chemscore.Hbonds>
donor molecule, donor type, donor heavy atom, donor atom, acceptor molecule, acceptor atom, score
      L1  H    12    31       P1  7957  1.00
      L1  H    12    40       P1  7948  1.98
      P1  H  7997  8010       L1     7  1.00

> <Gold.PLP.Chemscore.Internal.Correction>
0.0584

> <Gold.Rescore>
     Score         DG    S(hbond)    S(metal)    S(lipo)     H(rot)  DE(clash)    DE(int)     intcor
     22.52     -23.39       2.80        0.00      99.93       1.23       0.23       0.63       ----

> <Gold.Chemscore.Fitness>
22.5222

> <Gold.Chemscore.DG>
-23.3891

> <Gold.Chemscore.ZeroCoef>
-5.4800

> <Gold.Chemscore.Hbond>
2.8034

> <Gold.Chemscore.Metal>
0.0000

> <Gold.Chemscore.Lipo>
99.9338

> <Gold.Chemscore.Internal_Hbond>
0.0000

> <Gold.Chemscore.DEClash>
0.2338

> <Gold.Chemscore.DEInternal>
0.6331

> <Gold.Chemscore.Rot>
1.2292

> <Gold.Chemscore.Internal.Correction>
   9.000000E+99

> <Gold.Chemscore.Hbonds>
donor molecule, donor type, donor heavy atom, donor atom, acceptor molecule, acceptor atom, score
      L1  H    12    31       P1  7957  0.85
      L1  H    12    40       P1  7948  0.94
      P1  H  7997  8010       L1     7  0.24

> <Gold.Chemscore.Hbond.Weighted>
-9.3635

> <Gold.Chemscore.Metal.Weighted>
-0.0000

> <Gold.Chemscore.Lipo.Weighted>
-11.6923

> <Gold.Chemscore.Internal_Hbond.Weighted>
0.0000

> <Gold.Chemscore.DEClash.Weighted>
0.2338

> <Gold.Chemscore.DEInternal.Weighted>
0.6331

> <Gold.Chemscore.Rot.Weighted>
3.1467

> <Gold.Chemscore.Internal.Correction.Weighted>
   9.000000E+99

> <Gold.Protein.RotatedTorsions>
[ 6907 6896 6895 6894 ] final -108.62 input  -60.11 | X-H torsion
[ 7974 7965 7964 7962 ] final    9.20 input  175.53 | X-H torsion
[ 8008 7997 7996 7995 ] final   64.41 input   59.86 | X-H torsion
[ 10167 10162 10161 10158 ] final   84.43 input  -65.29 | X-H torsion
[ 10718 10713 10712 10709 ] final   70.27 input   66.30 | X-H torsion
[ 10763 10752 10751 10750 ] final  -35.89 input  -60.55 | X-H torsion
[ 11005 11000 10999 10996 ] final   23.81 input  -57.11 | X-H torsion

> <Gold.Protein.ActiveResidues>
 VAL166  LYS551  ARG553  GLY616  TRP617  ASP618  TYR619  PRO620  LYS621  CYS622 
 ASP623  PHE694  ASN695  SER759  ASP760  ASP761  ALA762  ILE779  LEU786  VAL792 
 PHE793  MET794  SER795  GLU796  ALA797  LYS798  CYS799  TRP800  GLU811  SER814 

> <Gold.Protein.RotatedAtoms>
  150.7513  133.9650  159.3527 H   0  0  0  0  0  0  0  0  0  0  0  0  # atno 6907 bound_to 6896
  151.7579  135.0815  160.0350 H   0  0  0  0  0  0  0  0  0  0  0  0  # atno 6908 bound_to 6896
  152.3423  133.6044  159.5921 H   0  0  0  0  0  0  0  0  0  0  0  0  # atno 6909 bound_to 6896
  146.2406  139.9819  142.8435 H   0  0  0  0  0  0  0  0  0  0  0  0  # atno 7974 bound_to 7965
  155.6456  140.3497  155.4730 H   0  0  0  0  0  0  0  0  0  0  0  0  # atno 8008 bound_to 7997
  155.9890  140.1190  157.0680 H   0  0  0  0  0  0  0  0  0  0  0  0  # atno 8009 bound_to 7997
  154.4213  140.1123  156.5525 H   0  0  0  0  0  0  0  0  0  0  0  0  # atno 8010 bound_to 7997
  139.9081  144.6288  150.8566 H   0  0  0  0  0  0  0  0  0  0  0  0  # atno 10167 bound_to 10162
  157.6391  130.9469  150.0628 H   0  0  0  0  0  0  0  0  0  0  0  0  # atno 10718 bound_to 10713
  153.8708  135.6831  153.4774 H   0  0  0  0  0  0  0  0  0  0  0  0  # atno 10763 bound_to 10752
  153.1289  135.4707  154.9314 H   0  0  0  0  0  0  0  0  0  0  0  0  # atno 10764 bound_to 10752
  154.7715  135.3240  154.8130 H   0  0  0  0  0  0  0  0  0  0  0  0  # atno 10765 bound_to 10752
  140.3655  134.2079  155.7669 H   0  0  0  0  0  0  0  0  0  0  0  0  # atno 11005 bound_to 11000
  145.1584  140.9660  143.4391 LP  0  0  0  0  0  0  0  0  0  0  0  0  # atno 17320 bound_to 7965
  145.0139  139.3485  143.6106 LP  0  0  0  0  0  0  0  0  0  0  0  0  # atno 17321 bound_to 7965
  140.7691  143.3386  151.2256 LP  0  0  0  0  0  0  0  0  0  0  0  0  # atno 17342 bound_to 10162
  139.6966  143.9603  152.2885 LP  0  0  0  0  0  0  0  0  0  0  0  0  # atno 17343 bound_to 10162
  156.1656  130.3645  149.9238 LP  0  0  0  0  0  0  0  0  0  0  0  0  # atno 17370 bound_to 10713
  156.7225  130.9012  151.3619 LP  0  0  0  0  0  0  0  0  0  0  0  0  # atno 17371 bound_to 10713
  141.1971  133.8067  157.0643 LP  0  0  0  0  0  0  0  0  0  0  0  0  # atno 17394 bound_to 11000
  140.0593  134.9763  157.1276 LP  0  0  0  0  0  0  0  0  0  0  0  0  # atno 17395 bound_to 11000

$$$$
