AV-unprocessed.smi:2153|AV-procd|sdf|8767|dock5
  -GOLD-   2272011543D 1   1.00000     0.00000
 Structure written by MMmdl.
 48 49  0  0  0  0  0  0  0  0  1 V2000
  151.4460  145.1056  158.4805 C   0  0  0  0  0  0  0  0  0  0  0  0
  152.3291  144.3456  159.4828 C   0  0  1  0  0  0  0  0  0  0  0  0
  151.6616  144.2448  160.8709 C   0  0  0  0  0  0  0  0  0  0  0  0
  152.5655  143.5183  161.8802 C   0  0  0  0  0  0  0  0  0  0  0  0
  152.9897  142.1355  161.3624 C   0  0  0  0  0  0  0  0  0  0  0  0
  153.6528  142.2406  159.9807 C   0  0  0  0  0  0  0  0  0  0  0  0
  152.7314  142.9472  158.9617 C   0  0  1  0  0  0  0  0  0  0  0  0
  151.5285  142.2230  158.7322 O   0  0  0  0  0  0  0  0  0  0  0  0
  150.9640  142.3286  157.4346 C   0  0  0  0  0  0  0  0  0  0  0  0
  150.2123  141.0274  157.1151 C   0  0  0  0  0  0  0  0  0  0  0  0
  149.1619  141.2412  156.1236 N   0  0  0  0  0  0  0  0  0  0  0  0
  149.1967  140.7923  154.8589 C   0  0  0  0  0  0  0  0  0  0  0  0
  150.1186  140.1094  154.4099 O   0  0  0  0  0  0  0  0  0  0  0  0
  147.9976  141.1532  153.9730 C   0  0  0  0  0  0  0  0  0  0  0  0
  147.2616  139.9652  153.5212 N   0  0  0  0  0  0  0  0  0  0  0  0
  147.1363  139.7127  152.1671 C   0  0  0  0  0  0  0  0  0  0  0  0
  146.4441  138.6670  151.6651 C   0  0  0  0  0  0  0  0  0  0  0  0
  145.7752  137.7211  152.5495 C   0  0  0  0  0  0  0  0  0  0  0  0
  145.1161  136.7635  152.1417 O   0  0  0  0  0  0  0  0  0  0  0  0
  145.9318  137.9918  153.9283 N   0  0  0  0  0  0  0  0  0  0  0  0
  145.2719  137.0901  154.8494 C   0  0  0  0  0  0  0  0  0  0  0  0
  146.6478  139.0951  154.4482 C   0  0  0  0  0  0  0  0  0  0  0  0
  146.7383  139.3110  155.6585 O   0  0  0  0  0  0  0  0  0  0  0  0
  150.4907  144.6024  158.3277 H   0  0  0  0  0  0  0  0  0  0  0  0
  151.9364  145.1905  157.5106 H   0  0  0  0  0  0  0  0  0  0  0  0
  151.2340  146.1151  158.8327 H   0  0  0  0  0  0  0  0  0  0  0  0
  153.2452  144.9267  159.6011 H   0  0  0  0  0  0  0  0  0  0  0  0
  151.4266  145.2413  161.2461 H   0  0  0  0  0  0  0  0  0  0  0  0
  150.7100  143.7178  160.7882 H   0  0  0  0  0  0  0  0  0  0  0  0
  153.4526  144.1224  162.0738 H   0  0  0  0  0  0  0  0  0  0  0  0
  152.0506  143.4141  162.8347 H   0  0  0  0  0  0  0  0  0  0  0  0
  153.6745  141.6683  162.0704 H   0  0  0  0  0  0  0  0  0  0  0  0
  152.1198  141.4816  161.2977 H   0  0  0  0  0  0  0  0  0  0  0  0
  154.5801  142.8073  160.0741 H   0  0  0  0  0  0  0  0  0  0  0  0
  153.9489  141.2534  159.6283 H   0  0  0  0  0  0  0  0  0  0  0  0
  153.2607  143.0608  158.0142 H   0  0  0  0  0  0  0  0  0  0  0  0
  150.2714  143.1701  157.3941 H   0  0  0  0  0  0  0  0  0  0  0  0
  151.7388  142.5006  156.6876 H   0  0  0  0  0  0  0  0  0  0  0  0
  150.9096  140.2572  156.7812 H   0  0  0  0  0  0  0  0  0  0  0  0
  149.7454  140.6448  158.0226 H   0  0  0  0  0  0  0  0  0  0  0  0
  148.3649  141.7899  156.4118 H   0  0  0  0  0  0  0  0  0  0  0  0
  147.3350  141.8026  154.5466 H   0  0  0  0  0  0  0  0  0  0  0  0
  148.3254  141.7485  153.1186 H   0  0  0  0  0  0  0  0  0  0  0  0
  147.6081  140.3913  151.4713 H   0  0  0  0  0  0  0  0  0  0  0  0
  146.3801  138.5315  150.5955 H   0  0  0  0  0  0  0  0  0  0  0  0
  145.6728  137.2027  155.8567 H   0  0  0  0  0  0  0  0  0  0  0  0
  145.4580  136.0668  154.5185 H   0  0  0  0  0  0  0  0  0  0  0  0
  144.2082  137.3319  154.8217 H   0  0  0  0  0  0  0  0  0  0  0  0
  1  2  1  0  0  0  0
  1 24  1  0  0  0  0
  1 25  1  0  0  0  0
  1 26  1  0  0  0  0
  2  7  1  0  0  0  0
  2  3  1  0  0  0  0
  2 27  1  0  0  0  0
  3  4  1  0  0  0  0
  3 28  1  0  0  0  0
  3 29  1  0  0  0  0
  4  5  1  0  0  0  0
  4 30  1  0  0  0  0
  4 31  1  0  0  0  0
  5  6  1  0  0  0  0
  5 32  1  0  0  0  0
  5 33  1  0  0  0  0
  6  7  1  0  0  0  0
  6 34  1  0  0  0  0
  6 35  1  0  0  0  0
  7  8  1  0  0  0  0
  7 36  1  0  0  0  0
  8  9  1  0  0  0  0
  9 10  1  0  0  0  0
  9 37  1  0  0  0  0
  9 38  1  0  0  0  0
 10 11  1  0  0  0  0
 10 39  1  0  0  0  0
 10 40  1  0  0  0  0
 11 12  1  0  0  0  0
 11 41  1  0  0  0  0
 12 13  2  0  0  0  0
 12 14  1  0  0  0  0
 14 15  1  0  0  0  0
 14 42  1  0  0  0  0
 14 43  1  0  0  0  0
 15 22  1  0  0  0  0
 15 16  1  0  0  0  0
 16 17  2  0  0  0  0
 16 44  1  0  0  0  0
 17 18  1  0  0  0  0
 17 45  1  0  0  0  0
 18 19  2  0  0  0  0
 18 20  1  0  0  0  0
 20 21  1  0  0  0  0
 20 22  1  0  0  0  0
 21 46  1  0  0  0  0
 21 47  1  0  0  0  0
 21 48  1  0  0  0  0
 22 23  2  0  0  0  0
M  END
> <s_m_source_file>
AV-unprocessed.smi

> <i_m_source_file_index>
2153

> <i_lp_mmshare_version>
43012

> <i_f3d_flags>
0

> <s_epik_input>
W0NIM11bQ0BASF0xW0NIMl1bQ0gyXVtDSDJdW0NIMl1bQ0BIXTFPW0NIMl1bQ0gyXVtOSF1DKD1PKVtDSDJdbjJbY0hdW2NIXWMoPU8pbihbQ0gzXSljMj1P

> <s_epik_cmdline>
J2VwaWtfcHl0aG9uJywgJy1waCcsICc3LjAnLCAnLXRuJywgJzgnLCAnLW1hJywgJzIwMCcsICctbWV0YWxfYmluZGluZycsICctaW1hZScsICc8aW5maWxlLm1hZT4nLCAnLW9tYWUnLCAnPG91dGZpbGUubWFlPic=

> <r_lp_tautomer_probability>
1

> <r_epik_Ionization_Penalty>
4.02205e-08

> <r_epik_Ionization_Penalty_Charging>
1.23606e-08

> <r_epik_Ionization_Penalty_Neutral>
2.78599e-08

> <r_epik_State_Penalty>
-0

> <r_epik_Charging_Adjusted_Penalty>
1.23606e-08

> <i_epik_Tot_Q>
0

> <i_epik_Tot_abs_Q>
0

> <r_epik_Metal_State_Penalty>
-0

> <b_epik_Metal_Only>
0

> <s_lp_Force_Field>
OPLS_2005

> <r_lp_Energy>
16.8304

> <b_lp_Chiralities_Consistent>
1

> <s_lp_Variant>
AV-unprocessed.smi:2153-2

> <Gold.Version>
5.8.1

> <Gold.Id.Protein>
6NUR|6NUR_protein|mol2

> <Gold.PLP.Fitness>
52.7194

> <Gold.PLP.PLP>
-49.2381

> <Gold.PLP.part.hbond>
-1.0000

> <Gold.PLP.part.metal>
0.0000

> <Gold.PLP.part.buried>
-3.2224

> <Gold.PLP.part.nonpolar>
-47.2487

> <Gold.PLP.part.repulsive>
0.4103

> <Gold.PLP.ligand.clash>
0.0000

> <Gold.PLP.ligand.torsion>
0.7747

> <Gold.PLP.Chemscore.Hbond>
1.0000

> <Gold.PLP.Chemscore.CHOScore>
0.6162

> <Gold.PLP.Chemscore.Metal>
0.0000

> <Gold.Chemscore.Hbonds>
donor molecule, donor type, donor heavy atom, donor atom, acceptor molecule, acceptor atom, score
      P1  H  7989  7998       L1    13  1.00
      L1  C    16    44       P1  7957  0.68

> <Gold.PLP.Chemscore.Internal.Correction>
0.1821

> <Gold.Rescore>
     Score         DG    S(hbond)    S(metal)    S(lipo)     H(rot)  DE(clash)    DE(int)     intcor
     15.32     -17.92       0.95        0.00     127.25       2.20       1.54       1.06       ----

> <Gold.Chemscore.Fitness>
15.3241

> <Gold.Chemscore.DG>
-17.9150

> <Gold.Chemscore.ZeroCoef>
-5.4800

> <Gold.Chemscore.Hbond>
0.9492

> <Gold.Chemscore.Metal>
0.0000

> <Gold.Chemscore.Lipo>
127.2513

> <Gold.Chemscore.Internal_Hbond>
0.0000

> <Gold.Chemscore.DEClash>
1.5356

> <Gold.Chemscore.DEInternal>
1.0553

> <Gold.Chemscore.Rot>
2.1968

> <Gold.Chemscore.Internal.Correction>
   9.000000E+99

> <Gold.Chemscore.Hbonds>
donor molecule, donor type, donor heavy atom, donor atom, acceptor molecule, acceptor atom, score
      P1  H  7989  7998       L1    13  0.96

> <Gold.Chemscore.Hbond.Weighted>
-3.1704

> <Gold.Chemscore.Metal.Weighted>
-0.0000

> <Gold.Chemscore.Lipo.Weighted>
-14.8884

> <Gold.Chemscore.Internal_Hbond.Weighted>
0.0000

> <Gold.Chemscore.DEClash.Weighted>
1.5356

> <Gold.Chemscore.DEInternal.Weighted>
1.0553

> <Gold.Chemscore.Rot.Weighted>
5.6238

> <Gold.Chemscore.Internal.Correction.Weighted>
   9.000000E+99

> <Gold.Protein.RotatedTorsions>
[ 6907 6896 6895 6894 ] final  -20.62 input  -60.11 | X-H torsion
[ 7974 7965 7964 7962 ] final   78.93 input  175.53 | X-H torsion
[ 8008 7997 7996 7995 ] final  -79.13 input   59.86 | X-H torsion
[ 10167 10162 10161 10158 ] final  -34.73 input  -65.29 | X-H torsion
[ 10718 10713 10712 10709 ] final -161.66 input   66.30 | X-H torsion
[ 10763 10752 10751 10750 ] final  -51.36 input  -60.55 | X-H torsion
[ 11005 11000 10999 10996 ] final  -94.27 input  -57.11 | X-H torsion

> <Gold.Protein.ActiveResidues>
 VAL166  LYS551  ARG553  GLY616  TRP617  ASP618  TYR619  PRO620  LYS621  CYS622 
 ASP623  PHE694  ASN695  SER759  ASP760  ASP761  ALA762  ILE779  LEU786  VAL792 
 PHE793  MET794  SER795  GLU796  ALA797  LYS798  CYS799  TRP800  GLU811  SER814 

> <Gold.Protein.RotatedAtoms>
  151.2454  135.0603  159.9041 H   0  0  0  0  0  0  0  0  0  0  0  0  # atno 6907 bound_to 6896
  152.5387  134.0389  159.8069 H   0  0  0  0  0  0  0  0  0  0  0  0  # atno 6908 bound_to 6896
  151.0589  133.5512  159.2667 H   0  0  0  0  0  0  0  0  0  0  0  0  # atno 6909 bound_to 6896
  145.6708  139.2496  143.1869 H   0  0  0  0  0  0  0  0  0  0  0  0  # atno 7974 bound_to 7965
  154.5756  140.0683  156.9029 H   0  0  0  0  0  0  0  0  0  0  0  0  # atno 8008 bound_to 7997
  155.2555  140.3355  155.4260 H   0  0  0  0  0  0  0  0  0  0  0  0  # atno 8009 bound_to 7997
  156.2151  140.1775  156.7592 H   0  0  0  0  0  0  0  0  0  0  0  0  # atno 8010 bound_to 7997
  140.7180  143.3527  151.2122 H   0  0  0  0  0  0  0  0  0  0  0  0  # atno 10167 bound_to 10162
  156.5994  130.8804  151.2910 H   0  0  0  0  0  0  0  0  0  0  0  0  # atno 10718 bound_to 10713
  154.1253  135.6528  153.4911 H   0  0  0  0  0  0  0  0  0  0  0  0  # atno 10763 bound_to 10752
  153.0212  135.5280  154.7056 H   0  0  0  0  0  0  0  0  0  0  0  0  # atno 10764 bound_to 10752
  154.6275  135.2972  155.0225 H   0  0  0  0  0  0  0  0  0  0  0  0  # atno 10765 bound_to 10752
  141.1475  133.7944  157.0274 H   0  0  0  0  0  0  0  0  0  0  0  0  # atno 11005 bound_to 11000
  146.1047  140.7501  142.9532 LP  0  0  0  0  0  0  0  0  0  0  0  0  # atno 17320 bound_to 7965
  144.7057  140.3843  143.7120 LP  0  0  0  0  0  0  0  0  0  0  0  0  # atno 17321 bound_to 7965
  139.7062  143.9452  152.2927 LP  0  0  0  0  0  0  0  0  0  0  0  0  # atno 17342 bound_to 10162
  139.9161  144.6827  150.8510 LP  0  0  0  0  0  0  0  0  0  0  0  0  # atno 17343 bound_to 10162
  157.7283  130.9655  150.1737 LP  0  0  0  0  0  0  0  0  0  0  0  0  # atno 17370 bound_to 10713
  156.2482  130.3698  149.8262 LP  0  0  0  0  0  0  0  0  0  0  0  0  # atno 17371 bound_to 10713
  140.0776  134.9667  157.1571 LP  0  0  0  0  0  0  0  0  0  0  0  0  # atno 17394 bound_to 11000
  140.3622  134.2482  155.7186 LP  0  0  0  0  0  0  0  0  0  0  0  0  # atno 17395 bound_to 11000

$$$$
