AV-unprocessed.smi:2766|AV-procd|sdf|10645|dock5
  -GOLD-   2272015 93D 1   1.00000     0.00000
 Structure written by MMmdl.
 32 33  0  0  0  0  0  0  0  0  1 V2000
  146.9134  141.4800  154.5572 C   0  0  0  0  0  0  0  0  0  0  0  0
  148.0532  141.6474  155.3816 O   0  0  0  0  0  0  0  0  0  0  0  0
  149.2643  141.3556  154.7035 C   0  0  0  0  0  0  0  0  0  0  0  0
  150.4389  141.4811  155.6875 C   0  0  1  0  0  0  0  0  0  0  0  0
  150.4289  142.7877  156.2280 O   0  0  0  0  0  0  0  0  0  0  0  0
  150.3406  140.4495  156.8324 C   0  0  0  0  0  0  0  0  0  0  0  0
  151.5431  140.3874  157.6549 N   0  0  0  0  0  0  0  0  0  0  0  0
  152.5015  139.4236  157.6754 C   0  0  0  0  0  0  0  0  0  0  0  0
  152.4255  138.1903  156.8171 C   0  0  0  0  0  0  0  0  0  0  0  0
  152.4184  138.5107  155.5221 F   0  0  0  0  0  0  0  0  0  0  0  0
  153.4796  137.4047  157.0375 F   0  0  0  0  0  0  0  0  0  0  0  0
  151.3160  137.4965  157.0664 F   0  0  0  0  0  0  0  0  0  0  0  0
  153.4994  139.6238  158.5399 N   0  0  0  0  0  0  0  0  0  0  0  0
  153.1564  140.8203  159.1358 C   0  0  0  0  0  0  0  0  0  0  0  0
  153.8134  141.5658  160.1408 C   0  0  0  0  0  0  0  0  0  0  0  0
  153.2602  142.7756  160.6088 C   0  0  0  0  0  0  0  0  0  0  0  0
  152.0444  143.2555  160.0802 C   0  0  0  0  0  0  0  0  0  0  0  0
  151.3746  142.5280  159.0776 C   0  0  0  0  0  0  0  0  0  0  0  0
  151.9327  141.3221  158.6108 C   0  0  0  0  0  0  0  0  0  0  0  0
  151.3767  141.3376  155.1511 H   0  0  0  0  0  0  0  0  0  0  0  0
  146.0137  141.7200  155.1236 H   0  0  0  0  0  0  0  0  0  0  0  0
  146.8270  140.4497  154.2097 H   0  0  0  0  0  0  0  0  0  0  0  0
  146.9514  142.1408  153.6902 H   0  0  0  0  0  0  0  0  0  0  0  0
  149.2376  140.3649  154.2456 H   0  0  0  0  0  0  0  0  0  0  0  0
  149.3828  142.0802  153.8961 H   0  0  0  0  0  0  0  0  0  0  0  0
  149.8226  143.3146  155.7309 H   0  0  0  0  0  0  0  0  0  0  0  0
  149.4934  140.6842  157.4783 H   0  0  0  0  0  0  0  0  0  0  0  0
  150.1391  139.4580  156.4283 H   0  0  0  0  0  0  0  0  0  0  0  0
  154.7438  141.2048  160.5535 H   0  0  0  0  0  0  0  0  0  0  0  0
  153.7703  143.3371  161.3777 H   0  0  0  0  0  0  0  0  0  0  0  0
  151.6266  144.1826  160.4444 H   0  0  0  0  0  0  0  0  0  0  0  0
  150.4440  142.8945  158.6708 H   0  0  0  0  0  0  0  0  0  0  0  0
  1  2  1  0  0  0  0
  1 21  1  0  0  0  0
  1 22  1  0  0  0  0
  1 23  1  0  0  0  0
  2  3  1  0  0  0  0
  3  4  1  0  0  0  0
  3 24  1  0  0  0  0
  3 25  1  0  0  0  0
  4 20  1  0  0  0  0
  4  5  1  0  0  0  0
  4  6  1  0  0  0  0
  5 26  1  0  0  0  0
  6  7  1  0  0  0  0
  6 27  1  0  0  0  0
  6 28  1  0  0  0  0
  7 19  1  0  0  0  0
  7  8  1  0  0  0  0
  8  9  1  0  0  0  0
  8 13  2  0  0  0  0
  9 10  1  0  0  0  0
  9 11  1  0  0  0  0
  9 12  1  0  0  0  0
 13 14  1  0  0  0  0
 14 19  2  0  0  0  0
 14 15  1  0  0  0  0
 15 16  2  0  0  0  0
 15 29  1  0  0  0  0
 16 17  1  0  0  0  0
 16 30  1  0  0  0  0
 17 18  2  0  0  0  0
 17 31  1  0  0  0  0
 18 19  1  0  0  0  0
 18 32  1  0  0  0  0
M  END
> <s_m_source_file>
AV-unprocessed.smi

> <i_m_source_file_index>
2766

> <i_lp_mmshare_version>
43012

> <i_f3d_flags>
0

> <s_epik_input>
W0NIM11PW0NIMl1bQ0BASF0oW09IXSlbQ0gyXW4oYyhuMSlDKEYpKEYpRiljKGMxMilbY0hdW2NIXVtjSF1bY0hdMg==

> <s_epik_cmdline>
J2VwaWtfcHl0aG9uJywgJy1waCcsICc3LjAnLCAnLXRuJywgJzgnLCAnLW1hJywgJzIwMCcsICctbWV0YWxfYmluZGluZycsICctaW1hZScsICc8aW5maWxlLm1hZT4nLCAnLW9tYWUnLCAnPG91dGZpbGUubWFlPic=

> <r_epik_Ionization_Penalty>
0.00044827

> <r_epik_Ionization_Penalty_Charging>
0

> <r_epik_Ionization_Penalty_Neutral>
0.00044827

> <r_epik_State_Penalty>
0.000276591

> <r_epik_Charging_Adjusted_Penalty>
0.000276591

> <i_epik_Tot_Q>
0

> <i_epik_Tot_abs_Q>
0

> <r_epik_Metal_State_Penalty>
-0

> <b_epik_Metal_Only>
0

> <s_lp_Force_Field>
OPLS_2005

> <r_lp_Energy>
13.5685

> <b_lp_Chiralities_Consistent>
1

> <s_lp_Variant>
AV-unprocessed.smi:2766-1

> <Gold.Version>
5.8.1

> <Gold.Id.Protein>
6NUR|6NUR_protein|mol2

> <Gold.PLP.Fitness>
41.2108

> <Gold.PLP.PLP>
-35.6641

> <Gold.PLP.part.hbond>
-1.7662

> <Gold.PLP.part.metal>
0.0000

> <Gold.PLP.part.buried>
-4.9731

> <Gold.PLP.part.nonpolar>
-29.5385

> <Gold.PLP.part.repulsive>
0.6947

> <Gold.PLP.ligand.clash>
0.0000

> <Gold.PLP.ligand.torsion>
0.2393

> <Gold.PLP.Chemscore.Hbond>
2.0000

> <Gold.PLP.Chemscore.CHOScore>
0.0000

> <Gold.PLP.Chemscore.Metal>
0.0000

> <Gold.Chemscore.Hbonds>
donor molecule, donor type, donor heavy atom, donor atom, acceptor molecule, acceptor atom, score
      L1  H     5    26       P1  8028  0.94
      P1  H  7997  8010       L1    13  0.90

> <Gold.PLP.Chemscore.Internal.Correction>
0.0253

> <Gold.Rescore>
     Score         DG    S(hbond)    S(metal)    S(lipo)     H(rot)  DE(clash)    DE(int)     intcor
     13.02     -13.45       1.03        0.00      89.42       2.32       0.10       0.33       ----

> <Gold.Chemscore.Fitness>
13.0213

> <Gold.Chemscore.DG>
-13.4486

> <Gold.Chemscore.ZeroCoef>
-5.4800

> <Gold.Chemscore.Hbond>
1.0290

> <Gold.Chemscore.Metal>
0.0000

> <Gold.Chemscore.Lipo>
89.4167

> <Gold.Chemscore.Internal_Hbond>
0.0000

> <Gold.Chemscore.DEClash>
0.0994

> <Gold.Chemscore.DEInternal>
0.3278

> <Gold.Chemscore.Rot>
2.3164

> <Gold.Chemscore.Internal.Correction>
   9.000000E+99

> <Gold.Chemscore.Hbonds>
donor molecule, donor type, donor heavy atom, donor atom, acceptor molecule, acceptor atom, score
      L1  H     5    26       P1  8028  0.91
      P1  H  7997  8010       L1    13  0.10

> <Gold.Chemscore.Hbond.Weighted>
-3.4367

> <Gold.Chemscore.Metal.Weighted>
-0.0000

> <Gold.Chemscore.Lipo.Weighted>
-10.4617

> <Gold.Chemscore.Internal_Hbond.Weighted>
0.0000

> <Gold.Chemscore.DEClash.Weighted>
0.0994

> <Gold.Chemscore.DEInternal.Weighted>
0.3278

> <Gold.Chemscore.Rot.Weighted>
5.9299

> <Gold.Chemscore.Internal.Correction.Weighted>
   9.000000E+99

> <Gold.Protein.RotatedTorsions>
[ 6907 6896 6895 6894 ] final  -91.68 input  -60.11 | X-H torsion
[ 7974 7965 7964 7962 ] final -120.49 input  175.53 | X-H torsion
[ 8008 7997 7996 7995 ] final   11.23 input   59.86 | X-H torsion
[ 10167 10162 10161 10158 ] final  110.27 input  -65.29 | X-H torsion
[ 10718 10713 10712 10709 ] final  -10.87 input   66.30 | X-H torsion
[ 10763 10752 10751 10750 ] final   58.97 input  -60.55 | X-H torsion
[ 11005 11000 10999 10996 ] final -114.24 input  -57.11 | X-H torsion

> <Gold.Protein.ActiveResidues>
 VAL166  LYS551  ARG553  GLY616  TRP617  ASP618  TYR619  PRO620  LYS621  CYS622 
 ASP623  PHE694  ASN695  SER759  ASP760  ASP761  ALA762  ILE779  LEU786  VAL792 
 PHE793  MET794  SER795  GLU796  ALA797  LYS798  CYS799  TRP800  GLU811  SER814 

> <Gold.Protein.RotatedAtoms>
  150.6896  134.2239  159.4407 H   0  0  0  0  0  0  0  0  0  0  0  0  # atno 6907 bound_to 6896
  152.0194  134.9829  160.0579 H   0  0  0  0  0  0  0  0  0  0  0  0  # atno 6908 bound_to 6896
  152.1412  133.4430  159.4805 H   0  0  0  0  0  0  0  0  0  0  0  0  # atno 6909 bound_to 6896
  145.0508  140.8216  143.4211 H   0  0  0  0  0  0  0  0  0  0  0  0  # atno 7974 bound_to 7965
  154.8041  140.2857  155.5900 H   0  0  0  0  0  0  0  0  0  0  0  0  # atno 8008 bound_to 7997
  156.2981  140.2581  156.2845 H   0  0  0  0  0  0  0  0  0  0  0  0  # atno 8009 bound_to 7997
  154.9523  140.0379  157.2139 H   0  0  0  0  0  0  0  0  0  0  0  0  # atno 8010 bound_to 7997
  139.6701  144.7125  151.1704 H   0  0  0  0  0  0  0  0  0  0  0  0  # atno 10167 bound_to 10162
  156.6673  130.4999  149.6011 H   0  0  0  0  0  0  0  0  0  0  0  0  # atno 10718 bound_to 10713
  152.9883  135.5588  154.5638 H   0  0  0  0  0  0  0  0  0  0  0  0  # atno 10763 bound_to 10752
  154.5051  135.2799  155.1391 H   0  0  0  0  0  0  0  0  0  0  0  0  # atno 10764 bound_to 10752
  154.2805  135.6345  153.5398 H   0  0  0  0  0  0  0  0  0  0  0  0  # atno 10765 bound_to 10752
  141.0564  133.9606  157.2746 H   0  0  0  0  0  0  0  0  0  0  0  0  # atno 11005 bound_to 11000
  145.1530  139.2503  143.5431 LP  0  0  0  0  0  0  0  0  0  0  0  0  # atno 17320 bound_to 7965
  146.3517  140.1238  142.8599 LP  0  0  0  0  0  0  0  0  0  0  0  0  # atno 17321 bound_to 7965
  140.7615  143.5857  150.8848 LP  0  0  0  0  0  0  0  0  0  0  0  0  # atno 17342 bound_to 10162
  139.9522  143.6259  152.3026 LP  0  0  0  0  0  0  0  0  0  0  0  0  # atno 17343 bound_to 10162
  156.1965  130.6593  151.1120 LP  0  0  0  0  0  0  0  0  0  0  0  0  # atno 17370 bound_to 10713
  157.7089  131.0743  150.6570 LP  0  0  0  0  0  0  0  0  0  0  0  0  # atno 17371 bound_to 10713
  139.9394  135.0193  156.8659 LP  0  0  0  0  0  0  0  0  0  0  0  0  # atno 17394 bound_to 11000
  140.5956  134.0221  155.7516 LP  0  0  0  0  0  0  0  0  0  0  0  0  # atno 17395 bound_to 11000

$$$$
