AV-unprocessed.smi:196|AV-procd|sdf|1530|dock9
  -GOLD-   2262019383D 1   1.00000     0.00000
 Structure written by MMmdl.
 47 50  0  0  0  0  0  0  0  0  1 V2000
  150.3086  141.4558  155.3677 C   0  0  0  0  0  0  0  0  0  0  0  0
  150.5683  139.9407  155.4044 C   0  0  2  0  0  0  0  0  0  0  0  0
  151.7745  139.6258  154.7233 O   0  0  0  0  0  0  0  0  0  0  0  0
  151.7397  138.2403  154.4333 C   0  0  0  0  0  0  0  0  0  0  0  0
  150.3157  138.0422  153.9300 C   0  0  0  0  0  0  0  0  0  0  0  0
  149.4899  139.0241  154.7664 C   0  0  2  0  0  0  0  0  0  0  0  0
  148.6397  139.7442  153.8892 O   0  0  0  0  0  0  0  0  0  0  0  0
  148.6102  138.2967  155.8142 C   0  0  0  0  0  0  0  0  0  0  0  0
  147.7730  137.2503  155.2464 N   0  0  0  0  0  0  0  0  0  0  0  0
  147.7445  135.9244  155.6149 C   0  0  0  0  0  0  0  0  0  0  0  0
  146.8914  135.1841  154.9621 N   0  0  0  0  0  0  0  0  0  0  0  0
  146.2987  136.0594  154.0586 C   0  0  0  0  0  0  0  0  0  0  0  0
  145.2927  135.9256  153.0576 C   0  0  0  0  0  0  0  0  0  0  0  0
  144.6634  134.7504  152.7832 N   0  0  0  0  0  0  0  0  0  0  0  0
  145.4571  133.6386  152.2695 C   0  0  0  0  0  0  0  0  0  0  0  0
  144.5663  132.9254  151.2530 C   0  0  2  0  0  0  0  0  0  0  0  0
  144.7676  133.4478  150.0420 F   0  0  0  0  0  0  0  0  0  0  0  0
  143.1570  133.2643  151.7254 C   0  0  0  0  0  0  0  0  0  0  0  0
  143.2861  134.6952  152.2727 C   0  0  1  0  0  0  0  0  0  0  0  0
  142.1894  134.9849  153.3171 C   0  0  0  0  0  0  0  0  0  0  0  0
  141.9647  134.0890  154.2841 N   0  0  0  0  0  0  0  0  0  0  0  0
  141.5447  136.0291  153.2466 O   0  0  0  0  0  0  0  0  0  0  0  0
  144.9518  137.0461  152.3674 N   0  0  0  0  0  0  0  0  0  0  0  0
  145.5551  138.2106  152.6213 C   0  0  0  0  0  0  0  0  0  0  0  0
  146.5070  138.4784  153.5162 N   0  0  0  0  0  0  0  0  0  0  0  0
  146.8465  137.3636  154.2241 C   0  0  0  0  0  0  0  0  0  0  0  0
  144.7584  131.8543  151.1858 H   0  0  0  0  0  0  0  0  0  0  0  0
  143.1795  135.3964  151.4431 H   0  0  0  0  0  0  0  0  0  0  0  0
  149.3769  141.7076  155.8747 H   0  0  0  0  0  0  0  0  0  0  0  0
  150.2481  141.8279  154.3447 H   0  0  0  0  0  0  0  0  0  0  0  0
  151.1127  141.9975  155.8658 H   0  0  0  0  0  0  0  0  0  0  0  0
  150.7270  139.6427  156.4416 H   0  0  0  0  0  0  0  0  0  0  0  0
  152.4913  137.9624  153.6944 H   0  0  0  0  0  0  0  0  0  0  0  0
  151.9187  137.6664  155.3438 H   0  0  0  0  0  0  0  0  0  0  0  0
  150.2818  138.3052  152.8710 H   0  0  0  0  0  0  0  0  0  0  0  0
  149.9846  137.0069  154.0180 H   0  0  0  0  0  0  0  0  0  0  0  0
  149.1273  139.9648  153.1104 H   0  0  0  0  0  0  0  0  0  0  0  0
  149.2340  137.8521  156.5911 H   0  0  0  0  0  0  0  0  0  0  0  0
  147.9610  139.0129  156.3200 H   0  0  0  0  0  0  0  0  0  0  0  0
  148.3727  135.5206  156.3952 H   0  0  0  0  0  0  0  0  0  0  0  0
  146.3965  133.9553  151.8127 H   0  0  0  0  0  0  0  0  0  0  0  0
  145.6935  132.9727  153.1002 H   0  0  0  0  0  0  0  0  0  0  0  0
  142.4163  133.1825  150.9290 H   0  0  0  0  0  0  0  0  0  0  0  0
  142.8694  132.5706  152.5178 H   0  0  0  0  0  0  0  0  0  0  0  0
  141.2457  134.2610  154.9717 H   0  0  0  0  0  0  0  0  0  0  0  0
  142.5108  133.2408  154.3190 H   0  0  0  0  0  0  0  0  0  0  0  0
  145.2268  139.0470  152.0221 H   0  0  0  0  0  0  0  0  0  0  0  0
  1  2  1  0  0  0  0
  1 29  1  0  0  0  0
  1 30  1  0  0  0  0
  1 31  1  0  0  0  0
  2  6  1  0  0  0  0
  2  3  1  0  0  0  0
  2 32  1  0  0  0  0
  3  4  1  0  0  0  0
  4  5  1  0  0  0  0
  4 33  1  0  0  0  0
  4 34  1  0  0  0  0
  5  6  1  0  0  0  0
  5 35  1  0  0  0  0
  5 36  1  0  0  0  0
  6  7  1  0  0  0  0
  6  8  1  0  0  0  0
  7 37  1  0  0  0  0
  8  9  1  0  0  0  0
  8 38  1  0  0  0  0
  8 39  1  0  0  0  0
  9 26  1  0  0  0  0
  9 10  1  0  0  0  0
 10 11  2  0  0  0  0
 10 40  1  0  0  0  0
 11 12  1  0  0  0  0
 12 26  2  0  0  0  0
 12 13  1  0  0  0  0
 13 14  1  0  0  0  0
 13 23  2  0  0  0  0
 14 19  1  0  0  0  0
 14 15  1  0  0  0  0
 15 16  1  0  0  0  0
 15 41  1  0  0  0  0
 15 42  1  0  0  0  0
 16 27  1  0  0  0  0
 16 17  1  0  0  0  0
 16 18  1  0  0  0  0
 18 19  1  0  0  0  0
 18 43  1  0  0  0  0
 18 44  1  0  0  0  0
 19 28  1  0  0  0  0
 19 20  1  0  0  0  0
 20 21  1  0  0  0  0
 20 22  2  0  0  0  0
 21 45  1  0  0  0  0
 21 46  1  0  0  0  0
 23 24  1  0  0  0  0
 24 25  2  0  0  0  0
 24 47  1  0  0  0  0
 25 26  1  0  0  0  0
M  END
> <s_m_source_file>
AV-unprocessed.smi

> <i_m_source_file_index>
196

> <i_lp_mmshare_version>
43012

> <i_f3d_flags>
0

> <s_epik_input>
W0NIMl0xW0NIMl1PW0NAQEhdKFtDSDNdKVtDQEBdMShbT0hdKVtDSDJdbihbY0hdbjIpYyhjMjMpbltjSF1uYzNONFtDSDJdW0NASF0oRilbQ0gyXVtDQEhdNEMoPU8pW05IMl0=

> <s_epik_cmdline>
J2VwaWtfcHl0aG9uJywgJy1waCcsICc3LjAnLCAnLXRuJywgJzgnLCAnLW1hJywgJzIwMCcsICctbWV0YWxfYmluZGluZycsICctaW1hZScsICc8aW5maWxlLm1hZT4nLCAnLW9tYWUnLCAnPG91dGZpbGUubWFlPic=

> <r_lp_tautomer_probability>
1

> <r_epik_Ionization_Penalty>
0.000857933

> <r_epik_Ionization_Penalty_Charging>
0

> <r_epik_Ionization_Penalty_Neutral>
0.000857933

> <r_epik_State_Penalty>
0.000462053

> <r_epik_Charging_Adjusted_Penalty>
0.000462053

> <i_epik_Tot_Q>
0

> <i_epik_Tot_abs_Q>
0

> <r_epik_Metal_State_Penalty>
-0

> <b_epik_Metal_Only>
0

> <s_lp_Force_Field>
OPLS_2005

> <r_lp_Energy>
46.3924

> <b_lp_Chiralities_Consistent>
1

> <s_lp_Variant>
AV-unprocessed.smi:196-3

> <Gold.Version>
5.8.1

> <Gold.Id.Protein>
6NUR|6NUR_protein|mol2

> <Gold.PLP.Fitness>
45.0279

> <Gold.PLP.PLP>
-30.3988

> <Gold.PLP.part.hbond>
-3.8782

> <Gold.PLP.part.metal>
0.0000

> <Gold.PLP.part.buried>
-1.1602

> <Gold.PLP.part.nonpolar>
-26.2581

> <Gold.PLP.part.repulsive>
0.7707

> <Gold.PLP.ligand.clash>
0.0283

> <Gold.PLP.ligand.torsion>
1.0780

> <Gold.PLP.Chemscore.Hbond>
3.8920

> <Gold.PLP.Chemscore.CHOScore>
1.6196

> <Gold.PLP.Chemscore.Metal>
0.0000

> <Gold.Chemscore.Hbonds>
donor molecule, donor type, donor heavy atom, donor atom, acceptor molecule, acceptor atom, score
      L1  H     7    37       P1  7957  1.00
      L1  H    21    45       P1 11000  1.00
      L1  H    21    46       P1 10957  0.96
      P1  H  7989  7998       L1     3  0.85
      L1  C    24    47       P1 10171  0.63
      L1  C    24    47       P1 10175  0.98

> <Gold.PLP.Chemscore.Internal.Correction>
0.2787

> <Gold.Rescore>
     Score         DG    S(hbond)    S(metal)    S(lipo)     H(rot)  DE(clash)    DE(int)     intcor
     12.37     -17.52       3.47        0.00      60.55       2.60       0.90       4.25       ----

> <Gold.Chemscore.Fitness>
12.3723

> <Gold.Chemscore.DG>
-17.5188

> <Gold.Chemscore.ZeroCoef>
-5.4800

> <Gold.Chemscore.Hbond>
3.4737

> <Gold.Chemscore.Metal>
0.0000

> <Gold.Chemscore.Lipo>
60.5506

> <Gold.Chemscore.Internal_Hbond>
0.0000

> <Gold.Chemscore.DEClash>
0.8989

> <Gold.Chemscore.DEInternal>
4.2476

> <Gold.Chemscore.Rot>
2.5968

> <Gold.Chemscore.Internal.Correction>
   9.000000E+99

> <Gold.Chemscore.Hbonds>
donor molecule, donor type, donor heavy atom, donor atom, acceptor molecule, acceptor atom, score
      L1  H     7    37       P1  7957  0.95
      L1  H    21    45       P1 11000  0.81
      L1  H    21    46       P1 10957  0.87
      P1  H  7989  7998       L1     3  0.14

> <Gold.Chemscore.Hbond.Weighted>
-11.6021

> <Gold.Chemscore.Metal.Weighted>
-0.0000

> <Gold.Chemscore.Lipo.Weighted>
-7.0844

> <Gold.Chemscore.Internal_Hbond.Weighted>
0.0000

> <Gold.Chemscore.DEClash.Weighted>
0.8989

> <Gold.Chemscore.DEInternal.Weighted>
4.2476

> <Gold.Chemscore.Rot.Weighted>
6.6477

> <Gold.Chemscore.Internal.Correction.Weighted>
   9.000000E+99

> <Gold.Protein.RotatedTorsions>
[ 6907 6896 6895 6894 ] final -122.80 input  -60.11 | X-H torsion
[ 7974 7965 7964 7962 ] final -102.88 input  175.53 | X-H torsion
[ 8008 7997 7996 7995 ] final   77.95 input   59.86 | X-H torsion
[ 10167 10162 10161 10158 ] final  -28.90 input  -65.29 | X-H torsion
[ 10718 10713 10712 10709 ] final   12.98 input   66.30 | X-H torsion
[ 10763 10752 10751 10750 ] final  144.47 input  -60.55 | X-H torsion
[ 11005 11000 10999 10996 ] final -133.00 input  -57.11 | X-H torsion

> <Gold.Protein.ActiveResidues>
 VAL166  LYS551  ARG553  GLY616  TRP617  ASP618  TYR619  PRO620  LYS621  CYS622 
 ASP623  PHE694  ASN695  SER759  ASP760  ASP761  ALA762  ILE779  LEU786  VAL792 
 PHE793  MET794  SER795  GLU796  ALA797  LYS798  CYS799  TRP800  GLU811  SER814 

> <Gold.Protein.RotatedAtoms>
  150.8610  133.7643  159.2992 H   0  0  0  0  0  0  0  0  0  0  0  0  # atno 6907 bound_to 6896
  151.5285  135.1066  159.9906 H   0  0  0  0  0  0  0  0  0  0  0  0  # atno 6908 bound_to 6896
  152.4626  133.7811  159.6907 H   0  0  0  0  0  0  0  0  0  0  0  0  # atno 6909 bound_to 6896
  145.2631  140.9275  143.3029 H   0  0  0  0  0  0  0  0  0  0  0  0  # atno 7974 bound_to 7965
  155.8488  140.3459  155.5680 H   0  0  0  0  0  0  0  0  0  0  0  0  # atno 8008 bound_to 7997
  155.8060  140.0892  157.1950 H   0  0  0  0  0  0  0  0  0  0  0  0  # atno 8009 bound_to 7997
  154.4007  140.1456  156.3318 H   0  0  0  0  0  0  0  0  0  0  0  0  # atno 8010 bound_to 7997
  140.7265  143.3972  151.1327 H   0  0  0  0  0  0  0  0  0  0  0  0  # atno 10167 bound_to 10162
  157.0180  130.6143  149.5717 H   0  0  0  0  0  0  0  0  0  0  0  0  # atno 10718 bound_to 10713
  153.9895  135.2933  155.3413 H   0  0  0  0  0  0  0  0  0  0  0  0  # atno 10763 bound_to 10752
  154.7223  135.5104  153.8834 H   0  0  0  0  0  0  0  0  0  0  0  0  # atno 10764 bound_to 10752
  153.0816  135.6681  154.0149 H   0  0  0  0  0  0  0  0  0  0  0  0  # atno 10765 bound_to 10752
  140.9120  134.1556  157.4382 H   0  0  0  0  0  0  0  0  0  0  0  0  # atno 11005 bound_to 11000
  144.9401  139.4199  143.6453 LP  0  0  0  0  0  0  0  0  0  0  0  0  # atno 17320 bound_to 7965
  146.3269  139.8356  142.8900 LP  0  0  0  0  0  0  0  0  0  0  0  0  # atno 17321 bound_to 7965
  139.7586  143.8669  152.3095 LP  0  0  0  0  0  0  0  0  0  0  0  0  # atno 17342 bound_to 10162
  139.8548  144.7147  150.9171 LP  0  0  0  0  0  0  0  0  0  0  0  0  # atno 17343 bound_to 10162
  156.0112  130.5204  150.7994 LP  0  0  0  0  0  0  0  0  0  0  0  0  # atno 17370 bound_to 10713
  157.5271  131.0934  151.0004 LP  0  0  0  0  0  0  0  0  0  0  0  0  # atno 17371 bound_to 10713
  139.8759  134.9939  156.5667 LP  0  0  0  0  0  0  0  0  0  0  0  0  # atno 17394 bound_to 11000
  140.8098  133.8438  155.8800 LP  0  0  0  0  0  0  0  0  0  0  0  0  # atno 17395 bound_to 11000

$$$$
