AV-unprocessed.smi:373|AV-procd|sdf|2450|dock5
  -GOLD-   2262022393D 1   1.00000     0.00000
 Structure written by MMmdl.
 40 41  0  0  0  0  0  0  0  0  1 V2000
  152.1471  145.4101  159.2935 C   0  0  0  0  0  0  0  0  0  0  0  0
  151.3187  144.1344  159.0996 C   0  0  0  0  0  0  0  0  0  0  0  0
  151.6028  143.4320  157.7658 C   0  0  0  0  0  0  0  0  0  0  0  0
  150.5041  142.5933  157.4376 O   0  0  0  0  0  0  0  0  0  0  0  0
  150.7253  141.7370  156.3249 C   0  0  1  0  0  0  0  0  0  0  0  0
  151.8804  140.7902  156.6941 C   0  0  0  0  0  0  0  0  0  0  0  0
  152.1163  139.7666  155.5726 C   0  0  0  0  0  0  0  0  0  0  0  0
  150.8206  139.0090  155.2407 C   0  0  0  0  0  0  0  0  0  0  0  0
  149.7394  139.9425  154.9342 N   0  0  0  0  0  0  0  0  0  0  0  0
  148.6256  139.3214  154.3399 C   0  0  0  0  0  0  0  0  0  0  0  0
  148.5648  137.9681  154.3757 N   0  0  0  0  0  0  0  0  0  0  0  0
  147.5193  137.3481  153.7896 C   0  0  0  0  0  0  0  0  0  0  0  0
  146.4781  138.0348  153.1263 C   0  0  0  0  0  0  0  0  0  0  0  0
  145.3201  137.3079  152.5062 C   0  0  0  0  0  0  0  0  0  0  0  0
  144.2365  138.0428  152.2371 N   0  0  0  0  0  0  0  0  0  0  0  0
  145.3576  136.0942  152.3131 O   0  0  0  0  0  0  0  0  0  0  0  0
  146.5345  139.4444  153.1050 C   0  0  0  0  0  0  0  0  0  0  0  0
  147.6219  140.1014  153.7134 C   0  0  0  0  0  0  0  0  0  0  0  0
  147.6833  141.8300  153.6983 Cl  0  0  0  0  0  0  0  0  0  0  0  0
  149.4586  140.9238  155.9821 C   0  0  0  0  0  0  0  0  0  0  0  0
  151.9270  145.8721  160.2561 H   0  0  0  0  0  0  0  0  0  0  0  0
  151.9310  146.1439  158.5166 H   0  0  0  0  0  0  0  0  0  0  0  0
  153.2155  145.1949  159.2639 H   0  0  0  0  0  0  0  0  0  0  0  0
  151.5334  143.4461  159.9176 H   0  0  0  0  0  0  0  0  0  0  0  0
  150.2565  144.3716  159.1698 H   0  0  0  0  0  0  0  0  0  0  0  0
  151.7791  144.1719  156.9849 H   0  0  0  0  0  0  0  0  0  0  0  0
  152.5097  142.8328  157.8589 H   0  0  0  0  0  0  0  0  0  0  0  0
  151.0301  142.3276  155.4589 H   0  0  0  0  0  0  0  0  0  0  0  0
  152.7912  141.3610  156.8787 H   0  0  0  0  0  0  0  0  0  0  0  0
  151.6461  140.2666  157.6221 H   0  0  0  0  0  0  0  0  0  0  0  0
  152.4777  140.2786  154.6797 H   0  0  0  0  0  0  0  0  0  0  0  0
  152.8961  139.0630  155.8645 H   0  0  0  0  0  0  0  0  0  0  0  0
  150.9945  138.3316  154.4042 H   0  0  0  0  0  0  0  0  0  0  0  0
  150.5230  138.3910  156.0889 H   0  0  0  0  0  0  0  0  0  0  0  0
  147.5223  136.2699  153.8591 H   0  0  0  0  0  0  0  0  0  0  0  0
  143.4258  137.6146  151.8146 H   0  0  0  0  0  0  0  0  0  0  0  0
  144.2358  139.0291  152.4537 H   0  0  0  0  0  0  0  0  0  0  0  0
  145.7565  140.0221  152.6268 H   0  0  0  0  0  0  0  0  0  0  0  0
  149.0983  140.4094  156.8744 H   0  0  0  0  0  0  0  0  0  0  0  0
  148.6600  141.5853  155.6459 H   0  0  0  0  0  0  0  0  0  0  0  0
  1  2  1  0  0  0  0
  1 21  1  0  0  0  0
  1 22  1  0  0  0  0
  1 23  1  0  0  0  0
  2  3  1  0  0  0  0
  2 24  1  0  0  0  0
  2 25  1  0  0  0  0
  3  4  1  0  0  0  0
  3 26  1  0  0  0  0
  3 27  1  0  0  0  0
  4  5  1  0  0  0  0
  5 20  1  0  0  0  0
  5  6  1  0  0  0  0
  5 28  1  0  0  0  0
  6  7  1  0  0  0  0
  6 29  1  0  0  0  0
  6 30  1  0  0  0  0
  7  8  1  0  0  0  0
  7 31  1  0  0  0  0
  7 32  1  0  0  0  0
  8  9  1  0  0  0  0
  8 33  1  0  0  0  0
  8 34  1  0  0  0  0
  9 10  1  0  0  0  0
  9 20  1  0  0  0  0
 10 18  1  0  0  0  0
 10 11  2  0  0  0  0
 11 12  1  0  0  0  0
 12 13  2  0  0  0  0
 12 35  1  0  0  0  0
 13 14  1  0  0  0  0
 13 17  1  0  0  0  0
 14 15  1  0  0  0  0
 14 16  2  0  0  0  0
 15 36  1  0  0  0  0
 15 37  1  0  0  0  0
 17 18  2  0  0  0  0
 17 38  1  0  0  0  0
 18 19  1  0  0  0  0
 20 39  1  0  0  0  0
 20 40  1  0  0  0  0
M  END
> <s_m_source_file>
AV-unprocessed.smi

> <i_m_source_file_index>
373

> <i_lp_mmshare_version>
43012

> <i_f3d_flags>
0

> <s_epik_input>
W0NIM11bQ0gyXVtDSDJdT1tDQEBIXTFbQ0gyXVtDSDJdW0NIMl1OKFtDSDJdMSljMm5bY0hdYyhDKD1PKVtOSDJdKVtjSF1jMkNs

> <s_epik_cmdline>
J2VwaWtfcHl0aG9uJywgJy1waCcsICc3LjAnLCAnLXRuJywgJzgnLCAnLW1hJywgJzIwMCcsICctbWV0YWxfYmluZGluZycsICctaW1hZScsICc8aW5maWxlLm1hZT4nLCAnLW9tYWUnLCAnPG91dGZpbGUubWFlPic=

> <r_lp_tautomer_probability>
1

> <r_epik_Ionization_Penalty>
3.23666e-05

> <r_epik_Ionization_Penalty_Charging>
0

> <r_epik_Ionization_Penalty_Neutral>
3.23666e-05

> <r_epik_State_Penalty>
-0

> <r_epik_Charging_Adjusted_Penalty>
0

> <i_epik_Tot_Q>
0

> <i_epik_Tot_abs_Q>
0

> <r_epik_Metal_State_Penalty>
-0

> <b_epik_Metal_Only>
0

> <s_lp_Force_Field>
OPLS_2005

> <r_lp_Energy>
19.6268

> <b_lp_Chiralities_Consistent>
1

> <s_lp_Variant>
AV-unprocessed.smi:373-2

> <Gold.Version>
5.8.1

> <Gold.Id.Protein>
6NUR|6NUR_protein|mol2

> <Gold.PLP.Fitness>
33.5770

> <Gold.PLP.PLP>
-30.5547

> <Gold.PLP.part.hbond>
-1.8266

> <Gold.PLP.part.metal>
0.0000

> <Gold.PLP.part.buried>
-1.3794

> <Gold.PLP.part.nonpolar>
-28.2045

> <Gold.PLP.part.repulsive>
0.8097

> <Gold.PLP.ligand.clash>
0.0000

> <Gold.PLP.ligand.torsion>
0.4004

> <Gold.PLP.Chemscore.Hbond>
1.0000

> <Gold.PLP.Chemscore.CHOScore>
0.1803

> <Gold.PLP.Chemscore.Metal>
0.0000

> <Gold.Chemscore.Hbonds>
donor molecule, donor type, donor heavy atom, donor atom, acceptor molecule, acceptor atom, score
      L1  H    15    37       P1 10175  0.99
      L1  C    12    35       P1  7948  0.17

> <Gold.PLP.Chemscore.Internal.Correction>
0.2823

> <Gold.Rescore>
     Score         DG    S(hbond)    S(metal)    S(lipo)     H(rot)  DE(clash)    DE(int)     intcor
     14.75     -15.27       0.96        0.00      90.52       1.57       0.09       0.43       ----

> <Gold.Chemscore.Fitness>
14.7485

> <Gold.Chemscore.DG>
-15.2682

> <Gold.Chemscore.ZeroCoef>
-5.4800

> <Gold.Chemscore.Hbond>
0.9619

> <Gold.Chemscore.Metal>
0.0000

> <Gold.Chemscore.Lipo>
90.5227

> <Gold.Chemscore.Internal_Hbond>
0.0000

> <Gold.Chemscore.DEClash>
0.0906

> <Gold.Chemscore.DEInternal>
0.4290

> <Gold.Chemscore.Rot>
1.5687

> <Gold.Chemscore.Internal.Correction>
   9.000000E+99

> <Gold.Chemscore.Hbonds>
donor molecule, donor type, donor heavy atom, donor atom, acceptor molecule, acceptor atom, score
      L1  H    15    37       P1 10175  0.90

> <Gold.Chemscore.Hbond.Weighted>
-3.2128

> <Gold.Chemscore.Metal.Weighted>
-0.0000

> <Gold.Chemscore.Lipo.Weighted>
-10.5912

> <Gold.Chemscore.Internal_Hbond.Weighted>
0.0000

> <Gold.Chemscore.DEClash.Weighted>
0.0906

> <Gold.Chemscore.DEInternal.Weighted>
0.4290

> <Gold.Chemscore.Rot.Weighted>
4.0158

> <Gold.Chemscore.Internal.Correction.Weighted>
   9.000000E+99

> <Gold.Protein.RotatedTorsions>
[ 6907 6896 6895 6894 ] final  164.01 input  -60.11 | X-H torsion
[ 7974 7965 7964 7962 ] final  -18.83 input  175.53 | X-H torsion
[ 8008 7997 7996 7995 ] final -123.03 input   59.86 | X-H torsion
[ 10167 10162 10161 10158 ] final   57.61 input  -65.29 | X-H torsion
[ 10718 10713 10712 10709 ] final   21.95 input   66.30 | X-H torsion
[ 10763 10752 10751 10750 ] final   13.32 input  -60.55 | X-H torsion
[ 11005 11000 10999 10996 ] final  143.58 input  -57.11 | X-H torsion

> <Gold.Protein.ActiveResidues>
 VAL166  LYS551  ARG553  GLY616  TRP617  ASP618  TYR619  PRO620  LYS621  CYS622 
 ASP623  PHE694  ASN695  SER759  ASP760  ASP761  ALA762  ILE779  LEU786  VAL792 
 PHE793  MET794  SER795  GLU796  ALA797  LYS798  CYS799  TRP800  GLU811  SER814 

> <Gold.Protein.RotatedAtoms>
  151.9164  133.3574  159.3881 H   0  0  0  0  0  0  0  0  0  0  0  0  # atno 6907 bound_to 6896
  150.7046  134.4680  159.5421 H   0  0  0  0  0  0  0  0  0  0  0  0  # atno 6908 bound_to 6896
  152.2295  134.8335  160.0526 H   0  0  0  0  0  0  0  0  0  0  0  0  # atno 6909 bound_to 6896
  146.1872  140.3976  142.8471 H   0  0  0  0  0  0  0  0  0  0  0  0  # atno 7974 bound_to 7965
  155.1739  140.0409  157.2868 H   0  0  0  0  0  0  0  0  0  0  0  0  # atno 8008 bound_to 7997
  154.6250  140.2510  155.7475 H   0  0  0  0  0  0  0  0  0  0  0  0  # atno 8009 bound_to 7997
  156.2454  140.2887  156.0576 H   0  0  0  0  0  0  0  0  0  0  0  0  # atno 8010 bound_to 7997
  140.1962  144.4035  150.6549 H   0  0  0  0  0  0  0  0  0  0  0  0  # atno 10167 bound_to 10162
  157.1456  130.6652  149.5995 H   0  0  0  0  0  0  0  0  0  0  0  0  # atno 10718 bound_to 10713
  153.1733  135.6816  153.8578 H   0  0  0  0  0  0  0  0  0  0  0  0  # atno 10763 bound_to 10752
  153.7934  135.3166  155.3382 H   0  0  0  0  0  0  0  0  0  0  0  0  # atno 10764 bound_to 10752
  154.8012  135.4776  154.0374 H   0  0  0  0  0  0  0  0  0  0  0  0  # atno 10765 bound_to 10752
  140.0565  134.9228  157.1110 H   0  0  0  0  0  0  0  0  0  0  0  0  # atno 11005 bound_to 11000
  144.8419  140.6871  143.6223 LP  0  0  0  0  0  0  0  0  0  0  0  0  # atno 17320 bound_to 7965
  145.3902  139.1618  143.4233 LP  0  0  0  0  0  0  0  0  0  0  0  0  # atno 17321 bound_to 7965
  140.6422  143.2206  151.6265 LP  0  0  0  0  0  0  0  0  0  0  0  0  # atno 17342 bound_to 10162
  139.5236  144.3129  152.0977 LP  0  0  0  0  0  0  0  0  0  0  0  0  # atno 17343 bound_to 10162
  155.9780  130.4762  150.6629 LP  0  0  0  0  0  0  0  0  0  0  0  0  # atno 17370 bound_to 10713
  157.4268  131.0844  151.1078 LP  0  0  0  0  0  0  0  0  0  0  0  0  # atno 17371 bound_to 10713
  140.3836  134.2261  155.7169 LP  0  0  0  0  0  0  0  0  0  0  0  0  # atno 17394 bound_to 11000
  141.1954  133.8106  157.0715 LP  0  0  0  0  0  0  0  0  0  0  0  0  # atno 17395 bound_to 11000

$$$$
