AV-unprocessed.smi:1199|AV-procd|sdf|5018|dock3
  -GOLD-   22720 4 33D 1   1.00000     0.00000
 Structure written by MMmdl.
 41 42  0  0  0  0  0  0  0  0  1 V2000
  146.7025  138.7473  151.5970 C   0  0  0  0  0  0  0  0  0  0  0  0
  146.5063  138.0851  152.9671 C   0  0  2  0  0  0  0  0  0  0  0  0
  147.4961  138.6458  154.0130 C   0  0  0  0  0  0  0  0  0  0  0  0
  147.1820  139.9828  154.5210 N   0  0  0  0  0  0  0  0  0  0  0  0
  145.8320  140.0830  155.0687 C   0  0  0  0  0  0  0  0  0  0  0  0
  145.5494  141.4917  155.6177 C   0  0  0  0  0  0  0  0  0  0  0  0
  145.7479  142.4535  154.5863 O   0  0  0  0  0  0  0  0  0  0  0  0
  147.0632  142.4131  154.0415 C   0  0  0  0  0  0  0  0  0  0  0  0
  147.3544  141.0040  153.4953 C   0  0  0  0  0  0  0  0  0  0  0  0
  146.6923  136.6408  152.8379 N   0  0  0  0  0  0  0  0  0  0  0  0
  145.7458  135.7100  153.0360 C   0  0  0  0  0  0  0  0  0  0  0  0
  144.5567  135.9731  153.2184 O   0  0  0  0  0  0  0  0  0  0  0  0
  146.2187  134.2517  153.0414 C   0  0  0  0  0  0  0  0  0  0  0  0
  145.6021  133.4761  151.9559 N   0  0  0  0  0  0  0  0  0  0  0  0
  145.0285  134.2498  150.9585 N   0  0  0  0  0  0  0  0  0  0  0  0
  144.4241  133.6820  149.9704 C   0  0  0  0  0  0  0  0  0  0  0  0
  143.8657  134.4858  149.0073 O   0  0  0  0  0  0  0  0  0  0  0  0
  144.3332  132.2415  149.8757 C   0  0  0  0  0  0  0  0  0  0  0  0
  144.9030  131.4955  150.8473 C   0  0  0  0  0  0  0  0  0  0  0  0
  145.6009  132.1067  151.9795 C   0  0  0  0  0  0  0  0  0  0  0  0
  146.1362  131.4516  152.8738 O   0  0  0  0  0  0  0  0  0  0  0  0
  144.5757  134.7081  148.4247 H   0  0  0  0  0  0  0  0  0  0  0  0
  146.5601  139.8263  151.6605 H   0  0  0  0  0  0  0  0  0  0  0  0
  145.9867  138.3630  150.8695 H   0  0  0  0  0  0  0  0  0  0  0  0
  147.7046  138.5669  151.2061 H   0  0  0  0  0  0  0  0  0  0  0  0
  145.4871  138.3100  153.2835 H   0  0  0  0  0  0  0  0  0  0  0  0
  147.5141  137.9507  154.8537 H   0  0  0  0  0  0  0  0  0  0  0  0
  148.5064  138.6388  153.6018 H   0  0  0  0  0  0  0  0  0  0  0  0
  145.0999  139.8399  154.2972 H   0  0  0  0  0  0  0  0  0  0  0  0
  145.6897  139.3607  155.8707 H   0  0  0  0  0  0  0  0  0  0  0  0
  144.5231  141.5602  155.9780 H   0  0  0  0  0  0  0  0  0  0  0  0
  146.2024  141.7134  156.4637 H   0  0  0  0  0  0  0  0  0  0  0  0
  147.1427  143.1532  153.2451 H   0  0  0  0  0  0  0  0  0  0  0  0
  147.7891  142.6878  154.8083 H   0  0  0  0  0  0  0  0  0  0  0  0
  148.3738  140.9733  153.1091 H   0  0  0  0  0  0  0  0  0  0  0  0
  146.6936  140.7971  152.6521 H   0  0  0  0  0  0  0  0  0  0  0  0
  147.6376  136.3210  152.6850 H   0  0  0  0  0  0  0  0  0  0  0  0
  147.3060  134.2467  152.9482 H   0  0  0  0  0  0  0  0  0  0  0  0
  146.0020  133.7833  154.0037 H   0  0  0  0  0  0  0  0  0  0  0  0
  143.8196  131.7825  149.0436 H   0  0  0  0  0  0  0  0  0  0  0  0
  144.8418  130.4185  150.7897 H   0  0  0  0  0  0  0  0  0  0  0  0
  1  2  1  0  0  0  0
  1 23  1  0  0  0  0
  1 24  1  0  0  0  0
  1 25  1  0  0  0  0
  2  3  1  0  0  0  0
  2 10  1  0  0  0  0
  2 26  1  0  0  0  0
  3  4  1  0  0  0  0
  3 27  1  0  0  0  0
  3 28  1  0  0  0  0
  4  9  1  0  0  0  0
  4  5  1  0  0  0  0
  5  6  1  0  0  0  0
  5 29  1  0  0  0  0
  5 30  1  0  0  0  0
  6  7  1  0  0  0  0
  6 31  1  0  0  0  0
  6 32  1  0  0  0  0
  7  8  1  0  0  0  0
  8  9  1  0  0  0  0
  8 33  1  0  0  0  0
  8 34  1  0  0  0  0
  9 35  1  0  0  0  0
  9 36  1  0  0  0  0
 10 11  1  0  0  0  0
 10 37  1  0  0  0  0
 11 12  2  0  0  0  0
 11 13  1  0  0  0  0
 13 38  1  0  0  0  0
 13 39  1  0  0  0  0
 13 14  1  0  0  0  0
 14 15  1  0  0  0  0
 14 20  1  0  0  0  0
 15 16  2  0  0  0  0
 16 17  1  0  0  0  0
 16 18  1  0  0  0  0
 17 22  1  0  0  0  0
 18 40  1  0  0  0  0
 18 19  2  0  0  0  0
 19 41  1  0  0  0  0
 19 20  1  0  0  0  0
 20 21  2  0  0  0  0
M  END
> <s_m_source_file>
AV-unprocessed.smi

> <i_m_source_file_index>
1199

> <i_lp_mmshare_version>
43012

> <i_f3d_flags>
0

> <s_epik_input>
W0NIMl0xW0NIMl1PW0NIMl1bQ0gyXU4xW0NIMl1bQ0BASF0oW0NIM10pW05IXUMoPU8pW0NIMl1uMltuSF1jKD1PKVtjSF1bY0hdYzI9Tw==

> <s_epik_cmdline>
J2VwaWtfcHl0aG9uJywgJy1waCcsICc3LjAnLCAnLXRuJywgJzgnLCAnLW1hJywgJzIwMCcsICctbWV0YWxfYmluZGluZycsICctaW1hZScsICc8aW5maWxlLm1hZT4nLCAnLW9tYWUnLCAnPG91dGZpbGUubWFlPic=

> <r_epik_Ionization_Penalty>
2.36432

> <r_epik_Ionization_Penalty_Charging>
3.67277e-08

> <r_epik_Ionization_Penalty_Neutral>
2.36432

> <r_epik_State_Penalty>
1.96081

> <r_epik_Charging_Adjusted_Penalty>
1.96081

> <i_epik_Tot_Q>
0

> <i_epik_Tot_abs_Q>
0

> <r_epik_Metal_State_Penalty>
1.96081

> <b_epik_Metal_Only>
0

> <s_lp_Force_Field>
OPLS_2005

> <r_lp_Energy>
35.6953

> <b_lp_Chiralities_Consistent>
1

> <s_lp_Variant>
AV-unprocessed.smi:1199-5

> <Gold.Version>
5.8.1

> <Gold.Id.Protein>
6NUR|6NUR_protein|mol2

> <Gold.PLP.Fitness>
38.2725

> <Gold.PLP.PLP>
-33.0097

> <Gold.PLP.part.hbond>
-2.8470

> <Gold.PLP.part.metal>
0.0000

> <Gold.PLP.part.buried>
-5.2739

> <Gold.PLP.part.nonpolar>
-26.6713

> <Gold.PLP.part.repulsive>
0.7053

> <Gold.PLP.ligand.clash>
0.0000

> <Gold.PLP.ligand.torsion>
0.3892

> <Gold.PLP.Chemscore.Hbond>
2.0000

> <Gold.PLP.Chemscore.CHOScore>
0.0000

> <Gold.PLP.Chemscore.Metal>
0.0000

> <Gold.Chemscore.Hbonds>
donor molecule, donor type, donor heavy atom, donor atom, acceptor molecule, acceptor atom, score
      L1  H    10    37       P1  7948  1.00
      L1  H    17    22       P1  7921  1.00

> <Gold.PLP.Chemscore.Internal.Correction>
0.0412

> <Gold.Rescore>
     Score         DG    S(hbond)    S(metal)    S(lipo)     H(rot)  DE(clash)    DE(int)     intcor
     10.19     -11.99       1.99        0.00      63.12       2.94       0.06       1.73       ----

> <Gold.Chemscore.Fitness>
10.1938

> <Gold.Chemscore.DG>
-11.9879

> <Gold.Chemscore.ZeroCoef>
-5.4800

> <Gold.Chemscore.Hbond>
1.9936

> <Gold.Chemscore.Metal>
0.0000

> <Gold.Chemscore.Lipo>
63.1223

> <Gold.Chemscore.Internal_Hbond>
0.0000

> <Gold.Chemscore.DEClash>
0.0631

> <Gold.Chemscore.DEInternal>
1.7310

> <Gold.Chemscore.Rot>
2.9437

> <Gold.Chemscore.Internal.Correction>
   9.000000E+99

> <Gold.Chemscore.Hbonds>
donor molecule, donor type, donor heavy atom, donor atom, acceptor molecule, acceptor atom, score
      L1  H    10    37       P1  7948  0.92
      L1  H    17    22       P1  7921  1.00

> <Gold.Chemscore.Hbond.Weighted>
-6.6585

> <Gold.Chemscore.Metal.Weighted>
-0.0000

> <Gold.Chemscore.Lipo.Weighted>
-7.3853

> <Gold.Chemscore.Internal_Hbond.Weighted>
0.0000

> <Gold.Chemscore.DEClash.Weighted>
0.0631

> <Gold.Chemscore.DEInternal.Weighted>
1.7310

> <Gold.Chemscore.Rot.Weighted>
7.5359

> <Gold.Chemscore.Internal.Correction.Weighted>
   9.000000E+99

> <Gold.Protein.RotatedTorsions>
[ 6907 6896 6895 6894 ] final  -39.49 input  -60.11 | X-H torsion
[ 7974 7965 7964 7962 ] final   60.39 input  175.53 | X-H torsion
[ 8008 7997 7996 7995 ] final  -59.05 input   59.86 | X-H torsion
[ 10167 10162 10161 10158 ] final -144.96 input  -65.29 | X-H torsion
[ 10718 10713 10712 10709 ] final -161.17 input   66.30 | X-H torsion
[ 10763 10752 10751 10750 ] final   97.75 input  -60.55 | X-H torsion
[ 11005 11000 10999 10996 ] final    6.40 input  -57.11 | X-H torsion

> <Gold.Protein.ActiveResidues>
 VAL166  LYS551  ARG553  GLY616  TRP617  ASP618  TYR619  PRO620  LYS621  CYS622 
 ASP623  PHE694  ASN695  SER759  ASP760  ASP761  ALA762  ILE779  LEU786  VAL792 
 PHE793  MET794  SER795  GLU796  ALA797  LYS798  CYS799  TRP800  GLU811  SER814 

> <Gold.Protein.RotatedAtoms>
  150.9897  134.9235  159.7892 H   0  0  0  0  0  0  0  0  0  0  0  0  # atno 6907 bound_to 6896
  152.5247  134.3298  159.9188 H   0  0  0  0  0  0  0  0  0  0  0  0  # atno 6908 bound_to 6896
  151.3304  133.3962  159.2696 H   0  0  0  0  0  0  0  0  0  0  0  0  # atno 6909 bound_to 6896
  145.8965  139.3549  143.0618 H   0  0  0  0  0  0  0  0  0  0  0  0  # atno 7974 bound_to 7965
  154.4335  140.1070  156.6054 H   0  0  0  0  0  0  0  0  0  0  0  0  # atno 8008 bound_to 7997
  155.5866  140.3491  155.4536 H   0  0  0  0  0  0  0  0  0  0  0  0  # atno 8009 bound_to 7997
  156.0278  140.1254  157.0279 H   0  0  0  0  0  0  0  0  0  0  0  0  # atno 8010 bound_to 7997
  139.7850  143.8046  152.2643 H   0  0  0  0  0  0  0  0  0  0  0  0  # atno 10167 bound_to 10162
  156.5925  130.8776  151.2893 H   0  0  0  0  0  0  0  0  0  0  0  0  # atno 10718 bound_to 10713
  153.2806  135.4172  155.1075 H   0  0  0  0  0  0  0  0  0  0  0  0  # atno 10763 bound_to 10752
  154.8488  135.3494  154.6117 H   0  0  0  0  0  0  0  0  0  0  0  0  # atno 10764 bound_to 10752
  153.6538  135.7051  153.5258 H   0  0  0  0  0  0  0  0  0  0  0  0  # atno 10765 bound_to 10752
  140.5599  134.0202  155.7968 H   0  0  0  0  0  0  0  0  0  0  0  0  # atno 11005 bound_to 11000
  145.8844  140.9343  143.0585 LP  0  0  0  0  0  0  0  0  0  0  0  0  # atno 17320 bound_to 7965
  144.6733  140.0822  143.7469 LP  0  0  0  0  0  0  0  0  0  0  0  0  # atno 17321 bound_to 7965
  139.8121  144.7331  150.9684 LP  0  0  0  0  0  0  0  0  0  0  0  0  # atno 17342 bound_to 10162
  140.7819  143.4241  151.0796 LP  0  0  0  0  0  0  0  0  0  0  0  0  # atno 17343 bound_to 10162
  157.7300  130.9679  150.1813 LP  0  0  0  0  0  0  0  0  0  0  0  0  # atno 17370 bound_to 10713
  156.2538  130.3703  149.8204 LP  0  0  0  0  0  0  0  0  0  0  0  0  # atno 17371 bound_to 10713
  141.1121  133.9600  157.2891 LP  0  0  0  0  0  0  0  0  0  0  0  0  # atno 17394 bound_to 11000
  139.9413  135.0190  156.8716 LP  0  0  0  0  0  0  0  0  0  0  0  0  # atno 17395 bound_to 11000

$$$$
