AV-unprocessed.smi:702|AV-procd|sdf|3421|dock2
  -GOLD-   22720 0403D 1   1.00000     0.00000
 Structure written by MMmdl.
 51 53  0  0  0  0  0  0  0  0  3 V2000
  146.8610  139.5490  152.1813 C   0  0  0  0  0  0  0  0  0  0  0  0
  146.5618  138.4797  153.2500 C   0  0  1  0  0  0  0  0  0  0  0  0
  146.7062  137.1550  152.6338 N   0  0  0  0  0  0  0  0  0  0  0  0
  145.7147  136.3336  152.2556 C   0  0  0  0  0  0  0  0  0  0  0  0
  144.5207  136.6085  152.3681 O   0  0  0  0  0  0  0  0  0  0  0  0
  146.2042  135.1929  151.7391 N   0  0  0  0  0  0  0  0  0  0  0  0
  145.4971  134.0633  151.2423 C   0  0  0  0  0  0  0  0  0  0  0  0
  146.2418  133.0853  150.5458 C   0  0  0  0  0  0  0  0  0  0  0  0
  145.5904  131.9397  150.0446 C   0  0  0  0  0  0  0  0  0  0  0  0
  144.2641  131.7807  150.2404 N   0  3  0  0  0  0  0  0  0  0  0  0
  143.5129  132.6798  150.9114 C   0  0  0  0  0  0  0  0  0  0  0  0
  144.1088  133.8449  151.4363 C   0  0  0  0  0  0  0  0  0  0  0  0
  147.4350  138.6299  154.5501 C   0  0  0  0  0  0  0  0  0  0  0  0
  148.7210  137.8418  154.4196 N   0  3  0  0  0  0  0  0  0  0  0  0
  149.9732  138.6542  154.4016 C   0  0  0  0  0  0  0  0  0  0  0  0
  151.1980  137.7720  154.1053 C   0  0  0  0  0  0  0  0  0  0  0  0
  151.2881  136.7305  155.0650 O   0  0  0  0  0  0  0  0  0  0  0  0
  150.1498  135.8843  155.0203 C   0  0  0  0  0  0  0  0  0  0  0  0
  148.8914  136.6967  155.3656 C   0  0  0  0  0  0  0  0  0  0  0  0
  147.7283  140.1345  154.8388 C   0  0  0  0  0  0  0  0  0  0  0  0
  146.8497  140.5419  156.0228 C   0  0  0  0  0  0  0  0  0  0  0  0
  146.7220  139.2651  156.8439 C   0  0  0  0  0  0  0  0  0  0  0  0
  146.6027  138.1641  155.7890 C   0  0  0  0  0  0  0  0  0  0  0  0
  146.6896  140.5567  152.5591 H   0  0  0  0  0  0  0  0  0  0  0  0
  146.2144  139.4206  151.3126 H   0  0  0  0  0  0  0  0  0  0  0  0
  147.8922  139.4970  151.8316 H   0  0  0  0  0  0  0  0  0  0  0  0
  145.5123  138.5879  153.5157 H   0  0  0  0  0  0  0  0  0  0  0  0
  147.6534  136.8340  152.4941 H   0  0  0  0  0  0  0  0  0  0  0  0
  147.2085  135.1466  151.6459 H   0  0  0  0  0  0  0  0  0  0  0  0
  147.3037  133.2106  150.3897 H   0  0  0  0  0  0  0  0  0  0  0  0
  146.0876  131.1514  149.4983 H   0  0  0  0  0  0  0  0  0  0  0  0
  142.4645  132.4395  151.0129 H   0  0  0  0  0  0  0  0  0  0  0  0
  143.4898  134.5375  151.9854 H   0  0  0  0  0  0  0  0  0  0  0  0
  149.9481  139.4243  153.6352 H   0  0  0  0  0  0  0  0  0  0  0  0
  150.1095  139.1605  155.3577 H   0  0  0  0  0  0  0  0  0  0  0  0
  151.1420  137.3534  153.0992 H   0  0  0  0  0  0  0  0  0  0  0  0
  152.1090  138.3693  154.1492 H   0  0  0  0  0  0  0  0  0  0  0  0
  150.0595  135.4201  154.0367 H   0  0  0  0  0  0  0  0  0  0  0  0
  150.2839  135.0774  155.7411 H   0  0  0  0  0  0  0  0  0  0  0  0
  148.9727  137.0523  156.3921 H   0  0  0  0  0  0  0  0  0  0  0  0
  148.0486  136.0105  155.3422 H   0  0  0  0  0  0  0  0  0  0  0  0
  148.7656  140.3029  155.1219 H   0  0  0  0  0  0  0  0  0  0  0  0
  147.5577  140.7753  153.9735 H   0  0  0  0  0  0  0  0  0  0  0  0
  147.2748  141.3671  156.5951 H   0  0  0  0  0  0  0  0  0  0  0  0
  145.8666  140.8550  155.6689 H   0  0  0  0  0  0  0  0  0  0  0  0
  147.6208  139.1189  157.4438 H   0  0  0  0  0  0  0  0  0  0  0  0
  145.8691  139.2883  157.5228 H   0  0  0  0  0  0  0  0  0  0  0  0
  145.5439  138.0705  155.5511 H   0  0  0  0  0  0  0  0  0  0  0  0
  146.8733  137.1792  156.1673 H   0  0  0  0  0  0  0  0  0  0  0  0
  148.6665  137.4176  153.5045 H   0  0  0  0  0  0  0  0  0  0  0  0
  143.8115  130.9443  149.8704 H   0  0  0  0  0  0  0  0  0  0  0  0
  1  2  1  0  0  0  0
  1 24  1  0  0  0  0
  1 25  1  0  0  0  0
  1 26  1  0  0  0  0
  2  3  1  0  0  0  0
  2 13  1  0  0  0  0
  2 27  1  0  0  0  0
  3  4  1  0  0  0  0
  3 28  1  0  0  0  0
  4  5  2  0  0  0  0
  4  6  1  0  0  0  0
  6  7  1  0  0  0  0
  6 29  1  0  0  0  0
  7 12  1  0  0  0  0
  7  8  2  0  0  0  0
  8  9  1  0  0  0  0
  8 30  1  0  0  0  0
  9 10  2  0  0  0  0
  9 31  1  0  0  0  0
 10 11  1  0  0  0  0
 10 51  1  0  0  0  0
 11 12  2  0  0  0  0
 11 32  1  0  0  0  0
 12 33  1  0  0  0  0
 13 23  1  0  0  0  0
 13 14  1  0  0  0  0
 13 20  1  0  0  0  0
 14 19  1  0  0  0  0
 14 15  1  0  0  0  0
 14 50  1  0  0  0  0
 15 16  1  0  0  0  0
 15 34  1  0  0  0  0
 15 35  1  0  0  0  0
 16 17  1  0  0  0  0
 16 36  1  0  0  0  0
 16 37  1  0  0  0  0
 17 18  1  0  0  0  0
 18 19  1  0  0  0  0
 18 38  1  0  0  0  0
 18 39  1  0  0  0  0
 19 40  1  0  0  0  0
 19 41  1  0  0  0  0
 20 21  1  0  0  0  0
 20 42  1  0  0  0  0
 20 43  1  0  0  0  0
 21 22  1  0  0  0  0
 21 44  1  0  0  0  0
 21 45  1  0  0  0  0
 22 23  1  0  0  0  0
 22 46  1  0  0  0  0
 22 47  1  0  0  0  0
 23 48  1  0  0  0  0
 23 49  1  0  0  0  0
M  CHG  1  10   1
M  CHG  1  14   1
M  END
> <s_m_source_file>
AV-unprocessed.smi

> <i_m_source_file_index>
702

> <i_lp_mmshare_version>
43012

> <i_f3d_flags>
0

> <s_epik_input>
W0NIMl0xW0NIMl1PW0NIMl1bQ0gyXU4xQzIoW0NIMl1bQ0gyXVtDSDJdW0NIMl0yKVtDQEhdKFtDSDNdKVtOSF1DKD1PKVtOSF1jM1tjSF1bY0hdbltjSF1bY0hdMw==

> <s_epik_cmdline>
J2VwaWtfcHl0aG9uJywgJy1waCcsICc3LjAnLCAnLXRuJywgJzgnLCAnLW1hJywgJzIwMCcsICctbWV0YWxfYmluZGluZycsICctaW1hZScsICc8aW5maWxlLm1hZT4nLCAnLW9tYWUnLCAnPG91dGZpbGUubWFlPic=

> <r_epik_Ionization_Penalty>
1.42147

> <r_epik_Ionization_Penalty_Charging>
1.42145

> <r_epik_Ionization_Penalty_Neutral>
1.94713e-05

> <r_epik_State_Penalty>
1.44789

> <r_epik_Charging_Adjusted_Penalty>
2.86934

> <i_epik_Tot_Q>
2

> <i_epik_Tot_abs_Q>
2

> <r_epik_Metal_State_Penalty>
1.5401

> <b_epik_Metal_Only>
0

> <s_lp_Force_Field>
OPLS_2005

> <r_lp_Energy>
62.23

> <b_lp_Chiralities_Consistent>
1

> <s_lp_Variant>
AV-unprocessed.smi:702-6

> <Gold.Version>
5.8.1

> <Gold.Id.Protein>
6NUR|6NUR_protein|mol2

> <Gold.PLP.Fitness>
40.0885

> <Gold.PLP.PLP>
-32.9318

> <Gold.PLP.part.hbond>
-4.0000

> <Gold.PLP.part.metal>
0.0000

> <Gold.PLP.part.buried>
-4.7292

> <Gold.PLP.part.nonpolar>
-26.3165

> <Gold.PLP.part.repulsive>
0.4925

> <Gold.PLP.ligand.clash>
0.9278

> <Gold.PLP.ligand.torsion>
3.3941

> <Gold.PLP.Chemscore.Hbond>
4.9120

> <Gold.PLP.Chemscore.CHOScore>
0.0000

> <Gold.PLP.Chemscore.Metal>
0.0000

> <Gold.Chemscore.Hbonds>
donor molecule, donor type, donor heavy atom, donor atom, acceptor molecule, acceptor atom, score
      L1  H     3    28       P1  7948  1.00
      L1  H     6    29       P1  7948  0.90
      L1  H    14    50       P1  7948  1.98
      P1  H 10752 10764       L1    17  0.91

> <Gold.PLP.Chemscore.Internal.Correction>
0.1368

> <Gold.Rescore>
     Score         DG    S(hbond)    S(metal)    S(lipo)     H(rot)  DE(clash)    DE(int)     intcor
     17.78     -22.89       3.37        0.00      84.92       1.48       0.45       4.66       ----

> <Gold.Chemscore.Fitness>
17.7816

> <Gold.Chemscore.DG>
-22.8914

> <Gold.Chemscore.ZeroCoef>
-5.4800

> <Gold.Chemscore.Hbond>
3.3717

> <Gold.Chemscore.Metal>
0.0000

> <Gold.Chemscore.Lipo>
84.9167

> <Gold.Chemscore.Internal_Hbond>
0.0000

> <Gold.Chemscore.DEClash>
0.4520

> <Gold.Chemscore.DEInternal>
4.6578

> <Gold.Chemscore.Rot>
1.4787

> <Gold.Chemscore.Internal.Correction>
   9.000000E+99

> <Gold.Chemscore.Hbonds>
donor molecule, donor type, donor heavy atom, donor atom, acceptor molecule, acceptor atom, score
      L1  H     3    28       P1  7948  0.96
      L1  H     6    29       P1  7948  0.77
      L1  H    14    50       P1  7948  0.92
      P1  H 10752 10764       L1    17  0.26

> <Gold.Chemscore.Hbond.Weighted>
-11.2616

> <Gold.Chemscore.Metal.Weighted>
-0.0000

> <Gold.Chemscore.Lipo.Weighted>
-9.9353

> <Gold.Chemscore.Internal_Hbond.Weighted>
0.0000

> <Gold.Chemscore.DEClash.Weighted>
0.4520

> <Gold.Chemscore.DEInternal.Weighted>
4.6578

> <Gold.Chemscore.Rot.Weighted>
3.7854

> <Gold.Chemscore.Internal.Correction.Weighted>
   9.000000E+99

> <Gold.Protein.RotatedTorsions>
[ 6907 6896 6895 6894 ] final  -54.71 input  -60.11 | X-H torsion
[ 7974 7965 7964 7962 ] final   -5.72 input  175.53 | X-H torsion
[ 8008 7997 7996 7995 ] final   82.71 input   59.86 | X-H torsion
[ 10167 10162 10161 10158 ] final  108.76 input  -65.29 | X-H torsion
[ 10718 10713 10712 10709 ] final -121.91 input   66.30 | X-H torsion
[ 10763 10752 10751 10750 ] final  -67.35 input  -60.55 | X-H torsion
[ 11005 11000 10999 10996 ] final -147.17 input  -57.11 | X-H torsion

> <Gold.Protein.ActiveResidues>
 VAL166  LYS551  ARG553  GLY616  TRP617  ASP618  TYR619  PRO620  LYS621  CYS622 
 ASP623  PHE694  ASN695  SER759  ASP760  ASP761  ALA762  ILE779  LEU786  VAL792 
 PHE793  MET794  SER795  GLU796  ALA797  LYS798  CYS799  TRP800  GLU811  SER814 

> <Gold.Protein.RotatedAtoms>
  150.8314  134.7569  159.6856 H   0  0  0  0  0  0  0  0  0  0  0  0  # atno 6907 bound_to 6896
  152.4418  134.5572  159.9893 H   0  0  0  0  0  0  0  0  0  0  0  0  # atno 6908 bound_to 6896
  151.5732  133.3349  159.3029 H   0  0  0  0  0  0  0  0  0  0  0  0  # atno 6909 bound_to 6896
  146.2347  140.2064  142.8334 H   0  0  0  0  0  0  0  0  0  0  0  0  # atno 7974 bound_to 7965
  155.9142  140.3425  155.6122 H   0  0  0  0  0  0  0  0  0  0  0  0  # atno 8008 bound_to 7997
  155.7351  140.0800  157.2290 H   0  0  0  0  0  0  0  0  0  0  0  0  # atno 8009 bound_to 7997
  154.4060  140.1581  156.2540 H   0  0  0  0  0  0  0  0  0  0  0  0  # atno 8010 bound_to 7997
  139.6821  144.7117  151.1498 H   0  0  0  0  0  0  0  0  0  0  0  0  # atno 10167 bound_to 10162
  156.1376  130.6442  150.9720 H   0  0  0  0  0  0  0  0  0  0  0  0  # atno 10718 bound_to 10713
  154.3732  135.6090  153.5751 H   0  0  0  0  0  0  0  0  0  0  0  0  # atno 10763 bound_to 10752
  152.9789  135.5843  154.4497 H   0  0  0  0  0  0  0  0  0  0  0  0  # atno 10764 bound_to 10752
  154.4255  135.2846  155.1925 H   0  0  0  0  0  0  0  0  0  0  0  0  # atno 10765 bound_to 10752
  140.7744  134.3152  157.5065 H   0  0  0  0  0  0  0  0  0  0  0  0  # atno 11005 bound_to 11000
  144.9741  140.8397  143.5437 LP  0  0  0  0  0  0  0  0  0  0  0  0  # atno 17320 bound_to 7965
  145.2049  139.2233  143.5173 LP  0  0  0  0  0  0  0  0  0  0  0  0  # atno 17321 bound_to 7965
  140.7655  143.5684  150.9022 LP  0  0  0  0  0  0  0  0  0  0  0  0  # atno 17342 bound_to 10162
  139.9357  143.6441  152.3066 LP  0  0  0  0  0  0  0  0  0  0  0  0  # atno 17343 bound_to 10162
  157.6546  131.0891  150.7975 LP  0  0  0  0  0  0  0  0  0  0  0  0  # atno 17370 bound_to 10713
  156.8054  130.4935  149.5363 LP  0  0  0  0  0  0  0  0  0  0  0  0  # atno 17371 bound_to 10713
  139.8751  134.9280  156.3440 LP  0  0  0  0  0  0  0  0  0  0  0  0  # atno 17394 bound_to 11000
  140.9543  133.7430  156.0314 LP  0  0  0  0  0  0  0  0  0  0  0  0  # atno 17395 bound_to 11000

$$$$
