AV-unprocessed.smi:46|AV-procd|sdf|420|dock10
  -GOLD-   2262016303D 1   1.00000     0.00000
 Structure written by MMmdl.
 35 36  0  0  0  0  0  0  0  0  2 V2000
  152.2760  144.8677  158.4729 C   0  0  0  0  0  0  0  0  0  0  0  0
  151.7180  143.9066  159.5331 C   0  0  0  0  0  0  0  0  0  0  0  0
  152.7848  143.4953  160.5594 C   0  0  0  0  0  0  0  0  0  0  0  0
  151.1220  142.7374  158.9041 N   0  0  0  0  0  0  0  0  0  0  0  0
  150.0035  142.6650  158.0998 C   0  0  0  0  0  0  0  0  0  0  0  0
  149.8177  141.3529  157.7585 C   0  0  0  0  0  0  0  0  0  0  0  0
  148.7502  140.7117  156.8959 C   0  0  1  0  0  0  0  0  0  0  0  0
  147.6775  141.7013  156.4234 C   0  0  0  0  0  0  0  0  0  0  0  0
  148.1825  142.2950  155.1720 N   0  3  0  0  0  0  0  0  0  0  0  0
  149.2305  141.4069  154.6315 C   0  0  0  0  0  0  0  0  0  0  0  0
  149.2940  140.1803  155.5577 C   0  0  1  0  0  0  0  0  0  0  0  0
  150.6790  139.5050  155.6052 C   0  0  0  0  0  0  0  0  0  0  0  0
  151.1335  139.2460  154.2943 O   0  0  0  0  0  0  0  0  0  0  0  0
  150.8911  140.6924  158.4223 C   0  0  0  0  0  0  0  0  0  0  0  0
  151.6657  141.5188  159.1039 N   0  0  0  0  0  0  0  0  0  0  0  0
  148.2772  139.8995  157.4497 H   0  0  0  0  0  0  0  0  0  0  0  0
  148.5673  139.4543  155.1872 H   0  0  0  0  0  0  0  0  0  0  0  0
  152.6711  145.7728  158.9350 H   0  0  0  0  0  0  0  0  0  0  0  0
  151.4986  145.1701  157.7705 H   0  0  0  0  0  0  0  0  0  0  0  0
  153.0821  144.4082  157.9002 H   0  0  0  0  0  0  0  0  0  0  0  0
  150.9297  144.4338  160.0738 H   0  0  0  0  0  0  0  0  0  0  0  0
  153.1897  144.3684  161.0721 H   0  0  0  0  0  0  0  0  0  0  0  0
  153.6178  142.9739  160.0869 H   0  0  0  0  0  0  0  0  0  0  0  0
  152.3642  142.8343  161.3180 H   0  0  0  0  0  0  0  0  0  0  0  0
  149.4387  143.5482  157.8411 H   0  0  0  0  0  0  0  0  0  0  0  0
  146.7643  141.1575  156.1776 H   0  0  0  0  0  0  0  0  0  0  0  0
  147.4191  142.4547  157.1683 H   0  0  0  0  0  0  0  0  0  0  0  0
  147.4274  142.4020  154.5096 H   0  0  0  0  0  0  0  0  0  0  0  0
  149.0162  141.1277  153.5995 H   0  0  0  0  0  0  0  0  0  0  0  0
  150.1751  141.9520  154.6402 H   0  0  0  0  0  0  0  0  0  0  0  0
  151.4135  140.1270  156.1178 H   0  0  0  0  0  0  0  0  0  0  0  0
  150.6203  138.5588  156.1439 H   0  0  0  0  0  0  0  0  0  0  0  0
  151.2582  138.3137  154.1971 H   0  0  0  0  0  0  0  0  0  0  0  0
  151.1301  139.6389  158.4255 H   0  0  0  0  0  0  0  0  0  0  0  0
  148.5925  143.1968  155.3685 H   0  0  0  0  0  0  0  0  0  0  0  0
  1  2  1  0  0  0  0
  1 18  1  0  0  0  0
  1 19  1  0  0  0  0
  1 20  1  0  0  0  0
  2  3  1  0  0  0  0
  2  4  1  0  0  0  0
  2 21  1  0  0  0  0
  3 22  1  0  0  0  0
  3 23  1  0  0  0  0
  3 24  1  0  0  0  0
  4 15  1  0  0  0  0
  4  5  1  0  0  0  0
  5  6  2  0  0  0  0
  5 25  1  0  0  0  0
  6  7  1  0  0  0  0
  6 14  1  0  0  0  0
  7 16  1  0  0  0  0
  7 11  1  0  0  0  0
  7  8  1  0  0  0  0
  8  9  1  0  0  0  0
  8 26  1  0  0  0  0
  8 27  1  0  0  0  0
  9 10  1  0  0  0  0
  9 28  1  0  0  0  0
  9 35  1  0  0  0  0
 10 11  1  0  0  0  0
 10 29  1  0  0  0  0
 10 30  1  0  0  0  0
 11 17  1  0  0  0  0
 11 12  1  0  0  0  0
 12 13  1  0  0  0  0
 12 31  1  0  0  0  0
 12 32  1  0  0  0  0
 13 33  1  0  0  0  0
 14 15  2  0  0  0  0
 14 34  1  0  0  0  0
M  CHG  1   9   1
M  END
> <s_m_source_file>
AV-unprocessed.smi

> <i_m_source_file_index>
46

> <i_lp_mmshare_version>
43012

> <i_f3d_flags>
0

> <s_epik_input>
W0NIM11bQ0hdKFtDSDNdKW4xW2NIXWMoW2NIXW4xKVtDQEBIXTJbQ0gyXVtOSF1bQ0gyXVtDQEhdMltDSDJdW09IXQ==

> <s_epik_cmdline>
J2VwaWtfcHl0aG9uJywgJy1waCcsICc3LjAnLCAnLXRuJywgJzgnLCAnLW1hJywgJzIwMCcsICctbWV0YWxfYmluZGluZycsICctaW1hZScsICc8aW5maWxlLm1hZT4nLCAnLW9tYWUnLCAnPG91dGZpbGUubWFlPic=

> <r_lp_tautomer_probability>
1

> <r_epik_Ionization_Penalty>
0.000236226

> <r_epik_Ionization_Penalty_Charging>
0.00021985

> <r_epik_Ionization_Penalty_Neutral>
1.63752e-05

> <r_epik_State_Penalty>
-0

> <r_epik_Charging_Adjusted_Penalty>
0.00021985

> <i_epik_Tot_Q>
1

> <i_epik_Tot_abs_Q>
1

> <r_epik_Metal_State_Penalty>
-0

> <b_epik_Metal_Only>
0

> <s_lp_Force_Field>
OPLS_2005

> <r_lp_Energy>
33.3547

> <b_lp_Chiralities_Consistent>
1

> <s_lp_Variant>
AV-unprocessed.smi:46-2

> <Gold.Version>
5.8.1

> <Gold.Id.Protein>
6NUR|6NUR_protein|mol2

> <Gold.PLP.Fitness>
39.8420

> <Gold.PLP.PLP>
-28.2774

> <Gold.PLP.part.hbond>
-2.0000

> <Gold.PLP.part.metal>
0.0000

> <Gold.PLP.part.buried>
-4.3064

> <Gold.PLP.part.nonpolar>
-22.7267

> <Gold.PLP.part.repulsive>
0.1430

> <Gold.PLP.ligand.clash>
0.0000

> <Gold.PLP.ligand.torsion>
0.2746

> <Gold.PLP.Chemscore.Hbond>
3.0000

> <Gold.PLP.Chemscore.CHOScore>
1.0197

> <Gold.PLP.Chemscore.Metal>
0.0000

> <Gold.Chemscore.Hbonds>
donor molecule, donor type, donor heavy atom, donor atom, acceptor molecule, acceptor atom, score
      L1  H     9    35       P1  8028  2.00
      P1  H  7989  7998       L1    13  1.00
      L1  C     5    25       P1  8028  1.00
      L1  C     5    25       P1  8029  0.02

> <Gold.PLP.Chemscore.Internal.Correction>
0.0549

> <Gold.Rescore>
     Score         DG    S(hbond)    S(metal)    S(lipo)     H(rot)  DE(clash)    DE(int)     intcor
     15.37     -15.82       1.89        0.00      75.84       1.90       0.06       0.39       ----

> <Gold.Chemscore.Fitness>
15.3688

> <Gold.Chemscore.DG>
-15.8170

> <Gold.Chemscore.ZeroCoef>
-5.4800

> <Gold.Chemscore.Hbond>
1.8925

> <Gold.Chemscore.Metal>
0.0000

> <Gold.Chemscore.Lipo>
75.8442

> <Gold.Chemscore.Internal_Hbond>
0.0000

> <Gold.Chemscore.DEClash>
0.0601

> <Gold.Chemscore.DEInternal>
0.3881

> <Gold.Chemscore.Rot>
1.8976

> <Gold.Chemscore.Internal.Correction>
   9.000000E+99

> <Gold.Chemscore.Hbonds>
donor molecule, donor type, donor heavy atom, donor atom, acceptor molecule, acceptor atom, score
      L1  H     9    35       P1  8028  0.97
      P1  H  7989  7998       L1    13  0.74

> <Gold.Chemscore.Hbond.Weighted>
-6.3211

> <Gold.Chemscore.Metal.Weighted>
-0.0000

> <Gold.Chemscore.Lipo.Weighted>
-8.8738

> <Gold.Chemscore.Internal_Hbond.Weighted>
0.0000

> <Gold.Chemscore.DEClash.Weighted>
0.0601

> <Gold.Chemscore.DEInternal.Weighted>
0.3881

> <Gold.Chemscore.Rot.Weighted>
4.8579

> <Gold.Chemscore.Internal.Correction.Weighted>
   9.000000E+99

> <Gold.Protein.RotatedTorsions>
[ 6907 6896 6895 6894 ] final  133.88 input  -60.11 | X-H torsion
[ 7974 7965 7964 7962 ] final   12.10 input  175.53 | X-H torsion
[ 8008 7997 7996 7995 ] final  137.62 input   59.86 | X-H torsion
[ 10167 10162 10161 10158 ] final  -35.59 input  -65.29 | X-H torsion
[ 10718 10713 10712 10709 ] final -147.70 input   66.30 | X-H torsion
[ 10763 10752 10751 10750 ] final  179.47 input  -60.55 | X-H torsion
[ 11005 11000 10999 10996 ] final  -32.80 input  -57.11 | X-H torsion

> <Gold.Protein.ActiveResidues>
 VAL166  LYS551  ARG553  GLY616  TRP617  ASP618  TYR619  PRO620  LYS621  CYS622 
 ASP623  PHE694  ASN695  SER759  ASP760  ASP761  ALA762  ILE779  LEU786  VAL792 
 PHE793  MET794  SER795  GLU796  ALA797  LYS798  CYS799  TRP800  GLU811  SER814 

> <Gold.Protein.RotatedAtoms>
  152.3173  133.5816  159.5720 H   0  0  0  0  0  0  0  0  0  0  0  0  # atno 6907 bound_to 6896
  150.7353  134.0064  159.3664 H   0  0  0  0  0  0  0  0  0  0  0  0  # atno 6908 bound_to 6896
  151.7951  135.0725  160.0443 H   0  0  0  0  0  0  0  0  0  0  0  0  # atno 6909 bound_to 6896
  146.2358  139.9387  142.8486 H   0  0  0  0  0  0  0  0  0  0  0  0  # atno 7974 bound_to 7965
  156.3001  140.2414  156.3940 H   0  0  0  0  0  0  0  0  0  0  0  0  # atno 8008 bound_to 7997
  154.8588  140.0421  157.1671 H   0  0  0  0  0  0  0  0  0  0  0  0  # atno 8009 bound_to 7997
  154.8919  140.2964  155.5370 H   0  0  0  0  0  0  0  0  0  0  0  0  # atno 8010 bound_to 7997
  140.7161  143.3466  151.2243 H   0  0  0  0  0  0  0  0  0  0  0  0  # atno 10167 bound_to 10162
  156.4109  130.7981  151.2198 H   0  0  0  0  0  0  0  0  0  0  0  0  # atno 10718 bound_to 10713
  154.5210  135.2794  155.1262 H   0  0  0  0  0  0  0  0  0  0  0  0  # atno 10763 bound_to 10752
  154.2819  135.6283  153.5354 H   0  0  0  0  0  0  0  0  0  0  0  0  # atno 10764 bound_to 10752
  152.9937  135.5653  154.5700 H   0  0  0  0  0  0  0  0  0  0  0  0  # atno 10765 bound_to 10752
  140.9582  133.7180  156.1327 H   0  0  0  0  0  0  0  0  0  0  0  0  # atno 11005 bound_to 11000
  145.1974  140.9839  143.4176 LP  0  0  0  0  0  0  0  0  0  0  0  0  # atno 17320 bound_to 7965
  144.9804  139.3789  143.6265 LP  0  0  0  0  0  0  0  0  0  0  0  0  # atno 17321 bound_to 7965
  139.6987  143.9569  152.2895 LP  0  0  0  0  0  0  0  0  0  0  0  0  # atno 17342 bound_to 10162
  139.9255  144.6774  150.8417 LP  0  0  0  0  0  0  0  0  0  0  0  0  # atno 17343 bound_to 10162
  157.7507  131.0258  150.3934 LP  0  0  0  0  0  0  0  0  0  0  0  0  # atno 17370 bound_to 10713
  156.4232  130.3957  149.6811 LP  0  0  0  0  0  0  0  0  0  0  0  0  # atno 17371 bound_to 10713
  140.7506  134.4049  157.5542 LP  0  0  0  0  0  0  0  0  0  0  0  0  # atno 17394 bound_to 11000
  139.8869  134.8897  156.2558 LP  0  0  0  0  0  0  0  0  0  0  0  0  # atno 17395 bound_to 11000

$$$$
