AV-unprocessed.smi:3226|AV-procd|sdf|12316|dock5
  -GOLD-   2272018163D 1   1.00000     0.00000
 Structure written by MMmdl.
 41 43  0  0  0  0  0  0  0  0  2 V2000
  147.5183  141.9196  153.7474 C   0  0  0  0  0  0  0  0  0  0  0  0
  148.5706  141.5438  154.7965 C   0  0  0  0  0  0  0  0  0  0  0  0
  149.2679  140.2578  154.4758 C   0  0  0  0  0  0  0  0  0  0  0  0
  150.5915  140.0927  154.5860 N   0  0  0  0  0  0  0  0  0  0  0  0
  150.8349  138.7804  154.2338 N   0  0  0  0  0  0  0  0  0  0  0  0
  149.6326  138.2801  153.9561 C   0  0  0  0  0  0  0  0  0  0  0  0
  148.6136  139.1446  154.0817 N   0  0  0  0  0  0  0  0  0  0  0  0
  147.1983  138.9075  153.8527 C   0  0  0  0  0  0  0  0  0  0  0  0
  146.8228  138.9964  152.3645 C   0  0  0  0  0  0  0  0  0  0  0  0
  146.5291  137.6659  151.7943 N   0  3  0  0  0  0  0  0  0  0  0  0
  145.4557  136.9350  152.4953 C   0  0  0  0  0  0  0  0  0  0  0  0
  145.5848  135.4154  152.2818 C   0  0  1  0  0  0  0  0  0  0  0  0
  144.2917  134.6136  152.6352 C   0  0  0  0  0  0  0  0  0  0  0  0
  143.9984  133.8261  151.3373 C   0  0  2  0  0  0  0  0  0  0  0  0
  145.1305  132.8458  151.1122 C   0  0  0  0  0  0  0  0  0  0  0  0
  146.2108  133.5566  150.7833 C   0  0  0  0  0  0  0  0  0  0  0  0
  145.8109  135.0177  150.7993 C   0  0  1  0  0  0  0  0  0  0  0  0
  144.3636  134.8950  150.3040 C   0  0  0  0  0  0  0  0  0  0  0  0
  147.0253  142.8562  154.0089 H   0  0  0  0  0  0  0  0  0  0  0  0
  146.7501  141.1497  153.6674 H   0  0  0  0  0  0  0  0  0  0  0  0
  147.9704  142.0451  152.7631 H   0  0  0  0  0  0  0  0  0  0  0  0
  149.3017  142.3455  154.8976 H   0  0  0  0  0  0  0  0  0  0  0  0
  148.0927  141.4450  155.7718 H   0  0  0  0  0  0  0  0  0  0  0  0
  149.4916  137.2545  153.6478 H   0  0  0  0  0  0  0  0  0  0  0  0
  146.9379  137.9271  154.2539 H   0  0  0  0  0  0  0  0  0  0  0  0
  146.6260  139.6358  154.4278 H   0  0  0  0  0  0  0  0  0  0  0  0
  145.9414  139.6293  152.2533 H   0  0  0  0  0  0  0  0  0  0  0  0
  147.6257  139.4669  151.7955 H   0  0  0  0  0  0  0  0  0  0  0  0
  146.2605  137.7820  150.8274 H   0  0  0  0  0  0  0  0  0  0  0  0
  145.4826  137.1836  153.5566 H   0  0  0  0  0  0  0  0  0  0  0  0
  144.4937  137.2773  152.1115 H   0  0  0  0  0  0  0  0  0  0  0  0
  146.4249  135.0562  152.8797 H   0  0  0  0  0  0  0  0  0  0  0  0
  144.4383  133.9525  153.4903 H   0  0  0  0  0  0  0  0  0  0  0  0
  143.4592  135.2782  152.8708 H   0  0  0  0  0  0  0  0  0  0  0  0
  142.9981  133.4034  151.2416 H   0  0  0  0  0  0  0  0  0  0  0  0
  145.0533  131.7751  151.2313 H   0  0  0  0  0  0  0  0  0  0  0  0
  147.2062  133.1910  150.5785 H   0  0  0  0  0  0  0  0  0  0  0  0
  146.4567  135.6699  150.2110 H   0  0  0  0  0  0  0  0  0  0  0  0
  144.2951  134.5332  149.2760 H   0  0  0  0  0  0  0  0  0  0  0  0
  143.7774  135.8113  150.3894 H   0  0  0  0  0  0  0  0  0  0  0  0
  147.3699  137.1074  151.8310 H   0  0  0  0  0  0  0  0  0  0  0  0
  1  2  1  0  0  0  0
  1 19  1  0  0  0  0
  1 20  1  0  0  0  0
  1 21  1  0  0  0  0
  2  3  1  0  0  0  0
  2 22  1  0  0  0  0
  2 23  1  0  0  0  0
  3  7  1  0  0  0  0
  3  4  2  0  0  0  0
  4  5  1  0  0  0  0
  5  6  2  0  0  0  0
  6  7  1  0  0  0  0
  6 24  1  0  0  0  0
  7  8  1  0  0  0  0
  8  9  1  0  0  0  0
  8 25  1  0  0  0  0
  8 26  1  0  0  0  0
  9 10  1  0  0  0  0
  9 27  1  0  0  0  0
  9 28  1  0  0  0  0
 10 11  1  0  0  0  0
 10 29  1  0  0  0  0
 10 41  1  0  0  0  0
 11 12  1  0  0  0  0
 11 30  1  0  0  0  0
 11 31  1  0  0  0  0
 12 17  1  0  0  0  0
 12 13  1  0  0  0  0
 12 32  1  0  0  0  0
 13 14  1  0  0  0  0
 13 33  1  0  0  0  0
 13 34  1  0  0  0  0
 14 18  1  0  0  0  0
 14 15  1  0  0  0  0
 14 35  1  0  0  0  0
 15 16  2  0  0  0  0
 15 36  1  0  0  0  0
 16 17  1  0  0  0  0
 16 37  1  0  0  0  0
 17 18  1  0  0  0  0
 17 38  1  0  0  0  0
 18 39  1  0  0  0  0
 18 40  1  0  0  0  0
M  CHG  1  10   1
M  END
> <s_m_source_file>
AV-unprocessed.smi

> <i_m_source_file_index>
3226

> <i_lp_mmshare_version>
43012

> <i_f3d_flags>
0

> <s_epik_input>
W0NIM11bQ0gyXWMxbm5bY0hdbjFbQ0gyXVtDSDJdW05IXVtDSDJdW0NASF0oW0NIMl1bQ0BASF0yMylbQ0BASF0oW0NIMl0zKVtDSF09W0NIXTI=

> <s_epik_cmdline>
J2VwaWtfcHl0aG9uJywgJy1waCcsICc3LjAnLCAnLXRuJywgJzgnLCAnLW1hJywgJzIwMCcsICctbWV0YWxfYmluZGluZycsICctaW1hZScsICc8aW5maWxlLm1hZT4nLCAnLW9tYWUnLCAnPG91dGZpbGUubWFlPic=

> <r_lp_tautomer_probability>
1

> <r_epik_Ionization_Penalty>
0.00175008

> <r_epik_Ionization_Penalty_Charging>
0.00173932

> <r_epik_Ionization_Penalty_Neutral>
1.07546e-05

> <r_epik_State_Penalty>
-0

> <r_epik_Charging_Adjusted_Penalty>
0.00173932

> <i_epik_Tot_Q>
1

> <i_epik_Tot_abs_Q>
1

> <r_epik_Metal_State_Penalty>
-0

> <b_epik_Metal_Only>
0

> <s_lp_Force_Field>
OPLS_2005

> <r_lp_Energy>
64.6894

> <b_lp_Chiralities_Consistent>
1

> <s_lp_Variant>
AV-unprocessed.smi:3226-4

> <Gold.Version>
5.8.1

> <Gold.Id.Protein>
6NUR|6NUR_protein|mol2

> <Gold.PLP.Fitness>
44.3142

> <Gold.PLP.PLP>
-34.4900

> <Gold.PLP.part.hbond>
-2.0424

> <Gold.PLP.part.metal>
0.0000

> <Gold.PLP.part.buried>
-2.6967

> <Gold.PLP.part.nonpolar>
-28.9649

> <Gold.PLP.part.repulsive>
0.3445

> <Gold.PLP.ligand.clash>
0.0000

> <Gold.PLP.ligand.torsion>
1.0665

> <Gold.PLP.Chemscore.Hbond>
2.9500

> <Gold.PLP.Chemscore.CHOScore>
1.0000

> <Gold.PLP.Chemscore.Metal>
0.0000

> <Gold.Chemscore.Hbonds>
donor molecule, donor type, donor heavy atom, donor atom, acceptor molecule, acceptor atom, score
      L1  H    10    41       P1  7948  2.00
      P1  H  7989  7998       L1     4  1.00
      L1  C     6    24       P1  7948  1.00

> <Gold.PLP.Chemscore.Internal.Correction>
0.1072

> <Gold.Rescore>
     Score         DG    S(hbond)    S(metal)    S(lipo)     H(rot)  DE(clash)    DE(int)     intcor
     12.24     -14.46       1.67        0.00      74.05       2.06       1.37       0.85       ----

> <Gold.Chemscore.Fitness>
12.2356

> <Gold.Chemscore.DG>
-14.4556

> <Gold.Chemscore.ZeroCoef>
-5.4800

> <Gold.Chemscore.Hbond>
1.6742

> <Gold.Chemscore.Metal>
0.0000

> <Gold.Chemscore.Lipo>
74.0465

> <Gold.Chemscore.Internal_Hbond>
0.0000

> <Gold.Chemscore.DEClash>
1.3738

> <Gold.Chemscore.DEInternal>
0.8463

> <Gold.Chemscore.Rot>
2.0623

> <Gold.Chemscore.Internal.Correction>
   9.000000E+99

> <Gold.Chemscore.Hbonds>
donor molecule, donor type, donor heavy atom, donor atom, acceptor molecule, acceptor atom, score
      L1  H    10    41       P1  7948  1.00
      P1  H  7989  7998       L1     4  0.25

> <Gold.Chemscore.Hbond.Weighted>
-5.5918

> <Gold.Chemscore.Metal.Weighted>
-0.0000

> <Gold.Chemscore.Lipo.Weighted>
-8.6634

> <Gold.Chemscore.Internal_Hbond.Weighted>
0.0000

> <Gold.Chemscore.DEClash.Weighted>
1.3738

> <Gold.Chemscore.DEInternal.Weighted>
0.8463

> <Gold.Chemscore.Rot.Weighted>
5.2796

> <Gold.Chemscore.Internal.Correction.Weighted>
   9.000000E+99

> <Gold.Protein.RotatedTorsions>
[ 6907 6896 6895 6894 ] final  -56.40 input  -60.11 | X-H torsion
[ 7974 7965 7964 7962 ] final  -39.49 input  175.53 | X-H torsion
[ 8008 7997 7996 7995 ] final   90.87 input   59.86 | X-H torsion
[ 10167 10162 10161 10158 ] final   73.36 input  -65.29 | X-H torsion
[ 10718 10713 10712 10709 ] final -128.56 input   66.30 | X-H torsion
[ 10763 10752 10751 10750 ] final   -5.39 input  -60.55 | X-H torsion
[ 11005 11000 10999 10996 ] final  177.16 input  -57.11 | X-H torsion

> <Gold.Protein.ActiveResidues>
 VAL166  LYS551  ARG553  GLY616  TRP617  ASP618  TYR619  PRO620  LYS621  CYS622 
 ASP623  PHE694  ASN695  SER759  ASP760  ASP761  ALA762  ILE779  LEU786  VAL792 
 PHE793  MET794  SER795  GLU796  ALA797  LYS798  CYS799  TRP800  GLU811  SER814 

> <Gold.Protein.RotatedAtoms>
  150.8171  134.7358  159.6739 H   0  0  0  0  0  0  0  0  0  0  0  0  # atno 6907 bound_to 6896
  152.4289  134.5813  159.9958 H   0  0  0  0  0  0  0  0  0  0  0  0  # atno 6908 bound_to 6896
  151.6007  133.3319  159.3082 H   0  0  0  0  0  0  0  0  0  0  0  0  # atno 6909 bound_to 6896
  146.0391  140.6632  142.9095 H   0  0  0  0  0  0  0  0  0  0  0  0  # atno 7974 bound_to 7965
  156.0171  140.3344  155.7000 H   0  0  0  0  0  0  0  0  0  0  0  0  # atno 8008 bound_to 7997
  155.6075  140.0662  157.2733 H   0  0  0  0  0  0  0  0  0  0  0  0  # atno 8009 bound_to 7997
  154.4302  140.1799  156.1225 H   0  0  0  0  0  0  0  0  0  0  0  0  # atno 8010 bound_to 7997
  140.0253  144.5508  150.7549 H   0  0  0  0  0  0  0  0  0  0  0  0  # atno 10167 bound_to 10162
  156.1963  130.6828  151.0485 H   0  0  0  0  0  0  0  0  0  0  0  0  # atno 10718 bound_to 10713
  153.3979  135.7004  153.6447 H   0  0  0  0  0  0  0  0  0  0  0  0  # atno 10763 bound_to 10752
  153.4992  135.3656  155.2532 H   0  0  0  0  0  0  0  0  0  0  0  0  # atno 10764 bound_to 10752
  154.8708  135.4108  154.3309 H   0  0  0  0  0  0  0  0  0  0  0  0  # atno 10765 bound_to 10752
  140.3810  134.6946  157.4451 H   0  0  0  0  0  0  0  0  0  0  0  0  # atno 11005 bound_to 11000
  144.7066  140.3876  143.7113 LP  0  0  0  0  0  0  0  0  0  0  0  0  # atno 17320 bound_to 7965
  145.6914  139.1640  143.2645 LP  0  0  0  0  0  0  0  0  0  0  0  0  # atno 17321 bound_to 7965
  140.7325  143.2706  151.3900 LP  0  0  0  0  0  0  0  0  0  0  0  0  # atno 17342 bound_to 10162
  139.6112  144.1095  152.2300 LP  0  0  0  0  0  0  0  0  0  0  0  0  # atno 17343 bound_to 10162
  157.6959  131.0794  150.6969 LP  0  0  0  0  0  0  0  0  0  0  0  0  # atno 17370 bound_to 10713
  156.7026  130.4628  149.5568 LP  0  0  0  0  0  0  0  0  0  0  0  0  # atno 17371 bound_to 10713
  140.0478  134.6174  155.8899 LP  0  0  0  0  0  0  0  0  0  0  0  0  # atno 17394 bound_to 11000
  141.1923  133.6575  156.5497 LP  0  0  0  0  0  0  0  0  0  0  0  0  # atno 17395 bound_to 11000

$$$$
