AV-unprocessed.smi:1244|AV-procd|sdf|5223|dock8
  -GOLD-   22720 4323D 1   1.00000     0.00000
 Structure written by MMmdl.
 54 56  0  0  0  0  0  0  0  0  1 V2000
  148.1218  141.1721  153.8769 C   0  0  0  0  0  0  0  0  0  0  0  0
  149.0493  140.5160  154.9051 C   0  0  1  0  0  0  0  0  0  0  0  0
  149.7018  139.2330  154.3605 C   0  0  0  0  0  0  0  0  0  0  0  0
  150.6410  138.6535  155.3120 N   0  0  0  0  0  0  0  0  0  0  0  0
  151.2110  137.4117  154.7941 C   0  0  0  0  0  0  0  0  0  0  0  0
  150.5960  136.1251  155.3764 C   0  0  0  0  0  0  0  0  0  0  0  0
  149.6784  135.4996  154.4317 N   0  0  0  0  0  0  0  0  0  0  0  0
  149.2820  134.2199  154.4772 C   0  0  0  0  0  0  0  0  0  0  0  0
  149.6627  133.4198  155.3318 O   0  0  0  0  0  0  0  0  0  0  0  0
  148.4414  133.9360  153.4681 N   0  0  0  0  0  0  0  0  0  0  0  0
  147.8034  132.6982  153.1695 C   0  0  0  0  0  0  0  0  0  0  0  0
  148.2260  131.4824  153.7617 C   0  0  0  0  0  0  0  0  0  0  0  0
  147.5757  130.2844  153.4197 C   0  0  0  0  0  0  0  0  0  0  0  0
  146.5190  130.3430  152.4965 C   0  0  0  0  0  0  0  0  0  0  0  0
  146.0908  131.4935  151.9400 N   0  0  0  0  0  0  0  0  0  0  0  0
  146.6974  132.6600  152.2716 C   0  0  0  0  0  0  0  0  0  0  0  0
  146.1886  133.8343  151.6696 N   0  0  0  0  0  0  0  0  0  0  0  0
  145.2856  133.7493  150.5265 C   0  0  0  0  0  0  0  0  0  0  0  0
  144.6705  135.1403  150.4050 C   0  0  0  0  0  0  0  0  0  0  0  0
  144.5464  135.5697  151.8638 C   0  0  0  0  0  0  0  0  0  0  0  0
  145.7678  134.9321  152.5347 C   0  0  0  0  0  0  0  0  0  0  0  0
  151.6613  139.6479  155.6369 C   0  0  0  0  0  0  0  0  0  0  0  0
  151.0604  140.9706  156.1546 C   0  0  2  0  0  0  0  0  0  0  0  0
  150.5217  140.8715  157.5920 C   0  0  0  0  0  0  0  0  0  0  0  0
  150.0672  141.4544  155.2486 O   0  0  0  0  0  0  0  0  0  0  0  0
  147.3155  140.4968  153.5894 H   0  0  0  0  0  0  0  0  0  0  0  0
  148.6662  141.4480  152.9733 H   0  0  0  0  0  0  0  0  0  0  0  0
  147.6687  142.0769  154.2824 H   0  0  0  0  0  0  0  0  0  0  0  0
  148.4621  140.2774  155.7925 H   0  0  0  0  0  0  0  0  0  0  0  0
  148.9214  138.5080  154.1257 H   0  0  0  0  0  0  0  0  0  0  0  0
  150.2148  139.4527  153.4227 H   0  0  0  0  0  0  0  0  0  0  0  0
  151.0685  137.3904  153.7129 H   0  0  0  0  0  0  0  0  0  0  0  0
  152.2906  137.4069  154.9524 H   0  0  0  0  0  0  0  0  0  0  0  0
  151.3707  135.3948  155.6066 H   0  0  0  0  0  0  0  0  0  0  0  0
  150.0787  136.3387  156.3135 H   0  0  0  0  0  0  0  0  0  0  0  0
  149.3199  136.0838  153.6908 H   0  0  0  0  0  0  0  0  0  0  0  0
  148.3080  134.6653  152.7832 H   0  0  0  0  0  0  0  0  0  0  0  0
  149.0326  131.4492  154.4780 H   0  0  0  0  0  0  0  0  0  0  0  0
  147.8818  129.3442  153.8536 H   0  0  0  0  0  0  0  0  0  0  0  0
  145.9972  129.4441  152.2032 H   0  0  0  0  0  0  0  0  0  0  0  0
  145.8176  133.4598  149.6197 H   0  0  0  0  0  0  0  0  0  0  0  0
  144.4962  133.0190  150.7099 H   0  0  0  0  0  0  0  0  0  0  0  0
  145.3537  135.8068  149.8767 H   0  0  0  0  0  0  0  0  0  0  0  0
  143.7173  135.1391  149.8756 H   0  0  0  0  0  0  0  0  0  0  0  0
  144.5122  136.6523  151.9884 H   0  0  0  0  0  0  0  0  0  0  0  0
  143.6332  135.1531  152.2911 H   0  0  0  0  0  0  0  0  0  0  0  0
  145.5365  134.5948  153.5460 H   0  0  0  0  0  0  0  0  0  0  0  0
  146.5769  135.6599  152.5956 H   0  0  0  0  0  0  0  0  0  0  0  0
  152.3520  139.2592  156.3844 H   0  0  0  0  0  0  0  0  0  0  0  0
  152.2570  139.8572  154.7469 H   0  0  0  0  0  0  0  0  0  0  0  0
  151.8544  141.7178  156.1646 H   0  0  0  0  0  0  0  0  0  0  0  0
  151.3207  140.6147  158.2878 H   0  0  0  0  0  0  0  0  0  0  0  0
  149.7495  140.1086  157.6884 H   0  0  0  0  0  0  0  0  0  0  0  0
  150.0956  141.8216  157.9142 H   0  0  0  0  0  0  0  0  0  0  0  0
  1  2  1  0  0  0  0
  1 26  1  0  0  0  0
  1 27  1  0  0  0  0
  1 28  1  0  0  0  0
  2 25  1  0  0  0  0
  2  3  1  0  0  0  0
  2 29  1  0  0  0  0
  3  4  1  0  0  0  0
  3 30  1  0  0  0  0
  3 31  1  0  0  0  0
  4  5  1  0  0  0  0
  4 22  1  0  0  0  0
  5  6  1  0  0  0  0
  5 32  1  0  0  0  0
  5 33  1  0  0  0  0
  6  7  1  0  0  0  0
  6 34  1  0  0  0  0
  6 35  1  0  0  0  0
  7  8  1  0  0  0  0
  7 36  1  0  0  0  0
  8  9  2  0  0  0  0
  8 10  1  0  0  0  0
 10 11  1  0  0  0  0
 10 37  1  0  0  0  0
 11 16  1  0  0  0  0
 11 12  2  0  0  0  0
 12 13  1  0  0  0  0
 12 38  1  0  0  0  0
 13 14  2  0  0  0  0
 13 39  1  0  0  0  0
 14 15  1  0  0  0  0
 14 40  1  0  0  0  0
 15 16  2  0  0  0  0
 16 17  1  0  0  0  0
 17 21  1  0  0  0  0
 17 18  1  0  0  0  0
 18 19  1  0  0  0  0
 18 41  1  0  0  0  0
 18 42  1  0  0  0  0
 19 20  1  0  0  0  0
 19 43  1  0  0  0  0
 19 44  1  0  0  0  0
 20 21  1  0  0  0  0
 20 45  1  0  0  0  0
 20 46  1  0  0  0  0
 21 47  1  0  0  0  0
 21 48  1  0  0  0  0
 22 23  1  0  0  0  0
 22 49  1  0  0  0  0
 22 50  1  0  0  0  0
 23 24  1  0  0  0  0
 23 25  1  0  0  0  0
 23 51  1  0  0  0  0
 24 52  1  0  0  0  0
 24 53  1  0  0  0  0
 24 54  1  0  0  0  0
M  END
> <s_m_source_file>
AV-unprocessed.smi

> <i_m_source_file_index>
1244

> <i_lp_mmshare_version>
43012

> <i_f3d_flags>
0

> <s_epik_input>
W0NIM11bQ0BASF0xW0NIMl1OKFtDSDJdW0NASF0oTzEpW0NIM10pW0NIMl1bQ0gyXVtOSF1DKD1PKVtOSF1jMltjSF1bY0hdW2NIXW5jMk4zW0NIMl1bQ0gyXVtDSDJdW0NIMl0z

> <s_epik_cmdline>
J2VwaWtfcHl0aG9uJywgJy1waCcsICc3LjAnLCAnLXRuJywgJzgnLCAnLW1hJywgJzIwMCcsICctbWV0YWxfYmluZGluZycsICctaW1hZScsICc8aW5maWxlLm1hZT4nLCAnLW9tYWUnLCAnPG91dGZpbGUubWFlPic=

> <r_lp_tautomer_probability>
1

> <r_epik_Ionization_Penalty>
0.363951

> <r_epik_Ionization_Penalty_Charging>
0

> <r_epik_Ionization_Penalty_Neutral>
0.363951

> <r_epik_State_Penalty>
0.349372

> <r_epik_Charging_Adjusted_Penalty>
0.349372

> <i_epik_Tot_Q>
0

> <i_epik_Tot_abs_Q>
0

> <r_epik_Metal_State_Penalty>
0.333054

> <b_epik_Metal_Only>
0

> <s_lp_Force_Field>
OPLS_2005

> <r_lp_Energy>
51.4551

> <b_lp_Chiralities_Consistent>
1

> <s_lp_Variant>
AV-unprocessed.smi:1244-3

> <Gold.Version>
5.8.1

> <Gold.Id.Protein>
6NUR|6NUR_protein|mol2

> <Gold.PLP.Fitness>
48.0663

> <Gold.PLP.PLP>
-44.2466

> <Gold.PLP.part.hbond>
-3.2729

> <Gold.PLP.part.metal>
0.0000

> <Gold.PLP.part.buried>
-4.1464

> <Gold.PLP.part.nonpolar>
-37.6435

> <Gold.PLP.part.repulsive>
0.5465

> <Gold.PLP.ligand.clash>
0.0000

> <Gold.PLP.ligand.torsion>
1.3022

> <Gold.PLP.Chemscore.Hbond>
2.0100

> <Gold.PLP.Chemscore.CHOScore>
0.0000

> <Gold.PLP.Chemscore.Metal>
0.0000

> <Gold.Chemscore.Hbonds>
donor molecule, donor type, donor heavy atom, donor atom, acceptor molecule, acceptor atom, score
      L1  H     7    36       P1  7948  0.91
      L1  H    10    37       P1  7948  0.99
      P1  H  7989  7998       L1    25  0.01

> <Gold.PLP.Chemscore.Internal.Correction>
0.3939

> <Gold.Rescore>
     Score         DG    S(hbond)    S(metal)    S(lipo)     H(rot)  DE(clash)    DE(int)     intcor
     13.88     -17.41       1.48        0.00      93.48       1.55       0.15       3.38       ----

> <Gold.Chemscore.Fitness>
13.8794

> <Gold.Chemscore.DG>
-17.4126

> <Gold.Chemscore.ZeroCoef>
-5.4800

> <Gold.Chemscore.Hbond>
1.4845

> <Gold.Chemscore.Metal>
0.0000

> <Gold.Chemscore.Lipo>
93.4798

> <Gold.Chemscore.Internal_Hbond>
0.0000

> <Gold.Chemscore.DEClash>
0.1511

> <Gold.Chemscore.DEInternal>
3.3822

> <Gold.Chemscore.Rot>
1.5479

> <Gold.Chemscore.Internal.Correction>
   9.000000E+99

> <Gold.Chemscore.Hbonds>
donor molecule, donor type, donor heavy atom, donor atom, acceptor molecule, acceptor atom, score
      L1  H     7    36       P1  7948  0.69
      L1  H    10    37       P1  7948  0.42

> <Gold.Chemscore.Hbond.Weighted>
-4.9582

> <Gold.Chemscore.Metal.Weighted>
-0.0000

> <Gold.Chemscore.Lipo.Weighted>
-10.9371

> <Gold.Chemscore.Internal_Hbond.Weighted>
0.0000

> <Gold.Chemscore.DEClash.Weighted>
0.1511

> <Gold.Chemscore.DEInternal.Weighted>
3.3822

> <Gold.Chemscore.Rot.Weighted>
3.9627

> <Gold.Chemscore.Internal.Correction.Weighted>
   9.000000E+99

> <Gold.Protein.RotatedTorsions>
[ 6907 6896 6895 6894 ] final  -77.17 input  -60.11 | X-H torsion
[ 7974 7965 7964 7962 ] final  -37.71 input  175.53 | X-H torsion
[ 8008 7997 7996 7995 ] final   86.71 input   59.86 | X-H torsion
[ 10167 10162 10161 10158 ] final -177.09 input  -65.29 | X-H torsion
[ 10718 10713 10712 10709 ] final    1.44 input   66.30 | X-H torsion
[ 10763 10752 10751 10750 ] final  -78.11 input  -60.55 | X-H torsion
[ 11005 11000 10999 10996 ] final -125.85 input  -57.11 | X-H torsion

> <Gold.Protein.ActiveResidues>
 VAL166  LYS551  ARG553  GLY616  TRP617  ASP618  TYR619  PRO620  LYS621  CYS622 
 ASP623  PHE694  ASN695  SER759  ASP760  ASP761  ALA762  ILE779  LEU786  VAL792 
 PHE793  MET794  SER795  GLU796  ALA797  LYS798  CYS799  TRP800  GLU811  SER814 

> <Gold.Protein.RotatedAtoms>
  150.7006  134.4463  159.5315 H   0  0  0  0  0  0  0  0  0  0  0  0  # atno 6907 bound_to 6896
  152.2164  134.8451  160.0500 H   0  0  0  0  0  0  0  0  0  0  0  0  # atno 6908 bound_to 6896
  151.9318  133.3578  159.3970 H   0  0  0  0  0  0  0  0  0  0  0  0  # atno 6909 bound_to 6896
  146.0551  140.6428  142.9023 H   0  0  0  0  0  0  0  0  0  0  0  0  # atno 7974 bound_to 7965
  155.9663  140.3389  155.6535 H   0  0  0  0  0  0  0  0  0  0  0  0  # atno 8008 bound_to 7997
  155.6733  140.0729  157.2530 H   0  0  0  0  0  0  0  0  0  0  0  0  # atno 8009 bound_to 7997
  154.4155  140.1687  156.1890 H   0  0  0  0  0  0  0  0  0  0  0  0  # atno 8010 bound_to 7997
  139.5497  144.2141  152.1055 H   0  0  0  0  0  0  0  0  0  0  0  0  # atno 10167 bound_to 10162
  156.8482  130.5544  149.5672 H   0  0  0  0  0  0  0  0  0  0  0  0  # atno 10718 bound_to 10713
  154.5216  135.5741  153.6686 H   0  0  0  0  0  0  0  0  0  0  0  0  # atno 10763 bound_to 10752
  152.9918  135.6183  154.2746 H   0  0  0  0  0  0  0  0  0  0  0  0  # atno 10764 bound_to 10752
  154.2668  135.2854  155.2735 H   0  0  0  0  0  0  0  0  0  0  0  0  # atno 10765 bound_to 10752
  140.9728  134.0781  157.3850 H   0  0  0  0  0  0  0  0  0  0  0  0  # atno 11005 bound_to 11000
  144.7143  140.4154  143.7056 LP  0  0  0  0  0  0  0  0  0  0  0  0  # atno 17320 bound_to 7965
  145.6658  139.1590  143.2782 LP  0  0  0  0  0  0  0  0  0  0  0  0  # atno 17321 bound_to 7965
  140.1634  144.5004  150.6619 LP  0  0  0  0  0  0  0  0  0  0  0  0  # atno 17342 bound_to 10162
  140.6756  143.2304  151.5515 LP  0  0  0  0  0  0  0  0  0  0  0  0  # atno 17343 bound_to 10162
  156.0843  130.5845  150.9619 LP  0  0  0  0  0  0  0  0  0  0  0  0  # atno 17370 bound_to 10713
  157.6318  131.0920  150.8426 LP  0  0  0  0  0  0  0  0  0  0  0  0  # atno 17371 bound_to 10713
  139.8919  135.0121  156.6816 LP  0  0  0  0  0  0  0  0  0  0  0  0  # atno 17394 bound_to 11000
  140.7303  133.9065  155.8206 LP  0  0  0  0  0  0  0  0  0  0  0  0  # atno 17395 bound_to 11000

$$$$
