AV-unprocessed.smi:2671|AV-procd|sdf|10352|dock9
  -GOLD-   2272014373D 1   1.00000     0.00000
 Structure written by MMmdl.
 29 30  0  0  0  0  0  0  0  0  1 V2000
  152.0619  137.4119  153.8137 O   0  0  0  0  0  0  0  0  0  0  0  0
  151.3004  138.0356  154.7568 C   0  0  0  0  0  0  0  0  0  0  0  0
  150.4454  137.2740  155.5808 C   0  0  0  0  0  0  0  0  0  0  0  0
  149.6844  137.9870  156.5362 C   0  0  0  0  0  0  0  0  0  0  0  0
  148.7235  137.2902  157.4875 C   0  0  0  0  0  0  0  0  0  0  0  0
  148.7157  135.9707  157.2958 F   0  0  0  0  0  0  0  0  0  0  0  0
  149.0839  137.5317  158.7481 F   0  0  0  0  0  0  0  0  0  0  0  0
  147.4875  137.7520  157.2967 F   0  0  0  0  0  0  0  0  0  0  0  0
  149.7771  139.3323  156.6493 N   0  0  0  0  0  0  0  0  0  0  0  0
  150.6205  139.9402  155.8146 C   0  0  0  0  0  0  0  0  0  0  0  0
  150.7346  141.7031  155.9654 S   0  0  0  0  0  0  0  0  0  0  0  0
  150.6646  141.8451  157.7722 C   0  0  0  0  0  0  0  0  0  0  0  0
  150.7615  143.3048  158.2359 C   0  0  2  0  0  0  0  0  0  0  0  0
  152.0392  144.0299  157.7990 C   0  0  0  0  0  0  0  0  0  0  0  0
  152.3480  144.9765  158.9515 C   0  0  0  0  0  0  0  0  0  0  0  0
  151.2636  144.6751  159.9854 C   0  0  0  0  0  0  0  0  0  0  0  0
  150.8219  143.3689  159.6520 O   0  0  0  0  0  0  0  0  0  0  0  0
  151.3853  139.3778  154.8772 N   0  0  0  0  0  0  0  0  0  0  0  0
  151.5824  137.2330  153.0194 H   0  0  0  0  0  0  0  0  0  0  0  0
  150.3806  136.2005  155.4806 H   0  0  0  0  0  0  0  0  0  0  0  0
  149.7256  141.4095  158.1150 H   0  0  0  0  0  0  0  0  0  0  0  0
  151.4678  141.2511  158.2094 H   0  0  0  0  0  0  0  0  0  0  0  0
  149.8841  143.8641  157.9057 H   0  0  0  0  0  0  0  0  0  0  0  0
  152.8632  143.3268  157.6725 H   0  0  0  0  0  0  0  0  0  0  0  0
  151.9026  144.5548  156.8529 H   0  0  0  0  0  0  0  0  0  0  0  0
  153.3366  144.7596  159.3576 H   0  0  0  0  0  0  0  0  0  0  0  0
  152.3331  146.0233  158.6469 H   0  0  0  0  0  0  0  0  0  0  0  0
  151.6323  144.7256  161.0102 H   0  0  0  0  0  0  0  0  0  0  0  0
  150.4313  145.3738  159.8867 H   0  0  0  0  0  0  0  0  0  0  0  0
  1  2  1  0  0  0  0
  1 19  1  0  0  0  0
  2 18  1  0  0  0  0
  2  3  2  0  0  0  0
  3  4  1  0  0  0  0
  3 20  1  0  0  0  0
  4  5  1  0  0  0  0
  4  9  2  0  0  0  0
  5  6  1  0  0  0  0
  5  7  1  0  0  0  0
  5  8  1  0  0  0  0
  9 10  1  0  0  0  0
 10 11  1  0  0  0  0
 10 18  2  0  0  0  0
 11 12  1  0  0  0  0
 12 13  1  0  0  0  0
 12 21  1  0  0  0  0
 12 22  1  0  0  0  0
 13 17  1  0  0  0  0
 13 14  1  0  0  0  0
 13 23  1  0  0  0  0
 14 15  1  0  0  0  0
 14 24  1  0  0  0  0
 14 25  1  0  0  0  0
 15 16  1  0  0  0  0
 15 26  1  0  0  0  0
 15 27  1  0  0  0  0
 16 17  1  0  0  0  0
 16 28  1  0  0  0  0
 16 29  1  0  0  0  0
M  END
> <s_m_source_file>
AV-unprocessed.smi

> <i_m_source_file_index>
2671

> <i_lp_mmshare_version>
43012

> <i_f3d_flags>
0

> <s_epik_input>
W09IXWMxW2NIXWMoQyhGKShGKUYpbmMobjEpU1tDSDJdW0NAQEhdMltDSDJdW0NIMl1bQ0gyXU8y

> <s_epik_cmdline>
J2VwaWtfcHl0aG9uJywgJy1waCcsICc3LjAnLCAnLXRuJywgJzgnLCAnLW1hJywgJzIwMCcsICctbWV0YWxfYmluZGluZycsICctaW1hZScsICc8aW5maWxlLm1hZT4nLCAnLW9tYWUnLCAnPG91dGZpbGUubWFlPic=

> <r_lp_tautomer_probability>
0.0660145

> <r_epik_Ionization_Penalty>
3.60098

> <r_epik_Ionization_Penalty_Charging>
0

> <r_epik_Ionization_Penalty_Neutral>
3.60098

> <r_epik_State_Penalty>
2.71709

> <r_epik_Charging_Adjusted_Penalty>
2.71709

> <i_epik_Tot_Q>
0

> <i_epik_Tot_abs_Q>
0

> <r_epik_Metal_State_Penalty>
3.44057

> <b_epik_Metal_Only>
0

> <s_lp_Force_Field>
OPLS_2005

> <r_lp_Energy>
11.8845

> <b_lp_Chiralities_Consistent>
1

> <s_lp_Variant>
AV-unprocessed.smi:2671-7

> <Gold.Version>
5.8.1

> <Gold.Id.Protein>
6NUR|6NUR_protein|mol2

> <Gold.PLP.Fitness>
41.5364

> <Gold.PLP.PLP>
-33.1688

> <Gold.PLP.part.hbond>
-3.2248

> <Gold.PLP.part.metal>
0.0000

> <Gold.PLP.part.buried>
-5.2979

> <Gold.PLP.part.nonpolar>
-24.8043

> <Gold.PLP.part.repulsive>
0.1050

> <Gold.PLP.ligand.clash>
0.0000

> <Gold.PLP.ligand.torsion>
0.2955

> <Gold.PLP.Chemscore.Hbond>
2.9840

> <Gold.PLP.Chemscore.CHOScore>
0.0000

> <Gold.PLP.Chemscore.Metal>
0.0000

> <Gold.Chemscore.Hbonds>
donor molecule, donor type, donor heavy atom, donor atom, acceptor molecule, acceptor atom, score
      L1  H     1    19       P1  7949  0.99
      P1  H  7989  7998       L1    18  0.98
      P1  H 10752 10765       L1     1  0.99

> <Gold.PLP.Chemscore.Internal.Correction>
0.0065

> <Gold.Rescore>
     Score         DG    S(hbond)    S(metal)    S(lipo)     H(rot)  DE(clash)    DE(int)     intcor
     13.21     -13.52       1.79        0.00      67.20       2.27       0.01       0.29       ----

> <Gold.Chemscore.Fitness>
13.2140

> <Gold.Chemscore.DG>
-13.5154

> <Gold.Chemscore.ZeroCoef>
-5.4800

> <Gold.Chemscore.Hbond>
1.7878

> <Gold.Chemscore.Metal>
0.0000

> <Gold.Chemscore.Lipo>
67.2030

> <Gold.Chemscore.Internal_Hbond>
0.0000

> <Gold.Chemscore.DEClash>
0.0126

> <Gold.Chemscore.DEInternal>
0.2888

> <Gold.Chemscore.Rot>
2.2650

> <Gold.Chemscore.Internal.Correction>
   9.000000E+99

> <Gold.Chemscore.Hbonds>
donor molecule, donor type, donor heavy atom, donor atom, acceptor molecule, acceptor atom, score
      L1  H     1    19       P1  7949  0.84
      P1  H  7989  7998       L1    18  0.41
      P1  H 10752 10765       L1     1  0.24

> <Gold.Chemscore.Hbond.Weighted>
-5.9711

> <Gold.Chemscore.Metal.Weighted>
-0.0000

> <Gold.Chemscore.Lipo.Weighted>
-7.8628

> <Gold.Chemscore.Internal_Hbond.Weighted>
0.0000

> <Gold.Chemscore.DEClash.Weighted>
0.0126

> <Gold.Chemscore.DEInternal.Weighted>
0.2888

> <Gold.Chemscore.Rot.Weighted>
5.7984

> <Gold.Chemscore.Internal.Correction.Weighted>
   9.000000E+99

> <Gold.Protein.RotatedTorsions>
[ 6907 6896 6895 6894 ] final  136.09 input  -60.11 | X-H torsion
[ 7974 7965 7964 7962 ] final   11.53 input  175.53 | X-H torsion
[ 8008 7997 7996 7995 ] final  -24.79 input   59.86 | X-H torsion
[ 10167 10162 10161 10158 ] final   98.05 input  -65.29 | X-H torsion
[ 10718 10713 10712 10709 ] final    6.33 input   66.30 | X-H torsion
[ 10763 10752 10751 10750 ] final  145.37 input  -60.55 | X-H torsion
[ 11005 11000 10999 10996 ] final -161.81 input  -57.11 | X-H torsion

> <Gold.Protein.ActiveResidues>
 VAL166  LYS551  ARG553  GLY616  TRP617  ASP618  TYR619  PRO620  LYS621  CYS622 
 ASP623  PHE694  ASN695  SER759  ASP760  ASP761  ALA762  ILE779  LEU786  VAL792 
 PHE793  MET794  SER795  GLU796  ALA797  LYS798  CYS799  TRP800  GLU811  SER814 

> <Gold.Protein.RotatedAtoms>
  152.2932  133.5582  159.5570 H   0  0  0  0  0  0  0  0  0  0  0  0  # atno 6907 bound_to 6896
  150.7244  134.0398  159.3771 H   0  0  0  0  0  0  0  0  0  0  0  0  # atno 6908 bound_to 6896
  151.8303  135.0624  160.0487 H   0  0  0  0  0  0  0  0  0  0  0  0  # atno 6909 bound_to 6896
  146.2369  139.9472  142.8475 H   0  0  0  0  0  0  0  0  0  0  0  0  # atno 7974 bound_to 7965
  154.4510  140.1944  156.0519 H   0  0  0  0  0  0  0  0  0  0  0  0  # atno 8008 bound_to 7997
  156.0648  140.3292  155.7477 H   0  0  0  0  0  0  0  0  0  0  0  0  # atno 8009 bound_to 7997
  155.5356  140.0582  157.2871 H   0  0  0  0  0  0  0  0  0  0  0  0  # atno 8010 bound_to 7997
  139.7744  144.6911  151.0110 H   0  0  0  0  0  0  0  0  0  0  0  0  # atno 10167 bound_to 10162
  156.9206  130.5789  149.5648 H   0  0  0  0  0  0  0  0  0  0  0  0  # atno 10718 bound_to 10713
  154.0043  135.2920  155.3399 H   0  0  0  0  0  0  0  0  0  0  0  0  # atno 10763 bound_to 10752
  154.7141  135.5137  153.8714 H   0  0  0  0  0  0  0  0  0  0  0  0  # atno 10764 bound_to 10752
  153.0751  135.6661  154.0281 H   0  0  0  0  0  0  0  0  0  0  0  0  # atno 10765 bound_to 10752
  140.6162  134.4798  157.5220 H   0  0  0  0  0  0  0  0  0  0  0  0  # atno 11005 bound_to 11000
  145.1896  140.9805  143.4219 LP  0  0  0  0  0  0  0  0  0  0  0  0  # atno 17320 bound_to 7965
  144.9869  139.3727  143.6234 LP  0  0  0  0  0  0  0  0  0  0  0  0  # atno 17321 bound_to 7965
  140.7815  143.4552  151.0355 LP  0  0  0  0  0  0  0  0  0  0  0  0  # atno 17342 bound_to 10162
  139.8235  143.7788  152.3178 LP  0  0  0  0  0  0  0  0  0  0  0  0  # atno 17343 bound_to 10162
  156.0493  130.5565  150.8952 LP  0  0  0  0  0  0  0  0  0  0  0  0  # atno 17370 bound_to 10713
  157.5910  131.0944  150.9118 LP  0  0  0  0  0  0  0  0  0  0  0  0  # atno 17371 bound_to 10713
  139.9172  134.8222  156.1328 LP  0  0  0  0  0  0  0  0  0  0  0  0  # atno 17394 bound_to 11000
  141.0774  133.6769  156.2264 LP  0  0  0  0  0  0  0  0  0  0  0  0  # atno 17395 bound_to 11000

$$$$
