AV-unprocessed.smi:3058|AV-procd|sdf|11673|dock9
  -GOLD-   2272017 73D 1   1.00000     0.00000
 Structure written by MMmdl.
 39 41  0  0  0  0  0  0  0  0  2 V2000
  155.5399  140.6312  162.9231 O   0  0  0  0  0  0  0  0  0  0  0  0
  155.0425  139.7590  162.2103 C   0  0  0  0  0  0  0  0  0  0  0  0
  154.2068  140.0373  161.1975 N   0  0  0  0  0  0  0  0  0  0  0  0
  153.7890  141.3773  160.8024 C   0  0  0  0  0  0  0  0  0  0  0  0
  153.0322  141.3676  159.4631 C   0  0  0  0  0  0  0  0  0  0  0  0
  152.3056  142.6731  159.2056 C   0  0  0  0  0  0  0  0  0  0  0  0
  152.4482  143.7597  160.0968 C   0  0  0  0  0  0  0  0  0  0  0  0
  151.7624  144.9640  159.8344 C   0  0  0  0  0  0  0  0  0  0  0  0
  150.9481  145.0540  158.6870 C   0  0  0  0  0  0  0  0  0  0  0  0
  150.8357  143.9935  157.8572 N   0  3  0  0  0  0  0  0  0  0  0  0
  151.4766  142.8236  158.0728 C   0  0  0  0  0  0  0  0  0  0  0  0
  155.3555  138.2704  162.4450 C   0  0  2  0  0  0  0  0  0  0  0  0
  154.0893  137.4058  162.6646 C   0  0  0  0  0  0  0  0  0  0  0  0
  154.3609  136.7167  164.0166 C   0  0  1  0  0  0  0  0  0  0  0  0
  155.5009  135.6934  163.8519 C   0  0  0  0  0  0  0  0  0  0  0  0
  156.7435  136.5916  163.6964 C   0  0  0  0  0  0  0  0  0  0  0  0
  156.1432  138.0095  163.7544 C   0  0  2  0  0  0  0  0  0  0  0  0
  155.0478  137.8230  164.8043 C   0  0  0  0  0  0  0  0  0  0  0  0
  153.8431  139.2654  160.6574 H   0  0  0  0  0  0  0  0  0  0  0  0
  153.1741  141.8180  161.5893 H   0  0  0  0  0  0  0  0  0  0  0  0
  154.6810  141.9991  160.7206 H   0  0  0  0  0  0  0  0  0  0  0  0
  153.7261  141.1735  158.6440 H   0  0  0  0  0  0  0  0  0  0  0  0
  152.3014  140.5578  159.4440 H   0  0  0  0  0  0  0  0  0  0  0  0
  153.0773  143.6724  160.9711 H   0  0  0  0  0  0  0  0  0  0  0  0
  151.8593  145.8060  160.5043 H   0  0  0  0  0  0  0  0  0  0  0  0
  150.3877  145.9350  158.4102 H   0  0  0  0  0  0  0  0  0  0  0  0
  151.3073  142.0503  157.3374 H   0  0  0  0  0  0  0  0  0  0  0  0
  155.9213  137.8955  161.5900 H   0  0  0  0  0  0  0  0  0  0  0  0
  153.1820  138.0094  162.7228 H   0  0  0  0  0  0  0  0  0  0  0  0
  153.9449  136.6820  161.8618 H   0  0  0  0  0  0  0  0  0  0  0  0
  153.4668  136.3042  164.4847 H   0  0  0  0  0  0  0  0  0  0  0  0
  155.5915  135.0648  164.7387 H   0  0  0  0  0  0  0  0  0  0  0  0
  155.3484  135.0399  162.9922 H   0  0  0  0  0  0  0  0  0  0  0  0
  157.4368  136.4315  164.5231 H   0  0  0  0  0  0  0  0  0  0  0  0
  157.2835  136.4014  162.7682 H   0  0  0  0  0  0  0  0  0  0  0  0
  156.8770  138.7797  163.9958 H   0  0  0  0  0  0  0  0  0  0  0  0
  154.4170  138.6984  164.9589 H   0  0  0  0  0  0  0  0  0  0  0  0
  155.4287  137.4908  165.7717 H   0  0  0  0  0  0  0  0  0  0  0  0
  150.2411  144.0802  157.0325 H   0  0  0  0  0  0  0  0  0  0  0  0
  1  2  2  0  0  0  0
  2  3  1  0  0  0  0
  2 12  1  0  0  0  0
  3  4  1  0  0  0  0
  3 19  1  0  0  0  0
  4  5  1  0  0  0  0
  4 20  1  0  0  0  0
  4 21  1  0  0  0  0
  5  6  1  0  0  0  0
  5 22  1  0  0  0  0
  5 23  1  0  0  0  0
  6 11  1  0  0  0  0
  6  7  2  0  0  0  0
  7  8  1  0  0  0  0
  7 24  1  0  0  0  0
  8  9  2  0  0  0  0
  8 25  1  0  0  0  0
  9 10  1  0  0  0  0
  9 26  1  0  0  0  0
 10 11  2  0  0  0  0
 10 39  1  0  0  0  0
 11 27  1  0  0  0  0
 12 17  1  0  0  0  0
 12 13  1  0  0  0  0
 12 28  1  0  0  0  0
 13 14  1  0  0  0  0
 13 29  1  0  0  0  0
 13 30  1  0  0  0  0
 14 18  1  0  0  0  0
 14 15  1  0  0  0  0
 14 31  1  0  0  0  0
 15 16  1  0  0  0  0
 15 32  1  0  0  0  0
 15 33  1  0  0  0  0
 16 17  1  0  0  0  0
 16 34  1  0  0  0  0
 16 35  1  0  0  0  0
 17 18  1  0  0  0  0
 17 36  1  0  0  0  0
 18 37  1  0  0  0  0
 18 38  1  0  0  0  0
M  CHG  1  10   1
M  END
> <s_m_source_file>
AV-unprocessed.smi

> <i_m_source_file_index>
3058

> <i_lp_mmshare_version>
43012

> <i_f3d_flags>
0

> <s_epik_input>
W0NIMl0xW0NIMl1bQ0BIXShbQ0gyXTIpW0NAQEhdKFtDSDJdW0NAQEhdMTIpQyg9TylbTkhdW0NIMl1bQ0gyXWMzW2NIXVtjSF1bY0hdbltjSF0z

> <s_epik_cmdline>
J2VwaWtfcHl0aG9uJywgJy1waCcsICc3LjAnLCAnLXRuJywgJzgnLCAnLW1hJywgJzIwMCcsICctbWV0YWxfYmluZGluZycsICctaW1hZScsICc8aW5maWxlLm1hZT4nLCAnLW9tYWUnLCAnPG91dGZpbGUubWFlPic=

> <r_epik_Ionization_Penalty>
2.24375

> <r_epik_Ionization_Penalty_Charging>
2.24375

> <r_epik_Ionization_Penalty_Neutral>
1.89995e-08

> <r_epik_State_Penalty>
2.39035

> <r_epik_Charging_Adjusted_Penalty>
4.63411

> <i_epik_Tot_Q>
1

> <i_epik_Tot_abs_Q>
1

> <r_epik_Metal_State_Penalty>
2.40369

> <b_epik_Metal_Only>
0

> <s_lp_Force_Field>
OPLS_2005

> <r_lp_Energy>
53.6325

> <b_lp_Chiralities_Consistent>
1

> <s_lp_Variant>
AV-unprocessed.smi:3058-5

> <Gold.Version>
5.8.1

> <Gold.Id.Protein>
6NUR|6NUR_protein|mol2

> <Gold.PLP.Fitness>
48.5056

> <Gold.PLP.PLP>
-42.8941

> <Gold.PLP.part.hbond>
-2.0000

> <Gold.PLP.part.metal>
0.0000

> <Gold.PLP.part.buried>
-5.9322

> <Gold.PLP.part.nonpolar>
-35.2935

> <Gold.PLP.part.repulsive>
0.0337

> <Gold.PLP.ligand.clash>
0.0000

> <Gold.PLP.ligand.torsion>
0.2080

> <Gold.PLP.Chemscore.Hbond>
2.0000

> <Gold.PLP.Chemscore.CHOScore>
0.0000

> <Gold.PLP.Chemscore.Metal>
0.0000

> <Gold.Chemscore.Hbonds>
donor molecule, donor type, donor heavy atom, donor atom, acceptor molecule, acceptor atom, score
      L1  H    10    39       P1  8028  2.00

> <Gold.PLP.Chemscore.Internal.Correction>
0.0275

> <Gold.Rescore>
     Score         DG    S(hbond)    S(metal)    S(lipo)     H(rot)  DE(clash)    DE(int)     intcor
     19.24     -19.54       0.97        0.00     124.41       1.45       0.01       0.29       ----

> <Gold.Chemscore.Fitness>
19.2412

> <Gold.Chemscore.DG>
-19.5361

> <Gold.Chemscore.ZeroCoef>
-5.4800

> <Gold.Chemscore.Hbond>
0.9653

> <Gold.Chemscore.Metal>
0.0000

> <Gold.Chemscore.Lipo>
124.4129

> <Gold.Chemscore.Internal_Hbond>
0.0000

> <Gold.Chemscore.DEClash>
0.0086

> <Gold.Chemscore.DEInternal>
0.2863

> <Gold.Chemscore.Rot>
1.4548

> <Gold.Chemscore.Internal.Correction>
   9.000000E+99

> <Gold.Chemscore.Hbonds>
donor molecule, donor type, donor heavy atom, donor atom, acceptor molecule, acceptor atom, score
      L1  H    10    39       P1  8028  0.90

> <Gold.Chemscore.Hbond.Weighted>
-3.2240

> <Gold.Chemscore.Metal.Weighted>
-0.0000

> <Gold.Chemscore.Lipo.Weighted>
-14.5563

> <Gold.Chemscore.Internal_Hbond.Weighted>
0.0000

> <Gold.Chemscore.DEClash.Weighted>
0.0086

> <Gold.Chemscore.DEInternal.Weighted>
0.2863

> <Gold.Chemscore.Rot.Weighted>
3.7242

> <Gold.Chemscore.Internal.Correction.Weighted>
   9.000000E+99

> <Gold.Protein.RotatedTorsions>
[ 6907 6896 6895 6894 ] final  104.94 input  -60.11 | X-H torsion
[ 7974 7965 7964 7962 ] final  -24.70 input  175.53 | X-H torsion
[ 8008 7997 7996 7995 ] final   38.39 input   59.86 | X-H torsion
[ 10167 10162 10161 10158 ] final  153.93 input  -65.29 | X-H torsion
[ 10718 10713 10712 10709 ] final -157.11 input   66.30 | X-H torsion
[ 10763 10752 10751 10750 ] final -130.29 input  -60.55 | X-H torsion
[ 11005 11000 10999 10996 ] final  101.58 input  -57.11 | X-H torsion

> <Gold.Protein.ActiveResidues>
 VAL166  LYS551  ARG553  GLY616  TRP617  ASP618  TYR619  PRO620  LYS621  CYS622 
 ASP623  PHE694  ASN695  SER759  ASP760  ASP761  ALA762  ILE779  LEU786  VAL792 
 PHE793  MET794  SER795  GLU796  ALA797  LYS798  CYS799  TRP800  GLU811  SER814 

> <Gold.Protein.RotatedAtoms>
  152.5247  133.9602  159.7713 H   0  0  0  0  0  0  0  0  0  0  0  0  # atno 6907 bound_to 6896
  150.9894  133.6156  159.2717 H   0  0  0  0  0  0  0  0  0  0  0  0  # atno 6908 bound_to 6896
  151.3305  135.0846  159.9390 H   0  0  0  0  0  0  0  0  0  0  0  0  # atno 6909 bound_to 6896
  146.1538  140.4787  142.8600 H   0  0  0  0  0  0  0  0  0  0  0  0  # atno 7974 bound_to 7965
  155.2194  140.3330  155.4317 H   0  0  0  0  0  0  0  0  0  0  0  0  # atno 8008 bound_to 7997
  156.2339  140.1863  156.7218 H   0  0  0  0  0  0  0  0  0  0  0  0  # atno 8009 bound_to 7997
  154.6025  140.0621  156.9373 H   0  0  0  0  0  0  0  0  0  0  0  0  # atno 8010 bound_to 7997
  139.4825  144.5231  151.7845 H   0  0  0  0  0  0  0  0  0  0  0  0  # atno 10167 bound_to 10162
  156.5358  130.8541  151.2732 H   0  0  0  0  0  0  0  0  0  0  0  0  # atno 10718 bound_to 10713
  154.8756  135.3867  154.4059 H   0  0  0  0  0  0  0  0  0  0  0  0  # atno 10763 bound_to 10752
  153.4778  135.7030  153.5961 H   0  0  0  0  0  0  0  0  0  0  0  0  # atno 10764 bound_to 10752
  153.4390  135.3860  155.2184 H   0  0  0  0  0  0  0  0  0  0  0  0  # atno 10765 bound_to 10752
  139.8774  134.9189  156.4928 H   0  0  0  0  0  0  0  0  0  0  0  0  # atno 11005 bound_to 11000
  144.7937  140.6081  143.6524 LP  0  0  0  0  0  0  0  0  0  0  0  0  # atno 17320 bound_to 7965
  145.4759  139.1499  143.3788 LP  0  0  0  0  0  0  0  0  0  0  0  0  # atno 17321 bound_to 7965
  140.4747  144.1536  150.5923 LP  0  0  0  0  0  0  0  0  0  0  0  0  # atno 17342 bound_to 10162
  140.4343  143.2554  151.9555 LP  0  0  0  0  0  0  0  0  0  0  0  0  # atno 17343 bound_to 10162
  157.7414  130.9869  150.2443 LP  0  0  0  0  0  0  0  0  0  0  0  0  # atno 17370 bound_to 10713
  156.3018  130.3759  149.7743 LP  0  0  0  0  0  0  0  0  0  0  0  0  # atno 17371 bound_to 10713
  140.8646  133.8034  155.9301 LP  0  0  0  0  0  0  0  0  0  0  0  0  # atno 17394 bound_to 11000
  140.9014  134.2373  157.5039 LP  0  0  0  0  0  0  0  0  0  0  0  0  # atno 17395 bound_to 11000

$$$$
