AV-unprocessed.smi:1464|AV-procd|sdf|5944|dock3
  -GOLD-   22720 6 23D 1   1.00000     0.00000
 Structure written by MMmdl.
 41 42  0  0  0  0  0  0  0  0  1 V2000
  153.2196  141.2990  160.1777 C   0  0  0  0  0  0  0  0  0  0  0  0
  152.3884  142.5358  159.7977 C   0  0  1  0  0  0  0  0  0  0  0  0
  153.2573  143.6307  159.1457 C   0  0  0  0  0  0  0  0  0  0  0  0
  152.4418  144.9017  158.8601 C   0  0  0  0  0  0  0  0  0  0  0  0
  151.1938  144.5955  158.0185 C   0  0  0  0  0  0  0  0  0  0  0  0
  150.3289  143.5046  158.6788 C   0  0  1  0  0  0  0  0  0  0  0  0
  149.1332  143.2650  157.8737 N   0  0  0  0  0  0  0  0  0  0  0  0
  148.0349  142.6142  158.2866 C   0  0  0  0  0  0  0  0  0  0  0  0
  147.9233  142.1241  159.4114 O   0  0  0  0  0  0  0  0  0  0  0  0
  146.9053  142.4814  157.2549 C   0  0  0  0  0  0  0  0  0  0  0  0
  147.3713  142.0339  155.9343 N   0  0  0  0  0  0  0  0  0  0  0  0
  148.6735  141.5569  155.9241 N   0  0  0  0  0  0  0  0  0  0  0  0
  149.1922  141.1233  154.8252 C   0  0  0  0  0  0  0  0  0  0  0  0
  150.4827  140.6555  154.8606 O   0  0  0  0  0  0  0  0  0  0  0  0
  148.4406  141.1275  153.5894 C   0  0  0  0  0  0  0  0  0  0  0  0
  147.1744  141.5985  153.6084 C   0  0  0  0  0  0  0  0  0  0  0  0
  146.5548  142.0969  154.8376 C   0  0  0  0  0  0  0  0  0  0  0  0
  145.4045  142.5327  154.8838 O   0  0  0  0  0  0  0  0  0  0  0  0
  151.1417  142.2050  158.9342 C   0  0  1  0  0  0  0  0  0  0  0  0
  151.4759  141.4310  157.6375 C   0  0  0  0  0  0  0  0  0  0  0  0
  150.4227  139.7810  155.2132 H   0  0  0  0  0  0  0  0  0  0  0  0
  153.7281  140.8711  159.3138 H   0  0  0  0  0  0  0  0  0  0  0  0
  152.5932  140.5236  160.6191 H   0  0  0  0  0  0  0  0  0  0  0  0
  153.9859  141.5569  160.9092 H   0  0  0  0  0  0  0  0  0  0  0  0
  152.0164  142.9464  160.7380 H   0  0  0  0  0  0  0  0  0  0  0  0
  154.0933  143.8793  159.8005 H   0  0  0  0  0  0  0  0  0  0  0  0
  153.6977  143.2604  158.2197 H   0  0  0  0  0  0  0  0  0  0  0  0
  152.1393  145.3581  159.8036 H   0  0  0  0  0  0  0  0  0  0  0  0
  153.0646  145.6362  158.3489 H   0  0  0  0  0  0  0  0  0  0  0  0
  150.6096  145.5081  157.8940 H   0  0  0  0  0  0  0  0  0  0  0  0
  151.4941  144.2873  157.0165 H   0  0  0  0  0  0  0  0  0  0  0  0
  150.0044  143.8970  159.6449 H   0  0  0  0  0  0  0  0  0  0  0  0
  149.1410  143.6278  156.9314 H   0  0  0  0  0  0  0  0  0  0  0  0
  146.1436  141.7961  157.6317 H   0  0  0  0  0  0  0  0  0  0  0  0
  146.4104  143.4508  157.1718 H   0  0  0  0  0  0  0  0  0  0  0  0
  148.8902  140.7610  152.6784 H   0  0  0  0  0  0  0  0  0  0  0  0
  146.6016  141.6073  152.6927 H   0  0  0  0  0  0  0  0  0  0  0  0
  150.5111  141.5431  159.5297 H   0  0  0  0  0  0  0  0  0  0  0  0
  152.1277  142.0003  156.9758 H   0  0  0  0  0  0  0  0  0  0  0  0
  150.5757  141.1823  157.0757 H   0  0  0  0  0  0  0  0  0  0  0  0
  151.9713  140.4851  157.8533 H   0  0  0  0  0  0  0  0  0  0  0  0
  1  2  1  0  0  0  0
  1 22  1  0  0  0  0
  1 23  1  0  0  0  0
  1 24  1  0  0  0  0
  2 19  1  0  0  0  0
  2  3  1  0  0  0  0
  2 25  1  0  0  0  0
  3  4  1  0  0  0  0
  3 26  1  0  0  0  0
  3 27  1  0  0  0  0
  4  5  1  0  0  0  0
  4 28  1  0  0  0  0
  4 29  1  0  0  0  0
  5  6  1  0  0  0  0
  5 30  1  0  0  0  0
  5 31  1  0  0  0  0
  6  7  1  0  0  0  0
  6 19  1  0  0  0  0
  6 32  1  0  0  0  0
  7  8  1  0  0  0  0
  7 33  1  0  0  0  0
  8  9  2  0  0  0  0
  8 10  1  0  0  0  0
 10 34  1  0  0  0  0
 10 35  1  0  0  0  0
 10 11  1  0  0  0  0
 11 12  1  0  0  0  0
 11 17  1  0  0  0  0
 12 13  2  0  0  0  0
 13 14  1  0  0  0  0
 13 15  1  0  0  0  0
 14 21  1  0  0  0  0
 15 36  1  0  0  0  0
 15 16  2  0  0  0  0
 16 37  1  0  0  0  0
 16 17  1  0  0  0  0
 17 18  2  0  0  0  0
 19 20  1  0  0  0  0
 19 38  1  0  0  0  0
 20 39  1  0  0  0  0
 20 40  1  0  0  0  0
 20 41  1  0  0  0  0
M  END
> <s_m_source_file>
AV-unprocessed.smi

> <i_m_source_file_index>
1464

> <i_lp_mmshare_version>
43012

> <i_f3d_flags>
0

> <s_epik_input>
W0NIM11bQ0BASF0xW0NIMl1bQ0gyXVtDSDJdW0NASF0oW0NASF0xW0NIM10pW05IXUMoPU8pW0NIMl1uMltuSF1jKD1PKVtjSF1bY0hdYzI9Tw==

> <s_epik_cmdline>
J2VwaWtfcHl0aG9uJywgJy1waCcsICc3LjAnLCAnLXRuJywgJzgnLCAnLW1hJywgJzIwMCcsICctbWV0YWxfYmluZGluZycsICctaW1hZScsICc8aW5maWxlLm1hZT4nLCAnLW9tYWUnLCAnPG91dGZpbGUubWFlPic=

> <r_lp_tautomer_probability>
0.9996

> <r_epik_Ionization_Penalty>
2.10335

> <r_epik_Ionization_Penalty_Charging>
3.98079e-08

> <r_epik_Ionization_Penalty_Neutral>
2.10335

> <r_epik_State_Penalty>
1.67957

> <r_epik_Charging_Adjusted_Penalty>
1.67957

> <i_epik_Tot_Q>
0

> <i_epik_Tot_abs_Q>
0

> <r_epik_Metal_State_Penalty>
1.67957

> <b_epik_Metal_Only>
0

> <s_lp_Force_Field>
OPLS_2005

> <r_lp_Energy>
25.7359

> <b_lp_Chiralities_Consistent>
1

> <s_lp_Variant>
AV-unprocessed.smi:1464-10

> <Gold.Version>
5.8.1

> <Gold.Id.Protein>
6NUR|6NUR_protein|mol2

> <Gold.PLP.Fitness>
46.2156

> <Gold.PLP.PLP>
-39.0411

> <Gold.PLP.part.hbond>
-5.0000

> <Gold.PLP.part.metal>
0.0000

> <Gold.PLP.part.buried>
-0.2079

> <Gold.PLP.part.nonpolar>
-35.0367

> <Gold.PLP.part.repulsive>
0.4077

> <Gold.PLP.ligand.clash>
0.0000

> <Gold.PLP.ligand.torsion>
0.4237

> <Gold.PLP.Chemscore.Hbond>
2.6669

> <Gold.PLP.Chemscore.CHOScore>
0.0000

> <Gold.PLP.Chemscore.Metal>
0.0000

> <Gold.Chemscore.Hbonds>
donor molecule, donor type, donor heavy atom, donor atom, acceptor molecule, acceptor atom, score
      L1  H     7    33       P1  8028  1.00
      P1  H  6933  6944       L1     9  0.22
      P1  H  6934  6946       L1     9  0.28
      P1  H  7989  7998       L1    14  0.91

> <Gold.PLP.Chemscore.Internal.Correction>
0.0210

> <Gold.Rescore>
     Score         DG    S(hbond)    S(metal)    S(lipo)     H(rot)  DE(clash)    DE(int)     intcor
     15.49     -18.49       2.12        0.00      99.26       2.22       1.01       1.99       ----

> <Gold.Chemscore.Fitness>
15.4865

> <Gold.Chemscore.DG>
-18.4851

> <Gold.Chemscore.ZeroCoef>
-5.4800

> <Gold.Chemscore.Hbond>
2.1202

> <Gold.Chemscore.Metal>
0.0000

> <Gold.Chemscore.Lipo>
99.2554

> <Gold.Chemscore.Internal_Hbond>
0.0000

> <Gold.Chemscore.DEClash>
1.0086

> <Gold.Chemscore.DEInternal>
1.9900

> <Gold.Chemscore.Rot>
2.2224

> <Gold.Chemscore.Internal.Correction>
   9.000000E+99

> <Gold.Chemscore.Hbonds>
donor molecule, donor type, donor heavy atom, donor atom, acceptor molecule, acceptor atom, score
      L1  H     7    33       P1  8028  0.74
      P1  H  6933  6944       L1     9  0.21
      P1  H  6934  6946       L1     9  0.25
      P1  H  7989  7998       L1    14  0.84

> <Gold.Chemscore.Hbond.Weighted>
-7.0816

> <Gold.Chemscore.Metal.Weighted>
-0.0000

> <Gold.Chemscore.Lipo.Weighted>
-11.6129

> <Gold.Chemscore.Internal_Hbond.Weighted>
0.0000

> <Gold.Chemscore.DEClash.Weighted>
1.0086

> <Gold.Chemscore.DEInternal.Weighted>
1.9900

> <Gold.Chemscore.Rot.Weighted>
5.6893

> <Gold.Chemscore.Internal.Correction.Weighted>
   9.000000E+99

> <Gold.Protein.RotatedTorsions>
[ 6907 6896 6895 6894 ] final -173.64 input  -60.11 | X-H torsion
[ 7974 7965 7964 7962 ] final -115.18 input  175.53 | X-H torsion
[ 8008 7997 7996 7995 ] final -176.10 input   59.86 | X-H torsion
[ 10167 10162 10161 10158 ] final  110.64 input  -65.29 | X-H torsion
[ 10718 10713 10712 10709 ] final  -95.20 input   66.30 | X-H torsion
[ 10763 10752 10751 10750 ] final  -14.77 input  -60.55 | X-H torsion
[ 11005 11000 10999 10996 ] final  125.04 input  -57.11 | X-H torsion

> <Gold.Protein.ActiveResidues>
 VAL166  LYS551  ARG553  GLY616  TRP617  ASP618  TYR619  PRO620  LYS621  CYS622 
 ASP623  PHE694  ASN695  SER759  ASP760  ASP761  ALA762  ILE779  LEU786  VAL792 
 PHE793  MET794  SER795  GLU796  ALA797  LYS798  CYS799  TRP800  GLU811  SER814 

> <Gold.Protein.RotatedAtoms>
  151.5594  133.3405  159.2967 H   0  0  0  0  0  0  0  0  0  0  0  0  # atno 6907 bound_to 6896
  150.8431  134.7733  159.6960 H   0  0  0  0  0  0  0  0  0  0  0  0  # atno 6908 bound_to 6896
  152.4495  134.5432  159.9896 H   0  0  0  0  0  0  0  0  0  0  0  0  # atno 6909 bound_to 6896
  145.1114  140.8614  143.3867 H   0  0  0  0  0  0  0  0  0  0  0  0  # atno 7974 bound_to 7965
  155.9907  140.1200  157.0640 H   0  0  0  0  0  0  0  0  0  0  0  0  # atno 8008 bound_to 7997
  154.4211  140.1126  156.5630 H   0  0  0  0  0  0  0  0  0  0  0  0  # atno 8009 bound_to 7997
  155.6346  140.3473  155.4696 H   0  0  0  0  0  0  0  0  0  0  0  0  # atno 8010 bound_to 7997
  139.6673  144.7127  151.1754 H   0  0  0  0  0  0  0  0  0  0  0  0  # atno 10167 bound_to 10162
  156.0039  130.5099  150.6041 H   0  0  0  0  0  0  0  0  0  0  0  0  # atno 10718 bound_to 10713
  153.5332  135.7014  153.5673 H   0  0  0  0  0  0  0  0  0  0  0  0  # atno 10763 bound_to 10752
  153.3671  135.3954  155.1761 H   0  0  0  0  0  0  0  0  0  0  0  0  # atno 10764 bound_to 10752
  154.8682  135.3803  154.4831 H   0  0  0  0  0  0  0  0  0  0  0  0  # atno 10765 bound_to 10752
  139.9387  134.9637  156.8499 H   0  0  0  0  0  0  0  0  0  0  0  0  # atno 11005 bound_to 11000
  145.0842  139.2937  143.5768 LP  0  0  0  0  0  0  0  0  0  0  0  0  # atno 17320 bound_to 7965
  146.3526  140.0359  142.8647 LP  0  0  0  0  0  0  0  0  0  0  0  0  # atno 17321 bound_to 7965
  140.7604  143.5900  150.8806 LP  0  0  0  0  0  0  0  0  0  0  0  0  # atno 17342 bound_to 10162
  139.9562  143.6215  152.3015 LP  0  0  0  0  0  0  0  0  0  0  0  0  # atno 17343 bound_to 10162
  157.3885  131.0792  151.1415 LP  0  0  0  0  0  0  0  0  0  0  0  0  # atno 17370 bound_to 10713
  157.2114  130.6439  149.5775 LP  0  0  0  0  0  0  0  0  0  0  0  0  # atno 17371 bound_to 10713
  140.6008  134.0174  155.7536 LP  0  0  0  0  0  0  0  0  0  0  0  0  # atno 17394 bound_to 11000
  141.1012  133.9764  157.3075 LP  0  0  0  0  0  0  0  0  0  0  0  0  # atno 17395 bound_to 11000

$$$$
