AV-unprocessed.smi:663|AV-procd|sdf|3249|dock7
  -GOLD-   22720 0203D 1   1.00000     0.00000
 Structure written by MMmdl.
 29 30  0  0  0  0  0  0  0  0  2 V2000
  149.6467  138.5887  153.3373 N   0  0  0  0  0  0  0  0  0  0  0  0
  150.4432  139.0345  154.3119 C   0  0  0  0  0  0  0  0  0  0  0  0
  150.5449  140.2306  154.5770 O   0  0  0  0  0  0  0  0  0  0  0  0
  151.2444  137.9849  155.0904 C   0  0  0  0  0  0  0  0  0  0  0  0
  151.2935  138.2274  156.6193 C   0  0  2  0  0  0  0  0  0  0  0  0
  149.9411  138.1308  157.1655 N   0  0  0  0  0  0  0  0  0  0  0  0
  149.5278  137.3032  158.1369 C   0  0  0  0  0  0  0  0  0  0  0  0
  150.3221  136.5172  158.6583 O   0  0  0  0  0  0  0  0  0  0  0  0
  148.2168  137.4374  158.4416 N   0  5  0  0  0  0  0  0  0  0  0  0
  147.7428  136.9556  159.6024 C   0  0  0  0  0  0  0  0  0  0  0  0
  146.7727  137.5750  160.2943 N   0  0  0  0  0  0  0  0  0  0  0  0
  146.4346  136.9172  161.4693 N   0  0  0  0  0  0  0  0  0  0  0  0
  147.1678  135.8172  161.6383 C   0  0  0  0  0  0  0  0  0  0  0  0
  148.3390  135.4862  160.3795 S   0  0  0  0  0  0  0  0  0  0  0  0
  151.9440  139.5576  156.9692 C   0  0  0  0  0  0  0  0  0  0  0  0
  152.1098  140.0195  158.3991 C   0  0  0  0  0  0  0  0  0  0  0  0
  151.1170  140.7082  157.4911 C   0  0  0  0  0  0  0  0  0  0  0  0
  149.1004  139.2446  152.7980 H   0  0  0  0  0  0  0  0  0  0  0  0
  149.5939  137.5994  153.1433 H   0  0  0  0  0  0  0  0  0  0  0  0
  150.8479  136.9886  154.8881 H   0  0  0  0  0  0  0  0  0  0  0  0
  152.2555  137.9956  154.6811 H   0  0  0  0  0  0  0  0  0  0  0  0
  151.8976  137.4441  157.0820 H   0  0  0  0  0  0  0  0  0  0  0  0
  149.2512  138.7540  156.7724 H   0  0  0  0  0  0  0  0  0  0  0  0
  147.0200  135.1985  162.5110 H   0  0  0  0  0  0  0  0  0  0  0  0
  152.7480  139.8345  156.2894 H   0  0  0  0  0  0  0  0  0  0  0  0
  151.7063  139.3920  159.1911 H   0  0  0  0  0  0  0  0  0  0  0  0
  153.0224  140.5564  158.6490 H   0  0  0  0  0  0  0  0  0  0  0  0
  151.3659  141.7060  157.1358 H   0  0  0  0  0  0  0  0  0  0  0  0
  150.0596  140.5282  157.6749 H   0  0  0  0  0  0  0  0  0  0  0  0
  1  2  1  0  0  0  0
  1 18  1  0  0  0  0
  1 19  1  0  0  0  0
  2  3  2  0  0  0  0
  2  4  1  0  0  0  0
  4  5  1  0  0  0  0
  4 20  1  0  0  0  0
  4 21  1  0  0  0  0
  5  6  1  0  0  0  0
  5 15  1  0  0  0  0
  5 22  1  0  0  0  0
  6  7  1  0  0  0  0
  6 23  1  0  0  0  0
  7  8  2  0  0  0  0
  7  9  1  0  0  0  0
  9 10  1  0  0  0  0
 10 14  1  0  0  0  0
 10 11  2  0  0  0  0
 11 12  1  0  0  0  0
 12 13  2  0  0  0  0
 13 14  1  0  0  0  0
 13 24  1  0  0  0  0
 15 17  1  0  0  0  0
 15 16  1  0  0  0  0
 15 25  1  0  0  0  0
 16 17  1  0  0  0  0
 16 26  1  0  0  0  0
 16 27  1  0  0  0  0
 17 28  1  0  0  0  0
 17 29  1  0  0  0  0
M  CHG  1   9  -1
M  END
> <s_m_source_file>
AV-unprocessed.smi

> <i_m_source_file_index>
663

> <i_lp_mmshare_version>
43012

> <i_f3d_flags>
0

> <s_epik_input>
W05IMl1DKD1PKVtDSDJdW0NAQEhdKFtDSF0xW0NIMl1bQ0gyXTEpW05IXUMoPU8pW05IXWMybm5bY0hdczI=

> <s_epik_cmdline>
J2VwaWtfcHl0aG9uJywgJy1waCcsICc3LjAnLCAnLXRuJywgJzgnLCAnLW1hJywgJzIwMCcsICctbWV0YWxfYmluZGluZycsICctaW1hZScsICc8aW5maWxlLm1hZT4nLCAnLW9tYWUnLCAnPG91dGZpbGUubWFlPic=

> <r_lp_tautomer_probability>
1

> <r_epik_Ionization_Penalty>
4.41895

> <r_epik_Ionization_Penalty_Charging>
4.37725

> <r_epik_Ionization_Penalty_Neutral>
0.0416999

> <r_epik_State_Penalty>
4.37688

> <r_epik_Charging_Adjusted_Penalty>
8.75413

> <i_epik_Tot_Q>
-1

> <i_epik_Tot_abs_Q>
1

> <r_epik_Metal_State_Penalty>
0.761195

> <b_epik_Metal_Only>
1

> <s_lp_Force_Field>
OPLS_2005

> <r_lp_Energy>
9.70165

> <b_lp_Chiralities_Consistent>
1

> <s_lp_Variant>
AV-unprocessed.smi:663-3

> <Gold.Version>
5.8.1

> <Gold.Id.Protein>
6NUR|6NUR_protein|mol2

> <Gold.PLP.Fitness>
36.2593

> <Gold.PLP.PLP>
-24.2441

> <Gold.PLP.part.hbond>
-5.4079

> <Gold.PLP.part.metal>
0.0000

> <Gold.PLP.part.buried>
-4.9561

> <Gold.PLP.part.nonpolar>
-14.7859

> <Gold.PLP.part.repulsive>
0.1862

> <Gold.PLP.ligand.clash>
0.0000

> <Gold.PLP.ligand.torsion>
1.2610

> <Gold.PLP.Chemscore.Hbond>
4.4720

> <Gold.PLP.Chemscore.CHOScore>
0.0000

> <Gold.PLP.Chemscore.Metal>
0.0000

> <Gold.Chemscore.Hbonds>
donor molecule, donor type, donor heavy atom, donor atom, acceptor molecule, acceptor atom, score
      L1  H     1    18       P1  7957  0.51
      L1  H     1    19       P1  7948  0.90
      P1  H  6896  6908       L1     8  1.00
      P1  H  6934  6947       L1    11  0.95
      P1  H  7989  7998       L1     3  1.00

> <Gold.PLP.Chemscore.Internal.Correction>
1.1212

> <Gold.Rescore>
     Score         DG    S(hbond)    S(metal)    S(lipo)     H(rot)  DE(clash)    DE(int)     intcor
     13.21     -16.83       4.10        0.00      34.47       2.49       0.00       3.62       ----

> <Gold.Chemscore.Fitness>
13.2139

> <Gold.Chemscore.DG>
-16.8332

> <Gold.Chemscore.ZeroCoef>
-5.4800

> <Gold.Chemscore.Hbond>
4.0972

> <Gold.Chemscore.Metal>
0.0000

> <Gold.Chemscore.Lipo>
34.4722

> <Gold.Chemscore.Internal_Hbond>
0.0000

> <Gold.Chemscore.DEClash>
0.0000

> <Gold.Chemscore.DEInternal>
3.6192

> <Gold.Chemscore.Rot>
2.4863

> <Gold.Chemscore.Internal.Correction>
   9.000000E+99

> <Gold.Chemscore.Hbonds>
donor molecule, donor type, donor heavy atom, donor atom, acceptor molecule, acceptor atom, score
      L1  H     1    18       P1  7957  0.52
      L1  H     1    19       P1  7948  0.69
      P1  H  6896  6908       L1     8  0.92
      P1  H  6934  6947       L1    11  0.20
      P1  H  7989  7998       L1     3  0.60

> <Gold.Chemscore.Hbond.Weighted>
-13.6848

> <Gold.Chemscore.Metal.Weighted>
-0.0000

> <Gold.Chemscore.Lipo.Weighted>
-4.0332

> <Gold.Chemscore.Internal_Hbond.Weighted>
0.0000

> <Gold.Chemscore.DEClash.Weighted>
0.0000

> <Gold.Chemscore.DEInternal.Weighted>
3.6192

> <Gold.Chemscore.Rot.Weighted>
6.3648

> <Gold.Chemscore.Internal.Correction.Weighted>
   9.000000E+99

> <Gold.Protein.RotatedTorsions>
[ 6907 6896 6895 6894 ] final -170.49 input  -60.11 | X-H torsion
[ 7974 7965 7964 7962 ] final  134.07 input  175.53 | X-H torsion
[ 8008 7997 7996 7995 ] final -173.70 input   59.86 | X-H torsion
[ 10167 10162 10161 10158 ] final  -31.88 input  -65.29 | X-H torsion
[ 10718 10713 10712 10709 ] final -153.23 input   66.30 | X-H torsion
[ 10763 10752 10751 10750 ] final -160.05 input  -60.55 | X-H torsion
[ 11005 11000 10999 10996 ] final -112.53 input  -57.11 | X-H torsion

> <Gold.Protein.ActiveResidues>
 VAL166  LYS551  ARG553  GLY616  TRP617  ASP618  TYR619  PRO620  LYS621  CYS622 
 ASP623  PHE694  ASN695  SER759  ASP760  ASP761  ALA762  ILE779  LEU786  VAL792 
 PHE793  MET794  SER795  GLU796  ALA797  LYS798  CYS799  TRP800  GLU811  SER814 

> <Gold.Protein.RotatedAtoms>
  151.5085  133.3489  159.2880 H   0  0  0  0  0  0  0  0  0  0  0  0  # atno 6907 bound_to 6896
  150.8727  134.8106  159.7178 H   0  0  0  0  0  0  0  0  0  0  0  0  # atno 6908 bound_to 6896
  152.4709  134.4971  159.9765 H   0  0  0  0  0  0  0  0  0  0  0  0  # atno 6909 bound_to 6896
  144.9801  139.4514  143.5390 H   0  0  0  0  0  0  0  0  0  0  0  0  # atno 7974 bound_to 7965
  155.9607  140.1144  157.0898 H   0  0  0  0  0  0  0  0  0  0  0  0  # atno 8008 bound_to 7997
  154.4131  140.1182  156.5242 H   0  0  0  0  0  0  0  0  0  0  0  0  # atno 8009 bound_to 7997
  155.6724  140.3473  155.4825 H   0  0  0  0  0  0  0  0  0  0  0  0  # atno 8010 bound_to 7997
  140.7230  143.3737  151.1730 H   0  0  0  0  0  0  0  0  0  0  0  0  # atno 10167 bound_to 10162
  156.4831  130.8312  151.2538 H   0  0  0  0  0  0  0  0  0  0  0  0  # atno 10718 bound_to 10713
  154.7424  135.3072  154.8705 H   0  0  0  0  0  0  0  0  0  0  0  0  # atno 10763 bound_to 10752
  153.9516  135.6763  153.4748 H   0  0  0  0  0  0  0  0  0  0  0  0  # atno 10764 bound_to 10752
  153.1022  135.4906  154.8812 H   0  0  0  0  0  0  0  0  0  0  0  0  # atno 10765 bound_to 10752
  141.0669  133.9444  157.2561 H   0  0  0  0  0  0  0  0  0  0  0  0  # atno 11005 bound_to 11000
  146.3406  139.9068  142.8786 LP  0  0  0  0  0  0  0  0  0  0  0  0  # atno 17320 bound_to 7965
  145.2433  141.0017  143.3923 LP  0  0  0  0  0  0  0  0  0  0  0  0  # atno 17321 bound_to 7965
  139.7313  143.9068  152.3020 LP  0  0  0  0  0  0  0  0  0  0  0  0  # atno 17342 bound_to 10162
  139.8858  144.6993  150.8826 LP  0  0  0  0  0  0  0  0  0  0  0  0  # atno 17343 bound_to 10162
  157.7481  131.0038  150.3053 LP  0  0  0  0  0  0  0  0  0  0  0  0  # atno 17370 bound_to 10713
  156.3502  130.3829  149.7336 LP  0  0  0  0  0  0  0  0  0  0  0  0  # atno 17371 bound_to 10713
  139.9485  135.0180  156.8924 LP  0  0  0  0  0  0  0  0  0  0  0  0  # atno 17394 bound_to 11000
  140.5754  134.0403  155.7445 LP  0  0  0  0  0  0  0  0  0  0  0  0  # atno 17395 bound_to 11000

$$$$
