AV-unprocessed.smi:763|AV-procd|sdf|3637|dock3
  -GOLD-   22720 1 33D 1   1.00000     0.00000
 Structure written by MMmdl.
 44 45  0  0  0  0  0  0  0  0  1 V2000
  148.8701  136.4353  163.6147 C   0  0  0  0  0  0  0  0  0  0  0  0
  148.9241  137.0161  162.3213 O   0  0  0  0  0  0  0  0  0  0  0  0
  148.4348  136.1733  161.2873 C   0  0  0  0  0  0  0  0  0  0  0  0
  147.7272  136.9696  160.1812 C   0  0  0  0  0  0  0  0  0  0  0  0
  148.6389  137.9327  159.6624 O   0  0  0  0  0  0  0  0  0  0  0  0
  148.7471  138.0731  158.2920 C   0  0  0  0  0  0  0  0  0  0  0  0
  147.7775  137.5409  157.5059 N   0  0  0  0  0  0  0  0  0  0  0  0
  147.8835  137.6870  156.1685 C   0  0  0  0  0  0  0  0  0  0  0  0
  148.9499  138.3650  155.5485 C   0  0  0  0  0  0  0  0  0  0  0  0
  149.9565  138.9155  156.3633 C   0  0  0  0  0  0  0  0  0  0  0  0
  149.8587  138.7677  157.7640 C   0  0  0  0  0  0  0  0  0  0  0  0
  150.8260  139.2892  158.6281 N   0  0  0  0  0  0  0  0  0  0  0  0
  152.2656  140.1706  158.2331 S   0  0  0  0  0  0  0  0  0  0  0  0
  153.2848  139.7219  159.1941 O   0  0  0  0  0  0  0  0  0  0  0  0
  152.4541  139.9857  156.7859 O   0  0  0  0  0  0  0  0  0  0  0  0
  151.7790  141.9290  158.5815 C   0  0  1  0  0  0  0  0  0  0  0  0
  152.9183  142.6441  159.3374 C   0  0  0  0  0  0  0  0  0  0  0  0
  152.5829  144.1157  159.6216 C   0  0  0  0  0  0  0  0  0  0  0  0
  152.2316  144.8616  158.3267 C   0  0  0  0  0  0  0  0  0  0  0  0
  151.0659  144.1763  157.6003 C   0  0  0  0  0  0  0  0  0  0  0  0
  151.3778  142.6987  157.2981 C   0  0  2  0  0  0  0  0  0  0  0  0
  150.2272  142.1325  156.7053 O   0  0  0  0  0  0  0  0  0  0  0  0
  149.2050  137.1637  164.3531 H   0  0  0  0  0  0  0  0  0  0  0  0
  149.5189  135.5632  163.6946 H   0  0  0  0  0  0  0  0  0  0  0  0
  147.8524  136.1411  163.8742 H   0  0  0  0  0  0  0  0  0  0  0  0
  149.2314  135.5505  160.8773 H   0  0  0  0  0  0  0  0  0  0  0  0
  147.7163  135.4930  161.7457 H   0  0  0  0  0  0  0  0  0  0  0  0
  147.4150  136.2915  159.3853 H   0  0  0  0  0  0  0  0  0  0  0  0
  146.8384  137.4619  160.5781 H   0  0  0  0  0  0  0  0  0  0  0  0
  147.0939  137.2510  155.5748 H   0  0  0  0  0  0  0  0  0  0  0  0
  148.9950  138.4600  154.4737 H   0  0  0  0  0  0  0  0  0  0  0  0
  150.7844  139.4397  155.9099 H   0  0  0  0  0  0  0  0  0  0  0  0
  150.6468  139.1420  159.6107 H   0  0  0  0  0  0  0  0  0  0  0  0
  150.9152  141.8805  159.2458 H   0  0  0  0  0  0  0  0  0  0  0  0
  153.1249  142.1307  160.2769 H   0  0  0  0  0  0  0  0  0  0  0  0
  153.8377  142.5951  158.7528 H   0  0  0  0  0  0  0  0  0  0  0  0
  151.7452  144.1730  160.3178 H   0  0  0  0  0  0  0  0  0  0  0  0
  153.4272  144.6006  160.1123 H   0  0  0  0  0  0  0  0  0  0  0  0
  151.9719  145.8964  158.5519 H   0  0  0  0  0  0  0  0  0  0  0  0
  153.1036  144.8956  157.6721 H   0  0  0  0  0  0  0  0  0  0  0  0
  150.1688  144.2466  158.2176 H   0  0  0  0  0  0  0  0  0  0  0  0
  150.8456  144.7093  156.6746 H   0  0  0  0  0  0  0  0  0  0  0  0
  152.1897  142.6522  156.5717 H   0  0  0  0  0  0  0  0  0  0  0  0
  149.6899  142.8290  156.3601 H   0  0  0  0  0  0  0  0  0  0  0  0
  1  2  1  0  0  0  0
  1 23  1  0  0  0  0
  1 24  1  0  0  0  0
  1 25  1  0  0  0  0
  2  3  1  0  0  0  0
  3  4  1  0  0  0  0
  3 26  1  0  0  0  0
  3 27  1  0  0  0  0
  4  5  1  0  0  0  0
  4 28  1  0  0  0  0
  4 29  1  0  0  0  0
  5  6  1  0  0  0  0
  6 11  1  0  0  0  0
  6  7  2  0  0  0  0
  7  8  1  0  0  0  0
  8  9  2  0  0  0  0
  8 30  1  0  0  0  0
  9 10  1  0  0  0  0
  9 31  1  0  0  0  0
 10 11  2  0  0  0  0
 10 32  1  0  0  0  0
 11 12  1  0  0  0  0
 12 13  1  0  0  0  0
 12 33  1  0  0  0  0
 13 14  2  0  0  0  0
 13 15  2  0  0  0  0
 13 16  1  0  0  0  0
 16 21  1  0  0  0  0
 16 17  1  0  0  0  0
 16 34  1  0  0  0  0
 17 18  1  0  0  0  0
 17 35  1  0  0  0  0
 17 36  1  0  0  0  0
 18 19  1  0  0  0  0
 18 37  1  0  0  0  0
 18 38  1  0  0  0  0
 19 20  1  0  0  0  0
 19 39  1  0  0  0  0
 19 40  1  0  0  0  0
 20 21  1  0  0  0  0
 20 41  1  0  0  0  0
 20 42  1  0  0  0  0
 21 22  1  0  0  0  0
 21 43  1  0  0  0  0
 22 44  1  0  0  0  0
M  END
> <s_m_source_file>
AV-unprocessed.smi

> <i_m_source_file_index>
763

> <i_lp_mmshare_version>
43012

> <i_f3d_flags>
0

> <s_epik_input>
W0NIM11PW0NIMl1bQ0gyXU9jMW5bY0hdW2NIXVtjSF1jMVtOSF1TKD1PKSg9TylbQ0BASF0yW0NIMl1bQ0gyXVtDSDJdW0NIMl1bQ0BIXTJbT0hd

> <s_epik_cmdline>
J2VwaWtfcHl0aG9uJywgJy1waCcsICc3LjAnLCAnLXRuJywgJzgnLCAnLW1hJywgJzIwMCcsICctbWV0YWxfYmluZGluZycsICctaW1hZScsICc8aW5maWxlLm1hZT4nLCAnLW9tYWUnLCAnPG91dGZpbGUubWFlPic=

> <r_epik_Ionization_Penalty>
0.124685

> <r_epik_Ionization_Penalty_Charging>
0

> <r_epik_Ionization_Penalty_Neutral>
0.124685

> <r_epik_State_Penalty>
0.114154

> <r_epik_Charging_Adjusted_Penalty>
0.114154

> <i_epik_Tot_Q>
0

> <i_epik_Tot_abs_Q>
0

> <r_epik_Metal_State_Penalty>
0.443785

> <b_epik_Metal_Only>
0

> <s_lp_Force_Field>
OPLS_2005

> <r_lp_Energy>
9.80168

> <b_lp_Chiralities_Consistent>
1

> <s_lp_Variant>
AV-unprocessed.smi:763-4

> <Gold.Version>
5.8.1

> <Gold.Id.Protein>
6NUR|6NUR_protein|mol2

> <Gold.PLP.Fitness>
45.4222

> <Gold.PLP.PLP>
-36.5349

> <Gold.PLP.part.hbond>
-5.0000

> <Gold.PLP.part.metal>
0.0000

> <Gold.PLP.part.buried>
-4.8001

> <Gold.PLP.part.nonpolar>
-26.4926

> <Gold.PLP.part.repulsive>
0.1429

> <Gold.PLP.ligand.clash>
0.0041

> <Gold.PLP.ligand.torsion>
1.9871

> <Gold.PLP.Chemscore.Hbond>
3.8400

> <Gold.PLP.Chemscore.CHOScore>
0.0000

> <Gold.PLP.Chemscore.Metal>
0.0000

> <Gold.Chemscore.Hbonds>
donor molecule, donor type, donor heavy atom, donor atom, acceptor molecule, acceptor atom, score
      L1  H    22    44       P1  8028  0.65
      P1  H  6931  6943       L1     2  0.37
      P1  H  7997  8009       L1    15  1.00

> <Gold.PLP.Chemscore.Internal.Correction>
1.3457

> <Gold.Rescore>
     Score         DG    S(hbond)    S(metal)    S(lipo)     H(rot)  DE(clash)    DE(int)     intcor
     16.69     -20.53       3.00        0.00      95.75       2.41       0.04       3.80       ----

> <Gold.Chemscore.Fitness>
16.6852

> <Gold.Chemscore.DG>
-20.5306

> <Gold.Chemscore.ZeroCoef>
-5.4800

> <Gold.Chemscore.Hbond>
2.9954

> <Gold.Chemscore.Metal>
0.0000

> <Gold.Chemscore.Lipo>
95.7543

> <Gold.Chemscore.Internal_Hbond>
0.0000

> <Gold.Chemscore.DEClash>
0.0419

> <Gold.Chemscore.DEInternal>
3.8036

> <Gold.Chemscore.Rot>
2.4052

> <Gold.Chemscore.Internal.Correction>
   9.000000E+99

> <Gold.Chemscore.Hbonds>
donor molecule, donor type, donor heavy atom, donor atom, acceptor molecule, acceptor atom, score
      L1  H    22    44       P1  8028  0.65
      P1  H  6931  6943       L1     2  0.31
      P1  H  7997  8009       L1    15  0.44

> <Gold.Chemscore.Hbond.Weighted>
-10.0048

> <Gold.Chemscore.Metal.Weighted>
-0.0000

> <Gold.Chemscore.Lipo.Weighted>
-11.2033

> <Gold.Chemscore.Internal_Hbond.Weighted>
0.0000

> <Gold.Chemscore.DEClash.Weighted>
0.0419

> <Gold.Chemscore.DEInternal.Weighted>
3.8036

> <Gold.Chemscore.Rot.Weighted>
6.1574

> <Gold.Chemscore.Internal.Correction.Weighted>
   9.000000E+99

> <Gold.Protein.RotatedTorsions>
[ 6907 6896 6895 6894 ] final -161.71 input  -60.11 | X-H torsion
[ 7974 7965 7964 7962 ] final   80.63 input  175.53 | X-H torsion
[ 8008 7997 7996 7995 ] final -173.67 input   59.86 | X-H torsion
[ 10167 10162 10161 10158 ] final  126.48 input  -65.29 | X-H torsion
[ 10718 10713 10712 10709 ] final  141.03 input   66.30 | X-H torsion
[ 10763 10752 10751 10750 ] final -132.94 input  -60.55 | X-H torsion
[ 11005 11000 10999 10996 ] final  -26.02 input  -57.11 | X-H torsion

> <Gold.Protein.ActiveResidues>
 VAL166  LYS551  ARG553  GLY616  TRP617  ASP618  TYR619  PRO620  LYS621  CYS622 
 ASP623  PHE694  ASN695  SER759  ASP760  ASP761  ALA762  ILE779  LEU786  VAL792 
 PHE793  MET794  SER795  GLU796  ALA797  LYS798  CYS799  TRP800  GLU811  SER814 

> <Gold.Protein.RotatedAtoms>
  151.3689  133.3862  159.2697 H   0  0  0  0  0  0  0  0  0  0  0  0  # atno 6907 bound_to 6896
  150.9666  134.9047  159.7773 H   0  0  0  0  0  0  0  0  0  0  0  0  # atno 6908 bound_to 6896
  152.5169  134.3650  159.9350 H   0  0  0  0  0  0  0  0  0  0  0  0  # atno 6909 bound_to 6896
  145.6487  139.2442  143.1989 H   0  0  0  0  0  0  0  0  0  0  0  0  # atno 7974 bound_to 7965
  155.9604  140.1143  157.0900 H   0  0  0  0  0  0  0  0  0  0  0  0  # atno 8008 bound_to 7997
  154.4131  140.1183  156.5238 H   0  0  0  0  0  0  0  0  0  0  0  0  # atno 8009 bound_to 7997
  155.6727  140.3473  155.4827 H   0  0  0  0  0  0  0  0  0  0  0  0  # atno 8010 bound_to 7997
  139.5629  144.6893  151.3992 H   0  0  0  0  0  0  0  0  0  0  0  0  # atno 10167 bound_to 10162
  157.3966  131.1011  151.0593 H   0  0  0  0  0  0  0  0  0  0  0  0  # atno 10718 bound_to 10713
  154.8738  135.3782  154.4491 H   0  0  0  0  0  0  0  0  0  0  0  0  # atno 10763 bound_to 10752
  153.5169  135.7029  153.5756 H   0  0  0  0  0  0  0  0  0  0  0  0  # atno 10764 bound_to 10752
  153.4021  135.3946  155.1960 H   0  0  0  0  0  0  0  0  0  0  0  0  # atno 10765 bound_to 10752
  140.8991  133.7536  156.0520 H   0  0  0  0  0  0  0  0  0  0  0  0  # atno 11005 bound_to 11000
  146.1221  140.7295  142.9452 LP  0  0  0  0  0  0  0  0  0  0  0  0  # atno 17320 bound_to 7965
  144.7130  140.4110  143.7066 LP  0  0  0  0  0  0  0  0  0  0  0  0  # atno 17321 bound_to 7965
  140.6910  143.7861  150.7256 LP  0  0  0  0  0  0  0  0  0  0  0  0  # atno 17342 bound_to 10162
  140.1343  143.4498  152.2234 LP  0  0  0  0  0  0  0  0  0  0  0  0  # atno 17343 bound_to 10162
  157.1607  130.6224  149.5610 LP  0  0  0  0  0  0  0  0  0  0  0  0  # atno 17370 bound_to 10713
  155.9812  130.4818  150.6815 LP  0  0  0  0  0  0  0  0  0  0  0  0  # atno 17371 bound_to 10713
  140.8253  134.3242  157.5368 LP  0  0  0  0  0  0  0  0  0  0  0  0  # atno 17394 bound_to 11000
  139.8739  134.9332  156.3575 LP  0  0  0  0  0  0  0  0  0  0  0  0  # atno 17395 bound_to 11000

$$$$
