AV-unprocessed.smi:1220|AV-procd|sdf|5115|dock5
  -GOLD-   22720 4173D 1   1.00000     0.00000
 Structure written by MMmdl.
 35 36  0  0  0  0  0  0  0  0  1 V2000
  154.0654  137.7372  161.0284 C   0  0  0  0  0  0  0  0  0  0  0  0
  153.4205  139.0876  160.6750 C   0  0  1  0  0  0  0  0  0  0  0  0
  154.3214  140.2962  161.0150 C   0  0  0  0  0  0  0  0  0  0  0  0
  153.6243  141.5664  160.9276 N   0  0  0  0  0  0  0  0  0  0  0  0
  153.0112  142.2801  161.9357 C   0  0  0  0  0  0  0  0  0  0  0  0
  152.4989  143.4151  161.3757 C   0  0  0  0  0  0  0  0  0  0  0  0
  152.8590  143.3073  160.0033 C   0  0  0  0  0  0  0  0  0  0  0  0
  153.5351  142.2009  159.7388 N   0  0  0  0  0  0  0  0  0  0  0  0
  153.0799  139.0978  159.2551 N   0  0  0  0  0  0  0  0  0  0  0  0
  152.2804  138.2110  158.6414 C   0  0  0  0  0  0  0  0  0  0  0  0
  151.7425  137.2696  159.2251 O   0  0  0  0  0  0  0  0  0  0  0  0
  152.0495  138.4252  157.1405 C   0  0  2  0  0  0  0  0  0  0  0  0
  152.6149  137.2618  156.2977 C   0  0  0  0  0  0  0  0  0  0  0  0
  152.6368  137.6940  154.8286 C   0  0  0  0  0  0  0  0  0  0  0  0
  153.0218  139.4835  154.8503 S   0  0  0  0  0  0  0  0  0  0  0  0
  154.4585  139.6761  154.6025 O   0  0  0  0  0  0  0  0  0  0  0  0
  152.0132  140.2012  154.0561 O   0  0  0  0  0  0  0  0  0  0  0  0
  152.6904  139.7318  156.6362 C   0  0  0  0  0  0  0  0  0  0  0  0
  154.2581  137.6536  162.0982 H   0  0  0  0  0  0  0  0  0  0  0  0
  155.0141  137.6026  160.5079 H   0  0  0  0  0  0  0  0  0  0  0  0
  153.4132  136.9078  160.7531 H   0  0  0  0  0  0  0  0  0  0  0  0
  152.4966  139.1666  161.2512 H   0  0  0  0  0  0  0  0  0  0  0  0
  154.7219  140.1942  162.0247 H   0  0  0  0  0  0  0  0  0  0  0  0
  155.1805  140.3355  160.3436 H   0  0  0  0  0  0  0  0  0  0  0  0
  152.9889  141.9243  162.9553 H   0  0  0  0  0  0  0  0  0  0  0  0
  151.9518  144.2035  161.8711 H   0  0  0  0  0  0  0  0  0  0  0  0
  152.6522  143.9958  159.1973 H   0  0  0  0  0  0  0  0  0  0  0  0
  153.4808  139.8381  158.6976 H   0  0  0  0  0  0  0  0  0  0  0  0
  150.9771  138.4829  156.9450 H   0  0  0  0  0  0  0  0  0  0  0  0
  153.6358  137.0354  156.6102 H   0  0  0  0  0  0  0  0  0  0  0  0
  152.0324  136.3492  156.4292 H   0  0  0  0  0  0  0  0  0  0  0  0
  153.3733  137.1550  154.2326 H   0  0  0  0  0  0  0  0  0  0  0  0
  151.6547  137.5649  154.3730 H   0  0  0  0  0  0  0  0  0  0  0  0
  152.0372  140.5944  156.7688 H   0  0  0  0  0  0  0  0  0  0  0  0
  153.6420  139.9432  157.1263 H   0  0  0  0  0  0  0  0  0  0  0  0
  1  2  1  0  0  0  0
  1 19  1  0  0  0  0
  1 20  1  0  0  0  0
  1 21  1  0  0  0  0
  2  3  1  0  0  0  0
  2  9  1  0  0  0  0
  2 22  1  0  0  0  0
  3  4  1  0  0  0  0
  3 23  1  0  0  0  0
  3 24  1  0  0  0  0
  4  8  1  0  0  0  0
  4  5  1  0  0  0  0
  5  6  2  0  0  0  0
  5 25  1  0  0  0  0
  6  7  1  0  0  0  0
  6 26  1  0  0  0  0
  7  8  2  0  0  0  0
  7 27  1  0  0  0  0
  9 10  1  0  0  0  0
  9 28  1  0  0  0  0
 10 11  2  0  0  0  0
 10 12  1  0  0  0  0
 12 18  1  0  0  0  0
 12 13  1  0  0  0  0
 12 29  1  0  0  0  0
 13 14  1  0  0  0  0
 13 30  1  0  0  0  0
 13 31  1  0  0  0  0
 14 15  1  0  0  0  0
 14 32  1  0  0  0  0
 14 33  1  0  0  0  0
 15 16  2  0  0  0  0
 15 17  2  0  0  0  0
 15 18  1  0  0  0  0
 18 34  1  0  0  0  0
 18 35  1  0  0  0  0
M  END
> <s_m_source_file>
AV-unprocessed.smi

> <i_m_source_file_index>
1220

> <i_lp_mmshare_version>
43012

> <i_f3d_flags>
0

> <s_epik_input>
bjFbY0hdW2NIXVtjSF1uMVtDSDJdW0NAQEhdKFtDSDNdKVtOSF1DKD1PKVtDQEBIXShbQ0gyXTIpW0NIMl1bQ0gyXVMyKD1PKT1P

> <s_epik_cmdline>
J2VwaWtfcHl0aG9uJywgJy1waCcsICc3LjAnLCAnLXRuJywgJzgnLCAnLW1hJywgJzIwMCcsICctbWV0YWxfYmluZGluZycsICctaW1hZScsICc8aW5maWxlLm1hZT4nLCAnLW9tYWUnLCAnPG91dGZpbGUubWFlPic=

> <r_lp_tautomer_probability>
1

> <r_epik_Ionization_Penalty>
0.000293905

> <r_epik_Ionization_Penalty_Charging>
0

> <r_epik_Ionization_Penalty_Neutral>
0.000293905

> <r_epik_State_Penalty>
-0

> <r_epik_Charging_Adjusted_Penalty>
0

> <i_epik_Tot_Q>
0

> <i_epik_Tot_abs_Q>
0

> <r_epik_Metal_State_Penalty>
-0

> <b_epik_Metal_Only>
0

> <s_lp_Force_Field>
OPLS_2005

> <r_lp_Energy>
2.06683

> <b_lp_Chiralities_Consistent>
1

> <s_lp_Variant>
AV-unprocessed.smi:1220-2

> <Gold.Version>
5.8.1

> <Gold.Id.Protein>
6NUR|6NUR_protein|mol2

> <Gold.PLP.Fitness>
43.0515

> <Gold.PLP.PLP>
-35.9750

> <Gold.PLP.part.hbond>
-3.9701

> <Gold.PLP.part.metal>
0.0000

> <Gold.PLP.part.buried>
-6.2096

> <Gold.PLP.part.nonpolar>
-26.5819

> <Gold.PLP.part.repulsive>
0.1972

> <Gold.PLP.ligand.clash>
0.9913

> <Gold.PLP.ligand.torsion>
0.4634

> <Gold.PLP.Chemscore.Hbond>
2.9913

> <Gold.PLP.Chemscore.CHOScore>
0.0000

> <Gold.PLP.Chemscore.Metal>
0.0000

> <Gold.Chemscore.Hbonds>
donor molecule, donor type, donor heavy atom, donor atom, acceptor molecule, acceptor atom, score
      P1  H  6896  6908       L1    11  0.49
      P1  H  7997  8008       L1    16  0.11

> <Gold.PLP.Chemscore.Internal.Correction>
0.0208

> <Gold.Rescore>
     Score         DG    S(hbond)    S(metal)    S(lipo)     H(rot)  DE(clash)    DE(int)     intcor
     16.92     -19.30       2.78        0.00      76.91       1.75       0.85       1.53       ----

> <Gold.Chemscore.Fitness>
16.9205

> <Gold.Chemscore.DG>
-19.3013

> <Gold.Chemscore.ZeroCoef>
-5.4800

> <Gold.Chemscore.Hbond>
2.7822

> <Gold.Chemscore.Metal>
0.0000

> <Gold.Chemscore.Lipo>
76.9089

> <Gold.Chemscore.Internal_Hbond>
0.0000

> <Gold.Chemscore.DEClash>
0.8496

> <Gold.Chemscore.DEInternal>
1.5312

> <Gold.Chemscore.Rot>
1.7460

> <Gold.Chemscore.Internal.Correction>
   9.000000E+99

> <Gold.Chemscore.Hbonds>
donor molecule, donor type, donor heavy atom, donor atom, acceptor molecule, acceptor atom, score
      P1  H  6896  6908       L1    11  0.47
      P1  H  7997  8008       L1    16  0.01

> <Gold.Chemscore.Hbond.Weighted>
-9.2927

> <Gold.Chemscore.Metal.Weighted>
-0.0000

> <Gold.Chemscore.Lipo.Weighted>
-8.9983

> <Gold.Chemscore.Internal_Hbond.Weighted>
0.0000

> <Gold.Chemscore.DEClash.Weighted>
0.8496

> <Gold.Chemscore.DEInternal.Weighted>
1.5312

> <Gold.Chemscore.Rot.Weighted>
4.4697

> <Gold.Chemscore.Internal.Correction.Weighted>
   9.000000E+99

> <Gold.Protein.RotatedTorsions>
[ 6907 6896 6895 6894 ] final -124.80 input  -60.11 | X-H torsion
[ 7974 7965 7964 7962 ] final  164.14 input  175.53 | X-H torsion
[ 8008 7997 7996 7995 ] final   -6.25 input   59.86 | X-H torsion
[ 10167 10162 10161 10158 ] final   73.40 input  -65.29 | X-H torsion
[ 10718 10713 10712 10709 ] final  -64.97 input   66.30 | X-H torsion
[ 10763 10752 10751 10750 ] final   97.83 input  -60.55 | X-H torsion
[ 11005 11000 10999 10996 ] final -163.19 input  -57.11 | X-H torsion

> <Gold.Protein.ActiveResidues>
 VAL166  LYS551  ARG553  GLY616  TRP617  ASP618  TYR619  PRO620  LYS621  CYS622 
 ASP623  PHE694  ASN695  SER759  ASP760  ASP761  ALA762  ILE779  LEU786  VAL792 
 PHE793  MET794  SER795  GLU796  ALA797  LYS798  CYS799  TRP800  GLU811  SER814 

> <Gold.Protein.RotatedAtoms>
  150.8803  133.7381  159.2933 H   0  0  0  0  0  0  0  0  0  0  0  0  # atno 6907 bound_to 6896
  151.4964  135.1058  159.9827 H   0  0  0  0  0  0  0  0  0  0  0  0  # atno 6908 bound_to 6896
  152.4755  133.8083  159.7045 H   0  0  0  0  0  0  0  0  0  0  0  0  # atno 6909 bound_to 6896
  144.7558  139.8283  143.6350 H   0  0  0  0  0  0  0  0  0  0  0  0  # atno 7974 bound_to 7965
  154.5956  140.2437  155.7861 H   0  0  0  0  0  0  0  0  0  0  0  0  # atno 8008 bound_to 7997
  156.2277  140.2977  156.0061 H   0  0  0  0  0  0  0  0  0  0  0  0  # atno 8009 bound_to 7997
  155.2298  140.0403  157.2951 H   0  0  0  0  0  0  0  0  0  0  0  0  # atno 8010 bound_to 7997
  140.0249  144.5511  150.7552 H   0  0  0  0  0  0  0  0  0  0  0  0  # atno 10167 bound_to 10162
  156.0697  130.4241  150.1496 H   0  0  0  0  0  0  0  0  0  0  0  0  # atno 10718 bound_to 10713
  153.2816  135.4169  155.1084 H   0  0  0  0  0  0  0  0  0  0  0  0  # atno 10763 bound_to 10752
  154.8491  135.3496  154.6104 H   0  0  0  0  0  0  0  0  0  0  0  0  # atno 10764 bound_to 10752
  153.6525  135.7052  153.5262 H   0  0  0  0  0  0  0  0  0  0  0  0  # atno 10765 bound_to 10752
  140.6008  134.4949  157.5205 H   0  0  0  0  0  0  0  0  0  0  0  0  # atno 11005 bound_to 11000
  146.1567  139.4667  143.0014 LP  0  0  0  0  0  0  0  0  0  0  0  0  # atno 17320 bound_to 7965
  145.6784  141.0198  143.1620 LP  0  0  0  0  0  0  0  0  0  0  0  0  # atno 17321 bound_to 7965
  140.7327  143.2708  151.3894 LP  0  0  0  0  0  0  0  0  0  0  0  0  # atno 17342 bound_to 10162
  139.6115  144.1090  152.2303 LP  0  0  0  0  0  0  0  0  0  0  0  0  # atno 17343 bound_to 10162
  156.9550  130.9786  151.3491 LP  0  0  0  0  0  0  0  0  0  0  0  0  # atno 17370 bound_to 10713
  157.5761  130.8344  149.8457 LP  0  0  0  0  0  0  0  0  0  0  0  0  # atno 17371 bound_to 10713
  139.9233  134.8105  156.1144 LP  0  0  0  0  0  0  0  0  0  0  0  0  # atno 17394 bound_to 11000
  141.0873  133.6729  156.2464 LP  0  0  0  0  0  0  0  0  0  0  0  0  # atno 17395 bound_to 11000

$$$$
