AV-unprocessed.smi:54|AV-procd|sdf|560|dock7
  -GOLD-   2262016463D 1   1.00000     0.00000
 Structure written by MMmdl.
 43 45  0  0  0  0  0  0  0  0  2 V2000
  152.3743  142.7004  161.1071 C   0  0  0  0  0  0  0  0  0  0  0  0
  152.9504  142.4950  159.6965 C   0  0  0  0  0  0  0  0  0  0  0  0
  152.4468  143.5750  158.7248 C   0  0  0  0  0  0  0  0  0  0  0  0
  152.6154  141.0917  159.1716 C   0  0  0  0  0  0  0  0  0  0  0  0
  153.5268  140.2770  159.0118 O   0  0  0  0  0  0  0  0  0  0  0  0
  151.3082  140.8722  158.9090 N   0  0  0  0  0  0  0  0  0  0  0  0
  150.6902  139.7231  158.4036 C   0  0  0  0  0  0  0  0  0  0  0  0
  150.2383  139.8793  157.1837 N   0  0  0  0  0  0  0  0  0  0  0  0
  149.6187  138.7463  156.6928 C   0  0  0  0  0  0  0  0  0  0  0  0
  149.4343  137.5525  157.3356 C   0  0  0  0  0  0  0  0  0  0  0  0
  148.7658  136.6387  156.5303 N   0  0  0  0  0  0  0  0  0  0  0  0
  148.5745  137.3394  155.4140 C   0  0  0  0  0  0  0  0  0  0  0  0
  149.0536  138.5989  155.4281 N   0  0  0  0  0  0  0  0  0  0  0  0
  148.9719  139.5877  154.3078 C   0  0  1  0  0  0  0  0  0  0  0  0
  148.3509  138.9647  153.2239 O   0  0  0  0  0  0  0  0  0  0  0  0
  147.3401  139.8085  152.6856 C   0  0  1  0  0  0  0  0  0  0  0  0
  146.2710  138.9409  152.0020 C   0  0  0  0  0  0  0  0  0  0  0  0
  146.7413  138.4501  150.7643 O   0  0  0  0  0  0  0  0  0  0  0  0
  146.8472  140.6006  153.8992 C   0  0  2  0  0  0  0  0  0  0  0  0
  146.2124  141.8145  153.5423 O   0  0  0  0  0  0  0  0  0  0  0  0
  148.1218  140.8022  154.7157 C   0  0  2  0  0  0  0  0  0  0  0  0
  148.7877  142.0093  154.3908 O   0  0  0  0  0  0  0  0  0  0  0  0
  149.9561  137.4470  158.7188 C   0  0  0  0  0  0  0  0  0  0  0  0
  149.8101  136.3931  159.3349 O   0  0  0  0  0  0  0  0  0  0  0  0
  150.5717  138.5678  159.2010 N   0  5  0  0  0  0  0  0  0  0  0  0
  150.0097  139.8323  154.0766 H   0  0  0  0  0  0  0  0  0  0  0  0
  147.8182  140.4748  151.9648 H   0  0  0  0  0  0  0  0  0  0  0  0
  146.1425  139.9993  154.4734 H   0  0  0  0  0  0  0  0  0  0  0  0
  147.9191  140.7981  155.7878 H   0  0  0  0  0  0  0  0  0  0  0  0
  152.7234  141.9281  161.7937 H   0  0  0  0  0  0  0  0  0  0  0  0
  151.2839  142.6747  161.1032 H   0  0  0  0  0  0  0  0  0  0  0  0
  152.6803  143.6635  161.5160 H   0  0  0  0  0  0  0  0  0  0  0  0
  154.0358  142.5878  159.7636 H   0  0  0  0  0  0  0  0  0  0  0  0
  152.8492  143.4246  157.7223 H   0  0  0  0  0  0  0  0  0  0  0  0
  152.7528  144.5684  159.0538 H   0  0  0  0  0  0  0  0  0  0  0  0
  151.3586  143.5729  158.6507 H   0  0  0  0  0  0  0  0  0  0  0  0
  150.7121  141.6765  159.0351 H   0  0  0  0  0  0  0  0  0  0  0  0
  148.0709  136.9211  154.5549 H   0  0  0  0  0  0  0  0  0  0  0  0
  146.0247  138.0877  152.6342 H   0  0  0  0  0  0  0  0  0  0  0  0
  145.3492  139.5025  151.8471 H   0  0  0  0  0  0  0  0  0  0  0  0
  146.0114  138.3971  150.1663 H   0  0  0  0  0  0  0  0  0  0  0  0
  145.3161  141.6227  153.3114 H   0  0  0  0  0  0  0  0  0  0  0  0
  148.4912  142.6822  154.9845 H   0  0  0  0  0  0  0  0  0  0  0  0
  1  2  1  0  0  0  0
  1 30  1  0  0  0  0
  1 31  1  0  0  0  0
  1 32  1  0  0  0  0
  2  3  1  0  0  0  0
  2  4  1  0  0  0  0
  2 33  1  0  0  0  0
  3 34  1  0  0  0  0
  3 35  1  0  0  0  0
  3 36  1  0  0  0  0
  4  5  2  0  0  0  0
  4  6  1  0  0  0  0
  6 37  1  0  0  0  0
  6  7  1  0  0  0  0
  7 25  1  0  0  0  0
  7  8  2  0  0  0  0
  8  9  1  0  0  0  0
  9 13  1  0  0  0  0
  9 10  2  0  0  0  0
 10 11  1  0  0  0  0
 10 23  1  0  0  0  0
 11 12  2  0  0  0  0
 12 13  1  0  0  0  0
 12 38  1  0  0  0  0
 13 14  1  0  0  0  0
 14 26  1  0  0  0  0
 14 21  1  0  0  0  0
 14 15  1  0  0  0  0
 15 16  1  0  0  0  0
 16 27  1  0  0  0  0
 16 17  1  0  0  0  0
 16 19  1  0  0  0  0
 17 18  1  0  0  0  0
 17 39  1  0  0  0  0
 17 40  1  0  0  0  0
 18 41  1  0  0  0  0
 19 28  1  0  0  0  0
 19 20  1  0  0  0  0
 19 21  1  0  0  0  0
 20 42  1  0  0  0  0
 21 29  1  0  0  0  0
 21 22  1  0  0  0  0
 22 43  1  0  0  0  0
 23 24  2  0  0  0  0
 23 25  1  0  0  0  0
M  CHG  1  25  -1
M  END
> <s_m_source_file>
AV-unprocessed.smi

> <i_m_source_file_index>
54

> <i_lp_mmshare_version>
43012

> <i_f3d_flags>
0

> <s_epik_input>
W0NIM11bQ0hdKFtDSDNdKUMoPU8pW05IXWMobjEpW25IXWMoPU8pYyhjMTIpbltjSF1uMltDQEBIXTNPW0NASF0oW0NIMl1bT0hdKVtDQEBIXShbT0hdKVtDQEhdM1tPSF0=

> <s_epik_cmdline>
J2VwaWtfcHl0aG9uJywgJy1waCcsICc3LjAnLCAnLXRuJywgJzgnLCAnLW1hJywgJzIwMCcsICctbWV0YWxfYmluZGluZycsICctaW1hZScsICc8aW5maWxlLm1hZT4nLCAnLW9tYWUnLCAnPG91dGZpbGUubWFlPic=

> <r_lp_tautomer_probability>
0.85571

> <r_epik_Ionization_Penalty>
1.75936

> <r_epik_Ionization_Penalty_Charging>
4.55893e-11

> <r_epik_Ionization_Penalty_Neutral>
1.75936

> <r_epik_State_Penalty>
1.72072

> <r_epik_Charging_Adjusted_Penalty>
1.72072

> <i_epik_Tot_Q>
-1

> <i_epik_Tot_abs_Q>
1

> <r_epik_Metal_State_Penalty>
0.400338

> <b_epik_Metal_Only>
1

> <s_epik_Chemistry_Notes>
This compound contains an acetal/aminal-like group ( X-CH(R)-Y where X, Y are N, S, or O) that may be acid/base labile, releasing an aldehyde.

> <s_lp_Force_Field>
OPLS_2005

> <r_lp_Energy>
61.5682

> <b_lp_Chiralities_Consistent>
1

> <s_lp_Variant>
AV-unprocessed.smi:54-32

> <Gold.Version>
5.8.1

> <Gold.Id.Protein>
6NUR|6NUR_protein|mol2

> <Gold.PLP.Fitness>
48.2159

> <Gold.PLP.PLP>
-34.7646

> <Gold.PLP.part.hbond>
-7.4975

> <Gold.PLP.part.metal>
0.0000

> <Gold.PLP.part.buried>
-2.6505

> <Gold.PLP.part.nonpolar>
-27.7231

> <Gold.PLP.part.repulsive>
3.1050

> <Gold.PLP.ligand.clash>
0.0000

> <Gold.PLP.ligand.torsion>
0.8473

> <Gold.PLP.Chemscore.Hbond>
5.0372

> <Gold.PLP.Chemscore.CHOScore>
0.0000

> <Gold.PLP.Chemscore.Metal>
0.0000

> <Gold.Chemscore.Hbonds>
donor molecule, donor type, donor heavy atom, donor atom, acceptor molecule, acceptor atom, score
      L1  H    18    41       P1 10171  0.69
      L1  H    20    42       P1 10175  0.40
      L1  H    22    43       P1  8028  0.58
      P1  H  6896  6907       L1    24  1.00
      P1  H  7954  7966       L1    18  0.96
      P1  H  7997  8009       L1     5  0.49
      P1  H  8011  8017       L1    22  0.10
      L1  C    12    38       P1  7948  0.04

> <Gold.PLP.Chemscore.Internal.Correction>
0.0343

> <Gold.Rescore>
     Score         DG    S(hbond)    S(metal)    S(lipo)     H(rot)  DE(clash)    DE(int)     intcor
     12.90     -15.38       3.83        0.00      63.09       4.02       1.57       0.90       ----

> <Gold.Chemscore.Fitness>
12.8988

> <Gold.Chemscore.DG>
-15.3777

> <Gold.Chemscore.ZeroCoef>
-5.4800

> <Gold.Chemscore.Hbond>
3.8339

> <Gold.Chemscore.Metal>
0.0000

> <Gold.Chemscore.Lipo>
63.0912

> <Gold.Chemscore.Internal_Hbond>
0.0000

> <Gold.Chemscore.DEClash>
1.5742

> <Gold.Chemscore.DEInternal>
0.9048

> <Gold.Chemscore.Rot>
4.0192

> <Gold.Chemscore.Internal.Correction>
   9.000000E+99

> <Gold.Chemscore.Hbonds>
donor molecule, donor type, donor heavy atom, donor atom, acceptor molecule, acceptor atom, score
      L1  H    18    41       P1 10171  0.65
      L1  H    20    42       P1 10175  0.02
      L1  H    22    43       P1  8028  0.57
      P1  H  6896  6907       L1    24  1.00
      P1  H  7954  7966       L1    18  0.56
      P1  H  7997  8009       L1     5  0.48
      P1  H  8011  8017       L1    22  0.10

> <Gold.Chemscore.Hbond.Weighted>
-12.8053

> <Gold.Chemscore.Metal.Weighted>
-0.0000

> <Gold.Chemscore.Lipo.Weighted>
-7.3817

> <Gold.Chemscore.Internal_Hbond.Weighted>
0.0000

> <Gold.Chemscore.DEClash.Weighted>
1.5742

> <Gold.Chemscore.DEInternal.Weighted>
0.9048

> <Gold.Chemscore.Rot.Weighted>
10.2893

> <Gold.Chemscore.Internal.Correction.Weighted>
   9.000000E+99

> <Gold.Protein.RotatedTorsions>
[ 6907 6896 6895 6894 ] final  -47.00 input  -60.11 | X-H torsion
[ 7974 7965 7964 7962 ] final  136.69 input  175.53 | X-H torsion
[ 8008 7997 7996 7995 ] final  138.26 input   59.86 | X-H torsion
[ 10167 10162 10161 10158 ] final   96.11 input  -65.29 | X-H torsion
[ 10718 10713 10712 10709 ] final  -93.93 input   66.30 | X-H torsion
[ 10763 10752 10751 10750 ] final -173.70 input  -60.55 | X-H torsion
[ 11005 11000 10999 10996 ] final   29.71 input  -57.11 | X-H torsion

> <Gold.Protein.ActiveResidues>
 VAL166  LYS551  ARG553  GLY616  TRP617  ASP618  TYR619  PRO620  LYS621  CYS622 
 ASP623  PHE694  ASN695  SER759  ASP760  ASP761  ALA762  ILE779  LEU786  VAL792 
 PHE793  MET794  SER795  GLU796  ALA797  LYS798  CYS799  TRP800  GLU811  SER814 

> <Gold.Protein.RotatedAtoms>
  150.9054  134.8468  159.7388 H   0  0  0  0  0  0  0  0  0  0  0  0  # atno 6907 bound_to 6896
  152.4915  134.4439  159.9562 H   0  0  0  0  0  0  0  0  0  0  0  0  # atno 6908 bound_to 6896
  151.4487  133.3584  159.2827 H   0  0  0  0  0  0  0  0  0  0  0  0  # atno 6909 bound_to 6896
  144.9540  139.4786  143.5512 H   0  0  0  0  0  0  0  0  0  0  0  0  # atno 7974 bound_to 7965
  156.2998  140.2398  156.4045 H   0  0  0  0  0  0  0  0  0  0  0  0  # atno 8008 bound_to 7997
  154.8497  140.0424  157.1616 H   0  0  0  0  0  0  0  0  0  0  0  0  # atno 8009 bound_to 7997
  154.9012  140.2977  155.5320 H   0  0  0  0  0  0  0  0  0  0  0  0  # atno 8010 bound_to 7997
  139.7925  144.6846  150.9873 H   0  0  0  0  0  0  0  0  0  0  0  0  # atno 10167 bound_to 10162
  156.0020  130.5047  150.5851 H   0  0  0  0  0  0  0  0  0  0  0  0  # atno 10718 bound_to 10713
  154.6048  135.2858  155.0496 H   0  0  0  0  0  0  0  0  0  0  0  0  # atno 10763 bound_to 10752
  154.1748  135.6466  153.5022 H   0  0  0  0  0  0  0  0  0  0  0  0  # atno 10764 bound_to 10752
  153.0171  135.5409  154.6780 H   0  0  0  0  0  0  0  0  0  0  0  0  # atno 10765 bound_to 10752
  140.3021  134.2745  155.7751 H   0  0  0  0  0  0  0  0  0  0  0  0  # atno 11005 bound_to 11000
  146.3331  139.8644  142.8850 LP  0  0  0  0  0  0  0  0  0  0  0  0  # atno 17320 bound_to 7965
  145.2801  141.0136  143.3722 LP  0  0  0  0  0  0  0  0  0  0  0  0  # atno 17321 bound_to 7965
  140.7820  143.4366  151.0614 LP  0  0  0  0  0  0  0  0  0  0  0  0  # atno 17342 bound_to 10162
  139.8042  143.8041  152.3166 LP  0  0  0  0  0  0  0  0  0  0  0  0  # atno 17343 bound_to 10162
  157.3725  131.0768  151.1546 LP  0  0  0  0  0  0  0  0  0  0  0  0  # atno 17370 bound_to 10713
  157.2295  130.6518  149.5844 LP  0  0  0  0  0  0  0  0  0  0  0  0  # atno 17371 bound_to 10713
  141.2126  133.7653  156.9782 LP  0  0  0  0  0  0  0  0  0  0  0  0  # atno 17394 bound_to 11000
  140.1100  134.9483  157.2051 LP  0  0  0  0  0  0  0  0  0  0  0  0  # atno 17395 bound_to 11000

$$$$
