AV-unprocessed.smi:3263|AV-procd|sdf|12487|dock10
  -GOLD-   2272018383D 1   1.00000     0.00000
 Structure written by MMmdl.
 41 43  0  0  0  0  0  0  0  0  1 V2000
  152.4239  139.2093  159.4088 O   0  0  0  0  0  0  0  0  0  0  0  0
  151.4696  139.5664  158.7171 C   0  0  0  0  0  0  0  0  0  0  0  0
  151.4769  140.9312  158.0187 C   0  0  0  0  0  0  0  0  0  0  0  0
  151.2063  142.1227  158.9658 C   0  0  1  0  0  0  0  0  0  0  0  0
  152.2912  142.3305  160.0504 C   0  0  0  0  0  0  0  0  0  0  0  0
  152.7121  143.7968  159.8470 C   0  0  2  0  0  0  0  0  0  0  0  0
  151.5628  144.7277  160.2764 C   0  0  0  0  0  0  0  0  0  0  0  0
  150.5324  144.5367  159.1472 C   0  0  0  0  0  0  0  0  0  0  0  0
  151.2106  143.4895  158.2428 C   0  0  1  0  0  0  0  0  0  0  0  0
  152.6721  143.9198  158.3294 C   0  0  0  0  0  0  0  0  0  0  0  0
  150.3700  138.8178  158.5360 N   0  0  0  0  0  0  0  0  0  0  0  0
  150.1327  137.5010  159.1231 C   0  0  0  0  0  0  0  0  0  0  0  0
  148.6458  137.0965  159.0853 C   0  0  0  0  0  0  0  0  0  0  0  0
  148.1826  136.3449  160.3220 C   0  0  0  0  0  0  0  0  0  0  0  0
  148.0136  134.9436  160.2946 C   0  0  0  0  0  0  0  0  0  0  0  0
  147.5558  134.3004  161.4607 C   0  0  0  0  0  0  0  0  0  0  0  0
  147.2884  135.0781  162.6037 C   0  0  0  0  0  0  0  0  0  0  0  0
  147.4931  136.4703  162.5298 C   0  0  0  0  0  0  0  0  0  0  0  0
  147.9334  137.0970  161.4176 N   0  0  0  0  0  0  0  0  0  0  0  0
  152.4324  141.0664  157.5103 H   0  0  0  0  0  0  0  0  0  0  0  0
  150.7144  140.9068  157.2393 H   0  0  0  0  0  0  0  0  0  0  0  0
  150.2329  141.9726  159.4362 H   0  0  0  0  0  0  0  0  0  0  0  0
  151.9126  142.1417  161.0556 H   0  0  0  0  0  0  0  0  0  0  0  0
  153.1460  141.6714  159.8916 H   0  0  0  0  0  0  0  0  0  0  0  0
  153.6704  144.0433  160.3048 H   0  0  0  0  0  0  0  0  0  0  0  0
  151.1613  144.4617  161.2550 H   0  0  0  0  0  0  0  0  0  0  0  0
  151.8960  145.7653  160.3206 H   0  0  0  0  0  0  0  0  0  0  0  0
  149.5617  144.2055  159.5182 H   0  0  0  0  0  0  0  0  0  0  0  0
  150.3796  145.4721  158.6076 H   0  0  0  0  0  0  0  0  0  0  0  0
  150.7973  143.4596  157.2342 H   0  0  0  0  0  0  0  0  0  0  0  0
  152.8460  144.9369  157.9733 H   0  0  0  0  0  0  0  0  0  0  0  0
  153.3600  143.2424  157.8211 H   0  0  0  0  0  0  0  0  0  0  0  0
  149.6365  139.1926  157.9520 H   0  0  0  0  0  0  0  0  0  0  0  0
  150.7182  136.7744  158.5595 H   0  0  0  0  0  0  0  0  0  0  0  0
  150.5084  137.4619  160.1469 H   0  0  0  0  0  0  0  0  0  0  0  0
  148.0273  137.9854  158.9553 H   0  0  0  0  0  0  0  0  0  0  0  0
  148.4614  136.4728  158.2098 H   0  0  0  0  0  0  0  0  0  0  0  0
  148.2181  134.3754  159.3992 H   0  0  0  0  0  0  0  0  0  0  0  0
  147.4096  133.2306  161.4769 H   0  0  0  0  0  0  0  0  0  0  0  0
  146.9341  134.6190  163.5148 H   0  0  0  0  0  0  0  0  0  0  0  0
  147.2987  137.0975  163.3871 H   0  0  0  0  0  0  0  0  0  0  0  0
  1  2  2  0  0  0  0
  2  3  1  0  0  0  0
  2 11  1  0  0  0  0
  3  4  1  0  0  0  0
  3 20  1  0  0  0  0
  3 21  1  0  0  0  0
  4  9  1  0  0  0  0
  4  5  1  0  0  0  0
  4 22  1  0  0  0  0
  5  6  1  0  0  0  0
  5 23  1  0  0  0  0
  5 24  1  0  0  0  0
  6 10  1  0  0  0  0
  6  7  1  0  0  0  0
  6 25  1  0  0  0  0
  7  8  1  0  0  0  0
  7 26  1  0  0  0  0
  7 27  1  0  0  0  0
  8  9  1  0  0  0  0
  8 28  1  0  0  0  0
  8 29  1  0  0  0  0
  9 10  1  0  0  0  0
  9 30  1  0  0  0  0
 10 31  1  0  0  0  0
 10 32  1  0  0  0  0
 11 12  1  0  0  0  0
 11 33  1  0  0  0  0
 12 13  1  0  0  0  0
 12 34  1  0  0  0  0
 12 35  1  0  0  0  0
 13 14  1  0  0  0  0
 13 36  1  0  0  0  0
 13 37  1  0  0  0  0
 14 19  1  0  0  0  0
 14 15  2  0  0  0  0
 15 16  1  0  0  0  0
 15 38  1  0  0  0  0
 16 17  2  0  0  0  0
 16 39  1  0  0  0  0
 17 18  1  0  0  0  0
 17 40  1  0  0  0  0
 18 19  2  0  0  0  0
 18 41  1  0  0  0  0
M  END
> <s_m_source_file>
AV-unprocessed.smi

> <i_m_source_file_index>
3263

> <i_lp_mmshare_version>
43012

> <i_f3d_flags>
0

> <s_epik_input>
W0NIMl0xW0NIMl1bQ0BASF0oW0NIMl0yKVtDQEBIXShbQ0gyXVtDQEhdMTIpW0NIMl1DKD1PKVtOSF1bQ0gyXVtDSDJdYzNbY0hdW2NIXVtjSF1bY0hdbjM=

> <s_epik_cmdline>
J2VwaWtfcHl0aG9uJywgJy1waCcsICc3LjAnLCAnLXRuJywgJzgnLCAnLW1hJywgJzIwMCcsICctbWV0YWxfYmluZGluZycsICctaW1hZScsICc8aW5maWxlLm1hZT4nLCAnLW9tYWUnLCAnPG91dGZpbGUubWFlPic=

> <r_epik_Ionization_Penalty>
0.0273541

> <r_epik_Ionization_Penalty_Charging>
0

> <r_epik_Ionization_Penalty_Neutral>
0.0273541

> <r_epik_State_Penalty>
0.0223838

> <r_epik_Charging_Adjusted_Penalty>
0.0223838

> <i_epik_Tot_Q>
0

> <i_epik_Tot_abs_Q>
0

> <r_epik_Metal_State_Penalty>
0.0213927

> <b_epik_Metal_Only>
0

> <s_lp_Force_Field>
OPLS_2005

> <r_lp_Energy>
47.5771

> <b_lp_Chiralities_Consistent>
1

> <s_lp_Variant>
AV-unprocessed.smi:3263-2

> <Gold.Version>
5.8.1

> <Gold.Id.Protein>
6NUR|6NUR_protein|mol2

> <Gold.PLP.Fitness>
49.4977

> <Gold.PLP.PLP>
-46.2938

> <Gold.PLP.part.hbond>
-1.9048

> <Gold.PLP.part.metal>
0.0000

> <Gold.PLP.part.buried>
-4.9421

> <Gold.PLP.part.nonpolar>
-39.5009

> <Gold.PLP.part.repulsive>
0.1666

> <Gold.PLP.ligand.clash>
0.0000

> <Gold.PLP.ligand.torsion>
0.8391

> <Gold.PLP.Chemscore.Hbond>
1.6183

> <Gold.PLP.Chemscore.CHOScore>
0.0000

> <Gold.PLP.Chemscore.Metal>
0.0000

> <Gold.Chemscore.Hbonds>
donor molecule, donor type, donor heavy atom, donor atom, acceptor molecule, acceptor atom, score
      P1  H  6931  6943       L1    19  1.00
      P1  H  6934  6947       L1    19  0.55

> <Gold.PLP.Chemscore.Internal.Correction>
0.0272

> <Gold.Rescore>
     Score         DG    S(hbond)    S(metal)    S(lipo)     H(rot)  DE(clash)    DE(int)     intcor
     19.95     -20.54       0.95        0.00     133.33       1.46       0.03       0.56       ----

> <Gold.Chemscore.Fitness>
19.9509

> <Gold.Chemscore.DG>
-20.5410

> <Gold.Chemscore.ZeroCoef>
-5.4800

> <Gold.Chemscore.Hbond>
0.9542

> <Gold.Chemscore.Metal>
0.0000

> <Gold.Chemscore.Lipo>
133.3344

> <Gold.Chemscore.Internal_Hbond>
0.0000

> <Gold.Chemscore.DEClash>
0.0256

> <Gold.Chemscore.DEInternal>
0.5646

> <Gold.Chemscore.Rot>
1.4555

> <Gold.Chemscore.Internal.Correction>
   9.000000E+99

> <Gold.Chemscore.Hbonds>
donor molecule, donor type, donor heavy atom, donor atom, acceptor molecule, acceptor atom, score
      P1  H  6931  6943       L1    19  0.58
      P1  H  6934  6947       L1    19  0.47

> <Gold.Chemscore.Hbond.Weighted>
-3.1869

> <Gold.Chemscore.Metal.Weighted>
-0.0000

> <Gold.Chemscore.Lipo.Weighted>
-15.6001

> <Gold.Chemscore.Internal_Hbond.Weighted>
0.0000

> <Gold.Chemscore.DEClash.Weighted>
0.0256

> <Gold.Chemscore.DEInternal.Weighted>
0.5646

> <Gold.Chemscore.Rot.Weighted>
3.7260

> <Gold.Chemscore.Internal.Correction.Weighted>
   9.000000E+99

> <Gold.Protein.RotatedTorsions>
[ 6907 6896 6895 6894 ] final   22.83 input  -60.11 | X-H torsion
[ 7974 7965 7964 7962 ] final   90.14 input  175.53 | X-H torsion
[ 8008 7997 7996 7995 ] final  131.80 input   59.86 | X-H torsion
[ 10167 10162 10161 10158 ] final -103.42 input  -65.29 | X-H torsion
[ 10718 10713 10712 10709 ] final  -50.23 input   66.30 | X-H torsion
[ 10763 10752 10751 10750 ] final   26.14 input  -60.55 | X-H torsion
[ 11005 11000 10999 10996 ] final -119.76 input  -57.11 | X-H torsion

> <Gold.Protein.ActiveResidues>
 VAL166  LYS551  ARG553  GLY616  TRP617  ASP618  TYR619  PRO620  LYS621  CYS622 
 ASP623  PHE694  ASN695  SER759  ASP760  ASP761  ALA762  ILE779  LEU786  VAL792 
 PHE793  MET794  SER795  GLU796  ALA797  LYS798  CYS799  TRP800  GLU811  SER814 

> <Gold.Protein.RotatedAtoms>
  151.9331  135.0247  160.0530 H   0  0  0  0  0  0  0  0  0  0  0  0  # atno 6907 bound_to 6896
  152.2101  133.4900  159.5114 H   0  0  0  0  0  0  0  0  0  0  0  0  # atno 6908 bound_to 6896
  150.6974  134.1395  159.4142 H   0  0  0  0  0  0  0  0  0  0  0  0  # atno 6909 bound_to 6896
  145.5229  139.2280  143.2661 H   0  0  0  0  0  0  0  0  0  0  0  0  # atno 7974 bound_to 7965
  156.2975  140.2562  156.2984 H   0  0  0  0  0  0  0  0  0  0  0  0  # atno 8008 bound_to 7997
  154.9441  140.0395  157.2130 H   0  0  0  0  0  0  0  0  0  0  0  0  # atno 8009 bound_to 7997
  154.8098  140.2842  155.5866 H   0  0  0  0  0  0  0  0  0  0  0  0  # atno 8010 bound_to 7997
  140.2202  143.3681  152.0976 H   0  0  0  0  0  0  0  0  0  0  0  0  # atno 10167 bound_to 10162
  156.1819  130.4150  149.9494 H   0  0  0  0  0  0  0  0  0  0  0  0  # atno 10718 bound_to 10713
  153.0643  135.6567  154.0391 H   0  0  0  0  0  0  0  0  0  0  0  0  # atno 10763 bound_to 10752
  154.0052  135.2933  155.3400 H   0  0  0  0  0  0  0  0  0  0  0  0  # atno 10764 bound_to 10752
  154.6994  135.5251  153.8573 H   0  0  0  0  0  0  0  0  0  0  0  0  # atno 10765 bound_to 10752
  141.0192  134.0149  157.3306 H   0  0  0  0  0  0  0  0  0  0  0  0  # atno 11005 bound_to 11000
  146.2094  140.6042  142.9066 LP  0  0  0  0  0  0  0  0  0  0  0  0  # atno 17320 bound_to 7965
  144.7666  140.5544  143.6699 LP  0  0  0  0  0  0  0  0  0  0  0  0  # atno 17321 bound_to 7965
  139.5147  144.6952  151.5651 LP  0  0  0  0  0  0  0  0  0  0  0  0  # atno 17342 bound_to 10162
  140.6260  143.9167  150.6565 LP  0  0  0  0  0  0  0  0  0  0  0  0  # atno 17343 bound_to 10162
  156.7262  130.9026  151.3622 LP  0  0  0  0  0  0  0  0  0  0  0  0  # atno 17370 bound_to 10713
  157.6874  130.9199  150.0422 LP  0  0  0  0  0  0  0  0  0  0  0  0  # atno 17371 bound_to 10713
  139.9136  135.0194  156.7790 LP  0  0  0  0  0  0  0  0  0  0  0  0  # atno 17394 bound_to 11000
  140.6602  133.9652  155.7801 LP  0  0  0  0  0  0  0  0  0  0  0  0  # atno 17395 bound_to 11000

$$$$
