AV-unprocessed.smi:1596|AV-procd|sdf|6417|dock9
  -GOLD-   22720 7 53D 1   1.00000     0.00000
 Structure written by MMmdl.
 49 50  0  0  0  0  0  0  0  0  2 V2000
  152.5493  144.8293  158.4595 C   0  0  0  0  0  0  0  0  0  0  0  0
  151.7307  144.0208  157.4419 C   0  0  0  0  0  0  0  0  0  0  0  0
  151.9576  142.5763  157.5344 N   0  0  0  0  0  0  0  0  0  0  0  0
  153.0020  142.0693  158.4248 C   0  0  0  0  0  0  0  0  0  0  0  0
  152.6506  142.2063  159.9138 C   0  0  0  0  0  0  0  0  0  0  0  0
  151.2975  141.6994  156.6386 C   0  0  0  0  0  0  0  0  0  0  0  0
  151.6935  140.3555  156.4207 C   0  0  0  0  0  0  0  0  0  0  0  0
  150.9806  139.5481  155.5106 C   0  0  0  0  0  0  0  0  0  0  0  0
  149.8667  140.0758  154.8264 C   0  0  0  0  0  0  0  0  0  0  0  0
  149.1872  139.2309  153.9073 N   0  0  0  0  0  0  0  0  0  0  0  0
  147.8643  139.1206  153.6958 C   0  0  0  0  0  0  0  0  0  0  0  0
  146.9925  139.7249  154.3202 O   0  0  0  0  0  0  0  0  0  0  0  0
  147.6000  138.2443  152.7161 N   0  0  0  0  0  0  0  0  0  0  0  0
  146.2657  137.8824  152.2462 C   0  0  2  0  0  0  0  0  0  0  0  0
  145.3365  137.6624  153.4539 C   0  0  0  0  0  0  0  0  0  0  0  0
  143.9263  137.2328  153.0127 C   0  0  0  0  0  0  0  0  0  0  0  0
  143.9530  135.9918  152.1006 C   0  0  2  0  0  0  0  0  0  0  0  0
  144.3251  134.8500  152.8473 O   0  0  0  0  0  0  0  0  0  0  0  0
  144.9155  136.1829  150.9134 C   0  0  0  0  0  0  0  0  0  0  0  0
  146.3207  136.6176  151.3649 C   0  0  0  0  0  0  0  0  0  0  0  0
  149.5140  141.4240  155.0677 C   0  0  0  0  0  0  0  0  0  0  0  0
  150.2269  142.1611  155.9462 N   0  3  0  0  0  0  0  0  0  0  0  0
  152.3711  145.8968  158.3302 H   0  0  0  0  0  0  0  0  0  0  0  0
  153.6195  144.6588  158.3417 H   0  0  0  0  0  0  0  0  0  0  0  0
  152.2804  144.5782  159.4845 H   0  0  0  0  0  0  0  0  0  0  0  0
  150.6710  144.2228  157.6002 H   0  0  0  0  0  0  0  0  0  0  0  0
  151.9405  144.3692  156.4302 H   0  0  0  0  0  0  0  0  0  0  0  0
  153.1717  141.0159  158.2002 H   0  0  0  0  0  0  0  0  0  0  0  0
  153.9503  142.5606  158.2085 H   0  0  0  0  0  0  0  0  0  0  0  0
  153.4727  141.8495  160.5342 H   0  0  0  0  0  0  0  0  0  0  0  0
  151.7710  141.6196  160.1747 H   0  0  0  0  0  0  0  0  0  0  0  0
  152.4560  143.2424  160.1908 H   0  0  0  0  0  0  0  0  0  0  0  0
  152.5399  139.9228  156.9314 H   0  0  0  0  0  0  0  0  0  0  0  0
  151.2891  138.5260  155.3457 H   0  0  0  0  0  0  0  0  0  0  0  0
  149.7751  138.6079  153.3728 H   0  0  0  0  0  0  0  0  0  0  0  0
  148.3776  137.7908  152.2590 H   0  0  0  0  0  0  0  0  0  0  0  0
  145.8642  138.7081  151.6553 H   0  0  0  0  0  0  0  0  0  0  0  0
  145.7583  136.9014  154.1121 H   0  0  0  0  0  0  0  0  0  0  0  0
  145.2701  138.5763  154.0453 H   0  0  0  0  0  0  0  0  0  0  0  0
  143.3003  137.0464  153.8861 H   0  0  0  0  0  0  0  0  0  0  0  0
  143.4584  138.0583  152.4749 H   0  0  0  0  0  0  0  0  0  0  0  0
  142.9479  135.8084  151.7195 H   0  0  0  0  0  0  0  0  0  0  0  0
  143.6171  134.2249  152.8124 H   0  0  0  0  0  0  0  0  0  0  0  0
  144.9774  135.2674  150.3241 H   0  0  0  0  0  0  0  0  0  0  0  0
  144.5092  136.9452  150.2472 H   0  0  0  0  0  0  0  0  0  0  0  0
  146.9419  136.7960  150.4867 H   0  0  0  0  0  0  0  0  0  0  0  0
  146.7951  135.8036  151.9149 H   0  0  0  0  0  0  0  0  0  0  0  0
  148.7023  141.9513  154.5895 H   0  0  0  0  0  0  0  0  0  0  0  0
  149.9421  143.1294  156.0950 H   0  0  0  0  0  0  0  0  0  0  0  0
  1  2  1  0  0  0  0
  1 23  1  0  0  0  0
  1 24  1  0  0  0  0
  1 25  1  0  0  0  0
  2  3  1  0  0  0  0
  2 26  1  0  0  0  0
  2 27  1  0  0  0  0
  3  4  1  0  0  0  0
  3  6  1  0  0  0  0
  4  5  1  0  0  0  0
  4 28  1  0  0  0  0
  4 29  1  0  0  0  0
  5 30  1  0  0  0  0
  5 31  1  0  0  0  0
  5 32  1  0  0  0  0
  6 22  1  0  0  0  0
  6  7  2  0  0  0  0
  7  8  1  0  0  0  0
  7 33  1  0  0  0  0
  8  9  2  0  0  0  0
  8 34  1  0  0  0  0
  9 10  1  0  0  0  0
  9 21  1  0  0  0  0
 10 11  1  0  0  0  0
 10 35  1  0  0  0  0
 11 12  2  0  0  0  0
 11 13  1  0  0  0  0
 13 14  1  0  0  0  0
 13 36  1  0  0  0  0
 14 20  1  0  0  0  0
 14 15  1  0  0  0  0
 14 37  1  0  0  0  0
 15 16  1  0  0  0  0
 15 38  1  0  0  0  0
 15 39  1  0  0  0  0
 16 17  1  0  0  0  0
 16 40  1  0  0  0  0
 16 41  1  0  0  0  0
 17 18  1  0  0  0  0
 17 19  1  0  0  0  0
 17 42  1  0  0  0  0
 18 43  1  0  0  0  0
 19 20  1  0  0  0  0
 19 44  1  0  0  0  0
 19 45  1  0  0  0  0
 20 46  1  0  0  0  0
 20 47  1  0  0  0  0
 21 22  2  0  0  0  0
 21 48  1  0  0  0  0
 22 49  1  0  0  0  0
M  CHG  1  22   1
M  END
> <s_m_source_file>
AV-unprocessed.smi

> <i_m_source_file_index>
1596

> <i_lp_mmshare_version>
43012

> <i_f3d_flags>
0

> <s_epik_input>
W0NIM11bQ0gyXU4oW0NIMl1bQ0gzXSljMVtjSF1bY0hdYyhbY0hdbjEpW05IXUMoPU8pW05IXVtDQEBIXTJbQ0gyXVtDSDJdW0NAQEhdKFtPSF0pW0NIMl1bQ0gyXTI=

> <s_epik_cmdline>
J2VwaWtfcHl0aG9uJywgJy1waCcsICc3LjAnLCAnLXRuJywgJzgnLCAnLW1hJywgJzIwMCcsICctbWV0YWxfYmluZGluZycsICctaW1hZScsICc8aW5maWxlLm1hZT4nLCAnLW9tYWUnLCAnPG91dGZpbGUubWFlPic=

> <r_lp_tautomer_probability>
0.999994

> <r_epik_Ionization_Penalty>
0.224167

> <r_epik_Ionization_Penalty_Charging>
0.224146

> <r_epik_Ionization_Penalty_Neutral>
2.1696e-05

> <r_epik_State_Penalty>
0.0144855

> <r_epik_Charging_Adjusted_Penalty>
0.238631

> <i_epik_Tot_Q>
1

> <i_epik_Tot_abs_Q>
1

> <r_epik_Metal_State_Penalty>
0.0446449

> <b_epik_Metal_Only>
0

> <s_lp_Force_Field>
OPLS_2005

> <r_lp_Energy>
23.6459

> <b_lp_Chiralities_Consistent>
1

> <s_lp_Variant>
AV-unprocessed.smi:1596-2

> <Gold.Version>
5.8.1

> <Gold.Id.Protein>
6NUR|6NUR_protein|mol2

> <Gold.PLP.Fitness>
47.5121

> <Gold.PLP.PLP>
-40.1368

> <Gold.PLP.part.hbond>
-3.6917

> <Gold.PLP.part.metal>
0.0000

> <Gold.PLP.part.buried>
1.0165

> <Gold.PLP.part.nonpolar>
-39.3404

> <Gold.PLP.part.repulsive>
0.3747

> <Gold.PLP.ligand.clash>
0.0000

> <Gold.PLP.ligand.torsion>
0.6641

> <Gold.PLP.Chemscore.Hbond>
2.8640

> <Gold.PLP.Chemscore.CHOScore>
0.0000

> <Gold.PLP.Chemscore.Metal>
0.0000

> <Gold.Chemscore.Hbonds>
donor molecule, donor type, donor heavy atom, donor atom, acceptor molecule, acceptor atom, score
      L1  H    13    36       P1  7948  0.85
      L1  H    22    49       P1  8028  2.00

> <Gold.PLP.Chemscore.Internal.Correction>
0.1115

> <Gold.Rescore>
     Score         DG    S(hbond)    S(metal)    S(lipo)     H(rot)  DE(clash)    DE(int)     intcor
     15.05     -18.55       1.92        0.00      96.84       1.83       1.40       2.10       ----

> <Gold.Chemscore.Fitness>
15.0494

> <Gold.Chemscore.DG>
-18.5493

> <Gold.Chemscore.ZeroCoef>
-5.4800

> <Gold.Chemscore.Hbond>
1.9245

> <Gold.Chemscore.Metal>
0.0000

> <Gold.Chemscore.Lipo>
96.8427

> <Gold.Chemscore.Internal_Hbond>
0.0000

> <Gold.Chemscore.DEClash>
1.4040

> <Gold.Chemscore.DEInternal>
2.0960

> <Gold.Chemscore.Rot>
1.8317

> <Gold.Chemscore.Internal.Correction>
   9.000000E+99

> <Gold.Chemscore.Hbonds>
donor molecule, donor type, donor heavy atom, donor atom, acceptor molecule, acceptor atom, score
      L1  H    13    36       P1  7948  0.83
      L1  H    22    49       P1  8028  0.96

> <Gold.Chemscore.Hbond.Weighted>
-6.4279

> <Gold.Chemscore.Metal.Weighted>
-0.0000

> <Gold.Chemscore.Lipo.Weighted>
-11.3306

> <Gold.Chemscore.Internal_Hbond.Weighted>
0.0000

> <Gold.Chemscore.DEClash.Weighted>
1.4040

> <Gold.Chemscore.DEInternal.Weighted>
2.0960

> <Gold.Chemscore.Rot.Weighted>
4.6892

> <Gold.Chemscore.Internal.Correction.Weighted>
   9.000000E+99

> <Gold.Protein.RotatedTorsions>
[ 6907 6896 6895 6894 ] final -100.89 input  -60.11 | X-H torsion
[ 7974 7965 7964 7962 ] final  104.74 input  175.53 | X-H torsion
[ 8008 7997 7996 7995 ] final  102.45 input   59.86 | X-H torsion
[ 10167 10162 10161 10158 ] final   48.03 input  -65.29 | X-H torsion
[ 10718 10713 10712 10709 ] final  115.87 input   66.30 | X-H torsion
[ 10763 10752 10751 10750 ] final  157.77 input  -60.55 | X-H torsion
[ 11005 11000 10999 10996 ] final    7.84 input  -57.11 | X-H torsion

> <Gold.Protein.ActiveResidues>
 VAL166  LYS551  ARG553  GLY616  TRP617  ASP618  TYR619  PRO620  LYS621  CYS622 
 ASP623  PHE694  ASN695  SER759  ASP760  ASP761  ALA762  ILE779  LEU786  VAL792 
 PHE793  MET794  SER795  GLU796  ALA797  LYS798  CYS799  TRP800  GLU811  SER814 

> <Gold.Protein.RotatedAtoms>
  150.7133  134.0817  159.3900 H   0  0  0  0  0  0  0  0  0  0  0  0  # atno 6907 bound_to 6896
  151.8801  135.0454  160.0497 H   0  0  0  0  0  0  0  0  0  0  0  0  # atno 6908 bound_to 6896
  152.2574  133.5232  159.5398 H   0  0  0  0  0  0  0  0  0  0  0  0  # atno 6909 bound_to 6896
  145.3288  139.2492  143.3672 H   0  0  0  0  0  0  0  0  0  0  0  0  # atno 7974 bound_to 7965
  156.1394  140.3181  155.8472 H   0  0  0  0  0  0  0  0  0  0  0  0  # atno 8008 bound_to 7997
  155.4183  140.0510  157.3044 H   0  0  0  0  0  0  0  0  0  0  0  0  # atno 8009 bound_to 7997
  154.4964  140.2112  155.9451 H   0  0  0  0  0  0  0  0  0  0  0  0  # atno 8010 bound_to 7997
  140.2975  144.2973  150.6226 H   0  0  0  0  0  0  0  0  0  0  0  0  # atno 10167 bound_to 10162
  157.6196  131.1018  150.7391 H   0  0  0  0  0  0  0  0  0  0  0  0  # atno 10718 bound_to 10713
  154.2056  135.2788  155.2976 H   0  0  0  0  0  0  0  0  0  0  0  0  # atno 10763 bound_to 10752
  154.5820  135.5586  153.7197 H   0  0  0  0  0  0  0  0  0  0  0  0  # atno 10764 bound_to 10752
  153.0077  135.6347  154.2194 H   0  0  0  0  0  0  0  0  0  0  0  0  # atno 10765 bound_to 10752
  140.5437  134.0349  155.7913 H   0  0  0  0  0  0  0  0  0  0  0  0  # atno 11005 bound_to 11000
  146.3053  140.3862  142.8689 LP  0  0  0  0  0  0  0  0  0  0  0  0  # atno 17320 bound_to 7965
  144.8880  140.7487  143.5944 LP  0  0  0  0  0  0  0  0  0  0  0  0  # atno 17321 bound_to 7965
  140.5679  143.2184  151.7651 LP  0  0  0  0  0  0  0  0  0  0  0  0  # atno 17342 bound_to 10162
  139.4923  144.4258  151.9928 LP  0  0  0  0  0  0  0  0  0  0  0  0  # atno 17343 bound_to 10162
  156.7751  130.4841  149.5411 LP  0  0  0  0  0  0  0  0  0  0  0  0  # atno 17370 bound_to 10713
  156.1334  130.6194  151.0366 LP  0  0  0  0  0  0  0  0  0  0  0  0  # atno 17371 bound_to 10713
  141.1212  133.9458  157.2726 LP  0  0  0  0  0  0  0  0  0  0  0  0  # atno 17394 bound_to 11000
  139.9490  135.0179  156.8939 LP  0  0  0  0  0  0  0  0  0  0  0  0  # atno 17395 bound_to 11000

$$$$
