AV-unprocessed.smi:1033|AV-procd|sdf|4497|dock3
  -GOLD-   22720 2483D 1   1.00000     0.00000
 Structure written by MMmdl.
 56 58  0  0  0  0  0  0  0  0  2 V2000
  153.8262  141.8342  162.3772 C   0  0  0  0  0  0  0  0  0  0  0  0
  153.1818  141.6983  161.0088 C   0  0  0  0  0  0  0  0  0  0  0  0
  153.4641  140.5555  160.2263 C   0  0  0  0  0  0  0  0  0  0  0  0
  152.8838  140.3906  158.9494 C   0  0  0  0  0  0  0  0  0  0  0  0
  153.0164  139.3681  158.0252 N   0  0  0  0  0  0  0  0  0  0  0  0
  152.2298  139.7930  157.0401 C   0  0  0  0  0  0  0  0  0  0  0  0
  151.6030  140.9720  157.2175 N   0  0  0  0  0  0  0  0  0  0  0  0
  150.7023  141.6411  156.2972 C   0  0  0  0  0  0  0  0  0  0  0  0
  149.2271  141.5049  156.7246 C   0  0  1  0  0  0  0  0  0  0  0  0
  148.4347  142.3704  155.9370 O   0  0  0  0  0  0  0  0  0  0  0  0
  148.6811  140.0733  156.5549 C   0  0  0  0  0  0  0  0  0  0  0  0
  148.4910  139.6317  155.1678 N   0  0  0  0  0  0  0  0  0  0  0  0
  149.7266  139.3009  154.4519 C   0  0  0  0  0  0  0  0  0  0  0  0
  150.3892  137.9993  154.9457 C   0  0  0  0  0  0  0  0  0  0  0  0
  149.4331  136.8654  154.8341 N   0  3  0  0  0  0  0  0  0  0  0  0
  150.0103  135.5534  155.2226 C   0  0  0  0  0  0  0  0  0  0  0  0
  149.5768  134.4132  154.2798 C   0  0  1  0  0  0  0  0  0  0  0  0
  149.6234  133.0436  154.9691 C   0  0  0  0  0  0  0  0  0  0  0  0
  148.2500  134.6428  153.8496 O   0  0  0  0  0  0  0  0  0  0  0  0
  148.1735  137.1720  155.5598 C   0  0  0  0  0  0  0  0  0  0  0  0
  147.5717  138.4998  155.0543 C   0  0  0  0  0  0  0  0  0  0  0  0
  152.0057  141.4079  158.4744 C   0  0  0  0  0  0  0  0  0  0  0  0
  151.7167  142.5491  159.2429 C   0  0  0  0  0  0  0  0  0  0  0  0
  152.3064  142.6990  160.5155 C   0  0  0  0  0  0  0  0  0  0  0  0
  151.9888  143.9355  161.3376 C   0  0  0  0  0  0  0  0  0  0  0  0
  154.4490  140.9705  162.6119 H   0  0  0  0  0  0  0  0  0  0  0  0
  153.0641  141.9164  163.1525 H   0  0  0  0  0  0  0  0  0  0  0  0
  154.4577  142.7220  162.4157 H   0  0  0  0  0  0  0  0  0  0  0  0
  154.1308  139.7932  160.6014 H   0  0  0  0  0  0  0  0  0  0  0  0
  152.1032  139.2152  156.1360 H   0  0  0  0  0  0  0  0  0  0  0  0
  150.9884  142.6911  156.2201 H   0  0  0  0  0  0  0  0  0  0  0  0
  150.8548  141.2050  155.3093 H   0  0  0  0  0  0  0  0  0  0  0  0
  149.1099  141.8302  157.7578 H   0  0  0  0  0  0  0  0  0  0  0  0
  148.6677  143.2631  156.1417 H   0  0  0  0  0  0  0  0  0  0  0  0
  149.3383  139.3805  157.0802 H   0  0  0  0  0  0  0  0  0  0  0  0
  147.7234  140.0178  157.0742 H   0  0  0  0  0  0  0  0  0  0  0  0
  149.4973  139.1910  153.3911 H   0  0  0  0  0  0  0  0  0  0  0  0
  150.4362  140.1253  154.5042 H   0  0  0  0  0  0  0  0  0  0  0  0
  151.2752  137.8072  154.3420 H   0  0  0  0  0  0  0  0  0  0  0  0
  150.7312  138.1028  155.9761 H   0  0  0  0  0  0  0  0  0  0  0  0
  151.0981  135.6344  155.2528 H   0  0  0  0  0  0  0  0  0  0  0  0
  149.6962  135.3015  156.2371 H   0  0  0  0  0  0  0  0  0  0  0  0
  150.2200  134.3751  153.4013 H   0  0  0  0  0  0  0  0  0  0  0  0
  150.6338  132.8087  155.3050 H   0  0  0  0  0  0  0  0  0  0  0  0
  149.3114  132.2504  154.2887 H   0  0  0  0  0  0  0  0  0  0  0  0
  148.9677  133.0117  155.8402 H   0  0  0  0  0  0  0  0  0  0  0  0
  148.2203  135.4615  153.3779 H   0  0  0  0  0  0  0  0  0  0  0  0
  147.4537  136.3692  155.3968 H   0  0  0  0  0  0  0  0  0  0  0  0
  148.3621  137.2106  156.6336 H   0  0  0  0  0  0  0  0  0  0  0  0
  146.6471  138.7168  155.5907 H   0  0  0  0  0  0  0  0  0  0  0  0
  147.2852  138.3801  154.0085 H   0  0  0  0  0  0  0  0  0  0  0  0
  151.0460  143.3015  158.8553 H   0  0  0  0  0  0  0  0  0  0  0  0
  151.3281  144.6143  160.7977 H   0  0  0  0  0  0  0  0  0  0  0  0
  152.9019  144.4804  161.5782 H   0  0  0  0  0  0  0  0  0  0  0  0
  151.4948  143.6576  162.2690 H   0  0  0  0  0  0  0  0  0  0  0  0
  149.1821  136.7868  153.8586 H   0  0  0  0  0  0  0  0  0  0  0  0
  1  2  1  0  0  0  0
  1 26  1  0  0  0  0
  1 27  1  0  0  0  0
  1 28  1  0  0  0  0
  2 24  1  0  0  0  0
  2  3  2  0  0  0  0
  3  4  1  0  0  0  0
  3 29  1  0  0  0  0
  4 22  2  0  0  0  0
  4  5  1  0  0  0  0
  5  6  2  0  0  0  0
  6  7  1  0  0  0  0
  6 30  1  0  0  0  0
  7  8  1  0  0  0  0
  7 22  1  0  0  0  0
  8  9  1  0  0  0  0
  8 31  1  0  0  0  0
  8 32  1  0  0  0  0
  9 10  1  0  0  0  0
  9 11  1  0  0  0  0
  9 33  1  0  0  0  0
 10 34  1  0  0  0  0
 11 12  1  0  0  0  0
 11 35  1  0  0  0  0
 11 36  1  0  0  0  0
 12 21  1  0  0  0  0
 12 13  1  0  0  0  0
 13 14  1  0  0  0  0
 13 37  1  0  0  0  0
 13 38  1  0  0  0  0
 14 15  1  0  0  0  0
 14 39  1  0  0  0  0
 14 40  1  0  0  0  0
 15 16  1  0  0  0  0
 15 20  1  0  0  0  0
 15 56  1  0  0  0  0
 16 17  1  0  0  0  0
 16 41  1  0  0  0  0
 16 42  1  0  0  0  0
 17 18  1  0  0  0  0
 17 19  1  0  0  0  0
 17 43  1  0  0  0  0
 18 44  1  0  0  0  0
 18 45  1  0  0  0  0
 18 46  1  0  0  0  0
 19 47  1  0  0  0  0
 20 21  1  0  0  0  0
 20 48  1  0  0  0  0
 20 49  1  0  0  0  0
 21 50  1  0  0  0  0
 21 51  1  0  0  0  0
 22 23  1  0  0  0  0
 23 24  2  0  0  0  0
 23 52  1  0  0  0  0
 24 25  1  0  0  0  0
 25 53  1  0  0  0  0
 25 54  1  0  0  0  0
 25 55  1  0  0  0  0
M  CHG  1  15   1
M  END
> <s_m_source_file>
AV-unprocessed.smi

> <i_m_source_file_index>
1033

> <i_lp_mmshare_version>
43012

> <i_f3d_flags>
0

> <s_epik_input>
W0NIM11jKFtjSF0xKWMoW0NIM10pW2NIXWMoYzEyKW4oW2NIXW4yKVtDSDJdW0NASF0oW09IXSlbQ0gyXU4zW0NIMl1bQ0gyXU4oW0NIMl1bQ0gyXTMpW0NIMl1bQ0BIXShbQ0gzXSlbT0hd

> <s_epik_cmdline>
J2VwaWtfcHl0aG9uJywgJy1waCcsICc3LjAnLCAnLXRuJywgJzgnLCAnLW1hJywgJzIwMCcsICctbWV0YWxfYmluZGluZycsICctaW1hZScsICc8aW5maWxlLm1hZT4nLCAnLW9tYWUnLCAnPG91dGZpbGUubWFlPic=

> <r_epik_Ionization_Penalty>
0.129152

> <r_epik_Ionization_Penalty_Charging>
0.00083231

> <r_epik_Ionization_Penalty_Neutral>
0.128319

> <r_epik_State_Penalty>
0.556973

> <r_epik_Charging_Adjusted_Penalty>
0.557805

> <i_epik_Tot_Q>
1

> <i_epik_Tot_abs_Q>
1

> <r_epik_Metal_State_Penalty>
0.490047

> <b_epik_Metal_Only>
0

> <s_lp_Force_Field>
OPLS_2005

> <r_lp_Energy>
33.0878

> <b_lp_Chiralities_Consistent>
1

> <s_lp_Variant>
AV-unprocessed.smi:1033-8

> <Gold.Version>
5.8.1

> <Gold.Id.Protein>
6NUR|6NUR_protein|mol2

> <Gold.PLP.Fitness>
59.7124

> <Gold.PLP.PLP>
-46.9654

> <Gold.PLP.part.hbond>
-4.0000

> <Gold.PLP.part.metal>
0.0000

> <Gold.PLP.part.buried>
-5.9406

> <Gold.PLP.part.nonpolar>
-36.7356

> <Gold.PLP.part.repulsive>
0.1161

> <Gold.PLP.ligand.clash>
0.0000

> <Gold.PLP.ligand.torsion>
1.2598

> <Gold.PLP.Chemscore.Hbond>
5.0000

> <Gold.PLP.Chemscore.CHOScore>
0.0000

> <Gold.PLP.Chemscore.Metal>
0.0000

> <Gold.Chemscore.Hbonds>
donor molecule, donor type, donor heavy atom, donor atom, acceptor molecule, acceptor atom, score
      L1  H    10    34       P1  8028  0.98
      L1  H    15    56       P1  7948  1.82
      L1  H    19    47       P1  7948  0.75
      P1  H  7997  8009       L1     5  0.48

> <Gold.PLP.Chemscore.Internal.Correction>
0.2665

> <Gold.Rescore>
     Score         DG    S(hbond)    S(metal)    S(lipo)     H(rot)  DE(clash)    DE(int)     intcor
     21.56     -22.96       3.35        0.00     120.75       3.07       0.01       1.39       ----

> <Gold.Chemscore.Fitness>
21.5604

> <Gold.Chemscore.DG>
-22.9610

> <Gold.Chemscore.ZeroCoef>
-5.4800

> <Gold.Chemscore.Hbond>
3.3532

> <Gold.Chemscore.Metal>
0.0000

> <Gold.Chemscore.Lipo>
120.7493

> <Gold.Chemscore.Internal_Hbond>
0.0000

> <Gold.Chemscore.DEClash>
0.0076

> <Gold.Chemscore.DEInternal>
1.3931

> <Gold.Chemscore.Rot>
3.0650

> <Gold.Chemscore.Internal.Correction>
   9.000000E+99

> <Gold.Chemscore.Hbonds>
donor molecule, donor type, donor heavy atom, donor atom, acceptor molecule, acceptor atom, score
      L1  H    10    34       P1  8028  0.85
      L1  H    15    56       P1  7948  0.86
      L1  H    19    47       P1  7948  0.76

> <Gold.Chemscore.Hbond.Weighted>
-11.1998

> <Gold.Chemscore.Metal.Weighted>
-0.0000

> <Gold.Chemscore.Lipo.Weighted>
-14.1277

> <Gold.Chemscore.Internal_Hbond.Weighted>
0.0000

> <Gold.Chemscore.DEClash.Weighted>
0.0076

> <Gold.Chemscore.DEInternal.Weighted>
1.3931

> <Gold.Chemscore.Rot.Weighted>
7.8465

> <Gold.Chemscore.Internal.Correction.Weighted>
   9.000000E+99

> <Gold.Protein.RotatedTorsions>
[ 6907 6896 6895 6894 ] final -142.58 input  -60.11 | X-H torsion
[ 7974 7965 7964 7962 ] final -161.93 input  175.53 | X-H torsion
[ 8008 7997 7996 7995 ] final  153.36 input   59.86 | X-H torsion
[ 10167 10162 10161 10158 ] final  138.07 input  -65.29 | X-H torsion
[ 10718 10713 10712 10709 ] final -116.14 input   66.30 | X-H torsion
[ 10763 10752 10751 10750 ] final   64.46 input  -60.55 | X-H torsion
[ 11005 11000 10999 10996 ] final    9.96 input  -57.11 | X-H torsion

> <Gold.Protein.ActiveResidues>
 VAL166  LYS551  ARG553  GLY616  TRP617  ASP618  TYR619  PRO620  LYS621  CYS622 
 ASP623  PHE694  ASN695  SER759  ASP760  ASP761  ALA762  ILE779  LEU786  VAL792 
 PHE793  MET794  SER795  GLU796  ALA797  LYS798  CYS799  TRP800  GLU811  SER814 

> <Gold.Protein.RotatedAtoms>
  151.0890  133.5331  159.2615 H   0  0  0  0  0  0  0  0  0  0  0  0  # atno 6907 bound_to 6896
  151.2205  135.0516  159.8958 H   0  0  0  0  0  0  0  0  0  0  0  0  # atno 6908 bound_to 6896
  152.5432  134.0693  159.8240 H   0  0  0  0  0  0  0  0  0  0  0  0  # atno 6909 bound_to 6896
  144.7374  140.3326  143.6150 H   0  0  0  0  0  0  0  0  0  0  0  0  # atno 7974 bound_to 7965
  156.2585  140.1995  156.6478 H   0  0  0  0  0  0  0  0  0  0  0  0  # atno 8008 bound_to 7997
  154.6559  140.0566  157.0033 H   0  0  0  0  0  0  0  0  0  0  0  0  # atno 8009 bound_to 7997
  155.1348  140.3237  155.4468 H   0  0  0  0  0  0  0  0  0  0  0  0  # atno 8010 bound_to 7997
  139.5123  144.6374  151.5660 H   0  0  0  0  0  0  0  0  0  0  0  0  # atno 10167 bound_to 10162
  156.0943  130.6119  150.8997 H   0  0  0  0  0  0  0  0  0  0  0  0  # atno 10718 bound_to 10713
  153.0057  135.5392  154.6514 H   0  0  0  0  0  0  0  0  0  0  0  0  # atno 10763 bound_to 10752
  154.5745  135.2844  155.0797 H   0  0  0  0  0  0  0  0  0  0  0  0  # atno 10764 bound_to 10752
  154.1950  135.6494  153.5123 H   0  0  0  0  0  0  0  0  0  0  0  0  # atno 10765 bound_to 10752
  140.5199  134.0570  155.7841 H   0  0  0  0  0  0  0  0  0  0  0  0  # atno 11005 bound_to 11000
  145.7456  139.1777  143.2351 LP  0  0  0  0  0  0  0  0  0  0  0  0  # atno 17320 bound_to 7965
  146.1100  140.7439  142.9507 LP  0  0  0  0  0  0  0  0  0  0  0  0  # atno 17321 bound_to 7965
  140.6128  143.9404  150.6466 LP  0  0  0  0  0  0  0  0  0  0  0  0  # atno 17342 bound_to 10162
  140.2653  143.3495  152.1287 LP  0  0  0  0  0  0  0  0  0  0  0  0  # atno 17343 bound_to 10162
  157.6100  131.0937  150.8811 LP  0  0  0  0  0  0  0  0  0  0  0  0  # atno 17370 bound_to 10713
  156.8952  130.5227  149.5284 LP  0  0  0  0  0  0  0  0  0  0  0  0  # atno 17371 bound_to 10713
  141.1340  133.9253  157.2474 LP  0  0  0  0  0  0  0  0  0  0  0  0  # atno 17394 bound_to 11000
  139.9612  135.0154  156.9265 LP  0  0  0  0  0  0  0  0  0  0  0  0  # atno 17395 bound_to 11000

$$$$
