AV-unprocessed.smi:1833|AV-procd|sdf|7465|dock5
  -GOLD-   22720 9153D 1   1.00000     0.00000
 Structure written by MMmdl.
 42 43  0  0  0  0  0  0  0  0  2 V2000
  145.4958  132.8434  151.0891 C   0  0  0  0  0  0  0  0  0  0  0  0
  144.2864  133.3957  150.3206 C   0  0  0  0  0  0  0  0  0  0  0  0
  143.5106  134.3846  151.1110 N   0  3  1  0  0  0  0  0  0  0  0  0
  142.8311  133.7607  152.2765 C   0  0  0  0  0  0  0  0  0  0  0  0
  141.9233  134.7702  152.9990 C   0  0  0  0  0  0  0  0  0  0  0  0
  142.7126  136.0132  153.4293 C   0  0  0  0  0  0  0  0  0  0  0  0
  143.4305  136.6235  152.2153 C   0  0  1  0  0  0  0  0  0  0  0  0
  144.2483  137.7598  152.6313 N   0  0  0  0  0  0  0  0  0  0  0  0
  145.2468  137.7161  153.5250 C   0  0  0  0  0  0  0  0  0  0  0  0
  145.6033  136.6969  154.1160 O   0  0  0  0  0  0  0  0  0  0  0  0
  145.8097  138.9197  153.6994 N   0  0  0  0  0  0  0  0  0  0  0  0
  146.9067  139.2026  154.6176 C   0  0  0  0  0  0  0  0  0  0  0  0
  147.8708  140.2550  154.0467 C   0  0  0  0  0  0  0  0  0  0  0  0
  149.2363  140.1541  154.6389 C   0  0  0  0  0  0  0  0  0  0  0  0
  149.7729  141.0970  155.4184 N   0  0  0  0  0  0  0  0  0  0  0  0
  151.0743  140.7833  155.8179 C   0  0  0  0  0  0  0  0  0  0  0  0
  151.5278  139.5894  155.3171 C   0  0  0  0  0  0  0  0  0  0  0  0
  150.3295  138.8112  154.3199 S   0  0  0  0  0  0  0  0  0  0  0  0
  144.3118  135.5699  151.5189 C   0  0  0  0  0  0  0  0  0  0  0  0
  146.0948  132.1985  150.4458 H   0  0  0  0  0  0  0  0  0  0  0  0
  145.1985  132.2482  151.9518 H   0  0  0  0  0  0  0  0  0  0  0  0
  146.1415  133.6488  151.4404 H   0  0  0  0  0  0  0  0  0  0  0  0
  144.6621  133.8763  149.4162 H   0  0  0  0  0  0  0  0  0  0  0  0
  143.6355  132.5846  149.9912 H   0  0  0  0  0  0  0  0  0  0  0  0
  142.2283  132.9148  151.9438 H   0  0  0  0  0  0  0  0  0  0  0  0
  143.5785  133.3654  152.9663 H   0  0  0  0  0  0  0  0  0  0  0  0
  141.1066  135.0658  152.3388 H   0  0  0  0  0  0  0  0  0  0  0  0
  141.4625  134.3021  153.8693 H   0  0  0  0  0  0  0  0  0  0  0  0
  142.0412  136.7443  153.8815 H   0  0  0  0  0  0  0  0  0  0  0  0
  143.4388  135.7382  154.1958 H   0  0  0  0  0  0  0  0  0  0  0  0
  142.6737  136.9492  151.4986 H   0  0  0  0  0  0  0  0  0  0  0  0
  144.0399  138.6501  152.2027 H   0  0  0  0  0  0  0  0  0  0  0  0
  145.4504  139.6986  153.1670 H   0  0  0  0  0  0  0  0  0  0  0  0
  146.4775  139.5624  155.5531 H   0  0  0  0  0  0  0  0  0  0  0  0
  147.4423  138.2816  154.8555 H   0  0  0  0  0  0  0  0  0  0  0  0
  147.9532  140.1494  152.9640 H   0  0  0  0  0  0  0  0  0  0  0  0
  147.4858  141.2579  154.2337 H   0  0  0  0  0  0  0  0  0  0  0  0
  151.6075  141.4701  156.4585 H   0  0  0  0  0  0  0  0  0  0  0  0
  152.4901  139.1243  155.4714 H   0  0  0  0  0  0  0  0  0  0  0  0
  145.1202  135.2516  152.1795 H   0  0  0  0  0  0  0  0  0  0  0  0
  144.7787  136.0249  150.6457 H   0  0  0  0  0  0  0  0  0  0  0  0
  142.7760  134.7211  150.5049 H   0  0  0  0  0  0  0  0  0  0  0  0
  1  2  1  0  0  0  0
  1 20  1  0  0  0  0
  1 21  1  0  0  0  0
  1 22  1  0  0  0  0
  2  3  1  0  0  0  0
  2 23  1  0  0  0  0
  2 24  1  0  0  0  0
  3 19  1  0  0  0  0
  3  4  1  0  0  0  0
  3 42  1  0  0  0  0
  4  5  1  0  0  0  0
  4 25  1  0  0  0  0
  4 26  1  0  0  0  0
  5  6  1  0  0  0  0
  5 27  1  0  0  0  0
  5 28  1  0  0  0  0
  6  7  1  0  0  0  0
  6 29  1  0  0  0  0
  6 30  1  0  0  0  0
  7  8  1  0  0  0  0
  7 19  1  0  0  0  0
  7 31  1  0  0  0  0
  8  9  1  0  0  0  0
  8 32  1  0  0  0  0
  9 10  2  0  0  0  0
  9 11  1  0  0  0  0
 11 12  1  0  0  0  0
 11 33  1  0  0  0  0
 12 13  1  0  0  0  0
 12 34  1  0  0  0  0
 12 35  1  0  0  0  0
 13 14  1  0  0  0  0
 13 36  1  0  0  0  0
 13 37  1  0  0  0  0
 14 18  1  0  0  0  0
 14 15  2  0  0  0  0
 15 16  1  0  0  0  0
 16 17  2  0  0  0  0
 16 38  1  0  0  0  0
 17 18  1  0  0  0  0
 17 39  1  0  0  0  0
 19 40  1  0  0  0  0
 19 41  1  0  0  0  0
M  CHG  1   3   1
M  END
> <s_m_source_file>
AV-unprocessed.smi

> <i_m_source_file_index>
1833

> <i_lp_mmshare_version>
43012

> <i_f3d_flags>
0

> <s_epik_input>
W0NIM11bQ0gyXU4xW0NIMl1bQ0gyXVtDSDJdW0NASF0oW0NIMl0xKVtOSF1DKD1PKVtOSF1bQ0gyXVtDSDJdYzJuW2NIXVtjSF1zMg==

> <s_epik_cmdline>
J2VwaWtfcHl0aG9uJywgJy1waCcsICc3LjAnLCAnLXRuJywgJzgnLCAnLW1hJywgJzIwMCcsICctbWV0YWxfYmluZGluZycsICctaW1hZScsICc8aW5maWxlLm1hZT4nLCAnLW9tYWUnLCAnPG91dGZpbGUubWFlPic=

> <r_lp_tautomer_probability>
1

> <r_epik_Ionization_Penalty>
0.00269629

> <r_epik_Ionization_Penalty_Charging>
0.00233899

> <r_epik_Ionization_Penalty_Neutral>
0.000357304

> <r_epik_State_Penalty>
-0

> <r_epik_Charging_Adjusted_Penalty>
0.00233899

> <i_epik_Tot_Q>
1

> <i_epik_Tot_abs_Q>
1

> <r_epik_Metal_State_Penalty>
-0

> <b_epik_Metal_Only>
0

> <s_lp_Force_Field>
OPLS_2005

> <r_lp_Energy>
7.28856

> <b_lp_Chiralities_Consistent>
1

> <s_lp_Variant>
AV-unprocessed.smi:1833-1

> <Gold.Version>
5.8.1

> <Gold.Id.Protein>
6NUR|6NUR_protein|mol2

> <Gold.PLP.Fitness>
43.9084

> <Gold.PLP.PLP>
-33.4059

> <Gold.PLP.part.hbond>
-4.0000

> <Gold.PLP.part.metal>
0.0000

> <Gold.PLP.part.buried>
-3.6910

> <Gold.PLP.part.nonpolar>
-26.7149

> <Gold.PLP.part.repulsive>
0.1886

> <Gold.PLP.ligand.clash>
0.0000

> <Gold.PLP.ligand.torsion>
0.3799

> <Gold.PLP.Chemscore.Hbond>
3.7369

> <Gold.PLP.Chemscore.CHOScore>
0.0000

> <Gold.PLP.Chemscore.Metal>
0.0000

> <Gold.Chemscore.Hbonds>
donor molecule, donor type, donor heavy atom, donor atom, acceptor molecule, acceptor atom, score
      L1  H     3    42       P1 10186  2.00
      L1  H     8    32       P1 10175  0.96
      L1  H    11    33       P1 10175  0.77

> <Gold.PLP.Chemscore.Internal.Correction>
0.0516

> <Gold.Rescore>
     Score         DG    S(hbond)    S(metal)    S(lipo)     H(rot)  DE(clash)    DE(int)     intcor
     17.41     -18.88       2.47        0.00      81.63       1.71       0.21       1.26       ----

> <Gold.Chemscore.Fitness>
17.4084

> <Gold.Chemscore.DG>
-18.8814

> <Gold.Chemscore.ZeroCoef>
-5.4800

> <Gold.Chemscore.Hbond>
2.4671

> <Gold.Chemscore.Metal>
0.0000

> <Gold.Chemscore.Lipo>
81.6308

> <Gold.Chemscore.Internal_Hbond>
0.0000

> <Gold.Chemscore.DEClash>
0.2143

> <Gold.Chemscore.DEInternal>
1.2588

> <Gold.Chemscore.Rot>
1.7147

> <Gold.Chemscore.Internal.Correction>
   9.000000E+99

> <Gold.Chemscore.Hbonds>
donor molecule, donor type, donor heavy atom, donor atom, acceptor molecule, acceptor atom, score
      L1  H     3    42       P1 10186  0.23
      L1  H     8    32       P1 10175  0.92
      L1  H    11    33       P1 10175  0.73

> <Gold.Chemscore.Hbond.Weighted>
-8.2403

> <Gold.Chemscore.Metal.Weighted>
-0.0000

> <Gold.Chemscore.Lipo.Weighted>
-9.5508

> <Gold.Chemscore.Internal_Hbond.Weighted>
0.0000

> <Gold.Chemscore.DEClash.Weighted>
0.2143

> <Gold.Chemscore.DEInternal.Weighted>
1.2588

> <Gold.Chemscore.Rot.Weighted>
4.3896

> <Gold.Chemscore.Internal.Correction.Weighted>
   9.000000E+99

> <Gold.Protein.RotatedTorsions>
[ 6907 6896 6895 6894 ] final  105.78 input  -60.11 | X-H torsion
[ 7974 7965 7964 7962 ] final -128.62 input  175.53 | X-H torsion
[ 8008 7997 7996 7995 ] final   49.43 input   59.86 | X-H torsion
[ 10167 10162 10161 10158 ] final  113.76 input  -65.29 | X-H torsion
[ 10718 10713 10712 10709 ] final -137.64 input   66.30 | X-H torsion
[ 10763 10752 10751 10750 ] final  -72.95 input  -60.55 | X-H torsion
[ 11005 11000 10999 10996 ] final -109.38 input  -57.11 | X-H torsion

> <Gold.Protein.ActiveResidues>
 VAL166  LYS551  ARG553  GLY616  TRP617  ASP618  TYR619  PRO620  LYS621  CYS622 
 ASP623  PHE694  ASN695  SER759  ASP760  ASP761  ALA762  ILE779  LEU786  VAL792 
 PHE793  MET794  SER795  GLU796  ALA797  LYS798  CYS799  TRP800  GLU811  SER814 

> <Gold.Protein.RotatedAtoms>
  152.5218  133.9478  159.7657 H   0  0  0  0  0  0  0  0  0  0  0  0  # atno 6907 bound_to 6896
  150.9794  133.6252  159.2732 H   0  0  0  0  0  0  0  0  0  0  0  0  # atno 6908 bound_to 6896
  151.3435  135.0874  159.9432 H   0  0  0  0  0  0  0  0  0  0  0  0  # atno 6909 bound_to 6896
  144.9653  140.7489  143.4704 H   0  0  0  0  0  0  0  0  0  0  0  0  # atno 7974 bound_to 7965
  155.4021  140.3438  155.4257 H   0  0  0  0  0  0  0  0  0  0  0  0  # atno 8008 bound_to 7997
  156.1498  140.1567  156.8821 H   0  0  0  0  0  0  0  0  0  0  0  0  # atno 8009 bound_to 7997
  154.5042  140.0806  156.7841 H   0  0  0  0  0  0  0  0  0  0  0  0  # atno 8010 bound_to 7997
  139.6438  144.7125  151.2184 H   0  0  0  0  0  0  0  0  0  0  0  0  # atno 10167 bound_to 10162
  156.2903  130.7371  151.1395 H   0  0  0  0  0  0  0  0  0  0  0  0  # atno 10718 bound_to 10713
  154.4528  135.5913  153.6203 H   0  0  0  0  0  0  0  0  0  0  0  0  # atno 10763 bound_to 10752
  152.9815  135.6025  154.3583 H   0  0  0  0  0  0  0  0  0  0  0  0  # atno 10764 bound_to 10752
  154.3446  135.2841  155.2383 H   0  0  0  0  0  0  0  0  0  0  0  0  # atno 10765 bound_to 10752
  141.0851  133.9153  157.2204 H   0  0  0  0  0  0  0  0  0  0  0  0  # atno 11005 bound_to 11000
  145.2639  139.1981  143.4877 LP  0  0  0  0  0  0  0  0  0  0  0  0  # atno 17320 bound_to 7965
  146.3366  140.2574  142.8600 LP  0  0  0  0  0  0  0  0  0  0  0  0  # atno 17321 bound_to 7965
  140.7504  143.6267  150.8462 LP  0  0  0  0  0  0  0  0  0  0  0  0  # atno 17342 bound_to 10162
  139.9907  143.5850  152.2911 LP  0  0  0  0  0  0  0  0  0  0  0  0  # atno 17343 bound_to 10162
  157.7340  131.0585  150.5545 LP  0  0  0  0  0  0  0  0  0  0  0  0  # atno 17370 bound_to 10713
  156.5660  130.4267  149.6041 LP  0  0  0  0  0  0  0  0  0  0  0  0  # atno 17371 bound_to 10713
  139.9668  135.0139  156.9408 LP  0  0  0  0  0  0  0  0  0  0  0  0  # atno 17394 bound_to 11000
  140.5382  134.0746  155.7334 LP  0  0  0  0  0  0  0  0  0  0  0  0  # atno 17395 bound_to 11000

$$$$
