AV-unprocessed.smi:265|AV-procd|sdf|2026|dock4
  -GOLD-   2262021233D 1   1.00000     0.00000
 Structure written by MMmdl.
 52 56  0  0  0  0  0  0  0  0  1 V2000
  151.0873  141.2177  156.9365 C   0  0  0  0  0  0  0  0  0  0  0  0
  151.6399  140.2704  155.8611 C   0  0  1  0  0  0  0  0  0  0  0  0
  152.5472  139.3317  156.4329 O   0  0  0  0  0  0  0  0  0  0  0  0
  152.4616  138.0850  155.7482 C   0  0  0  0  0  0  0  0  0  0  0  0
  151.5265  138.3249  154.5666 C   0  0  0  0  0  0  0  0  0  0  0  0
  150.6108  139.4272  155.0843 C   0  0  2  0  0  0  0  0  0  0  0  0
  150.1085  140.1573  153.9812 O   0  0  0  0  0  0  0  0  0  0  0  0
  149.4314  138.9108  155.9540 C   0  0  0  0  0  0  0  0  0  0  0  0
  148.7030  137.7980  155.3660 N   0  0  0  0  0  0  0  0  0  0  0  0
  148.8759  136.4608  155.6434 C   0  0  0  0  0  0  0  0  0  0  0  0
  148.0965  135.6496  154.9820 N   0  0  0  0  0  0  0  0  0  0  0  0
  147.3121  136.4920  154.2026 C   0  0  0  0  0  0  0  0  0  0  0  0
  146.2680  136.2814  153.2580 C   0  0  0  0  0  0  0  0  0  0  0  0
  145.8029  135.0455  152.9435 N   0  0  0  0  0  0  0  0  0  0  0  0
  146.6825  133.9036  153.1928 C   0  0  0  0  0  0  0  0  0  0  0  0
  145.8868  132.5895  153.1717 C   0  0  0  0  0  0  0  0  0  0  0  0
  145.0690  132.4360  151.8790 C   0  0  2  0  0  0  0  0  0  0  0  0
  145.9354  132.2496  150.7672 O   0  0  0  0  0  0  0  0  0  0  0  0
  145.2552  131.9192  149.5552 C   0  0  0  0  0  0  0  0  0  0  0  0
  144.0754  132.8668  149.2677 C   0  0  0  0  0  0  0  0  0  0  0  0
  143.5780  132.9030  148.1448 O   0  0  0  0  0  0  0  0  0  0  0  0
  143.5946  133.6041  150.2816 N   0  0  0  0  0  0  0  0  0  0  0  0
  144.2149  133.6917  151.5994 C   0  0  2  0  0  0  0  0  0  0  0  0
  145.0571  134.9806  151.6881 C   0  0  0  0  0  0  0  0  0  0  0  0
  145.7304  137.3816  152.6654 N   0  0  0  0  0  0  0  0  0  0  0  0
  146.1722  138.6026  152.9807 C   0  0  0  0  0  0  0  0  0  0  0  0
  147.1289  138.9463  153.8447 N   0  0  0  0  0  0  0  0  0  0  0  0
  147.6815  137.8474  154.4334 C   0  0  0  0  0  0  0  0  0  0  0  0
  144.4285  131.5572  151.9763 H   0  0  0  0  0  0  0  0  0  0  0  0
  143.4177  133.7461  152.3416 H   0  0  0  0  0  0  0  0  0  0  0  0
  150.3651  141.9149  156.5112 H   0  0  0  0  0  0  0  0  0  0  0  0
  151.8910  141.8043  157.3817 H   0  0  0  0  0  0  0  0  0  0  0  0
  150.5982  140.6725  157.7437 H   0  0  0  0  0  0  0  0  0  0  0  0
  152.2222  140.8584  155.1485 H   0  0  0  0  0  0  0  0  0  0  0  0
  153.4452  137.7364  155.4331 H   0  0  0  0  0  0  0  0  0  0  0  0
  152.0408  137.3421  156.4265 H   0  0  0  0  0  0  0  0  0  0  0  0
  152.1151  138.6901  153.7229 H   0  0  0  0  0  0  0  0  0  0  0  0
  151.0152  137.4232  154.2326 H   0  0  0  0  0  0  0  0  0  0  0  0
  149.9015  139.5496  153.2876 H   0  0  0  0  0  0  0  0  0  0  0  0
  149.7920  138.5954  156.9337 H   0  0  0  0  0  0  0  0  0  0  0  0
  148.7166  139.7132  156.1396 H   0  0  0  0  0  0  0  0  0  0  0  0
  149.6105  136.1028  156.3502 H   0  0  0  0  0  0  0  0  0  0  0  0
  147.4648  133.8782  152.4327 H   0  0  0  0  0  0  0  0  0  0  0  0
  147.1756  134.0108  154.1599 H   0  0  0  0  0  0  0  0  0  0  0  0
  146.5598  131.7405  153.2945 H   0  0  0  0  0  0  0  0  0  0  0  0
  145.2094  132.5713  154.0264 H   0  0  0  0  0  0  0  0  0  0  0  0
  145.9650  131.9539  148.7286 H   0  0  0  0  0  0  0  0  0  0  0  0
  144.8803  130.8969  149.6169 H   0  0  0  0  0  0  0  0  0  0  0  0
  142.7975  134.1980  150.1047 H   0  0  0  0  0  0  0  0  0  0  0  0
  144.4058  135.8455  151.5653 H   0  0  0  0  0  0  0  0  0  0  0  0
  145.7734  135.0164  150.8659 H   0  0  0  0  0  0  0  0  0  0  0  0
  145.6903  139.4213  152.4669 H   0  0  0  0  0  0  0  0  0  0  0  0
  1  2  1  0  0  0  0
  1 31  1  0  0  0  0
  1 32  1  0  0  0  0
  1 33  1  0  0  0  0
  2  6  1  0  0  0  0
  2  3  1  0  0  0  0
  2 34  1  0  0  0  0
  3  4  1  0  0  0  0
  4  5  1  0  0  0  0
  4 35  1  0  0  0  0
  4 36  1  0  0  0  0
  5  6  1  0  0  0  0
  5 37  1  0  0  0  0
  5 38  1  0  0  0  0
  6  7  1  0  0  0  0
  6  8  1  0  0  0  0
  7 39  1  0  0  0  0
  8  9  1  0  0  0  0
  8 40  1  0  0  0  0
  8 41  1  0  0  0  0
  9 28  1  0  0  0  0
  9 10  1  0  0  0  0
 10 11  2  0  0  0  0
 10 42  1  0  0  0  0
 11 12  1  0  0  0  0
 12 28  2  0  0  0  0
 12 13  1  0  0  0  0
 13 14  1  0  0  0  0
 13 25  2  0  0  0  0
 14 24  1  0  0  0  0
 14 15  1  0  0  0  0
 15 16  1  0  0  0  0
 15 43  1  0  0  0  0
 15 44  1  0  0  0  0
 16 17  1  0  0  0  0
 16 45  1  0  0  0  0
 16 46  1  0  0  0  0
 17 29  1  0  0  0  0
 17 23  1  0  0  0  0
 17 18  1  0  0  0  0
 18 19  1  0  0  0  0
 19 20  1  0  0  0  0
 19 47  1  0  0  0  0
 19 48  1  0  0  0  0
 20 21  2  0  0  0  0
 20 22  1  0  0  0  0
 22 23  1  0  0  0  0
 22 49  1  0  0  0  0
 23 30  1  0  0  0  0
 23 24  1  0  0  0  0
 24 50  1  0  0  0  0
 24 51  1  0  0  0  0
 25 26  1  0  0  0  0
 26 27  2  0  0  0  0
 26 52  1  0  0  0  0
 27 28  1  0  0  0  0
M  END
> <s_m_source_file>
AV-unprocessed.smi

> <i_m_source_file_index>
265

> <i_lp_mmshare_version>
43012

> <i_f3d_flags>
0

> <s_epik_input>
W0NIMl0xW0NIMl1PW0NAQEhdKFtDSDNdKVtDQEBdMShbT0hdKVtDSDJdbihbY0hdbjIpYyhjMjMpbltjSF1uYzNOKFtDSDJdW0NIMl00KVtDSDJdW0NAQEhdKFtDQEhdNDUpW05IXUMoPU8pW0NIMl1PNQ==

> <s_epik_cmdline>
J2VwaWtfcHl0aG9uJywgJy1waCcsICc3LjAnLCAnLXRuJywgJzgnLCAnLW1hJywgJzIwMCcsICctbWV0YWxfYmluZGluZycsICctaW1hZScsICc8aW5maWxlLm1hZT4nLCAnLW9tYWUnLCAnPG91dGZpbGUubWFlPic=

> <r_lp_tautomer_probability>
1

> <r_epik_Ionization_Penalty>
0.00221504

> <r_epik_Ionization_Penalty_Charging>
0

> <r_epik_Ionization_Penalty_Neutral>
0.00221504

> <r_epik_State_Penalty>
-0

> <r_epik_Charging_Adjusted_Penalty>
0

> <i_epik_Tot_Q>
0

> <i_epik_Tot_abs_Q>
0

> <r_epik_Metal_State_Penalty>
-0

> <b_epik_Metal_Only>
0

> <s_lp_Force_Field>
OPLS_2005

> <r_lp_Energy>
44.4274

> <b_lp_Chiralities_Consistent>
1

> <s_lp_Variant>
AV-unprocessed.smi:265-12

> <Gold.Version>
5.8.1

> <Gold.Id.Protein>
6NUR|6NUR_protein|mol2

> <Gold.PLP.Fitness>
45.2864

> <Gold.PLP.PLP>
-34.7467

> <Gold.PLP.part.hbond>
-4.0606

> <Gold.PLP.part.metal>
0.0000

> <Gold.PLP.part.buried>
-3.6182

> <Gold.PLP.part.nonpolar>
-29.0656

> <Gold.PLP.part.repulsive>
1.0875

> <Gold.PLP.ligand.clash>
0.0000

> <Gold.PLP.ligand.torsion>
1.0602

> <Gold.PLP.Chemscore.Hbond>
3.0968

> <Gold.PLP.Chemscore.CHOScore>
1.0000

> <Gold.PLP.Chemscore.Metal>
0.0000

> <Gold.Chemscore.Hbonds>
donor molecule, donor type, donor heavy atom, donor atom, acceptor molecule, acceptor atom, score
      L1  H     7    39       P1  7957  0.31
      L1  H    22    49       P1 10186  1.00
      P1  H  7989  7998       L1     7  0.79
      P1  H  7997  8009       L1     3  1.00
      L1  C    26    52       P1 10175  1.00

> <Gold.PLP.Chemscore.Internal.Correction>
0.3697

> <Gold.Rescore>
     Score         DG    S(hbond)    S(metal)    S(lipo)     H(rot)  DE(clash)    DE(int)     intcor
     12.19     -15.92       2.21        0.00      75.17       2.25       1.42       2.31       ----

> <Gold.Chemscore.Fitness>
12.1888

> <Gold.Chemscore.DG>
-15.9191

> <Gold.Chemscore.ZeroCoef>
-5.4800

> <Gold.Chemscore.Hbond>
2.2132

> <Gold.Chemscore.Metal>
0.0000

> <Gold.Chemscore.Lipo>
75.1713

> <Gold.Chemscore.Internal_Hbond>
0.0000

> <Gold.Chemscore.DEClash>
1.4188

> <Gold.Chemscore.DEInternal>
2.3115

> <Gold.Chemscore.Rot>
2.2453

> <Gold.Chemscore.Internal.Correction>
   9.000000E+99

> <Gold.Chemscore.Hbonds>
donor molecule, donor type, donor heavy atom, donor atom, acceptor molecule, acceptor atom, score
      L1  H     7    39       P1  7957  0.31
      L1  H    22    49       P1 10186  0.91
      P1  H  7989  7998       L1     7  0.07
      P1  H  7997  8009       L1     3  0.61

> <Gold.Chemscore.Hbond.Weighted>
-7.3920

> <Gold.Chemscore.Metal.Weighted>
-0.0000

> <Gold.Chemscore.Lipo.Weighted>
-8.7950

> <Gold.Chemscore.Internal_Hbond.Weighted>
0.0000

> <Gold.Chemscore.DEClash.Weighted>
1.4188

> <Gold.Chemscore.DEInternal.Weighted>
2.3115

> <Gold.Chemscore.Rot.Weighted>
5.7479

> <Gold.Chemscore.Internal.Correction.Weighted>
   9.000000E+99

> <Gold.Protein.RotatedTorsions>
[ 6907 6896 6895 6894 ] final  174.15 input  -60.11 | X-H torsion
[ 7974 7965 7964 7962 ] final  -47.00 input  175.53 | X-H torsion
[ 8008 7997 7996 7995 ] final -167.63 input   59.86 | X-H torsion
[ 10167 10162 10161 10158 ] final  -38.16 input  -65.29 | X-H torsion
[ 10718 10713 10712 10709 ] final  162.13 input   66.30 | X-H torsion
[ 10763 10752 10751 10750 ] final -107.55 input  -60.55 | X-H torsion
[ 11005 11000 10999 10996 ] final  -70.71 input  -57.11 | X-H torsion

> <Gold.Protein.ActiveResidues>
 VAL166  LYS551  ARG553  GLY616  TRP617  ASP618  TYR619  PRO620  LYS621  CYS622 
 ASP623  PHE694  ASN695  SER759  ASP760  ASP761  ALA762  ILE779  LEU786  VAL792 
 PHE793  MET794  SER795  GLU796  ALA797  LYS798  CYS799  TRP800  GLU811  SER814 

> <Gold.Protein.RotatedAtoms>
  151.7568  133.3331  159.3406 H   0  0  0  0  0  0  0  0  0  0  0  0  # atno 6907 bound_to 6896
  150.7513  134.6142  159.6111 H   0  0  0  0  0  0  0  0  0  0  0  0  # atno 6908 bound_to 6896
  152.3432  134.7109  160.0309 H   0  0  0  0  0  0  0  0  0  0  0  0  # atno 6909 bound_to 6896
  145.9661  140.7430  142.9433 H   0  0  0  0  0  0  0  0  0  0  0  0  # atno 7974 bound_to 7965
  155.8804  140.1008  157.1489 H   0  0  0  0  0  0  0  0  0  0  0  0  # atno 8008 bound_to 7997
  154.4004  140.1330  156.4253 H   0  0  0  0  0  0  0  0  0  0  0  0  # atno 8009 bound_to 7997
  155.7649  140.3462  155.5219 H   0  0  0  0  0  0  0  0  0  0  0  0  # atno 8010 bound_to 7997
  140.7099  143.3295  151.2601 H   0  0  0  0  0  0  0  0  0  0  0  0  # atno 10167 bound_to 10162
  157.1269  131.0506  151.2390 H   0  0  0  0  0  0  0  0  0  0  0  0  # atno 10718 bound_to 10713
  154.8082  135.4671  154.0446 H   0  0  0  0  0  0  0  0  0  0  0  0  # atno 10763 bound_to 10752
  153.1898  135.6853  153.8374 H   0  0  0  0  0  0  0  0  0  0  0  0  # atno 10764 bound_to 10752
  153.7895  135.3245  155.3354 H   0  0  0  0  0  0  0  0  0  0  0  0  # atno 10765 bound_to 10752
  141.1579  133.6797  156.6794 H   0  0  0  0  0  0  0  0  0  0  0  0  # atno 11005 bound_to 11000
  144.6826  140.2671  143.7311 LP  0  0  0  0  0  0  0  0  0  0  0  0  # atno 17320 bound_to 7965
  145.7972  139.1950  143.2069 LP  0  0  0  0  0  0  0  0  0  0  0  0  # atno 17321 bound_to 7965
  139.6773  143.9915  152.2788 LP  0  0  0  0  0  0  0  0  0  0  0  0  # atno 17342 bound_to 10162
  139.9533  144.6606  150.8150 LP  0  0  0  0  0  0  0  0  0  0  0  0  # atno 17343 bound_to 10162
  157.4427  130.7553  149.7083 LP  0  0  0  0  0  0  0  0  0  0  0  0  # atno 17370 bound_to 10713
  155.9816  130.4017  150.3461 LP  0  0  0  0  0  0  0  0  0  0  0  0  # atno 17371 bound_to 10713
  140.3114  134.8083  157.4179 LP  0  0  0  0  0  0  0  0  0  0  0  0  # atno 17394 bound_to 11000
  140.1175  134.5263  155.8212 LP  0  0  0  0  0  0  0  0  0  0  0  0  # atno 17395 bound_to 11000

$$$$
