AV-unprocessed.smi:2008|AV-procd|sdf|8143|dock5
  -GOLD-   2272010383D 1   1.00000     0.00000
 Structure written by MMmdl.
 46 47  0  0  0  0  0  0  0  0  2 V2000
  152.0759  145.3512  160.3510 C   0  0  0  0  0  0  0  0  0  0  0  0
  152.5945  144.0261  160.3943 O   0  0  0  0  0  0  0  0  0  0  0  0
  152.2974  143.1722  159.3520 C   0  0  0  0  0  0  0  0  0  0  0  0
  152.9358  141.9177  159.3038 C   0  0  0  0  0  0  0  0  0  0  0  0
  152.6355  141.0451  158.2411 C   0  0  0  0  0  0  0  0  0  0  0  0
  151.7088  141.4459  157.2568 C   0  0  0  0  0  0  0  0  0  0  0  0
  151.4399  140.5318  156.1995 N   0  0  0  0  0  0  0  0  0  0  0  0
  151.3907  139.1881  156.2197 C   0  0  0  0  0  0  0  0  0  0  0  0
  151.6113  138.4736  157.1965 O   0  0  0  0  0  0  0  0  0  0  0  0
  151.0683  138.6980  155.0141 N   0  0  0  0  0  0  0  0  0  0  0  0
  150.9104  137.2812  154.7057 C   0  0  0  0  0  0  0  0  0  0  0  0
  149.5551  136.7398  155.2032 C   0  0  0  0  0  0  0  0  0  0  0  0
  149.1151  135.5057  154.4969 N   0  3  2  0  0  0  0  0  0  0  0  0
  147.6775  135.2080  154.7415 C   0  0  0  0  0  0  0  0  0  0  0  0
  147.1773  134.0690  153.8390 C   0  0  0  0  0  0  0  0  0  0  0  0
  148.0317  132.8096  154.0174 C   0  0  0  0  0  0  0  0  0  0  0  0
  149.5100  133.1455  153.7777 C   0  0  0  0  0  0  0  0  0  0  0  0
  149.9980  134.3084  154.6687 C   0  0  2  0  0  0  0  0  0  0  0  0
  150.1803  133.8788  156.1402 C   0  0  0  0  0  0  0  0  0  0  0  0
  151.1213  142.7285  157.3952 C   0  0  0  0  0  0  0  0  0  0  0  0
  151.4050  143.5696  158.4124 N   0  0  0  0  0  0  0  0  0  0  0  0
  152.4007  145.8948  161.2380 H   0  0  0  0  0  0  0  0  0  0  0  0
  150.9849  145.3533  160.3431 H   0  0  0  0  0  0  0  0  0  0  0  0
  152.4414  145.8942  159.4782 H   0  0  0  0  0  0  0  0  0  0  0  0
  153.6437  141.6305  160.0674 H   0  0  0  0  0  0  0  0  0  0  0  0
  153.1153  140.0787  158.1852 H   0  0  0  0  0  0  0  0  0  0  0  0
  151.2447  140.9619  155.3074 H   0  0  0  0  0  0  0  0  0  0  0  0
  150.9033  139.3517  154.2622 H   0  0  0  0  0  0  0  0  0  0  0  0
  151.0203  137.1175  153.6321 H   0  0  0  0  0  0  0  0  0  0  0  0
  151.7365  136.7612  155.1892 H   0  0  0  0  0  0  0  0  0  0  0  0
  149.5791  136.5732  156.2804 H   0  0  0  0  0  0  0  0  0  0  0  0
  148.7981  137.5074  155.0378 H   0  0  0  0  0  0  0  0  0  0  0  0
  147.5196  134.9587  155.7913 H   0  0  0  0  0  0  0  0  0  0  0  0
  147.0801  136.0987  154.5429 H   0  0  0  0  0  0  0  0  0  0  0  0
  146.1336  133.8462  154.0633 H   0  0  0  0  0  0  0  0  0  0  0  0
  147.2078  134.3880  152.7962 H   0  0  0  0  0  0  0  0  0  0  0  0
  147.8947  132.4050  155.0206 H   0  0  0  0  0  0  0  0  0  0  0  0
  147.7060  132.0337  153.3237 H   0  0  0  0  0  0  0  0  0  0  0  0
  150.1258  132.2597  153.9384 H   0  0  0  0  0  0  0  0  0  0  0  0
  149.6446  133.4182  152.7299 H   0  0  0  0  0  0  0  0  0  0  0  0
  150.9861  134.5682  154.2911 H   0  0  0  0  0  0  0  0  0  0  0  0
  150.8131  132.9931  156.2056 H   0  0  0  0  0  0  0  0  0  0  0  0
  149.2339  133.6361  156.6225 H   0  0  0  0  0  0  0  0  0  0  0  0
  150.6674  134.6534  156.7317 H   0  0  0  0  0  0  0  0  0  0  0  0
  150.4055  143.1201  156.6915 H   0  0  0  0  0  0  0  0  0  0  0  0
  149.1681  135.7340  153.5143 H   0  0  0  0  0  0  0  0  0  0  0  0
  1  2  1  0  0  0  0
  1 22  1  0  0  0  0
  1 23  1  0  0  0  0
  1 24  1  0  0  0  0
  2  3  1  0  0  0  0
  3 21  1  0  0  0  0
  3  4  2  0  0  0  0
  4  5  1  0  0  0  0
  4 25  1  0  0  0  0
  5  6  2  0  0  0  0
  5 26  1  0  0  0  0
  6  7  1  0  0  0  0
  6 20  1  0  0  0  0
  7  8  1  0  0  0  0
  7 27  1  0  0  0  0
  8  9  2  0  0  0  0
  8 10  1  0  0  0  0
 10 11  1  0  0  0  0
 10 28  1  0  0  0  0
 11 12  1  0  0  0  0
 11 29  1  0  0  0  0
 11 30  1  0  0  0  0
 12 13  1  0  0  0  0
 12 31  1  0  0  0  0
 12 32  1  0  0  0  0
 13 18  1  0  0  0  0
 13 14  1  0  0  0  0
 13 46  1  0  0  0  0
 14 15  1  0  0  0  0
 14 33  1  0  0  0  0
 14 34  1  0  0  0  0
 15 16  1  0  0  0  0
 15 35  1  0  0  0  0
 15 36  1  0  0  0  0
 16 17  1  0  0  0  0
 16 37  1  0  0  0  0
 16 38  1  0  0  0  0
 17 18  1  0  0  0  0
 17 39  1  0  0  0  0
 17 40  1  0  0  0  0
 18 19  1  0  0  0  0
 18 41  1  0  0  0  0
 19 42  1  0  0  0  0
 19 43  1  0  0  0  0
 19 44  1  0  0  0  0
 20 21  2  0  0  0  0
 20 45  1  0  0  0  0
M  CHG  1  13   1
M  END
> <s_m_source_file>
AV-unprocessed.smi

> <i_m_source_file_index>
2008

> <i_lp_mmshare_version>
43012

> <i_f3d_flags>
0

> <s_epik_input>
W0NIM11PYzFbY0hdW2NIXWMoW2NIXW4xKVtOSF1DKD1PKVtOSF1bQ0gyXVtDSDJdTjJbQ0gyXVtDSDJdW0NIMl1bQ0gyXVtDQEhdMltDSDNd

> <s_epik_cmdline>
J2VwaWtfcHl0aG9uJywgJy1waCcsICc3LjAnLCAnLXRuJywgJzgnLCAnLW1hJywgJzIwMCcsICctbWV0YWxfYmluZGluZycsICctaW1hZScsICc8aW5maWxlLm1hZT4nLCAnLW9tYWUnLCAnPG91dGZpbGUubWFlPic=

> <r_lp_tautomer_probability>
1

> <r_epik_Ionization_Penalty>
0.00219526

> <r_epik_Ionization_Penalty_Charging>
0.00211816

> <r_epik_Ionization_Penalty_Neutral>
7.71003e-05

> <r_epik_State_Penalty>
0.00145254

> <r_epik_Charging_Adjusted_Penalty>
0.0035707

> <i_epik_Tot_Q>
1

> <i_epik_Tot_abs_Q>
1

> <r_epik_Metal_State_Penalty>
-0

> <b_epik_Metal_Only>
0

> <s_lp_Force_Field>
OPLS_2005

> <r_lp_Energy>
23.262

> <b_lp_Chiralities_Consistent>
1

> <s_lp_Variant>
AV-unprocessed.smi:2008-3

> <Gold.Version>
5.8.1

> <Gold.Id.Protein>
6NUR|6NUR_protein|mol2

> <Gold.PLP.Fitness>
42.6111

> <Gold.PLP.PLP>
-34.7190

> <Gold.PLP.part.hbond>
-1.0000

> <Gold.PLP.part.metal>
0.0000

> <Gold.PLP.part.buried>
-6.6368

> <Gold.PLP.part.nonpolar>
-26.8579

> <Gold.PLP.part.repulsive>
0.3963

> <Gold.PLP.ligand.clash>
0.0000

> <Gold.PLP.ligand.torsion>
0.5823

> <Gold.PLP.Chemscore.Hbond>
2.0000

> <Gold.PLP.Chemscore.CHOScore>
1.0000

> <Gold.PLP.Chemscore.Metal>
0.0000

> <Gold.Chemscore.Hbonds>
donor molecule, donor type, donor heavy atom, donor atom, acceptor molecule, acceptor atom, score
      L1  H    13    46       P1  7948  2.00
      L1  C    20    45       P1  8028  1.00

> <Gold.PLP.Chemscore.Internal.Correction>
0.0568

> <Gold.Rescore>
     Score         DG    S(hbond)    S(metal)    S(lipo)     H(rot)  DE(clash)    DE(int)     intcor
     12.22     -13.83       0.96        0.00      81.34       1.71       0.01       1.59       ----

> <Gold.Chemscore.Fitness>
12.2186

> <Gold.Chemscore.DG>
-13.8255

> <Gold.Chemscore.ZeroCoef>
-5.4800

> <Gold.Chemscore.Hbond>
0.9607

> <Gold.Chemscore.Metal>
0.0000

> <Gold.Chemscore.Lipo>
81.3354

> <Gold.Chemscore.Internal_Hbond>
0.0000

> <Gold.Chemscore.DEClash>
0.0149

> <Gold.Chemscore.DEInternal>
1.5921

> <Gold.Chemscore.Rot>
1.7107

> <Gold.Chemscore.Internal.Correction>
   9.000000E+99

> <Gold.Chemscore.Hbonds>
donor molecule, donor type, donor heavy atom, donor atom, acceptor molecule, acceptor atom, score
      L1  H    13    46       P1  7948  0.70

> <Gold.Chemscore.Hbond.Weighted>
-3.2087

> <Gold.Chemscore.Metal.Weighted>
-0.0000

> <Gold.Chemscore.Lipo.Weighted>
-9.5162

> <Gold.Chemscore.Internal_Hbond.Weighted>
0.0000

> <Gold.Chemscore.DEClash.Weighted>
0.0149

> <Gold.Chemscore.DEInternal.Weighted>
1.5921

> <Gold.Chemscore.Rot.Weighted>
4.3794

> <Gold.Chemscore.Internal.Correction.Weighted>
   9.000000E+99

> <Gold.Protein.RotatedTorsions>
[ 6907 6896 6895 6894 ] final  -11.08 input  -60.11 | X-H torsion
[ 7974 7965 7964 7962 ] final  109.58 input  175.53 | X-H torsion
[ 8008 7997 7996 7995 ] final   97.41 input   59.86 | X-H torsion
[ 10167 10162 10161 10158 ] final  153.62 input  -65.29 | X-H torsion
[ 10718 10713 10712 10709 ] final -111.15 input   66.30 | X-H torsion
[ 10763 10752 10751 10750 ] final -176.33 input  -60.55 | X-H torsion
[ 11005 11000 10999 10996 ] final -131.10 input  -57.11 | X-H torsion

> <Gold.Protein.ActiveResidues>
 VAL166  LYS551  ARG553  GLY616  TRP617  ASP618  TYR619  PRO620  LYS621  CYS622 
 ASP623  PHE694  ASN695  SER759  ASP760  ASP761  ALA762  ILE779  LEU786  VAL792 
 PHE793  MET794  SER795  GLU796  ALA797  LYS798  CYS799  TRP800  GLU811  SER814 

> <Gold.Protein.RotatedAtoms>
  151.3919  135.0957  159.9528 H   0  0  0  0  0  0  0  0  0  0  0  0  # atno 6907 bound_to 6896
  152.5077  133.8972  159.7433 H   0  0  0  0  0  0  0  0  0  0  0  0  # atno 6908 bound_to 6896
  150.9427  133.6582  159.2816 H   0  0  0  0  0  0  0  0  0  0  0  0  # atno 6909 bound_to 6896
  145.2659  139.2685  143.3992 H   0  0  0  0  0  0  0  0  0  0  0  0  # atno 7974 bound_to 7965
  156.0898  140.3259  155.7801 H   0  0  0  0  0  0  0  0  0  0  0  0  # atno 8008 bound_to 7997
  155.5016  140.0569  157.2955 H   0  0  0  0  0  0  0  0  0  0  0  0  # atno 8009 bound_to 7997
  154.4631  140.1976  156.0208 H   0  0  0  0  0  0  0  0  0  0  0  0  # atno 8010 bound_to 7997
  139.4826  144.5257  151.7804 H   0  0  0  0  0  0  0  0  0  0  0  0  # atno 10167 bound_to 10162
  156.0631  130.5853  150.8335 H   0  0  0  0  0  0  0  0  0  0  0  0  # atno 10718 bound_to 10713
  154.5736  135.2830  155.0802 H   0  0  0  0  0  0  0  0  0  0  0  0  # atno 10763 bound_to 10752
  154.2165  135.6398  153.5135 H   0  0  0  0  0  0  0  0  0  0  0  0  # atno 10764 bound_to 10752
  153.0065  135.5504  154.6368 H   0  0  0  0  0  0  0  0  0  0  0  0  # atno 10765 bound_to 10752
  140.9288  134.1347  157.4252 H   0  0  0  0  0  0  0  0  0  0  0  0  # atno 11005 bound_to 11000
  146.3261  140.3089  142.8625 LP  0  0  0  0  0  0  0  0  0  0  0  0  # atno 17320 bound_to 7965
  144.9377  140.8045  143.5650 LP  0  0  0  0  0  0  0  0  0  0  0  0  # atno 17321 bound_to 7965
  140.4777  144.1495  150.5927 LP  0  0  0  0  0  0  0  0  0  0  0  0  # atno 17342 bound_to 10162
  140.4313  143.2567  151.9592 LP  0  0  0  0  0  0  0  0  0  0  0  0  # atno 17343 bound_to 10162
  157.5654  131.0946  150.9498 LP  0  0  0  0  0  0  0  0  0  0  0  0  # atno 17370 bound_to 10713
  156.9726  130.5496  149.5291 LP  0  0  0  0  0  0  0  0  0  0  0  0  # atno 17371 bound_to 10713
  139.8791  134.9998  156.5973 LP  0  0  0  0  0  0  0  0  0  0  0  0  # atno 17394 bound_to 11000
  140.7890  133.8598  155.8630 LP  0  0  0  0  0  0  0  0  0  0  0  0  # atno 17395 bound_to 11000

$$$$
