AV-unprocessed.smi:2727|AV-procd|sdf|10522|dock6
  -GOLD-   2272014563D 1   1.00000     0.00000
 Structure written by MMmdl.
 40 41  0  0  0  0  0  0  0  0  1 V2000
  146.8460  132.5147  153.9288 O   0  0  0  0  0  0  0  0  0  0  0  0
  147.3333  133.3939  153.2107 C   0  0  0  0  0  0  0  0  0  0  0  0
  148.3845  134.1236  153.6146 N   0  0  0  0  0  0  0  0  0  0  0  0
  149.0709  133.9788  154.8942 C   0  0  0  0  0  0  0  0  0  0  0  0
  150.2815  134.9288  154.9993 C   0  0  0  0  0  0  0  0  0  0  0  0
  150.3261  135.7303  156.3128 C   0  0  0  0  0  0  0  0  0  0  0  0
  150.4652  135.1264  157.3782 O   0  0  0  0  0  0  0  0  0  0  0  0
  150.2011  137.0797  156.2656 N   0  0  0  0  0  0  0  0  0  0  0  0
  150.1061  137.7959  154.9878 C   0  0  0  0  0  0  0  0  0  0  0  0
  151.4924  138.0447  154.3588 C   0  0  0  0  0  0  0  0  0  0  0  0
  152.6436  138.3247  155.3501 C   0  0  0  0  0  0  0  0  0  0  0  0
  152.2863  139.2456  156.5336 C   0  0  0  0  0  0  0  0  0  0  0  0
  151.6306  138.5064  157.7197 C   0  0  0  0  0  0  0  0  0  0  0  0
  150.2153  137.9689  157.4361 C   0  0  0  0  0  0  0  0  0  0  0  0
  146.9448  133.7842  151.9373 N   0  0  0  0  0  0  0  0  0  0  0  0
  146.0190  133.1205  151.3164 C   0  0  0  0  0  0  0  0  0  0  0  0
  145.5088  133.3631  150.0508 N   0  0  0  0  0  0  0  0  0  0  0  0
  144.5552  132.4187  149.7879 C   0  0  0  0  0  0  0  0  0  0  0  0
  144.4660  131.6155  150.8438 C   0  0  0  0  0  0  0  0  0  0  0  0
  145.3501  132.0188  151.7983 O   0  0  0  0  0  0  0  0  0  0  0  0
  148.7406  134.8267  152.9832 H   0  0  0  0  0  0  0  0  0  0  0  0
  148.3669  134.1524  155.7103 H   0  0  0  0  0  0  0  0  0  0  0  0
  149.3989  132.9426  154.9825 H   0  0  0  0  0  0  0  0  0  0  0  0
  151.2035  134.3540  154.9050 H   0  0  0  0  0  0  0  0  0  0  0  0
  150.2539  135.6288  154.1647 H   0  0  0  0  0  0  0  0  0  0  0  0
  149.4678  137.2582  154.2848 H   0  0  0  0  0  0  0  0  0  0  0  0
  149.6089  138.7561  155.1280 H   0  0  0  0  0  0  0  0  0  0  0  0
  151.7697  137.1818  153.7525 H   0  0  0  0  0  0  0  0  0  0  0  0
  151.4074  138.8774  153.6601 H   0  0  0  0  0  0  0  0  0  0  0  0
  153.0341  137.3815  155.7349 H   0  0  0  0  0  0  0  0  0  0  0  0
  153.4670  138.7694  154.7904 H   0  0  0  0  0  0  0  0  0  0  0  0
  153.2092  139.6982  156.8984 H   0  0  0  0  0  0  0  0  0  0  0  0
  151.6612  140.0745  156.1996 H   0  0  0  0  0  0  0  0  0  0  0  0
  152.2803  137.6919  158.0406 H   0  0  0  0  0  0  0  0  0  0  0  0
  151.5742  139.1889  158.5682 H   0  0  0  0  0  0  0  0  0  0  0  0
  149.5353  138.8074  157.2820 H   0  0  0  0  0  0  0  0  0  0  0  0
  149.8243  137.4708  158.3228 H   0  0  0  0  0  0  0  0  0  0  0  0
  145.7688  134.0899  149.3997 H   0  0  0  0  0  0  0  0  0  0  0  0
  144.0277  132.4220  148.8456 H   0  0  0  0  0  0  0  0  0  0  0  0
  143.8534  130.7529  151.0602 H   0  0  0  0  0  0  0  0  0  0  0  0
  1  2  2  0  0  0  0
  2 15  1  0  0  0  0
  2  3  1  0  0  0  0
  3  4  1  0  0  0  0
  3 21  1  0  0  0  0
  4  5  1  0  0  0  0
  4 22  1  0  0  0  0
  4 23  1  0  0  0  0
  5  6  1  0  0  0  0
  5 24  1  0  0  0  0
  5 25  1  0  0  0  0
  6  7  2  0  0  0  0
  6  8  1  0  0  0  0
  8 14  1  0  0  0  0
  8  9  1  0  0  0  0
  9 10  1  0  0  0  0
  9 26  1  0  0  0  0
  9 27  1  0  0  0  0
 10 11  1  0  0  0  0
 10 28  1  0  0  0  0
 10 29  1  0  0  0  0
 11 12  1  0  0  0  0
 11 30  1  0  0  0  0
 11 31  1  0  0  0  0
 12 13  1  0  0  0  0
 12 32  1  0  0  0  0
 12 33  1  0  0  0  0
 13 14  1  0  0  0  0
 13 34  1  0  0  0  0
 13 35  1  0  0  0  0
 14 36  1  0  0  0  0
 14 37  1  0  0  0  0
 15 16  2  0  0  0  0
 16 20  1  0  0  0  0
 16 17  1  0  0  0  0
 17 38  1  0  0  0  0
 17 18  1  0  0  0  0
 18 39  1  0  0  0  0
 18 19  2  0  0  0  0
 19 40  1  0  0  0  0
 19 20  1  0  0  0  0
M  END
> <s_m_source_file>
AV-unprocessed.smi

> <i_m_source_file_index>
2727

> <i_lp_mmshare_version>
43012

> <i_f3d_flags>
0

> <s_epik_input>
bzFbY0hdW2NIXW5jMVtOSF1DKD1PKVtOSF1bQ0gyXVtDSDJdQyg9TylOMltDSDJdW0NIMl1bQ0gyXVtDSDJdW0NIMl1bQ0gyXTI=

> <s_epik_cmdline>
J2VwaWtfcHl0aG9uJywgJy1waCcsICc3LjAnLCAnLXRuJywgJzgnLCAnLW1hJywgJzIwMCcsICctbWV0YWxfYmluZGluZycsICctaW1hZScsICc8aW5maWxlLm1hZT4nLCAnLW9tYWUnLCAnPG91dGZpbGUubWFlPic=

> <r_lp_tautomer_probability>
0.107061

> <r_epik_Ionization_Penalty>
0.376272

> <r_epik_Ionization_Penalty_Charging>
0.375918

> <r_epik_Ionization_Penalty_Neutral>
0.000353756

> <r_epik_State_Penalty>
2.48665

> <r_epik_Charging_Adjusted_Penalty>
2.86256

> <i_epik_Tot_Q>
0

> <i_epik_Tot_abs_Q>
0

> <r_epik_Metal_State_Penalty>
4.1171

> <b_epik_Metal_Only>
0

> <s_lp_Force_Field>
OPLS_2005

> <r_lp_Energy>
48.3689

> <b_lp_Chiralities_Consistent>
1

> <s_lp_Variant>
AV-unprocessed.smi:2727-2

> <Gold.Version>
5.8.1

> <Gold.Id.Protein>
6NUR|6NUR_protein|mol2

> <Gold.PLP.Fitness>
36.9941

> <Gold.PLP.PLP>
-30.8803

> <Gold.PLP.part.hbond>
-3.0000

> <Gold.PLP.part.metal>
0.0000

> <Gold.PLP.part.buried>
-6.6439

> <Gold.PLP.part.nonpolar>
-22.8584

> <Gold.PLP.part.repulsive>
0.6274

> <Gold.PLP.ligand.clash>
0.0000

> <Gold.PLP.ligand.torsion>
0.3767

> <Gold.PLP.Chemscore.Hbond>
2.2829

> <Gold.PLP.Chemscore.CHOScore>
0.0000

> <Gold.PLP.Chemscore.Metal>
0.0000

> <Gold.Chemscore.Hbonds>
donor molecule, donor type, donor heavy atom, donor atom, acceptor molecule, acceptor atom, score
      L1  H     3    21       P1  7948  0.95
      L1  H    17    38       P1  7921  1.00
      P1  H  6896  6907       L1     7  0.34

> <Gold.PLP.Chemscore.Internal.Correction>
0.0186

> <Gold.Rescore>
     Score         DG    S(hbond)    S(metal)    S(lipo)     H(rot)  DE(clash)    DE(int)     intcor
     13.82     -15.82       2.23        0.00      61.95       1.70       0.01       2.00       ----

> <Gold.Chemscore.Fitness>
13.8174

> <Gold.Chemscore.DG>
-15.8226

> <Gold.Chemscore.ZeroCoef>
-5.4800

> <Gold.Chemscore.Hbond>
2.2313

> <Gold.Chemscore.Metal>
0.0000

> <Gold.Chemscore.Lipo>
61.9521

> <Gold.Chemscore.Internal_Hbond>
0.0000

> <Gold.Chemscore.DEClash>
0.0060

> <Gold.Chemscore.DEInternal>
1.9993

> <Gold.Chemscore.Rot>
1.7025

> <Gold.Chemscore.Internal.Correction>
   9.000000E+99

> <Gold.Chemscore.Hbonds>
donor molecule, donor type, donor heavy atom, donor atom, acceptor molecule, acceptor atom, score
      L1  H     3    21       P1  7948  0.22
      L1  H    17    38       P1  7921  0.48
      P1  H  6896  6907       L1     7  0.34

> <Gold.Chemscore.Hbond.Weighted>
-7.4526

> <Gold.Chemscore.Metal.Weighted>
-0.0000

> <Gold.Chemscore.Lipo.Weighted>
-7.2484

> <Gold.Chemscore.Internal_Hbond.Weighted>
0.0000

> <Gold.Chemscore.DEClash.Weighted>
0.0060

> <Gold.Chemscore.DEInternal.Weighted>
1.9993

> <Gold.Chemscore.Rot.Weighted>
4.3584

> <Gold.Chemscore.Internal.Correction.Weighted>
   9.000000E+99

> <Gold.Protein.RotatedTorsions>
[ 6907 6896 6895 6894 ] final  -88.82 input  -60.11 | X-H torsion
[ 7974 7965 7964 7962 ] final  126.74 input  175.53 | X-H torsion
[ 8008 7997 7996 7995 ] final -105.89 input   59.86 | X-H torsion
[ 10167 10162 10161 10158 ] final  -57.40 input  -65.29 | X-H torsion
[ 10718 10713 10712 10709 ] final   27.73 input   66.30 | X-H torsion
[ 10763 10752 10751 10750 ] final   78.71 input  -60.55 | X-H torsion
[ 11005 11000 10999 10996 ] final    6.44 input  -57.11 | X-H torsion

> <Gold.Protein.ActiveResidues>
 VAL166  LYS551  ARG553  GLY616  TRP617  ASP618  TYR619  PRO620  LYS621  CYS622 
 ASP623  PHE694  ASN695  SER759  ASP760  ASP761  ALA762  ILE779  LEU786  VAL792 
 PHE793  MET794  SER795  GLU796  ALA797  LYS798  CYS799  TRP800  GLU811  SER814 

> <Gold.Protein.RotatedAtoms>
  150.6870  134.2682  159.4577 H   0  0  0  0  0  0  0  0  0  0  0  0  # atno 6907 bound_to 6896
  152.0607  134.9593  160.0584 H   0  0  0  0  0  0  0  0  0  0  0  0  # atno 6908 bound_to 6896
  152.1022  133.4221  159.4629 H   0  0  0  0  0  0  0  0  0  0  0  0  # atno 6909 bound_to 6896
  145.0583  139.3826  143.5019 H   0  0  0  0  0  0  0  0  0  0  0  0  # atno 7974 bound_to 7965
  154.9065  140.0411  157.1922 H   0  0  0  0  0  0  0  0  0  0  0  0  # atno 8008 bound_to 7997
  154.8391  140.2911  155.5650 H   0  0  0  0  0  0  0  0  0  0  0  0  # atno 8009 bound_to 7997
  156.2991  140.2486  156.3331 H   0  0  0  0  0  0  0  0  0  0  0  0  # atno 8010 bound_to 7997
  140.6260  143.2439  151.5361 H   0  0  0  0  0  0  0  0  0  0  0  0  # atno 10167 bound_to 10162
  157.2241  130.6992  149.6283 H   0  0  0  0  0  0  0  0  0  0  0  0  # atno 10718 bound_to 10713
  153.0895  135.4867  154.8663 H   0  0  0  0  0  0  0  0  0  0  0  0  # atno 10763 bound_to 10752
  154.7252  135.3048  154.8985 H   0  0  0  0  0  0  0  0  0  0  0  0  # atno 10764 bound_to 10752
  153.9637  135.6809  153.4799 H   0  0  0  0  0  0  0  0  0  0  0  0  # atno 10765 bound_to 10752
  140.5594  134.0207  155.7966 H   0  0  0  0  0  0  0  0  0  0  0  0  # atno 11005 bound_to 11000
  146.3523  140.0269  142.8654 LP  0  0  0  0  0  0  0  0  0  0  0  0  # atno 17320 bound_to 7965
  145.1440  140.9587  143.4472 LP  0  0  0  0  0  0  0  0  0  0  0  0  # atno 17321 bound_to 7965
  139.5481  144.2468  152.1479 LP  0  0  0  0  0  0  0  0  0  0  0  0  # atno 17342 bound_to 10162
  140.1700  144.4945  150.6585 LP  0  0  0  0  0  0  0  0  0  0  0  0  # atno 17343 bound_to 10162
  155.9680  130.4510  150.5720 LP  0  0  0  0  0  0  0  0  0  0  0  0  # atno 17370 bound_to 10713
  157.3546  131.0739  151.1686 LP  0  0  0  0  0  0  0  0  0  0  0  0  # atno 17371 bound_to 10713
  141.1123  133.9596  157.2886 LP  0  0  0  0  0  0  0  0  0  0  0  0  # atno 17394 bound_to 11000
  139.9415  135.0190  156.8723 LP  0  0  0  0  0  0  0  0  0  0  0  0  # atno 17395 bound_to 11000

$$$$
