AV-unprocessed.smi:72|AV-procd|sdf|666|dock4
  -GOLD-   2262016563D 1   1.00000     0.00000
 Structure written by MMmdl.
 29 30  0  0  0  0  0  0  0  0  1 V2000
  145.9631  139.8134  151.5905 N   0  0  0  0  0  0  0  0  0  0  0  0
  145.5870  138.5875  151.5017 C   0  0  0  0  0  0  0  0  0  0  0  0
  146.2418  137.5907  150.7627 N   0  0  0  0  0  0  0  0  0  0  0  0
  145.7442  136.3925  150.7582 C   0  0  0  0  0  0  0  0  0  0  0  0
  144.5305  136.0536  151.4852 N   0  0  0  0  0  0  0  0  0  0  0  0
  143.9737  134.6453  151.4581 C   0  0  1  0  0  0  0  0  0  0  0  0
  143.7394  134.2786  150.1306 O   0  0  0  0  0  0  0  0  0  0  0  0
  144.1370  132.9267  149.9379 C   0  0  1  0  0  0  0  0  0  0  0  0
  144.3678  132.6274  148.4462 C   0  0  0  0  0  0  0  0  0  0  0  0
  143.8424  133.6687  147.6507 O   0  0  0  0  0  0  0  0  0  0  0  0
  145.3376  132.7526  150.8803 C   0  0  1  0  0  0  0  0  0  0  0  0
  146.5364  133.2068  150.2748 O   0  0  0  0  0  0  0  0  0  0  0  0
  144.9252  133.5998  152.0815 C   0  0  1  0  0  0  0  0  0  0  0  0
  146.0234  134.1203  152.8125 O   0  0  0  0  0  0  0  0  0  0  0  0
  143.8661  137.0440  152.2492 C   0  0  0  0  0  0  0  0  0  0  0  0
  142.8508  136.8085  152.9040 O   0  0  0  0  0  0  0  0  0  0  0  0
  144.4249  138.2734  152.2198 N   0  0  0  0  0  0  0  0  0  0  0  0
  143.0095  134.6817  151.9665 H   0  0  0  0  0  0  0  0  0  0  0  0
  143.3172  132.3042  150.3022 H   0  0  0  0  0  0  0  0  0  0  0  0
  145.4793  131.7078  151.1581 H   0  0  0  0  0  0  0  0  0  0  0  0
  144.3262  132.9863  152.7558 H   0  0  0  0  0  0  0  0  0  0  0  0
  146.8023  139.9669  151.0510 H   0  0  0  0  0  0  0  0  0  0  0  0
  146.2010  135.5657  150.2132 H   0  0  0  0  0  0  0  0  0  0  0  0
  145.4366  132.5487  148.2458 H   0  0  0  0  0  0  0  0  0  0  0  0
  143.9213  131.6773  148.1521 H   0  0  0  0  0  0  0  0  0  0  0  0
  144.5266  134.3018  147.4948 H   0  0  0  0  0  0  0  0  0  0  0  0
  147.2060  132.5541  150.4125 H   0  0  0  0  0  0  0  0  0  0  0  0
  146.7563  134.2168  152.2239 H   0  0  0  0  0  0  0  0  0  0  0  0
  143.9740  139.0015  152.7542 H   0  0  0  0  0  0  0  0  0  0  0  0
  1  2  2  0  0  0  0
  1 22  1  0  0  0  0
  2 17  1  0  0  0  0
  2  3  1  0  0  0  0
  3  4  2  0  0  0  0
  4  5  1  0  0  0  0
  4 23  1  0  0  0  0
  5  6  1  0  0  0  0
  5 15  1  0  0  0  0
  6 18  1  0  0  0  0
  6 13  1  0  0  0  0
  6  7  1  0  0  0  0
  7  8  1  0  0  0  0
  8 19  1  0  0  0  0
  8  9  1  0  0  0  0
  8 11  1  0  0  0  0
  9 10  1  0  0  0  0
  9 24  1  0  0  0  0
  9 25  1  0  0  0  0
 10 26  1  0  0  0  0
 11 20  1  0  0  0  0
 11 12  1  0  0  0  0
 11 13  1  0  0  0  0
 12 27  1  0  0  0  0
 13 21  1  0  0  0  0
 13 14  1  0  0  0  0
 14 28  1  0  0  0  0
 15 16  2  0  0  0  0
 15 17  1  0  0  0  0
 17 29  1  0  0  0  0
M  END
> <s_m_source_file>
AV-unprocessed.smi

> <i_m_source_file_index>
72

> <i_lp_mmshare_version>
43012

> <i_f3d_flags>
0

> <s_epik_input>
W05IMl1jMW5bY0hdbihjKD1PKW4xKVtDQEBIXTJPW0NASF0oW0NIMl1bT0hdKVtDQEBIXShbT0hdKVtDQEhdMltPSF0=

> <s_epik_cmdline>
J2VwaWtfcHl0aG9uJywgJy1waCcsICc3LjAnLCAnLXRuJywgJzgnLCAnLW1hJywgJzIwMCcsICctbWV0YWxfYmluZGluZycsICctaW1hZScsICc8aW5maWxlLm1hZT4nLCAnLW9tYWUnLCAnPG91dGZpbGUubWFlPic=

> <r_lp_tautomer_probability>
7.17554e-07

> <r_epik_Ionization_Penalty>
0.0066451

> <r_epik_Ionization_Penalty_Charging>
0.00663793

> <r_epik_Ionization_Penalty_Neutral>
7.17052e-06

> <r_epik_State_Penalty>
0.419231

> <r_epik_Charging_Adjusted_Penalty>
0.425868

> <i_epik_Tot_Q>
0

> <i_epik_Tot_abs_Q>
0

> <r_epik_Metal_State_Penalty>
1.44144

> <b_epik_Metal_Only>
0

> <s_epik_Chemistry_Notes>
This compound contains an acetal/aminal-like group ( X-CH(R)-Y where X, Y are N, S, or O) that may be acid/base labile, releasing an aldehyde.

> <s_lp_Force_Field>
OPLS_2005

> <r_lp_Energy>
49.4218

> <b_lp_Chiralities_Consistent>
1

> <s_lp_Variant>
AV-unprocessed.smi:72-4

> <Gold.Version>
5.8.1

> <Gold.Id.Protein>
6NUR|6NUR_protein|mol2

> <Gold.PLP.Fitness>
40.3915

> <Gold.PLP.PLP>
-26.3759

> <Gold.PLP.part.hbond>
-9.2524

> <Gold.PLP.part.metal>
0.0000

> <Gold.PLP.part.buried>
0.2280

> <Gold.PLP.part.nonpolar>
-21.1192

> <Gold.PLP.part.repulsive>
4.7549

> <Gold.PLP.ligand.clash>
0.0000

> <Gold.PLP.ligand.torsion>
0.6945

> <Gold.PLP.Chemscore.Hbond>
4.2202

> <Gold.PLP.Chemscore.CHOScore>
0.9142

> <Gold.PLP.Chemscore.Metal>
0.0000

> <Gold.Chemscore.Hbonds>
donor molecule, donor type, donor heavy atom, donor atom, acceptor molecule, acceptor atom, score
      L1  H    10    26       P1  7921  1.00
      L1  H    17    29       P1 10175  0.61
      P1  H  7954  7966       L1     3  0.76
      P1  H 10192 10197       L1    10  0.05
      L1  C     4    23       P1  7921  0.65

> <Gold.PLP.Chemscore.Internal.Correction>
0.0014

> <Gold.Rescore>
     Score         DG    S(hbond)    S(metal)    S(lipo)     H(rot)  DE(clash)    DE(int)     intcor
      7.38     -10.43       3.40        0.00      34.14       4.06       2.00       1.06       ----

> <Gold.Chemscore.Fitness>
7.3829

> <Gold.Chemscore.DG>
-10.4338

> <Gold.Chemscore.ZeroCoef>
-5.4800

> <Gold.Chemscore.Hbond>
3.3992

> <Gold.Chemscore.Metal>
0.0000

> <Gold.Chemscore.Lipo>
34.1380

> <Gold.Chemscore.Internal_Hbond>
0.0000

> <Gold.Chemscore.DEClash>
1.9958

> <Gold.Chemscore.DEInternal>
1.0551

> <Gold.Chemscore.Rot>
4.0600

> <Gold.Chemscore.Internal.Correction>
   9.000000E+99

> <Gold.Chemscore.Hbonds>
donor molecule, donor type, donor heavy atom, donor atom, acceptor molecule, acceptor atom, score
      L1  H    10    26       P1  7921  0.96
      L1  H    12    27       P1 10747  0.05
      L1  H    17    29       P1 10175  0.58
      P1  H  7954  7966       L1     3  0.69
      P1  H 10192 10197       L1    10  0.01

> <Gold.Chemscore.Hbond.Weighted>
-11.3532

> <Gold.Chemscore.Metal.Weighted>
-0.0000

> <Gold.Chemscore.Lipo.Weighted>
-3.9941

> <Gold.Chemscore.Internal_Hbond.Weighted>
0.0000

> <Gold.Chemscore.DEClash.Weighted>
1.9958

> <Gold.Chemscore.DEInternal.Weighted>
1.0551

> <Gold.Chemscore.Rot.Weighted>
10.3936

> <Gold.Chemscore.Internal.Correction.Weighted>
   9.000000E+99

> <Gold.Protein.RotatedTorsions>
[ 6907 6896 6895 6894 ] final  168.75 input  -60.11 | X-H torsion
[ 7974 7965 7964 7962 ] final  141.49 input  175.53 | X-H torsion
[ 8008 7997 7996 7995 ] final  -72.81 input   59.86 | X-H torsion
[ 10167 10162 10161 10158 ] final -146.05 input  -65.29 | X-H torsion
[ 10718 10713 10712 10709 ] final -117.99 input   66.30 | X-H torsion
[ 10763 10752 10751 10750 ] final  112.22 input  -60.55 | X-H torsion
[ 11005 11000 10999 10996 ] final -176.84 input  -57.11 | X-H torsion

> <Gold.Protein.ActiveResidues>
 VAL166  LYS551  ARG553  GLY616  TRP617  ASP618  TYR619  PRO620  LYS621  CYS622 
 ASP623  PHE694  ASN695  SER759  ASP760  ASP761  ALA762  ILE779  LEU786  VAL792 
 PHE793  MET794  SER795  GLU796  ALA797  LYS798  CYS799  TRP800  GLU811  SER814 

> <Gold.Protein.RotatedAtoms>
  151.8427  133.3426  159.3647 H   0  0  0  0  0  0  0  0  0  0  0  0  # atno 6907 bound_to 6896
  150.7230  134.5376  159.5740 H   0  0  0  0  0  0  0  0  0  0  0  0  # atno 6908 bound_to 6896
  152.2853  134.7784  160.0440 H   0  0  0  0  0  0  0  0  0  0  0  0  # atno 6909 bound_to 6896
  144.9092  139.5317  143.5717 H   0  0  0  0  0  0  0  0  0  0  0  0  # atno 7974 bound_to 7965
  154.5196  140.0790  156.8146 H   0  0  0  0  0  0  0  0  0  0  0  0  # atno 8008 bound_to 7997
  155.3605  140.3417  155.4222 H   0  0  0  0  0  0  0  0  0  0  0  0  # atno 8009 bound_to 7997
  156.1666  140.1606  156.8508 H   0  0  0  0  0  0  0  0  0  0  0  0  # atno 8010 bound_to 7997
  139.7749  143.8184  152.2630 H   0  0  0  0  0  0  0  0  0  0  0  0  # atno 10167 bound_to 10162
  156.1073  130.6221  150.9234 H   0  0  0  0  0  0  0  0  0  0  0  0  # atno 10718 bound_to 10713
  153.4746  135.3693  155.2409 H   0  0  0  0  0  0  0  0  0  0  0  0  # atno 10763 bound_to 10752
  154.8756  135.3940  154.3771 H   0  0  0  0  0  0  0  0  0  0  0  0  # atno 10764 bound_to 10752
  153.4365  135.7083  153.6261 H   0  0  0  0  0  0  0  0  0  0  0  0  # atno 10765 bound_to 10752
  140.4476  134.6373  157.4786 H   0  0  0  0  0  0  0  0  0  0  0  0  # atno 11005 bound_to 11000
  146.3149  139.7884  142.8991 LP  0  0  0  0  0  0  0  0  0  0  0  0  # atno 17320 bound_to 7965
  145.3484  141.0302  143.3352 LP  0  0  0  0  0  0  0  0  0  0  0  0  # atno 17321 bound_to 7965
  139.8229  144.7287  150.9549 LP  0  0  0  0  0  0  0  0  0  0  0  0  # atno 17342 bound_to 10162
  140.7816  143.4142  151.0945 LP  0  0  0  0  0  0  0  0  0  0  0  0  # atno 17343 bound_to 10162
  157.6251  131.0926  150.8548 LP  0  0  0  0  0  0  0  0  0  0  0  0  # atno 17370 bound_to 10713
  156.8665  130.5131  149.5300 LP  0  0  0  0  0  0  0  0  0  0  0  0  # atno 17371 bound_to 10713
  140.0028  134.6810  155.9503 LP  0  0  0  0  0  0  0  0  0  0  0  0  # atno 17394 bound_to 11000
  141.1678  133.6537  156.4542 LP  0  0  0  0  0  0  0  0  0  0  0  0  # atno 17395 bound_to 11000

$$$$
