AV-unprocessed.smi:943|AV-procd|sdf|4230|dock10
  -GOLD-   22720 2143D 1   1.00000     0.00000
 Structure written by MMmdl.
 43 44  0  0  0  0  0  0  0  0  1 V2000
  152.2042  139.8230  159.3054 C   0  0  0  0  0  0  0  0  0  0  0  0
  153.5396  140.5731  159.4482 C   0  0  1  0  0  0  0  0  0  0  0  0
  153.4009  141.7566  160.4364 C   0  0  0  0  0  0  0  0  0  0  0  0
  152.3501  142.8353  160.0780 C   0  0  0  0  0  0  0  0  0  0  0  0
  152.3915  143.1432  158.5666 C   0  0  0  0  0  0  0  0  0  0  0  0
  151.3534  144.2042  158.1677 C   0  0  0  0  0  0  0  0  0  0  0  0
  151.5363  145.4934  158.9816 C   0  0  0  0  0  0  0  0  0  0  0  0
  151.4906  145.2031  160.4888 C   0  0  0  0  0  0  0  0  0  0  0  0
  152.5279  144.1399  160.8865 C   0  0  0  0  0  0  0  0  0  0  0  0
  154.6487  139.5964  159.8660 C   0  0  0  0  0  0  0  0  0  0  0  0
  155.6184  139.4053  159.1314 O   0  0  0  0  0  0  0  0  0  0  0  0
  154.4874  138.9783  161.0445 N   0  0  0  0  0  0  0  0  0  0  0  0
  155.4188  138.0062  161.5984 C   0  0  0  0  0  0  0  0  0  0  0  0
  155.4251  138.0765  163.1313 C   0  0  0  0  0  0  0  0  0  0  0  0
  155.3536  136.7185  163.7618 C   0  0  0  0  0  0  0  0  0  0  0  0
  154.3159  136.2104  164.5062 C   0  0  0  0  0  0  0  0  0  0  0  0
  154.6341  134.5845  165.0502 S   0  0  0  0  0  0  0  0  0  0  0  0
  156.1847  134.6654  164.2310 C   0  0  0  0  0  0  0  0  0  0  0  0
  156.4183  135.8230  163.6118 N   0  0  0  0  0  0  0  0  0  0  0  0
  152.2909  138.9849  158.6127 H   0  0  0  0  0  0  0  0  0  0  0  0
  151.4261  140.4831  158.9211 H   0  0  0  0  0  0  0  0  0  0  0  0
  151.8590  139.4299  160.2624 H   0  0  0  0  0  0  0  0  0  0  0  0
  153.7848  140.9710  158.4629 H   0  0  0  0  0  0  0  0  0  0  0  0
  153.1679  141.3588  161.4250 H   0  0  0  0  0  0  0  0  0  0  0  0
  154.3743  142.2388  160.5404 H   0  0  0  0  0  0  0  0  0  0  0  0
  151.3576  142.4386  160.2949 H   0  0  0  0  0  0  0  0  0  0  0  0
  153.3878  143.4891  158.2878 H   0  0  0  0  0  0  0  0  0  0  0  0
  152.2126  142.2316  157.9956 H   0  0  0  0  0  0  0  0  0  0  0  0
  151.4365  144.4225  157.1026 H   0  0  0  0  0  0  0  0  0  0  0  0
  150.3486  143.8106  158.3254 H   0  0  0  0  0  0  0  0  0  0  0  0
  152.4908  145.9557  158.7265 H   0  0  0  0  0  0  0  0  0  0  0  0
  150.7619  146.2139  158.7170 H   0  0  0  0  0  0  0  0  0  0  0  0
  151.6658  146.1216  161.0495 H   0  0  0  0  0  0  0  0  0  0  0  0
  150.4926  144.8594  160.7641 H   0  0  0  0  0  0  0  0  0  0  0  0
  152.4315  143.9433  161.9539 H   0  0  0  0  0  0  0  0  0  0  0  0
  153.5331  144.5352  160.7337 H   0  0  0  0  0  0  0  0  0  0  0  0
  153.6637  139.1908  161.5883 H   0  0  0  0  0  0  0  0  0  0  0  0
  155.1325  137.0050  161.2719 H   0  0  0  0  0  0  0  0  0  0  0  0
  156.4191  138.2012  161.2081 H   0  0  0  0  0  0  0  0  0  0  0  0
  156.3248  138.5934  163.4682 H   0  0  0  0  0  0  0  0  0  0  0  0
  154.5862  138.6864  163.4695 H   0  0  0  0  0  0  0  0  0  0  0  0
  153.3848  136.6926  164.7650 H   0  0  0  0  0  0  0  0  0  0  0  0
  156.9147  133.8698  164.2062 H   0  0  0  0  0  0  0  0  0  0  0  0
  1  2  1  0  0  0  0
  1 20  1  0  0  0  0
  1 21  1  0  0  0  0
  1 22  1  0  0  0  0
  2  3  1  0  0  0  0
  2 10  1  0  0  0  0
  2 23  1  0  0  0  0
  3  4  1  0  0  0  0
  3 24  1  0  0  0  0
  3 25  1  0  0  0  0
  4  9  1  0  0  0  0
  4  5  1  0  0  0  0
  4 26  1  0  0  0  0
  5  6  1  0  0  0  0
  5 27  1  0  0  0  0
  5 28  1  0  0  0  0
  6  7  1  0  0  0  0
  6 29  1  0  0  0  0
  6 30  1  0  0  0  0
  7  8  1  0  0  0  0
  7 31  1  0  0  0  0
  7 32  1  0  0  0  0
  8  9  1  0  0  0  0
  8 33  1  0  0  0  0
  8 34  1  0  0  0  0
  9 35  1  0  0  0  0
  9 36  1  0  0  0  0
 10 11  2  0  0  0  0
 10 12  1  0  0  0  0
 12 13  1  0  0  0  0
 12 37  1  0  0  0  0
 13 14  1  0  0  0  0
 13 38  1  0  0  0  0
 13 39  1  0  0  0  0
 14 15  1  0  0  0  0
 14 40  1  0  0  0  0
 14 41  1  0  0  0  0
 15 19  1  0  0  0  0
 15 16  2  0  0  0  0
 16 17  1  0  0  0  0
 16 42  1  0  0  0  0
 17 18  1  0  0  0  0
 18 19  2  0  0  0  0
 18 43  1  0  0  0  0
M  END
> <s_m_source_file>
AV-unprocessed.smi

> <i_m_source_file_index>
943

> <i_lp_mmshare_version>
43012

> <i_f3d_flags>
0

> <s_epik_input>
W0NIMl0xW0NIMl1bQ0gyXVtDSDJdW0NIMl1bQ0hdMVtDSDJdW0NAQEhdKFtDSDNdKUMoPU8pW05IXVtDSDJdW0NIMl1jMltjSF1zW2NIXW4y

> <s_epik_cmdline>
J2VwaWtfcHl0aG9uJywgJy1waCcsICc3LjAnLCAnLXRuJywgJzgnLCAnLW1hJywgJzIwMCcsICctbWV0YWxfYmluZGluZycsICctaW1hZScsICc8aW5maWxlLm1hZT4nLCAnLW9tYWUnLCAnPG91dGZpbGUubWFlPic=

> <r_lp_tautomer_probability>
1

> <r_epik_Ionization_Penalty>
0.000194757

> <r_epik_Ionization_Penalty_Charging>
0

> <r_epik_Ionization_Penalty_Neutral>
0.000194757

> <r_epik_State_Penalty>
-0

> <r_epik_Charging_Adjusted_Penalty>
0

> <i_epik_Tot_Q>
0

> <i_epik_Tot_abs_Q>
0

> <r_epik_Metal_State_Penalty>
-0

> <b_epik_Metal_Only>
0

> <s_lp_Force_Field>
OPLS_2005

> <r_lp_Energy>
6.44142

> <b_lp_Chiralities_Consistent>
1

> <s_lp_Variant>
AV-unprocessed.smi:943-2

> <Gold.Version>
5.8.1

> <Gold.Id.Protein>
6NUR|6NUR_protein|mol2

> <Gold.PLP.Fitness>
44.9573

> <Gold.PLP.PLP>
-43.2423

> <Gold.PLP.part.hbond>
-1.0000

> <Gold.PLP.part.metal>
0.0000

> <Gold.PLP.part.buried>
-2.2568

> <Gold.PLP.part.nonpolar>
-38.3055

> <Gold.PLP.part.repulsive>
0.0381

> <Gold.PLP.ligand.clash>
0.0000

> <Gold.PLP.ligand.torsion>
0.7013

> <Gold.PLP.Chemscore.Hbond>
1.0000

> <Gold.PLP.Chemscore.CHOScore>
0.0000

> <Gold.PLP.Chemscore.Metal>
0.0000

> <Gold.Chemscore.Hbonds>
donor molecule, donor type, donor heavy atom, donor atom, acceptor molecule, acceptor atom, score
      P1  H  7997  8008       L1    11  0.93

> <Gold.PLP.Chemscore.Internal.Correction>
0.1175

> <Gold.Rescore>
     Score         DG    S(hbond)    S(metal)    S(lipo)     H(rot)  DE(clash)    DE(int)     intcor
     19.87     -20.80       0.93        0.00     138.97       1.58       0.10       0.82       ----

> <Gold.Chemscore.Fitness>
19.8689

> <Gold.Chemscore.DG>
-20.7954

> <Gold.Chemscore.ZeroCoef>
-5.4800

> <Gold.Chemscore.Hbond>
0.9276

> <Gold.Chemscore.Metal>
0.0000

> <Gold.Chemscore.Lipo>
138.9677

> <Gold.Chemscore.Internal_Hbond>
0.0000

> <Gold.Chemscore.DEClash>
0.1030

> <Gold.Chemscore.DEInternal>
0.8235

> <Gold.Chemscore.Rot>
1.5789

> <Gold.Chemscore.Internal.Correction>
   9.000000E+99

> <Gold.Chemscore.Hbonds>
donor molecule, donor type, donor heavy atom, donor atom, acceptor molecule, acceptor atom, score
      P1  H  7997  8008       L1    11  0.87

> <Gold.Chemscore.Hbond.Weighted>
-3.0981

> <Gold.Chemscore.Metal.Weighted>
-0.0000

> <Gold.Chemscore.Lipo.Weighted>
-16.2592

> <Gold.Chemscore.Internal_Hbond.Weighted>
0.0000

> <Gold.Chemscore.DEClash.Weighted>
0.1030

> <Gold.Chemscore.DEInternal.Weighted>
0.8235

> <Gold.Chemscore.Rot.Weighted>
4.0419

> <Gold.Chemscore.Internal.Correction.Weighted>
   9.000000E+99

> <Gold.Protein.RotatedTorsions>
[ 6907 6896 6895 6894 ] final   91.16 input  -60.11 | X-H torsion
[ 7974 7965 7964 7962 ] final  -13.59 input  175.53 | X-H torsion
[ 8008 7997 7996 7995 ] final -161.71 input   59.86 | X-H torsion
[ 10167 10162 10161 10158 ] final   57.79 input  -65.29 | X-H torsion
[ 10718 10713 10712 10709 ] final  179.19 input   66.30 | X-H torsion
[ 10763 10752 10751 10750 ] final  156.35 input  -60.55 | X-H torsion
[ 11005 11000 10999 10996 ] final  103.08 input  -57.11 | X-H torsion

> <Gold.Protein.ActiveResidues>
 VAL166  LYS551  ARG553  GLY616  TRP617  ASP618  TYR619  PRO620  LYS621  CYS622 
 ASP623  PHE694  ASN695  SER759  ASP760  ASP761  ALA762  ILE779  LEU786  VAL792 
 PHE793  MET794  SER795  GLU796  ALA797  LYS798  CYS799  TRP800  GLU811  SER814 

> <Gold.Protein.RotatedAtoms>
  152.5448  134.1700  159.8592 H   0  0  0  0  0  0  0  0  0  0  0  0  # atno 6907 bound_to 6896
  151.1711  133.4777  159.2601 H   0  0  0  0  0  0  0  0  0  0  0  0  # atno 6908 bound_to 6896
  151.1274  135.0123  159.8622 H   0  0  0  0  0  0  0  0  0  0  0  0  # atno 6909 bound_to 6896
  146.2108  140.3225  142.8392 H   0  0  0  0  0  0  0  0  0  0  0  0  # atno 7974 bound_to 7965
  155.7962  140.0885  157.1982 H   0  0  0  0  0  0  0  0  0  0  0  0  # atno 8008 bound_to 7997
  154.3983  140.1481  156.3280 H   0  0  0  0  0  0  0  0  0  0  0  0  # atno 8009 bound_to 7997
  155.8508  140.3434  155.5695 H   0  0  0  0  0  0  0  0  0  0  0  0  # atno 8010 bound_to 7997
  140.1942  144.4054  150.6557 H   0  0  0  0  0  0  0  0  0  0  0  0  # atno 10167 bound_to 10162
  156.8794  130.9810  151.3064 H   0  0  0  0  0  0  0  0  0  0  0  0  # atno 10718 bound_to 10713
  154.1829  135.2798  155.3046 H   0  0  0  0  0  0  0  0  0  0  0  0  # atno 10763 bound_to 10752
  154.5988  135.5536  153.7356 H   0  0  0  0  0  0  0  0  0  0  0  0  # atno 10764 bound_to 10752
  153.0133  135.6386  154.1968 H   0  0  0  0  0  0  0  0  0  0  0  0  # atno 10765 bound_to 10752
  139.8781  134.9249  156.5155 H   0  0  0  0  0  0  0  0  0  0  0  0  # atno 11005 bound_to 11000
  144.8910  140.7523  143.5927 LP  0  0  0  0  0  0  0  0  0  0  0  0  # atno 17320 bound_to 7965
  145.3148  139.1807  143.4619 LP  0  0  0  0  0  0  0  0  0  0  0  0  # atno 17321 bound_to 7965
  140.6435  143.2208  151.6238 LP  0  0  0  0  0  0  0  0  0  0  0  0  # atno 17342 bound_to 10162
  139.5243  144.3107  152.0995 LP  0  0  0  0  0  0  0  0  0  0  0  0  # atno 17343 bound_to 10162
  157.6149  130.8611  149.9012 LP  0  0  0  0  0  0  0  0  0  0  0  0  # atno 17370 bound_to 10713
  156.0685  130.3688  150.0826 LP  0  0  0  0  0  0  0  0  0  0  0  0  # atno 17371 bound_to 10713
  140.8488  133.8148  155.9148 LP  0  0  0  0  0  0  0  0  0  0  0  0  # atno 17394 bound_to 11000
  140.9164  134.2196  157.4954 LP  0  0  0  0  0  0  0  0  0  0  0  0  # atno 17395 bound_to 11000

$$$$
