AV-unprocessed.smi:3221|AV-procd|sdf|12302|dock4
  -GOLD-   2272018143D 1   1.00000     0.00000
 Structure written by MMmdl.
 27 28  0  0  0  0  0  0  0  0  2 V2000
  155.2408  140.3714  163.0903 F   0  0  0  0  0  0  0  0  0  0  0  0
  154.9050  139.9755  161.8625 C   0  0  0  0  0  0  0  0  0  0  0  0
  156.0311  139.8318  161.1643 F   0  0  0  0  0  0  0  0  0  0  0  0
  154.3372  138.7744  161.9687 F   0  0  0  0  0  0  0  0  0  0  0  0
  153.9783  140.9536  161.2000 C   0  0  0  0  0  0  0  0  0  0  0  0
  153.4563  142.1029  161.7419 C   0  0  0  0  0  0  0  0  0  0  0  0
  152.4156  142.9393  160.6228 S   0  0  0  0  0  0  0  0  0  0  0  0
  152.7284  141.6779  159.4364 C   0  0  0  0  0  0  0  0  0  0  0  0
  152.1279  141.6736  158.0664 C   0  0  1  0  0  0  0  0  0  0  0  0
  151.3513  140.3778  157.7665 C   0  0  0  0  0  0  0  0  0  0  0  0
  150.7557  140.4245  156.3509 C   0  0  0  0  0  0  0  0  0  0  0  0
  149.9098  141.6932  156.1518 C   0  0  0  0  0  0  0  0  0  0  0  0
  150.7119  142.9050  156.4284 N   0  3  0  0  0  0  0  0  0  0  0  0
  151.2725  142.9284  157.7975 C   0  0  0  0  0  0  0  0  0  0  0  0
  153.5557  140.7295  159.8851 N   0  0  0  0  0  0  0  0  0  0  0  0
  153.6199  142.5062  162.7304 H   0  0  0  0  0  0  0  0  0  0  0  0
  152.9656  141.7075  157.3680 H   0  0  0  0  0  0  0  0  0  0  0  0
  152.0059  139.5112  157.8666 H   0  0  0  0  0  0  0  0  0  0  0  0
  150.5483  140.2483  158.4934 H   0  0  0  0  0  0  0  0  0  0  0  0
  151.5593  140.3997  155.6135 H   0  0  0  0  0  0  0  0  0  0  0  0
  150.1466  139.5377  156.1734 H   0  0  0  0  0  0  0  0  0  0  0  0
  149.5335  141.7412  155.1297 H   0  0  0  0  0  0  0  0  0  0  0  0
  149.0412  141.6783  156.8117 H   0  0  0  0  0  0  0  0  0  0  0  0
  151.4752  142.9420  155.7681 H   0  0  0  0  0  0  0  0  0  0  0  0
  150.4509  142.9920  158.5127 H   0  0  0  0  0  0  0  0  0  0  0  0
  151.8712  143.8317  157.9181 H   0  0  0  0  0  0  0  0  0  0  0  0
  150.1300  143.7204  156.2992 H   0  0  0  0  0  0  0  0  0  0  0  0
  1  2  1  0  0  0  0
  2  3  1  0  0  0  0
  2  4  1  0  0  0  0
  2  5  1  0  0  0  0
  5 15  1  0  0  0  0
  5  6  2  0  0  0  0
  6  7  1  0  0  0  0
  6 16  1  0  0  0  0
  7  8  1  0  0  0  0
  8  9  1  0  0  0  0
  8 15  2  0  0  0  0
  9 14  1  0  0  0  0
  9 10  1  0  0  0  0
  9 17  1  0  0  0  0
 10 11  1  0  0  0  0
 10 18  1  0  0  0  0
 10 19  1  0  0  0  0
 11 12  1  0  0  0  0
 11 20  1  0  0  0  0
 11 21  1  0  0  0  0
 12 13  1  0  0  0  0
 12 22  1  0  0  0  0
 12 23  1  0  0  0  0
 13 14  1  0  0  0  0
 13 24  1  0  0  0  0
 13 27  1  0  0  0  0
 14 25  1  0  0  0  0
 14 26  1  0  0  0  0
M  CHG  1  13   1
M  END
> <s_m_source_file>
AV-unprocessed.smi

> <i_m_source_file_index>
3221

> <i_lp_mmshare_version>
43012

> <i_f3d_flags>
0

> <s_epik_input>
RkMoRikoRiljMVtjSF1zYyhuMSlbQ0BASF0yW0NIMl1bQ0gyXVtDSDJdW05IXVtDSDJdMg==

> <s_epik_cmdline>
J2VwaWtfcHl0aG9uJywgJy1waCcsICc3LjAnLCAnLXRuJywgJzgnLCAnLW1hJywgJzIwMCcsICctbWV0YWxfYmluZGluZycsICctaW1hZScsICc8aW5maWxlLm1hZT4nLCAnLW9tYWUnLCAnPG91dGZpbGUubWFlPic=

> <r_epik_Ionization_Penalty>
0.000426856

> <r_epik_Ionization_Penalty_Charging>
0.000426856

> <r_epik_Ionization_Penalty_Neutral>
2.38238e-11

> <r_epik_State_Penalty>
0.00026276

> <r_epik_Charging_Adjusted_Penalty>
0.000689616

> <i_epik_Tot_Q>
1

> <i_epik_Tot_abs_Q>
1

> <r_epik_Metal_State_Penalty>
-0

> <b_epik_Metal_Only>
0

> <s_lp_Force_Field>
OPLS_2005

> <r_lp_Energy>
6.82196

> <b_lp_Chiralities_Consistent>
1

> <s_lp_Variant>
AV-unprocessed.smi:3221-2

> <Gold.Version>
5.8.1

> <Gold.Id.Protein>
6NUR|6NUR_protein|mol2

> <Gold.PLP.Fitness>
38.0856

> <Gold.PLP.PLP>
-32.1218

> <Gold.PLP.part.hbond>
-1.0000

> <Gold.PLP.part.metal>
0.0000

> <Gold.PLP.part.buried>
-3.6181

> <Gold.PLP.part.nonpolar>
-27.5427

> <Gold.PLP.part.repulsive>
0.0850

> <Gold.PLP.ligand.clash>
0.0000

> <Gold.PLP.ligand.torsion>
0.0445

> <Gold.PLP.Chemscore.Hbond>
2.0000

> <Gold.PLP.Chemscore.CHOScore>
0.0000

> <Gold.PLP.Chemscore.Metal>
0.0000

> <Gold.Chemscore.Hbonds>
donor molecule, donor type, donor heavy atom, donor atom, acceptor molecule, acceptor atom, score
      L1  H    13    27       P1  8028  2.00

> <Gold.PLP.Chemscore.Internal.Correction>
0.0528

> <Gold.Rescore>
     Score         DG    S(hbond)    S(metal)    S(lipo)     H(rot)  DE(clash)    DE(int)     intcor
     15.89     -15.93       1.00        0.00      82.64       1.00       0.00       0.04       ----

> <Gold.Chemscore.Fitness>
15.8861

> <Gold.Chemscore.DG>
-15.9263

> <Gold.Chemscore.ZeroCoef>
-5.4800

> <Gold.Chemscore.Hbond>
0.9992

> <Gold.Chemscore.Metal>
0.0000

> <Gold.Chemscore.Lipo>
82.6399

> <Gold.Chemscore.Internal_Hbond>
0.0000

> <Gold.Chemscore.DEClash>
0.0007

> <Gold.Chemscore.DEInternal>
0.0395

> <Gold.Chemscore.Rot>
1.0000

> <Gold.Chemscore.Internal.Correction>
   9.000000E+99

> <Gold.Chemscore.Hbonds>
donor molecule, donor type, donor heavy atom, donor atom, acceptor molecule, acceptor atom, score
      L1  H    13    27       P1  8028  1.00

> <Gold.Chemscore.Hbond.Weighted>
-3.3374

> <Gold.Chemscore.Metal.Weighted>
-0.0000

> <Gold.Chemscore.Lipo.Weighted>
-9.6689

> <Gold.Chemscore.Internal_Hbond.Weighted>
0.0000

> <Gold.Chemscore.DEClash.Weighted>
0.0007

> <Gold.Chemscore.DEInternal.Weighted>
0.0395

> <Gold.Chemscore.Rot.Weighted>
2.5600

> <Gold.Chemscore.Internal.Correction.Weighted>
   9.000000E+99

> <Gold.Protein.RotatedTorsions>
[ 6907 6896 6895 6894 ] final  -24.65 input  -60.11 | X-H torsion
[ 7974 7965 7964 7962 ] final   79.33 input  175.53 | X-H torsion
[ 8008 7997 7996 7995 ] final   17.46 input   59.86 | X-H torsion
[ 10167 10162 10161 10158 ] final  -20.10 input  -65.29 | X-H torsion
[ 10718 10713 10712 10709 ] final  -71.44 input   66.30 | X-H torsion
[ 10763 10752 10751 10750 ] final   25.14 input  -60.55 | X-H torsion
[ 11005 11000 10999 10996 ] final -155.14 input  -57.11 | X-H torsion

> <Gold.Protein.ActiveResidues>
 VAL166  LYS551  ARG553  GLY616  TRP617  ASP618  TYR619  PRO620  LYS621  CYS622 
 ASP623  PHE694  ASN695  SER759  ASP760  ASP761  ALA762  ILE779  LEU786  VAL792 
 PHE793  MET794  SER795  GLU796  ALA797  LYS798  CYS799  TRP800  GLU811  SER814 

> <Gold.Protein.RotatedAtoms>
  151.1865  135.0384  159.8814 H   0  0  0  0  0  0  0  0  0  0  0  0  # atno 6907 bound_to 6896
  152.5442  134.1004  159.8325 H   0  0  0  0  0  0  0  0  0  0  0  0  # atno 6908 bound_to 6896
  151.1128  133.5114  159.2637 H   0  0  0  0  0  0  0  0  0  0  0  0  # atno 6909 bound_to 6896
  145.6656  139.2483  143.1897 H   0  0  0  0  0  0  0  0  0  0  0  0  # atno 7974 bound_to 7965
  154.8917  140.2988  155.5367 H   0  0  0  0  0  0  0  0  0  0  0  0  # atno 8008 bound_to 7997
  156.3021  140.2423  156.3868 H   0  0  0  0  0  0  0  0  0  0  0  0  # atno 8009 bound_to 7997
  154.8612  140.0405  157.1655 H   0  0  0  0  0  0  0  0  0  0  0  0  # atno 8010 bound_to 7997
  140.7273  143.4754  151.0189 H   0  0  0  0  0  0  0  0  0  0  0  0  # atno 10167 bound_to 10162
  156.0363  130.4351  150.2445 H   0  0  0  0  0  0  0  0  0  0  0  0  # atno 10718 bound_to 10713
  153.0713  135.6590  154.0241 H   0  0  0  0  0  0  0  0  0  0  0  0  # atno 10763 bound_to 10752
  153.9886  135.2948  155.3415 H   0  0  0  0  0  0  0  0  0  0  0  0  # atno 10764 bound_to 10752
  154.7089  135.5214  153.8706 H   0  0  0  0  0  0  0  0  0  0  0  0  # atno 10765 bound_to 10752
  140.6897  134.4055  157.5220 H   0  0  0  0  0  0  0  0  0  0  0  0  # atno 11005 bound_to 11000
  146.1088  140.7453  142.9513 LP  0  0  0  0  0  0  0  0  0  0  0  0  # atno 17320 bound_to 7965
  144.7074  140.3906  143.7107 LP  0  0  0  0  0  0  0  0  0  0  0  0  # atno 17321 bound_to 7965
  139.8449  143.7514  152.3179 LP  0  0  0  0  0  0  0  0  0  0  0  0  # atno 17342 bound_to 10162
  139.7676  144.7487  151.0271 LP  0  0  0  0  0  0  0  0  0  0  0  0  # atno 17343 bound_to 10162
  157.0544  131.0072  151.3243 LP  0  0  0  0  0  0  0  0  0  0  0  0  # atno 17370 bound_to 10713
  157.5117  130.7942  149.7712 LP  0  0  0  0  0  0  0  0  0  0  0  0  # atno 17371 bound_to 10713
  139.8927  134.8748  156.2258 LP  0  0  0  0  0  0  0  0  0  0  0  0  # atno 17394 bound_to 11000
  141.0251  133.7019  156.1334 LP  0  0  0  0  0  0  0  0  0  0  0  0  # atno 17395 bound_to 11000

$$$$
