AV-unprocessed.smi:1530|AV-procd|sdf|6155|dock4
  -GOLD-   22720 6303D 1   1.00000     0.00000
 Structure written by MMmdl.
 42 43  0  0  0  0  0  0  0  0  1 V2000
  146.9220  137.7755  163.2463 C   0  0  0  0  0  0  0  0  0  0  0  0
  147.4757  137.2330  162.0524 O   0  0  0  0  0  0  0  0  0  0  0  0
  147.3321  135.8791  161.8136 C   0  0  0  0  0  0  0  0  0  0  0  0
  146.6881  135.1268  162.7410 N   0  0  0  0  0  0  0  0  0  0  0  0
  146.5415  133.8067  162.5092 C   0  0  0  0  0  0  0  0  0  0  0  0
  147.0197  133.1719  161.3490 C   0  0  0  0  0  0  0  0  0  0  0  0
  147.6874  133.9495  160.3849 C   0  0  0  0  0  0  0  0  0  0  0  0
  147.8605  135.3365  160.6183 C   0  0  0  0  0  0  0  0  0  0  0  0
  148.5100  136.2280  159.7176 N   0  0  0  0  0  0  0  0  0  0  0  0
  149.2339  135.9576  158.6178 C   0  0  0  0  0  0  0  0  0  0  0  0
  149.4683  134.8352  158.1720 O   0  0  0  0  0  0  0  0  0  0  0  0
  149.6834  137.0867  158.0521 N   0  0  0  0  0  0  0  0  0  0  0  0
  150.4791  137.1729  156.8259 C   0  0  0  0  0  0  0  0  0  0  0  0
  151.3910  138.4357  156.7460 C   0  0  0  0  0  0  0  0  0  0  0  0
  152.3743  138.4189  157.9489 C   0  0  0  0  0  0  0  0  0  0  0  0
  151.8721  138.3279  159.1851 N   0  0  0  0  0  0  0  0  0  0  0  0
  153.5886  138.5004  157.7670 O   0  0  0  0  0  0  0  0  0  0  0  0
  152.1706  138.4467  155.3997 C   0  0  0  0  0  0  0  0  0  0  0  0
  151.2798  138.7748  154.1869 C   0  0  0  0  0  0  0  0  0  0  0  0
  150.6167  140.0150  154.3872 O   0  0  0  0  0  0  0  0  0  0  0  0
  149.7506  139.9948  155.5132 C   0  0  0  0  0  0  0  0  0  0  0  0
  150.5667  139.7529  156.7945 C   0  0  0  0  0  0  0  0  0  0  0  0
  147.1182  138.8471  163.2791 H   0  0  0  0  0  0  0  0  0  0  0  0
  147.3721  137.3298  164.1343 H   0  0  0  0  0  0  0  0  0  0  0  0
  145.8406  137.6362  163.2837 H   0  0  0  0  0  0  0  0  0  0  0  0
  146.0234  133.2403  163.2688 H   0  0  0  0  0  0  0  0  0  0  0  0
  146.8744  132.1122  161.1998 H   0  0  0  0  0  0  0  0  0  0  0  0
  148.0387  133.4622  159.4900 H   0  0  0  0  0  0  0  0  0  0  0  0
  148.4447  137.2040  159.9683 H   0  0  0  0  0  0  0  0  0  0  0  0
  149.4380  137.9625  158.4906 H   0  0  0  0  0  0  0  0  0  0  0  0
  151.0984  136.2760  156.7858 H   0  0  0  0  0  0  0  0  0  0  0  0
  149.8297  137.1034  155.9537 H   0  0  0  0  0  0  0  0  0  0  0  0
  152.4916  138.3211  159.9823 H   0  0  0  0  0  0  0  0  0  0  0  0
  150.8726  138.2720  159.3170 H   0  0  0  0  0  0  0  0  0  0  0  0
  152.9673  139.1918  155.4371 H   0  0  0  0  0  0  0  0  0  0  0  0
  152.6582  137.4856  155.2299 H   0  0  0  0  0  0  0  0  0  0  0  0
  151.8935  138.8520  153.2894 H   0  0  0  0  0  0  0  0  0  0  0  0
  150.5525  137.9856  153.9956 H   0  0  0  0  0  0  0  0  0  0  0  0
  149.2408  140.9563  155.5757 H   0  0  0  0  0  0  0  0  0  0  0  0
  148.9758  139.2388  155.3820 H   0  0  0  0  0  0  0  0  0  0  0  0
  149.8974  139.7710  157.6551 H   0  0  0  0  0  0  0  0  0  0  0  0
  151.2397  140.6018  156.9277 H   0  0  0  0  0  0  0  0  0  0  0  0
  1  2  1  0  0  0  0
  1 23  1  0  0  0  0
  1 24  1  0  0  0  0
  1 25  1  0  0  0  0
  2  3  1  0  0  0  0
  3  8  1  0  0  0  0
  3  4  2  0  0  0  0
  4  5  1  0  0  0  0
  5  6  2  0  0  0  0
  5 26  1  0  0  0  0
  6  7  1  0  0  0  0
  6 27  1  0  0  0  0
  7  8  2  0  0  0  0
  7 28  1  0  0  0  0
  8  9  1  0  0  0  0
  9 10  1  0  0  0  0
  9 29  1  0  0  0  0
 10 11  2  0  0  0  0
 10 12  1  0  0  0  0
 12 13  1  0  0  0  0
 12 30  1  0  0  0  0
 13 14  1  0  0  0  0
 13 31  1  0  0  0  0
 13 32  1  0  0  0  0
 14 22  1  0  0  0  0
 14 15  1  0  0  0  0
 14 18  1  0  0  0  0
 15 16  1  0  0  0  0
 15 17  2  0  0  0  0
 16 33  1  0  0  0  0
 16 34  1  0  0  0  0
 18 19  1  0  0  0  0
 18 35  1  0  0  0  0
 18 36  1  0  0  0  0
 19 20  1  0  0  0  0
 19 37  1  0  0  0  0
 19 38  1  0  0  0  0
 20 21  1  0  0  0  0
 21 22  1  0  0  0  0
 21 39  1  0  0  0  0
 21 40  1  0  0  0  0
 22 41  1  0  0  0  0
 22 42  1  0  0  0  0
M  END
> <s_m_source_file>
AV-unprocessed.smi

> <i_m_source_file_index>
1530

> <i_lp_mmshare_version>
43012

> <i_f3d_flags>
0

> <s_epik_input>
W0NIM11PYzFuW2NIXVtjSF1bY0hdYzFbTkhdQyg9TylbTkhdW0NIMl1DMihDKD1PKVtOSDJdKVtDSDJdW0NIMl1PW0NIMl1bQ0gyXTI=

> <s_epik_cmdline>
J2VwaWtfcHl0aG9uJywgJy1waCcsICc3LjAnLCAnLXRuJywgJzgnLCAnLW1hJywgJzIwMCcsICctbWV0YWxfYmluZGluZycsICctaW1hZScsICc8aW5maWxlLm1hZT4nLCAnLW9tYWUnLCAnPG91dGZpbGUubWFlPic=

> <r_lp_tautomer_probability>
1

> <r_epik_Ionization_Penalty>
8.83779e-05

> <r_epik_Ionization_Penalty_Charging>
0

> <r_epik_Ionization_Penalty_Neutral>
8.83779e-05

> <r_epik_State_Penalty>
-0

> <r_epik_Charging_Adjusted_Penalty>
0

> <i_epik_Tot_Q>
0

> <i_epik_Tot_abs_Q>
0

> <r_epik_Metal_State_Penalty>
-0

> <b_epik_Metal_Only>
0

> <s_lp_Force_Field>
OPLS_2005

> <r_lp_Energy>
14.5365

> <b_lp_Chiralities_Consistent>
1

> <s_lp_Variant>
AV-unprocessed.smi:1530-1

> <Gold.Version>
5.8.1

> <Gold.Id.Protein>
6NUR|6NUR_protein|mol2

> <Gold.PLP.Fitness>
41.1774

> <Gold.PLP.PLP>
-29.0321

> <Gold.PLP.part.hbond>
-5.0000

> <Gold.PLP.part.metal>
0.0000

> <Gold.PLP.part.buried>
-2.3058

> <Gold.PLP.part.nonpolar>
-21.2351

> <Gold.PLP.part.repulsive>
0.5005

> <Gold.PLP.ligand.clash>
0.0000

> <Gold.PLP.ligand.torsion>
0.3043

> <Gold.PLP.Chemscore.Hbond>
4.2449

> <Gold.PLP.Chemscore.CHOScore>
0.0000

> <Gold.PLP.Chemscore.Metal>
0.0000

> <Gold.Chemscore.Hbonds>
donor molecule, donor type, donor heavy atom, donor atom, acceptor molecule, acceptor atom, score
      P1  H  6896  6907       L1    11  1.00
      P1  H  6931  6943       L1     2  0.90
      P1  H  6934  6947       L1     2  0.33
      P1  H  7989  7998       L1    20  0.75
      P1  H  7997  8010       L1    17  1.00

> <Gold.PLP.Chemscore.Internal.Correction>
0.0191

> <Gold.Rescore>
     Score         DG    S(hbond)    S(metal)    S(lipo)     H(rot)  DE(clash)    DE(int)     intcor
     13.25     -16.23       2.54        0.00      68.14       2.23       0.31       2.67       ----

> <Gold.Chemscore.Fitness>
13.2490

> <Gold.Chemscore.DG>
-16.2343

> <Gold.Chemscore.ZeroCoef>
-5.4800

> <Gold.Chemscore.Hbond>
2.5416

> <Gold.Chemscore.Metal>
0.0000

> <Gold.Chemscore.Lipo>
68.1431

> <Gold.Chemscore.Internal_Hbond>
0.0000

> <Gold.Chemscore.DEClash>
0.3133

> <Gold.Chemscore.DEInternal>
2.6720

> <Gold.Chemscore.Rot>
2.2294

> <Gold.Chemscore.Internal.Correction>
   9.000000E+99

> <Gold.Chemscore.Hbonds>
donor molecule, donor type, donor heavy atom, donor atom, acceptor molecule, acceptor atom, score
      P1  H  6896  6907       L1    11  0.53
      P1  H  6931  6943       L1     2  0.23
      P1  H  6934  6947       L1     2  0.03
      P1  H  7989  7998       L1    20  0.09
      P1  H  7997  8010       L1    17  0.95

> <Gold.Chemscore.Hbond.Weighted>
-8.4889

> <Gold.Chemscore.Metal.Weighted>
-0.0000

> <Gold.Chemscore.Lipo.Weighted>
-7.9727

> <Gold.Chemscore.Internal_Hbond.Weighted>
0.0000

> <Gold.Chemscore.DEClash.Weighted>
0.3133

> <Gold.Chemscore.DEInternal.Weighted>
2.6720

> <Gold.Chemscore.Rot.Weighted>
5.7073

> <Gold.Chemscore.Internal.Correction.Weighted>
   9.000000E+99

> <Gold.Protein.RotatedTorsions>
[ 6907 6896 6895 6894 ] final -103.45 input  -60.11 | X-H torsion
[ 7974 7965 7964 7962 ] final -140.28 input  175.53 | X-H torsion
[ 8008 7997 7996 7995 ] final   25.00 input   59.86 | X-H torsion
[ 10167 10162 10161 10158 ] final   62.66 input  -65.29 | X-H torsion
[ 10718 10713 10712 10709 ] final  -15.38 input   66.30 | X-H torsion
[ 10763 10752 10751 10750 ] final -144.14 input  -60.55 | X-H torsion
[ 11005 11000 10999 10996 ] final -177.90 input  -57.11 | X-H torsion

> <Gold.Protein.ActiveResidues>
 VAL166  LYS551  ARG553  GLY616  TRP617  ASP618  TYR619  PRO620  LYS621  CYS622 
 ASP623  PHE694  ASN695  SER759  ASP760  ASP761  ALA762  ILE779  LEU786  VAL792 
 PHE793  MET794  SER795  GLU796  ALA797  LYS798  CYS799  TRP800  GLU811  SER814 

> <Gold.Protein.RotatedAtoms>
  150.7241  134.0428  159.3771 H   0  0  0  0  0  0  0  0  0  0  0  0  # atno 6907 bound_to 6896
  151.8402  135.0590  160.0456 H   0  0  0  0  0  0  0  0  0  0  0  0  # atno 6908 bound_to 6896
  152.2868  133.5487  159.5569 H   0  0  0  0  0  0  0  0  0  0  0  0  # atno 6909 bound_to 6896
  144.8610  140.6219  143.5328 H   0  0  0  0  0  0  0  0  0  0  0  0  # atno 7974 bound_to 7965
  155.0049  140.3129  155.4852 H   0  0  0  0  0  0  0  0  0  0  0  0  # atno 8008 bound_to 7997
  156.2919  140.2225  156.5102 H   0  0  0  0  0  0  0  0  0  0  0  0  # atno 8009 bound_to 7997
  154.7585  140.0461  157.0942 H   0  0  0  0  0  0  0  0  0  0  0  0  # atno 8010 bound_to 7997
  140.1415  144.4548  150.6808 H   0  0  0  0  0  0  0  0  0  0  0  0  # atno 10167 bound_to 10162
  156.6026  130.4828  149.6233 H   0  0  0  0  0  0  0  0  0  0  0  0  # atno 10718 bound_to 10713
  154.8440  135.3448  154.6299 H   0  0  0  0  0  0  0  0  0  0  0  0  # atno 10763 bound_to 10752
  153.6909  135.6975  153.5095 H   0  0  0  0  0  0  0  0  0  0  0  0  # atno 10764 bound_to 10752
  153.2596  135.4327  155.0836 H   0  0  0  0  0  0  0  0  0  0  0  0  # atno 10765 bound_to 10752
  140.4358  134.6477  157.4734 H   0  0  0  0  0  0  0  0  0  0  0  0  # atno 11005 bound_to 11000
  145.4313  139.1549  143.4021 LP  0  0  0  0  0  0  0  0  0  0  0  0  # atno 17320 bound_to 7965
  146.2860  140.4429  142.8758 LP  0  0  0  0  0  0  0  0  0  0  0  0  # atno 17321 bound_to 7965
  140.6757  143.2304  151.5513 LP  0  0  0  0  0  0  0  0  0  0  0  0  # atno 17342 bound_to 10162
  139.5469  144.2496  152.1459 LP  0  0  0  0  0  0  0  0  0  0  0  0  # atno 17343 bound_to 10162
  156.2456  130.6877  151.1597 LP  0  0  0  0  0  0  0  0  0  0  0  0  # atno 17370 bound_to 10713
  157.7275  131.0638  150.5860 LP  0  0  0  0  0  0  0  0  0  0  0  0  # atno 17371 bound_to 10713
  140.0103  134.6700  155.9390 LP  0  0  0  0  0  0  0  0  0  0  0  0  # atno 17394 bound_to 11000
  141.1726  133.6538  156.4710 LP  0  0  0  0  0  0  0  0  0  0  0  0  # atno 17395 bound_to 11000

$$$$
