AV-unprocessed.smi:3145|AV-procd|sdf|11981|dock9
  -GOLD-   2272017383D 1   1.00000     0.00000
 Structure written by MMmdl.
 34 34  0  0  0  0  0  0  0  0  1 V2000
  150.2140  144.2963  159.0098 C   0  0  0  0  0  0  0  0  0  0  0  0
  150.8062  142.9249  158.6564 C   0  0  2  0  0  0  0  0  0  0  0  0
  152.3422  142.9227  158.8283 C   0  0  0  0  0  0  0  0  0  0  0  0
  152.7676  142.6391  160.1883 N   0  0  0  0  0  0  0  0  0  0  0  0
  152.5300  143.3752  161.3298 C   0  0  0  0  0  0  0  0  0  0  0  0
  153.1131  142.7107  162.3705 C   0  0  0  0  0  0  0  0  0  0  0  0
  153.6949  141.5659  161.7577 C   0  0  0  0  0  0  0  0  0  0  0  0
  153.4890  141.5268  160.4514 N   0  0  0  0  0  0  0  0  0  0  0  0
  150.4543  142.6384  157.2692 N   0  0  0  0  0  0  0  0  0  0  0  0
  149.7794  141.3431  157.1197 C   0  0  0  0  0  0  0  0  0  0  0  0
  149.8711  140.8316  155.6853 C   0  0  0  0  0  0  0  0  0  0  0  0
  150.9635  140.5474  155.1953 O   0  0  0  0  0  0  0  0  0  0  0  0
  148.7102  140.7264  155.0231 N   0  0  0  0  0  0  0  0  0  0  0  0
  148.5786  140.2702  153.6479 C   0  0  0  0  0  0  0  0  0  0  0  0
  147.1009  140.2015  153.2490 C   0  0  0  0  0  0  0  0  0  0  0  0
  146.8783  139.3953  152.0395 C   0  0  0  0  0  0  0  0  0  0  0  0
  146.7033  138.7612  151.0877 N   0  0  0  0  0  0  0  0  0  0  0  0
  150.4323  144.5602  160.0451 H   0  0  0  0  0  0  0  0  0  0  0  0
  149.1295  144.3004  158.8942 H   0  0  0  0  0  0  0  0  0  0  0  0
  150.6205  145.0846  158.3749 H   0  0  0  0  0  0  0  0  0  0  0  0
  150.3582  142.1912  159.3296 H   0  0  0  0  0  0  0  0  0  0  0  0
  152.8039  142.2012  158.1516 H   0  0  0  0  0  0  0  0  0  0  0  0
  152.7454  143.8985  158.5550 H   0  0  0  0  0  0  0  0  0  0  0  0
  151.9677  144.2973  161.3064 H   0  0  0  0  0  0  0  0  0  0  0  0
  153.1224  142.9984  163.4111 H   0  0  0  0  0  0  0  0  0  0  0  0
  154.2565  140.7675  162.2199 H   0  0  0  0  0  0  0  0  0  0  0  0
  149.8851  143.3872  156.9012 H   0  0  0  0  0  0  0  0  0  0  0  0
  150.2295  140.5954  157.7730 H   0  0  0  0  0  0  0  0  0  0  0  0
  148.7345  141.4390  157.4180 H   0  0  0  0  0  0  0  0  0  0  0  0
  147.8619  140.9763  155.5116 H   0  0  0  0  0  0  0  0  0  0  0  0
  149.1133  140.9532  152.9860 H   0  0  0  0  0  0  0  0  0  0  0  0
  149.0411  139.2873  153.5433 H   0  0  0  0  0  0  0  0  0  0  0  0
  146.5075  139.7671  154.0541 H   0  0  0  0  0  0  0  0  0  0  0  0
  146.7094  141.2014  153.0599 H   0  0  0  0  0  0  0  0  0  0  0  0
  1  2  1  0  0  0  0
  1 18  1  0  0  0  0
  1 19  1  0  0  0  0
  1 20  1  0  0  0  0
  2  3  1  0  0  0  0
  2  9  1  0  0  0  0
  2 21  1  0  0  0  0
  3  4  1  0  0  0  0
  3 22  1  0  0  0  0
  3 23  1  0  0  0  0
  4  8  1  0  0  0  0
  4  5  1  0  0  0  0
  5  6  2  0  0  0  0
  5 24  1  0  0  0  0
  6  7  1  0  0  0  0
  6 25  1  0  0  0  0
  7  8  2  0  0  0  0
  7 26  1  0  0  0  0
  9 10  1  0  0  0  0
  9 27  1  0  0  0  0
 10 11  1  0  0  0  0
 10 28  1  0  0  0  0
 10 29  1  0  0  0  0
 11 12  2  0  0  0  0
 11 13  1  0  0  0  0
 13 14  1  0  0  0  0
 13 30  1  0  0  0  0
 14 15  1  0  0  0  0
 14 31  1  0  0  0  0
 14 32  1  0  0  0  0
 15 16  1  0  0  0  0
 15 33  1  0  0  0  0
 15 34  1  0  0  0  0
 16 17  3  0  0  0  0
M  END
> <s_m_source_file>
AV-unprocessed.smi

> <i_m_source_file_index>
3145

> <i_lp_mmshare_version>
43012

> <i_f3d_flags>
0

> <s_epik_input>
bjFbY0hdW2NIXVtjSF1uMVtDSDJdW0NAQEhdKFtDSDNdKVtOSF1bQ0gyXUMoPU8pW05IXVtDSDJdW0NIMl1DI04=

> <s_epik_cmdline>
J2VwaWtfcHl0aG9uJywgJy1waCcsICc3LjAnLCAnLXRuJywgJzgnLCAnLW1hJywgJzIwMCcsICctbWV0YWxfYmluZGluZycsICctaW1hZScsICc8aW5maWxlLm1hZT4nLCAnLW9tYWUnLCAnPG91dGZpbGUubWFlPic=

> <r_lp_tautomer_probability>
1

> <r_epik_Ionization_Penalty>
0.765991

> <r_epik_Ionization_Penalty_Charging>
0

> <r_epik_Ionization_Penalty_Neutral>
0.765991

> <r_epik_State_Penalty>
0.794192

> <r_epik_Charging_Adjusted_Penalty>
0.794192

> <i_epik_Tot_Q>
0

> <i_epik_Tot_abs_Q>
0

> <r_epik_Metal_State_Penalty>
0.806127

> <b_epik_Metal_Only>
0

> <s_lp_Force_Field>
OPLS_2005

> <r_lp_Energy>
5.26669

> <b_lp_Chiralities_Consistent>
1

> <s_lp_Variant>
AV-unprocessed.smi:3145-3

> <Gold.Version>
5.8.1

> <Gold.Id.Protein>
6NUR|6NUR_protein|mol2

> <Gold.PLP.Fitness>
44.2064

> <Gold.PLP.PLP>
-37.7060

> <Gold.PLP.part.hbond>
-3.0000

> <Gold.PLP.part.metal>
0.0000

> <Gold.PLP.part.buried>
-0.1189

> <Gold.PLP.part.nonpolar>
-33.7792

> <Gold.PLP.part.repulsive>
0.7897

> <Gold.PLP.ligand.clash>
0.0000

> <Gold.PLP.ligand.torsion>
1.2018

> <Gold.PLP.Chemscore.Hbond>
2.9440

> <Gold.PLP.Chemscore.CHOScore>
0.0000

> <Gold.PLP.Chemscore.Metal>
0.0000

> <Gold.Chemscore.Hbonds>
donor molecule, donor type, donor heavy atom, donor atom, acceptor molecule, acceptor atom, score
      L1  H     9    27       P1  8028  0.89
      P1  H  7954  7966       L1    17  0.83
      P1  H  7989  7998       L1    12  0.96

> <Gold.PLP.Chemscore.Internal.Correction>
0.0720

> <Gold.Rescore>
     Score         DG    S(hbond)    S(metal)    S(lipo)     H(rot)  DE(clash)    DE(int)     intcor
     13.93     -17.44       2.90        0.00      80.61       2.80       2.11       1.39       ----

> <Gold.Chemscore.Fitness>
13.9349

> <Gold.Chemscore.DG>
-17.4417

> <Gold.Chemscore.ZeroCoef>
-5.4800

> <Gold.Chemscore.Hbond>
2.9043

> <Gold.Chemscore.Metal>
0.0000

> <Gold.Chemscore.Lipo>
80.6069

> <Gold.Chemscore.Internal_Hbond>
0.0000

> <Gold.Chemscore.DEClash>
2.1135

> <Gold.Chemscore.DEInternal>
1.3932

> <Gold.Chemscore.Rot>
2.8006

> <Gold.Chemscore.Internal.Correction>
   9.000000E+99

> <Gold.Chemscore.Hbonds>
donor molecule, donor type, donor heavy atom, donor atom, acceptor molecule, acceptor atom, score
      L1  H     9    27       P1  8028  0.87
      P1  H  7954  7966       L1    17  0.78
      P1  H  7989  7998       L1    12  0.92

> <Gold.Chemscore.Hbond.Weighted>
-9.7003

> <Gold.Chemscore.Metal.Weighted>
-0.0000

> <Gold.Chemscore.Lipo.Weighted>
-9.4310

> <Gold.Chemscore.Internal_Hbond.Weighted>
0.0000

> <Gold.Chemscore.DEClash.Weighted>
2.1135

> <Gold.Chemscore.DEInternal.Weighted>
1.3932

> <Gold.Chemscore.Rot.Weighted>
7.1696

> <Gold.Chemscore.Internal.Correction.Weighted>
   9.000000E+99

> <Gold.Protein.RotatedTorsions>
[ 6907 6896 6895 6894 ] final  -53.20 input  -60.11 | X-H torsion
[ 7974 7965 7964 7962 ] final  -10.61 input  175.53 | X-H torsion
[ 8008 7997 7996 7995 ] final   89.51 input   59.86 | X-H torsion
[ 10167 10162 10161 10158 ] final    0.10 input  -65.29 | X-H torsion
[ 10718 10713 10712 10709 ] final  142.49 input   66.30 | X-H torsion
[ 10763 10752 10751 10750 ] final -148.86 input  -60.55 | X-H torsion
[ 11005 11000 10999 10996 ] final   33.67 input  -57.11 | X-H torsion

> <Gold.Protein.ActiveResidues>
 VAL166  LYS551  ARG553  GLY616  TRP617  ASP618  TYR619  PRO620  LYS621  CYS622 
 ASP623  PHE694  ASN695  SER759  ASP760  ASP761  ALA762  ILE779  LEU786  VAL792 
 PHE793  MET794  SER795  GLU796  ALA797  LYS798  CYS799  TRP800  GLU811  SER814 

> <Gold.Protein.RotatedAtoms>
  150.8448  134.7753  159.6961 H   0  0  0  0  0  0  0  0  0  0  0  0  # atno 6907 bound_to 6896
  152.4527  134.5355  159.9833 H   0  0  0  0  0  0  0  0  0  0  0  0  # atno 6908 bound_to 6896
  151.5488  133.3383  159.2985 H   0  0  0  0  0  0  0  0  0  0  0  0  # atno 6909 bound_to 6896
  146.2215  140.2789  142.8361 H   0  0  0  0  0  0  0  0  0  0  0  0  # atno 7974 bound_to 7965
  156.0008  140.3360  155.6844 H   0  0  0  0  0  0  0  0  0  0  0  0  # atno 8008 bound_to 7997
  155.6293  140.0683  157.2672 H   0  0  0  0  0  0  0  0  0  0  0  0  # atno 8009 bound_to 7997
  154.4249  140.1762  156.1442 H   0  0  0  0  0  0  0  0  0  0  0  0  # atno 8010 bound_to 7997
  140.6743  143.6959  150.7990 H   0  0  0  0  0  0  0  0  0  0  0  0  # atno 10167 bound_to 10162
  157.3800  131.0991  151.0748 H   0  0  0  0  0  0  0  0  0  0  0  0  # atno 10718 bound_to 10713
  154.8210  135.3324  154.7038 H   0  0  0  0  0  0  0  0  0  0  0  0  # atno 10763 bound_to 10752
  153.7671  135.6928  153.4918 H   0  0  0  0  0  0  0  0  0  0  0  0  # atno 10764 bound_to 10752
  153.2070  135.4496  155.0283 H   0  0  0  0  0  0  0  0  0  0  0  0  # atno 10765 bound_to 10752
  140.2607  134.3196  155.7859 H   0  0  0  0  0  0  0  0  0  0  0  0  # atno 11005 bound_to 11000
  144.9212  140.7870  143.5747 LP  0  0  0  0  0  0  0  0  0  0  0  0  # atno 17320 bound_to 7965
  145.2726  139.1949  143.4834 LP  0  0  0  0  0  0  0  0  0  0  0  0  # atno 17321 bound_to 7965
  140.0650  143.5117  152.2609 LP  0  0  0  0  0  0  0  0  0  0  0  0  # atno 17342 bound_to 10162
  139.6028  144.7587  151.3133 LP  0  0  0  0  0  0  0  0  0  0  0  0  # atno 17343 bound_to 10162
  157.1820  130.6314  149.5675 LP  0  0  0  0  0  0  0  0  0  0  0  0  # atno 17370 bound_to 10713
  155.9773  130.4750  150.6588 LP  0  0  0  0  0  0  0  0  0  0  0  0  # atno 17371 bound_to 10713
  141.2190  133.7408  156.9182 LP  0  0  0  0  0  0  0  0  0  0  0  0  # atno 17394 bound_to 11000
  140.1467  134.9257  157.2539 LP  0  0  0  0  0  0  0  0  0  0  0  0  # atno 17395 bound_to 11000

$$$$
