AV-unprocessed.smi:2371|AV-procd|sdf|9436|dock6
  -GOLD-   2272013 63D 1   1.00000     0.00000
 Structure written by MMmdl.
 35 36  0  0  0  0  0  0  0  0  1 V2000
  151.3925  145.5850  159.8120 C   0  0  0  0  0  0  0  0  0  0  0  0
  151.6766  144.2247  159.3481 N   0  0  0  0  0  0  0  0  0  0  0  0
  151.1151  143.8249  158.1236 C   0  0  0  0  0  0  0  0  0  0  0  0
  151.3204  142.5988  157.6227 C   0  0  0  0  0  0  0  0  0  0  0  0
  152.1427  141.6801  158.3728 C   0  0  0  0  0  0  0  0  0  0  0  0
  152.7012  142.0481  159.5534 C   0  0  0  0  0  0  0  0  0  0  0  0
  153.5064  141.2148  160.3491 N   0  0  0  0  0  0  0  0  0  0  0  0
  154.1357  140.0717  160.0199 C   0  0  0  0  0  0  0  0  0  0  0  0
  154.1382  139.5457  158.9073 O   0  0  0  0  0  0  0  0  0  0  0  0
  154.8001  139.5730  161.0717 N   0  0  0  0  0  0  0  0  0  0  0  0
  155.6145  138.3618  161.0637 C   0  0  0  0  0  0  0  0  0  0  0  0
  155.4386  137.5465  162.3564 C   0  0  2  0  0  0  0  0  0  0  0  0
  153.9926  137.3662  162.8204 C   0  0  0  0  0  0  0  0  0  0  0  0
  154.1771  137.1241  164.3005 C   0  0  0  0  0  0  0  0  0  0  0  0
  155.3161  138.0840  164.6314 C   0  0  0  0  0  0  0  0  0  0  0  0
  156.0939  138.1977  163.4419 O   0  0  0  0  0  0  0  0  0  0  0  0
  152.4584  143.3964  160.1030 C   0  0  0  0  0  0  0  0  0  0  0  0
  152.9287  143.7700  161.1804 O   0  0  0  0  0  0  0  0  0  0  0  0
  150.8011  146.1587  159.0976 H   0  0  0  0  0  0  0  0  0  0  0  0
  152.3190  146.1362  159.9800 H   0  0  0  0  0  0  0  0  0  0  0  0
  150.8368  145.5595  160.7505 H   0  0  0  0  0  0  0  0  0  0  0  0
  150.5125  144.5687  157.6231 H   0  0  0  0  0  0  0  0  0  0  0  0
  150.8819  142.3051  156.6804 H   0  0  0  0  0  0  0  0  0  0  0  0
  152.2769  140.6923  157.9627 H   0  0  0  0  0  0  0  0  0  0  0  0
  153.6601  141.5551  161.2875 H   0  0  0  0  0  0  0  0  0  0  0  0
  154.7468  140.0747  161.9463 H   0  0  0  0  0  0  0  0  0  0  0  0
  155.3002  137.7597  160.2110 H   0  0  0  0  0  0  0  0  0  0  0  0
  156.6677  138.5951  160.8981 H   0  0  0  0  0  0  0  0  0  0  0  0
  155.9016  136.5650  162.2420 H   0  0  0  0  0  0  0  0  0  0  0  0
  153.4195  138.2811  162.6628 H   0  0  0  0  0  0  0  0  0  0  0  0
  153.4801  136.5484  162.3130 H   0  0  0  0  0  0  0  0  0  0  0  0
  153.2755  137.3127  164.8839 H   0  0  0  0  0  0  0  0  0  0  0  0
  154.4895  136.0935  164.4750 H   0  0  0  0  0  0  0  0  0  0  0  0
  154.9228  139.0701  164.8812 H   0  0  0  0  0  0  0  0  0  0  0  0
  155.9195  137.7380  165.4709 H   0  0  0  0  0  0  0  0  0  0  0  0
  1  2  1  0  0  0  0
  1 19  1  0  0  0  0
  1 20  1  0  0  0  0
  1 21  1  0  0  0  0
  2 17  1  0  0  0  0
  2  3  1  0  0  0  0
  3  4  2  0  0  0  0
  3 22  1  0  0  0  0
  4  5  1  0  0  0  0
  4 23  1  0  0  0  0
  5  6  2  0  0  0  0
  5 24  1  0  0  0  0
  6  7  1  0  0  0  0
  6 17  1  0  0  0  0
  7  8  1  0  0  0  0
  7 25  1  0  0  0  0
  8  9  2  0  0  0  0
  8 10  1  0  0  0  0
 10 11  1  0  0  0  0
 10 26  1  0  0  0  0
 11 12  1  0  0  0  0
 11 27  1  0  0  0  0
 11 28  1  0  0  0  0
 12 16  1  0  0  0  0
 12 13  1  0  0  0  0
 12 29  1  0  0  0  0
 13 14  1  0  0  0  0
 13 30  1  0  0  0  0
 13 31  1  0  0  0  0
 14 15  1  0  0  0  0
 14 32  1  0  0  0  0
 14 33  1  0  0  0  0
 15 16  1  0  0  0  0
 15 34  1  0  0  0  0
 15 35  1  0  0  0  0
 17 18  2  0  0  0  0
M  END
> <s_m_source_file>
AV-unprocessed.smi

> <i_m_source_file_index>
2371

> <i_lp_mmshare_version>
43012

> <i_f3d_flags>
0

> <s_epik_input>
W0NIM11uMVtjSF1bY0hdW2NIXWMoYzE9TylbTkhdQyg9TylbTkhdW0NIMl1bQ0BASF0yW0NIMl1bQ0gyXVtDSDJdTzI=

> <s_epik_cmdline>
J2VwaWtfcHl0aG9uJywgJy1waCcsICc3LjAnLCAnLXRuJywgJzgnLCAnLW1hJywgJzIwMCcsICctbWV0YWxfYmluZGluZycsICctaW1hZScsICc8aW5maWxlLm1hZT4nLCAnLW9tYWUnLCAnPG91dGZpbGUubWFlPic=

> <r_lp_tautomer_probability>
1

> <r_epik_Ionization_Penalty>
2.36512e-05

> <r_epik_Ionization_Penalty_Charging>
4.84074e-06

> <r_epik_Ionization_Penalty_Neutral>
1.88105e-05

> <r_epik_State_Penalty>
-0

> <r_epik_Charging_Adjusted_Penalty>
4.84074e-06

> <i_epik_Tot_Q>
0

> <i_epik_Tot_abs_Q>
0

> <r_epik_Metal_State_Penalty>
-0

> <b_epik_Metal_Only>
0

> <s_lp_Force_Field>
OPLS_2005

> <r_lp_Energy>
29.8245

> <b_lp_Chiralities_Consistent>
1

> <s_lp_Variant>
AV-unprocessed.smi:2371-1

> <Gold.Version>
5.8.1

> <Gold.Id.Protein>
6NUR|6NUR_protein|mol2

> <Gold.PLP.Fitness>
42.9411

> <Gold.PLP.PLP>
-37.5443

> <Gold.PLP.part.hbond>
-1.0000

> <Gold.PLP.part.metal>
0.0000

> <Gold.PLP.part.buried>
-4.0529

> <Gold.PLP.part.nonpolar>
-32.1467

> <Gold.PLP.part.repulsive>
0.1760

> <Gold.PLP.ligand.clash>
0.0000

> <Gold.PLP.ligand.torsion>
0.2993

> <Gold.PLP.Chemscore.Hbond>
1.0000

> <Gold.PLP.Chemscore.CHOScore>
0.9980

> <Gold.PLP.Chemscore.Metal>
0.0000

> <Gold.Chemscore.Hbonds>
donor molecule, donor type, donor heavy atom, donor atom, acceptor molecule, acceptor atom, score
      P1  H  7997  8008       L1     9  1.00
      L1  C     3    22       P1  8028  1.00

> <Gold.PLP.Chemscore.Internal.Correction>
0.0014

> <Gold.Rescore>
     Score         DG    S(hbond)    S(metal)    S(lipo)     H(rot)  DE(clash)    DE(int)     intcor
     14.19     -15.52       1.00        0.00      84.62       1.25       0.01       1.32       ----

> <Gold.Chemscore.Fitness>
14.1902

> <Gold.Chemscore.DG>
-15.5225

> <Gold.Chemscore.ZeroCoef>
-5.4800

> <Gold.Chemscore.Hbond>
0.9989

> <Gold.Chemscore.Metal>
0.0000

> <Gold.Chemscore.Lipo>
84.6214

> <Gold.Chemscore.Internal_Hbond>
0.0000

> <Gold.Chemscore.DEClash>
0.0147

> <Gold.Chemscore.DEInternal>
1.3175

> <Gold.Chemscore.Rot>
1.2478

> <Gold.Chemscore.Internal.Correction>
   9.000000E+99

> <Gold.Chemscore.Hbonds>
donor molecule, donor type, donor heavy atom, donor atom, acceptor molecule, acceptor atom, score
      P1  H  7997  8008       L1     9  0.96

> <Gold.Chemscore.Hbond.Weighted>
-3.3362

> <Gold.Chemscore.Metal.Weighted>
-0.0000

> <Gold.Chemscore.Lipo.Weighted>
-9.9007

> <Gold.Chemscore.Internal_Hbond.Weighted>
0.0000

> <Gold.Chemscore.DEClash.Weighted>
0.0147

> <Gold.Chemscore.DEInternal.Weighted>
1.3175

> <Gold.Chemscore.Rot.Weighted>
3.1944

> <Gold.Chemscore.Internal.Correction.Weighted>
   9.000000E+99

> <Gold.Protein.RotatedTorsions>
[ 6907 6896 6895 6894 ] final  -16.78 input  -60.11 | X-H torsion
[ 7974 7965 7964 7962 ] final  138.99 input  175.53 | X-H torsion
[ 8008 7997 7996 7995 ] final -124.25 input   59.86 | X-H torsion
[ 10167 10162 10161 10158 ] final  -68.76 input  -65.29 | X-H torsion
[ 10718 10713 10712 10709 ] final  165.36 input   66.30 | X-H torsion
[ 10763 10752 10751 10750 ] final -131.56 input  -60.55 | X-H torsion
[ 11005 11000 10999 10996 ] final -165.15 input  -57.11 | X-H torsion

> <Gold.Protein.ActiveResidues>
 VAL166  LYS551  ARG553  GLY616  TRP617  ASP618  TYR619  PRO620  LYS621  CYS622 
 ASP623  PHE694  ASN695  SER759  ASP760  ASP761  ALA762  ILE779  LEU786  VAL792 
 PHE793  MET794  SER795  GLU796  ALA797  LYS798  CYS799  TRP800  GLU811  SER814 

> <Gold.Protein.RotatedAtoms>
  151.3033  135.0774  159.9245 H   0  0  0  0  0  0  0  0  0  0  0  0  # atno 6907 bound_to 6896
  152.5293  133.9811  159.7817 H   0  0  0  0  0  0  0  0  0  0  0  0  # atno 6908 bound_to 6896
  151.0101  133.5921  159.2714 H   0  0  0  0  0  0  0  0  0  0  0  0  # atno 6909 bound_to 6896
  144.9320  139.5035  143.5613 H   0  0  0  0  0  0  0  0  0  0  0  0  # atno 7974 bound_to 7965
  155.1938  140.0414  157.2905 H   0  0  0  0  0  0  0  0  0  0  0  0  # atno 8008 bound_to 7997
  154.6120  140.2479  155.7628 H   0  0  0  0  0  0  0  0  0  0  0  0  # atno 8009 bound_to 7997
  156.2385  140.2912  156.0387 H   0  0  0  0  0  0  0  0  0  0  0  0  # atno 8010 bound_to 7997
  140.5483  143.2312  151.6960 H   0  0  0  0  0  0  0  0  0  0  0  0  # atno 10167 bound_to 10162
  157.0812  131.0392  151.2574 H   0  0  0  0  0  0  0  0  0  0  0  0  # atno 10718 bound_to 10713
  154.8750  135.3826  154.4267 H   0  0  0  0  0  0  0  0  0  0  0  0  # atno 10763 bound_to 10752
  153.4965  135.7030  153.5860 H   0  0  0  0  0  0  0  0  0  0  0  0  # atno 10764 bound_to 10752
  153.4211  135.3901  155.2078 H   0  0  0  0  0  0  0  0  0  0  0  0  # atno 10765 bound_to 10752
  140.5789  134.5161  157.5175 H   0  0  0  0  0  0  0  0  0  0  0  0  # atno 11005 bound_to 11000
  146.3251  139.8278  142.8914 LP  0  0  0  0  0  0  0  0  0  0  0  0  # atno 17320 bound_to 7965
  145.3126  141.0224  143.3546 LP  0  0  0  0  0  0  0  0  0  0  0  0  # atno 17321 bound_to 7965
  139.5016  144.3859  152.0329 LP  0  0  0  0  0  0  0  0  0  0  0  0  # atno 17342 bound_to 10162
  140.2974  144.3685  150.6070 LP  0  0  0  0  0  0  0  0  0  0  0  0  # atno 17343 bound_to 10162
  157.4799  130.7758  149.7403 LP  0  0  0  0  0  0  0  0  0  0  0  0  # atno 17370 bound_to 10713
  155.9923  130.3932  150.2947 LP  0  0  0  0  0  0  0  0  0  0  0  0  # atno 17371 bound_to 10713
  139.9326  134.7934  156.0888 LP  0  0  0  0  0  0  0  0  0  0  0  0  # atno 17394 bound_to 11000
  141.1009  133.6678  156.2751 LP  0  0  0  0  0  0  0  0  0  0  0  0  # atno 17395 bound_to 11000

$$$$
