AV-unprocessed.smi:870|AV-procd|sdf|4009|dock10
  -GOLD-   22720 1503D 1   1.00000     0.00000
 Structure written by MMmdl.
 47 49  0  0  0  0  0  0  0  0  2 V2000
  147.5397  141.6677  154.1302 C   0  0  0  0  0  0  0  0  0  0  0  0
  147.7761  141.7198  155.5262 O   0  0  0  0  0  0  0  0  0  0  0  0
  148.5275  140.6103  155.9910 C   0  0  0  0  0  0  0  0  0  0  0  0
  149.6704  141.0334  156.8546 C   0  0  0  0  0  0  0  0  0  0  0  0
  150.0791  142.3145  157.0779 N   0  3  0  0  0  0  0  0  0  0  0  0
  151.1792  142.3177  157.9359 C   0  0  0  0  0  0  0  0  0  0  0  0
  151.9329  143.3700  158.4467 C   0  0  0  0  0  0  0  0  0  0  0  0
  152.9970  143.0274  159.3063 C   0  0  0  0  0  0  0  0  0  0  0  0
  153.2766  141.6836  159.6289 C   0  0  0  0  0  0  0  0  0  0  0  0
  152.5059  140.6252  159.1043 C   0  0  0  0  0  0  0  0  0  0  0  0
  151.4563  140.9718  158.2532 C   0  0  0  0  0  0  0  0  0  0  0  0
  150.5004  140.2157  157.5632 N   0  0  0  0  0  0  0  0  0  0  0  0
  150.5086  138.7481  157.6731 C   0  0  0  0  0  0  0  0  0  0  0  0
  150.1381  138.2509  159.0848 C   0  0  2  0  0  0  0  0  0  0  0  0
  151.0872  137.3040  159.5317 O   0  0  0  0  0  0  0  0  0  0  0  0
  148.7463  137.6049  159.1307 C   0  0  0  0  0  0  0  0  0  0  0  0
  148.3592  137.4548  160.4898 O   0  0  0  0  0  0  0  0  0  0  0  0
  148.1787  136.1807  160.9871 C   0  0  0  0  0  0  0  0  0  0  0  0
  148.2651  135.0069  160.1956 C   0  0  0  0  0  0  0  0  0  0  0  0
  148.0694  133.7382  160.7735 C   0  0  0  0  0  0  0  0  0  0  0  0
  147.7860  133.6242  162.1461 C   0  0  0  0  0  0  0  0  0  0  0  0
  147.6978  134.7814  162.9410 C   0  0  0  0  0  0  0  0  0  0  0  0
  147.8929  136.0551  162.3668 C   0  0  0  0  0  0  0  0  0  0  0  0
  147.7921  137.2935  163.2376 C   0  0  0  0  0  0  0  0  0  0  0  0
  146.9597  142.5383  153.8240 H   0  0  0  0  0  0  0  0  0  0  0  0
  146.9747  140.7750  153.8591 H   0  0  0  0  0  0  0  0  0  0  0  0
  148.4761  141.6735  153.5709 H   0  0  0  0  0  0  0  0  0  0  0  0
  147.8846  139.9401  156.5630 H   0  0  0  0  0  0  0  0  0  0  0  0
  148.9211  140.0458  155.1444 H   0  0  0  0  0  0  0  0  0  0  0  0
  151.7193  144.4002  158.2025 H   0  0  0  0  0  0  0  0  0  0  0  0
  153.6104  143.8106  159.7278 H   0  0  0  0  0  0  0  0  0  0  0  0
  154.0985  141.4595  160.2933 H   0  0  0  0  0  0  0  0  0  0  0  0
  152.7270  139.6004  159.3635 H   0  0  0  0  0  0  0  0  0  0  0  0
  149.7903  138.3691  156.9452 H   0  0  0  0  0  0  0  0  0  0  0  0
  151.4807  138.3666  157.3604 H   0  0  0  0  0  0  0  0  0  0  0  0
  150.1605  139.0876  159.7841 H   0  0  0  0  0  0  0  0  0  0  0  0
  151.4607  137.6147  160.3421 H   0  0  0  0  0  0  0  0  0  0  0  0
  148.0280  138.2223  158.5881 H   0  0  0  0  0  0  0  0  0  0  0  0
  148.7812  136.6242  158.6529 H   0  0  0  0  0  0  0  0  0  0  0  0
  148.4818  135.0513  159.1392 H   0  0  0  0  0  0  0  0  0  0  0  0
  148.1370  132.8509  160.1615 H   0  0  0  0  0  0  0  0  0  0  0  0
  147.6360  132.6505  162.5888 H   0  0  0  0  0  0  0  0  0  0  0  0
  147.4785  134.6862  163.9944 H   0  0  0  0  0  0  0  0  0  0  0  0
  147.5696  137.0370  164.2738 H   0  0  0  0  0  0  0  0  0  0  0  0
  147.0004  137.9486  162.8731 H   0  0  0  0  0  0  0  0  0  0  0  0
  148.7319  137.8463  163.2199 H   0  0  0  0  0  0  0  0  0  0  0  0
  149.6323  143.1254  156.6690 H   0  0  0  0  0  0  0  0  0  0  0  0
  1  2  1  0  0  0  0
  1 25  1  0  0  0  0
  1 26  1  0  0  0  0
  1 27  1  0  0  0  0
  2  3  1  0  0  0  0
  3  4  1  0  0  0  0
  3 28  1  0  0  0  0
  3 29  1  0  0  0  0
  4 12  1  0  0  0  0
  4  5  2  0  0  0  0
  5  6  1  0  0  0  0
  5 47  1  0  0  0  0
  6 11  2  0  0  0  0
  6  7  1  0  0  0  0
  7  8  2  0  0  0  0
  7 30  1  0  0  0  0
  8  9  1  0  0  0  0
  8 31  1  0  0  0  0
  9 10  2  0  0  0  0
  9 32  1  0  0  0  0
 10 11  1  0  0  0  0
 10 33  1  0  0  0  0
 11 12  1  0  0  0  0
 12 13  1  0  0  0  0
 13 14  1  0  0  0  0
 13 34  1  0  0  0  0
 13 35  1  0  0  0  0
 14 15  1  0  0  0  0
 14 16  1  0  0  0  0
 14 36  1  0  0  0  0
 15 37  1  0  0  0  0
 16 17  1  0  0  0  0
 16 38  1  0  0  0  0
 16 39  1  0  0  0  0
 17 18  1  0  0  0  0
 18 23  1  0  0  0  0
 18 19  2  0  0  0  0
 19 20  1  0  0  0  0
 19 40  1  0  0  0  0
 20 21  2  0  0  0  0
 20 41  1  0  0  0  0
 21 22  1  0  0  0  0
 21 42  1  0  0  0  0
 22 23  2  0  0  0  0
 22 43  1  0  0  0  0
 23 24  1  0  0  0  0
 24 44  1  0  0  0  0
 24 45  1  0  0  0  0
 24 46  1  0  0  0  0
M  CHG  1   5   1
M  END
> <s_m_source_file>
AV-unprocessed.smi

> <i_m_source_file_index>
870

> <i_lp_mmshare_version>
43012

> <i_f3d_flags>
0

> <s_epik_input>
W2NIXTFbY0hdW2NIXVtjSF1jKGMxMiluKGMobjIpW0NIMl1PW0NIM10pW0NIMl1bQ0BIXShbT0hdKVtDSDJdT2MzW2NIXVtjSF1bY0hdW2NIXWMzW0NIM10=

> <s_epik_cmdline>
J2VwaWtfcHl0aG9uJywgJy1waCcsICc3LjAnLCAnLXRuJywgJzgnLCAnLW1hJywgJzIwMCcsICctbWV0YWxfYmluZGluZycsICctaW1hZScsICc8aW5maWxlLm1hZT4nLCAnLW9tYWUnLCAnPG91dGZpbGUubWFlPic=

> <r_lp_tautomer_probability>
1

> <r_epik_Ionization_Penalty>
1.55338

> <r_epik_Ionization_Penalty_Charging>
1.55338

> <r_epik_Ionization_Penalty_Neutral>
2.3993e-06

> <r_epik_State_Penalty>
1.64778

> <r_epik_Charging_Adjusted_Penalty>
3.20115

> <i_epik_Tot_Q>
1

> <i_epik_Tot_abs_Q>
1

> <r_epik_Metal_State_Penalty>
5.70266

> <b_epik_Metal_Only>
0

> <s_lp_Force_Field>
OPLS_2005

> <r_lp_Energy>
18.2102

> <b_lp_Chiralities_Consistent>
1

> <s_lp_Variant>
AV-unprocessed.smi:870-3

> <Gold.Version>
5.8.1

> <Gold.Id.Protein>
6NUR|6NUR_protein|mol2

> <Gold.PLP.Fitness>
56.9040

> <Gold.PLP.PLP>
-48.8460

> <Gold.PLP.part.hbond>
-3.3994

> <Gold.PLP.part.metal>
0.0000

> <Gold.PLP.part.buried>
-3.7884

> <Gold.PLP.part.nonpolar>
-41.6497

> <Gold.PLP.part.repulsive>
0.1449

> <Gold.PLP.ligand.clash>
0.0000

> <Gold.PLP.ligand.torsion>
1.5975

> <Gold.PLP.Chemscore.Hbond>
3.7119

> <Gold.PLP.Chemscore.CHOScore>
0.0000

> <Gold.PLP.Chemscore.Metal>
0.0000

> <Gold.Chemscore.Hbonds>
donor molecule, donor type, donor heavy atom, donor atom, acceptor molecule, acceptor atom, score
      L1  H     5    47       P1  8028  2.00
      P1  H  6896  6908       L1    15  0.51
      P1  H  6931  6943       L1    17  0.61
      P1  H  6934  6947       L1    17  0.51

> <Gold.PLP.Chemscore.Internal.Correction>
0.1175

> <Gold.Rescore>
     Score         DG    S(hbond)    S(metal)    S(lipo)     H(rot)  DE(clash)    DE(int)     intcor
     18.51     -20.10       1.76        0.00     128.36       2.45       0.05       1.54       ----

> <Gold.Chemscore.Fitness>
18.5051

> <Gold.Chemscore.DG>
-20.0999

> <Gold.Chemscore.ZeroCoef>
-5.4800

> <Gold.Chemscore.Hbond>
1.7582

> <Gold.Chemscore.Metal>
0.0000

> <Gold.Chemscore.Lipo>
128.3581

> <Gold.Chemscore.Internal_Hbond>
0.0000

> <Gold.Chemscore.DEClash>
0.0502

> <Gold.Chemscore.DEInternal>
1.5445

> <Gold.Chemscore.Rot>
2.4494

> <Gold.Chemscore.Internal.Correction>
   9.000000E+99

> <Gold.Chemscore.Hbonds>
donor molecule, donor type, donor heavy atom, donor atom, acceptor molecule, acceptor atom, score
      L1  H     5    47       P1  8028  0.93
      P1  H  6896  6908       L1    15  0.10
      P1  H  6931  6943       L1    17  0.19
      P1  H  6934  6947       L1    17  0.28

> <Gold.Chemscore.Hbond.Weighted>
-5.8724

> <Gold.Chemscore.Metal.Weighted>
-0.0000

> <Gold.Chemscore.Lipo.Weighted>
-15.0179

> <Gold.Chemscore.Internal_Hbond.Weighted>
0.0000

> <Gold.Chemscore.DEClash.Weighted>
0.0502

> <Gold.Chemscore.DEInternal.Weighted>
1.5445

> <Gold.Chemscore.Rot.Weighted>
6.2704

> <Gold.Chemscore.Internal.Correction.Weighted>
   9.000000E+99

> <Gold.Protein.RotatedTorsions>
[ 6907 6896 6895 6894 ] final -138.46 input  -60.11 | X-H torsion
[ 7974 7965 7964 7962 ] final  -47.16 input  175.53 | X-H torsion
[ 8008 7997 7996 7995 ] final  -31.20 input   59.86 | X-H torsion
[ 10167 10162 10161 10158 ] final -151.41 input  -65.29 | X-H torsion
[ 10718 10713 10712 10709 ] final -136.12 input   66.30 | X-H torsion
[ 10763 10752 10751 10750 ] final   13.97 input  -60.55 | X-H torsion
[ 11005 11000 10999 10996 ] final    1.35 input  -57.11 | X-H torsion

> <Gold.Protein.ActiveResidues>
 VAL166  LYS551  ARG553  GLY616  TRP617  ASP618  TYR619  PRO620  LYS621  CYS622 
 ASP623  PHE694  ASN695  SER759  ASP760  ASP761  ALA762  ILE779  LEU786  VAL792 
 PHE793  MET794  SER795  GLU796  ALA797  LYS798  CYS799  TRP800  GLU811  SER814 

> <Gold.Protein.RotatedAtoms>
  151.0353  133.5753  159.2656 H   0  0  0  0  0  0  0  0  0  0  0  0  # atno 6907 bound_to 6896
  151.2820  135.0716  159.9182 H   0  0  0  0  0  0  0  0  0  0  0  0  # atno 6908 bound_to 6896
  152.5353  134.0066  159.7973 H   0  0  0  0  0  0  0  0  0  0  0  0  # atno 6909 bound_to 6896
  145.9644  140.7446  142.9441 H   0  0  0  0  0  0  0  0  0  0  0  0  # atno 7974 bound_to 7965
  154.4222  140.1770  156.1529 H   0  0  0  0  0  0  0  0  0  0  0  0  # atno 8008 bound_to 7997
  155.9900  140.3370  155.6720 H   0  0  0  0  0  0  0  0  0  0  0  0  # atno 8009 bound_to 7997
  155.6385  140.0677  157.2617 H   0  0  0  0  0  0  0  0  0  0  0  0  # atno 8010 bound_to 7997
  139.7270  143.8868  152.2522 H   0  0  0  0  0  0  0  0  0  0  0  0  # atno 10167 bound_to 10162
  156.2736  130.7280  151.1255 H   0  0  0  0  0  0  0  0  0  0  0  0  # atno 10718 bound_to 10713
  153.1668  135.6805  153.8663 H   0  0  0  0  0  0  0  0  0  0  0  0  # atno 10763 bound_to 10752
  153.8040  135.3152  155.3394 H   0  0  0  0  0  0  0  0  0  0  0  0  # atno 10764 bound_to 10752
  154.7971  135.4800  154.0278 H   0  0  0  0  0  0  0  0  0  0  0  0  # atno 10765 bound_to 10752
  140.6164  133.9702  155.8202 H   0  0  0  0  0  0  0  0  0  0  0  0  # atno 11005 bound_to 11000
  144.6822  140.2645  143.7314 LP  0  0  0  0  0  0  0  0  0  0  0  0  # atno 17320 bound_to 7965
  145.7994  139.1958  143.2057 LP  0  0  0  0  0  0  0  0  0  0  0  0  # atno 17321 bound_to 7965
  139.8780  144.7033  150.8910 LP  0  0  0  0  0  0  0  0  0  0  0  0  # atno 17342 bound_to 10162
  140.7764  143.3684  151.1696 LP  0  0  0  0  0  0  0  0  0  0  0  0  # atno 17343 bound_to 10162
  157.7292  131.0626  150.5785 LP  0  0  0  0  0  0  0  0  0  0  0  0  # atno 17370 bound_to 10713
  156.5884  130.4323  149.5947 LP  0  0  0  0  0  0  0  0  0  0  0  0  # atno 17371 bound_to 10713
  141.0773  134.0116  157.3439 LP  0  0  0  0  0  0  0  0  0  0  0  0  # atno 17394 bound_to 11000
  139.9171  135.0198  156.7924 LP  0  0  0  0  0  0  0  0  0  0  0  0  # atno 17395 bound_to 11000

$$$$
