AV-unprocessed.smi:2741|AV-procd|sdf|10559|dock9
  -GOLD-   2272015 13D 1   1.00000     0.00000
 Structure written by MMmdl.
 39 40  0  0  0  0  0  0  0  0  1 V2000
  153.3902  139.1060  156.6805 O   0  0  0  0  0  0  0  0  0  0  0  0
  152.2610  138.9815  157.1561 C   0  0  0  0  0  0  0  0  0  0  0  0
  152.0352  139.0901  158.6700 C   0  0  0  0  0  0  0  0  0  0  0  0
  152.5575  140.3456  159.2351 N   0  0  0  0  0  0  0  0  0  0  0  0
  151.9977  141.5487  158.7613 C   0  0  0  0  0  0  0  0  0  0  0  0
  152.3775  142.7604  159.2103 C   0  0  0  0  0  0  0  0  0  0  0  0
  151.7879  144.0415  158.6411 C   0  0  0  0  0  0  0  0  0  0  0  0
  152.7356  144.8160  158.1125 F   0  0  0  0  0  0  0  0  0  0  0  0
  150.8887  143.7741  157.6931 F   0  0  0  0  0  0  0  0  0  0  0  0
  151.1792  144.7287  159.6064 F   0  0  0  0  0  0  0  0  0  0  0  0
  153.4343  142.7789  160.2029 C   0  0  0  0  0  0  0  0  0  0  0  0
  153.9852  141.6380  160.6615 C   0  0  0  0  0  0  0  0  0  0  0  0
  153.5457  140.3266  160.1797 C   0  0  0  0  0  0  0  0  0  0  0  0
  154.0354  139.2767  160.5979 O   0  0  0  0  0  0  0  0  0  0  0  0
  151.1724  138.7354  156.4125 N   0  0  0  0  0  0  0  0  0  0  0  0
  151.1551  138.6336  154.9574 C   0  0  0  0  0  0  0  0  0  0  0  0
  150.2686  139.7169  154.3114 C   0  0  1  0  0  0  0  0  0  0  0  0
  148.8805  139.2062  153.8819 C   0  0  0  0  0  0  0  0  0  0  0  0
  147.8784  140.3252  154.2083 C   0  0  0  0  0  0  0  0  0  0  0  0
  148.7281  141.5372  154.5984 C   0  0  1  0  0  0  0  0  0  0  0  0
  148.0568  142.3963  155.4960 O   0  0  0  0  0  0  0  0  0  0  0  0
  149.9853  140.9260  155.2117 C   0  0  0  0  0  0  0  0  0  0  0  0
  150.9704  138.9979  158.8934 H   0  0  0  0  0  0  0  0  0  0  0  0
  152.5022  138.2261  159.1442 H   0  0  0  0  0  0  0  0  0  0  0  0
  151.2328  141.4244  158.0085 H   0  0  0  0  0  0  0  0  0  0  0  0
  153.7884  143.7230  160.5901 H   0  0  0  0  0  0  0  0  0  0  0  0
  154.7685  141.6893  161.4035 H   0  0  0  0  0  0  0  0  0  0  0  0
  150.2859  138.6391  156.8864 H   0  0  0  0  0  0  0  0  0  0  0  0
  152.1729  138.6941  154.5684 H   0  0  0  0  0  0  0  0  0  0  0  0
  150.7830  137.6424  154.6958 H   0  0  0  0  0  0  0  0  0  0  0  0
  150.7667  140.0895  153.4146 H   0  0  0  0  0  0  0  0  0  0  0  0
  148.8749  138.9686  152.8176 H   0  0  0  0  0  0  0  0  0  0  0  0
  148.6056  138.2957  154.4154 H   0  0  0  0  0  0  0  0  0  0  0  0
  147.2098  140.5434  153.3750 H   0  0  0  0  0  0  0  0  0  0  0  0
  147.2591  140.0122  155.0504 H   0  0  0  0  0  0  0  0  0  0  0  0
  148.9978  142.0978  153.7022 H   0  0  0  0  0  0  0  0  0  0  0  0
  148.4966  143.2326  155.4983 H   0  0  0  0  0  0  0  0  0  0  0  0
  149.7847  140.5937  156.2317 H   0  0  0  0  0  0  0  0  0  0  0  0
  150.8182  141.6295  155.2455 H   0  0  0  0  0  0  0  0  0  0  0  0
  1  2  2  0  0  0  0
  2  3  1  0  0  0  0
  2 15  1  0  0  0  0
  3  4  1  0  0  0  0
  3 23  1  0  0  0  0
  3 24  1  0  0  0  0
  4 13  1  0  0  0  0
  4  5  1  0  0  0  0
  5  6  2  0  0  0  0
  5 25  1  0  0  0  0
  6  7  1  0  0  0  0
  6 11  1  0  0  0  0
  7  8  1  0  0  0  0
  7  9  1  0  0  0  0
  7 10  1  0  0  0  0
 11 12  2  0  0  0  0
 11 26  1  0  0  0  0
 12 13  1  0  0  0  0
 12 27  1  0  0  0  0
 13 14  2  0  0  0  0
 15 16  1  0  0  0  0
 15 28  1  0  0  0  0
 16 17  1  0  0  0  0
 16 29  1  0  0  0  0
 16 30  1  0  0  0  0
 17 22  1  0  0  0  0
 17 18  1  0  0  0  0
 17 31  1  0  0  0  0
 18 19  1  0  0  0  0
 18 32  1  0  0  0  0
 18 33  1  0  0  0  0
 19 20  1  0  0  0  0
 19 34  1  0  0  0  0
 19 35  1  0  0  0  0
 20 21  1  0  0  0  0
 20 22  1  0  0  0  0
 20 36  1  0  0  0  0
 21 37  1  0  0  0  0
 22 38  1  0  0  0  0
 22 39  1  0  0  0  0
M  END
> <s_m_source_file>
AV-unprocessed.smi

> <i_m_source_file_index>
2741

> <i_lp_mmshare_version>
43012

> <i_f3d_flags>
0

> <s_epik_input>
W09IXVtDQEBIXShbQ0gyXTEpW0NIMl1bQ0gyXVtDQEhdMVtDSDJdW05IXUMoPU8pW0NIMl1uMltjSF1jKEMoRikoRilGKVtjSF1bY0hdYzI9Tw==

> <s_epik_cmdline>
J2VwaWtfcHl0aG9uJywgJy1waCcsICc3LjAnLCAnLXRuJywgJzgnLCAnLW1hJywgJzIwMCcsICctbWV0YWxfYmluZGluZycsICctaW1hZScsICc8aW5maWxlLm1hZT4nLCAnLW9tYWUnLCAnPG91dGZpbGUubWFlPic=

> <r_lp_tautomer_probability>
1

> <r_epik_Ionization_Penalty>
1.17551e-06

> <r_epik_Ionization_Penalty_Charging>
1.78841e-08

> <r_epik_Ionization_Penalty_Neutral>
1.15762e-06

> <r_epik_State_Penalty>
-0

> <r_epik_Charging_Adjusted_Penalty>
1.78841e-08

> <i_epik_Tot_Q>
0

> <i_epik_Tot_abs_Q>
0

> <r_epik_Metal_State_Penalty>
-0

> <b_epik_Metal_Only>
0

> <s_lp_Force_Field>
OPLS_2005

> <r_lp_Energy>
32.8711

> <b_lp_Chiralities_Consistent>
1

> <s_lp_Variant>
AV-unprocessed.smi:2741-2

> <Gold.Version>
5.8.1

> <Gold.Id.Protein>
6NUR|6NUR_protein|mol2

> <Gold.PLP.Fitness>
52.5046

> <Gold.PLP.PLP>
-49.3095

> <Gold.PLP.part.hbond>
-1.9160

> <Gold.PLP.part.metal>
0.0000

> <Gold.PLP.part.buried>
-2.6804

> <Gold.PLP.part.nonpolar>
-45.0610

> <Gold.PLP.part.repulsive>
0.0319

> <Gold.PLP.ligand.clash>
1.5791

> <Gold.PLP.ligand.torsion>
0.6359

> <Gold.PLP.Chemscore.Hbond>
2.0000

> <Gold.PLP.Chemscore.CHOScore>
0.0000

> <Gold.PLP.Chemscore.Metal>
0.0000

> <Gold.Chemscore.Hbonds>
donor molecule, donor type, donor heavy atom, donor atom, acceptor molecule, acceptor atom, score
      L1  H    21    37       P1  8028  1.00
      P1  H  7997  8008       L1     1  0.62

> <Gold.PLP.Chemscore.Internal.Correction>
0.0460

> <Gold.Rescore>
     Score         DG    S(hbond)    S(metal)    S(lipo)     H(rot)  DE(clash)    DE(int)     intcor
     16.22     -16.94       1.91        0.00      97.54       2.48       0.13       0.58       ----

> <Gold.Chemscore.Fitness>
16.2234

> <Gold.Chemscore.DG>
-16.9369

> <Gold.Chemscore.ZeroCoef>
-5.4800

> <Gold.Chemscore.Hbond>
1.9149

> <Gold.Chemscore.Metal>
0.0000

> <Gold.Chemscore.Lipo>
97.5357

> <Gold.Chemscore.Internal_Hbond>
0.0000

> <Gold.Chemscore.DEClash>
0.1291

> <Gold.Chemscore.DEInternal>
0.5843

> <Gold.Chemscore.Rot>
2.4807

> <Gold.Chemscore.Internal.Correction>
   9.000000E+99

> <Gold.Chemscore.Hbonds>
donor molecule, donor type, donor heavy atom, donor atom, acceptor molecule, acceptor atom, score
      L1  H    21    37       P1  8028  0.93
      P1  H  7997  8008       L1     1  0.62

> <Gold.Chemscore.Hbond.Weighted>
-6.3958

> <Gold.Chemscore.Metal.Weighted>
-0.0000

> <Gold.Chemscore.Lipo.Weighted>
-11.4117

> <Gold.Chemscore.Internal_Hbond.Weighted>
0.0000

> <Gold.Chemscore.DEClash.Weighted>
0.1291

> <Gold.Chemscore.DEInternal.Weighted>
0.5843

> <Gold.Chemscore.Rot.Weighted>
6.3507

> <Gold.Chemscore.Internal.Correction.Weighted>
   9.000000E+99

> <Gold.Protein.RotatedTorsions>
[ 6907 6896 6895 6894 ] final  117.99 input  -60.11 | X-H torsion
[ 7974 7965 7964 7962 ] final   88.73 input  175.53 | X-H torsion
[ 8008 7997 7996 7995 ] final  -56.02 input   59.86 | X-H torsion
[ 10167 10162 10161 10158 ] final    5.41 input  -65.29 | X-H torsion
[ 10718 10713 10712 10709 ] final   84.84 input   66.30 | X-H torsion
[ 10763 10752 10751 10750 ] final -175.92 input  -60.55 | X-H torsion
[ 11005 11000 10999 10996 ] final -106.70 input  -57.11 | X-H torsion

> <Gold.Protein.ActiveResidues>
 VAL166  LYS551  ARG553  GLY616  TRP617  ASP618  TYR619  PRO620  LYS621  CYS622 
 ASP623  PHE694  ASN695  SER759  ASP760  ASP761  ALA762  ILE779  LEU786  VAL792 
 PHE793  MET794  SER795  GLU796  ALA797  LYS798  CYS799  TRP800  GLU811  SER814 

> <Gold.Protein.RotatedAtoms>
  152.4574  133.7751  159.6820 H   0  0  0  0  0  0  0  0  0  0  0  0  # atno 6907 bound_to 6896
  150.8505  133.7784  159.3033 H   0  0  0  0  0  0  0  0  0  0  0  0  # atno 6908 bound_to 6896
  151.5381  135.1071  159.9971 H   0  0  0  0  0  0  0  0  0  0  0  0  # atno 6909 bound_to 6896
  145.5418  139.2289  143.2562 H   0  0  0  0  0  0  0  0  0  0  0  0  # atno 7974 bound_to 7965
  154.4215  140.1139  156.5571 H   0  0  0  0  0  0  0  0  0  0  0  0  # atno 8008 bound_to 7997
  155.6350  140.3496  155.4676 H   0  0  0  0  0  0  0  0  0  0  0  0  # atno 8009 bound_to 7997
  155.9917  140.1181  157.0621 H   0  0  0  0  0  0  0  0  0  0  0  0  # atno 8010 bound_to 7997
  140.6483  143.7607  150.7534 H   0  0  0  0  0  0  0  0  0  0  0  0  # atno 10167 bound_to 10162
  157.6905  131.0150  150.2733 H   0  0  0  0  0  0  0  0  0  0  0  0  # atno 10718 bound_to 10713
  154.5785  135.2834  155.0756 H   0  0  0  0  0  0  0  0  0  0  0  0  # atno 10763 bound_to 10752
  154.2101  135.6409  153.5116 H   0  0  0  0  0  0  0  0  0  0  0  0  # atno 10764 bound_to 10752
  153.0080  135.5489  154.6432 H   0  0  0  0  0  0  0  0  0  0  0  0  # atno 10765 bound_to 10752
  141.0991  133.8917  157.1888 H   0  0  0  0  0  0  0  0  0  0  0  0  # atno 11005 bound_to 11000
  146.1976  140.6238  142.9117 LP  0  0  0  0  0  0  0  0  0  0  0  0  # atno 17320 bound_to 7965
  144.7573  140.5339  143.6760 LP  0  0  0  0  0  0  0  0  0  0  0  0  # atno 17321 bound_to 7965
  140.1253  143.4575  152.2288 LP  0  0  0  0  0  0  0  0  0  0  0  0  # atno 17342 bound_to 10162
  139.5696  144.7455  151.3928 LP  0  0  0  0  0  0  0  0  0  0  0  0  # atno 17343 bound_to 10162
  156.3292  130.3797  149.7506 LP  0  0  0  0  0  0  0  0  0  0  0  0  # atno 17370 bound_to 10713
  156.5051  130.8146  151.3147 LP  0  0  0  0  0  0  0  0  0  0  0  0  # atno 17371 bound_to 10713
  139.9837  135.0089  156.9811 LP  0  0  0  0  0  0  0  0  0  0  0  0  # atno 17394 bound_to 11000
  140.5066  134.1043  155.7261 LP  0  0  0  0  0  0  0  0  0  0  0  0  # atno 17395 bound_to 11000

$$$$
