AV-unprocessed.smi:657|AV-procd|sdf|3228|dock2
  -GOLD-   22720 0173D 1   1.00000     0.00000
 Structure written by MMmdl.
 46 47  0  0  0  0  0  0  0  0  3 V2000
  151.7120  144.0292  158.9544 C   0  0  0  0  0  0  0  0  0  0  0  0
  151.7801  143.3514  157.5694 C   0  0  0  0  0  0  0  0  0  0  0  0
  152.2176  144.4134  156.5383 C   0  0  0  0  0  0  0  0  0  0  0  0
  150.4909  142.6833  157.1752 N   0  3  2  0  0  0  0  0  0  0  0  0
  149.7426  142.0477  158.3033 C   0  0  0  0  0  0  0  0  0  0  0  0
  148.3425  141.5787  157.8736 C   0  0  0  0  0  0  0  0  0  0  0  0
  148.4072  140.6170  156.6863 C   0  0  0  0  0  0  0  0  0  0  0  0
  149.1880  141.2717  155.5399 C   0  0  0  0  0  0  0  0  0  0  0  0
  150.5817  141.7911  155.9679 C   0  0  2  0  0  0  0  0  0  0  0  0
  151.6221  140.6482  156.0960 C   0  0  0  0  0  0  0  0  0  0  0  0
  152.1563  140.4390  157.1901 O   0  0  0  0  0  0  0  0  0  0  0  0
  151.8087  140.0212  154.9028 N   0  5  0  0  0  0  0  0  0  0  0  0
  152.0729  138.5907  154.7679 C   0  0  0  0  0  0  0  0  0  0  0  0
  150.7620  137.8239  154.4963 C   0  0  0  0  0  0  0  0  0  0  0  0
  150.7043  136.4603  155.1464 C   0  0  0  0  0  0  0  0  0  0  0  0
  151.3260  136.0372  156.3578 C   0  0  0  0  0  0  0  0  0  0  0  0
  151.0669  134.7750  156.6591 N   0  0  0  0  0  0  0  0  0  0  0  0
  150.2683  134.3494  155.6591 N   0  0  0  0  0  0  0  0  0  0  0  0
  149.7827  132.9860  155.6639 C   0  0  0  0  0  0  0  0  0  0  0  0
  150.0305  135.3433  154.7347 C   0  0  0  0  0  0  0  0  0  0  0  0
  152.6111  144.6148  159.1489 H   0  0  0  0  0  0  0  0  0  0  0  0
  151.6494  143.3034  159.7650 H   0  0  0  0  0  0  0  0  0  0  0  0
  150.8590  144.7047  159.0282 H   0  0  0  0  0  0  0  0  0  0  0  0
  152.5638  142.5953  157.6302 H   0  0  0  0  0  0  0  0  0  0  0  0
  153.1029  144.9503  156.8800 H   0  0  0  0  0  0  0  0  0  0  0  0
  151.4313  145.1497  156.3701 H   0  0  0  0  0  0  0  0  0  0  0  0
  152.4848  143.9797  155.5759 H   0  0  0  0  0  0  0  0  0  0  0  0
  150.3156  141.2213  158.7236 H   0  0  0  0  0  0  0  0  0  0  0  0
  149.5860  142.7568  159.1134 H   0  0  0  0  0  0  0  0  0  0  0  0
  147.8387  141.0972  158.7123 H   0  0  0  0  0  0  0  0  0  0  0  0
  147.7357  142.4450  157.6071 H   0  0  0  0  0  0  0  0  0  0  0  0
  148.8721  139.6789  156.9878 H   0  0  0  0  0  0  0  0  0  0  0  0
  147.3999  140.3642  156.3545 H   0  0  0  0  0  0  0  0  0  0  0  0
  149.2838  140.5699  154.7099 H   0  0  0  0  0  0  0  0  0  0  0  0
  148.6049  142.1089  155.1536 H   0  0  0  0  0  0  0  0  0  0  0  0
  150.8761  142.4322  155.1359 H   0  0  0  0  0  0  0  0  0  0  0  0
  152.7585  138.3989  153.9416 H   0  0  0  0  0  0  0  0  0  0  0  0
  152.5544  138.1768  155.6546 H   0  0  0  0  0  0  0  0  0  0  0  0
  149.9159  138.4349  154.8137 H   0  0  0  0  0  0  0  0  0  0  0  0
  150.6474  137.7221  153.4168 H   0  0  0  0  0  0  0  0  0  0  0  0
  151.9574  136.6099  157.0209 H   0  0  0  0  0  0  0  0  0  0  0  0
  148.9748  132.8757  154.9399 H   0  0  0  0  0  0  0  0  0  0  0  0
  149.4068  132.7269  156.6543 H   0  0  0  0  0  0  0  0  0  0  0  0
  150.5936  132.3071  155.3988 H   0  0  0  0  0  0  0  0  0  0  0  0
  149.4094  135.1776  153.8669 H   0  0  0  0  0  0  0  0  0  0  0  0
  149.8943  143.4420  156.8802 H   0  0  0  0  0  0  0  0  0  0  0  0
  1  2  1  0  0  0  0
  1 21  1  0  0  0  0
  1 22  1  0  0  0  0
  1 23  1  0  0  0  0
  2  3  1  0  0  0  0
  2  4  1  0  0  0  0
  2 24  1  0  0  0  0
  3 25  1  0  0  0  0
  3 26  1  0  0  0  0
  3 27  1  0  0  0  0
  4  9  1  0  0  0  0
  4  5  1  0  0  0  0
  4 46  1  0  0  0  0
  5  6  1  0  0  0  0
  5 28  1  0  0  0  0
  5 29  1  0  0  0  0
  6  7  1  0  0  0  0
  6 30  1  0  0  0  0
  6 31  1  0  0  0  0
  7  8  1  0  0  0  0
  7 32  1  0  0  0  0
  7 33  1  0  0  0  0
  8  9  1  0  0  0  0
  8 34  1  0  0  0  0
  8 35  1  0  0  0  0
  9 10  1  0  0  0  0
  9 36  1  0  0  0  0
 10 11  2  0  0  0  0
 10 12  1  0  0  0  0
 12 13  1  0  0  0  0
 13 14  1  0  0  0  0
 13 37  1  0  0  0  0
 13 38  1  0  0  0  0
 14 15  1  0  0  0  0
 14 39  1  0  0  0  0
 14 40  1  0  0  0  0
 15 20  2  0  0  0  0
 15 16  1  0  0  0  0
 16 17  2  0  0  0  0
 16 41  1  0  0  0  0
 17 18  1  0  0  0  0
 18 19  1  0  0  0  0
 18 20  1  0  0  0  0
 19 42  1  0  0  0  0
 19 43  1  0  0  0  0
 19 44  1  0  0  0  0
 20 45  1  0  0  0  0
M  CHG  1   4   1
M  CHG  1  12  -1
M  END
> <s_m_source_file>
AV-unprocessed.smi

> <i_m_source_file_index>
657

> <i_lp_mmshare_version>
43012

> <i_f3d_flags>
0

> <s_epik_input>
W0NIM11bQ0hdKFtDSDNdKU4xW0NIMl1bQ0gyXVtDSDJdW0NIMl1bQ0BIXTFDKD1PKVtOSF1bQ0gyXVtDSDJdYzJbY0hdbm4oW0NIM10pW2NIXTI=

> <s_epik_cmdline>
J2VwaWtfcHl0aG9uJywgJy1waCcsICc3LjAnLCAnLXRuJywgJzgnLCAnLW1hJywgJzIwMCcsICctbWV0YWxfYmluZGluZycsICctaW1hZScsICc8aW5maWxlLm1hZT4nLCAnLW9tYWUnLCAnPG91dGZpbGUubWFlPic=

> <r_lp_tautomer_probability>
1

> <r_epik_Ionization_Penalty>
6.1622

> <r_epik_Ionization_Penalty_Charging>
6.16146

> <r_epik_Ionization_Penalty_Neutral>
0.00073675

> <r_epik_State_Penalty>
6.18018

> <r_epik_Charging_Adjusted_Penalty>
12.3416

> <i_epik_Tot_Q>
0

> <i_epik_Tot_abs_Q>
2

> <r_epik_Metal_State_Penalty>
2.12232

> <b_epik_Metal_Only>
1

> <s_lp_Force_Field>
OPLS_2005

> <r_lp_Energy>
13.854

> <b_lp_Chiralities_Consistent>
1

> <s_lp_Variant>
AV-unprocessed.smi:657-9

> <Gold.Version>
5.8.1

> <Gold.Id.Protein>
6NUR|6NUR_protein|mol2

> <Gold.PLP.Fitness>
44.1078

> <Gold.PLP.PLP>
-34.1194

> <Gold.PLP.part.hbond>
-2.6834

> <Gold.PLP.part.metal>
0.0000

> <Gold.PLP.part.buried>
-6.9300

> <Gold.PLP.part.nonpolar>
-24.1428

> <Gold.PLP.part.repulsive>
0.0630

> <Gold.PLP.ligand.clash>
0.0000

> <Gold.PLP.ligand.torsion>
1.4247

> <Gold.PLP.Chemscore.Hbond>
3.2013

> <Gold.PLP.Chemscore.CHOScore>
0.9869

> <Gold.PLP.Chemscore.Metal>
0.0000

> <Gold.Chemscore.Hbonds>
donor molecule, donor type, donor heavy atom, donor atom, acceptor molecule, acceptor atom, score
      L1  H     4    46       P1  8028  2.00
      P1  H  7989  7998       L1    12  0.96
      P1  H  7997  8010       L1    11  0.29
      L1  C    20    45       P1  7948  0.95

> <Gold.PLP.Chemscore.Internal.Correction>
0.2732

> <Gold.Rescore>
     Score         DG    S(hbond)    S(metal)    S(lipo)     H(rot)  DE(clash)    DE(int)     intcor
     14.54     -18.96       1.87        0.00      96.27       1.57       1.89       2.53       ----

> <Gold.Chemscore.Fitness>
14.5403

> <Gold.Chemscore.DG>
-18.9645

> <Gold.Chemscore.ZeroCoef>
-5.4800

> <Gold.Chemscore.Hbond>
1.8714

> <Gold.Chemscore.Metal>
0.0000

> <Gold.Chemscore.Lipo>
96.2706

> <Gold.Chemscore.Internal_Hbond>
0.0000

> <Gold.Chemscore.DEClash>
1.8893

> <Gold.Chemscore.DEInternal>
2.5349

> <Gold.Chemscore.Rot>
1.5741

> <Gold.Chemscore.Internal.Correction>
   9.000000E+99

> <Gold.Chemscore.Hbonds>
donor molecule, donor type, donor heavy atom, donor atom, acceptor molecule, acceptor atom, score
      L1  H     4    46       P1  8028  0.93
      P1  H  7989  7998       L1    12  0.83
      P1  H  7997  8010       L1    11  0.08

> <Gold.Chemscore.Hbond.Weighted>
-6.2505

> <Gold.Chemscore.Metal.Weighted>
-0.0000

> <Gold.Chemscore.Lipo.Weighted>
-11.2637

> <Gold.Chemscore.Internal_Hbond.Weighted>
0.0000

> <Gold.Chemscore.DEClash.Weighted>
1.8893

> <Gold.Chemscore.DEInternal.Weighted>
2.5349

> <Gold.Chemscore.Rot.Weighted>
4.0297

> <Gold.Chemscore.Internal.Correction.Weighted>
   9.000000E+99

> <Gold.Protein.RotatedTorsions>
[ 6907 6896 6895 6894 ] final  150.51 input  -60.11 | X-H torsion
[ 7974 7965 7964 7962 ] final  167.10 input  175.53 | X-H torsion
[ 8008 7997 7996 7995 ] final   64.22 input   59.86 | X-H torsion
[ 10167 10162 10161 10158 ] final  148.42 input  -65.29 | X-H torsion
[ 10718 10713 10712 10709 ] final  -30.23 input   66.30 | X-H torsion
[ 10763 10752 10751 10750 ] final  -40.48 input  -60.55 | X-H torsion
[ 11005 11000 10999 10996 ] final -179.03 input  -57.11 | X-H torsion

> <Gold.Protein.ActiveResidues>
 VAL166  LYS551  ARG553  GLY616  TRP617  ASP618  TYR619  PRO620  LYS621  CYS622 
 ASP623  PHE694  ASN695  SER759  ASP760  ASP761  ALA762  ILE779  LEU786  VAL792 
 PHE793  MET794  SER795  GLU796  ALA797  LYS798  CYS799  TRP800  GLU811  SER814 

> <Gold.Protein.RotatedAtoms>
  152.1135  133.4313  159.4641 H   0  0  0  0  0  0  0  0  0  0  0  0  # atno 6907 bound_to 6896
  150.6868  134.2620  159.4562 H   0  0  0  0  0  0  0  0  0  0  0  0  # atno 6908 bound_to 6896
  152.0491  134.9664  160.0625 H   0  0  0  0  0  0  0  0  0  0  0  0  # atno 6909 bound_to 6896
  144.7437  139.8712  143.6389 H   0  0  0  0  0  0  0  0  0  0  0  0  # atno 7974 bound_to 7965
  155.6426  140.3497  155.4720 H   0  0  0  0  0  0  0  0  0  0  0  0  # atno 8008 bound_to 7997
  155.9914  140.1194  157.0658 H   0  0  0  0  0  0  0  0  0  0  0  0  # atno 8009 bound_to 7997
  154.4220  140.1119  156.5556 H   0  0  0  0  0  0  0  0  0  0  0  0  # atno 8010 bound_to 7997
  139.4875  144.5680  151.7108 H   0  0  0  0  0  0  0  0  0  0  0  0  # atno 10167 bound_to 10162
  156.4024  130.4393  149.7312 H   0  0  0  0  0  0  0  0  0  0  0  0  # atno 10718 bound_to 10713
  153.9467  135.6755  153.4744 H   0  0  0  0  0  0  0  0  0  0  0  0  # atno 10763 bound_to 10752
  153.0905  135.4877  154.8677 H   0  0  0  0  0  0  0  0  0  0  0  0  # atno 10764 bound_to 10752
  154.7348  135.3146  154.8789 H   0  0  0  0  0  0  0  0  0  0  0  0  # atno 10765 bound_to 10752
  140.4232  134.6587  157.4674 H   0  0  0  0  0  0  0  0  0  0  0  0  # atno 11005 bound_to 11000
  146.1279  139.4308  143.0187 LP  0  0  0  0  0  0  0  0  0  0  0  0  # atno 17320 bound_to 7965
  145.7207  141.0076  143.1404 LP  0  0  0  0  0  0  0  0  0  0  0  0  # atno 17321 bound_to 7965
  140.5262  144.0802  150.6038 LP  0  0  0  0  0  0  0  0  0  0  0  0  # atno 17342 bound_to 10162
  140.3776  143.2820  152.0207 LP  0  0  0  0  0  0  0  0  0  0  0  0  # atno 17343 bound_to 10162
  156.4323  130.7821  151.2841 LP  0  0  0  0  0  0  0  0  0  0  0  0  # atno 17370 bound_to 10713
  157.7504  131.0150  150.3487 LP  0  0  0  0  0  0  0  0  0  0  0  0  # atno 17371 bound_to 10713
  140.0186  134.6582  155.9273 LP  0  0  0  0  0  0  0  0  0  0  0  0  # atno 17394 bound_to 11000
  141.1776  133.6542  156.4889 LP  0  0  0  0  0  0  0  0  0  0  0  0  # atno 17395 bound_to 11000

$$$$
