AV-unprocessed.smi:3231|AV-procd|sdf|12338|dock4
  -GOLD-   2272018193D 1   1.00000     0.00000
 Structure written by MMmdl.
 40 41  0  0  0  0  0  0  0  0  1 V2000
  150.5014  134.2866  156.3735 O   0  0  0  0  0  0  0  0  0  0  0  0
  149.9896  134.7589  155.1427 C   0  0  1  0  0  0  0  0  0  0  0  0
  148.9203  133.7510  154.6834 C   0  0  0  0  0  0  0  0  0  0  0  0
  148.4749  134.0325  153.3211 N   0  0  0  0  0  0  0  0  0  0  0  0
  147.0492  133.7968  153.1188 C   0  0  0  0  0  0  0  0  0  0  0  0
  146.7991  132.4008  152.5320 C   0  0  0  0  0  0  0  0  0  0  0  0
  145.7543  132.4245  151.5268 N   0  0  0  0  0  0  0  0  0  0  0  0
  145.8515  132.1341  150.1824 C   0  0  0  0  0  0  0  0  0  0  0  0
  144.6071  132.2906  149.6422 C   0  0  0  0  0  0  0  0  0  0  0  0
  143.8047  132.6833  150.7498 C   0  0  0  0  0  0  0  0  0  0  0  0
  144.4943  132.7627  151.8765 N   0  0  0  0  0  0  0  0  0  0  0  0
  149.3946  136.1660  155.3718 C   0  0  0  0  0  0  0  0  0  0  0  0
  150.3715  137.2259  155.6272 N   0  0  0  0  0  0  0  0  0  0  0  0
  149.7439  138.5044  155.9544 C   0  0  0  0  0  0  0  0  0  0  0  0
  150.7846  139.6138  156.1881 C   0  0  0  0  0  0  0  0  0  0  0  0
  151.6226  139.7356  155.0435 O   0  0  0  0  0  0  0  0  0  0  0  0
  152.2912  138.5203  154.7226 C   0  0  0  0  0  0  0  0  0  0  0  0
  151.2527  137.4116  154.4790 C   0  0  0  0  0  0  0  0  0  0  0  0
  150.4152  133.3455  156.3882 H   0  0  0  0  0  0  0  0  0  0  0  0
  150.7885  134.8113  154.4010 H   0  0  0  0  0  0  0  0  0  0  0  0
  149.2940  132.7296  154.7677 H   0  0  0  0  0  0  0  0  0  0  0  0
  148.0588  133.8184  155.3488 H   0  0  0  0  0  0  0  0  0  0  0  0
  148.6996  134.9929  153.0807 H   0  0  0  0  0  0  0  0  0  0  0  0
  146.5170  133.8980  154.0653 H   0  0  0  0  0  0  0  0  0  0  0  0
  146.6400  134.5521  152.4464 H   0  0  0  0  0  0  0  0  0  0  0  0
  147.7095  132.0045  152.0798 H   0  0  0  0  0  0  0  0  0  0  0  0
  146.5063  131.7040  153.3187 H   0  0  0  0  0  0  0  0  0  0  0  0
  146.7869  131.8431  149.7272 H   0  0  0  0  0  0  0  0  0  0  0  0
  144.3141  132.1465  148.6129 H   0  0  0  0  0  0  0  0  0  0  0  0
  142.7491  132.9111  150.7683 H   0  0  0  0  0  0  0  0  0  0  0  0
  148.8495  136.4414  154.4682 H   0  0  0  0  0  0  0  0  0  0  0  0
  148.6424  136.1394  156.1623 H   0  0  0  0  0  0  0  0  0  0  0  0
  149.0713  138.8032  155.1490 H   0  0  0  0  0  0  0  0  0  0  0  0
  149.1341  138.4063  156.8521 H   0  0  0  0  0  0  0  0  0  0  0  0
  150.2882  140.5671  156.3698 H   0  0  0  0  0  0  0  0  0  0  0  0
  151.3906  139.3950  157.0687 H   0  0  0  0  0  0  0  0  0  0  0  0
  152.8998  138.6725  153.8310 H   0  0  0  0  0  0  0  0  0  0  0  0
  152.9693  138.2446  155.5314 H   0  0  0  0  0  0  0  0  0  0  0  0
  151.7707  136.4784  154.2544 H   0  0  0  0  0  0  0  0  0  0  0  0
  150.6621  137.6608  153.5959 H   0  0  0  0  0  0  0  0  0  0  0  0
  1  2  1  0  0  0  0
  1 19  1  0  0  0  0
  2  3  1  0  0  0  0
  2 12  1  0  0  0  0
  2 20  1  0  0  0  0
  3  4  1  0  0  0  0
  3 21  1  0  0  0  0
  3 22  1  0  0  0  0
  4  5  1  0  0  0  0
  4 23  1  0  0  0  0
  5  6  1  0  0  0  0
  5 24  1  0  0  0  0
  5 25  1  0  0  0  0
  6  7  1  0  0  0  0
  6 26  1  0  0  0  0
  6 27  1  0  0  0  0
  7 11  1  0  0  0  0
  7  8  1  0  0  0  0
  8  9  2  0  0  0  0
  8 28  1  0  0  0  0
  9 10  1  0  0  0  0
  9 29  1  0  0  0  0
 10 11  2  0  0  0  0
 10 30  1  0  0  0  0
 12 13  1  0  0  0  0
 12 31  1  0  0  0  0
 12 32  1  0  0  0  0
 13 18  1  0  0  0  0
 13 14  1  0  0  0  0
 14 15  1  0  0  0  0
 14 33  1  0  0  0  0
 14 34  1  0  0  0  0
 15 16  1  0  0  0  0
 15 35  1  0  0  0  0
 15 36  1  0  0  0  0
 16 17  1  0  0  0  0
 17 18  1  0  0  0  0
 17 37  1  0  0  0  0
 17 38  1  0  0  0  0
 18 39  1  0  0  0  0
 18 40  1  0  0  0  0
M  END
> <s_m_source_file>
AV-unprocessed.smi

> <i_m_source_file_index>
3231

> <i_lp_mmshare_version>
43012

> <i_f3d_flags>
0

> <s_epik_input>
W0NIMl0xW0NIMl1PW0NIMl1bQ0gyXU4xW0NIMl1bQ0BIXShbT0hdKVtDSDJdW05IXVtDSDJdW0NIMl1uMltjSF1bY0hdW2NIXW4y

> <s_epik_cmdline>
J2VwaWtfcHl0aG9uJywgJy1waCcsICc3LjAnLCAnLXRuJywgJzgnLCAnLW1hJywgJzIwMCcsICctbWV0YWxfYmluZGluZycsICctaW1hZScsICc8aW5maWxlLm1hZT4nLCAnLW9tYWUnLCAnPG91dGZpbGUubWFlPic=

> <r_lp_tautomer_probability>
1

> <r_epik_Ionization_Penalty>
2.37071

> <r_epik_Ionization_Penalty_Charging>
0

> <r_epik_Ionization_Penalty_Neutral>
2.37071

> <r_epik_State_Penalty>
1.72455

> <r_epik_Charging_Adjusted_Penalty>
1.72455

> <i_epik_Tot_Q>
0

> <i_epik_Tot_abs_Q>
0

> <r_epik_Metal_State_Penalty>
1.72366

> <b_epik_Metal_Only>
0

> <s_lp_Force_Field>
OPLS_2005

> <r_lp_Energy>
35.5688

> <b_lp_Chiralities_Consistent>
1

> <s_lp_Variant>
AV-unprocessed.smi:3231-8

> <Gold.Version>
5.8.1

> <Gold.Id.Protein>
6NUR|6NUR_protein|mol2

> <Gold.PLP.Fitness>
42.3314

> <Gold.PLP.PLP>
-31.9797

> <Gold.PLP.part.hbond>
-2.0000

> <Gold.PLP.part.metal>
0.0000

> <Gold.PLP.part.buried>
-3.8105

> <Gold.PLP.part.nonpolar>
-26.5247

> <Gold.PLP.part.repulsive>
0.2421

> <Gold.PLP.ligand.clash>
0.0000

> <Gold.PLP.ligand.torsion>
0.8943

> <Gold.PLP.Chemscore.Hbond>
1.9920

> <Gold.PLP.Chemscore.CHOScore>
2.0000

> <Gold.PLP.Chemscore.Metal>
0.0000

> <Gold.Chemscore.Hbonds>
donor molecule, donor type, donor heavy atom, donor atom, acceptor molecule, acceptor atom, score
      L1  H     4    23       P1  7948  0.96
      P1  H  7989  7998       L1    16  1.00
      L1  C     8    28       P1 10747  1.00
      L1  C    10    30       P1 10186  0.82

> <Gold.PLP.Chemscore.Internal.Correction>
0.1643

> <Gold.Rescore>
     Score         DG    S(hbond)    S(metal)    S(lipo)     H(rot)  DE(clash)    DE(int)     intcor
     12.16     -13.06       1.64        0.00      77.50       2.72       0.07       0.82       ----

> <Gold.Chemscore.Fitness>
12.1631

> <Gold.Chemscore.DG>
-13.0584

> <Gold.Chemscore.ZeroCoef>
-5.4800

> <Gold.Chemscore.Hbond>
1.6375

> <Gold.Chemscore.Metal>
0.0000

> <Gold.Chemscore.Lipo>
77.5045

> <Gold.Chemscore.Internal_Hbond>
0.0000

> <Gold.Chemscore.DEClash>
0.0713

> <Gold.Chemscore.DEInternal>
0.8240

> <Gold.Chemscore.Rot>
2.7183

> <Gold.Chemscore.Internal.Correction>
   9.000000E+99

> <Gold.Chemscore.Hbonds>
donor molecule, donor type, donor heavy atom, donor atom, acceptor molecule, acceptor atom, score
      L1  H     4    23       P1  7948  0.41
      P1  H  7989  7998       L1    16  0.64

> <Gold.Chemscore.Hbond.Weighted>
-5.4692

> <Gold.Chemscore.Metal.Weighted>
-0.0000

> <Gold.Chemscore.Lipo.Weighted>
-9.0680

> <Gold.Chemscore.Internal_Hbond.Weighted>
0.0000

> <Gold.Chemscore.DEClash.Weighted>
0.0713

> <Gold.Chemscore.DEInternal.Weighted>
0.8240

> <Gold.Chemscore.Rot.Weighted>
6.9589

> <Gold.Chemscore.Internal.Correction.Weighted>
   9.000000E+99

> <Gold.Protein.RotatedTorsions>
[ 6907 6896 6895 6894 ] final  107.24 input  -60.11 | X-H torsion
[ 7974 7965 7964 7962 ] final  -11.88 input  175.53 | X-H torsion
[ 8008 7997 7996 7995 ] final  -30.06 input   59.86 | X-H torsion
[ 10167 10162 10161 10158 ] final   -4.98 input  -65.29 | X-H torsion
[ 10718 10713 10712 10709 ] final   85.90 input   66.30 | X-H torsion
[ 10763 10752 10751 10750 ] final   45.78 input  -60.55 | X-H torsion
[ 11005 11000 10999 10996 ] final   85.89 input  -57.11 | X-H torsion

> <Gold.Protein.ActiveResidues>
 VAL166  LYS551  ARG553  GLY616  TRP617  ASP618  TYR619  PRO620  LYS621  CYS622 
 ASP623  PHE694  ASN695  SER759  ASP760  ASP761  ALA762  ILE779  LEU786  VAL792 
 PHE793  MET794  SER795  GLU796  ALA797  LYS798  CYS799  TRP800  GLU811  SER814 

> <Gold.Protein.RotatedAtoms>
  152.5162  133.9263  159.7558 H   0  0  0  0  0  0  0  0  0  0  0  0  # atno 6907 bound_to 6896
  150.9623  133.6423  159.2759 H   0  0  0  0  0  0  0  0  0  0  0  0  # atno 6908 bound_to 6896
  151.3663  135.0919  159.9504 H   0  0  0  0  0  0  0  0  0  0  0  0  # atno 6909 bound_to 6896
  146.2172  140.2975  142.8373 H   0  0  0  0  0  0  0  0  0  0  0  0  # atno 7974 bound_to 7965
  154.4265  140.1801  156.1346 H   0  0  0  0  0  0  0  0  0  0  0  0  # atno 8008 bound_to 7997
  156.0040  140.3357  155.6849 H   0  0  0  0  0  0  0  0  0  0  0  0  # atno 8009 bound_to 7997
  155.6203  140.0659  157.2671 H   0  0  0  0  0  0  0  0  0  0  0  0  # atno 8010 bound_to 7997
  140.6947  143.6360  150.8479 H   0  0  0  0  0  0  0  0  0  0  0  0  # atno 10167 bound_to 10162
  157.6921  131.0194  150.2892 H   0  0  0  0  0  0  0  0  0  0  0  0  # atno 10718 bound_to 10713
  152.9819  135.6029  154.3492 H   0  0  0  0  0  0  0  0  0  0  0  0  # atno 10763 bound_to 10752
  154.3182  135.2770  155.2534 H   0  0  0  0  0  0  0  0  0  0  0  0  # atno 10764 bound_to 10752
  154.4712  135.5941  153.6379 H   0  0  0  0  0  0  0  0  0  0  0  0  # atno 10765 bound_to 10752
  139.8959  134.8318  156.2645 H   0  0  0  0  0  0  0  0  0  0  0  0  # atno 11005 bound_to 11000
  144.9081  140.7724  143.5824 LP  0  0  0  0  0  0  0  0  0  0  0  0  # atno 17320 bound_to 7965
  145.2905  139.1885  143.4743 LP  0  0  0  0  0  0  0  0  0  0  0  0  # atno 17321 bound_to 7965
  140.0077  143.5676  152.2851 LP  0  0  0  0  0  0  0  0  0  0  0  0  # atno 17342 bound_to 10162
  139.6388  144.7653  151.2381 LP  0  0  0  0  0  0  0  0  0  0  0  0  # atno 17343 bound_to 10162
  156.3426  130.3818  149.7396 LP  0  0  0  0  0  0  0  0  0  0  0  0  # atno 17370 bound_to 10713
  156.4900  130.8080  151.3091 LP  0  0  0  0  0  0  0  0  0  0  0  0  # atno 17371 bound_to 10713
  141.0141  133.7079  156.1159 LP  0  0  0  0  0  0  0  0  0  0  0  0  # atno 17394 bound_to 11000
  140.7326  134.4237  157.5564 LP  0  0  0  0  0  0  0  0  0  0  0  0  # atno 17395 bound_to 11000

$$$$
