AV-unprocessed.smi:1749|AV-procd|sdf|7047|dock10
  -GOLD-   22720 8263D 1   1.00000     0.00000
 Structure written by MMmdl.
 32 33  0  0  0  0  0  0  0  0  1 V2000
  146.6462  132.0265  153.0945 C   0  0  0  0  0  0  0  0  0  0  0  0
  146.3933  133.4608  152.6095 C   0  0  1  0  0  0  0  0  0  0  0  0
  145.6027  133.4774  151.2873 C   0  0  0  0  0  0  0  0  0  0  0  0
  145.3434  134.9118  150.8005 C   0  0  0  0  0  0  0  0  0  0  0  0
  144.6270  135.7478  151.8756 C   0  0  0  0  0  0  0  0  0  0  0  0
  145.3874  135.7430  153.2156 C   0  0  2  0  0  0  0  0  0  0  0  0
  146.6289  136.5023  153.0894 N   0  0  0  0  0  0  0  0  0  0  0  0
  146.9422  137.6245  153.7574 C   0  0  0  0  0  0  0  0  0  0  0  0
  146.1653  138.1772  154.5341 O   0  0  0  0  0  0  0  0  0  0  0  0
  148.1721  138.1297  153.5234 N   0  0  0  0  0  0  0  0  0  0  0  0
  148.8294  139.2823  154.0448 C   0  0  0  0  0  0  0  0  0  0  0  0
  150.0648  139.2777  154.5726 N   0  0  0  0  0  0  0  0  0  0  0  0
  150.4462  140.5339  155.0230 N   0  0  0  0  0  0  0  0  0  0  0  0
  149.4805  141.4363  154.8311 C   0  0  0  0  0  0  0  0  0  0  0  0
  148.0107  140.8379  154.0816 S   0  0  0  0  0  0  0  0  0  0  0  0
  145.6662  134.2982  153.6831 C   0  0  0  0  0  0  0  0  0  0  0  0
  145.7106  131.5059  153.3003 H   0  0  0  0  0  0  0  0  0  0  0  0
  147.2387  132.0212  154.0098 H   0  0  0  0  0  0  0  0  0  0  0  0
  147.1909  131.4498  152.3465 H   0  0  0  0  0  0  0  0  0  0  0  0
  147.3677  133.9155  152.4241 H   0  0  0  0  0  0  0  0  0  0  0  0
  146.1467  132.9254  150.5201 H   0  0  0  0  0  0  0  0  0  0  0  0
  144.6504  132.9624  151.4206 H   0  0  0  0  0  0  0  0  0  0  0  0
  146.2896  135.3840  150.5330 H   0  0  0  0  0  0  0  0  0  0  0  0
  144.7445  134.8908  149.8897 H   0  0  0  0  0  0  0  0  0  0  0  0
  144.4877  136.7705  151.5232 H   0  0  0  0  0  0  0  0  0  0  0  0
  143.6264  135.3426  152.0317 H   0  0  0  0  0  0  0  0  0  0  0  0
  144.7585  136.2365  153.9589 H   0  0  0  0  0  0  0  0  0  0  0  0
  147.3268  136.1205  152.4667 H   0  0  0  0  0  0  0  0  0  0  0  0
  148.6960  137.6398  152.8128 H   0  0  0  0  0  0  0  0  0  0  0  0
  149.6330  142.4609  155.1361 H   0  0  0  0  0  0  0  0  0  0  0  0
  144.7185  133.8183  153.9312 H   0  0  0  0  0  0  0  0  0  0  0  0
  146.2467  134.3087  154.6066 H   0  0  0  0  0  0  0  0  0  0  0  0
  1  2  1  0  0  0  0
  1 17  1  0  0  0  0
  1 18  1  0  0  0  0
  1 19  1  0  0  0  0
  2 16  1  0  0  0  0
  2  3  1  0  0  0  0
  2 20  1  0  0  0  0
  3  4  1  0  0  0  0
  3 21  1  0  0  0  0
  3 22  1  0  0  0  0
  4  5  1  0  0  0  0
  4 23  1  0  0  0  0
  4 24  1  0  0  0  0
  5  6  1  0  0  0  0
  5 25  1  0  0  0  0
  5 26  1  0  0  0  0
  6  7  1  0  0  0  0
  6 16  1  0  0  0  0
  6 27  1  0  0  0  0
  7  8  1  0  0  0  0
  7 28  1  0  0  0  0
  8  9  2  0  0  0  0
  8 10  1  0  0  0  0
 10 11  1  0  0  0  0
 10 29  1  0  0  0  0
 11 15  1  0  0  0  0
 11 12  2  0  0  0  0
 12 13  1  0  0  0  0
 13 14  2  0  0  0  0
 14 15  1  0  0  0  0
 14 30  1  0  0  0  0
 16 31  1  0  0  0  0
 16 32  1  0  0  0  0
M  END
> <s_m_source_file>
AV-unprocessed.smi

> <i_m_source_file_index>
1749

> <i_lp_mmshare_version>
43012

> <i_f3d_flags>
0

> <s_epik_input>
W0NIM11bQ0BASF0xW0NIMl1bQ0gyXVtDSDJdW0NASF0oW0NIMl0xKVtOSF1DKD1PKVtOSF1jMm5uW2NIXXMy

> <s_epik_cmdline>
J2VwaWtfcHl0aG9uJywgJy1waCcsICc3LjAnLCAnLXRuJywgJzgnLCAnLW1hJywgJzIwMCcsICctbWV0YWxfYmluZGluZycsICctaW1hZScsICc8aW5maWxlLm1hZT4nLCAnLW9tYWUnLCAnPG91dGZpbGUubWFlPic=

> <r_lp_tautomer_probability>
1

> <r_epik_Ionization_Penalty>
0.000318591

> <r_epik_Ionization_Penalty_Charging>
0

> <r_epik_Ionization_Penalty_Neutral>
0.000318591

> <r_epik_State_Penalty>
-0

> <r_epik_Charging_Adjusted_Penalty>
0

> <i_epik_Tot_Q>
0

> <i_epik_Tot_abs_Q>
0

> <r_epik_Metal_State_Penalty>
0.169791

> <b_epik_Metal_Only>
0

> <s_lp_Force_Field>
OPLS_2005

> <r_lp_Energy>
10.2473

> <b_lp_Chiralities_Consistent>
1

> <s_lp_Variant>
AV-unprocessed.smi:1749-4

> <Gold.Version>
5.8.1

> <Gold.Id.Protein>
6NUR|6NUR_protein|mol2

> <Gold.PLP.Fitness>
32.2578

> <Gold.PLP.PLP>
-22.0120

> <Gold.PLP.part.hbond>
-3.0000

> <Gold.PLP.part.metal>
0.0000

> <Gold.PLP.part.buried>
-2.3882

> <Gold.PLP.part.nonpolar>
-16.7636

> <Gold.PLP.part.repulsive>
0.3332

> <Gold.PLP.ligand.clash>
0.0000

> <Gold.PLP.ligand.torsion>
0.4358

> <Gold.PLP.Chemscore.Hbond>
2.7040

> <Gold.PLP.Chemscore.CHOScore>
1.0000

> <Gold.PLP.Chemscore.Metal>
0.0000

> <Gold.Chemscore.Hbonds>
donor molecule, donor type, donor heavy atom, donor atom, acceptor molecule, acceptor atom, score
      L1  H     7    28       P1  7948  0.96
      L1  H    10    29       P1  7948  1.00
      P1  H  7989  7998       L1    13  0.68
      L1  C    14    30       P1  8028  1.00

> <Gold.PLP.Chemscore.Internal.Correction>
0.0054

> <Gold.Rescore>
     Score         DG    S(hbond)    S(metal)    S(lipo)     H(rot)  DE(clash)    DE(int)     intcor
     14.00     -14.44       1.92        0.00      43.50       1.00       0.00       0.43       ----

> <Gold.Chemscore.Fitness>
14.0031

> <Gold.Chemscore.DG>
-14.4360

> <Gold.Chemscore.ZeroCoef>
-5.4800

> <Gold.Chemscore.Hbond>
1.9240

> <Gold.Chemscore.Metal>
0.0000

> <Gold.Chemscore.Lipo>
43.5047

> <Gold.Chemscore.Internal_Hbond>
0.0000

> <Gold.Chemscore.DEClash>
0.0048

> <Gold.Chemscore.DEInternal>
0.4282

> <Gold.Chemscore.Rot>
1.0000

> <Gold.Chemscore.Internal.Correction>
   9.000000E+99

> <Gold.Chemscore.Hbonds>
donor molecule, donor type, donor heavy atom, donor atom, acceptor molecule, acceptor atom, score
      L1  H     7    28       P1  7948  0.92
      L1  H    10    29       P1  7948  0.95
      P1  H  7989  7998       L1    13  0.02

> <Gold.Chemscore.Hbond.Weighted>
-6.4260

> <Gold.Chemscore.Metal.Weighted>
-0.0000

> <Gold.Chemscore.Lipo.Weighted>
-5.0900

> <Gold.Chemscore.Internal_Hbond.Weighted>
0.0000

> <Gold.Chemscore.DEClash.Weighted>
0.0048

> <Gold.Chemscore.DEInternal.Weighted>
0.4282

> <Gold.Chemscore.Rot.Weighted>
2.5600

> <Gold.Chemscore.Internal.Correction.Weighted>
   9.000000E+99

> <Gold.Protein.RotatedTorsions>
[ 6907 6896 6895 6894 ] final -164.30 input  -60.11 | X-H torsion
[ 7974 7965 7964 7962 ] final   50.65 input  175.53 | X-H torsion
[ 8008 7997 7996 7995 ] final  150.98 input   59.86 | X-H torsion
[ 10167 10162 10161 10158 ] final  -85.69 input  -65.29 | X-H torsion
[ 10718 10713 10712 10709 ] final -122.65 input   66.30 | X-H torsion
[ 10763 10752 10751 10750 ] final -102.94 input  -60.55 | X-H torsion
[ 11005 11000 10999 10996 ] final   12.45 input  -57.11 | X-H torsion

> <Gold.Protein.ActiveResidues>
 VAL166  LYS551  ARG553  GLY616  TRP617  ASP618  TYR619  PRO620  LYS621  CYS622 
 ASP623  PHE694  ASN695  SER759  ASP760  ASP761  ALA762  ILE779  LEU786  VAL792 
 PHE793  MET794  SER795  GLU796  ALA797  LYS798  CYS799  TRP800  GLU811  SER814 

> <Gold.Protein.RotatedAtoms>
  151.4097  133.3731  159.2742 H   0  0  0  0  0  0  0  0  0  0  0  0  # atno 6907 bound_to 6896
  150.9372  134.8785  159.7600 H   0  0  0  0  0  0  0  0  0  0  0  0  # atno 6908 bound_to 6896
  152.5055  134.4045  159.9480 H   0  0  0  0  0  0  0  0  0  0  0  0  # atno 6909 bound_to 6896
  145.9991  139.4420  143.0026 H   0  0  0  0  0  0  0  0  0  0  0  0  # atno 7974 bound_to 7965
  156.2693  140.2060  156.6104 H   0  0  0  0  0  0  0  0  0  0  0  0  # atno 8008 bound_to 7997
  154.6836  140.0537  157.0315 H   0  0  0  0  0  0  0  0  0  0  0  0  # atno 8009 bound_to 7997
  155.0965  140.3202  155.4562 H   0  0  0  0  0  0  0  0  0  0  0  0  # atno 8010 bound_to 7997
  140.4013  143.2661  151.9138 H   0  0  0  0  0  0  0  0  0  0  0  0  # atno 10167 bound_to 10162
  156.1436  130.6484  150.9809 H   0  0  0  0  0  0  0  0  0  0  0  0  # atno 10718 bound_to 10713
  154.7771  135.4842  153.9767 H   0  0  0  0  0  0  0  0  0  0  0  0  # atno 10763 bound_to 10752
  153.1443  135.6779  153.8986 H   0  0  0  0  0  0  0  0  0  0  0  0  # atno 10764 bound_to 10752
  153.8650  135.3150  155.3418 H   0  0  0  0  0  0  0  0  0  0  0  0  # atno 10765 bound_to 10752
  140.4919  134.0832  155.7773 H   0  0  0  0  0  0  0  0  0  0  0  0  # atno 11005 bound_to 11000
  145.7515  140.9970  143.1248 LP  0  0  0  0  0  0  0  0  0  0  0  0  # atno 17320 bound_to 7965
  144.6913  139.9220  143.7468 LP  0  0  0  0  0  0  0  0  0  0  0  0  # atno 17321 bound_to 7965
  139.4784  144.5630  151.8209 LP  0  0  0  0  0  0  0  0  0  0  0  0  # atno 17342 bound_to 10162
  140.4736  144.1551  150.5921 LP  0  0  0  0  0  0  0  0  0  0  0  0  # atno 17343 bound_to 10162
  157.6597  131.0883  150.7865 LP  0  0  0  0  0  0  0  0  0  0  0  0  # atno 17370 bound_to 10713
  156.7939  130.4899  149.5380 LP  0  0  0  0  0  0  0  0  0  0  0  0  # atno 17371 bound_to 10713
  141.1480  133.9021  157.2169 LP  0  0  0  0  0  0  0  0  0  0  0  0  # atno 17394 bound_to 11000
  139.9764  135.0112  156.9642 LP  0  0  0  0  0  0  0  0  0  0  0  0  # atno 17395 bound_to 11000

$$$$
