AV-unprocessed.smi:1912|AV-procd|sdf|7751|dock3
  -GOLD-   22720 9493D 1   1.00000     0.00000
 Structure written by MMmdl.
 44 46  0  0  0  0  0  0  0  0  2 V2000
  142.7974  138.6960  159.0916 C   0  0  0  0  0  0  0  0  0  0  0  0
  143.2536  137.8259  158.0659 O   0  0  0  0  0  0  0  0  0  0  0  0
  142.4314  137.6172  156.9798 C   0  0  0  0  0  0  0  0  0  0  0  0
  141.1909  138.2676  156.7836 C   0  0  0  0  0  0  0  0  0  0  0  0
  140.4080  137.9827  155.6500 C   0  0  0  0  0  0  0  0  0  0  0  0
  140.8417  137.0397  154.6853 C   0  0  0  0  0  0  0  0  0  0  0  0
  140.1030  136.7019  153.5695 O   0  0  0  0  0  0  0  0  0  0  0  0
  138.7804  137.2060  153.4548 C   0  0  0  0  0  0  0  0  0  0  0  0
  142.0870  136.3927  154.8741 C   0  0  0  0  0  0  0  0  0  0  0  0
  142.5690  135.3489  153.8671 C   0  0  1  0  0  0  0  0  0  0  0  0
  141.6357  134.3065  153.6574 O   0  0  0  0  0  0  0  0  0  0  0  0
  142.9743  135.9743  152.5119 C   0  0  0  0  0  0  0  0  0  0  0  0
  144.2817  135.5123  152.0073 N   0  0  0  0  0  0  0  0  0  0  0  0
  145.4796  136.1636  151.9305 C   0  0  0  0  0  0  0  0  0  0  0  0
  145.7746  137.5673  152.3440 C   0  0  0  0  0  0  0  0  0  0  0  0
  146.3831  135.2882  151.4079 N   0  3  0  0  0  0  0  0  0  0  0  0
  145.7614  134.0691  151.1401 C   0  0  0  0  0  0  0  0  0  0  0  0
  146.2707  132.8852  150.6156 C   0  0  0  0  0  0  0  0  0  0  0  0
  145.3629  131.8162  150.4683 C   0  0  0  0  0  0  0  0  0  0  0  0
  144.0072  131.9501  150.8310 C   0  0  0  0  0  0  0  0  0  0  0  0
  143.5024  133.1571  151.3571 C   0  0  0  0  0  0  0  0  0  0  0  0
  144.4080  134.2078  151.5100 C   0  0  0  0  0  0  0  0  0  0  0  0
  142.8664  136.6889  156.0157 C   0  0  0  0  0  0  0  0  0  0  0  0
  143.5535  138.7568  159.8742 H   0  0  0  0  0  0  0  0  0  0  0  0
  141.8787  138.3263  159.5489 H   0  0  0  0  0  0  0  0  0  0  0  0
  142.6322  139.7060  158.7141 H   0  0  0  0  0  0  0  0  0  0  0  0
  140.8126  138.9885  157.4923 H   0  0  0  0  0  0  0  0  0  0  0  0
  139.4672  138.5016  155.5490 H   0  0  0  0  0  0  0  0  0  0  0  0
  138.3422  136.8538  152.5213 H   0  0  0  0  0  0  0  0  0  0  0  0
  138.7706  138.2967  153.4321 H   0  0  0  0  0  0  0  0  0  0  0  0
  138.1460  136.8542  154.2694 H   0  0  0  0  0  0  0  0  0  0  0  0
  143.4481  134.8588  154.2863 H   0  0  0  0  0  0  0  0  0  0  0  0
  141.9751  133.5183  154.0536 H   0  0  0  0  0  0  0  0  0  0  0  0
  142.2116  135.7937  151.7544 H   0  0  0  0  0  0  0  0  0  0  0  0
  143.0328  137.0583  152.6128 H   0  0  0  0  0  0  0  0  0  0  0  0
  146.6274  137.9557  151.7869 H   0  0  0  0  0  0  0  0  0  0  0  0
  146.0119  137.6029  153.4072 H   0  0  0  0  0  0  0  0  0  0  0  0
  144.9192  138.2151  152.1544 H   0  0  0  0  0  0  0  0  0  0  0  0
  147.3086  132.7816  150.3358 H   0  0  0  0  0  0  0  0  0  0  0  0
  145.7134  130.8758  150.0686 H   0  0  0  0  0  0  0  0  0  0  0  0
  143.3403  131.1095  150.7045 H   0  0  0  0  0  0  0  0  0  0  0  0
  142.4630  133.2435  151.6350 H   0  0  0  0  0  0  0  0  0  0  0  0
  143.8084  136.1839  156.1726 H   0  0  0  0  0  0  0  0  0  0  0  0
  147.3569  135.5119  151.2484 H   0  0  0  0  0  0  0  0  0  0  0  0
  1  2  1  0  0  0  0
  1 24  1  0  0  0  0
  1 25  1  0  0  0  0
  1 26  1  0  0  0  0
  2  3  1  0  0  0  0
  3 23  1  0  0  0  0
  3  4  2  0  0  0  0
  4  5  1  0  0  0  0
  4 27  1  0  0  0  0
  5  6  2  0  0  0  0
  5 28  1  0  0  0  0
  6  7  1  0  0  0  0
  6  9  1  0  0  0  0
  7  8  1  0  0  0  0
  8 29  1  0  0  0  0
  8 30  1  0  0  0  0
  8 31  1  0  0  0  0
  9 10  1  0  0  0  0
  9 23  2  0  0  0  0
 10 11  1  0  0  0  0
 10 12  1  0  0  0  0
 10 32  1  0  0  0  0
 11 33  1  0  0  0  0
 12 13  1  0  0  0  0
 12 34  1  0  0  0  0
 12 35  1  0  0  0  0
 13 22  1  0  0  0  0
 13 14  1  0  0  0  0
 14 15  1  0  0  0  0
 14 16  2  0  0  0  0
 15 36  1  0  0  0  0
 15 37  1  0  0  0  0
 15 38  1  0  0  0  0
 16 17  1  0  0  0  0
 16 44  1  0  0  0  0
 17 22  2  0  0  0  0
 17 18  1  0  0  0  0
 18 19  2  0  0  0  0
 18 39  1  0  0  0  0
 19 20  1  0  0  0  0
 19 40  1  0  0  0  0
 20 21  2  0  0  0  0
 20 41  1  0  0  0  0
 21 22  1  0  0  0  0
 21 42  1  0  0  0  0
 23 43  1  0  0  0  0
M  CHG  1  16   1
M  END
> <s_m_source_file>
AV-unprocessed.smi

> <i_m_source_file_index>
1912

> <i_lp_mmshare_version>
43012

> <i_f3d_flags>
0

> <s_epik_input>
W0NIM11PYzFbY0hdW2NIXWMoT1tDSDNdKWMoW2NIXTEpW0NASF0oW09IXSlbQ0gyXW4oYyhuMilbQ0gzXSljKGMyMylbY0hdW2NIXVtjSF1bY0hdMw==

> <s_epik_cmdline>
J2VwaWtfcHl0aG9uJywgJy1waCcsICc3LjAnLCAnLXRuJywgJzgnLCAnLW1hJywgJzIwMCcsICctbWV0YWxfYmluZGluZycsICctaW1hZScsICc8aW5maWxlLm1hZT4nLCAnLW9tYWUnLCAnPG91dGZpbGUubWFlPic=

> <r_lp_tautomer_probability>
1

> <r_epik_Ionization_Penalty>
0.963869

> <r_epik_Ionization_Penalty_Charging>
0.963868

> <r_epik_Ionization_Penalty_Neutral>
1.34362e-06

> <r_epik_State_Penalty>
1.00924

> <r_epik_Charging_Adjusted_Penalty>
1.9731

> <i_epik_Tot_Q>
1

> <i_epik_Tot_abs_Q>
1

> <r_epik_Metal_State_Penalty>
4.98304

> <b_epik_Metal_Only>
0

> <s_lp_Force_Field>
OPLS_2005

> <r_lp_Energy>
21.1539

> <b_lp_Chiralities_Consistent>
1

> <s_lp_Variant>
AV-unprocessed.smi:1912-4

> <Gold.Version>
5.8.1

> <Gold.Id.Protein>
6NUR|6NUR_protein|mol2

> <Gold.PLP.Fitness>
43.0919

> <Gold.PLP.PLP>
-35.8877

> <Gold.PLP.part.hbond>
-2.1930

> <Gold.PLP.part.metal>
0.0000

> <Gold.PLP.part.buried>
-7.9593

> <Gold.PLP.part.nonpolar>
-26.8959

> <Gold.PLP.part.repulsive>
0.2069

> <Gold.PLP.ligand.clash>
0.0000

> <Gold.PLP.ligand.torsion>
0.9550

> <Gold.PLP.Chemscore.Hbond>
3.0000

> <Gold.PLP.Chemscore.CHOScore>
0.0000

> <Gold.PLP.Chemscore.Metal>
0.0000

> <Gold.Chemscore.Hbonds>
donor molecule, donor type, donor heavy atom, donor atom, acceptor molecule, acceptor atom, score
      L1  H    11    33       P1 10957  1.00
      L1  H    16    44       P1  7948  2.00

> <Gold.PLP.Chemscore.Internal.Correction>
0.1141

> <Gold.Rescore>
     Score         DG    S(hbond)    S(metal)    S(lipo)     H(rot)  DE(clash)    DE(int)     intcor
     15.25     -16.18       1.95        0.00      84.76       2.24       0.01       0.92       ----

> <Gold.Chemscore.Fitness>
15.2489

> <Gold.Chemscore.DG>
-16.1756

> <Gold.Chemscore.ZeroCoef>
-5.4800

> <Gold.Chemscore.Hbond>
1.9537

> <Gold.Chemscore.Metal>
0.0000

> <Gold.Chemscore.Lipo>
84.7615

> <Gold.Chemscore.Internal_Hbond>
0.0000

> <Gold.Chemscore.DEClash>
0.0105

> <Gold.Chemscore.DEInternal>
0.9163

> <Gold.Chemscore.Rot>
2.2448

> <Gold.Chemscore.Internal.Correction>
   9.000000E+99

> <Gold.Chemscore.Hbonds>
donor molecule, donor type, donor heavy atom, donor atom, acceptor molecule, acceptor atom, score
      L1  H    11    33       P1 10957  0.96
      L1  H    16    44       P1  7948  0.82

> <Gold.Chemscore.Hbond.Weighted>
-6.5252

> <Gold.Chemscore.Metal.Weighted>
-0.0000

> <Gold.Chemscore.Lipo.Weighted>
-9.9171

> <Gold.Chemscore.Internal_Hbond.Weighted>
0.0000

> <Gold.Chemscore.DEClash.Weighted>
0.0105

> <Gold.Chemscore.DEInternal.Weighted>
0.9163

> <Gold.Chemscore.Rot.Weighted>
5.7467

> <Gold.Chemscore.Internal.Correction.Weighted>
   9.000000E+99

> <Gold.Protein.RotatedTorsions>
[ 6907 6896 6895 6894 ] final  -51.57 input  -60.11 | X-H torsion
[ 7974 7965 7964 7962 ] final -122.09 input  175.53 | X-H torsion
[ 8008 7997 7996 7995 ] final -150.50 input   59.86 | X-H torsion
[ 10167 10162 10161 10158 ] final   -5.23 input  -65.29 | X-H torsion
[ 10718 10713 10712 10709 ] final   95.16 input   66.30 | X-H torsion
[ 10763 10752 10751 10750 ] final  -41.93 input  -60.55 | X-H torsion
[ 11005 11000 10999 10996 ] final    7.87 input  -57.11 | X-H torsion

> <Gold.Protein.ActiveResidues>
 VAL166  LYS551  ARG553  GLY616  TRP617  ASP618  TYR619  PRO620  LYS621  CYS622 
 ASP623  PHE694  ASN695  SER759  ASP760  ASP761  ALA762  ILE779  LEU786  VAL792 
 PHE793  MET794  SER795  GLU796  ALA797  LYS798  CYS799  TRP800  GLU811  SER814 

> <Gold.Protein.RotatedAtoms>
  150.8598  134.7947  159.7073 H   0  0  0  0  0  0  0  0  0  0  0  0  # atno 6907 bound_to 6896
  152.4639  134.5118  159.9766 H   0  0  0  0  0  0  0  0  0  0  0  0  # atno 6908 bound_to 6896
  151.5224  133.3426  159.2939 H   0  0  0  0  0  0  0  0  0  0  0  0  # atno 6909 bound_to 6896
  145.0333  140.8085  143.4310 H   0  0  0  0  0  0  0  0  0  0  0  0  # atno 7974 bound_to 7965
  155.6245  140.0685  157.2668 H   0  0  0  0  0  0  0  0  0  0  0  0  # atno 8008 bound_to 7997
  154.4221  140.1778  156.1456 H   0  0  0  0  0  0  0  0  0  0  0  0  # atno 8009 bound_to 7997
  155.9982  140.3338  155.6823 H   0  0  0  0  0  0  0  0  0  0  0  0  # atno 8010 bound_to 7997
  140.6956  143.6332  150.8504 H   0  0  0  0  0  0  0  0  0  0  0  0  # atno 10167 bound_to 10162
  157.6941  131.0536  150.4296 H   0  0  0  0  0  0  0  0  0  0  0  0  # atno 10718 bound_to 10713
  153.9707  135.6728  153.4747 H   0  0  0  0  0  0  0  0  0  0  0  0  # atno 10763 bound_to 10752
  153.0794  135.4931  154.8468 H   0  0  0  0  0  0  0  0  0  0  0  0  # atno 10764 bound_to 10752
  154.7220  135.3119  154.8992 H   0  0  0  0  0  0  0  0  0  0  0  0  # atno 10765 bound_to 10752
  140.5433  134.0353  155.7911 H   0  0  0  0  0  0  0  0  0  0  0  0  # atno 11005 bound_to 11000
  145.1743  139.2387  143.5326 LP  0  0  0  0  0  0  0  0  0  0  0  0  # atno 17320 bound_to 7965
  146.3501  140.1501  142.8592 LP  0  0  0  0  0  0  0  0  0  0  0  0  # atno 17321 bound_to 7965
  140.0049  143.5704  152.2861 LP  0  0  0  0  0  0  0  0  0  0  0  0  # atno 17342 bound_to 10162
  139.6407  144.7654  151.2345 LP  0  0  0  0  0  0  0  0  0  0  0  0  # atno 17343 bound_to 10162
  156.4664  130.4043  149.6545 LP  0  0  0  0  0  0  0  0  0  0  0  0  # atno 17370 bound_to 10713
  156.3641  130.7497  151.2472 LP  0  0  0  0  0  0  0  0  0  0  0  0  # atno 17371 bound_to 10713
  141.1214  133.9454  157.2721 LP  0  0  0  0  0  0  0  0  0  0  0  0  # atno 17394 bound_to 11000
  139.9492  135.0178  156.8945 LP  0  0  0  0  0  0  0  0  0  0  0  0  # atno 17395 bound_to 11000

$$$$
