AV-unprocessed.smi:137|AV-procd|sdf|1176|dock9
  -GOLD-   2262018323D 1   1.00000     0.00000
 Structure written by MMmdl.
 51 54  0  0  0  0  0  0  0  0  1 V2000
  151.3461  144.4015  157.8122 C   0  0  0  0  0  0  0  0  0  0  0  0
  151.5543  143.1686  158.7049 C   0  0  1  0  0  0  0  0  0  0  0  0
  152.1591  142.0172  157.8694 C   0  0  0  0  0  0  0  0  0  0  0  0
  151.9368  140.7053  158.4771 N   0  0  0  0  0  0  0  0  0  0  0  0
  151.0139  139.8743  157.9104 C   0  0  0  0  0  0  0  0  0  0  0  0
  150.5281  138.8389  158.6485 N   0  0  0  0  0  0  0  0  0  0  0  0
  149.6317  137.9916  158.1375 C   0  0  0  0  0  0  0  0  0  0  0  0
  149.0812  137.9947  156.9243 N   0  0  0  0  0  0  0  0  0  0  0  0
  149.5471  139.0332  156.1747 C   0  0  0  0  0  0  0  0  0  0  0  0
  150.5080  140.0062  156.5800 C   0  0  0  0  0  0  0  0  0  0  0  0
  150.7288  140.8962  155.5337 N   0  0  0  0  0  0  0  0  0  0  0  0
  149.9612  140.4686  154.5700 C   0  0  0  0  0  0  0  0  0  0  0  0
  149.1927  139.3710  154.8801 N   0  0  0  0  0  0  0  0  0  0  0  0
  148.2942  138.6763  154.0051 C   0  0  0  0  0  0  0  0  0  0  0  0
  146.9437  139.2786  153.6095 C   0  0  0  0  0  0  0  0  0  0  0  0
  146.3411  137.8567  153.5360 C   0  0  0  0  0  0  0  0  0  0  0  0
  144.9263  137.7043  154.1185 C   0  0  0  0  0  0  0  0  0  0  0  0
  143.9388  137.9700  153.1430 O   0  0  0  0  0  0  0  0  0  0  0  0
  146.3905  137.1905  152.1460 C   0  0  0  0  0  0  0  0  0  0  0  0
  146.4926  138.1527  151.1162 O   0  0  0  0  0  0  0  0  0  0  0  0
  147.4906  137.4678  154.4914 C   0  0  0  0  0  0  0  0  0  0  0  0
  152.9591  140.1166  159.3491 C   0  0  0  0  0  0  0  0  0  0  0  0
  153.7014  141.1187  160.2480 C   0  0  0  0  0  0  0  0  0  0  0  0
  152.4724  142.1677  161.1611 S   0  0  1  0  0  0  0  0  0  0  0  0
  153.1804  142.7026  162.4071 O   0  0  0  0  0  0  0  0  0  0  0  0
  152.3975  143.5624  159.9356 C   0  0  0  0  0  0  0  0  0  0  0  0
  152.2939  144.7698  157.4183 H   0  0  0  0  0  0  0  0  0  0  0  0
  150.8760  145.2150  158.3655 H   0  0  0  0  0  0  0  0  0  0  0  0
  150.7003  144.1702  156.9646 H   0  0  0  0  0  0  0  0  0  0  0  0
  150.5684  142.8650  159.0585 H   0  0  0  0  0  0  0  0  0  0  0  0
  151.7464  142.0246  156.8604 H   0  0  0  0  0  0  0  0  0  0  0  0
  153.2276  142.1805  157.7283 H   0  0  0  0  0  0  0  0  0  0  0  0
  149.3087  137.1986  158.7956 H   0  0  0  0  0  0  0  0  0  0  0  0
  149.9302  140.9517  153.6042 H   0  0  0  0  0  0  0  0  0  0  0  0
  148.8770  138.4211  153.1184 H   0  0  0  0  0  0  0  0  0  0  0  0
  146.5078  139.8843  154.4064 H   0  0  0  0  0  0  0  0  0  0  0  0
  146.9550  139.8273  152.6672 H   0  0  0  0  0  0  0  0  0  0  0  0
  144.7662  136.6898  154.4843 H   0  0  0  0  0  0  0  0  0  0  0  0
  144.7695  138.3640  154.9721 H   0  0  0  0  0  0  0  0  0  0  0  0
  143.7195  138.8887  153.1799 H   0  0  0  0  0  0  0  0  0  0  0  0
  147.2449  136.5192  152.0595 H   0  0  0  0  0  0  0  0  0  0  0  0
  145.5076  136.5769  151.9656 H   0  0  0  0  0  0  0  0  0  0  0  0
  145.6203  138.4031  150.8527 H   0  0  0  0  0  0  0  0  0  0  0  0
  147.9534  136.5029  154.2825 H   0  0  0  0  0  0  0  0  0  0  0  0
  147.2146  137.5475  155.5447 H   0  0  0  0  0  0  0  0  0  0  0  0
  152.4822  139.3814  159.9990 H   0  0  0  0  0  0  0  0  0  0  0  0
  153.6807  139.5737  158.7376 H   0  0  0  0  0  0  0  0  0  0  0  0
  154.2958  140.5675  160.9766 H   0  0  0  0  0  0  0  0  0  0  0  0
  154.3965  141.7425  159.6865 H   0  0  0  0  0  0  0  0  0  0  0  0
  153.4035  143.8772  159.6570 H   0  0  0  0  0  0  0  0  0  0  0  0
  151.9301  144.4088  160.4395 H   0  0  0  0  0  0  0  0  0  0  0  0
  1  2  1  0  0  0  0
  1 27  1  0  0  0  0
  1 28  1  0  0  0  0
  1 29  1  0  0  0  0
  2 26  1  0  0  0  0
  2  3  1  0  0  0  0
  2 30  1  0  0  0  0
  3  4  1  0  0  0  0
  3 31  1  0  0  0  0
  3 32  1  0  0  0  0
  4  5  1  0  0  0  0
  4 22  1  0  0  0  0
  5 10  1  0  0  0  0
  5  6  2  0  0  0  0
  6  7  1  0  0  0  0
  7  8  2  0  0  0  0
  7 33  1  0  0  0  0
  8  9  1  0  0  0  0
  9 13  1  0  0  0  0
  9 10  2  0  0  0  0
 10 11  1  0  0  0  0
 11 12  2  0  0  0  0
 12 13  1  0  0  0  0
 12 34  1  0  0  0  0
 13 14  1  0  0  0  0
 14 21  1  0  0  0  0
 14 15  1  0  0  0  0
 14 35  1  0  0  0  0
 15 16  1  0  0  0  0
 15 36  1  0  0  0  0
 15 37  1  0  0  0  0
 16 17  1  0  0  0  0
 16 19  1  0  0  0  0
 16 21  1  0  0  0  0
 17 18  1  0  0  0  0
 17 38  1  0  0  0  0
 17 39  1  0  0  0  0
 18 40  1  0  0  0  0
 19 20  1  0  0  0  0
 19 41  1  0  0  0  0
 19 42  1  0  0  0  0
 20 43  1  0  0  0  0
 21 44  1  0  0  0  0
 21 45  1  0  0  0  0
 22 23  1  0  0  0  0
 22 46  1  0  0  0  0
 22 47  1  0  0  0  0
 23 24  1  0  0  0  0
 23 48  1  0  0  0  0
 23 49  1  0  0  0  0
 24 25  2  0  0  0  0
 24 26  1  0  0  0  0
 26 50  1  0  0  0  0
 26 51  1  0  0  0  0
M  END
> <s_m_source_file>
AV-unprocessed.smi

> <i_m_source_file_index>
137

> <i_lp_mmshare_version>
43012

> <i_f3d_flags>
0

> <s_epik_input>
Tz1bU0BAXShbQ0gyXTEpW0NIMl1bQ0gyXU4oW0NIMl1bQ0BIXTFbQ0gzXSljKG5bY0hdbjIpYyhjMjMpbltjSF1uM1tDSF0oW0NIMl00KVtDSDJdQzQoW0NIMl1bT0hdKVtDSDJdW09IXQ==

> <s_epik_cmdline>
J2VwaWtfcHl0aG9uJywgJy1waCcsICc3LjAnLCAnLXRuJywgJzgnLCAnLW1hJywgJzIwMCcsICctbWV0YWxfYmluZGluZycsICctaW1hZScsICc8aW5maWxlLm1hZT4nLCAnLW9tYWUnLCAnPG91dGZpbGUubWFlPic=

> <r_lp_tautomer_probability>
1

> <r_epik_Ionization_Penalty>
0.000811024

> <r_epik_Ionization_Penalty_Charging>
0

> <r_epik_Ionization_Penalty_Neutral>
0.000811024

> <r_epik_State_Penalty>
0.000429598

> <r_epik_Charging_Adjusted_Penalty>
0.000429598

> <i_epik_Tot_Q>
0

> <i_epik_Tot_abs_Q>
0

> <r_epik_Metal_State_Penalty>
-0

> <b_epik_Metal_Only>
0

> <s_lp_Force_Field>
OPLS_2005

> <r_lp_Energy>
40.014

> <b_lp_Chiralities_Consistent>
1

> <s_lp_Variant>
AV-unprocessed.smi:137-2

> <Gold.Version>
5.8.1

> <Gold.Id.Protein>
6NUR|6NUR_protein|mol2

> <Gold.PLP.Fitness>
46.2398

> <Gold.PLP.PLP>
-37.1828

> <Gold.PLP.part.hbond>
-4.5979

> <Gold.PLP.part.metal>
0.0000

> <Gold.PLP.part.buried>
-1.3141

> <Gold.PLP.part.nonpolar>
-31.4116

> <Gold.PLP.part.repulsive>
0.1439

> <Gold.PLP.ligand.clash>
0.0000

> <Gold.PLP.ligand.torsion>
1.7147

> <Gold.PLP.Chemscore.Hbond>
2.9663

> <Gold.PLP.Chemscore.CHOScore>
1.0000

> <Gold.PLP.Chemscore.Metal>
0.0000

> <Gold.Chemscore.Hbonds>
donor molecule, donor type, donor heavy atom, donor atom, acceptor molecule, acceptor atom, score
      L1  H    18    40       P1 10175  1.00
      L1  H    20    43       P1 10171  0.99
      P1  H  7954  7966       L1    20  0.86
      L1  C    12    34       P1  7957  0.78

> <Gold.PLP.Chemscore.Internal.Correction>
0.5875

> <Gold.Rescore>
     Score         DG    S(hbond)    S(metal)    S(lipo)     H(rot)  DE(clash)    DE(int)     intcor
     12.48     -18.03       2.90        0.00      87.38       2.87       1.38       4.17       ----

> <Gold.Chemscore.Fitness>
12.4766

> <Gold.Chemscore.DG>
-18.0293

> <Gold.Chemscore.ZeroCoef>
-5.4800

> <Gold.Chemscore.Hbond>
2.8979

> <Gold.Chemscore.Metal>
0.0000

> <Gold.Chemscore.Lipo>
87.3827

> <Gold.Chemscore.Internal_Hbond>
0.0000

> <Gold.Chemscore.DEClash>
1.3778

> <Gold.Chemscore.DEInternal>
4.1750

> <Gold.Chemscore.Rot>
2.8725

> <Gold.Chemscore.Internal.Correction>
   9.000000E+99

> <Gold.Chemscore.Hbonds>
donor molecule, donor type, donor heavy atom, donor atom, acceptor molecule, acceptor atom, score
      L1  H    18    40       P1 10175  0.95
      L1  H    20    43       P1 10171  0.92
      P1  H  7954  7966       L1    20  0.71

> <Gold.Chemscore.Hbond.Weighted>
-9.6791

> <Gold.Chemscore.Metal.Weighted>
-0.0000

> <Gold.Chemscore.Lipo.Weighted>
-10.2238

> <Gold.Chemscore.Internal_Hbond.Weighted>
0.0000

> <Gold.Chemscore.DEClash.Weighted>
1.3778

> <Gold.Chemscore.DEInternal.Weighted>
4.1750

> <Gold.Chemscore.Rot.Weighted>
7.3535

> <Gold.Chemscore.Internal.Correction.Weighted>
   9.000000E+99

> <Gold.Protein.RotatedTorsions>
[ 6907 6896 6895 6894 ] final  145.08 input  -60.11 | X-H torsion
[ 7974 7965 7964 7962 ] final -136.56 input  175.53 | X-H torsion
[ 8008 7997 7996 7995 ] final  -89.08 input   59.86 | X-H torsion
[ 10167 10162 10161 10158 ] final  124.62 input  -65.29 | X-H torsion
[ 10718 10713 10712 10709 ] final -156.56 input   66.30 | X-H torsion
[ 10763 10752 10751 10750 ] final  174.47 input  -60.55 | X-H torsion
[ 11005 11000 10999 10996 ] final  -99.58 input  -57.11 | X-H torsion

> <Gold.Protein.ActiveResidues>
 VAL166  LYS551  ARG553  GLY616  TRP617  ASP618  TYR619  PRO620  LYS621  CYS622 
 ASP623  PHE694  ASN695  SER759  ASP760  ASP761  ALA762  ILE779  LEU786  VAL792 
 PHE793  MET794  SER795  GLU796  ALA797  LYS798  CYS799  TRP800  GLU811  SER814 

> <Gold.Protein.RotatedAtoms>
  152.1855  133.4736  159.4980 H   0  0  0  0  0  0  0  0  0  0  0  0  # atno 6907 bound_to 6896
  150.6942  134.1779  159.4246 H   0  0  0  0  0  0  0  0  0  0  0  0  # atno 6908 bound_to 6896
  151.9692  135.0085  160.0602 H   0  0  0  0  0  0  0  0  0  0  0  0  # atno 6909 bound_to 6896
  144.8916  140.6650  143.5141 H   0  0  0  0  0  0  0  0  0  0  0  0  # atno 7974 bound_to 7965
  154.6824  140.0546  157.0279 H   0  0  0  0  0  0  0  0  0  0  0  0  # atno 8008 bound_to 7997
  155.0933  140.3221  155.4549 H   0  0  0  0  0  0  0  0  0  0  0  0  # atno 8009 bound_to 7997
  156.2699  140.2044  156.6060 H   0  0  0  0  0  0  0  0  0  0  0  0  # atno 8010 bound_to 7997
  139.5731  144.6949  151.3725 H   0  0  0  0  0  0  0  0  0  0  0  0  # atno 10167 bound_to 10162
  156.5282  130.8509  151.2707 H   0  0  0  0  0  0  0  0  0  0  0  0  # atno 10718 bound_to 10713
  154.4543  135.2765  155.1759 H   0  0  0  0  0  0  0  0  0  0  0  0  # atno 10763 bound_to 10752
  154.3573  135.6137  153.5676 H   0  0  0  0  0  0  0  0  0  0  0  0  # atno 10764 bound_to 10752
  152.9849  135.5826  154.4893 H   0  0  0  0  0  0  0  0  0  0  0  0  # atno 10765 bound_to 10752
  141.1303  133.8333  157.0991 H   0  0  0  0  0  0  0  0  0  0  0  0  # atno 11005 bound_to 11000
  145.3772  139.1645  143.4300 LP  0  0  0  0  0  0  0  0  0  0  0  0  # atno 17320 bound_to 7965
  146.3057  140.3850  142.8688 LP  0  0  0  0  0  0  0  0  0  0  0  0  # atno 17321 bound_to 7965
  140.7015  143.7620  150.7411 LP  0  0  0  0  0  0  0  0  0  0  0  0  # atno 17342 bound_to 10162
  140.1132  143.4680  152.2358 LP  0  0  0  0  0  0  0  0  0  0  0  0  # atno 17343 bound_to 10162
  157.7426  130.9894  150.2528 LP  0  0  0  0  0  0  0  0  0  0  0  0  # atno 17370 bound_to 10713
  156.3085  130.3768  149.7684 LP  0  0  0  0  0  0  0  0  0  0  0  0  # atno 17371 bound_to 10713
  140.0345  134.9885  157.0844 LP  0  0  0  0  0  0  0  0  0  0  0  0  # atno 17394 bound_to 11000
  140.4233  134.1858  155.7165 LP  0  0  0  0  0  0  0  0  0  0  0  0  # atno 17395 bound_to 11000

$$$$
