AV-unprocessed.smi:1786|AV-procd|sdf|7202|dock4
  -GOLD-   22720 8443D 1   1.00000     0.00000
 Structure written by MMmdl.
 44 45  0  0  0  0  0  0  0  0  2 V2000
  147.4438  135.1681  154.7805 C   0  0  0  0  0  0  0  0  0  0  0  0
  146.4267  135.3512  153.6364 C   0  0  2  0  0  0  0  0  0  0  0  0
  146.5704  134.1790  152.6409 C   0  0  0  0  0  0  0  0  0  0  0  0
  145.5949  134.3002  151.4662 C   0  0  0  0  0  0  0  0  0  0  0  0
  145.7901  135.6529  150.7785 C   0  0  0  0  0  0  0  0  0  0  0  0
  145.6290  136.7978  151.7885 C   0  0  0  0  0  0  0  0  0  0  0  0
  146.5723  136.6658  152.9325 N   0  3  1  0  0  0  0  0  0  0  0  0
  146.5043  137.8521  153.8292 C   0  0  0  0  0  0  0  0  0  0  0  0
  146.5176  139.1668  153.0277 C   0  0  0  0  0  0  0  0  0  0  0  0
  147.7504  139.9145  153.2429 N   0  0  0  0  0  0  0  0  0  0  0  0
  147.9079  140.8834  154.1573 C   0  0  0  0  0  0  0  0  0  0  0  0
  147.0012  141.2544  154.9042 O   0  0  0  0  0  0  0  0  0  0  0  0
  149.2956  141.5384  154.2130 C   0  0  0  0  0  0  0  0  0  0  0  0
  149.9401  141.4312  155.5327 N   0  0  0  0  0  0  0  0  0  0  0  0
  149.4137  142.2258  156.5706 C   0  0  0  0  0  0  0  0  0  0  0  0
  149.9258  142.2034  157.8114 C   0  0  0  0  0  0  0  0  0  0  0  0
  151.0493  141.3345  158.0706 C   0  0  0  0  0  0  0  0  0  0  0  0
  151.5583  140.5674  157.0859 C   0  0  0  0  0  0  0  0  0  0  0  0
  150.9990  140.5857  155.7292 C   0  0  0  0  0  0  0  0  0  0  0  0
  151.4531  139.8840  154.8248 O   0  0  0  0  0  0  0  0  0  0  0  0
  147.3409  134.1828  155.2356 H   0  0  0  0  0  0  0  0  0  0  0  0
  147.3056  135.8944  155.5807 H   0  0  0  0  0  0  0  0  0  0  0  0
  148.4689  135.2546  154.4188 H   0  0  0  0  0  0  0  0  0  0  0  0
  145.4241  135.3128  154.0663 H   0  0  0  0  0  0  0  0  0  0  0  0
  147.5919  134.1428  152.2589 H   0  0  0  0  0  0  0  0  0  0  0  0
  146.4015  133.2308  153.1525 H   0  0  0  0  0  0  0  0  0  0  0  0
  145.7554  133.4883  150.7560 H   0  0  0  0  0  0  0  0  0  0  0  0
  144.5683  134.2079  151.8231 H   0  0  0  0  0  0  0  0  0  0  0  0
  146.7803  135.6978  150.3231 H   0  0  0  0  0  0  0  0  0  0  0  0
  145.0697  135.7661  149.9677 H   0  0  0  0  0  0  0  0  0  0  0  0
  145.8057  137.7448  151.2764 H   0  0  0  0  0  0  0  0  0  0  0  0
  144.6045  136.8249  152.1635 H   0  0  0  0  0  0  0  0  0  0  0  0
  145.5870  137.8317  154.4197 H   0  0  0  0  0  0  0  0  0  0  0  0
  147.3111  137.8219  154.5625 H   0  0  0  0  0  0  0  0  0  0  0  0
  146.3837  138.9860  151.9610 H   0  0  0  0  0  0  0  0  0  0  0  0
  145.6829  139.7959  153.3380 H   0  0  0  0  0  0  0  0  0  0  0  0
  148.5429  139.6721  152.6652 H   0  0  0  0  0  0  0  0  0  0  0  0
  149.9361  141.0954  153.4478 H   0  0  0  0  0  0  0  0  0  0  0  0
  149.1886  142.5848  153.9238 H   0  0  0  0  0  0  0  0  0  0  0  0
  148.5705  142.8430  156.2967 H   0  0  0  0  0  0  0  0  0  0  0  0
  149.5068  142.8166  158.5958 H   0  0  0  0  0  0  0  0  0  0  0  0
  151.4831  141.2991  159.0591 H   0  0  0  0  0  0  0  0  0  0  0  0
  152.3988  139.9233  157.2985 H   0  0  0  0  0  0  0  0  0  0  0  0
  147.4975  136.6730  152.5274 H   0  0  0  0  0  0  0  0  0  0  0  0
  1  2  1  0  0  0  0
  1 21  1  0  0  0  0
  1 22  1  0  0  0  0
  1 23  1  0  0  0  0
  2  7  1  0  0  0  0
  2  3  1  0  0  0  0
  2 24  1  0  0  0  0
  3  4  1  0  0  0  0
  3 25  1  0  0  0  0
  3 26  1  0  0  0  0
  4  5  1  0  0  0  0
  4 27  1  0  0  0  0
  4 28  1  0  0  0  0
  5  6  1  0  0  0  0
  5 29  1  0  0  0  0
  5 30  1  0  0  0  0
  6  7  1  0  0  0  0
  6 31  1  0  0  0  0
  6 32  1  0  0  0  0
  7  8  1  0  0  0  0
  7 44  1  0  0  0  0
  8  9  1  0  0  0  0
  8 33  1  0  0  0  0
  8 34  1  0  0  0  0
  9 10  1  0  0  0  0
  9 35  1  0  0  0  0
  9 36  1  0  0  0  0
 10 11  1  0  0  0  0
 10 37  1  0  0  0  0
 11 12  2  0  0  0  0
 11 13  1  0  0  0  0
 13 14  1  0  0  0  0
 13 38  1  0  0  0  0
 13 39  1  0  0  0  0
 14 19  1  0  0  0  0
 14 15  1  0  0  0  0
 15 16  2  0  0  0  0
 15 40  1  0  0  0  0
 16 17  1  0  0  0  0
 16 41  1  0  0  0  0
 17 18  2  0  0  0  0
 17 42  1  0  0  0  0
 18 19  1  0  0  0  0
 18 43  1  0  0  0  0
 19 20  2  0  0  0  0
M  CHG  1   7   1
M  END
> <s_m_source_file>
AV-unprocessed.smi

> <i_m_source_file_index>
1786

> <i_lp_mmshare_version>
43012

> <i_f3d_flags>
0

> <s_epik_input>
W0NIM11bQ0BASF0xW0NIMl1bQ0gyXVtDSDJdW0NIMl1OMVtDSDJdW0NIMl1bTkhdQyg9TylbQ0gyXW4yW2NIXVtjSF1bY0hdW2NIXWMyPU8=

> <s_epik_cmdline>
J2VwaWtfcHl0aG9uJywgJy1waCcsICc3LjAnLCAnLXRuJywgJzgnLCAnLW1hJywgJzIwMCcsICctbWV0YWxfYmluZGluZycsICctaW1hZScsICc8aW5maWxlLm1hZT4nLCAnLW9tYWUnLCAnPG91dGZpbGUubWFlPic=

> <r_lp_tautomer_probability>
1

> <r_epik_Ionization_Penalty>
0.00237247

> <r_epik_Ionization_Penalty_Charging>
0.00237238

> <r_epik_Ionization_Penalty_Neutral>
8.2065e-08

> <r_epik_State_Penalty>
0.00163922

> <r_epik_Charging_Adjusted_Penalty>
0.0040116

> <i_epik_Tot_Q>
1

> <i_epik_Tot_abs_Q>
1

> <r_epik_Metal_State_Penalty>
-0

> <b_epik_Metal_Only>
0

> <s_lp_Force_Field>
OPLS_2005

> <r_lp_Energy>
28.1092

> <b_lp_Chiralities_Consistent>
1

> <s_lp_Variant>
AV-unprocessed.smi:1786-1

> <Gold.Version>
5.8.1

> <Gold.Id.Protein>
6NUR|6NUR_protein|mol2

> <Gold.PLP.Fitness>
46.0612

> <Gold.PLP.PLP>
-32.5132

> <Gold.PLP.part.hbond>
-3.0000

> <Gold.PLP.part.metal>
0.0000

> <Gold.PLP.part.buried>
-1.5676

> <Gold.PLP.part.nonpolar>
-27.5594

> <Gold.PLP.part.repulsive>
0.2060

> <Gold.PLP.ligand.clash>
0.0000

> <Gold.PLP.ligand.torsion>
0.7336

> <Gold.PLP.Chemscore.Hbond>
3.9920

> <Gold.PLP.Chemscore.CHOScore>
1.0000

> <Gold.PLP.Chemscore.Metal>
0.0000

> <Gold.Chemscore.Hbonds>
donor molecule, donor type, donor heavy atom, donor atom, acceptor molecule, acceptor atom, score
      L1  H     7    44       P1  7948  2.00
      L1  H    10    37       P1  7957  0.98
      P1  H  7989  7998       L1    20  1.00
      L1  C    15    40       P1  8028  0.74

> <Gold.PLP.Chemscore.Internal.Correction>
0.0391

> <Gold.Rescore>
     Score         DG    S(hbond)    S(metal)    S(lipo)     H(rot)  DE(clash)    DE(int)     intcor
     15.40     -16.18       2.31        0.00      66.22       1.86       0.11       0.67       ----

> <Gold.Chemscore.Fitness>
15.4031

> <Gold.Chemscore.DG>
-16.1789

> <Gold.Chemscore.ZeroCoef>
-5.4800

> <Gold.Chemscore.Hbond>
2.3081

> <Gold.Chemscore.Metal>
0.0000

> <Gold.Chemscore.Lipo>
66.2214

> <Gold.Chemscore.Internal_Hbond>
0.0000

> <Gold.Chemscore.DEClash>
0.1108

> <Gold.Chemscore.DEInternal>
0.6651

> <Gold.Chemscore.Rot>
1.8586

> <Gold.Chemscore.Internal.Correction>
   9.000000E+99

> <Gold.Chemscore.Hbonds>
donor molecule, donor type, donor heavy atom, donor atom, acceptor molecule, acceptor atom, score
      L1  H     7    44       P1  7948  1.00
      L1  H    10    37       P1  7957  0.93
      P1  H  7989  7998       L1    20  0.60

> <Gold.Chemscore.Hbond.Weighted>
-7.7091

> <Gold.Chemscore.Metal.Weighted>
-0.0000

> <Gold.Chemscore.Lipo.Weighted>
-7.7479

> <Gold.Chemscore.Internal_Hbond.Weighted>
0.0000

> <Gold.Chemscore.DEClash.Weighted>
0.1108

> <Gold.Chemscore.DEInternal.Weighted>
0.6651

> <Gold.Chemscore.Rot.Weighted>
4.7581

> <Gold.Chemscore.Internal.Correction.Weighted>
   9.000000E+99

> <Gold.Protein.RotatedTorsions>
[ 6907 6896 6895 6894 ] final   -0.92 input  -60.11 | X-H torsion
[ 7974 7965 7964 7962 ] final -162.08 input  175.53 | X-H torsion
[ 8008 7997 7996 7995 ] final   44.36 input   59.86 | X-H torsion
[ 10167 10162 10161 10158 ] final -153.07 input  -65.29 | X-H torsion
[ 10718 10713 10712 10709 ] final -169.10 input   66.30 | X-H torsion
[ 10763 10752 10751 10750 ] final  -68.50 input  -60.55 | X-H torsion
[ 11005 11000 10999 10996 ] final   58.20 input  -57.11 | X-H torsion

> <Gold.Protein.ActiveResidues>
 VAL166  LYS551  ARG553  GLY616  TRP617  ASP618  TYR619  PRO620  LYS621  CYS622 
 ASP623  PHE694  ASN695  SER759  ASP760  ASP761  ALA762  ILE779  LEU786  VAL792 
 PHE793  MET794  SER795  GLU796  ALA797  LYS798  CYS799  TRP800  GLU811  SER814 

> <Gold.Protein.RotatedAtoms>
  151.5544  135.1067  159.9957 H   0  0  0  0  0  0  0  0  0  0  0  0  # atno 6907 bound_to 6896
  152.4476  133.7562  159.6732 H   0  0  0  0  0  0  0  0  0  0  0  0  # atno 6908 bound_to 6896
  150.8396  133.7890  159.3090 H   0  0  0  0  0  0  0  0  0  0  0  0  # atno 6909 bound_to 6896
  144.7369  140.3304  143.6154 H   0  0  0  0  0  0  0  0  0  0  0  0  # atno 7974 bound_to 7965
  155.3180  140.3395  155.4242 H   0  0  0  0  0  0  0  0  0  0  0  0  # atno 8008 bound_to 7997
  156.1923  140.1702  156.8105 H   0  0  0  0  0  0  0  0  0  0  0  0  # atno 8009 bound_to 7997
  154.5457  140.0716  156.8568 H   0  0  0  0  0  0  0  0  0  0  0  0  # atno 8010 bound_to 7997
  139.7128  143.9081  152.2474 H   0  0  0  0  0  0  0  0  0  0  0  0  # atno 10167 bound_to 10162
  156.7066  130.9217  151.3085 H   0  0  0  0  0  0  0  0  0  0  0  0  # atno 10718 bound_to 10713
  154.3900  135.6055  153.5838 H   0  0  0  0  0  0  0  0  0  0  0  0  # atno 10763 bound_to 10752
  152.9787  135.5881  154.4309 H   0  0  0  0  0  0  0  0  0  0  0  0  # atno 10764 bound_to 10752
  154.4092  135.2844  155.2026 H   0  0  0  0  0  0  0  0  0  0  0  0  # atno 10765 bound_to 10752
  140.0395  134.5893  155.9400 H   0  0  0  0  0  0  0  0  0  0  0  0  # atno 11005 bound_to 11000
  145.7478  139.1784  143.2339 LP  0  0  0  0  0  0  0  0  0  0  0  0  # atno 17320 bound_to 7965
  146.1085  140.7458  142.9515 LP  0  0  0  0  0  0  0  0  0  0  0  0  # atno 17321 bound_to 7965
  139.8955  144.6941  150.8723 LP  0  0  0  0  0  0  0  0  0  0  0  0  # atno 17342 bound_to 10162
  140.7737  143.3553  151.1933 LP  0  0  0  0  0  0  0  0  0  0  0  0  # atno 17343 bound_to 10162
  157.6952  130.9275  150.0626 LP  0  0  0  0  0  0  0  0  0  0  0  0  # atno 17370 bound_to 10713
  156.1691  130.3646  149.9191 LP  0  0  0  0  0  0  0  0  0  0  0  0  # atno 17371 bound_to 10713
  141.1876  133.6560  156.5287 LP  0  0  0  0  0  0  0  0  0  0  0  0  # atno 17394 bound_to 11000
  140.4092  134.7288  157.4825 LP  0  0  0  0  0  0  0  0  0  0  0  0  # atno 17395 bound_to 11000

$$$$
