AV-unprocessed.smi:2279|AV-procd|sdf|9188|dock9
  -GOLD-   2272012403D 1   1.00000     0.00000
 Structure written by MMmdl.
 57 59  0  0  0  0  0  0  0  0  2 V2000
  149.8157  124.7253  150.6929 C   0  0  0  0  0  0  0  0  0  0  0  0
  149.1172  125.6865  151.6316 C   0  0  0  0  0  0  0  0  0  0  0  0
  148.8537  125.3280  152.9675 C   0  0  0  0  0  0  0  0  0  0  0  0
  148.1998  126.2656  153.7907 C   0  0  0  0  0  0  0  0  0  0  0  0
  147.8859  125.9471  155.2374 C   0  0  0  0  0  0  0  0  0  0  0  0
  147.8131  127.4840  153.3562 N   0  0  0  0  0  0  0  0  0  0  0  0
  148.0602  127.8396  152.0711 C   0  0  0  0  0  0  0  0  0  0  0  0
  147.6984  129.0967  151.5181 N   0  0  0  0  0  0  0  0  0  0  0  0
  146.6363  129.8638  151.8212 C   0  0  0  0  0  0  0  0  0  0  0  0
  145.7607  129.5787  152.6388 O   0  0  0  0  0  0  0  0  0  0  0  0
  146.6388  130.9989  151.1069 N   0  0  0  0  0  0  0  0  0  0  0  0
  145.6238  132.0454  151.1876 C   0  0  0  0  0  0  0  0  0  0  0  0
  146.0321  133.2712  150.3602 C   0  0  0  0  0  0  0  0  0  0  0  0
  145.0347  134.4247  150.5601 C   0  0  0  0  0  0  0  0  0  0  0  0
  144.9561  134.8315  151.9731 N   0  0  0  0  0  0  0  0  0  0  0  0
  144.1075  136.0360  152.1075 C   0  0  2  0  0  0  0  0  0  0  0  0
  144.5045  137.1279  151.0815 C   0  0  0  0  0  0  0  0  0  0  0  0
  145.8440  137.7984  151.4380 C   0  0  0  0  0  0  0  0  0  0  0  0
  145.8086  138.3826  152.8008 N   0  3  2  0  0  0  0  0  0  0  0  0
  147.0493  139.1156  153.1319 C   0  0  0  0  0  0  0  0  0  0  0  0
  145.4573  137.3748  153.8301 C   0  0  0  0  0  0  0  0  0  0  0  0
  144.1110  136.7030  153.5068 C   0  0  0  0  0  0  0  0  0  0  0  0
  144.4713  133.6788  152.7484 C   0  0  0  0  0  0  0  0  0  0  0  0
  145.4367  132.4845  152.6431 C   0  0  0  0  0  0  0  0  0  0  0  0
  148.7149  126.9597  151.1802 C   0  0  0  0  0  0  0  0  0  0  0  0
  150.2322  123.8757  151.2348 H   0  0  0  0  0  0  0  0  0  0  0  0
  150.6304  125.2275  150.1704 H   0  0  0  0  0  0  0  0  0  0  0  0
  149.1122  124.3466  149.9511 H   0  0  0  0  0  0  0  0  0  0  0  0
  149.1442  124.3606  153.3506 H   0  0  0  0  0  0  0  0  0  0  0  0
  148.3950  125.0393  155.5621 H   0  0  0  0  0  0  0  0  0  0  0  0
  146.8131  125.8028  155.3669 H   0  0  0  0  0  0  0  0  0  0  0  0
  148.2036  126.7642  155.8860 H   0  0  0  0  0  0  0  0  0  0  0  0
  148.3242  129.4555  150.8126 H   0  0  0  0  0  0  0  0  0  0  0  0
  147.3976  131.1510  150.4590 H   0  0  0  0  0  0  0  0  0  0  0  0
  144.6713  131.6610  150.8175 H   0  0  0  0  0  0  0  0  0  0  0  0
  147.0329  133.6016  150.6430 H   0  0  0  0  0  0  0  0  0  0  0  0
  146.0800  133.0092  149.3025 H   0  0  0  0  0  0  0  0  0  0  0  0
  145.3571  135.2455  149.9246 H   0  0  0  0  0  0  0  0  0  0  0  0
  144.0467  134.1279  150.2041 H   0  0  0  0  0  0  0  0  0  0  0  0
  143.0796  135.7277  151.9088 H   0  0  0  0  0  0  0  0  0  0  0  0
  144.5389  136.7591  150.0587 H   0  0  0  0  0  0  0  0  0  0  0  0
  143.7280  137.8940  151.0732 H   0  0  0  0  0  0  0  0  0  0  0  0
  146.6580  137.0749  151.3690 H   0  0  0  0  0  0  0  0  0  0  0  0
  146.0594  138.5848  150.7136 H   0  0  0  0  0  0  0  0  0  0  0  0
  147.9064  138.4415  153.1575 H   0  0  0  0  0  0  0  0  0  0  0  0
  146.9635  139.5978  154.1062 H   0  0  0  0  0  0  0  0  0  0  0  0
  147.2464  139.8931  152.3932 H   0  0  0  0  0  0  0  0  0  0  0  0
  146.2487  136.6267  153.8978 H   0  0  0  0  0  0  0  0  0  0  0  0
  145.3958  137.8595  154.8052 H   0  0  0  0  0  0  0  0  0  0  0  0
  143.3390  137.4739  153.5180 H   0  0  0  0  0  0  0  0  0  0  0  0
  143.8115  136.0186  154.2995 H   0  0  0  0  0  0  0  0  0  0  0  0
  144.4072  133.9259  153.8062 H   0  0  0  0  0  0  0  0  0  0  0  0
  143.4709  133.3956  152.4179 H   0  0  0  0  0  0  0  0  0  0  0  0
  145.0571  131.6522  153.2368 H   0  0  0  0  0  0  0  0  0  0  0  0
  146.3991  132.7608  153.0772 H   0  0  0  0  0  0  0  0  0  0  0  0
  148.9060  127.2556  150.1586 H   0  0  0  0  0  0  0  0  0  0  0  0
  145.0640  139.0649  152.8009 H   0  0  0  0  0  0  0  0  0  0  0  0
  1  2  1  0  0  0  0
  1 26  1  0  0  0  0
  1 27  1  0  0  0  0
  1 28  1  0  0  0  0
  2 25  1  0  0  0  0
  2  3  2  0  0  0  0
  3  4  1  0  0  0  0
  3 29  1  0  0  0  0
  4  5  1  0  0  0  0
  4  6  2  0  0  0  0
  5 30  1  0  0  0  0
  5 31  1  0  0  0  0
  5 32  1  0  0  0  0
  6  7  1  0  0  0  0
  7  8  1  0  0  0  0
  7 25  2  0  0  0  0
  8  9  1  0  0  0  0
  8 33  1  0  0  0  0
  9 10  2  0  0  0  0
  9 11  1  0  0  0  0
 11 12  1  0  0  0  0
 11 34  1  0  0  0  0
 12 24  1  0  0  0  0
 12 13  1  0  0  0  0
 12 35  1  0  0  0  0
 13 14  1  0  0  0  0
 13 36  1  0  0  0  0
 13 37  1  0  0  0  0
 14 15  1  0  0  0  0
 14 38  1  0  0  0  0
 14 39  1  0  0  0  0
 15 16  1  0  0  0  0
 15 23  1  0  0  0  0
 16 22  1  0  0  0  0
 16 17  1  0  0  0  0
 16 40  1  0  0  0  0
 17 18  1  0  0  0  0
 17 41  1  0  0  0  0
 17 42  1  0  0  0  0
 18 19  1  0  0  0  0
 18 43  1  0  0  0  0
 18 44  1  0  0  0  0
 19 20  1  0  0  0  0
 19 21  1  0  0  0  0
 19 57  1  0  0  0  0
 20 45  1  0  0  0  0
 20 46  1  0  0  0  0
 20 47  1  0  0  0  0
 21 22  1  0  0  0  0
 21 48  1  0  0  0  0
 21 49  1  0  0  0  0
 22 50  1  0  0  0  0
 22 51  1  0  0  0  0
 23 24  1  0  0  0  0
 23 52  1  0  0  0  0
 23 53  1  0  0  0  0
 24 54  1  0  0  0  0
 24 55  1  0  0  0  0
 25 56  1  0  0  0  0
M  CHG  1  19   1
M  END
> <s_m_source_file>
AV-unprocessed.smi

> <i_m_source_file_index>
2279

> <i_lp_mmshare_version>
43012

> <i_f3d_flags>
0

> <s_epik_input>
W0NIM11jMVtjSF1jKFtDSDNdKW5jKFtjSF0xKVtOSF1DKD1PKVtOSF1bQ0hdMltDSDJdW0NIMl1OKFtDSDJdW0NIMl0yKVtDSF0zW0NIMl1bQ0gyXU4oW0NIM10pW0NIMl1bQ0gyXTM=

> <s_epik_cmdline>
J2VwaWtfcHl0aG9uJywgJy1waCcsICc3LjAnLCAnLXRuJywgJzgnLCAnLW1hJywgJzIwMCcsICctbWV0YWxfYmluZGluZycsICctaW1hZScsICc8aW5maWxlLm1hZT4nLCAnLW9tYWUnLCAnPG91dGZpbGUubWFlPic=

> <r_epik_Ionization_Penalty>
1.01001

> <r_epik_Ionization_Penalty_Charging>
0.000974969

> <r_epik_Ionization_Penalty_Neutral>
1.00904

> <r_epik_State_Penalty>
1.10286

> <r_epik_Charging_Adjusted_Penalty>
1.10383

> <i_epik_Tot_Q>
1

> <i_epik_Tot_abs_Q>
1

> <r_epik_Metal_State_Penalty>
1.10279

> <b_epik_Metal_Only>
0

> <s_lp_Force_Field>
OPLS_2005

> <r_lp_Energy>
36.6633

> <b_lp_Chiralities_Consistent>
1

> <s_lp_Variant>
AV-unprocessed.smi:2279-6

> <Gold.Version>
5.8.1

> <Gold.Id.Protein>
6NUR|6NUR_protein|mol2

> <Gold.PLP.Fitness>
40.1232

> <Gold.PLP.PLP>
-29.9401

> <Gold.PLP.part.hbond>
-2.9931

> <Gold.PLP.part.metal>
0.0000

> <Gold.PLP.part.buried>
7.4149

> <Gold.PLP.part.nonpolar>
-34.1848

> <Gold.PLP.part.repulsive>
0.4846

> <Gold.PLP.ligand.clash>
0.0000

> <Gold.PLP.ligand.torsion>
0.3587

> <Gold.PLP.Chemscore.Hbond>
3.6320

> <Gold.PLP.Chemscore.CHOScore>
0.0000

> <Gold.PLP.Chemscore.Metal>
0.0000

> <Gold.Chemscore.Hbonds>
donor molecule, donor type, donor heavy atom, donor atom, acceptor molecule, acceptor atom, score
      L1  H     8    33       P1 10747  0.84
      L1  H    11    34       P1 10747  0.83
      L1  H    19    57       P1 10175  2.00

> <Gold.PLP.Chemscore.Internal.Correction>
0.0045

> <Gold.Rescore>
     Score         DG    S(hbond)    S(metal)    S(lipo)     H(rot)  DE(clash)    DE(int)     intcor
     13.61     -20.65       2.36        0.00      88.45       1.20       4.47       2.57       ----

> <Gold.Chemscore.Fitness>
13.6063

> <Gold.Chemscore.DG>
-20.6473

> <Gold.Chemscore.ZeroCoef>
-5.4800

> <Gold.Chemscore.Hbond>
2.3610

> <Gold.Chemscore.Metal>
0.0000

> <Gold.Chemscore.Lipo>
88.4512

> <Gold.Chemscore.Internal_Hbond>
0.0000

> <Gold.Chemscore.DEClash>
4.4697

> <Gold.Chemscore.DEInternal>
2.5713

> <Gold.Chemscore.Rot>
1.1981

> <Gold.Chemscore.Internal.Correction>
   9.000000E+99

> <Gold.Chemscore.Hbonds>
donor molecule, donor type, donor heavy atom, donor atom, acceptor molecule, acceptor atom, score
      L1  H     8    33       P1 10747  0.18
      L1  H    11    34       P1 10747  0.82
      L1  H    19    57       P1 10175  0.97

> <Gold.Chemscore.Hbond.Weighted>
-7.8858

> <Gold.Chemscore.Metal.Weighted>
-0.0000

> <Gold.Chemscore.Lipo.Weighted>
-10.3488

> <Gold.Chemscore.Internal_Hbond.Weighted>
0.0000

> <Gold.Chemscore.DEClash.Weighted>
4.4697

> <Gold.Chemscore.DEInternal.Weighted>
2.5713

> <Gold.Chemscore.Rot.Weighted>
3.0673

> <Gold.Chemscore.Internal.Correction.Weighted>
   9.000000E+99

> <Gold.Protein.RotatedTorsions>
[ 6907 6896 6895 6894 ] final   72.33 input  -60.11 | X-H torsion
[ 7974 7965 7964 7962 ] final  113.38 input  175.53 | X-H torsion
[ 8008 7997 7996 7995 ] final   67.17 input   59.86 | X-H torsion
[ 10167 10162 10161 10158 ] final -103.05 input  -65.29 | X-H torsion
[ 10718 10713 10712 10709 ] final -162.17 input   66.30 | X-H torsion
[ 10763 10752 10751 10750 ] final  124.99 input  -60.55 | X-H torsion
[ 11005 11000 10999 10996 ] final   28.32 input  -57.11 | X-H torsion

> <Gold.Protein.ActiveResidues>
 VAL166  LYS551  ARG553  GLY616  TRP617  ASP618  TYR619  PRO620  LYS621  CYS622 
 ASP623  PHE694  ASN695  SER759  ASP760  ASP761  ALA762  ILE779  LEU786  VAL792 
 PHE793  MET794  SER795  GLU796  ALA797  LYS798  CYS799  TRP800  GLU811  SER814 

> <Gold.Protein.RotatedAtoms>
  152.4861  134.4588  159.9598 H   0  0  0  0  0  0  0  0  0  0  0  0  # atno 6907 bound_to 6896
  151.4584  133.3593  159.2813 H   0  0  0  0  0  0  0  0  0  0  0  0  # atno 6908 bound_to 6896
  150.8974  134.8408  159.7396 H   0  0  0  0  0  0  0  0  0  0  0  0  # atno 6909 bound_to 6896
  145.2177  139.2876  143.4235 H   0  0  0  0  0  0  0  0  0  0  0  0  # atno 7974 bound_to 7965
  155.6887  140.3496  155.4884 H   0  0  0  0  0  0  0  0  0  0  0  0  # atno 8008 bound_to 7997
  155.9543  140.1125  157.0972 H   0  0  0  0  0  0  0  0  0  0  0  0  # atno 8009 bound_to 7997
  154.4129  140.1188  156.5080 H   0  0  0  0  0  0  0  0  0  0  0  0  # atno 8010 bound_to 7997
  140.2242  143.3654  152.0943 H   0  0  0  0  0  0  0  0  0  0  0  0  # atno 10167 bound_to 10162
  156.6066  130.8833  151.2926 H   0  0  0  0  0  0  0  0  0  0  0  0  # atno 10718 bound_to 10713
  153.6701  135.3331  155.3151 H   0  0  0  0  0  0  0  0  0  0  0  0  # atno 10763 bound_to 10752
  154.8493  135.4384  154.1713 H   0  0  0  0  0  0  0  0  0  0  0  0  # atno 10764 bound_to 10752
  153.2703  135.6999  153.7564 H   0  0  0  0  0  0  0  0  0  0  0  0  # atno 10765 bound_to 10752
  140.3169  134.2587  155.7724 H   0  0  0  0  0  0  0  0  0  0  0  0  # atno 11005 bound_to 11000
  146.3383  140.2473  142.8597 LP  0  0  0  0  0  0  0  0  0  0  0  0  # atno 17320 bound_to 7965
  144.9795  140.8446  143.5406 LP  0  0  0  0  0  0  0  0  0  0  0  0  # atno 17321 bound_to 7965
  139.5133  144.6930  151.5706 LP  0  0  0  0  0  0  0  0  0  0  0  0  # atno 17342 bound_to 10162
  140.6233  143.9217  150.6544 LP  0  0  0  0  0  0  0  0  0  0  0  0  # atno 17343 bound_to 10162
  157.7265  130.9631  150.1661 LP  0  0  0  0  0  0  0  0  0  0  0  0  # atno 17370 bound_to 10713
  156.2425  130.3692  149.8321 LP  0  0  0  0  0  0  0  0  0  0  0  0  # atno 17371 bound_to 10713
  141.2095  133.7745  156.9989 LP  0  0  0  0  0  0  0  0  0  0  0  0  # atno 17394 bound_to 11000
  140.0976  134.9555  157.1873 LP  0  0  0  0  0  0  0  0  0  0  0  0  # atno 17395 bound_to 11000

$$$$
