AV-unprocessed.smi:1232|AV-procd|sdf|5169|dock2
  -GOLD-   22720 4243D 1   1.00000     0.00000
 Structure written by MMmdl.
 53 54  0  0  0  0  0  0  0  0  1 V2000
  146.1878  136.3466  153.5950 C   0  0  0  0  0  0  0  0  0  0  0  0
  147.1250  135.8567  154.6933 C   0  0  0  0  0  0  0  0  0  0  0  0
  146.7468  135.8355  155.8641 O   0  0  0  0  0  0  0  0  0  0  0  0
  148.3462  135.4616  154.3001 N   0  0  0  0  0  0  0  0  0  0  0  0
  149.4047  134.9651  155.1817 C   0  0  2  0  0  0  0  0  0  0  0  0
  150.6064  135.9259  155.1025 C   0  0  0  0  0  0  0  0  0  0  0  0
  151.5142  135.8621  155.9333 O   0  0  0  0  0  0  0  0  0  0  0  0
  150.5837  136.8249  154.1064 N   0  0  0  0  0  0  0  0  0  0  0  0
  151.6004  137.8464  153.8808 C   0  0  0  0  0  0  0  0  0  0  0  0
  151.7065  138.8598  155.0102 C   0  0  0  0  0  0  0  0  0  0  0  0
  150.8225  139.9542  155.0759 C   0  0  0  0  0  0  0  0  0  0  0  0
  150.9531  140.8758  156.1324 C   0  0  0  0  0  0  0  0  0  0  0  0
  151.9651  140.6771  157.1019 C   0  0  0  0  0  0  0  0  0  0  0  0
  152.1190  141.5927  158.1651 N   0  0  0  0  0  0  0  0  0  0  0  0
  152.0120  141.0826  159.5303 C   0  0  0  0  0  0  0  0  0  0  0  0
  152.4938  142.1415  160.5349 C   0  0  0  0  0  0  0  0  0  0  0  0
  151.7700  143.3518  160.3386 O   0  0  0  0  0  0  0  0  0  0  0  0
  151.9749  143.8952  159.0372 C   0  0  2  0  0  0  0  0  0  0  0  0
  151.2339  145.2339  158.9535 C   0  0  0  0  0  0  0  0  0  0  0  0
  151.4749  142.8906  157.9809 C   0  0  0  0  0  0  0  0  0  0  0  0
  152.8116  139.6197  157.0367 N   0  0  0  0  0  0  0  0  0  0  0  0
  152.6795  138.7379  156.0243 C   0  0  0  0  0  0  0  0  0  0  0  0
  149.8205  133.5398  154.7098 C   0  0  0  0  0  0  0  0  0  0  0  0
  148.5925  132.6671  154.3835 C   0  0  0  0  0  0  0  0  0  0  0  0
  150.7128  132.7962  155.7257 C   0  0  0  0  0  0  0  0  0  0  0  0
  146.7217  136.9753  152.8817 H   0  0  0  0  0  0  0  0  0  0  0  0
  145.3708  136.9321  154.0180 H   0  0  0  0  0  0  0  0  0  0  0  0
  145.7612  135.4992  153.0579 H   0  0  0  0  0  0  0  0  0  0  0  0
  148.5681  135.5206  153.3170 H   0  0  0  0  0  0  0  0  0  0  0  0
  149.0357  134.9135  156.2083 H   0  0  0  0  0  0  0  0  0  0  0  0
  149.8035  136.8049  153.4653 H   0  0  0  0  0  0  0  0  0  0  0  0
  152.5687  137.3733  153.7077 H   0  0  0  0  0  0  0  0  0  0  0  0
  151.3497  138.3805  152.9641 H   0  0  0  0  0  0  0  0  0  0  0  0
  150.0596  140.0942  154.3242 H   0  0  0  0  0  0  0  0  0  0  0  0
  150.2922  141.7287  156.1759 H   0  0  0  0  0  0  0  0  0  0  0  0
  150.9743  140.8170  159.7368 H   0  0  0  0  0  0  0  0  0  0  0  0
  152.6107  140.1778  159.6441 H   0  0  0  0  0  0  0  0  0  0  0  0
  152.3321  141.7917  161.5546 H   0  0  0  0  0  0  0  0  0  0  0  0
  153.5645  142.3219  160.4266 H   0  0  0  0  0  0  0  0  0  0  0  0
  153.0409  144.0794  158.8913 H   0  0  0  0  0  0  0  0  0  0  0  0
  151.3698  145.6972  157.9761 H   0  0  0  0  0  0  0  0  0  0  0  0
  151.6027  145.9312  159.7060 H   0  0  0  0  0  0  0  0  0  0  0  0
  150.1637  145.1032  159.1164 H   0  0  0  0  0  0  0  0  0  0  0  0
  151.6649  143.2953  156.9878 H   0  0  0  0  0  0  0  0  0  0  0  0
  150.3953  142.7598  158.0679 H   0  0  0  0  0  0  0  0  0  0  0  0
  153.3759  137.9123  156.0262 H   0  0  0  0  0  0  0  0  0  0  0  0
  150.3971  133.6355  153.7879 H   0  0  0  0  0  0  0  0  0  0  0  0
  147.9503  132.5482  155.2569 H   0  0  0  0  0  0  0  0  0  0  0  0
  148.8938  131.6715  154.0569 H   0  0  0  0  0  0  0  0  0  0  0  0
  147.9889  133.0937  153.5823 H   0  0  0  0  0  0  0  0  0  0  0  0
  150.2334  132.7342  156.7031 H   0  0  0  0  0  0  0  0  0  0  0  0
  151.6787  133.2838  155.8558 H   0  0  0  0  0  0  0  0  0  0  0  0
  150.9210  131.7785  155.3944 H   0  0  0  0  0  0  0  0  0  0  0  0
  1  2  1  0  0  0  0
  1 26  1  0  0  0  0
  1 27  1  0  0  0  0
  1 28  1  0  0  0  0
  2  3  2  0  0  0  0
  2  4  1  0  0  0  0
  4  5  1  0  0  0  0
  4 29  1  0  0  0  0
  5  6  1  0  0  0  0
  5 23  1  0  0  0  0
  5 30  1  0  0  0  0
  6  7  2  0  0  0  0
  6  8  1  0  0  0  0
  8  9  1  0  0  0  0
  8 31  1  0  0  0  0
  9 10  1  0  0  0  0
  9 32  1  0  0  0  0
  9 33  1  0  0  0  0
 10 22  1  0  0  0  0
 10 11  2  0  0  0  0
 11 12  1  0  0  0  0
 11 34  1  0  0  0  0
 12 13  2  0  0  0  0
 12 35  1  0  0  0  0
 13 14  1  0  0  0  0
 13 21  1  0  0  0  0
 14 20  1  0  0  0  0
 14 15  1  0  0  0  0
 15 16  1  0  0  0  0
 15 36  1  0  0  0  0
 15 37  1  0  0  0  0
 16 17  1  0  0  0  0
 16 38  1  0  0  0  0
 16 39  1  0  0  0  0
 17 18  1  0  0  0  0
 18 19  1  0  0  0  0
 18 20  1  0  0  0  0
 18 40  1  0  0  0  0
 19 41  1  0  0  0  0
 19 42  1  0  0  0  0
 19 43  1  0  0  0  0
 20 44  1  0  0  0  0
 20 45  1  0  0  0  0
 21 22  2  0  0  0  0
 22 46  1  0  0  0  0
 23 24  1  0  0  0  0
 23 25  1  0  0  0  0
 23 47  1  0  0  0  0
 24 48  1  0  0  0  0
 24 49  1  0  0  0  0
 24 50  1  0  0  0  0
 25 51  1  0  0  0  0
 25 52  1  0  0  0  0
 25 53  1  0  0  0  0
M  END
> <s_m_source_file>
AV-unprocessed.smi

> <i_m_source_file_index>
1232

> <i_lp_mmshare_version>
43012

> <i_f3d_flags>
0

> <s_epik_input>
W0NIM11DKD1PKVtOSF1bQ0BASF0oW0NIXShbQ0gzXSlbQ0gzXSlDKD1PKVtOSF1bQ0gyXWMxW2NIXVtjSF1jKG5bY0hdMSlOMltDSDJdW0NIMl1PW0NAQEhdKFtDSDNdKVtDSDJdMg==

> <s_epik_cmdline>
J2VwaWtfcHl0aG9uJywgJy1waCcsICc3LjAnLCAnLXRuJywgJzgnLCAnLW1hJywgJzIwMCcsICctbWV0YWxfYmluZGluZycsICctaW1hZScsICc8aW5maWxlLm1hZT4nLCAnLW9tYWUnLCAnPG91dGZpbGUubWFlPic=

> <r_lp_tautomer_probability>
1

> <r_epik_Ionization_Penalty>
0.00557618

> <r_epik_Ionization_Penalty_Charging>
0

> <r_epik_Ionization_Penalty_Neutral>
0.00557618

> <r_epik_State_Penalty>
0.00408363

> <r_epik_Charging_Adjusted_Penalty>
0.00408363

> <i_epik_Tot_Q>
0

> <i_epik_Tot_abs_Q>
0

> <r_epik_Metal_State_Penalty>
-0

> <b_epik_Metal_Only>
0

> <s_lp_Force_Field>
OPLS_2005

> <r_lp_Energy>
16.2808

> <b_lp_Chiralities_Consistent>
1

> <s_lp_Variant>
AV-unprocessed.smi:1232-3

> <Gold.Version>
5.8.1

> <Gold.Id.Protein>
6NUR|6NUR_protein|mol2

> <Gold.PLP.Fitness>
55.5401

> <Gold.PLP.PLP>
-45.2822

> <Gold.PLP.part.hbond>
-5.0000

> <Gold.PLP.part.metal>
0.0000

> <Gold.PLP.part.buried>
-1.4429

> <Gold.PLP.part.nonpolar>
-37.9259

> <Gold.PLP.part.repulsive>
0.1831

> <Gold.PLP.ligand.clash>
0.0000

> <Gold.PLP.ligand.torsion>
1.0887

> <Gold.PLP.Chemscore.Hbond>
3.9920

> <Gold.PLP.Chemscore.CHOScore>
0.0000

> <Gold.PLP.Chemscore.Metal>
0.0000

> <Gold.Chemscore.Hbonds>
donor molecule, donor type, donor heavy atom, donor atom, acceptor molecule, acceptor atom, score
      L1  H     4    29       P1  7948  1.00
      L1  H     8    31       P1  7948  1.00
      P1  H  7997  8008       L1    21  1.00
      P1  H 10752 10765       L1     7  1.00

> <Gold.PLP.Chemscore.Internal.Correction>
0.4593

> <Gold.Rescore>
     Score         DG    S(hbond)    S(metal)    S(lipo)     H(rot)  DE(clash)    DE(int)     intcor
     20.91     -22.95       2.88        0.00     113.79       2.13       0.51       1.53       ----

> <Gold.Chemscore.Fitness>
20.9111

> <Gold.Chemscore.DG>
-22.9540

> <Gold.Chemscore.ZeroCoef>
-5.4800

> <Gold.Chemscore.Hbond>
2.8797

> <Gold.Chemscore.Metal>
0.0000

> <Gold.Chemscore.Lipo>
113.7865

> <Gold.Chemscore.Internal_Hbond>
0.0000

> <Gold.Chemscore.DEClash>
0.5092

> <Gold.Chemscore.DEInternal>
1.5337

> <Gold.Chemscore.Rot>
2.1317

> <Gold.Chemscore.Internal.Correction>
   9.000000E+99

> <Gold.Chemscore.Hbonds>
donor molecule, donor type, donor heavy atom, donor atom, acceptor molecule, acceptor atom, score
      L1  H     4    29       P1  7948  0.97
      L1  H     8    31       P1  7948  0.38
      P1  H  7997  8008       L1    21  0.22
      P1  H 10752 10765       L1     7  0.82

> <Gold.Chemscore.Hbond.Weighted>
-9.6182

> <Gold.Chemscore.Metal.Weighted>
-0.0000

> <Gold.Chemscore.Lipo.Weighted>
-13.3130

> <Gold.Chemscore.Internal_Hbond.Weighted>
0.0000

> <Gold.Chemscore.DEClash.Weighted>
0.5092

> <Gold.Chemscore.DEInternal.Weighted>
1.5337

> <Gold.Chemscore.Rot.Weighted>
5.4572

> <Gold.Chemscore.Internal.Correction.Weighted>
   9.000000E+99

> <Gold.Protein.RotatedTorsions>
[ 6907 6896 6895 6894 ] final -166.07 input  -60.11 | X-H torsion
[ 7974 7965 7964 7962 ] final  108.35 input  175.53 | X-H torsion
[ 8008 7997 7996 7995 ] final  -72.23 input   59.86 | X-H torsion
[ 10167 10162 10161 10158 ] final  174.43 input  -65.29 | X-H torsion
[ 10718 10713 10712 10709 ] final  143.62 input   66.30 | X-H torsion
[ 10763 10752 10751 10750 ] final -141.38 input  -60.55 | X-H torsion
[ 11005 11000 10999 10996 ] final  -51.87 input  -57.11 | X-H torsion

> <Gold.Protein.ActiveResidues>
 VAL166  LYS551  ARG553  GLY616  TRP617  ASP618  TYR619  PRO620  LYS621  CYS622 
 ASP623  PHE694  ASN695  SER759  ASP760  ASP761  ALA762  ILE779  LEU786  VAL792 
 PHE793  MET794  SER795  GLU796  ALA797  LYS798  CYS799  TRP800  GLU811  SER814 

> <Gold.Protein.RotatedAtoms>
  151.4378  133.3652  159.2777 H   0  0  0  0  0  0  0  0  0  0  0  0  # atno 6907 bound_to 6896
  150.9179  134.8598  159.7480 H   0  0  0  0  0  0  0  0  0  0  0  0  # atno 6908 bound_to 6896
  152.4967  134.4313  159.9565 H   0  0  0  0  0  0  0  0  0  0  0  0  # atno 6909 bound_to 6896
  145.2818  139.2630  143.3911 H   0  0  0  0  0  0  0  0  0  0  0  0  # atno 7974 bound_to 7965
  154.5149  140.0801  156.8062 H   0  0  0  0  0  0  0  0  0  0  0  0  # atno 8008 bound_to 7997
  155.3702  140.3422  155.4225 H   0  0  0  0  0  0  0  0  0  0  0  0  # atno 8009 bound_to 7997
  156.1616  140.1590  156.8589 H   0  0  0  0  0  0  0  0  0  0  0  0  # atno 8010 bound_to 7997
  139.5141  144.3148  152.0258 H   0  0  0  0  0  0  0  0  0  0  0  0  # atno 10167 bound_to 10162
  157.3668  131.0973  151.0865 H   0  0  0  0  0  0  0  0  0  0  0  0  # atno 10718 bound_to 10713
  154.8547  135.3526  154.5859 H   0  0  0  0  0  0  0  0  0  0  0  0  # atno 10763 bound_to 10752
  153.6469  135.6996  153.5227 H   0  0  0  0  0  0  0  0  0  0  0  0  # atno 10764 bound_to 10752
  153.2926  135.4230  155.1139 H   0  0  0  0  0  0  0  0  0  0  0  0  # atno 10765 bound_to 10752
  141.0894  133.6635  156.3941 H   0  0  0  0  0  0  0  0  0  0  0  0  # atno 11005 bound_to 11000
  146.3214  140.3288  142.8639 LP  0  0  0  0  0  0  0  0  0  0  0  0  # atno 17320 bound_to 7965
  144.9246  140.7907  143.5727 LP  0  0  0  0  0  0  0  0  0  0  0  0  # atno 17321 bound_to 7965
  140.2591  144.4086  150.6192 LP  0  0  0  0  0  0  0  0  0  0  0  0  # atno 17342 bound_to 10162
  140.6170  143.2173  151.6772 LP  0  0  0  0  0  0  0  0  0  0  0  0  # atno 17343 bound_to 10162
  157.1985  130.6384  149.5730 LP  0  0  0  0  0  0  0  0  0  0  0  0  # atno 17370 bound_to 10713
  155.9747  130.4699  150.6410 LP  0  0  0  0  0  0  0  0  0  0  0  0  # atno 17371 bound_to 10713
  140.5287  134.6234  157.5342 LP  0  0  0  0  0  0  0  0  0  0  0  0  # atno 17394 bound_to 11000
  139.9718  134.7281  156.0027 LP  0  0  0  0  0  0  0  0  0  0  0  0  # atno 17395 bound_to 11000

$$$$
