AV-unprocessed.smi:2257|AV-procd|sdf|9128|dock9
  -GOLD-   2272012333D 1   1.00000     0.00000
 Structure written by MMmdl.
 40 42  0  0  0  0  0  0  0  0  1 V2000
  146.2694  132.3902  151.1630 C   0  0  0  0  0  0  0  0  0  0  0  0
  146.3266  133.2317  152.3091 O   0  0  0  0  0  0  0  0  0  0  0  0
  145.4641  134.3697  152.2998 C   0  0  0  0  0  0  0  0  0  0  0  0
  145.6084  135.2035  153.5851 C   0  0  0  0  0  0  0  0  0  0  0  0
  146.8696  135.9375  153.6144 N   0  0  0  0  0  0  0  0  0  0  0  0
  147.1980  136.8945  154.4926 C   0  0  0  0  0  0  0  0  0  0  0  0
  146.4476  137.2913  155.3832 O   0  0  0  0  0  0  0  0  0  0  0  0
  148.4331  137.3654  154.2519 N   0  0  0  0  0  0  0  0  0  0  0  0
  149.1533  138.3578  154.9685 C   0  0  0  0  0  0  0  0  0  0  0  0
  150.1418  139.1047  154.2942 C   0  0  0  0  0  0  0  0  0  0  0  0
  150.8755  140.0504  154.9186 N   0  0  0  0  0  0  0  0  0  0  0  0
  150.6366  140.2369  156.2196 C   0  0  0  0  0  0  0  0  0  0  0  0
  151.4245  141.3122  156.9016 C   0  0  0  0  0  0  0  0  0  0  0  0
  151.3035  141.5380  158.3952 C   0  0  0  0  0  0  0  0  0  0  0  0
  150.7375  142.5508  157.4395 C   0  0  0  0  0  0  0  0  0  0  0  0
  149.7310  139.5950  156.9626 N   0  0  0  0  0  0  0  0  0  0  0  0
  148.9903  138.6487  156.3455 C   0  0  0  0  0  0  0  0  0  0  0  0
  145.6466  135.0924  150.9500 C   0  0  0  0  0  0  0  0  0  0  0  0
  144.1249  135.2091  150.8515 C   0  0  0  0  0  0  0  0  0  0  0  0
  144.0475  134.0132  151.8015 C   0  0  0  0  0  0  0  0  0  0  0  0
  146.9833  131.5760  151.2848 H   0  0  0  0  0  0  0  0  0  0  0  0
  146.5349  132.9226  150.2499 H   0  0  0  0  0  0  0  0  0  0  0  0
  145.2871  131.9409  151.0269 H   0  0  0  0  0  0  0  0  0  0  0  0
  144.8116  135.9458  153.6364 H   0  0  0  0  0  0  0  0  0  0  0  0
  145.4868  134.5961  154.4820 H   0  0  0  0  0  0  0  0  0  0  0  0
  147.5534  135.6832  152.9168 H   0  0  0  0  0  0  0  0  0  0  0  0
  148.8978  136.9979  153.4345 H   0  0  0  0  0  0  0  0  0  0  0  0
  150.3439  138.9477  153.2446 H   0  0  0  0  0  0  0  0  0  0  0  0
  152.4055  141.4325  156.4459 H   0  0  0  0  0  0  0  0  0  0  0  0
  150.5964  140.9222  158.9474 H   0  0  0  0  0  0  0  0  0  0  0  0
  152.2085  141.8065  158.9361 H   0  0  0  0  0  0  0  0  0  0  0  0
  151.2626  143.4987  157.3413 H   0  0  0  0  0  0  0  0  0  0  0  0
  149.6540  142.6074  157.3553 H   0  0  0  0  0  0  0  0  0  0  0  0
  148.2881  138.1241  156.9744 H   0  0  0  0  0  0  0  0  0  0  0  0
  146.1684  136.0483  151.0001 H   0  0  0  0  0  0  0  0  0  0  0  0
  146.0661  134.4519  150.1720 H   0  0  0  0  0  0  0  0  0  0  0  0
  143.7385  136.1293  151.2926 H   0  0  0  0  0  0  0  0  0  0  0  0
  143.7156  135.0316  149.8565 H   0  0  0  0  0  0  0  0  0  0  0  0
  143.9982  133.0660  151.2614 H   0  0  0  0  0  0  0  0  0  0  0  0
  143.2639  134.0847  152.5564 H   0  0  0  0  0  0  0  0  0  0  0  0
  1  2  1  0  0  0  0
  1 21  1  0  0  0  0
  1 22  1  0  0  0  0
  1 23  1  0  0  0  0
  2  3  1  0  0  0  0
  3 20  1  0  0  0  0
  3  4  1  0  0  0  0
  3 18  1  0  0  0  0
  4  5  1  0  0  0  0
  4 24  1  0  0  0  0
  4 25  1  0  0  0  0
  5  6  1  0  0  0  0
  5 26  1  0  0  0  0
  6  7  2  0  0  0  0
  6  8  1  0  0  0  0
  8  9  1  0  0  0  0
  8 27  1  0  0  0  0
  9 17  1  0  0  0  0
  9 10  2  0  0  0  0
 10 11  1  0  0  0  0
 10 28  1  0  0  0  0
 11 12  2  0  0  0  0
 12 13  1  0  0  0  0
 12 16  1  0  0  0  0
 13 15  1  0  0  0  0
 13 14  1  0  0  0  0
 13 29  1  0  0  0  0
 14 15  1  0  0  0  0
 14 30  1  0  0  0  0
 14 31  1  0  0  0  0
 15 32  1  0  0  0  0
 15 33  1  0  0  0  0
 16 17  2  0  0  0  0
 17 34  1  0  0  0  0
 18 19  1  0  0  0  0
 18 35  1  0  0  0  0
 18 36  1  0  0  0  0
 19 20  1  0  0  0  0
 19 37  1  0  0  0  0
 19 38  1  0  0  0  0
 20 39  1  0  0  0  0
 20 40  1  0  0  0  0
M  END
> <s_m_source_file>
AV-unprocessed.smi

> <i_m_source_file_index>
2257

> <i_lp_mmshare_version>
43012

> <i_f3d_flags>
0

> <s_epik_input>
W0NIMl0xW0NIMl1bQ0gyXUMxKE9bQ0gzXSlbQ0gyXVtOSF1DKD1PKVtOSF1jMltjSF1uYyhuW2NIXTIpW0NIXTNbQ0gyXVtDSDJdMw==

> <s_epik_cmdline>
J2VwaWtfcHl0aG9uJywgJy1waCcsICc3LjAnLCAnLXRuJywgJzgnLCAnLW1hJywgJzIwMCcsICctbWV0YWxfYmluZGluZycsICctaW1hZScsICc8aW5maWxlLm1hZT4nLCAnLW9tYWUnLCAnPG91dGZpbGUubWFlPic=

> <r_lp_tautomer_probability>
1

> <r_epik_Ionization_Penalty>
2.49679e-05

> <r_epik_Ionization_Penalty_Charging>
0

> <r_epik_Ionization_Penalty_Neutral>
2.49679e-05

> <r_epik_State_Penalty>
-0

> <r_epik_Charging_Adjusted_Penalty>
0

> <i_epik_Tot_Q>
0

> <i_epik_Tot_abs_Q>
0

> <r_epik_Metal_State_Penalty>
-0

> <b_epik_Metal_Only>
0

> <s_lp_Force_Field>
OPLS_2005

> <r_lp_Energy>
15.4086

> <b_lp_Chiralities_Consistent>
1

> <s_lp_Variant>
AV-unprocessed.smi:2257-1

> <Gold.Version>
5.8.1

> <Gold.Id.Protein>
6NUR|6NUR_protein|mol2

> <Gold.PLP.Fitness>
39.2599

> <Gold.PLP.PLP>
-27.9860

> <Gold.PLP.part.hbond>
-3.0000

> <Gold.PLP.part.metal>
0.0000

> <Gold.PLP.part.buried>
-4.5888

> <Gold.PLP.part.nonpolar>
-20.7214

> <Gold.PLP.part.repulsive>
0.2026

> <Gold.PLP.ligand.clash>
0.0000

> <Gold.PLP.ligand.torsion>
0.5495

> <Gold.PLP.Chemscore.Hbond>
2.9920

> <Gold.PLP.Chemscore.CHOScore>
1.0000

> <Gold.PLP.Chemscore.Metal>
0.0000

> <Gold.Chemscore.Hbonds>
donor molecule, donor type, donor heavy atom, donor atom, acceptor molecule, acceptor atom, score
      L1  H     5    26       P1  7948  0.96
      L1  H     8    27       P1  7948  1.00
      P1  H  7989  7998       L1    11  1.00
      L1  C    10    28       P1  7957  1.00

> <Gold.PLP.Chemscore.Internal.Correction>
0.3968

> <Gold.Rescore>
     Score         DG    S(hbond)    S(metal)    S(lipo)     H(rot)  DE(clash)    DE(int)     intcor
     15.93     -17.34       2.59        0.00      62.98       1.62       0.01       1.39       ----

> <Gold.Chemscore.Fitness>
15.9342

> <Gold.Chemscore.DG>
-17.3366

> <Gold.Chemscore.ZeroCoef>
-5.4800

> <Gold.Chemscore.Hbond>
2.5875

> <Gold.Chemscore.Metal>
0.0000

> <Gold.Chemscore.Lipo>
62.9813

> <Gold.Chemscore.Internal_Hbond>
0.0000

> <Gold.Chemscore.DEClash>
0.0106

> <Gold.Chemscore.DEInternal>
1.3918

> <Gold.Chemscore.Rot>
1.6229

> <Gold.Chemscore.Internal.Correction>
   9.000000E+99

> <Gold.Chemscore.Hbonds>
donor molecule, donor type, donor heavy atom, donor atom, acceptor molecule, acceptor atom, score
      L1  H     5    26       P1  7948  0.92
      L1  H     8    27       P1  7948  0.99
      P1  H  7989  7998       L1    11  0.30

> <Gold.Chemscore.Hbond.Weighted>
-8.6423

> <Gold.Chemscore.Metal.Weighted>
-0.0000

> <Gold.Chemscore.Lipo.Weighted>
-7.3688

> <Gold.Chemscore.Internal_Hbond.Weighted>
0.0000

> <Gold.Chemscore.DEClash.Weighted>
0.0106

> <Gold.Chemscore.DEInternal.Weighted>
1.3918

> <Gold.Chemscore.Rot.Weighted>
4.1545

> <Gold.Chemscore.Internal.Correction.Weighted>
   9.000000E+99

> <Gold.Protein.RotatedTorsions>
[ 6907 6896 6895 6894 ] final  157.35 input  -60.11 | X-H torsion
[ 7974 7965 7964 7962 ] final   52.48 input  175.53 | X-H torsion
[ 8008 7997 7996 7995 ] final   24.70 input   59.86 | X-H torsion
[ 10167 10162 10161 10158 ] final   14.93 input  -65.29 | X-H torsion
[ 10718 10713 10712 10709 ] final  -54.09 input   66.30 | X-H torsion
[ 10763 10752 10751 10750 ] final -132.11 input  -60.55 | X-H torsion
[ 11005 11000 10999 10996 ] final   15.17 input  -57.11 | X-H torsion

> <Gold.Protein.ActiveResidues>
 VAL166  LYS551  ARG553  GLY616  TRP617  ASP618  TYR619  PRO620  LYS621  CYS622 
 ASP623  PHE694  ASN695  SER759  ASP760  ASP761  ALA762  ILE779  LEU786  VAL792 
 PHE793  MET794  SER795  GLU796  ALA797  LYS798  CYS799  TRP800  GLU811  SER814 

> <Gold.Protein.RotatedAtoms>
  152.0164  133.3881  159.4240 H   0  0  0  0  0  0  0  0  0  0  0  0  # atno 6907 bound_to 6896
  150.6894  134.3674  159.4986 H   0  0  0  0  0  0  0  0  0  0  0  0  # atno 6908 bound_to 6896
  152.1442  134.9039  160.0602 H   0  0  0  0  0  0  0  0  0  0  0  0  # atno 6909 bound_to 6896
  145.9809  139.4241  143.0132 H   0  0  0  0  0  0  0  0  0  0  0  0  # atno 7974 bound_to 7965
  155.0003  140.3124  155.4870 H   0  0  0  0  0  0  0  0  0  0  0  0  # atno 8008 bound_to 7997
  156.2926  140.2233  156.5053 H   0  0  0  0  0  0  0  0  0  0  0  0  # atno 8009 bound_to 7997
  154.7624  140.0458  157.0973 H   0  0  0  0  0  0  0  0  0  0  0  0  # atno 8010 bound_to 7997
  140.5902  143.8811  150.6866 H   0  0  0  0  0  0  0  0  0  0  0  0  # atno 10167 bound_to 10162
  156.1480  130.4152  149.9993 H   0  0  0  0  0  0  0  0  0  0  0  0  # atno 10718 bound_to 10713
  154.8746  135.3808  154.4355 H   0  0  0  0  0  0  0  0  0  0  0  0  # atno 10763 bound_to 10752
  153.5045  135.7030  153.5819 H   0  0  0  0  0  0  0  0  0  0  0  0  # atno 10764 bound_to 10752
  153.4136  135.3919  155.2032 H   0  0  0  0  0  0  0  0  0  0  0  0  # atno 10765 bound_to 10752
  140.4613  134.1124  155.7717 H   0  0  0  0  0  0  0  0  0  0  0  0  # atno 11005 bound_to 11000
  145.7770  140.9872  143.1119 LP  0  0  0  0  0  0  0  0  0  0  0  0  # atno 17320 bound_to 7965
  144.6861  139.9518  143.7478 LP  0  0  0  0  0  0  0  0  0  0  0  0  # atno 17321 bound_to 7965
  140.2331  143.3720  152.1549 LP  0  0  0  0  0  0  0  0  0  0  0  0  # atno 17342 bound_to 10162
  139.5222  144.7056  151.5363 LP  0  0  0  0  0  0  0  0  0  0  0  0  # atno 17343 bound_to 10162
  156.7859  130.9238  151.3646 LP  0  0  0  0  0  0  0  0  0  0  0  0  # atno 17370 bound_to 10713
  157.6633  130.8985  149.9876 LP  0  0  0  0  0  0  0  0  0  0  0  0  # atno 17371 bound_to 10713
  141.1620  133.8775  157.1822 LP  0  0  0  0  0  0  0  0  0  0  0  0  # atno 17394 bound_to 11000
  139.9943  135.0052  157.0048 LP  0  0  0  0  0  0  0  0  0  0  0  0  # atno 17395 bound_to 11000

$$$$
