AV-unprocessed.smi:2470|AV-procd|sdf|9736|dock1
  -GOLD-   2272013373D 1   1.00000     0.00000
 Structure written by MMmdl.
 33 34  0  0  0  0  0  0  0  0  1 V2000
  151.5142  136.4726  156.7937 C   0  0  0  0  0  0  0  0  0  0  0  0
  151.9530  135.1239  156.6766 O   0  0  0  0  0  0  0  0  0  0  0  0
  151.1103  134.2151  156.0712 C   0  0  0  0  0  0  0  0  0  0  0  0
  150.2207  134.6584  155.0713 C   0  0  0  0  0  0  0  0  0  0  0  0
  149.3764  133.6952  154.4749 C   0  0  0  0  0  0  0  0  0  0  0  0
  148.5012  134.1820  153.4680 N   0  0  0  0  0  0  0  0  0  0  0  0
  147.2900  133.7108  153.1235 C   0  0  0  0  0  0  0  0  0  0  0  0
  146.7137  132.7665  153.6641 O   0  0  0  0  0  0  0  0  0  0  0  0
  146.7719  134.4092  152.1021 N   0  0  0  0  0  0  0  0  0  0  0  0
  145.4774  134.1619  151.4741 C   0  0  1  0  0  0  0  0  0  0  0  0
  144.9800  135.4449  150.7898 C   0  0  0  0  0  0  0  0  0  0  0  0
  145.5221  133.0068  150.4919 C   0  0  0  0  0  0  0  0  0  0  0  0
  144.2579  132.4603  149.8733 C   0  0  0  0  0  0  0  0  0  0  0  0
  145.0277  131.6339  150.8792 C   0  0  0  0  0  0  0  0  0  0  0  0
  149.4408  132.4002  154.8721 N   0  0  0  0  0  0  0  0  0  0  0  0
  150.3163  132.0821  155.8273 C   0  0  0  0  0  0  0  0  0  0  0  0
  151.1534  132.9141  156.4475 N   0  0  0  0  0  0  0  0  0  0  0  0
  152.2891  137.0627  157.2825 H   0  0  0  0  0  0  0  0  0  0  0  0
  150.6102  136.5457  157.4000 H   0  0  0  0  0  0  0  0  0  0  0  0
  151.3266  136.9186  155.8159 H   0  0  0  0  0  0  0  0  0  0  0  0
  150.1931  135.6973  154.7765 H   0  0  0  0  0  0  0  0  0  0  0  0
  148.8406  134.9744  152.9432 H   0  0  0  0  0  0  0  0  0  0  0  0
  147.3181  135.1686  151.7229 H   0  0  0  0  0  0  0  0  0  0  0  0
  144.7578  133.8954  152.2511 H   0  0  0  0  0  0  0  0  0  0  0  0
  144.0019  135.2916  150.3326 H   0  0  0  0  0  0  0  0  0  0  0  0
  145.6657  135.7685  150.0061 H   0  0  0  0  0  0  0  0  0  0  0  0
  144.8805  136.2624  151.5045 H   0  0  0  0  0  0  0  0  0  0  0  0
  146.3903  133.0290  149.8354 H   0  0  0  0  0  0  0  0  0  0  0  0
  143.3095  132.8864  150.1948 H   0  0  0  0  0  0  0  0  0  0  0  0
  144.3019  132.1534  148.8303 H   0  0  0  0  0  0  0  0  0  0  0  0
  145.5842  130.7764  150.5065 H   0  0  0  0  0  0  0  0  0  0  0  0
  144.5901  131.5116  151.8681 H   0  0  0  0  0  0  0  0  0  0  0  0
  150.3509  131.0456  156.1286 H   0  0  0  0  0  0  0  0  0  0  0  0
  1  2  1  0  0  0  0
  1 18  1  0  0  0  0
  1 19  1  0  0  0  0
  1 20  1  0  0  0  0
  2  3  1  0  0  0  0
  3 17  1  0  0  0  0
  3  4  2  0  0  0  0
  4  5  1  0  0  0  0
  4 21  1  0  0  0  0
  5  6  1  0  0  0  0
  5 15  2  0  0  0  0
  6  7  1  0  0  0  0
  6 22  1  0  0  0  0
  7  8  2  0  0  0  0
  7  9  1  0  0  0  0
  9 10  1  0  0  0  0
  9 23  1  0  0  0  0
 10 11  1  0  0  0  0
 10 12  1  0  0  0  0
 10 24  1  0  0  0  0
 11 25  1  0  0  0  0
 11 26  1  0  0  0  0
 11 27  1  0  0  0  0
 12 14  1  0  0  0  0
 12 13  1  0  0  0  0
 12 28  1  0  0  0  0
 13 14  1  0  0  0  0
 13 29  1  0  0  0  0
 13 30  1  0  0  0  0
 14 31  1  0  0  0  0
 14 32  1  0  0  0  0
 15 16  1  0  0  0  0
 16 17  2  0  0  0  0
 16 33  1  0  0  0  0
M  END
> <s_m_source_file>
AV-unprocessed.smi

> <i_m_source_file_index>
2470

> <i_lp_mmshare_version>
43012

> <i_f3d_flags>
0

> <s_epik_input>
W0NIM11PYzFbY0hdYyhuW2NIXW4xKVtOSF1DKD1PKVtOSF1bQ0BIXShbQ0gzXSlbQ0hdMltDSDJdW0NIMl0y

> <s_epik_cmdline>
J2VwaWtfcHl0aG9uJywgJy1waCcsICc3LjAnLCAnLXRuJywgJzgnLCAnLW1hJywgJzIwMCcsICctbWV0YWxfYmluZGluZycsICctaW1hZScsICc8aW5maWxlLm1hZT4nLCAnLW9tYWUnLCAnPG91dGZpbGUubWFlPic=

> <r_lp_tautomer_probability>
1

> <r_epik_Ionization_Penalty>
2.81207e-05

> <r_epik_Ionization_Penalty_Charging>
0

> <r_epik_Ionization_Penalty_Neutral>
2.81207e-05

> <r_epik_State_Penalty>
-0

> <r_epik_Charging_Adjusted_Penalty>
0

> <i_epik_Tot_Q>
0

> <i_epik_Tot_abs_Q>
0

> <r_epik_Metal_State_Penalty>
-0

> <b_epik_Metal_Only>
0

> <s_lp_Force_Field>
OPLS_2005

> <r_lp_Energy>
11.1381

> <b_lp_Chiralities_Consistent>
1

> <s_lp_Variant>
AV-unprocessed.smi:2470-2

> <Gold.Version>
5.8.1

> <Gold.Id.Protein>
6NUR|6NUR_protein|mol2

> <Gold.PLP.Fitness>
35.4281

> <Gold.PLP.PLP>
-28.5397

> <Gold.PLP.part.hbond>
-3.0000

> <Gold.PLP.part.metal>
0.0000

> <Gold.PLP.part.buried>
-4.6564

> <Gold.PLP.part.nonpolar>
-20.4091

> <Gold.PLP.part.repulsive>
0.1200

> <Gold.PLP.ligand.clash>
0.0000

> <Gold.PLP.ligand.torsion>
1.4725

> <Gold.PLP.Chemscore.Hbond>
2.9190

> <Gold.PLP.Chemscore.CHOScore>
0.0000

> <Gold.PLP.Chemscore.Metal>
0.0000

> <Gold.Chemscore.Hbonds>
donor molecule, donor type, donor heavy atom, donor atom, acceptor molecule, acceptor atom, score
      L1  H     6    22       P1  7948  0.95
      L1  H     9    23       P1  7948  0.94
      P1  H 10752 10765       L1     2  0.96

> <Gold.PLP.Chemscore.Internal.Correction>
1.0764

> <Gold.Rescore>
     Score         DG    S(hbond)    S(metal)    S(lipo)     H(rot)  DE(clash)    DE(int)     intcor
     13.51     -15.71       2.59        0.00      48.77       1.61       0.03       2.16       ----

> <Gold.Chemscore.Fitness>
13.5118

> <Gold.Chemscore.DG>
-15.7063

> <Gold.Chemscore.ZeroCoef>
-5.4800

> <Gold.Chemscore.Hbond>
2.5881

> <Gold.Chemscore.Metal>
0.0000

> <Gold.Chemscore.Lipo>
48.7693

> <Gold.Chemscore.Internal_Hbond>
0.0000

> <Gold.Chemscore.DEClash>
0.0323

> <Gold.Chemscore.DEInternal>
2.1623

> <Gold.Chemscore.Rot>
1.6109

> <Gold.Chemscore.Internal.Correction>
   9.000000E+99

> <Gold.Chemscore.Hbonds>
donor molecule, donor type, donor heavy atom, donor atom, acceptor molecule, acceptor atom, score
      L1  H     6    22       P1  7948  0.21
      L1  H     9    23       P1  7948  0.84
      P1  H 10752 10765       L1     2  0.09

> <Gold.Chemscore.Hbond.Weighted>
-8.6443

> <Gold.Chemscore.Metal.Weighted>
-0.0000

> <Gold.Chemscore.Lipo.Weighted>
-5.7060

> <Gold.Chemscore.Internal_Hbond.Weighted>
0.0000

> <Gold.Chemscore.DEClash.Weighted>
0.0323

> <Gold.Chemscore.DEInternal.Weighted>
2.1623

> <Gold.Chemscore.Rot.Weighted>
4.1240

> <Gold.Chemscore.Internal.Correction.Weighted>
   9.000000E+99

> <Gold.Protein.RotatedTorsions>
[ 6907 6896 6895 6894 ] final -170.02 input  -60.11 | X-H torsion
[ 7974 7965 7964 7962 ] final  138.96 input  175.53 | X-H torsion
[ 8008 7997 7996 7995 ] final -136.98 input   59.86 | X-H torsion
[ 10167 10162 10161 10158 ] final   31.69 input  -65.29 | X-H torsion
[ 10718 10713 10712 10709 ] final  -39.63 input   66.30 | X-H torsion
[ 10763 10752 10751 10750 ] final -126.68 input  -60.55 | X-H torsion
[ 11005 11000 10999 10996 ] final  154.77 input  -57.11 | X-H torsion

> <Gold.Protein.ActiveResidues>
 VAL166  LYS551  ARG553  GLY616  TRP617  ASP618  TYR619  PRO620  LYS621  CYS622 
 ASP623  PHE694  ASN695  SER759  ASP760  ASP761  ALA762  ILE779  LEU786  VAL792 
 PHE793  MET794  SER795  GLU796  ALA797  LYS798  CYS799  TRP800  GLU811  SER814 

> <Gold.Protein.RotatedAtoms>
  151.5010  133.3504  159.2868 H   0  0  0  0  0  0  0  0  0  0  0  0  # atno 6907 bound_to 6896
  150.8773  134.8160  159.7210 H   0  0  0  0  0  0  0  0  0  0  0  0  # atno 6908 bound_to 6896
  152.4739  134.4903  159.9745 H   0  0  0  0  0  0  0  0  0  0  0  0  # atno 6909 bound_to 6896
  144.9323  139.5032  143.5612 H   0  0  0  0  0  0  0  0  0  0  0  0  # atno 7974 bound_to 7965
  155.4041  140.0508  157.3035 H   0  0  0  0  0  0  0  0  0  0  0  0  # atno 8008 bound_to 7997
  154.4977  140.2144  155.9373 H   0  0  0  0  0  0  0  0  0  0  0  0  # atno 8009 bound_to 7997
  156.1426  140.3151  155.8525 H   0  0  0  0  0  0  0  0  0  0  0  0  # atno 8010 bound_to 7997
  140.4566  144.0970  150.6203 H   0  0  0  0  0  0  0  0  0  0  0  0  # atno 10167 bound_to 10162
  156.2903  130.4227  149.8245 H   0  0  0  0  0  0  0  0  0  0  0  0  # atno 10718 bound_to 10713
  154.8747  135.3987  154.3469 H   0  0  0  0  0  0  0  0  0  0  0  0  # atno 10763 bound_to 10752
  153.4261  135.7024  153.6267 H   0  0  0  0  0  0  0  0  0  0  0  0  # atno 10764 bound_to 10752
  153.4909  135.3748  155.2461 H   0  0  0  0  0  0  0  0  0  0  0  0  # atno 10765 bound_to 10752
  140.1520  134.8668  157.2466 H   0  0  0  0  0  0  0  0  0  0  0  0  # atno 11005 bound_to 11000
  146.3252  139.8282  142.8913 LP  0  0  0  0  0  0  0  0  0  0  0  0  # atno 17320 bound_to 7965
  145.3122  141.0223  143.3548 LP  0  0  0  0  0  0  0  0  0  0  0  0  # atno 17321 bound_to 7965
  140.4144  143.2641  151.9793 LP  0  0  0  0  0  0  0  0  0  0  0  0  # atno 17342 bound_to 10162
  139.4802  144.5887  151.7810 LP  0  0  0  0  0  0  0  0  0  0  0  0  # atno 17343 bound_to 10162
  156.5661  130.8404  151.3343 LP  0  0  0  0  0  0  0  0  0  0  0  0  # atno 17370 bound_to 10713
  157.7340  130.9740  150.2008 LP  0  0  0  0  0  0  0  0  0  0  0  0  # atno 17371 bound_to 10713
  140.2594  134.3589  155.7412 LP  0  0  0  0  0  0  0  0  0  0  0  0  # atno 17394 bound_to 11000
  141.2200  133.7360  156.9056 LP  0  0  0  0  0  0  0  0  0  0  0  0  # atno 17395 bound_to 11000

$$$$
