AV-unprocessed.smi:3148|AV-procd|sdf|11992|dock4
  -GOLD-   2272017393D 1   1.00000     0.00000
 Structure written by MMmdl.
 34 36  0  0  0  0  0  0  0  0  1 V2000
  151.8838  145.4374  159.6444 C   0  0  0  0  0  0  0  0  0  0  0  0
  151.6999  144.4583  158.6279 O   0  0  0  0  0  0  0  0  0  0  0  0
  152.1039  143.1657  158.8904 C   0  0  0  0  0  0  0  0  0  0  0  0
  152.8428  142.8935  160.0597 C   0  0  0  0  0  0  0  0  0  0  0  0
  153.2204  141.5500  160.2647 C   0  0  0  0  0  0  0  0  0  0  0  0
  154.0094  141.1270  161.4855 C   0  0  0  0  0  0  0  0  0  0  0  0
  152.8921  140.5756  159.3880 N   0  0  0  0  0  0  0  0  0  0  0  0
  152.1895  140.9395  158.3132 C   0  0  0  0  0  0  0  0  0  0  0  0
  151.8637  139.9172  157.4414 N   0  0  0  0  0  0  0  0  0  0  0  0
  151.7638  140.0732  155.9947 C   0  0  1  0  0  0  0  0  0  0  0  0
  152.5695  139.0289  155.2189 C   0  0  0  0  0  0  0  0  0  0  0  0
  151.5052  138.4471  154.2775 C   0  0  1  0  0  0  0  0  0  0  0  0
  150.5393  137.5186  155.0249 C   0  0  0  0  0  0  0  0  0  0  0  0
  149.7124  138.5166  155.8331 C   0  0  0  0  0  0  0  0  0  0  0  0
  150.3467  139.8580  155.4271 C   0  0  2  0  0  0  0  0  0  0  0  0
  150.6729  139.5774  154.0764 O   0  0  0  0  0  0  0  0  0  0  0  0
  151.7805  142.1786  158.0186 N   0  0  0  0  0  0  0  0  0  0  0  0
  151.5246  146.4016  159.2853 H   0  0  0  0  0  0  0  0  0  0  0  0
  152.9378  145.5515  159.9022 H   0  0  0  0  0  0  0  0  0  0  0  0
  151.3204  145.1888  160.5450 H   0  0  0  0  0  0  0  0  0  0  0  0
  153.1017  143.6747  160.7590 H   0  0  0  0  0  0  0  0  0  0  0  0
  154.3528  141.9936  162.0512 H   0  0  0  0  0  0  0  0  0  0  0  0
  154.8828  140.5435  161.1931 H   0  0  0  0  0  0  0  0  0  0  0  0
  153.3898  140.5146  162.1409 H   0  0  0  0  0  0  0  0  0  0  0  0
  151.4999  139.0687  157.8499 H   0  0  0  0  0  0  0  0  0  0  0  0
  152.1191  141.0670  155.7179 H   0  0  0  0  0  0  0  0  0  0  0  0
  153.3674  139.5120  154.6542 H   0  0  0  0  0  0  0  0  0  0  0  0
  153.0194  138.2607  155.8495 H   0  0  0  0  0  0  0  0  0  0  0  0
  151.9113  138.0176  153.3614 H   0  0  0  0  0  0  0  0  0  0  0  0
  149.9039  136.9735  154.3258 H   0  0  0  0  0  0  0  0  0  0  0  0
  151.0599  136.7933  155.6511 H   0  0  0  0  0  0  0  0  0  0  0  0
  148.6674  138.4793  155.5243 H   0  0  0  0  0  0  0  0  0  0  0  0
  149.7507  138.3314  156.9068 H   0  0  0  0  0  0  0  0  0  0  0  0
  149.6841  140.7146  155.5545 H   0  0  0  0  0  0  0  0  0  0  0  0
  1  2  1  0  0  0  0
  1 18  1  0  0  0  0
  1 19  1  0  0  0  0
  1 20  1  0  0  0  0
  2  3  1  0  0  0  0
  3 17  1  0  0  0  0
  3  4  2  0  0  0  0
  4  5  1  0  0  0  0
  4 21  1  0  0  0  0
  5  6  1  0  0  0  0
  5  7  2  0  0  0  0
  6 22  1  0  0  0  0
  6 23  1  0  0  0  0
  6 24  1  0  0  0  0
  7  8  1  0  0  0  0
  8  9  1  0  0  0  0
  8 17  2  0  0  0  0
  9 10  1  0  0  0  0
  9 25  1  0  0  0  0
 10 15  1  0  0  0  0
 10 11  1  0  0  0  0
 10 26  1  0  0  0  0
 11 12  1  0  0  0  0
 11 27  1  0  0  0  0
 11 28  1  0  0  0  0
 12 16  1  0  0  0  0
 12 13  1  0  0  0  0
 12 29  1  0  0  0  0
 13 14  1  0  0  0  0
 13 30  1  0  0  0  0
 13 31  1  0  0  0  0
 14 15  1  0  0  0  0
 14 32  1  0  0  0  0
 14 33  1  0  0  0  0
 15 16  1  0  0  0  0
 15 34  1  0  0  0  0
M  END
> <s_m_source_file>
AV-unprocessed.smi

> <i_m_source_file_index>
3148

> <i_lp_mmshare_version>
43012

> <i_f3d_flags>
0

> <s_epik_input>
W0NIM11PYzFbY0hdYyhbQ0gzXSluYyhuMSlbTkhdW0NASF0oW0NIMl1bQ0BASF0yMylbQ0BASF0oTzMpW0NIMl1bQ0gyXTI=

> <s_epik_cmdline>
J2VwaWtfcHl0aG9uJywgJy1waCcsICc3LjAnLCAnLXRuJywgJzgnLCAnLW1hJywgJzIwMCcsICctbWV0YWxfYmluZGluZycsICctaW1hZScsICc8aW5maWxlLm1hZT4nLCAnLW9tYWUnLCAnPG91dGZpbGUubWFlPic=

> <r_lp_tautomer_probability>
1

> <r_epik_Ionization_Penalty>
0.101645

> <r_epik_Ionization_Penalty_Charging>
0

> <r_epik_Ionization_Penalty_Neutral>
0.101645

> <r_epik_State_Penalty>
0.0916212

> <r_epik_Charging_Adjusted_Penalty>
0.0916212

> <i_epik_Tot_Q>
0

> <i_epik_Tot_abs_Q>
0

> <r_epik_Metal_State_Penalty>
0.0781

> <b_epik_Metal_Only>
0

> <s_lp_Force_Field>
OPLS_2005

> <r_lp_Energy>
31.5885

> <b_lp_Chiralities_Consistent>
1

> <s_lp_Variant>
AV-unprocessed.smi:3148-2

> <Gold.Version>
5.8.1

> <Gold.Id.Protein>
6NUR|6NUR_protein|mol2

> <Gold.PLP.Fitness>
38.6284

> <Gold.PLP.PLP>
-36.3245

> <Gold.PLP.part.hbond>
-1.0000

> <Gold.PLP.part.metal>
0.0000

> <Gold.PLP.part.buried>
-4.8479

> <Gold.PLP.part.nonpolar>
-30.8691

> <Gold.PLP.part.repulsive>
0.3644

> <Gold.PLP.ligand.clash>
0.0000

> <Gold.PLP.ligand.torsion>
0.3530

> <Gold.PLP.Chemscore.Hbond>
1.0000

> <Gold.PLP.Chemscore.CHOScore>
0.0000

> <Gold.PLP.Chemscore.Metal>
0.0000

> <Gold.Chemscore.Hbonds>
donor molecule, donor type, donor heavy atom, donor atom, acceptor molecule, acceptor atom, score
      P1  H  7989  7998       L1    16  1.00

> <Gold.PLP.Chemscore.Internal.Correction>
0.0100

> <Gold.Rescore>
     Score         DG    S(hbond)    S(metal)    S(lipo)     H(rot)  DE(clash)    DE(int)     intcor
     14.41     -14.82       0.86        0.00      81.93       1.22       0.03       0.37       ----

> <Gold.Chemscore.Fitness>
14.4141

> <Gold.Chemscore.DG>
-14.8161

> <Gold.Chemscore.ZeroCoef>
-5.4800

> <Gold.Chemscore.Hbond>
0.8626

> <Gold.Chemscore.Metal>
0.0000

> <Gold.Chemscore.Lipo>
81.9333

> <Gold.Chemscore.Internal_Hbond>
0.0000

> <Gold.Chemscore.DEClash>
0.0270

> <Gold.Chemscore.DEInternal>
0.3750

> <Gold.Chemscore.Rot>
1.2232

> <Gold.Chemscore.Internal.Correction>
   9.000000E+99

> <Gold.Chemscore.Hbonds>
donor molecule, donor type, donor heavy atom, donor atom, acceptor molecule, acceptor atom, score
      P1  H  7989  7998       L1    16  0.49

> <Gold.Chemscore.Hbond.Weighted>
-2.8812

> <Gold.Chemscore.Metal.Weighted>
-0.0000

> <Gold.Chemscore.Lipo.Weighted>
-9.5862

> <Gold.Chemscore.Internal_Hbond.Weighted>
0.0000

> <Gold.Chemscore.DEClash.Weighted>
0.0270

> <Gold.Chemscore.DEInternal.Weighted>
0.3750

> <Gold.Chemscore.Rot.Weighted>
3.1314

> <Gold.Chemscore.Internal.Correction.Weighted>
   9.000000E+99

> <Gold.Protein.RotatedTorsions>
[ 6907 6896 6895 6894 ] final  -50.87 input  -60.11 | X-H torsion
[ 7974 7965 7964 7962 ] final  172.50 input  175.53 | X-H torsion
[ 8008 7997 7996 7995 ] final  156.35 input   59.86 | X-H torsion
[ 10167 10162 10161 10158 ] final   -1.90 input  -65.29 | X-H torsion
[ 10718 10713 10712 10709 ] final  -85.68 input   66.30 | X-H torsion
[ 10763 10752 10751 10750 ] final  -92.45 input  -60.55 | X-H torsion
[ 11005 11000 10999 10996 ] final  -55.86 input  -57.11 | X-H torsion

> <Gold.Protein.ActiveResidues>
 VAL166  LYS551  ARG553  GLY616  TRP617  ASP618  TYR619  PRO620  LYS621  CYS622 
 ASP623  PHE694  ASN695  SER759  ASP760  ASP761  ALA762  ILE779  LEU786  VAL792 
 PHE793  MET794  SER795  GLU796  ALA797  LYS798  CYS799  TRP800  GLU811  SER814 

> <Gold.Protein.RotatedAtoms>
  150.8665  134.8030  159.7122 H   0  0  0  0  0  0  0  0  0  0  0  0  # atno 6907 bound_to 6896
  152.4685  134.5015  159.9736 H   0  0  0  0  0  0  0  0  0  0  0  0  # atno 6908 bound_to 6896
  151.5110  133.3446  159.2920 H   0  0  0  0  0  0  0  0  0  0  0  0  # atno 6909 bound_to 6896
  144.7266  139.9508  143.6432 H   0  0  0  0  0  0  0  0  0  0  0  0  # atno 7974 bound_to 7965
  156.2427  140.1915  156.6941 H   0  0  0  0  0  0  0  0  0  0  0  0  # atno 8008 bound_to 7997
  154.6230  140.0606  156.9665 H   0  0  0  0  0  0  0  0  0  0  0  0  # atno 8009 bound_to 7997
  155.1832  140.3278  155.4374 H   0  0  0  0  0  0  0  0  0  0  0  0  # atno 8010 bound_to 7997
  140.6829  143.6721  150.8176 H   0  0  0  0  0  0  0  0  0  0  0  0  # atno 10167 bound_to 10162
  155.9995  130.4739  150.4599 H   0  0  0  0  0  0  0  0  0  0  0  0  # atno 10718 bound_to 10713
  154.6862  135.5231  153.8330 H   0  0  0  0  0  0  0  0  0  0  0  0  # atno 10763 bound_to 10752
  153.0599  135.6564  154.0497 H   0  0  0  0  0  0  0  0  0  0  0  0  # atno 10764 bound_to 10752
  154.0377  135.2980  155.3339 H   0  0  0  0  0  0  0  0  0  0  0  0  # atno 10765 bound_to 10752
  141.1094  133.6611  156.4533 H   0  0  0  0  0  0  0  0  0  0  0  0  # atno 11005 bound_to 11000
  146.0713  139.3702  143.0521 LP  0  0  0  0  0  0  0  0  0  0  0  0  # atno 17320 bound_to 7965
  145.7964  140.9791  143.1022 LP  0  0  0  0  0  0  0  0  0  0  0  0  # atno 17321 bound_to 7965
  140.0424  143.5333  152.2712 LP  0  0  0  0  0  0  0  0  0  0  0  0  # atno 17342 bound_to 10162
  139.6165  144.7620  151.2835 LP  0  0  0  0  0  0  0  0  0  0  0  0  # atno 17343 bound_to 10162
  157.2624  131.0569  151.2312 LP  0  0  0  0  0  0  0  0  0  0  0  0  # atno 17370 bound_to 10713
  157.3422  130.7039  149.6388 LP  0  0  0  0  0  0  0  0  0  0  0  0  # atno 17371 bound_to 10713
  140.4817  134.6659  157.5173 LP  0  0  0  0  0  0  0  0  0  0  0  0  # atno 17394 bound_to 11000
  139.9979  134.6882  155.9578 LP  0  0  0  0  0  0  0  0  0  0  0  0  # atno 17395 bound_to 11000

$$$$
