AV-unprocessed.smi:119|AV-procd|sdf|1133|dock1
  -GOLD-   2262018263D 1   1.00000     0.00000
 Structure written by MMmdl.
 51 54  0  0  0  0  0  0  0  0  1 V2000
  149.8052  129.0567  154.4308 C   0  0  0  0  0  0  0  0  0  0  0  0
  149.1784  130.3198  153.8261 C   0  0  2  0  0  0  0  0  0  0  0  0
  149.7577  131.5904  154.4810 C   0  0  0  0  0  0  0  0  0  0  0  0
  149.3732  132.9067  153.7802 C   0  0  0  0  0  0  0  0  0  0  0  0
  147.9577  133.2399  153.9684 N   0  0  0  0  0  0  0  0  0  0  0  0
  147.5345  133.8608  155.0990 C   0  0  0  0  0  0  0  0  0  0  0  0
  146.3397  134.0672  155.3230 O   0  0  0  0  0  0  0  0  0  0  0  0
  148.5732  134.3318  156.1435 C   0  0  0  0  0  0  0  0  0  0  0  0
  148.0302  135.3583  157.0595 N   0  0  0  0  0  0  0  0  0  0  0  0
  147.3192  136.4593  156.5218 C   0  0  0  0  0  0  0  0  0  0  0  0
  147.1428  136.5763  155.3083 O   0  0  0  0  0  0  0  0  0  0  0  0
  146.8252  137.4249  157.4973 C   0  0  0  0  0  0  0  0  0  0  0  0
  146.1127  138.4860  157.0818 F   0  0  0  0  0  0  0  0  0  0  0  0
  147.0698  137.2688  158.8149 C   0  0  0  0  0  0  0  0  0  0  0  0
  147.7999  136.2119  159.3218 N   0  0  0  0  0  0  0  0  0  0  0  0
  148.0061  136.1015  160.8147 C   0  0  2  0  0  0  0  0  0  0  0  0
  147.3552  134.8496  161.4340 C   0  0  0  0  0  0  0  0  0  0  0  0
  146.4003  135.4347  162.4616 C   0  0  0  0  0  0  0  0  0  0  0  0
  146.9768  136.8247  162.7070 C   0  0  0  0  0  0  0  0  0  0  0  0
  147.4411  137.2203  161.4256 O   0  0  0  0  0  0  0  0  0  0  0  0
  148.2747  135.2091  158.4463 C   0  0  0  0  0  0  0  0  0  0  0  0
  148.8893  134.2305  158.8747 O   0  0  0  0  0  0  0  0  0  0  0  0
  147.0621  132.7994  152.9611 C   0  0  0  0  0  0  0  0  0  0  0  0
  146.5093  133.7384  152.0631 C   0  0  0  0  0  0  0  0  0  0  0  0
  145.6115  133.3169  151.0639 C   0  0  0  0  0  0  0  0  0  0  0  0
  145.2633  131.9568  150.9584 C   0  0  0  0  0  0  0  0  0  0  0  0
  145.8144  131.0165  151.8501 C   0  0  0  0  0  0  0  0  0  0  0  0
  146.7181  131.4312  152.8485 C   0  0  0  0  0  0  0  0  0  0  0  0
  147.3680  130.2237  153.9650 S   0  0  0  0  0  0  0  0  0  0  0  0
  150.8885  129.0555  154.3078 H   0  0  0  0  0  0  0  0  0  0  0  0
  149.4193  128.1583  153.9484 H   0  0  0  0  0  0  0  0  0  0  0  0
  149.5902  128.9807  155.4971 H   0  0  0  0  0  0  0  0  0  0  0  0
  149.4183  130.3324  152.7623 H   0  0  0  0  0  0  0  0  0  0  0  0
  149.4795  131.6279  155.5352 H   0  0  0  0  0  0  0  0  0  0  0  0
  150.8457  131.5181  154.4668 H   0  0  0  0  0  0  0  0  0  0  0  0
  150.0049  133.7180  154.1457 H   0  0  0  0  0  0  0  0  0  0  0  0
  149.5947  132.8338  152.7143 H   0  0  0  0  0  0  0  0  0  0  0  0
  148.9335  133.4523  156.6784 H   0  0  0  0  0  0  0  0  0  0  0  0
  149.4665  134.7379  155.6678 H   0  0  0  0  0  0  0  0  0  0  0  0
  146.6783  138.0107  159.4955 H   0  0  0  0  0  0  0  0  0  0  0  0
  149.0857  136.1138  160.9710 H   0  0  0  0  0  0  0  0  0  0  0  0
  146.8543  134.2261  160.6926 H   0  0  0  0  0  0  0  0  0  0  0  0
  148.1332  134.2560  161.9148 H   0  0  0  0  0  0  0  0  0  0  0  0
  145.3975  135.5161  162.0410 H   0  0  0  0  0  0  0  0  0  0  0  0
  146.3357  134.8369  163.3710 H   0  0  0  0  0  0  0  0  0  0  0  0
  146.2390  137.5239  163.1014 H   0  0  0  0  0  0  0  0  0  0  0  0
  147.8172  136.7803  163.4015 H   0  0  0  0  0  0  0  0  0  0  0  0
  146.7708  134.7838  152.1412 H   0  0  0  0  0  0  0  0  0  0  0  0
  145.1881  134.0373  150.3796 H   0  0  0  0  0  0  0  0  0  0  0  0
  144.5721  131.6345  150.1940 H   0  0  0  0  0  0  0  0  0  0  0  0
  145.5409  129.9749  151.7654 H   0  0  0  0  0  0  0  0  0  0  0  0
  1  2  1  0  0  0  0
  1 30  1  0  0  0  0
  1 31  1  0  0  0  0
  1 32  1  0  0  0  0
  2 29  1  0  0  0  0
  2  3  1  0  0  0  0
  2 33  1  0  0  0  0
  3  4  1  0  0  0  0
  3 34  1  0  0  0  0
  3 35  1  0  0  0  0
  4  5  1  0  0  0  0
  4 36  1  0  0  0  0
  4 37  1  0  0  0  0
  5  6  1  0  0  0  0
  5 23  1  0  0  0  0
  6  7  2  0  0  0  0
  6  8  1  0  0  0  0
  8  9  1  0  0  0  0
  8 38  1  0  0  0  0
  8 39  1  0  0  0  0
  9 21  1  0  0  0  0
  9 10  1  0  0  0  0
 10 11  2  0  0  0  0
 10 12  1  0  0  0  0
 12 13  1  0  0  0  0
 12 14  2  0  0  0  0
 14 15  1  0  0  0  0
 14 40  1  0  0  0  0
 15 16  1  0  0  0  0
 15 21  1  0  0  0  0
 16 20  1  0  0  0  0
 16 17  1  0  0  0  0
 16 41  1  0  0  0  0
 17 18  1  0  0  0  0
 17 42  1  0  0  0  0
 17 43  1  0  0  0  0
 18 19  1  0  0  0  0
 18 44  1  0  0  0  0
 18 45  1  0  0  0  0
 19 20  1  0  0  0  0
 19 46  1  0  0  0  0
 19 47  1  0  0  0  0
 21 22  2  0  0  0  0
 23 28  2  0  0  0  0
 23 24  1  0  0  0  0
 24 25  2  0  0  0  0
 24 48  1  0  0  0  0
 25 26  1  0  0  0  0
 25 49  1  0  0  0  0
 26 27  2  0  0  0  0
 26 50  1  0  0  0  0
 27 28  1  0  0  0  0
 27 51  1  0  0  0  0
 28 29  1  0  0  0  0
M  END
> <s_m_source_file>
AV-unprocessed.smi

> <i_m_source_file_index>
119

> <i_lp_mmshare_version>
43012

> <i_f3d_flags>
0

> <s_epik_input>
W2NIXTFbY0hdW2NIXVtjSF1jKGMxMilTW0NASF0oW0NIM10pW0NIMl1bQ0gyXU4yQyg9TylbQ0gyXW4zYyg9TyljKEYpW2NIXW4oYzM9TylbQ0BASF00W0NIMl1bQ0gyXVtDSDJdTzQ=

> <s_epik_cmdline>
J2VwaWtfcHl0aG9uJywgJy1waCcsICc3LjAnLCAnLXRuJywgJzgnLCAnLW1hJywgJzIwMCcsICctbWV0YWxfYmluZGluZycsICctaW1hZScsICc8aW5maWxlLm1hZT4nLCAnLW9tYWUnLCAnPG91dGZpbGUubWFlPic=

> <r_lp_tautomer_probability>
1

> <r_epik_Ionization_Penalty>
1.68882e-06

> <r_epik_Ionization_Penalty_Charging>
3.67303e-09

> <r_epik_Ionization_Penalty_Neutral>
1.68515e-06

> <r_epik_State_Penalty>
-0

> <r_epik_Charging_Adjusted_Penalty>
3.67303e-09

> <i_epik_Tot_Q>
0

> <i_epik_Tot_abs_Q>
0

> <r_epik_Metal_State_Penalty>
-0

> <b_epik_Metal_Only>
0

> <s_epik_Chemistry_Notes>
This compound contains an acetal/aminal-like group ( X-CH(R)-Y where X, Y are N, S, or O) that may be acid/base labile, releasing an aldehyde.

> <s_lp_Force_Field>
OPLS_2005

> <r_lp_Energy>
42.8221

> <b_lp_Chiralities_Consistent>
1

> <s_lp_Variant>
AV-unprocessed.smi:119-1

> <Gold.Version>
5.8.1

> <Gold.Id.Protein>
6NUR|6NUR_protein|mol2

> <Gold.PLP.Fitness>
50.9767

> <Gold.PLP.PLP>
-43.2982

> <Gold.PLP.part.hbond>
-3.0000

> <Gold.PLP.part.metal>
0.0000

> <Gold.PLP.part.buried>
-6.9427

> <Gold.PLP.part.nonpolar>
-34.1391

> <Gold.PLP.part.repulsive>
0.0937

> <Gold.PLP.ligand.clash>
0.0000

> <Gold.PLP.ligand.torsion>
0.4392

> <Gold.PLP.Chemscore.Hbond>
2.8400

> <Gold.PLP.Chemscore.CHOScore>
0.0000

> <Gold.PLP.Chemscore.Metal>
0.0000

> <Gold.Chemscore.Hbonds>
donor molecule, donor type, donor heavy atom, donor atom, acceptor molecule, acceptor atom, score
      P1  H  6896  6909       L1    22  1.00
      P1  H  6931  6943       L1    20  0.90
      P1  H  6934  6947       L1    20  0.90

> <Gold.PLP.Chemscore.Internal.Correction>
0.0370

> <Gold.Rescore>
     Score         DG    S(hbond)    S(metal)    S(lipo)     H(rot)  DE(clash)    DE(int)     intcor
     15.25     -19.74       2.10        0.00      95.32       1.53       0.00       4.49       ----

> <Gold.Chemscore.Fitness>
15.2540

> <Gold.Chemscore.DG>
-19.7432

> <Gold.Chemscore.ZeroCoef>
-5.4800

> <Gold.Chemscore.Hbond>
2.1014

> <Gold.Chemscore.Metal>
0.0000

> <Gold.Chemscore.Lipo>
95.3221

> <Gold.Chemscore.Internal_Hbond>
0.0000

> <Gold.Chemscore.DEClash>
0.0021

> <Gold.Chemscore.DEInternal>
4.4871

> <Gold.Chemscore.Rot>
1.5266

> <Gold.Chemscore.Internal.Correction>
   9.000000E+99

> <Gold.Chemscore.Hbonds>
donor molecule, donor type, donor heavy atom, donor atom, acceptor molecule, acceptor atom, score
      P1  H  6896  6909       L1    22  0.96
      P1  H  6931  6943       L1    20  0.09
      P1  H  6934  6947       L1    20  0.83

> <Gold.Chemscore.Hbond.Weighted>
-7.0186

> <Gold.Chemscore.Metal.Weighted>
-0.0000

> <Gold.Chemscore.Lipo.Weighted>
-11.1527

> <Gold.Chemscore.Internal_Hbond.Weighted>
0.0000

> <Gold.Chemscore.DEClash.Weighted>
0.0021

> <Gold.Chemscore.DEInternal.Weighted>
4.4871

> <Gold.Chemscore.Rot.Weighted>
3.9081

> <Gold.Chemscore.Internal.Correction.Weighted>
   9.000000E+99

> <Gold.Protein.RotatedTorsions>
[ 6907 6896 6895 6894 ] final   11.19 input  -60.11 | X-H torsion
[ 7974 7965 7964 7962 ] final  164.89 input  175.53 | X-H torsion
[ 8008 7997 7996 7995 ] final  -87.34 input   59.86 | X-H torsion
[ 10167 10162 10161 10158 ] final -126.96 input  -65.29 | X-H torsion
[ 10718 10713 10712 10709 ] final   28.31 input   66.30 | X-H torsion
[ 10763 10752 10751 10750 ] final   53.55 input  -60.55 | X-H torsion
[ 11005 11000 10999 10996 ] final  170.78 input  -57.11 | X-H torsion

> <Gold.Protein.ActiveResidues>
 VAL166  LYS551  ARG553  GLY616  TRP617  ASP618  TYR619  PRO620  LYS621  CYS622 
 ASP623  PHE694  ASN695  SER759  ASP760  ASP761  ALA762  ILE779  LEU786  VAL792 
 PHE793  MET794  SER795  GLU796  ALA797  LYS798  CYS799  TRP800  GLU811  SER814 

> <Gold.Protein.RotatedAtoms>
  151.7503  135.0834  160.0329 H   0  0  0  0  0  0  0  0  0  0  0  0  # atno 6907 bound_to 6896
  152.3421  133.6074  159.5892 H   0  0  0  0  0  0  0  0  0  0  0  0  # atno 6908 bound_to 6896
  150.7486  133.9622  159.3561 H   0  0  0  0  0  0  0  0  0  0  0  0  # atno 6909 bound_to 6896
  144.7526  139.8391  143.6361 H   0  0  0  0  0  0  0  0  0  0  0  0  # atno 7974 bound_to 7965
  154.6621  140.0567  157.0073 H   0  0  0  0  0  0  0  0  0  0  0  0  # atno 8008 bound_to 7997
  155.1213  140.3248  155.4478 H   0  0  0  0  0  0  0  0  0  0  0  0  # atno 8009 bound_to 7997
  156.2622  140.1997  156.6335 H   0  0  0  0  0  0  0  0  0  0  0  0  # atno 8010 bound_to 7997
  139.9659  143.5898  152.2429 H   0  0  0  0  0  0  0  0  0  0  0  0  # atno 10167 bound_to 10162
  157.2318  130.7027  149.6317 H   0  0  0  0  0  0  0  0  0  0  0  0  # atno 10718 bound_to 10713
  152.9796  135.5775  154.4760 H   0  0  0  0  0  0  0  0  0  0  0  0  # atno 10763 bound_to 10752
  154.4315  135.2773  155.1911 H   0  0  0  0  0  0  0  0  0  0  0  0  # atno 10764 bound_to 10752
  154.3617  135.6187  153.5748 H   0  0  0  0  0  0  0  0  0  0  0  0  # atno 10765 bound_to 10752
  140.3120  134.7509  157.3999 H   0  0  0  0  0  0  0  0  0  0  0  0  # atno 11005 bound_to 11000
  146.1495  139.4575  143.0057 LP  0  0  0  0  0  0  0  0  0  0  0  0  # atno 17320 bound_to 7965
  145.6891  141.0169  143.1565 LP  0  0  0  0  0  0  0  0  0  0  0  0  # atno 17321 bound_to 7965
  139.6518  144.7661  151.2133 LP  0  0  0  0  0  0  0  0  0  0  0  0  # atno 17342 bound_to 10162
  140.7538  143.6149  150.8570 LP  0  0  0  0  0  0  0  0  0  0  0  0  # atno 17343 bound_to 10162
  155.9675  130.4486  150.5627 LP  0  0  0  0  0  0  0  0  0  0  0  0  # atno 17370 bound_to 10713
  157.3470  131.0727  151.1743 LP  0  0  0  0  0  0  0  0  0  0  0  0  # atno 17371 bound_to 10713
  140.1016  134.5465  155.8347 LP  0  0  0  0  0  0  0  0  0  0  0  0  # atno 17394 bound_to 11000
  141.2106  133.6696  156.6521 LP  0  0  0  0  0  0  0  0  0  0  0  0  # atno 17395 bound_to 11000

$$$$
