AV-unprocessed.smi:1740|AV-procd|sdf|7010|dock6
  -GOLD-   22720 8223D 1   1.00000     0.00000
 Structure written by MMmdl.
 53 55  0  0  0  0  0  0  0  0  3 V2000
  142.3321  132.3680  147.8056 N   0  0  0  0  0  0  0  0  0  0  0  0
  143.4748  132.9590  148.1617 C   0  0  0  0  0  0  0  0  0  0  0  0
  143.9202  133.9378  147.5648 O   0  0  0  0  0  0  0  0  0  0  0  0
  144.2074  132.3710  149.3725 C   0  0  0  0  0  0  0  0  0  0  0  0
  145.0398  133.3688  150.0934 N   0  3  2  0  0  0  0  0  0  0  0  0
  145.8223  132.7781  151.2125 C   0  0  0  0  0  0  0  0  0  0  0  0
  146.7674  133.8170  151.8385 C   0  0  0  0  0  0  0  0  0  0  0  0
  145.9880  135.0544  152.3206 C   0  0  1  0  0  0  0  0  0  0  0  0
  146.8928  136.0789  152.8347 N   0  0  0  0  0  0  0  0  0  0  0  0
  146.5670  137.3647  153.0310 C   0  0  0  0  0  0  0  0  0  0  0  0
  145.4439  137.8220  152.8202 O   0  0  0  0  0  0  0  0  0  0  0  0
  147.6108  138.0697  153.4993 N   0  0  0  0  0  0  0  0  0  0  0  0
  147.6438  139.4502  153.8471 C   0  0  0  0  0  0  0  0  0  0  0  0
  146.5738  140.3159  153.5022 C   0  0  0  0  0  0  0  0  0  0  0  0
  146.6596  141.6906  153.7911 C   0  0  0  0  0  0  0  0  0  0  0  0
  147.8221  142.1844  154.4066 C   0  0  0  0  0  0  0  0  0  0  0  0
  148.8280  141.3387  154.7108 N   0  3  0  0  0  0  0  0  0  0  0  0
  148.7998  140.0035  154.4718 C   0  0  0  0  0  0  0  0  0  0  0  0
  149.9269  139.2415  154.8565 N   0  0  0  0  0  0  0  0  0  0  0  0
  150.5820  138.3559  153.9002 C   0  0  0  0  0  0  0  0  0  0  0  0
  151.9269  138.0108  154.5343 C   0  0  0  0  0  0  0  0  0  0  0  0
  152.2871  139.3030  155.2605 C   0  0  0  0  0  0  0  0  0  0  0  0
  150.9321  139.8464  155.7250 C   0  0  0  0  0  0  0  0  0  0  0  0
  145.1598  135.6230  151.1574 C   0  0  0  0  0  0  0  0  0  0  0  0
  144.2514  134.5451  150.5416 C   0  0  0  0  0  0  0  0  0  0  0  0
  141.8097  132.7229  147.0170 H   0  0  0  0  0  0  0  0  0  0  0  0
  141.9869  131.5730  148.3243 H   0  0  0  0  0  0  0  0  0  0  0  0
  143.4381  131.9832  150.0419 H   0  0  0  0  0  0  0  0  0  0  0  0
  144.8198  131.5189  149.0722 H   0  0  0  0  0  0  0  0  0  0  0  0
  145.1395  132.3905  151.9703 H   0  0  0  0  0  0  0  0  0  0  0  0
  146.4092  131.9310  150.8566 H   0  0  0  0  0  0  0  0  0  0  0  0
  147.3081  133.3627  152.6696 H   0  0  0  0  0  0  0  0  0  0  0  0
  147.5195  134.1122  151.1052 H   0  0  0  0  0  0  0  0  0  0  0  0
  145.3007  134.7559  153.1151 H   0  0  0  0  0  0  0  0  0  0  0  0
  147.8386  135.7901  153.0388 H   0  0  0  0  0  0  0  0  0  0  0  0
  148.4438  137.5438  153.7201 H   0  0  0  0  0  0  0  0  0  0  0  0
  145.6932  139.9494  152.9965 H   0  0  0  0  0  0  0  0  0  0  0  0
  145.8502  142.3574  153.5317 H   0  0  0  0  0  0  0  0  0  0  0  0
  147.9803  143.2230  154.6588 H   0  0  0  0  0  0  0  0  0  0  0  0
  149.9846  137.4643  153.7082 H   0  0  0  0  0  0  0  0  0  0  0  0
  150.7475  138.8713  152.9534 H   0  0  0  0  0  0  0  0  0  0  0  0
  151.8045  137.2007  155.2546 H   0  0  0  0  0  0  0  0  0  0  0  0
  152.6764  137.7061  153.8036 H   0  0  0  0  0  0  0  0  0  0  0  0
  152.9871  139.1501  156.0822 H   0  0  0  0  0  0  0  0  0  0  0  0
  152.7415  140.0024  154.5574 H   0  0  0  0  0  0  0  0  0  0  0  0
  150.9087  140.9364  155.6885 H   0  0  0  0  0  0  0  0  0  0  0  0
  150.7392  139.5355  156.7518 H   0  0  0  0  0  0  0  0  0  0  0  0
  144.5528  136.4602  151.5041 H   0  0  0  0  0  0  0  0  0  0  0  0
  145.8231  136.0198  150.3871 H   0  0  0  0  0  0  0  0  0  0  0  0
  143.7144  134.9737  149.6946 H   0  0  0  0  0  0  0  0  0  0  0  0
  143.4999  134.2259  151.2656 H   0  0  0  0  0  0  0  0  0  0  0  0
  145.7068  133.7139  149.4174 H   0  0  0  0  0  0  0  0  0  0  0  0
  149.6593  141.7281  155.1555 H   0  0  0  0  0  0  0  0  0  0  0  0
  1  2  1  0  0  0  0
  1 26  1  0  0  0  0
  1 27  1  0  0  0  0
  2  3  2  0  0  0  0
  2  4  1  0  0  0  0
  4  5  1  0  0  0  0
  4 28  1  0  0  0  0
  4 29  1  0  0  0  0
  5 25  1  0  0  0  0
  5  6  1  0  0  0  0
  5 52  1  0  0  0  0
  6  7  1  0  0  0  0
  6 30  1  0  0  0  0
  6 31  1  0  0  0  0
  7  8  1  0  0  0  0
  7 32  1  0  0  0  0
  7 33  1  0  0  0  0
  8  9  1  0  0  0  0
  8 24  1  0  0  0  0
  8 34  1  0  0  0  0
  9 10  1  0  0  0  0
  9 35  1  0  0  0  0
 10 11  2  0  0  0  0
 10 12  1  0  0  0  0
 12 13  1  0  0  0  0
 12 36  1  0  0  0  0
 13 18  1  0  0  0  0
 13 14  2  0  0  0  0
 14 15  1  0  0  0  0
 14 37  1  0  0  0  0
 15 16  2  0  0  0  0
 15 38  1  0  0  0  0
 16 17  1  0  0  0  0
 16 39  1  0  0  0  0
 17 18  2  0  0  0  0
 17 53  1  0  0  0  0
 18 19  1  0  0  0  0
 19 23  1  0  0  0  0
 19 20  1  0  0  0  0
 20 21  1  0  0  0  0
 20 40  1  0  0  0  0
 20 41  1  0  0  0  0
 21 22  1  0  0  0  0
 21 42  1  0  0  0  0
 21 43  1  0  0  0  0
 22 23  1  0  0  0  0
 22 44  1  0  0  0  0
 22 45  1  0  0  0  0
 23 46  1  0  0  0  0
 23 47  1  0  0  0  0
 24 25  1  0  0  0  0
 24 48  1  0  0  0  0
 24 49  1  0  0  0  0
 25 50  1  0  0  0  0
 25 51  1  0  0  0  0
M  CHG  1   5   1
M  CHG  1  17   1
M  END
> <s_m_source_file>
AV-unprocessed.smi

> <i_m_source_file_index>
1740

> <i_lp_mmshare_version>
43012

> <i_f3d_flags>
0

> <s_epik_input>
W05IMl1DKD1PKVtDSDJdTjFbQ0gyXVtDSDJdW0NIXShbQ0gyXVtDSDJdMSlbTkhdQyg9TylbTkhdYzJbY0hdW2NIXVtjSF1uYzJOM1tDSDJdW0NIMl1bQ0gyXVtDSDJdMw==

> <s_epik_cmdline>
J2VwaWtfcHl0aG9uJywgJy1waCcsICc3LjAnLCAnLXRuJywgJzgnLCAnLW1hJywgJzIwMCcsICctbWV0YWxfYmluZGluZycsICctaW1hZScsICc8aW5maWxlLm1hZT4nLCAnLW9tYWUnLCAnPG91dGZpbGUubWFlPic=

> <r_lp_tautomer_probability>
0.999994

> <r_epik_Ionization_Penalty>
2.11361

> <r_epik_Ionization_Penalty_Charging>
2.11355

> <r_epik_Ionization_Penalty_Neutral>
5.98217e-05

> <r_epik_State_Penalty>
2.13444

> <r_epik_Charging_Adjusted_Penalty>
4.24799

> <i_epik_Tot_Q>
2

> <i_epik_Tot_abs_Q>
2

> <r_epik_Metal_State_Penalty>
2.23528

> <b_epik_Metal_Only>
0

> <s_lp_Force_Field>
OPLS_2005

> <r_lp_Energy>
49.3709

> <b_lp_Chiralities_Consistent>
1

> <s_lp_Variant>
AV-unprocessed.smi:1740-5

> <Gold.Version>
5.8.1

> <Gold.Id.Protein>
6NUR|6NUR_protein|mol2

> <Gold.PLP.Fitness>
52.9598

> <Gold.PLP.PLP>
-40.6982

> <Gold.PLP.part.hbond>
-6.2131

> <Gold.PLP.part.metal>
0.0000

> <Gold.PLP.part.buried>
0.3055

> <Gold.PLP.part.nonpolar>
-41.7579

> <Gold.PLP.part.repulsive>
6.6405

> <Gold.PLP.ligand.clash>
0.0000

> <Gold.PLP.ligand.torsion>
0.8188

> <Gold.PLP.Chemscore.Hbond>
4.4888

> <Gold.PLP.Chemscore.CHOScore>
0.0000

> <Gold.PLP.Chemscore.Metal>
0.0000

> <Gold.Chemscore.Hbonds>
donor molecule, donor type, donor heavy atom, donor atom, acceptor molecule, acceptor atom, score
      L1  H     1    26       P1 10195  1.00
      L1  H     1    27       P1 10952  0.88
      L1  H     5    52       P1  7921  0.75
      L1  H     9    35       P1  7948  0.29
      L1  H    12    36       P1  7948  0.04
      P1  H  7918  7932       L1     3  0.89
      P1  H 10192 10197       L1     3  0.34

> <Gold.PLP.Chemscore.Internal.Correction>
0.4328

> <Gold.Rescore>
     Score         DG    S(hbond)    S(metal)    S(lipo)     H(rot)  DE(clash)    DE(int)     intcor
     14.90     -22.30       3.26        0.00      99.39       2.22       3.83       3.57       ----

> <Gold.Chemscore.Fitness>
14.9017

> <Gold.Chemscore.DG>
-22.3030

> <Gold.Chemscore.ZeroCoef>
-5.4800

> <Gold.Chemscore.Hbond>
3.2574

> <Gold.Chemscore.Metal>
0.0000

> <Gold.Chemscore.Lipo>
99.3859

> <Gold.Chemscore.Internal_Hbond>
0.0000

> <Gold.Chemscore.DEClash>
3.8343

> <Gold.Chemscore.DEInternal>
3.5670

> <Gold.Chemscore.Rot>
2.2207

> <Gold.Chemscore.Internal.Correction>
   9.000000E+99

> <Gold.Chemscore.Hbonds>
donor molecule, donor type, donor heavy atom, donor atom, acceptor molecule, acceptor atom, score
      L1  H     1    26       P1 10195  0.85
      L1  H     1    27       P1 10952  0.85
      L1  H     5    52       P1  7921  0.21
      L1  H     9    35       P1  7948  0.28
      L1  H    12    36       P1  7948  0.05
      P1  H  7918  7932       L1     3  0.53
      P1  H 10192 10197       L1     3  0.13

> <Gold.Chemscore.Hbond.Weighted>
-10.8798

> <Gold.Chemscore.Metal.Weighted>
-0.0000

> <Gold.Chemscore.Lipo.Weighted>
-11.6281

> <Gold.Chemscore.Internal_Hbond.Weighted>
0.0000

> <Gold.Chemscore.DEClash.Weighted>
3.8343

> <Gold.Chemscore.DEInternal.Weighted>
3.5670

> <Gold.Chemscore.Rot.Weighted>
5.6849

> <Gold.Chemscore.Internal.Correction.Weighted>
   9.000000E+99

> <Gold.Protein.RotatedTorsions>
[ 6907 6896 6895 6894 ] final  131.82 input  -60.11 | X-H torsion
[ 7974 7965 7964 7962 ] final  141.65 input  175.53 | X-H torsion
[ 8008 7997 7996 7995 ] final   -8.48 input   59.86 | X-H torsion
[ 10167 10162 10161 10158 ] final   15.70 input  -65.29 | X-H torsion
[ 10718 10713 10712 10709 ] final  120.36 input   66.30 | X-H torsion
[ 10763 10752 10751 10750 ] final  140.11 input  -60.55 | X-H torsion
[ 11005 11000 10999 10996 ] final   -9.54 input  -57.11 | X-H torsion

> <Gold.Protein.ActiveResidues>
 VAL166  LYS551  ARG553  GLY616  TRP617  ASP618  TYR619  PRO620  LYS621  CYS622 
 ASP623  PHE694  ASN695  SER759  ASP760  ASP761  ALA762  ILE779  LEU786  VAL792 
 PHE793  MET794  SER795  GLU796  ALA797  LYS798  CYS799  TRP800  GLU811  SER814 

> <Gold.Protein.RotatedAtoms>
  152.3387  133.6042  159.5860 H   0  0  0  0  0  0  0  0  0  0  0  0  # atno 6907 bound_to 6896
  150.7465  133.9756  159.3568 H   0  0  0  0  0  0  0  0  0  0  0  0  # atno 6908 bound_to 6896
  151.7622  135.0808  160.0398 H   0  0  0  0  0  0  0  0  0  0  0  0  # atno 6909 bound_to 6896
  144.9077  139.5335  143.5723 H   0  0  0  0  0  0  0  0  0  0  0  0  # atno 7974 bound_to 7965
  154.5738  140.2380  155.8153 H   0  0  0  0  0  0  0  0  0  0  0  0  # atno 8008 bound_to 7997
  156.2127  140.3021  155.9726 H   0  0  0  0  0  0  0  0  0  0  0  0  # atno 8009 bound_to 7997
  155.2665  140.0416  157.2993 H   0  0  0  0  0  0  0  0  0  0  0  0  # atno 8010 bound_to 7997
  140.5849  143.8909  150.6821 H   0  0  0  0  0  0  0  0  0  0  0  0  # atno 10167 bound_to 10162
  157.5896  131.1066  150.8025 H   0  0  0  0  0  0  0  0  0  0  0  0  # atno 10718 bound_to 10713
  153.9172  135.3004  155.3448 H   0  0  0  0  0  0  0  0  0  0  0  0  # atno 10763 bound_to 10752
  154.7593  135.4942  153.9438 H   0  0  0  0  0  0  0  0  0  0  0  0  # atno 10764 bound_to 10752
  153.1161  135.6771  153.9518 H   0  0  0  0  0  0  0  0  0  0  0  0  # atno 10765 bound_to 10752
  140.7352  133.8716  155.8924 H   0  0  0  0  0  0  0  0  0  0  0  0  # atno 11005 bound_to 11000
  146.3142  139.7859  142.8996 LP  0  0  0  0  0  0  0  0  0  0  0  0  # atno 17320 bound_to 7965
  145.3507  141.0307  143.3340 LP  0  0  0  0  0  0  0  0  0  0  0  0  # atno 17321 bound_to 7965
  140.2418  143.3658  152.1480 LP  0  0  0  0  0  0  0  0  0  0  0  0  # atno 17342 bound_to 10162
  139.5191  144.7015  151.5478 LP  0  0  0  0  0  0  0  0  0  0  0  0  # atno 17343 bound_to 10162
  156.8450  130.5061  149.5317 LP  0  0  0  0  0  0  0  0  0  0  0  0  # atno 17370 bound_to 10713
  156.0949  130.5924  150.9796 LP  0  0  0  0  0  0  0  0  0  0  0  0  # atno 17371 bound_to 10713
  140.9885  134.1310  157.4429 LP  0  0  0  0  0  0  0  0  0  0  0  0  # atno 17394 bound_to 11000
  139.8817  135.0033  156.6179 LP  0  0  0  0  0  0  0  0  0  0  0  0  # atno 17395 bound_to 11000

$$$$
