AV-unprocessed.smi:162|AV-procd|sdf|1377|dock3
  -GOLD-   2262019103D 1   1.00000     0.00000
 Structure written by MMmdl.
 54 57  0  0  0  0  0  0  0  0  1 V2000
  152.4676  143.4951  161.7583 C   0  0  0  0  0  0  0  0  0  0  0  0
  151.8937  142.3004  161.2583 O   0  0  0  0  0  0  0  0  0  0  0  0
  152.0268  142.1828  159.8518 C   0  0  0  0  0  0  0  0  0  0  0  0
  153.1947  141.2348  159.5358 C   0  0  1  0  0  0  0  0  0  0  0  0
  154.0759  140.9062  160.7392 C   0  0  0  0  0  0  0  0  0  0  0  0
  154.7996  139.6477  160.2610 C   0  0  1  0  0  0  0  0  0  0  0  0
  155.2552  138.8194  161.3206 O   0  0  0  0  0  0  0  0  0  0  0  0
  154.2053  138.2178  162.0601 C   0  0  0  0  0  0  0  0  0  0  0  0
  153.7299  138.9275  159.4311 C   0  0  0  0  0  0  0  0  0  0  0  0
  152.7468  139.9359  159.0430 N   0  0  0  0  0  0  0  0  0  0  0  0
  152.3875  139.9198  157.7411 C   0  0  0  0  0  0  0  0  0  0  0  0
  153.1225  139.1440  156.9077 N   0  0  0  0  0  0  0  0  0  0  0  0
  152.8056  139.0714  155.6112 C   0  0  0  0  0  0  0  0  0  0  0  0
  151.8111  139.6778  154.9588 N   0  0  0  0  0  0  0  0  0  0  0  0
  151.0697  140.4573  155.7976 C   0  0  0  0  0  0  0  0  0  0  0  0
  151.2875  140.6374  157.1918 C   0  0  0  0  0  0  0  0  0  0  0  0
  150.3324  141.5013  157.7146 N   0  0  0  0  0  0  0  0  0  0  0  0
  149.5900  141.8118  156.6869 C   0  0  0  0  0  0  0  0  0  0  0  0
  149.9560  141.2219  155.4979 N   0  0  0  0  0  0  0  0  0  0  0  0
  149.3022  141.3803  154.2080 C   0  0  0  0  0  0  0  0  0  0  0  0
  147.8301  140.8993  154.1906 C   0  0  0  0  0  0  0  0  0  0  0  0
  147.4531  140.7215  152.8359 O   0  0  0  0  0  0  0  0  0  0  0  0
  147.6969  139.5445  154.9146 C   0  0  0  0  0  0  0  0  0  0  0  0
  146.2285  139.1095  155.0671 C   0  0  0  0  0  0  0  0  0  0  0  0
  145.4862  140.1254  155.7306 O   0  0  0  0  0  0  0  0  0  0  0  0
  145.4432  141.3435  154.9973 C   0  0  0  0  0  0  0  0  0  0  0  0
  146.8629  141.9156  154.8371 C   0  0  0  0  0  0  0  0  0  0  0  0
  153.8205  141.7036  158.7746 H   0  0  0  0  0  0  0  0  0  0  0  0
  155.6255  139.9233  159.6021 H   0  0  0  0  0  0  0  0  0  0  0  0
  152.3399  143.5384  162.8399 H   0  0  0  0  0  0  0  0  0  0  0  0
  151.9869  144.3740  161.3270 H   0  0  0  0  0  0  0  0  0  0  0  0
  153.5361  143.5393  161.5433 H   0  0  0  0  0  0  0  0  0  0  0  0
  151.1017  141.8070  159.4111 H   0  0  0  0  0  0  0  0  0  0  0  0
  152.2162  143.1688  159.4243 H   0  0  0  0  0  0  0  0  0  0  0  0
  154.7548  141.7183  161.0005 H   0  0  0  0  0  0  0  0  0  0  0  0
  153.4607  140.6789  161.6113 H   0  0  0  0  0  0  0  0  0  0  0  0
  154.6264  137.6256  162.8724 H   0  0  0  0  0  0  0  0  0  0  0  0
  153.6068  137.5514  161.4381 H   0  0  0  0  0  0  0  0  0  0  0  0
  153.5495  138.9705  162.4994 H   0  0  0  0  0  0  0  0  0  0  0  0
  154.1699  138.3942  158.5872 H   0  0  0  0  0  0  0  0  0  0  0  0
  153.2128  138.1891  160.0445 H   0  0  0  0  0  0  0  0  0  0  0  0
  153.4378  138.4337  155.0112 H   0  0  0  0  0  0  0  0  0  0  0  0
  148.7430  142.4775  156.7694 H   0  0  0  0  0  0  0  0  0  0  0  0
  149.3632  142.4308  153.9199 H   0  0  0  0  0  0  0  0  0  0  0  0
  149.8825  140.8298  153.4664 H   0  0  0  0  0  0  0  0  0  0  0  0
  148.1131  140.1979  152.4076 H   0  0  0  0  0  0  0  0  0  0  0  0
  148.2638  138.7726  154.3923 H   0  0  0  0  0  0  0  0  0  0  0  0
  148.1360  139.6234  155.9101 H   0  0  0  0  0  0  0  0  0  0  0  0
  145.7797  138.8886  154.0975 H   0  0  0  0  0  0  0  0  0  0  0  0
  146.1717  138.1938  155.6558 H   0  0  0  0  0  0  0  0  0  0  0  0
  144.9729  141.1805  154.0264 H   0  0  0  0  0  0  0  0  0  0  0  0
  144.8153  142.0539  155.5352 H   0  0  0  0  0  0  0  0  0  0  0  0
  147.2384  142.1903  155.8237 H   0  0  0  0  0  0  0  0  0  0  0  0
  146.8213  142.8386  154.2572 H   0  0  0  0  0  0  0  0  0  0  0  0
  1  2  1  0  0  0  0
  1 30  1  0  0  0  0
  1 31  1  0  0  0  0
  1 32  1  0  0  0  0
  2  3  1  0  0  0  0
  3  4  1  0  0  0  0
  3 33  1  0  0  0  0
  3 34  1  0  0  0  0
  4 28  1  0  0  0  0
  4 10  1  0  0  0  0
  4  5  1  0  0  0  0
  5  6  1  0  0  0  0
  5 35  1  0  0  0  0
  5 36  1  0  0  0  0
  6 29  1  0  0  0  0
  6  7  1  0  0  0  0
  6  9  1  0  0  0  0
  7  8  1  0  0  0  0
  8 37  1  0  0  0  0
  8 38  1  0  0  0  0
  8 39  1  0  0  0  0
  9 10  1  0  0  0  0
  9 40  1  0  0  0  0
  9 41  1  0  0  0  0
 10 11  1  0  0  0  0
 11 16  1  0  0  0  0
 11 12  2  0  0  0  0
 12 13  1  0  0  0  0
 13 14  2  0  0  0  0
 13 42  1  0  0  0  0
 14 15  1  0  0  0  0
 15 19  1  0  0  0  0
 15 16  2  0  0  0  0
 16 17  1  0  0  0  0
 17 18  2  0  0  0  0
 18 19  1  0  0  0  0
 18 43  1  0  0  0  0
 19 20  1  0  0  0  0
 20 21  1  0  0  0  0
 20 44  1  0  0  0  0
 20 45  1  0  0  0  0
 21 27  1  0  0  0  0
 21 22  1  0  0  0  0
 21 23  1  0  0  0  0
 22 46  1  0  0  0  0
 23 24  1  0  0  0  0
 23 47  1  0  0  0  0
 23 48  1  0  0  0  0
 24 25  1  0  0  0  0
 24 49  1  0  0  0  0
 24 50  1  0  0  0  0
 25 26  1  0  0  0  0
 26 27  1  0  0  0  0
 26 51  1  0  0  0  0
 26 52  1  0  0  0  0
 27 53  1  0  0  0  0
 27 54  1  0  0  0  0
M  END
> <s_m_source_file>
AV-unprocessed.smi

> <i_m_source_file_index>
162

> <i_lp_mmshare_version>
43012

> <i_f3d_flags>
0

> <s_epik_input>
W0NIM11PW0NIMl1bQ0BASF0xW0NIMl1bQ0BASF0oT1tDSDNdKVtDSDJdTjFjKG5bY0hdbjIpYyhjMjMpbltjSF1uM1tDSDJdQzQoW09IXSlbQ0gyXVtDSDJdT1tDSDJdW0NIMl00

> <s_epik_cmdline>
J2VwaWtfcHl0aG9uJywgJy1waCcsICc3LjAnLCAnLXRuJywgJzgnLCAnLW1hJywgJzIwMCcsICctbWV0YWxfYmluZGluZycsICctaW1hZScsICc8aW5maWxlLm1hZT4nLCAnLW9tYWUnLCAnPG91dGZpbGUubWFlPic=

> <r_lp_tautomer_probability>
1

> <r_epik_Ionization_Penalty>
0.00660334

> <r_epik_Ionization_Penalty_Charging>
0

> <r_epik_Ionization_Penalty_Neutral>
0.00660334

> <r_epik_State_Penalty>
0.00469459

> <r_epik_Charging_Adjusted_Penalty>
0.00469459

> <i_epik_Tot_Q>
0

> <i_epik_Tot_abs_Q>
0

> <r_epik_Metal_State_Penalty>
-0

> <b_epik_Metal_Only>
0

> <s_lp_Force_Field>
OPLS_2005

> <r_lp_Energy>
41.7702

> <b_lp_Chiralities_Consistent>
1

> <s_lp_Variant>
AV-unprocessed.smi:162-2

> <Gold.Version>
5.8.1

> <Gold.Id.Protein>
6NUR|6NUR_protein|mol2

> <Gold.PLP.Fitness>
50.8680

> <Gold.PLP.PLP>
-41.5858

> <Gold.PLP.part.hbond>
-4.0000

> <Gold.PLP.part.metal>
0.0000

> <Gold.PLP.part.buried>
-0.1872

> <Gold.PLP.part.nonpolar>
-37.2957

> <Gold.PLP.part.repulsive>
0.2228

> <Gold.PLP.ligand.clash>
0.0000

> <Gold.PLP.ligand.torsion>
1.3523

> <Gold.PLP.Chemscore.Hbond>
3.1800

> <Gold.PLP.Chemscore.CHOScore>
0.7613

> <Gold.PLP.Chemscore.Metal>
0.0000

> <Gold.Chemscore.Hbonds>
donor molecule, donor type, donor heavy atom, donor atom, acceptor molecule, acceptor atom, score
      L1  H    22    46       P1  7957  0.99
      P1  H  6933  6945       L1     2  0.36
      P1  H  7989  7998       L1    14  0.70
      P1  H  7997  8010       L1    12  0.95
      L1  C    18    43       P1  8028  0.78

> <Gold.PLP.Chemscore.Internal.Correction>
0.1630

> <Gold.Rescore>
     Score         DG    S(hbond)    S(metal)    S(lipo)     H(rot)  DE(clash)    DE(int)     intcor
     12.85     -17.11       2.54        0.00      89.41       2.86       0.99       3.27       ----

> <Gold.Chemscore.Fitness>
12.8463

> <Gold.Chemscore.DG>
-17.1063

> <Gold.Chemscore.ZeroCoef>
-5.4800

> <Gold.Chemscore.Hbond>
2.5443

> <Gold.Chemscore.Metal>
0.0000

> <Gold.Chemscore.Lipo>
89.4088

> <Gold.Chemscore.Internal_Hbond>
0.0000

> <Gold.Chemscore.DEClash>
0.9875

> <Gold.Chemscore.DEInternal>
3.2725

> <Gold.Chemscore.Rot>
2.8642

> <Gold.Chemscore.Internal.Correction>
   9.000000E+99

> <Gold.Chemscore.Hbonds>
donor molecule, donor type, donor heavy atom, donor atom, acceptor molecule, acceptor atom, score
      L1  H    22    46       P1  7957  0.94
      P1  H  6933  6945       L1     2  0.31
      P1  H  7989  7998       L1    14  0.07
      P1  H  7997  8010       L1    12  0.07

> <Gold.Chemscore.Hbond.Weighted>
-8.4979

> <Gold.Chemscore.Metal.Weighted>
-0.0000

> <Gold.Chemscore.Lipo.Weighted>
-10.4608

> <Gold.Chemscore.Internal_Hbond.Weighted>
0.0000

> <Gold.Chemscore.DEClash.Weighted>
0.9875

> <Gold.Chemscore.DEInternal.Weighted>
3.2725

> <Gold.Chemscore.Rot.Weighted>
7.3324

> <Gold.Chemscore.Internal.Correction.Weighted>
   9.000000E+99

> <Gold.Protein.RotatedTorsions>
[ 6907 6896 6895 6894 ] final  -26.63 input  -60.11 | X-H torsion
[ 7974 7965 7964 7962 ] final  -85.44 input  175.53 | X-H torsion
[ 8008 7997 7996 7995 ] final   43.10 input   59.86 | X-H torsion
[ 10167 10162 10161 10158 ] final  -81.56 input  -65.29 | X-H torsion
[ 10718 10713 10712 10709 ] final  123.64 input   66.30 | X-H torsion
[ 10763 10752 10751 10750 ] final  -22.46 input  -60.55 | X-H torsion
[ 11005 11000 10999 10996 ] final  145.74 input  -57.11 | X-H torsion

> <Gold.Protein.ActiveResidues>
 VAL166  LYS551  ARG553  GLY616  TRP617  ASP618  TYR619  PRO620  LYS621  CYS622 
 ASP623  PHE694  ASN695  SER759  ASP760  ASP761  ALA762  ILE779  LEU786  VAL792 
 PHE793  MET794  SER795  GLU796  ALA797  LYS798  CYS799  TRP800  GLU811  SER814 

> <Gold.Protein.RotatedAtoms>
  151.1582  135.0260  159.8698 H   0  0  0  0  0  0  0  0  0  0  0  0  # atno 6907 bound_to 6896
  152.5452  134.1310  159.8449 H   0  0  0  0  0  0  0  0  0  0  0  0  # atno 6908 bound_to 6896
  151.1402  133.4930  159.2629 H   0  0  0  0  0  0  0  0  0  0  0  0  # atno 6909 bound_to 6896
  145.4933  140.9551  143.1800 H   0  0  0  0  0  0  0  0  0  0  0  0  # atno 7974 bound_to 7965
  155.2971  140.3382  155.4249 H   0  0  0  0  0  0  0  0  0  0  0  0  # atno 8008 bound_to 7997
  156.2018  140.1736  156.7922 H   0  0  0  0  0  0  0  0  0  0  0  0  # atno 8009 bound_to 7997
  154.5569  140.0694  156.8742 H   0  0  0  0  0  0  0  0  0  0  0  0  # atno 8010 bound_to 7997
  140.4400  143.2518  151.8638 H   0  0  0  0  0  0  0  0  0  0  0  0  # atno 10167 bound_to 10162
  157.5648  131.1087  150.8473 H   0  0  0  0  0  0  0  0  0  0  0  0  # atno 10718 bound_to 10713
  153.6524  135.6980  153.5204 H   0  0  0  0  0  0  0  0  0  0  0  0  # atno 10763 bound_to 10752
  153.2696  135.4219  155.0974 H   0  0  0  0  0  0  0  0  0  0  0  0  # atno 10764 bound_to 10752
  154.8473  135.3575  154.6068 H   0  0  0  0  0  0  0  0  0  0  0  0  # atno 10765 bound_to 10752
  140.0737  134.9137  157.1387 H   0  0  0  0  0  0  0  0  0  0  0  0  # atno 11005 bound_to 11000
  144.7821  139.6503  143.7149 LP  0  0  0  0  0  0  0  0  0  0  0  0  # atno 17320 bound_to 7965
  146.2271  139.5743  142.9580 LP  0  0  0  0  0  0  0  0  0  0  0  0  # atno 17321 bound_to 7965
  139.4789  144.5239  151.8762 LP  0  0  0  0  0  0  0  0  0  0  0  0  # atno 17342 bound_to 10162
  140.4329  144.2091  150.5888 LP  0  0  0  0  0  0  0  0  0  0  0  0  # atno 17343 bound_to 10162
  156.8961  130.5230  149.5284 LP  0  0  0  0  0  0  0  0  0  0  0  0  # atno 17370 bound_to 10713
  156.0698  130.5733  150.9360 LP  0  0  0  0  0  0  0  0  0  0  0  0  # atno 17371 bound_to 10713
  140.3589  134.2515  155.7189 LP  0  0  0  0  0  0  0  0  0  0  0  0  # atno 17394 bound_to 11000
  141.2021  133.7945  157.0406 LP  0  0  0  0  0  0  0  0  0  0  0  0  # atno 17395 bound_to 11000

$$$$
