AV-unprocessed.smi:507|AV-procd|sdf|2753|dock1
  -GOLD-   2262023223D 1   1.00000     0.00000
 Structure written by MMmdl.
 34 35  0  0  0  0  0  0  0  0  2 V2000
  152.9676  142.9596  161.3907 C   0  0  0  0  0  0  0  0  0  0  0  0
  152.4063  142.5143  160.0517 C   0  0  0  0  0  0  0  0  0  0  0  0
  152.2700  141.1324  159.7891 C   0  0  0  0  0  0  0  0  0  0  0  0
  151.7530  140.6772  158.5566 C   0  0  0  0  0  0  0  0  0  0  0  0
  151.5337  139.3913  158.0928 N   0  0  0  0  0  0  0  0  0  0  0  0
  151.0437  139.6238  156.8787 C   0  0  0  0  0  0  0  0  0  0  0  0
  150.9228  140.9107  156.4987 N   0  0  0  0  0  0  0  0  0  0  0  0
  150.4273  141.4112  155.2292 C   0  0  0  0  0  0  0  0  0  0  0  0
  149.2221  140.6018  154.7121 C   0  0  1  0  0  0  0  0  0  0  0  0
  148.6399  141.2781  153.6138 O   0  0  0  0  0  0  0  0  0  0  0  0
  149.6223  139.1854  154.2677 C   0  0  0  0  0  0  0  0  0  0  0  0
  148.6861  138.6509  153.2631 N   0  3  0  0  0  0  0  0  0  0  0  0
  151.3764  141.6502  157.5853 C   0  0  0  0  0  0  0  0  0  0  0  0
  151.5051  143.0279  157.8353 C   0  0  0  0  0  0  0  0  0  0  0  0
  152.0212  143.4655  159.0729 C   0  0  0  0  0  0  0  0  0  0  0  0
  152.1551  144.9551  159.3354 C   0  0  0  0  0  0  0  0  0  0  0  0
  153.2078  142.1064  162.0255 H   0  0  0  0  0  0  0  0  0  0  0  0
  152.2437  143.5780  161.9218 H   0  0  0  0  0  0  0  0  0  0  0  0
  153.8807  143.5380  161.2487 H   0  0  0  0  0  0  0  0  0  0  0  0
  152.5623  140.4077  160.5348 H   0  0  0  0  0  0  0  0  0  0  0  0
  150.7614  138.8111  156.2252 H   0  0  0  0  0  0  0  0  0  0  0  0
  150.1643  142.4639  155.3443 H   0  0  0  0  0  0  0  0  0  0  0  0
  151.2456  141.3711  154.5090 H   0  0  0  0  0  0  0  0  0  0  0  0
  148.4756  140.5320  155.5049 H   0  0  0  0  0  0  0  0  0  0  0  0
  148.8063  140.7808  152.8271 H   0  0  0  0  0  0  0  0  0  0  0  0
  150.6354  139.1754  153.8636 H   0  0  0  0  0  0  0  0  0  0  0  0
  149.6135  138.5086  155.1229 H   0  0  0  0  0  0  0  0  0  0  0  0
  148.9280  137.6945  153.0471 H   0  0  0  0  0  0  0  0  0  0  0  0
  148.7422  139.2112  152.4243 H   0  0  0  0  0  0  0  0  0  0  0  0
  151.2083  143.7416  157.0813 H   0  0  0  0  0  0  0  0  0  0  0  0
  151.8165  145.5422  158.4813 H   0  0  0  0  0  0  0  0  0  0  0  0
  153.1952  145.2171  159.5299 H   0  0  0  0  0  0  0  0  0  0  0  0
  151.5566  145.2460  160.1990 H   0  0  0  0  0  0  0  0  0  0  0  0
  147.7446  138.6876  153.6264 H   0  0  0  0  0  0  0  0  0  0  0  0
  1  2  1  0  0  0  0
  1 17  1  0  0  0  0
  1 18  1  0  0  0  0
  1 19  1  0  0  0  0
  2 15  1  0  0  0  0
  2  3  2  0  0  0  0
  3  4  1  0  0  0  0
  3 20  1  0  0  0  0
  4 13  2  0  0  0  0
  4  5  1  0  0  0  0
  5  6  2  0  0  0  0
  6  7  1  0  0  0  0
  6 21  1  0  0  0  0
  7  8  1  0  0  0  0
  7 13  1  0  0  0  0
  8  9  1  0  0  0  0
  8 22  1  0  0  0  0
  8 23  1  0  0  0  0
  9 10  1  0  0  0  0
  9 11  1  0  0  0  0
  9 24  1  0  0  0  0
 10 25  1  0  0  0  0
 11 12  1  0  0  0  0
 11 26  1  0  0  0  0
 11 27  1  0  0  0  0
 12 28  1  0  0  0  0
 12 29  1  0  0  0  0
 12 34  1  0  0  0  0
 13 14  1  0  0  0  0
 14 15  2  0  0  0  0
 14 30  1  0  0  0  0
 15 16  1  0  0  0  0
 16 31  1  0  0  0  0
 16 32  1  0  0  0  0
 16 33  1  0  0  0  0
M  CHG  1  12   1
M  END
> <s_m_source_file>
AV-unprocessed.smi

> <i_m_source_file_index>
507

> <i_lp_mmshare_version>
43012

> <i_f3d_flags>
0

> <s_epik_input>
W0NIM11jKFtjSF0xKWMoW0NIM10pW2NIXWMoYzEyKW4oW2NIXW4yKVtDSDJdW0NASF0oW09IXSlbQ0gyXVtOSDJd

> <s_epik_cmdline>
J2VwaWtfcHl0aG9uJywgJy1waCcsICc3LjAnLCAnLXRuJywgJzgnLCAnLW1hJywgJzIwMCcsICctbWV0YWxfYmluZGluZycsICctaW1hZScsICc8aW5maWxlLm1hZT4nLCAnLW9tYWUnLCAnPG91dGZpbGUubWFlPic=

> <r_epik_Ionization_Penalty>
0.102893

> <r_epik_Ionization_Penalty_Charging>
0.0134096

> <r_epik_Ionization_Penalty_Neutral>
0.0894835

> <r_epik_State_Penalty>
0.093868

> <r_epik_Charging_Adjusted_Penalty>
0.107278

> <i_epik_Tot_Q>
1

> <i_epik_Tot_abs_Q>
1

> <r_epik_Metal_State_Penalty>
0.010477

> <b_epik_Metal_Only>
0

> <s_lp_Force_Field>
OPLS_2005

> <r_lp_Energy>
7.44215

> <b_lp_Chiralities_Consistent>
1

> <s_lp_Variant>
AV-unprocessed.smi:507-2

> <Gold.Version>
5.8.1

> <Gold.Id.Protein>
6NUR|6NUR_protein|mol2

> <Gold.PLP.Fitness>
48.4117

> <Gold.PLP.PLP>
-37.6749

> <Gold.PLP.part.hbond>
-4.0000

> <Gold.PLP.part.metal>
0.0000

> <Gold.PLP.part.buried>
-2.9066

> <Gold.PLP.part.nonpolar>
-30.6190

> <Gold.PLP.part.repulsive>
0.0692

> <Gold.PLP.ligand.clash>
0.0000

> <Gold.PLP.ligand.torsion>
0.6395

> <Gold.PLP.Chemscore.Hbond>
4.0000

> <Gold.PLP.Chemscore.CHOScore>
0.0000

> <Gold.PLP.Chemscore.Metal>
0.0000

> <Gold.Chemscore.Hbonds>
donor molecule, donor type, donor heavy atom, donor atom, acceptor molecule, acceptor atom, score
      L1  H    10    25       P1  7957  1.00
      L1  H    12    28       P1  7948  2.00
      L1  H    12    29       P1  7957  1.00

> <Gold.PLP.Chemscore.Internal.Correction>
0.0158

> <Gold.Rescore>
     Score         DG    S(hbond)    S(metal)    S(lipo)     H(rot)  DE(clash)    DE(int)     intcor
     19.18     -21.42       2.94        0.00     101.92       2.27       1.49       0.75       ----

> <Gold.Chemscore.Fitness>
19.1761

> <Gold.Chemscore.DG>
-21.4162

> <Gold.Chemscore.ZeroCoef>
-5.4800

> <Gold.Chemscore.Hbond>
2.9424

> <Gold.Chemscore.Metal>
0.0000

> <Gold.Chemscore.Lipo>
101.9185

> <Gold.Chemscore.Internal_Hbond>
0.0000

> <Gold.Chemscore.DEClash>
1.4880

> <Gold.Chemscore.DEInternal>
0.7521

> <Gold.Chemscore.Rot>
2.2718

> <Gold.Chemscore.Internal.Correction>
   9.000000E+99

> <Gold.Chemscore.Hbonds>
donor molecule, donor type, donor heavy atom, donor atom, acceptor molecule, acceptor atom, score
      L1  H    10    25       P1  7957  0.97
      L1  H    12    28       P1  7948  0.95
      L1  H    12    29       P1  7957  0.98

> <Gold.Chemscore.Hbond.Weighted>
-9.8277

> <Gold.Chemscore.Metal.Weighted>
-0.0000

> <Gold.Chemscore.Lipo.Weighted>
-11.9245

> <Gold.Chemscore.Internal_Hbond.Weighted>
0.0000

> <Gold.Chemscore.DEClash.Weighted>
1.4880

> <Gold.Chemscore.DEInternal.Weighted>
0.7521

> <Gold.Chemscore.Rot.Weighted>
5.8159

> <Gold.Chemscore.Internal.Correction.Weighted>
   9.000000E+99

> <Gold.Protein.RotatedTorsions>
[ 6907 6896 6895 6894 ] final  157.44 input  -60.11 | X-H torsion
[ 7974 7965 7964 7962 ] final -172.33 input  175.53 | X-H torsion
[ 8008 7997 7996 7995 ] final  113.72 input   59.86 | X-H torsion
[ 10167 10162 10161 10158 ] final  131.79 input  -65.29 | X-H torsion
[ 10718 10713 10712 10709 ] final  156.28 input   66.30 | X-H torsion
[ 10763 10752 10751 10750 ] final   45.79 input  -60.55 | X-H torsion
[ 11005 11000 10999 10996 ] final    2.49 input  -57.11 | X-H torsion

> <Gold.Protein.ActiveResidues>
 VAL166  LYS551  ARG553  GLY616  TRP617  ASP618  TYR619  PRO620  LYS621  CYS622 
 ASP623  PHE694  ASN695  SER759  ASP760  ASP761  ALA762  ILE779  LEU786  VAL792 
 PHE793  MET794  SER795  GLU796  ALA797  LYS798  CYS799  TRP800  GLU811  SER814 

> <Gold.Protein.RotatedAtoms>
  152.0150  133.3876  159.4234 H   0  0  0  0  0  0  0  0  0  0  0  0  # atno 6907 bound_to 6896
  150.6895  134.3688  159.4992 H   0  0  0  0  0  0  0  0  0  0  0  0  # atno 6908 bound_to 6896
  152.1454  134.9029  160.0602 H   0  0  0  0  0  0  0  0  0  0  0  0  # atno 6909 bound_to 6896
  144.7147  140.1788  143.6360 H   0  0  0  0  0  0  0  0  0  0  0  0  # atno 7974 bound_to 7965
  156.2276  140.2973  156.0107 H   0  0  0  0  0  0  0  0  0  0  0  0  # atno 8008 bound_to 7997
  155.2313  140.0419  157.2979 H   0  0  0  0  0  0  0  0  0  0  0  0  # atno 8009 bound_to 7997
  154.5942  140.2409  155.7888 H   0  0  0  0  0  0  0  0  0  0  0  0  # atno 8010 bound_to 7997
  139.5368  144.6691  151.4758 H   0  0  0  0  0  0  0  0  0  0  0  0  # atno 10167 bound_to 10162
  157.2071  131.0689  151.1991 H   0  0  0  0  0  0  0  0  0  0  0  0  # atno 10718 bound_to 10713
  152.9819  135.6028  154.3494 H   0  0  0  0  0  0  0  0  0  0  0  0  # atno 10763 bound_to 10752
  154.3185  135.2770  155.2533 H   0  0  0  0  0  0  0  0  0  0  0  0  # atno 10764 bound_to 10752
  154.4711  135.5941  153.6378 H   0  0  0  0  0  0  0  0  0  0  0  0  # atno 10765 bound_to 10752
  140.6037  133.9812  155.8144 H   0  0  0  0  0  0  0  0  0  0  0  0  # atno 11005 bound_to 11000
  145.8876  139.2357  143.1568 LP  0  0  0  0  0  0  0  0  0  0  0  0  # atno 17320 bound_to 7965
  145.9935  140.8582  143.0054 LP  0  0  0  0  0  0  0  0  0  0  0  0  # atno 17321 bound_to 7965
  140.6579  143.8561  150.6855 LP  0  0  0  0  0  0  0  0  0  0  0  0  # atno 17342 bound_to 10162
  140.1946  143.4008  152.1837 LP  0  0  0  0  0  0  0  0  0  0  0  0  # atno 17343 bound_to 10162
  157.3710  130.7181  149.6565 LP  0  0  0  0  0  0  0  0  0  0  0  0  # atno 17370 bound_to 10713
  155.9694  130.4199  150.4396 LP  0  0  0  0  0  0  0  0  0  0  0  0  # atno 17371 bound_to 10713
  141.0855  133.9998  157.3321 LP  0  0  0  0  0  0  0  0  0  0  0  0  # atno 17394 bound_to 11000
  139.9221  135.0201  156.8103 LP  0  0  0  0  0  0  0  0  0  0  0  0  # atno 17395 bound_to 11000

$$$$
