AV-unprocessed.smi:1150|AV-procd|sdf|4893|dock7
  -GOLD-   22720 3463D 1   1.00000     0.00000
 Structure written by MMmdl.
 50 51  0  0  0  0  0  0  0  0  1 V2000
  149.0236  141.4619  154.9762 C   0  0  0  0  0  0  0  0  0  0  0  0
  150.1191  141.7930  155.9999 C   0  0  0  0  0  0  0  0  0  0  0  0
  149.5882  141.9513  157.4398 C   0  0  2  0  0  0  0  0  0  0  0  0
  148.3499  142.7286  157.4350 N   0  0  0  0  0  0  0  0  0  0  0  0
  147.2281  142.4465  158.1159 C   0  0  0  0  0  0  0  0  0  0  0  0
  147.0323  141.3836  158.7038 O   0  0  0  0  0  0  0  0  0  0  0  0
  146.1901  143.5671  158.1874 C   0  0  0  0  0  0  0  0  0  0  0  0
  145.8272  143.8107  159.6333 C   0  0  0  0  0  0  0  0  0  0  0  0
  146.6510  144.3743  160.6518 C   0  0  0  0  0  0  0  0  0  0  0  0
  148.0600  144.8794  160.5309 C   0  0  0  0  0  0  0  0  0  0  0  0
  146.0484  144.4070  161.8287 N   0  0  0  0  0  0  0  0  0  0  0  0
  144.8317  143.8712  161.6071 N   0  0  0  0  0  0  0  0  0  0  0  0
  143.8996  143.7413  162.7098 C   0  0  0  0  0  0  0  0  0  0  0  0
  144.6623  143.5064  160.2862 C   0  0  0  0  0  0  0  0  0  0  0  0
  143.4002  142.8790  159.7892 C   0  0  0  0  0  0  0  0  0  0  0  0
  150.6259  142.5924  158.4026 C   0  0  0  0  0  0  0  0  0  0  0  0
  151.1810  143.9238  157.8442 C   0  0  0  0  0  0  0  0  0  0  0  0
  152.1766  144.5857  158.8092 C   0  0  0  0  0  0  0  0  0  0  0  0
  153.3296  143.6316  159.1511 C   0  0  0  0  0  0  0  0  0  0  0  0
  152.7942  142.3151  159.7316 C   0  0  0  0  0  0  0  0  0  0  0  0
  151.7982  141.6478  158.7702 C   0  0  0  0  0  0  0  0  0  0  0  0
  149.4519  141.3189  153.9841 H   0  0  0  0  0  0  0  0  0  0  0  0
  148.2865  142.2620  154.9041 H   0  0  0  0  0  0  0  0  0  0  0  0
  148.4973  140.5456  155.2455 H   0  0  0  0  0  0  0  0  0  0  0  0
  150.8651  140.9977  155.9768 H   0  0  0  0  0  0  0  0  0  0  0  0
  150.6329  142.7010  155.6838 H   0  0  0  0  0  0  0  0  0  0  0  0
  149.3857  140.9432  157.8061 H   0  0  0  0  0  0  0  0  0  0  0  0
  148.3943  143.6272  156.9773 H   0  0  0  0  0  0  0  0  0  0  0  0
  146.6025  144.4601  157.7175 H   0  0  0  0  0  0  0  0  0  0  0  0
  145.3146  143.2890  157.5998 H   0  0  0  0  0  0  0  0  0  0  0  0
  148.7277  144.0901  160.1856 H   0  0  0  0  0  0  0  0  0  0  0  0
  148.4439  145.2422  161.4850 H   0  0  0  0  0  0  0  0  0  0  0  0
  148.1189  145.7007  159.8170 H   0  0  0  0  0  0  0  0  0  0  0  0
  143.0531  144.4103  162.5534 H   0  0  0  0  0  0  0  0  0  0  0  0
  144.3819  143.9945  163.6548 H   0  0  0  0  0  0  0  0  0  0  0  0
  143.5377  142.7143  162.7652 H   0  0  0  0  0  0  0  0  0  0  0  0
  143.4019  142.7945  158.7026 H   0  0  0  0  0  0  0  0  0  0  0  0
  142.5310  143.4708  160.0765 H   0  0  0  0  0  0  0  0  0  0  0  0
  143.2803  141.8775  160.2021 H   0  0  0  0  0  0  0  0  0  0  0  0
  150.0994  142.8360  159.3268 H   0  0  0  0  0  0  0  0  0  0  0  0
  151.6833  143.7515  156.8930 H   0  0  0  0  0  0  0  0  0  0  0  0
  150.3617  144.6130  157.6375 H   0  0  0  0  0  0  0  0  0  0  0  0
  152.5709  145.5000  158.3649 H   0  0  0  0  0  0  0  0  0  0  0  0
  151.6606  144.8818  159.7234 H   0  0  0  0  0  0  0  0  0  0  0  0
  153.9144  143.4253  158.2536 H   0  0  0  0  0  0  0  0  0  0  0  0
  154.0073  144.1050  159.8617 H   0  0  0  0  0  0  0  0  0  0  0  0
  153.6228  141.6365  159.9364 H   0  0  0  0  0  0  0  0  0  0  0  0
  152.3072  142.5071  160.6885 H   0  0  0  0  0  0  0  0  0  0  0  0
  151.4220  140.7347  159.2302 H   0  0  0  0  0  0  0  0  0  0  0  0
  152.3347  141.3414  157.8719 H   0  0  0  0  0  0  0  0  0  0  0  0
  1  2  1  0  0  0  0
  1 22  1  0  0  0  0
  1 23  1  0  0  0  0
  1 24  1  0  0  0  0
  2  3  1  0  0  0  0
  2 25  1  0  0  0  0
  2 26  1  0  0  0  0
  3  4  1  0  0  0  0
  3 16  1  0  0  0  0
  3 27  1  0  0  0  0
  4  5  1  0  0  0  0
  4 28  1  0  0  0  0
  5  6  2  0  0  0  0
  5  7  1  0  0  0  0
  7  8  1  0  0  0  0
  7 29  1  0  0  0  0
  7 30  1  0  0  0  0
  8 14  2  0  0  0  0
  8  9  1  0  0  0  0
  9 10  1  0  0  0  0
  9 11  2  0  0  0  0
 10 31  1  0  0  0  0
 10 32  1  0  0  0  0
 10 33  1  0  0  0  0
 11 12  1  0  0  0  0
 12 13  1  0  0  0  0
 12 14  1  0  0  0  0
 13 34  1  0  0  0  0
 13 35  1  0  0  0  0
 13 36  1  0  0  0  0
 14 15  1  0  0  0  0
 15 37  1  0  0  0  0
 15 38  1  0  0  0  0
 15 39  1  0  0  0  0
 16 21  1  0  0  0  0
 16 17  1  0  0  0  0
 16 40  1  0  0  0  0
 17 18  1  0  0  0  0
 17 41  1  0  0  0  0
 17 42  1  0  0  0  0
 18 19  1  0  0  0  0
 18 43  1  0  0  0  0
 18 44  1  0  0  0  0
 19 20  1  0  0  0  0
 19 45  1  0  0  0  0
 19 46  1  0  0  0  0
 20 21  1  0  0  0  0
 20 47  1  0  0  0  0
 20 48  1  0  0  0  0
 21 49  1  0  0  0  0
 21 50  1  0  0  0  0
M  END
> <s_m_source_file>
AV-unprocessed.smi

> <i_m_source_file_index>
1150

> <i_lp_mmshare_version>
43012

> <i_f3d_flags>
0

> <s_epik_input>
W0NIMl0xW0NIMl1bQ0gyXVtDSDJdW0NIMl1bQ0hdMVtDQEhdKFtDSDJdW0NIM10pW05IXUMoPU8pW0NIMl1jMmMoW0NIM10pbm4oW0NIM10pYzJbQ0gzXQ==

> <s_epik_cmdline>
J2VwaWtfcHl0aG9uJywgJy1waCcsICc3LjAnLCAnLXRuJywgJzgnLCAnLW1hJywgJzIwMCcsICctbWV0YWxfYmluZGluZycsICctaW1hZScsICc8aW5maWxlLm1hZT4nLCAnLW9tYWUnLCAnPG91dGZpbGUubWFlPic=

> <r_lp_tautomer_probability>
1

> <r_epik_Ionization_Penalty>
0.00328092

> <r_epik_Ionization_Penalty_Charging>
0

> <r_epik_Ionization_Penalty_Neutral>
0.00328092

> <r_epik_State_Penalty>
0.00231765

> <r_epik_Charging_Adjusted_Penalty>
0.00231765

> <i_epik_Tot_Q>
0

> <i_epik_Tot_abs_Q>
0

> <r_epik_Metal_State_Penalty>
-0

> <b_epik_Metal_Only>
0

> <s_lp_Force_Field>
OPLS_2005

> <r_lp_Energy>
6.65813

> <b_lp_Chiralities_Consistent>
1

> <s_lp_Variant>
AV-unprocessed.smi:1150-1

> <Gold.Version>
5.8.1

> <Gold.Id.Protein>
6NUR|6NUR_protein|mol2

> <Gold.PLP.Fitness>
47.4464

> <Gold.PLP.PLP>
-45.1941

> <Gold.PLP.part.hbond>
-2.6352

> <Gold.PLP.part.metal>
0.0000

> <Gold.PLP.part.buried>
-6.2155

> <Gold.PLP.part.nonpolar>
-36.7296

> <Gold.PLP.part.repulsive>
0.1553

> <Gold.PLP.ligand.clash>
0.0000

> <Gold.PLP.ligand.torsion>
0.6610

> <Gold.PLP.Chemscore.Hbond>
1.1680

> <Gold.PLP.Chemscore.CHOScore>
0.0000

> <Gold.PLP.Chemscore.Metal>
0.0000

> <Gold.Chemscore.Hbonds>
donor molecule, donor type, donor heavy atom, donor atom, acceptor molecule, acceptor atom, score
      L1  H     4    28       P1  8028  0.65
      P1  H  6934  6946       L1     6  0.36

> <Gold.PLP.Chemscore.Internal.Correction>
0.0703

> <Gold.Rescore>
     Score         DG    S(hbond)    S(metal)    S(lipo)     H(rot)  DE(clash)    DE(int)     intcor
     16.31     -16.87       0.82        0.00     104.88       1.42       0.15       0.42       ----

> <Gold.Chemscore.Fitness>
16.3083

> <Gold.Chemscore.DG>
-16.8720

> <Gold.Chemscore.ZeroCoef>
-5.4800

> <Gold.Chemscore.Hbond>
0.8232

> <Gold.Chemscore.Metal>
0.0000

> <Gold.Chemscore.Lipo>
104.8811

> <Gold.Chemscore.Internal_Hbond>
0.0000

> <Gold.Chemscore.DEClash>
0.1483

> <Gold.Chemscore.DEInternal>
0.4155

> <Gold.Chemscore.Rot>
1.4174

> <Gold.Chemscore.Internal.Correction>
   9.000000E+99

> <Gold.Chemscore.Hbonds>
donor molecule, donor type, donor heavy atom, donor atom, acceptor molecule, acceptor atom, score
      L1  H     4    28       P1  8028  0.06
      P1  H  6934  6946       L1     6  0.34

> <Gold.Chemscore.Hbond.Weighted>
-2.7495

> <Gold.Chemscore.Metal.Weighted>
-0.0000

> <Gold.Chemscore.Lipo.Weighted>
-12.2711

> <Gold.Chemscore.Internal_Hbond.Weighted>
0.0000

> <Gold.Chemscore.DEClash.Weighted>
0.1483

> <Gold.Chemscore.DEInternal.Weighted>
0.4155

> <Gold.Chemscore.Rot.Weighted>
3.6286

> <Gold.Chemscore.Internal.Correction.Weighted>
   9.000000E+99

> <Gold.Protein.RotatedTorsions>
[ 6907 6896 6895 6894 ] final -139.98 input  -60.11 | X-H torsion
[ 7974 7965 7964 7962 ] final -163.49 input  175.53 | X-H torsion
[ 8008 7997 7996 7995 ] final  -88.00 input   59.86 | X-H torsion
[ 10167 10162 10161 10158 ] final  -62.36 input  -65.29 | X-H torsion
[ 10718 10713 10712 10709 ] final  152.34 input   66.30 | X-H torsion
[ 10763 10752 10751 10750 ] final   32.26 input  -60.55 | X-H torsion
[ 11005 11000 10999 10996 ] final   65.16 input  -57.11 | X-H torsion

> <Gold.Protein.ActiveResidues>
 VAL166  LYS551  ARG553  GLY616  TRP617  ASP618  TYR619  PRO620  LYS621  CYS622 
 ASP623  PHE694  ASN695  SER759  ASP760  ASP761  ALA762  ILE779  LEU786  VAL792 
 PHE793  MET794  SER795  GLU796  ALA797  LYS798  CYS799  TRP800  GLU811  SER814 

> <Gold.Protein.RotatedAtoms>
  151.0547  133.5594  159.2639 H   0  0  0  0  0  0  0  0  0  0  0  0  # atno 6907 bound_to 6896
  151.2592  135.0647  159.9101 H   0  0  0  0  0  0  0  0  0  0  0  0  # atno 6908 bound_to 6896
  152.5388  134.0296  159.8072 H   0  0  0  0  0  0  0  0  0  0  0  0  # atno 6909 bound_to 6896
  144.7324  140.3100  143.6189 H   0  0  0  0  0  0  0  0  0  0  0  0  # atno 7974 bound_to 7965
  154.6697  140.0559  157.0152 H   0  0  0  0  0  0  0  0  0  0  0  0  # atno 8008 bound_to 7997
  155.1107  140.3238  155.4504 H   0  0  0  0  0  0  0  0  0  0  0  0  # atno 8009 bound_to 7997
  156.2652  140.2015  156.6231 H   0  0  0  0  0  0  0  0  0  0  0  0  # atno 8010 bound_to 7997
  140.5944  143.2348  151.6068 H   0  0  0  0  0  0  0  0  0  0  0  0  # atno 10167 bound_to 10162
  157.2591  131.0794  151.1678 H   0  0  0  0  0  0  0  0  0  0  0  0  # atno 10718 bound_to 10713
  153.0272  135.6418  154.1327 H   0  0  0  0  0  0  0  0  0  0  0  0  # atno 10763 bound_to 10752
  154.1055  135.2856  155.3244 H   0  0  0  0  0  0  0  0  0  0  0  0  # atno 10764 bound_to 10752
  154.6369  135.5473  153.7807 H   0  0  0  0  0  0  0  0  0  0  0  0  # atno 10765 bound_to 10752
  139.9912  134.6588  156.0087 H   0  0  0  0  0  0  0  0  0  0  0  0  # atno 11005 bound_to 11000
  145.7674  139.1845  143.2232 LP  0  0  0  0  0  0  0  0  0  0  0  0  # atno 17320 bound_to 7965
  146.0938  140.7625  142.9582 LP  0  0  0  0  0  0  0  0  0  0  0  0  # atno 17321 bound_to 7965
  139.5249  144.3091  152.1008 LP  0  0  0  0  0  0  0  0  0  0  0  0  # atno 17342 bound_to 10162
  140.2261  144.4416  150.6320 LP  0  0  0  0  0  0  0  0  0  0  0  0  # atno 17343 bound_to 10162
  157.3195  130.6930  149.6261 LP  0  0  0  0  0  0  0  0  0  0  0  0  # atno 17370 bound_to 10713
  155.9664  130.4339  150.5028 LP  0  0  0  0  0  0  0  0  0  0  0  0  # atno 17371 bound_to 10713
  141.1567  133.6542  156.4186 LP  0  0  0  0  0  0  0  0  0  0  0  0  # atno 17394 bound_to 11000
  140.4904  134.6580  157.5208 LP  0  0  0  0  0  0  0  0  0  0  0  0  # atno 17395 bound_to 11000

$$$$
