AV-unprocessed.smi:593|AV-procd|sdf|3013|dock5
  -GOLD-   2262023523D 1   1.00000     0.00000
 Structure written by MMmdl.
 40 41  0  0  0  0  0  0  0  0  3 V2000
  150.7777  140.3614  154.9372 O   0  0  0  0  0  0  0  0  0  0  0  0
  149.9401  141.1720  155.3304 C   0  0  0  0  0  0  0  0  0  0  0  0
  148.6561  141.3817  154.5082 C   0  0  0  0  0  0  0  0  0  0  0  0
  147.4224  140.8838  155.1452 N   0  0  0  0  0  0  0  0  0  0  0  0
  146.3907  141.8199  155.3551 C   0  0  0  0  0  0  0  0  0  0  0  0
  145.2159  141.4772  155.9186 C   0  0  0  0  0  0  0  0  0  0  0  0
  144.1654  142.4508  156.1196 N   0  3  0  0  0  0  0  0  0  0  0  0
  144.3609  143.6089  155.7646 O   0  0  0  0  0  0  0  0  0  0  0  0
  143.1124  142.0922  156.6385 O   0  5  0  0  0  0  0  0  0  0  0  0
  145.0358  140.0936  156.3130 C   0  0  0  0  0  0  0  0  0  0  0  0
  146.0166  139.1919  156.1110 C   0  0  0  0  0  0  0  0  0  0  0  0
  147.2925  139.5663  155.4930 C   0  0  0  0  0  0  0  0  0  0  0  0
  148.1863  138.7443  155.2917 O   0  0  0  0  0  0  0  0  0  0  0  0
  150.0968  141.8910  156.4532 N   0  0  0  0  0  0  0  0  0  0  0  0
  151.2645  141.8522  157.3219 C   0  0  0  0  0  0  0  0  0  0  0  0
  151.0950  142.8069  158.5194 C   0  0  0  0  0  0  0  0  0  0  0  0
  151.0465  144.2910  158.0884 C   0  0  0  0  0  0  0  0  0  0  0  0
  150.8956  145.2305  159.2959 C   0  0  0  0  0  0  0  0  0  0  0  0
  152.0102  144.9990  160.3272 C   0  0  0  0  0  0  0  0  0  0  0  0
  152.0583  143.5283  160.7668 C   0  0  0  0  0  0  0  0  0  0  0  0
  152.2135  142.5905  159.5586 C   0  0  0  0  0  0  0  0  0  0  0  0
  148.5619  142.4454  154.2828 H   0  0  0  0  0  0  0  0  0  0  0  0
  148.7965  140.9035  153.5378 H   0  0  0  0  0  0  0  0  0  0  0  0
  146.6206  142.8214  155.0204 H   0  0  0  0  0  0  0  0  0  0  0  0
  144.1130  139.7702  156.7719 H   0  0  0  0  0  0  0  0  0  0  0  0
  145.8604  138.1661  156.4110 H   0  0  0  0  0  0  0  0  0  0  0  0
  149.3613  142.5327  156.7115 H   0  0  0  0  0  0  0  0  0  0  0  0
  151.4026  140.8283  157.6717 H   0  0  0  0  0  0  0  0  0  0  0  0
  152.1586  142.1202  156.7561 H   0  0  0  0  0  0  0  0  0  0  0  0
  150.1459  142.5677  159.0019 H   0  0  0  0  0  0  0  0  0  0  0  0
  151.9563  144.5443  157.5428 H   0  0  0  0  0  0  0  0  0  0  0  0
  150.2181  144.4646  157.4008 H   0  0  0  0  0  0  0  0  0  0  0  0
  150.9093  146.2685  158.9623 H   0  0  0  0  0  0  0  0  0  0  0  0
  149.9241  145.0691  159.7647 H   0  0  0  0  0  0  0  0  0  0  0  0
  152.9714  145.2840  159.8978 H   0  0  0  0  0  0  0  0  0  0  0  0
  151.8553  145.6418  161.1940 H   0  0  0  0  0  0  0  0  0  0  0  0
  152.8832  143.3764  161.4632 H   0  0  0  0  0  0  0  0  0  0  0  0
  151.1456  143.2784  161.3091 H   0  0  0  0  0  0  0  0  0  0  0  0
  152.2096  141.5549  159.9002 H   0  0  0  0  0  0  0  0  0  0  0  0
  153.1862  142.7569  159.0933 H   0  0  0  0  0  0  0  0  0  0  0  0
  1  2  2  0  0  0  0
  2  3  1  0  0  0  0
  2 14  1  0  0  0  0
  3  4  1  0  0  0  0
  3 22  1  0  0  0  0
  3 23  1  0  0  0  0
  4 12  1  0  0  0  0
  4  5  1  0  0  0  0
  5  6  2  0  0  0  0
  5 24  1  0  0  0  0
  6  7  1  0  0  0  0
  6 10  1  0  0  0  0
  7  8  2  0  0  0  0
  7  9  1  0  0  0  0
 10 11  2  0  0  0  0
 10 25  1  0  0  0  0
 11 12  1  0  0  0  0
 11 26  1  0  0  0  0
 12 13  2  0  0  0  0
 14 15  1  0  0  0  0
 14 27  1  0  0  0  0
 15 16  1  0  0  0  0
 15 28  1  0  0  0  0
 15 29  1  0  0  0  0
 16 21  1  0  0  0  0
 16 17  1  0  0  0  0
 16 30  1  0  0  0  0
 17 18  1  0  0  0  0
 17 31  1  0  0  0  0
 17 32  1  0  0  0  0
 18 19  1  0  0  0  0
 18 33  1  0  0  0  0
 18 34  1  0  0  0  0
 19 20  1  0  0  0  0
 19 35  1  0  0  0  0
 19 36  1  0  0  0  0
 20 21  1  0  0  0  0
 20 37  1  0  0  0  0
 20 38  1  0  0  0  0
 21 39  1  0  0  0  0
 21 40  1  0  0  0  0
M  CHG  1   7   1
M  CHG  1   9  -1
M  END
> <s_m_source_file>
AV-unprocessed.smi

> <i_m_source_file_index>
593

> <i_lp_mmshare_version>
43012

> <i_f3d_flags>
0

> <s_epik_input>
W0NIMl0xW0NIMl1bQ0gyXVtDSDJdW0NIMl1bQ0hdMVtDSDJdW05IXUMoPU8pW0NIMl1uMltjSF1jKFtOK10oPU8pW08tXSlbY0hdW2NIXWMyPU8=

> <s_epik_cmdline>
J2VwaWtfcHl0aG9uJywgJy1waCcsICc3LjAnLCAnLXRuJywgJzgnLCAnLW1hJywgJzIwMCcsICctbWV0YWxfYmluZGluZycsICctaW1hZScsICc8aW5maWxlLm1hZT4nLCAnLW9tYWUnLCAnPG91dGZpbGUubWFlPic=

> <r_lp_tautomer_probability>
1

> <r_epik_Ionization_Penalty>
1.98738e-08

> <r_epik_Ionization_Penalty_Charging>
7.60687e-11

> <r_epik_Ionization_Penalty_Neutral>
1.97978e-08

> <r_epik_State_Penalty>
-0

> <r_epik_Charging_Adjusted_Penalty>
7.60687e-11

> <i_epik_Tot_Q>
0

> <i_epik_Tot_abs_Q>
2

> <r_epik_Metal_State_Penalty>
-0

> <b_epik_Metal_Only>
0

> <s_lp_Force_Field>
OPLS_2005

> <r_lp_Energy>
22.1176

> <b_lp_Chiralities_Consistent>
1

> <s_lp_Variant>
AV-unprocessed.smi:593-1

> <Gold.Version>
5.8.1

> <Gold.Id.Protein>
6NUR|6NUR_protein|mol2

> <Gold.PLP.Fitness>
43.5315

> <Gold.PLP.PLP>
-37.9001

> <Gold.PLP.part.hbond>
-1.8029

> <Gold.PLP.part.metal>
0.0000

> <Gold.PLP.part.buried>
-3.4538

> <Gold.PLP.part.nonpolar>
-32.1699

> <Gold.PLP.part.repulsive>
0.4329

> <Gold.PLP.ligand.clash>
0.0000

> <Gold.PLP.ligand.torsion>
0.1201

> <Gold.PLP.Chemscore.Hbond>
1.3245

> <Gold.PLP.Chemscore.CHOScore>
0.6112

> <Gold.PLP.Chemscore.Metal>
0.0000

> <Gold.Chemscore.Hbonds>
donor molecule, donor type, donor heavy atom, donor atom, acceptor molecule, acceptor atom, score
      P1  H  7989  7998       L1     1  1.00

> <Gold.PLP.Chemscore.Internal.Correction>
0.0644

> <Gold.Rescore>
     Score         DG    S(hbond)    S(metal)    S(lipo)     H(rot)  DE(clash)    DE(int)     intcor
     15.77     -16.14       1.41        0.00      89.98       1.78       0.27       0.09       ----

> <Gold.Chemscore.Fitness>
15.7740

> <Gold.Chemscore.DG>
-16.1411

> <Gold.Chemscore.ZeroCoef>
-5.4800

> <Gold.Chemscore.Hbond>
1.4060

> <Gold.Chemscore.Metal>
0.0000

> <Gold.Chemscore.Lipo>
89.9808

> <Gold.Chemscore.Internal_Hbond>
0.0000

> <Gold.Chemscore.DEClash>
0.2738

> <Gold.Chemscore.DEInternal>
0.0932

> <Gold.Chemscore.Rot>
1.7823

> <Gold.Chemscore.Internal.Correction>
   9.000000E+99

> <Gold.Chemscore.Hbonds>
donor molecule, donor type, donor heavy atom, donor atom, acceptor molecule, acceptor atom, score
      L1  H    14    27       P1  8028  0.02
      P1  H  7989  7998       L1     1  0.84

> <Gold.Chemscore.Hbond.Weighted>
-4.6960

> <Gold.Chemscore.Metal.Weighted>
-0.0000

> <Gold.Chemscore.Lipo.Weighted>
-10.5277

> <Gold.Chemscore.Internal_Hbond.Weighted>
0.0000

> <Gold.Chemscore.DEClash.Weighted>
0.2738

> <Gold.Chemscore.DEInternal.Weighted>
0.0932

> <Gold.Chemscore.Rot.Weighted>
4.5627

> <Gold.Chemscore.Internal.Correction.Weighted>
   9.000000E+99

> <Gold.Protein.RotatedTorsions>
[ 6907 6896 6895 6894 ] final    0.79 input  -60.11 | X-H torsion
[ 7974 7965 7964 7962 ] final   52.26 input  175.53 | X-H torsion
[ 8008 7997 7996 7995 ] final   57.32 input   59.86 | X-H torsion
[ 10167 10162 10161 10158 ] final -162.82 input  -65.29 | X-H torsion
[ 10718 10713 10712 10709 ] final   80.51 input   66.30 | X-H torsion
[ 10763 10752 10751 10750 ] final  -81.31 input  -60.55 | X-H torsion
[ 11005 11000 10999 10996 ] final  -93.51 input  -57.11 | X-H torsion

> <Gold.Protein.ActiveResidues>
 VAL166  LYS551  ARG553  GLY616  TRP617  ASP618  TYR619  PRO620  LYS621  CYS622 
 ASP623  PHE694  ASN695  SER759  ASP760  ASP761  ALA762  ILE779  LEU786  VAL792 
 PHE793  MET794  SER795  GLU796  ALA797  LYS798  CYS799  TRP800  GLU811  SER814 

> <Gold.Protein.RotatedAtoms>
  151.5821  135.1058  160.0019 H   0  0  0  0  0  0  0  0  0  0  0  0  # atno 6907 bound_to 6896
  152.4349  133.7338  159.6613 H   0  0  0  0  0  0  0  0  0  0  0  0  # atno 6908 bound_to 6896
  150.8245  133.8125  159.3147 H   0  0  0  0  0  0  0  0  0  0  0  0  # atno 6909 bound_to 6896
  145.9831  139.4262  143.0119 H   0  0  0  0  0  0  0  0  0  0  0  0  # atno 7974 bound_to 7965
  155.5319  140.3482  155.4428 H   0  0  0  0  0  0  0  0  0  0  0  0  # atno 8008 bound_to 7997
  156.0712  140.1363  156.9853 H   0  0  0  0  0  0  0  0  0  0  0  0  # atno 8009 bound_to 7997
  154.4529  140.0965  156.6647 H   0  0  0  0  0  0  0  0  0  0  0  0  # atno 8010 bound_to 7997
  139.6364  144.0341  152.2058 H   0  0  0  0  0  0  0  0  0  0  0  0  # atno 10167 bound_to 10162
  157.6808  130.9963  150.2090 H   0  0  0  0  0  0  0  0  0  0  0  0  # atno 10718 bound_to 10713
  154.5619  135.5631  153.7015 H   0  0  0  0  0  0  0  0  0  0  0  0  # atno 10763 bound_to 10752
  153.0021  135.6276  154.2233 H   0  0  0  0  0  0  0  0  0  0  0  0  # atno 10764 bound_to 10752
  154.2170  135.2871  155.2918 H   0  0  0  0  0  0  0  0  0  0  0  0  # atno 10765 bound_to 10752
  141.1495  133.7893  157.0170 H   0  0  0  0  0  0  0  0  0  0  0  0  # atno 11005 bound_to 11000
  145.7740  140.9884  143.1134 LP  0  0  0  0  0  0  0  0  0  0  0  0  # atno 17320 bound_to 7965
  144.6867  139.9482  143.7477 LP  0  0  0  0  0  0  0  0  0  0  0  0  # atno 17321 bound_to 7965
  140.0020  144.6286  150.7722 LP  0  0  0  0  0  0  0  0  0  0  0  0  # atno 17342 bound_to 10162
  140.7468  143.2896  151.3368 LP  0  0  0  0  0  0  0  0  0  0  0  0  # atno 17343 bound_to 10162
  156.2765  130.3728  149.7978 LP  0  0  0  0  0  0  0  0  0  0  0  0  # atno 17370 bound_to 10713
  156.5680  130.8412  151.3348 LP  0  0  0  0  0  0  0  0  0  0  0  0  # atno 17371 bound_to 10713
  140.0841  134.9631  157.1671 LP  0  0  0  0  0  0  0  0  0  0  0  0  # atno 17394 bound_to 11000
  140.3536  134.2571  155.7195 LP  0  0  0  0  0  0  0  0  0  0  0  0  # atno 17395 bound_to 11000

$$$$
