AV-unprocessed.smi:276|AV-procd|sdf|2085|dock8
  -GOLD-   2262021363D 1   1.00000     0.00000
 Structure written by MMmdl.
 57 61  0  0  0  0  0  0  0  0  1 V2000
  154.0823  141.0761  160.7812 C   0  0  0  0  0  0  0  0  0  0  0  0
  153.4895  142.2066  160.1674 O   0  0  0  0  0  0  0  0  0  0  0  0
  152.7821  141.8766  158.9825 C   0  0  1  0  0  0  0  0  0  0  0  0
  151.7130  140.7920  159.1607 C   0  0  0  0  0  0  0  0  0  0  0  0
  150.7816  141.6187  158.2523 C   0  0  2  0  0  0  0  0  0  0  0  0
  150.8821  141.1965  156.8481 N   0  0  0  0  0  0  0  0  0  0  0  0
  151.6292  139.9676  156.5974 C   0  0  0  0  0  0  0  0  0  0  0  0
  149.7273  141.1864  156.1453 C   0  0  0  0  0  0  0  0  0  0  0  0
  149.7654  140.6256  154.9107 N   0  0  0  0  0  0  0  0  0  0  0  0
  148.6619  140.5900  154.1578 C   0  0  0  0  0  0  0  0  0  0  0  0
  147.4400  141.0441  154.4444 N   0  0  0  0  0  0  0  0  0  0  0  0
  147.3961  141.5943  155.6914 C   0  0  0  0  0  0  0  0  0  0  0  0
  148.4813  141.7021  156.6059 C   0  0  0  0  0  0  0  0  0  0  0  0
  148.0503  142.3122  157.7785 N   0  0  0  0  0  0  0  0  0  0  0  0
  146.7865  142.5588  157.5653 C   0  0  0  0  0  0  0  0  0  0  0  0
  146.3121  142.1606  156.3367 N   0  0  0  0  0  0  0  0  0  0  0  0
  144.9582  142.3057  155.8337 C   0  0  0  0  0  0  0  0  0  0  0  0
  144.6982  143.7067  155.2481 C   0  0  1  0  0  0  0  0  0  0  0  0
  144.7906  143.6813  153.8361 O   0  0  0  0  0  0  0  0  0  0  0  0
  143.3445  144.2960  155.6924 C   0  0  1  0  0  0  0  0  0  0  0  0
  143.1084  145.7763  155.3821 C   0  0  0  0  0  0  0  0  0  0  0  0
  141.5979  145.8435  155.4114 C   0  0  0  0  0  0  0  0  0  0  0  0
  141.2119  144.5113  154.7723 C   0  0  0  0  0  0  0  0  0  0  0  0
  142.2429  143.5919  155.1239 O   0  0  0  0  0  0  0  0  0  0  0  0
  151.6394  142.8518  158.6461 C   0  0  0  0  0  0  0  0  0  0  0  0
  151.1174  143.8222  159.7216 C   0  0  0  0  0  0  0  0  0  0  0  0
  151.9506  144.9208  159.0559 C   0  0  0  0  0  0  0  0  0  0  0  0
  151.8897  144.0939  157.7693 C   0  0  0  0  0  0  0  0  0  0  0  0
  154.6153  141.3856  161.6802 H   0  0  0  0  0  0  0  0  0  0  0  0
  154.7986  140.5966  160.1130 H   0  0  0  0  0  0  0  0  0  0  0  0
  153.3301  140.3423  161.0730 H   0  0  0  0  0  0  0  0  0  0  0  0
  153.4300  141.6980  158.1215 H   0  0  0  0  0  0  0  0  0  0  0  0
  152.0081  139.8091  158.7946 H   0  0  0  0  0  0  0  0  0  0  0  0
  151.3444  140.7327  160.1862 H   0  0  0  0  0  0  0  0  0  0  0  0
  149.7622  141.6528  158.6365 H   0  0  0  0  0  0  0  0  0  0  0  0
  151.3747  139.5126  155.6384 H   0  0  0  0  0  0  0  0  0  0  0  0
  151.4348  139.2333  157.3800 H   0  0  0  0  0  0  0  0  0  0  0  0
  152.6990  140.1737  156.5820 H   0  0  0  0  0  0  0  0  0  0  0  0
  148.7745  140.1333  153.1856 H   0  0  0  0  0  0  0  0  0  0  0  0
  146.1606  143.0375  158.3042 H   0  0  0  0  0  0  0  0  0  0  0  0
  144.7805  141.5342  155.0831 H   0  0  0  0  0  0  0  0  0  0  0  0
  144.2682  142.1067  156.6547 H   0  0  0  0  0  0  0  0  0  0  0  0
  145.4833  144.3784  155.5975 H   0  0  0  0  0  0  0  0  0  0  0  0
  144.0086  143.2751  153.4943 H   0  0  0  0  0  0  0  0  0  0  0  0
  143.2544  144.1669  156.7724 H   0  0  0  0  0  0  0  0  0  0  0  0
  143.5809  146.4426  156.1042 H   0  0  0  0  0  0  0  0  0  0  0  0
  143.4661  146.0426  154.3871 H   0  0  0  0  0  0  0  0  0  0  0  0
  141.2447  145.8824  156.4429 H   0  0  0  0  0  0  0  0  0  0  0  0
  141.1953  146.7054  154.8787 H   0  0  0  0  0  0  0  0  0  0  0  0
  140.2342  144.1591  155.1014 H   0  0  0  0  0  0  0  0  0  0  0  0
  141.1898  144.6042  153.6858 H   0  0  0  0  0  0  0  0  0  0  0  0
  150.0444  144.0035  159.6373 H   0  0  0  0  0  0  0  0  0  0  0  0
  151.4007  143.5876  160.7478 H   0  0  0  0  0  0  0  0  0  0  0  0
  151.4633  145.8945  158.9993 H   0  0  0  0  0  0  0  0  0  0  0  0
  152.9598  144.9934  159.4650 H   0  0  0  0  0  0  0  0  0  0  0  0
  152.8154  144.0727  157.1937 H   0  0  0  0  0  0  0  0  0  0  0  0
  151.0390  144.3864  157.1545 H   0  0  0  0  0  0  0  0  0  0  0  0
  1  2  1  0  0  0  0
  1 29  1  0  0  0  0
  1 30  1  0  0  0  0
  1 31  1  0  0  0  0
  2  3  1  0  0  0  0
  3 25  1  0  0  0  0
  3  4  1  0  0  0  0
  3 32  1  0  0  0  0
  4  5  1  0  0  0  0
  4 33  1  0  0  0  0
  4 34  1  0  0  0  0
  5  6  1  0  0  0  0
  5 25  1  0  0  0  0
  5 35  1  0  0  0  0
  6  7  1  0  0  0  0
  6  8  1  0  0  0  0
  7 36  1  0  0  0  0
  7 37  1  0  0  0  0
  7 38  1  0  0  0  0
  8 13  1  0  0  0  0
  8  9  2  0  0  0  0
  9 10  1  0  0  0  0
 10 11  2  0  0  0  0
 10 39  1  0  0  0  0
 11 12  1  0  0  0  0
 12 16  1  0  0  0  0
 12 13  2  0  0  0  0
 13 14  1  0  0  0  0
 14 15  2  0  0  0  0
 15 16  1  0  0  0  0
 15 40  1  0  0  0  0
 16 17  1  0  0  0  0
 17 18  1  0  0  0  0
 17 41  1  0  0  0  0
 17 42  1  0  0  0  0
 18 19  1  0  0  0  0
 18 20  1  0  0  0  0
 18 43  1  0  0  0  0
 19 44  1  0  0  0  0
 20 24  1  0  0  0  0
 20 21  1  0  0  0  0
 20 45  1  0  0  0  0
 21 22  1  0  0  0  0
 21 46  1  0  0  0  0
 21 47  1  0  0  0  0
 22 23  1  0  0  0  0
 22 48  1  0  0  0  0
 22 49  1  0  0  0  0
 23 24  1  0  0  0  0
 23 50  1  0  0  0  0
 23 51  1  0  0  0  0
 25 28  1  0  0  0  0
 25 26  1  0  0  0  0
 26 27  1  0  0  0  0
 26 52  1  0  0  0  0
 26 53  1  0  0  0  0
 27 28  1  0  0  0  0
 27 54  1  0  0  0  0
 27 55  1  0  0  0  0
 28 56  1  0  0  0  0
 28 57  1  0  0  0  0
M  END
> <s_m_source_file>
AV-unprocessed.smi

> <i_m_source_file_index>
276

> <i_lp_mmshare_version>
43012

> <i_f3d_flags>
0

> <s_epik_input>
W0NIMl0xW0NIMl1bQ0gyXUMxMltDQEhdKE9bQ0gzXSlbQ0gyXVtDQEhdMk4oW0NIM10pYyhuW2NIXW4zKWMoYzM0KW5bY0hdbjRbQ0gyXVtDQEhdKFtPSF0pW0NAQEhdNVtDSDJdW0NIMl1bQ0gyXU81

> <s_epik_cmdline>
J2VwaWtfcHl0aG9uJywgJy1waCcsICc3LjAnLCAnLXRuJywgJzgnLCAnLW1hJywgJzIwMCcsICctbWV0YWxfYmluZGluZycsICctaW1hZScsICc8aW5maWxlLm1hZT4nLCAnLW9tYWUnLCAnPG91dGZpbGUubWFlPic=

> <r_lp_tautomer_probability>
1

> <r_epik_Ionization_Penalty>
0.00204117

> <r_epik_Ionization_Penalty_Charging>
0

> <r_epik_Ionization_Penalty_Neutral>
0.00204117

> <r_epik_State_Penalty>
0.00127401

> <r_epik_Charging_Adjusted_Penalty>
0.00127401

> <i_epik_Tot_Q>
0

> <i_epik_Tot_abs_Q>
0

> <r_epik_Metal_State_Penalty>
-0

> <b_epik_Metal_Only>
0

> <s_lp_Force_Field>
OPLS_2005

> <r_lp_Energy>
58.9981

> <b_lp_Chiralities_Consistent>
1

> <s_lp_Variant>
AV-unprocessed.smi:276-16

> <Gold.Version>
5.8.1

> <Gold.Id.Protein>
6NUR|6NUR_protein|mol2

> <Gold.PLP.Fitness>
47.6406

> <Gold.PLP.PLP>
-47.4925

> <Gold.PLP.part.hbond>
-2.0000

> <Gold.PLP.part.metal>
0.0000

> <Gold.PLP.part.buried>
-6.7195

> <Gold.PLP.part.nonpolar>
-40.2948

> <Gold.PLP.part.repulsive>
1.0219

> <Gold.PLP.ligand.clash>
2.0197

> <Gold.PLP.ligand.torsion>
2.8644

> <Gold.PLP.Chemscore.Hbond>
1.3679

> <Gold.PLP.Chemscore.CHOScore>
1.0000

> <Gold.PLP.Chemscore.Metal>
0.0000

> <Gold.Chemscore.Hbonds>
donor molecule, donor type, donor heavy atom, donor atom, acceptor molecule, acceptor atom, score
      L1  H    19    44       P1 10174  0.83
      P1  H  7989  7998       L1     9  0.18
      L1  C    10    39       P1  7957  1.00

> <Gold.PLP.Chemscore.Internal.Correction>
0.7931

> <Gold.Rescore>
     Score         DG    S(hbond)    S(metal)    S(lipo)     H(rot)  DE(clash)    DE(int)     intcor
     10.00     -14.59       0.76        0.00     115.50       2.72       0.36       4.22       ----

> <Gold.Chemscore.Fitness>
9.9983

> <Gold.Chemscore.DG>
-14.5851

> <Gold.Chemscore.ZeroCoef>
-5.4800

> <Gold.Chemscore.Hbond>
0.7626

> <Gold.Chemscore.Metal>
0.0000

> <Gold.Chemscore.Lipo>
115.5035

> <Gold.Chemscore.Internal_Hbond>
0.0000

> <Gold.Chemscore.DEClash>
0.3640

> <Gold.Chemscore.DEInternal>
4.2228

> <Gold.Chemscore.Rot>
2.7172

> <Gold.Chemscore.Internal.Correction>
   9.000000E+99

> <Gold.Chemscore.Hbonds>
donor molecule, donor type, donor heavy atom, donor atom, acceptor molecule, acceptor atom, score
      L1  H    19    44       P1 10174  0.16
      P1  H  7989  7998       L1     9  0.12

> <Gold.Chemscore.Hbond.Weighted>
-2.5471

> <Gold.Chemscore.Metal.Weighted>
-0.0000

> <Gold.Chemscore.Lipo.Weighted>
-13.5139

> <Gold.Chemscore.Internal_Hbond.Weighted>
0.0000

> <Gold.Chemscore.DEClash.Weighted>
0.3640

> <Gold.Chemscore.DEInternal.Weighted>
4.2228

> <Gold.Chemscore.Rot.Weighted>
6.9560

> <Gold.Chemscore.Internal.Correction.Weighted>
   9.000000E+99

> <Gold.Protein.RotatedTorsions>
[ 6907 6896 6895 6894 ] final -144.49 input  -60.11 | X-H torsion
[ 7974 7965 7964 7962 ] final -140.31 input  175.53 | X-H torsion
[ 8008 7997 7996 7995 ] final  -97.87 input   59.86 | X-H torsion
[ 10167 10162 10161 10158 ] final  -93.02 input  -65.29 | X-H torsion
[ 10718 10713 10712 10709 ] final  139.13 input   66.30 | X-H torsion
[ 10763 10752 10751 10750 ] final  164.81 input  -60.55 | X-H torsion
[ 11005 11000 10999 10996 ] final  -89.38 input  -57.11 | X-H torsion

> <Gold.Protein.ActiveResidues>
 VAL166  LYS551  ARG553  GLY616  TRP617  ASP618  TYR619  PRO620  LYS621  CYS622 
 ASP623  PHE694  ASN695  SER759  ASP760  ASP761  ALA762  ILE779  LEU786  VAL792 
 PHE793  MET794  SER795  GLU796  ALA797  LYS798  CYS799  TRP800  GLU811  SER814 

> <Gold.Protein.RotatedAtoms>
  151.1148  133.5146  159.2604 H   0  0  0  0  0  0  0  0  0  0  0  0  # atno 6907 bound_to 6896
  151.1926  135.0408  159.8849 H   0  0  0  0  0  0  0  0  0  0  0  0  # atno 6908 bound_to 6896
  152.5452  134.0987  159.8361 H   0  0  0  0  0  0  0  0  0  0  0  0  # atno 6909 bound_to 6896
  144.8607  140.6215  143.5330 H   0  0  0  0  0  0  0  0  0  0  0  0  # atno 7974 bound_to 7965
  154.7936  140.0459  157.1220 H   0  0  0  0  0  0  0  0  0  0  0  0  # atno 8008 bound_to 7997
  154.9562  140.3071  155.5032 H   0  0  0  0  0  0  0  0  0  0  0  0  # atno 8009 bound_to 7997
  156.2953  140.2279  156.4643 H   0  0  0  0  0  0  0  0  0  0  0  0  # atno 8010 bound_to 7997
  140.3289  143.3006  151.9964 H   0  0  0  0  0  0  0  0  0  0  0  0  # atno 10167 bound_to 10162
  157.4178  131.1035  151.0386 H   0  0  0  0  0  0  0  0  0  0  0  0  # atno 10718 bound_to 10713
  154.3145  135.2757  155.2549 H   0  0  0  0  0  0  0  0  0  0  0  0  # atno 10763 bound_to 10752
  154.4930  135.5828  153.6477 H   0  0  0  0  0  0  0  0  0  0  0  0  # atno 10764 bound_to 10752
  152.9884  135.6139  154.3325 H   0  0  0  0  0  0  0  0  0  0  0  0  # atno 10765 bound_to 10752
  141.1585  133.7626  156.9586 H   0  0  0  0  0  0  0  0  0  0  0  0  # atno 11005 bound_to 11000
  145.4318  139.1548  143.4018 LP  0  0  0  0  0  0  0  0  0  0  0  0  # atno 17320 bound_to 7965
  146.2858  140.4434  142.8758 LP  0  0  0  0  0  0  0  0  0  0  0  0  # atno 17321 bound_to 7965
  139.4860  144.6251  151.7180 LP  0  0  0  0  0  0  0  0  0  0  0  0  # atno 17342 bound_to 10162
  140.5415  144.0571  150.6090 LP  0  0  0  0  0  0  0  0  0  0  0  0  # atno 17343 bound_to 10162
  157.1328  130.6109  149.5534 LP  0  0  0  0  0  0  0  0  0  0  0  0  # atno 17370 bound_to 10713
  155.9870  130.4908  150.7108 LP  0  0  0  0  0  0  0  0  0  0  0  0  # atno 17371 bound_to 10713
  140.1208  134.9418  157.2200 LP  0  0  0  0  0  0  0  0  0  0  0  0  # atno 17394 bound_to 11000
  140.3074  134.3062  155.7275 LP  0  0  0  0  0  0  0  0  0  0  0  0  # atno 17395 bound_to 11000

$$$$
