AV-unprocessed.smi:1164|AV-procd|sdf|4926|dock3
  -GOLD-   22720 3503D 1   1.00000     0.00000
 Structure written by MMmdl.
 30 30  0  0  0  0  0  0  0  0  2 V2000
  150.6726  145.0562  159.4655 C   0  0  0  0  0  0  0  0  0  0  0  0
  151.6915  143.9983  159.0059 C   0  0  0  0  0  0  0  0  0  0  0  0
  152.8216  144.6995  158.2226 C   0  0  0  0  0  0  0  0  0  0  0  0
  152.2571  143.2744  160.2461 C   0  0  0  0  0  0  0  0  0  0  0  0
  150.9681  143.0568  158.1432 N   0  0  0  0  0  0  0  0  0  0  0  0
  151.2599  141.7714  157.8752 C   0  0  0  0  0  0  0  0  0  0  0  0
  152.2356  141.1813  158.3415 O   0  0  0  0  0  0  0  0  0  0  0  0
  150.2846  141.0636  156.9209 C   0  0  0  0  0  0  0  0  0  0  0  0
  150.6113  139.6539  156.6593 N   0  0  0  0  0  0  0  0  0  0  0  0
  150.6546  138.8255  157.8611 N   0  5  0  0  0  0  0  0  0  0  0  0
  150.9263  137.4988  157.7418 C   0  0  0  0  0  0  0  0  0  0  0  0
  150.9607  136.7362  158.7049 O   0  0  0  0  0  0  0  0  0  0  0  0
  151.1900  136.9710  156.4133 C   0  0  0  0  0  0  0  0  0  0  0  0
  151.1658  137.7638  155.3238 C   0  0  0  0  0  0  0  0  0  0  0  0
  150.8715  139.1894  155.4036 C   0  0  0  0  0  0  0  0  0  0  0  0
  150.8551  139.9210  154.4134 O   0  0  0  0  0  0  0  0  0  0  0  0
  151.1352  145.7950  160.1208 H   0  0  0  0  0  0  0  0  0  0  0  0
  149.8473  144.6024  160.0157 H   0  0  0  0  0  0  0  0  0  0  0  0
  150.2462  145.5932  158.6171 H   0  0  0  0  0  0  0  0  0  0  0  0
  152.4414  145.1737  157.3170 H   0  0  0  0  0  0  0  0  0  0  0  0
  153.6076  144.0053  157.9257 H   0  0  0  0  0  0  0  0  0  0  0  0
  153.2935  145.4759  158.8254 H   0  0  0  0  0  0  0  0  0  0  0  0
  152.7162  143.9813  160.9379 H   0  0  0  0  0  0  0  0  0  0  0  0
  153.0223  142.5445  159.9814 H   0  0  0  0  0  0  0  0  0  0  0  0
  151.4726  142.7465  160.7897 H   0  0  0  0  0  0  0  0  0  0  0  0
  150.1429  143.4276  157.6949 H   0  0  0  0  0  0  0  0  0  0  0  0
  149.2756  141.1337  157.3312 H   0  0  0  0  0  0  0  0  0  0  0  0
  150.2579  141.6255  155.9855 H   0  0  0  0  0  0  0  0  0  0  0  0
  151.4127  135.9204  156.2983 H   0  0  0  0  0  0  0  0  0  0  0  0
  151.3692  137.3294  154.3565 H   0  0  0  0  0  0  0  0  0  0  0  0
  1  2  1  0  0  0  0
  1 17  1  0  0  0  0
  1 18  1  0  0  0  0
  1 19  1  0  0  0  0
  2  3  1  0  0  0  0
  2  4  1  0  0  0  0
  2  5  1  0  0  0  0
  3 20  1  0  0  0  0
  3 21  1  0  0  0  0
  3 22  1  0  0  0  0
  4 23  1  0  0  0  0
  4 24  1  0  0  0  0
  4 25  1  0  0  0  0
  5  6  1  0  0  0  0
  5 26  1  0  0  0  0
  6  7  2  0  0  0  0
  6  8  1  0  0  0  0
  8 27  1  0  0  0  0
  8 28  1  0  0  0  0
  8  9  1  0  0  0  0
  9 10  1  0  0  0  0
  9 15  1  0  0  0  0
 10 11  1  0  0  0  0
 11 12  2  0  0  0  0
 11 13  1  0  0  0  0
 13 29  1  0  0  0  0
 13 14  2  0  0  0  0
 14 30  1  0  0  0  0
 14 15  1  0  0  0  0
 15 16  2  0  0  0  0
M  CHG  1  10  -1
M  END
> <s_m_source_file>
AV-unprocessed.smi

> <i_m_source_file_index>
1164

> <i_lp_mmshare_version>
43012

> <i_f3d_flags>
0

> <s_epik_input>
W0NIM11DKFtDSDNdKShbQ0gzXSlbTkhdQyg9TylbQ0gyXW4xW25IXWMoPU8pW2NIXVtjSF1jMT1P

> <s_epik_cmdline>
J2VwaWtfcHl0aG9uJywgJy1waCcsICc3LjAnLCAnLXRuJywgJzgnLCAnLW1hJywgJzIwMCcsICctbWV0YWxfYmluZGluZycsICctaW1hZScsICc8aW5maWxlLm1hZT4nLCAnLW9tYWUnLCAnPG91dGZpbGUubWFlPic=

> <r_lp_tautomer_probability>
1

> <r_epik_Ionization_Penalty>
0.098909

> <r_epik_Ionization_Penalty_Charging>
0.0989089

> <r_epik_Ionization_Penalty_Neutral>
2.46306e-08

> <r_epik_State_Penalty>
0.0348838

> <r_epik_Charging_Adjusted_Penalty>
0.133793

> <i_epik_Tot_Q>
-1

> <i_epik_Tot_abs_Q>
1

> <r_epik_Metal_State_Penalty>
0.0348839

> <b_epik_Metal_Only>
0

> <s_lp_Force_Field>
OPLS_2005

> <r_lp_Energy>
18.541

> <b_lp_Chiralities_Consistent>
1

> <s_lp_Variant>
AV-unprocessed.smi:1164-1

> <Gold.Version>
5.8.1

> <Gold.Id.Protein>
6NUR|6NUR_protein|mol2

> <Gold.PLP.Fitness>
34.1694

> <Gold.PLP.PLP>
-29.4742

> <Gold.PLP.part.hbond>
-2.0000

> <Gold.PLP.part.metal>
0.0000

> <Gold.PLP.part.buried>
-5.9709

> <Gold.PLP.part.nonpolar>
-22.4455

> <Gold.PLP.part.repulsive>
0.1425

> <Gold.PLP.ligand.clash>
0.0000

> <Gold.PLP.ligand.torsion>
0.5237

> <Gold.PLP.Chemscore.Hbond>
1.9120

> <Gold.PLP.Chemscore.CHOScore>
0.0000

> <Gold.PLP.Chemscore.Metal>
0.0000

> <Gold.Chemscore.Hbonds>
donor molecule, donor type, donor heavy atom, donor atom, acceptor molecule, acceptor atom, score
      P1  H  6896  6909       L1    12  0.94
      P1  H  7989  7998       L1    16  0.99

> <Gold.PLP.Chemscore.Internal.Correction>
0.0067

> <Gold.Rescore>
     Score         DG    S(hbond)    S(metal)    S(lipo)     H(rot)  DE(clash)    DE(int)     intcor
     13.44     -15.44       2.01        0.00      64.92       1.70       0.09       1.90       ----

> <Gold.Chemscore.Fitness>
13.4384

> <Gold.Chemscore.DG>
-15.4351

> <Gold.Chemscore.ZeroCoef>
-5.4800

> <Gold.Chemscore.Hbond>
2.0057

> <Gold.Chemscore.Metal>
0.0000

> <Gold.Chemscore.Lipo>
64.9170

> <Gold.Chemscore.Internal_Hbond>
0.0000

> <Gold.Chemscore.DEClash>
0.0928

> <Gold.Chemscore.DEInternal>
1.9038

> <Gold.Chemscore.Rot>
1.6950

> <Gold.Chemscore.Internal.Correction>
   9.000000E+99

> <Gold.Chemscore.Hbonds>
donor molecule, donor type, donor heavy atom, donor atom, acceptor molecule, acceptor atom, score
      P1  H  6896  6909       L1    12  0.87
      P1  H  7989  7998       L1    16  0.92

> <Gold.Chemscore.Hbond.Weighted>
-6.6991

> <Gold.Chemscore.Metal.Weighted>
-0.0000

> <Gold.Chemscore.Lipo.Weighted>
-7.5953

> <Gold.Chemscore.Internal_Hbond.Weighted>
0.0000

> <Gold.Chemscore.DEClash.Weighted>
0.0928

> <Gold.Chemscore.DEInternal.Weighted>
1.9038

> <Gold.Chemscore.Rot.Weighted>
4.3393

> <Gold.Chemscore.Internal.Correction.Weighted>
   9.000000E+99

> <Gold.Protein.RotatedTorsions>
[ 6907 6896 6895 6894 ] final   98.20 input  -60.11 | X-H torsion
[ 7974 7965 7964 7962 ] final  -93.81 input  175.53 | X-H torsion
[ 8008 7997 7996 7995 ] final  117.60 input   59.86 | X-H torsion
[ 10167 10162 10161 10158 ] final -175.82 input  -65.29 | X-H torsion
[ 10718 10713 10712 10709 ] final  -17.19 input   66.30 | X-H torsion
[ 10763 10752 10751 10750 ] final  -32.70 input  -60.55 | X-H torsion
[ 11005 11000 10999 10996 ] final  147.50 input  -57.11 | X-H torsion

> <Gold.Protein.ActiveResidues>
 VAL166  LYS551  ARG553  GLY616  TRP617  ASP618  TYR619  PRO620  LYS621  CYS622 
 ASP623  PHE694  ASN695  SER759  ASP760  ASP761  ALA762  ILE779  LEU786  VAL792 
 PHE793  MET794  SER795  GLU796  ALA797  LYS798  CYS799  TRP800  GLU811  SER814 

> <Gold.Protein.RotatedAtoms>
  152.5413  134.0617  159.8154 H   0  0  0  0  0  0  0  0  0  0  0  0  # atno 6907 bound_to 6896
  151.0744  133.5432  159.2632 H   0  0  0  0  0  0  0  0  0  0  0  0  # atno 6908 bound_to 6896
  151.2283  135.0553  159.9031 H   0  0  0  0  0  0  0  0  0  0  0  0  # atno 6909 bound_to 6896
  145.3816  140.9518  143.2390 H   0  0  0  0  0  0  0  0  0  0  0  0  # atno 7974 bound_to 7965
  156.2502  140.2893  156.0703 H   0  0  0  0  0  0  0  0  0  0  0  0  # atno 8008 bound_to 7997
  155.1678  140.0401  157.2874 H   0  0  0  0  0  0  0  0  0  0  0  0  # atno 8009 bound_to 7997
  154.6347  140.2508  155.7399 H   0  0  0  0  0  0  0  0  0  0  0  0  # atno 8010 bound_to 7997
  139.5561  144.1986  152.1161 H   0  0  0  0  0  0  0  0  0  0  0  0  # atno 10167 bound_to 10162
  156.5770  130.4764  149.6337 H   0  0  0  0  0  0  0  0  0  0  0  0  # atno 10718 bound_to 10713
  153.8181  135.6876  153.4831 H   0  0  0  0  0  0  0  0  0  0  0  0  # atno 10763 bound_to 10752
  153.1586  135.4589  154.9738 H   0  0  0  0  0  0  0  0  0  0  0  0  # atno 10764 bound_to 10752
  154.7939  135.3312  154.7655 H   0  0  0  0  0  0  0  0  0  0  0  0  # atno 10765 bound_to 10752
  140.0881  134.9057  157.1607 H   0  0  0  0  0  0  0  0  0  0  0  0  # atno 11005 bound_to 11000
  144.8503  139.5332  143.6859 LP  0  0  0  0  0  0  0  0  0  0  0  0  # atno 17320 bound_to 7965
  146.2839  139.6952  142.9209 LP  0  0  0  0  0  0  0  0  0  0  0  0  # atno 17321 bound_to 7965
  140.1490  144.5132  150.6698 LP  0  0  0  0  0  0  0  0  0  0  0  0  # atno 17342 bound_to 10162
  140.6834  143.2338  151.5325 LP  0  0  0  0  0  0  0  0  0  0  0  0  # atno 17343 bound_to 10162
  156.2664  130.6992  151.1776 LP  0  0  0  0  0  0  0  0  0  0  0  0  # atno 17370 bound_to 10713
  157.7335  131.0590  150.5573 LP  0  0  0  0  0  0  0  0  0  0  0  0  # atno 17371 bound_to 10713
  140.3392  134.2723  155.7215 LP  0  0  0  0  0  0  0  0  0  0  0  0  # atno 17394 bound_to 11000
  141.2069  133.7821  157.0151 LP  0  0  0  0  0  0  0  0  0  0  0  0  # atno 17395 bound_to 11000

$$$$
