AV-unprocessed.smi:3195|AV-procd|sdf|12219|dock1
  -GOLD-   2272018 53D 1   1.00000     0.00000
 Structure written by MMmdl.
 29 30  0  0  0  0  0  0  0  0  2 V2000
  149.4761  140.6161  154.6328 C   0  0  0  0  0  0  0  0  0  0  0  0
  150.6106  140.0629  155.5125 C   0  0  1  0  0  0  0  0  0  0  0  0
  150.8800  141.0106  156.7020 C   0  0  0  0  0  0  0  0  0  0  0  0
  150.1854  142.0200  156.8309 O   0  0  0  0  0  0  0  0  0  0  0  0
  151.8822  140.6698  157.5352 N   0  0  0  0  0  0  0  0  0  0  0  0
  152.3386  141.3366  158.7055 C   0  0  0  0  0  0  0  0  0  0  0  0
  151.7106  142.4204  159.2279 N   0  0  0  0  0  0  0  0  0  0  0  0
  152.2062  142.9994  160.3407 C   0  0  0  0  0  0  0  0  0  0  0  0
  153.3569  142.5372  161.0029 C   0  0  0  0  0  0  0  0  0  0  0  0
  154.0179  141.4148  160.4748 C   0  0  0  0  0  0  0  0  0  0  0  0
  153.5060  140.8030  159.3130 C   0  0  0  0  0  0  0  0  0  0  0  0
  154.1493  139.7087  158.8010 O   0  5  0  0  0  0  0  0  0  0  0  0
  150.3292  138.6164  155.9849 C   0  0  0  0  0  0  0  0  0  0  0  0
  151.4018  137.7782  155.3107 C   0  0  0  0  0  0  0  0  0  0  0  0
  152.5067  138.7910  155.0587 C   0  0  0  0  0  0  0  0  0  0  0  0
  151.7796  139.9538  154.6932 O   0  0  0  0  0  0  0  0  0  0  0  0
  148.5357  140.6762  155.1820 H   0  0  0  0  0  0  0  0  0  0  0  0
  149.3103  139.9794  153.7632 H   0  0  0  0  0  0  0  0  0  0  0  0
  149.7121  141.6156  154.2657 H   0  0  0  0  0  0  0  0  0  0  0  0
  152.3801  139.8198  157.3113 H   0  0  0  0  0  0  0  0  0  0  0  0
  151.6681  143.8580  160.7142 H   0  0  0  0  0  0  0  0  0  0  0  0
  153.7221  143.0296  161.8915 H   0  0  0  0  0  0  0  0  0  0  0  0
  154.9048  141.0298  160.9565 H   0  0  0  0  0  0  0  0  0  0  0  0
  150.4207  138.5167  157.0679 H   0  0  0  0  0  0  0  0  0  0  0  0
  149.3299  138.2708  155.7183 H   0  0  0  0  0  0  0  0  0  0  0  0
  151.7291  136.9323  155.9156 H   0  0  0  0  0  0  0  0  0  0  0  0
  151.0296  137.3945  154.3598 H   0  0  0  0  0  0  0  0  0  0  0  0
  153.0800  138.9800  155.9675 H   0  0  0  0  0  0  0  0  0  0  0  0
  153.1952  138.4819  154.2723 H   0  0  0  0  0  0  0  0  0  0  0  0
  1  2  1  0  0  0  0
  1 17  1  0  0  0  0
  1 18  1  0  0  0  0
  1 19  1  0  0  0  0
  2 16  1  0  0  0  0
  2  3  1  0  0  0  0
  2 13  1  0  0  0  0
  3  4  2  0  0  0  0
  3  5  1  0  0  0  0
  5 20  1  0  0  0  0
  5  6  1  0  0  0  0
  6 11  2  0  0  0  0
  6  7  1  0  0  0  0
  7  8  2  0  0  0  0
  8 21  1  0  0  0  0
  8  9  1  0  0  0  0
  9 22  1  0  0  0  0
  9 10  2  0  0  0  0
 10 11  1  0  0  0  0
 10 23  1  0  0  0  0
 11 12  1  0  0  0  0
 13 14  1  0  0  0  0
 13 24  1  0  0  0  0
 13 25  1  0  0  0  0
 14 15  1  0  0  0  0
 14 26  1  0  0  0  0
 14 27  1  0  0  0  0
 15 16  1  0  0  0  0
 15 28  1  0  0  0  0
 15 29  1  0  0  0  0
M  CHG  1  12  -1
M  END
> <s_m_source_file>
AV-unprocessed.smi

> <i_m_source_file_index>
3195

> <i_lp_mmshare_version>
43012

> <i_f3d_flags>
0

> <s_epik_input>
TzFbQ0gyXVtDSDJdW0NIMl1bQ0BAXTEoW0NIM10pQyg9TylbTkhdYzJuW2NIXVtjSF1bY0hdYzJbT0hd

> <s_epik_cmdline>
J2VwaWtfcHl0aG9uJywgJy1waCcsICc3LjAnLCAnLXRuJywgJzgnLCAnLW1hJywgJzIwMCcsICctbWV0YWxfYmluZGluZycsICctaW1hZScsICc8aW5maWxlLm1hZT4nLCAnLW9tYWUnLCAnPG91dGZpbGUubWFlPic=

> <r_epik_Ionization_Penalty>
4.16712

> <r_epik_Ionization_Penalty_Charging>
2.09898

> <r_epik_Ionization_Penalty_Neutral>
2.06814

> <r_epik_State_Penalty>
2.6848

> <r_epik_Charging_Adjusted_Penalty>
4.78378

> <i_epik_Tot_Q>
-1

> <i_epik_Tot_abs_Q>
1

> <r_epik_Metal_State_Penalty>
0.595229

> <b_epik_Metal_Only>
0

> <s_lp_Force_Field>
OPLS_2005

> <r_lp_Energy>
19.5688

> <b_lp_Chiralities_Consistent>
1

> <s_lp_Variant>
AV-unprocessed.smi:3195-7

> <Gold.Version>
5.8.1

> <Gold.Id.Protein>
6NUR|6NUR_protein|mol2

> <Gold.PLP.Fitness>
40.6043

> <Gold.PLP.PLP>
-31.6195

> <Gold.PLP.part.hbond>
-1.7754

> <Gold.PLP.part.metal>
0.0000

> <Gold.PLP.part.buried>
-3.8797

> <Gold.PLP.part.nonpolar>
-26.0914

> <Gold.PLP.part.repulsive>
0.2755

> <Gold.PLP.ligand.clash>
0.0000

> <Gold.PLP.ligand.torsion>
0.0247

> <Gold.PLP.Chemscore.Hbond>
3.0000

> <Gold.PLP.Chemscore.CHOScore>
0.0000

> <Gold.PLP.Chemscore.Metal>
0.0000

> <Gold.Chemscore.Hbonds>
donor molecule, donor type, donor heavy atom, donor atom, acceptor molecule, acceptor atom, score
      P1  H  7989  7998       L1    16  0.93
      P1  H  7997  8010       L1    12  2.00

> <Gold.PLP.Chemscore.Internal.Correction>
0.0341

> <Gold.Rescore>
     Score         DG    S(hbond)    S(metal)    S(lipo)     H(rot)  DE(clash)    DE(int)     intcor
     16.33     -17.68       1.91        0.00      71.64       1.00       0.02       1.33       ----

> <Gold.Chemscore.Fitness>
16.3309

> <Gold.Chemscore.DG>
-17.6807

> <Gold.Chemscore.ZeroCoef>
-5.4800

> <Gold.Chemscore.Hbond>
1.9099

> <Gold.Chemscore.Metal>
0.0000

> <Gold.Chemscore.Lipo>
71.6386

> <Gold.Chemscore.Internal_Hbond>
0.0000

> <Gold.Chemscore.DEClash>
0.0195

> <Gold.Chemscore.DEInternal>
1.3303

> <Gold.Chemscore.Rot>
1.0000

> <Gold.Chemscore.Internal.Correction>
   9.000000E+99

> <Gold.Chemscore.Hbonds>
donor molecule, donor type, donor heavy atom, donor atom, acceptor molecule, acceptor atom, score
      P1  H  7989  7998       L1    16  0.62
      P1  H  7997  8010       L1    12  0.77

> <Gold.Chemscore.Hbond.Weighted>
-6.3790

> <Gold.Chemscore.Metal.Weighted>
-0.0000

> <Gold.Chemscore.Lipo.Weighted>
-8.3817

> <Gold.Chemscore.Internal_Hbond.Weighted>
0.0000

> <Gold.Chemscore.DEClash.Weighted>
0.0195

> <Gold.Chemscore.DEInternal.Weighted>
1.3303

> <Gold.Chemscore.Rot.Weighted>
2.5600

> <Gold.Chemscore.Internal.Correction.Weighted>
   9.000000E+99

> <Gold.Protein.RotatedTorsions>
[ 6907 6896 6895 6894 ] final  -89.32 input  -60.11 | X-H torsion
[ 7974 7965 7964 7962 ] final   66.29 input  175.53 | X-H torsion
[ 8008 7997 7996 7995 ] final   24.01 input   59.86 | X-H torsion
[ 10167 10162 10161 10158 ] final  101.21 input  -65.29 | X-H torsion
[ 10718 10713 10712 10709 ] final  -50.60 input   66.30 | X-H torsion
[ 10763 10752 10751 10750 ] final   79.03 input  -60.55 | X-H torsion
[ 11005 11000 10999 10996 ] final   18.61 input  -57.11 | X-H torsion

> <Gold.Protein.ActiveResidues>
 VAL166  LYS551  ARG553  GLY616  TRP617  ASP618  TYR619  PRO620  LYS621  CYS622 
 ASP623  PHE694  ASN695  SER759  ASP760  ASP761  ALA762  ILE779  LEU786  VAL792 
 PHE793  MET794  SER795  GLU796  ALA797  LYS798  CYS799  TRP800  GLU811  SER814 

> <Gold.Protein.RotatedAtoms>
  150.6873  134.2606  159.4547 H   0  0  0  0  0  0  0  0  0  0  0  0  # atno 6907 bound_to 6896
  152.0536  134.9636  160.0584 H   0  0  0  0  0  0  0  0  0  0  0  0  # atno 6908 bound_to 6896
  152.1090  133.4256  159.4659 H   0  0  0  0  0  0  0  0  0  0  0  0  # atno 6909 bound_to 6896
  145.8283  139.3124  143.1002 H   0  0  0  0  0  0  0  0  0  0  0  0  # atno 7974 bound_to 7965
  154.9897  140.3112  155.4911 H   0  0  0  0  0  0  0  0  0  0  0  0  # atno 8008 bound_to 7997
  156.2941  140.2251  156.4941 H   0  0  0  0  0  0  0  0  0  0  0  0  # atno 8009 bound_to 7997
  154.7714  140.0452  157.1043 H   0  0  0  0  0  0  0  0  0  0  0  0  # atno 8010 bound_to 7997
  139.7458  144.6998  151.0506 H   0  0  0  0  0  0  0  0  0  0  0  0  # atno 10167 bound_to 10162
  156.1786  130.4150  149.9540 H   0  0  0  0  0  0  0  0  0  0  0  0  # atno 10718 bound_to 10713
  153.0921  135.4855  154.8709 H   0  0  0  0  0  0  0  0  0  0  0  0  # atno 10763 bound_to 10752
  154.7281  135.3054  154.8939 H   0  0  0  0  0  0  0  0  0  0  0  0  # atno 10764 bound_to 10752
  153.9583  135.6815  153.4798 H   0  0  0  0  0  0  0  0  0  0  0  0  # atno 10765 bound_to 10752
  140.4229  134.1499  155.7674 H   0  0  0  0  0  0  0  0  0  0  0  0  # atno 11005 bound_to 11000
  145.9599  140.8844  143.0216 LP  0  0  0  0  0  0  0  0  0  0  0  0  # atno 17320 bound_to 7965
  144.6742  140.1797  143.7407 LP  0  0  0  0  0  0  0  0  0  0  0  0  # atno 17321 bound_to 7965
  140.7792  143.4868  150.9945 LP  0  0  0  0  0  0  0  0  0  0  0  0  # atno 17342 bound_to 10162
  139.8556  143.7381  152.3176 LP  0  0  0  0  0  0  0  0  0  0  0  0  # atno 17343 bound_to 10162
  156.7318  130.9046  151.3626 LP  0  0  0  0  0  0  0  0  0  0  0  0  # atno 17370 bound_to 10713
  157.6853  130.9179  150.0370 LP  0  0  0  0  0  0  0  0  0  0  0  0  # atno 17371 bound_to 10713
  141.1777  133.8480  157.1367 LP  0  0  0  0  0  0  0  0  0  0  0  0  # atno 17394 bound_to 11000
  140.0187  134.9955  157.0547 LP  0  0  0  0  0  0  0  0  0  0  0  0  # atno 17395 bound_to 11000

$$$$
