AV-unprocessed.smi:2128|AV-procd|sdf|8681|dock1
  -GOLD-   2272011433D 1   1.00000     0.00000
 Structure written by MMmdl.
 50 52  0  0  0  0  0  0  0  0  1 V2000
  156.4759  130.3734  154.2359 O   0  0  0  0  0  0  0  0  0  0  0  0
  156.9352  131.5104  154.3186 C   0  0  0  0  0  0  0  0  0  0  0  0
  156.6428  132.3554  155.5722 C   0  0  0  0  0  0  0  0  0  0  0  0
  157.0899  133.7554  155.5190 N   0  0  0  0  0  0  0  0  0  0  0  0
  156.6281  134.6156  156.5467 C   0  0  0  0  0  0  0  0  0  0  0  0
  156.8743  134.3248  157.9123 C   0  0  0  0  0  0  0  0  0  0  0  0
  156.3966  135.2008  158.9059 C   0  0  0  0  0  0  0  0  0  0  0  0
  155.6854  136.3582  158.5157 C   0  0  0  0  0  0  0  0  0  0  0  0
  155.1366  137.3056  159.4216 N   0  0  0  0  0  0  0  0  0  0  0  0
  154.4504  138.4267  159.1423 C   0  0  0  0  0  0  0  0  0  0  0  0
  154.1668  138.8227  158.0119 O   0  0  0  0  0  0  0  0  0  0  0  0
  154.0793  139.0586  160.2655 N   0  0  0  0  0  0  0  0  0  0  0  0
  153.2708  140.2738  160.3293 C   0  0  0  0  0  0  0  0  0  0  0  0
  154.0626  141.5195  159.8849 C   0  0  0  0  0  0  0  0  0  0  0  0
  153.2202  142.7816  159.7734 C   0  0  0  0  0  0  0  0  0  0  0  0
  153.1891  143.5186  158.6457 C   0  0  0  0  0  0  0  0  0  0  0  0
  152.3557  144.7752  158.4696 C   0  0  0  0  0  0  0  0  0  0  0  0
  151.2854  144.9262  159.5634 C   0  0  0  0  0  0  0  0  0  0  0  0
  151.8565  144.5929  160.9471 C   0  0  0  0  0  0  0  0  0  0  0  0
  152.3943  143.1518  161.0006 C   0  0  0  0  0  0  0  0  0  0  0  0
  155.4769  136.5598  157.1381 C   0  0  0  0  0  0  0  0  0  0  0  0
  155.9353  135.7238  156.1838 N   0  0  0  0  0  0  0  0  0  0  0  0
  157.4431  134.3385  154.2214 C   0  0  0  0  0  0  0  0  0  0  0  0
  158.2854  133.3621  153.3891 C   0  0  0  0  0  0  0  0  0  0  0  0
  157.6775  132.0400  153.3342 N   0  0  0  0  0  0  0  0  0  0  0  0
  155.5690  132.3216  155.7639 H   0  0  0  0  0  0  0  0  0  0  0  0
  157.1384  131.8545  156.4041 H   0  0  0  0  0  0  0  0  0  0  0  0
  157.4233  133.4484  158.2204 H   0  0  0  0  0  0  0  0  0  0  0  0
  156.5745  134.9593  159.9422 H   0  0  0  0  0  0  0  0  0  0  0  0
  155.2178  137.0667  160.3991 H   0  0  0  0  0  0  0  0  0  0  0  0
  154.3582  138.6556  161.1483 H   0  0  0  0  0  0  0  0  0  0  0  0
  152.4159  140.1383  159.6668 H   0  0  0  0  0  0  0  0  0  0  0  0
  152.8525  140.4152  161.3269 H   0  0  0  0  0  0  0  0  0  0  0  0
  154.8761  141.6931  160.5907 H   0  0  0  0  0  0  0  0  0  0  0  0
  154.5360  141.3327  158.9204 H   0  0  0  0  0  0  0  0  0  0  0  0
  153.7991  143.2330  157.8010 H   0  0  0  0  0  0  0  0  0  0  0  0
  153.0320  145.6305  158.4842 H   0  0  0  0  0  0  0  0  0  0  0  0
  151.8830  144.7599  157.4874 H   0  0  0  0  0  0  0  0  0  0  0  0
  150.8809  145.9387  159.5525 H   0  0  0  0  0  0  0  0  0  0  0  0
  150.4503  144.2575  159.3510 H   0  0  0  0  0  0  0  0  0  0  0  0
  152.6638  145.2894  161.1785 H   0  0  0  0  0  0  0  0  0  0  0  0
  151.0968  144.7353  161.7159 H   0  0  0  0  0  0  0  0  0  0  0  0
  151.5654  142.4469  161.0720 H   0  0  0  0  0  0  0  0  0  0  0  0
  152.9886  143.0276  161.9054 H   0  0  0  0  0  0  0  0  0  0  0  0
  154.9288  137.4217  156.7864 H   0  0  0  0  0  0  0  0  0  0  0  0
  156.5267  134.5944  153.6870 H   0  0  0  0  0  0  0  0  0  0  0  0
  158.0149  135.2594  154.3441 H   0  0  0  0  0  0  0  0  0  0  0  0
  158.4179  133.7419  152.3758 H   0  0  0  0  0  0  0  0  0  0  0  0
  159.2808  133.2622  153.8242 H   0  0  0  0  0  0  0  0  0  0  0  0
  157.8523  131.4816  152.5113 H   0  0  0  0  0  0  0  0  0  0  0  0
  1  2  2  0  0  0  0
  2 25  1  0  0  0  0
  2  3  1  0  0  0  0
  3  4  1  0  0  0  0
  3 26  1  0  0  0  0
  3 27  1  0  0  0  0
  4  5  1  0  0  0  0
  4 23  1  0  0  0  0
  5 22  1  0  0  0  0
  5  6  2  0  0  0  0
  6  7  1  0  0  0  0
  6 28  1  0  0  0  0
  7  8  2  0  0  0  0
  7 29  1  0  0  0  0
  8  9  1  0  0  0  0
  8 21  1  0  0  0  0
  9 10  1  0  0  0  0
  9 30  1  0  0  0  0
 10 11  2  0  0  0  0
 10 12  1  0  0  0  0
 12 13  1  0  0  0  0
 12 31  1  0  0  0  0
 13 14  1  0  0  0  0
 13 32  1  0  0  0  0
 13 33  1  0  0  0  0
 14 15  1  0  0  0  0
 14 34  1  0  0  0  0
 14 35  1  0  0  0  0
 15 20  1  0  0  0  0
 15 16  2  0  0  0  0
 16 17  1  0  0  0  0
 16 36  1  0  0  0  0
 17 18  1  0  0  0  0
 17 37  1  0  0  0  0
 17 38  1  0  0  0  0
 18 19  1  0  0  0  0
 18 39  1  0  0  0  0
 18 40  1  0  0  0  0
 19 20  1  0  0  0  0
 19 41  1  0  0  0  0
 19 42  1  0  0  0  0
 20 43  1  0  0  0  0
 20 44  1  0  0  0  0
 21 22  2  0  0  0  0
 21 45  1  0  0  0  0
 23 24  1  0  0  0  0
 23 46  1  0  0  0  0
 23 47  1  0  0  0  0
 24 25  1  0  0  0  0
 24 48  1  0  0  0  0
 24 49  1  0  0  0  0
 25 50  1  0  0  0  0
M  END
> <s_m_source_file>
AV-unprocessed.smi

> <i_m_source_file_index>
2128

> <i_lp_mmshare_version>
43012

> <i_f3d_flags>
0

> <s_epik_input>
Tz1DMVtDSDJdTihbQ0gyXVtDSDJdW05IXTEpYzJbY0hdW2NIXWMoW2NIXW4yKVtOSF1DKD1PKVtOSF1bQ0gyXVtDSDJdQzM9W0NIXVtDSDJdW0NIMl1bQ0gyXVtDSDJdMw==

> <s_epik_cmdline>
J2VwaWtfcHl0aG9uJywgJy1waCcsICc3LjAnLCAnLXRuJywgJzgnLCAnLW1hJywgJzIwMCcsICctbWV0YWxfYmluZGluZycsICctaW1hZScsICc8aW5maWxlLm1hZT4nLCAnLW9tYWUnLCAnPG91dGZpbGUubWFlPic=

> <r_lp_tautomer_probability>
1

> <r_epik_Ionization_Penalty>
0.0211825

> <r_epik_Ionization_Penalty_Charging>
0

> <r_epik_Ionization_Penalty_Neutral>
0.0211825

> <r_epik_State_Penalty>
0.0169697

> <r_epik_Charging_Adjusted_Penalty>
0.0169697

> <i_epik_Tot_Q>
0

> <i_epik_Tot_abs_Q>
0

> <r_epik_Metal_State_Penalty>
0.0163833

> <b_epik_Metal_Only>
0

> <s_lp_Force_Field>
OPLS_2005

> <r_lp_Energy>
24.085

> <b_lp_Chiralities_Consistent>
1

> <s_lp_Variant>
AV-unprocessed.smi:2128-1

> <Gold.Version>
5.8.1

> <Gold.Id.Protein>
6NUR|6NUR_protein|mol2

> <Gold.PLP.Fitness>
45.7170

> <Gold.PLP.PLP>
-39.9168

> <Gold.PLP.part.hbond>
-2.9124

> <Gold.PLP.part.metal>
0.0000

> <Gold.PLP.part.buried>
-4.9661

> <Gold.PLP.part.nonpolar>
-33.4206

> <Gold.PLP.part.repulsive>
0.0856

> <Gold.PLP.ligand.clash>
0.0000

> <Gold.PLP.ligand.torsion>
0.8671

> <Gold.PLP.Chemscore.Hbond>
2.4462

> <Gold.PLP.Chemscore.CHOScore>
0.0000

> <Gold.PLP.Chemscore.Metal>
0.0000

> <Gold.Chemscore.Hbonds>
donor molecule, donor type, donor heavy atom, donor atom, acceptor molecule, acceptor atom, score
      L1  H    25    50       P1 10713  0.10
      P1  H  7997  8009       L1    11  1.00
      P1  H 10752 10765       L1    22  1.00

> <Gold.PLP.Chemscore.Internal.Correction>
0.1958

> <Gold.Rescore>
     Score         DG    S(hbond)    S(metal)    S(lipo)     H(rot)  DE(clash)    DE(int)     intcor
     20.03     -22.49       2.10        0.00     116.16       1.41       0.01       2.45       ----

> <Gold.Chemscore.Fitness>
20.0334

> <Gold.Chemscore.DG>
-22.4933

> <Gold.Chemscore.ZeroCoef>
-5.4800

> <Gold.Chemscore.Hbond>
2.1045

> <Gold.Chemscore.Metal>
0.0000

> <Gold.Chemscore.Lipo>
116.1581

> <Gold.Chemscore.Internal_Hbond>
0.0000

> <Gold.Chemscore.DEClash>
0.0109

> <Gold.Chemscore.DEInternal>
2.4490

> <Gold.Chemscore.Rot>
1.4087

> <Gold.Chemscore.Internal.Correction>
   9.000000E+99

> <Gold.Chemscore.Hbonds>
donor molecule, donor type, donor heavy atom, donor atom, acceptor molecule, acceptor atom, score
      L1  H    25    50       P1 10713  0.03
      P1  H  7997  8009       L1    11  0.96
      P1  H 10752 10765       L1    22  0.64

> <Gold.Chemscore.Hbond.Weighted>
-7.0289

> <Gold.Chemscore.Metal.Weighted>
-0.0000

> <Gold.Chemscore.Lipo.Weighted>
-13.5905

> <Gold.Chemscore.Internal_Hbond.Weighted>
0.0000

> <Gold.Chemscore.DEClash.Weighted>
0.0109

> <Gold.Chemscore.DEInternal.Weighted>
2.4490

> <Gold.Chemscore.Rot.Weighted>
3.6061

> <Gold.Chemscore.Internal.Correction.Weighted>
   9.000000E+99

> <Gold.Protein.RotatedTorsions>
[ 6907 6896 6895 6894 ] final    8.49 input  -60.11 | X-H torsion
[ 7974 7965 7964 7962 ] final  -38.85 input  175.53 | X-H torsion
[ 8008 7997 7996 7995 ] final  143.31 input   59.86 | X-H torsion
[ 10167 10162 10161 10158 ] final   -4.16 input  -65.29 | X-H torsion
[ 10718 10713 10712 10709 ] final  -63.11 input   66.30 | X-H torsion
[ 10763 10752 10751 10750 ] final  -45.05 input  -60.55 | X-H torsion
[ 11005 11000 10999 10996 ] final  -42.65 input  -57.11 | X-H torsion

> <Gold.Protein.ActiveResidues>
 VAL166  LYS551  ARG553  GLY616  TRP617  ASP618  TYR619  PRO620  LYS621  CYS622 
 ASP623  PHE694  ASN695  SER759  ASP760  ASP761  ALA762  ILE779  LEU786  VAL792 
 PHE793  MET794  SER795  GLU796  ALA797  LYS798  CYS799  TRP800  GLU811  SER814 

> <Gold.Protein.RotatedAtoms>
  151.7069  135.0920  160.0260 H   0  0  0  0  0  0  0  0  0  0  0  0  # atno 6907 bound_to 6896
  152.3686  133.6384  159.6078 H   0  0  0  0  0  0  0  0  0  0  0  0  # atno 6908 bound_to 6896
  150.7656  133.9224  159.3443 H   0  0  0  0  0  0  0  0  0  0  0  0  # atno 6909 bound_to 6896
  146.0449  140.6559  142.9069 H   0  0  0  0  0  0  0  0  0  0  0  0  # atno 7974 bound_to 7965
  156.2932  140.2265  156.4870 H   0  0  0  0  0  0  0  0  0  0  0  0  # atno 8008 bound_to 7997
  154.7803  140.0460  157.1143 H   0  0  0  0  0  0  0  0  0  0  0  0  # atno 8009 bound_to 7997
  154.9766  140.3073  155.4968 H   0  0  0  0  0  0  0  0  0  0  0  0  # atno 8010 bound_to 7997
  140.6917  143.6456  150.8396 H   0  0  0  0  0  0  0  0  0  0  0  0  # atno 10167 bound_to 10162
  156.0812  130.4217  150.1230 H   0  0  0  0  0  0  0  0  0  0  0  0  # atno 10718 bound_to 10713
  154.0222  135.6667  153.4773 H   0  0  0  0  0  0  0  0  0  0  0  0  # atno 10763 bound_to 10752
  153.0575  135.5047  154.8012 H   0  0  0  0  0  0  0  0  0  0  0  0  # atno 10764 bound_to 10752
  154.6930  135.3065  154.9416 H   0  0  0  0  0  0  0  0  0  0  0  0  # atno 10765 bound_to 10752
  141.0330  133.6812  156.2624 H   0  0  0  0  0  0  0  0  0  0  0  0  # atno 11005 bound_to 11000
  144.7093  140.3976  143.7093 LP  0  0  0  0  0  0  0  0  0  0  0  0  # atno 17320 bound_to 7965
  145.6822  139.1621  143.2694 LP  0  0  0  0  0  0  0  0  0  0  0  0  # atno 17321 bound_to 7965
  140.0169  143.5583  152.2816 LP  0  0  0  0  0  0  0  0  0  0  0  0  # atno 17342 bound_to 10162
  139.6327  144.7646  151.2502 LP  0  0  0  0  0  0  0  0  0  0  0  0  # atno 17343 bound_to 10162
  156.9261  130.9698  151.3540 LP  0  0  0  0  0  0  0  0  0  0  0  0  # atno 17370 bound_to 10713
  157.5929  130.8457  149.8686 LP  0  0  0  0  0  0  0  0  0  0  0  0  # atno 17371 bound_to 10713
  140.6372  134.5203  157.5566 LP  0  0  0  0  0  0  0  0  0  0  0  0  # atno 17394 bound_to 11000
  139.9221  134.8128  156.1180 LP  0  0  0  0  0  0  0  0  0  0  0  0  # atno 17395 bound_to 11000

$$$$
