AV-unprocessed.smi:2505|AV-procd|sdf|9859|dock1
  -GOLD-   2272013483D 1   1.00000     0.00000
 Structure written by MMmdl.
 48 52  0  0  0  0  0  0  0  0  1 V2000
  148.4717  135.3720  156.1284 O   0  0  0  0  0  0  0  0  0  0  0  0
  148.5991  135.6326  154.9344 C   0  0  0  0  0  0  0  0  0  0  0  0
  149.1997  136.7354  154.4468 N   0  0  0  0  0  0  0  0  0  0  0  0
  149.8007  137.8056  155.1612 C   0  0  0  0  0  0  0  0  0  0  0  0
  150.0202  137.8320  156.5605 C   0  0  0  0  0  0  0  0  0  0  0  0
  150.5886  138.8958  157.1688 N   0  0  0  0  0  0  0  0  0  0  0  0
  150.9243  139.9307  156.3937 C   0  0  0  0  0  0  0  0  0  0  0  0
  151.5974  141.0851  157.0690 C   0  0  0  0  0  0  0  0  0  0  0  0
  150.9961  141.7107  158.3111 C   0  0  0  0  0  0  0  0  0  0  0  0
  150.9991  142.4762  157.0174 C   0  0  0  0  0  0  0  0  0  0  0  0
  150.7668  140.0173  155.0699 N   0  0  0  0  0  0  0  0  0  0  0  0
  150.1960  138.9602  154.4539 C   0  0  0  0  0  0  0  0  0  0  0  0
  148.1444  134.7948  153.9871 N   0  0  0  0  0  0  0  0  0  0  0  0
  147.4474  133.5143  154.1862 C   0  0  2  0  0  0  0  0  0  0  0  0
  148.3597  132.3755  154.6538 C   0  0  2  0  0  0  0  0  0  0  0  0
  149.6893  132.2829  155.3119 C   0  0  0  0  0  0  0  0  0  0  0  0
  150.2526  131.1189  154.4543 C   0  0  0  0  0  0  0  0  0  0  0  0
  149.3125  130.9345  153.3655 O   0  0  0  0  0  0  0  0  0  0  0  0
  148.7266  132.2107  153.1937 C   0  0  1  0  0  0  0  0  0  0  0  0
  147.2778  132.6516  152.8765 C   0  0  0  0  0  0  0  0  0  0  0  0
  146.1979  131.5503  152.8727 C   0  0  0  0  0  0  0  0  0  0  0  0
  145.2973  131.7649  151.6559 C   0  0  0  0  0  0  0  0  0  0  0  0
  146.1744  132.5176  150.6669 C   0  0  0  0  0  0  0  0  0  0  0  0
  147.0483  133.3982  151.5555 C   0  0  0  0  0  0  0  0  0  0  0  0
  149.2848  136.7829  153.4417 H   0  0  0  0  0  0  0  0  0  0  0  0
  149.7348  137.0221  157.2133 H   0  0  0  0  0  0  0  0  0  0  0  0
  152.6810  140.9952  157.0197 H   0  0  0  0  0  0  0  0  0  0  0  0
  150.0399  141.3271  158.6620 H   0  0  0  0  0  0  0  0  0  0  0  0
  151.6819  142.0363  159.0902 H   0  0  0  0  0  0  0  0  0  0  0  0
  151.6876  143.3142  156.9305 H   0  0  0  0  0  0  0  0  0  0  0  0
  150.0459  142.6011  156.5071 H   0  0  0  0  0  0  0  0  0  0  0  0
  150.0609  139.0355  153.3848 H   0  0  0  0  0  0  0  0  0  0  0  0
  148.3037  135.0660  153.0276 H   0  0  0  0  0  0  0  0  0  0  0  0
  146.5217  133.5989  154.7576 H   0  0  0  0  0  0  0  0  0  0  0  0
  147.7261  131.5593  155.0155 H   0  0  0  0  0  0  0  0  0  0  0  0
  150.2743  133.1958  155.1935 H   0  0  0  0  0  0  0  0  0  0  0  0
  149.6227  132.0337  156.3711 H   0  0  0  0  0  0  0  0  0  0  0  0
  151.2413  131.3665  154.0662 H   0  0  0  0  0  0  0  0  0  0  0  0
  150.3351  130.1941  155.0261 H   0  0  0  0  0  0  0  0  0  0  0  0
  149.4725  132.9258  152.8321 H   0  0  0  0  0  0  0  0  0  0  0  0
  146.6650  130.5672  152.7995 H   0  0  0  0  0  0  0  0  0  0  0  0
  145.6061  131.5455  153.7887 H   0  0  0  0  0  0  0  0  0  0  0  0
  144.9073  130.8314  151.2490 H   0  0  0  0  0  0  0  0  0  0  0  0
  144.4468  132.3881  151.9357 H   0  0  0  0  0  0  0  0  0  0  0  0
  146.7997  131.8114  150.1192 H   0  0  0  0  0  0  0  0  0  0  0  0
  145.5976  133.0903  149.9402 H   0  0  0  0  0  0  0  0  0  0  0  0
  146.5247  134.3363  151.7442 H   0  0  0  0  0  0  0  0  0  0  0  0
  147.9821  133.6554  151.0539 H   0  0  0  0  0  0  0  0  0  0  0  0
  1  2  2  0  0  0  0
  2  3  1  0  0  0  0
  2 13  1  0  0  0  0
  3  4  1  0  0  0  0
  3 25  1  0  0  0  0
  4 12  1  0  0  0  0
  4  5  2  0  0  0  0
  5  6  1  0  0  0  0
  5 26  1  0  0  0  0
  6  7  2  0  0  0  0
  7  8  1  0  0  0  0
  7 11  1  0  0  0  0
  8 10  1  0  0  0  0
  8  9  1  0  0  0  0
  8 27  1  0  0  0  0
  9 10  1  0  0  0  0
  9 28  1  0  0  0  0
  9 29  1  0  0  0  0
 10 30  1  0  0  0  0
 10 31  1  0  0  0  0
 11 12  2  0  0  0  0
 12 32  1  0  0  0  0
 13 14  1  0  0  0  0
 13 33  1  0  0  0  0
 14 20  1  0  0  0  0
 14 15  1  0  0  0  0
 14 34  1  0  0  0  0
 15 19  1  0  0  0  0
 15 16  1  0  0  0  0
 15 35  1  0  0  0  0
 16 17  1  0  0  0  0
 16 36  1  0  0  0  0
 16 37  1  0  0  0  0
 17 18  1  0  0  0  0
 17 38  1  0  0  0  0
 17 39  1  0  0  0  0
 18 19  1  0  0  0  0
 19 20  1  0  0  0  0
 19 40  1  0  0  0  0
 20 24  1  0  0  0  0
 20 21  1  0  0  0  0
 21 22  1  0  0  0  0
 21 41  1  0  0  0  0
 21 42  1  0  0  0  0
 22 23  1  0  0  0  0
 22 43  1  0  0  0  0
 22 44  1  0  0  0  0
 23 24  1  0  0  0  0
 23 45  1  0  0  0  0
 23 46  1  0  0  0  0
 24 47  1  0  0  0  0
 24 48  1  0  0  0  0
M  END
> <s_m_source_file>
AV-unprocessed.smi

> <i_m_source_file_index>
2505

> <i_lp_mmshare_version>
43012

> <i_f3d_flags>
0

> <s_epik_input>
W0NIMl0xW0NIMl1bQ0hdMWMobltjSF0yKW5bY0hdYzJbTkhdQyg9TylbTkhdW0NAQEhdM1tDQEBIXShbQ0gyXVtDSDJdTzQpW0NASF00QzM1W0NIMl1bQ0gyXVtDSDJdW0NIMl01

> <s_epik_cmdline>
J2VwaWtfcHl0aG9uJywgJy1waCcsICc3LjAnLCAnLXRuJywgJzgnLCAnLW1hJywgJzIwMCcsICctbWV0YWxfYmluZGluZycsICctaW1hZScsICc8aW5maWxlLm1hZT4nLCAnLW9tYWUnLCAnPG91dGZpbGUubWFlPic=

> <r_lp_tautomer_probability>
1

> <r_epik_Ionization_Penalty>
2.6075e-05

> <r_epik_Ionization_Penalty_Charging>
0

> <r_epik_Ionization_Penalty_Neutral>
2.6075e-05

> <r_epik_State_Penalty>
-0

> <r_epik_Charging_Adjusted_Penalty>
0

> <i_epik_Tot_Q>
0

> <i_epik_Tot_abs_Q>
0

> <r_epik_Metal_State_Penalty>
-0

> <b_epik_Metal_Only>
0

> <s_lp_Force_Field>
OPLS_2005

> <r_lp_Energy>
88.3916

> <b_lp_Chiralities_Consistent>
1

> <s_lp_Variant>
AV-unprocessed.smi:2505-7

> <Gold.Version>
5.8.1

> <Gold.Id.Protein>
6NUR|6NUR_protein|mol2

> <Gold.PLP.Fitness>
46.5403

> <Gold.PLP.PLP>
-34.6547

> <Gold.PLP.part.hbond>
-3.0000

> <Gold.PLP.part.metal>
0.0000

> <Gold.PLP.part.buried>
-3.6415

> <Gold.PLP.part.nonpolar>
-27.6864

> <Gold.PLP.part.repulsive>
0.1941

> <Gold.PLP.ligand.clash>
0.0000

> <Gold.PLP.ligand.torsion>
0.2522

> <Gold.PLP.Chemscore.Hbond>
3.0000

> <Gold.PLP.Chemscore.CHOScore>
1.0000

> <Gold.PLP.Chemscore.Metal>
0.0000

> <Gold.Chemscore.Hbonds>
donor molecule, donor type, donor heavy atom, donor atom, acceptor molecule, acceptor atom, score
      L1  H     3    25       P1  7948  1.00
      L1  H    13    33       P1  7948  1.00
      P1  H  7989  7998       L1    11  0.95
      L1  C    12    32       P1  7957  1.00

> <Gold.PLP.Chemscore.Internal.Correction>
0.3899

> <Gold.Rescore>
     Score         DG    S(hbond)    S(metal)    S(lipo)     H(rot)  DE(clash)    DE(int)     intcor
     19.51     -21.81       2.55        0.00      92.59       1.17       0.60       1.70       ----

> <Gold.Chemscore.Fitness>
19.5071

> <Gold.Chemscore.DG>
-21.8096

> <Gold.Chemscore.ZeroCoef>
-5.4800

> <Gold.Chemscore.Hbond>
2.5456

> <Gold.Chemscore.Metal>
0.0000

> <Gold.Chemscore.Lipo>
92.5947

> <Gold.Chemscore.Internal_Hbond>
0.0000

> <Gold.Chemscore.DEClash>
0.6031

> <Gold.Chemscore.DEInternal>
1.6994

> <Gold.Chemscore.Rot>
1.1744

> <Gold.Chemscore.Internal.Correction>
   9.000000E+99

> <Gold.Chemscore.Hbonds>
donor molecule, donor type, donor heavy atom, donor atom, acceptor molecule, acceptor atom, score
      L1  H     3    25       P1  7948  0.93
      L1  H    13    33       P1  7948  0.83
      P1  H  7989  7998       L1    11  0.21

> <Gold.Chemscore.Hbond.Weighted>
-8.5024

> <Gold.Chemscore.Metal.Weighted>
-0.0000

> <Gold.Chemscore.Lipo.Weighted>
-10.8336

> <Gold.Chemscore.Internal_Hbond.Weighted>
0.0000

> <Gold.Chemscore.DEClash.Weighted>
0.6031

> <Gold.Chemscore.DEInternal.Weighted>
1.6994

> <Gold.Chemscore.Rot.Weighted>
3.0064

> <Gold.Chemscore.Internal.Correction.Weighted>
   9.000000E+99

> <Gold.Protein.RotatedTorsions>
[ 6907 6896 6895 6894 ] final  166.59 input  -60.11 | X-H torsion
[ 7974 7965 7964 7962 ] final  144.17 input  175.53 | X-H torsion
[ 8008 7997 7996 7995 ] final  110.70 input   59.86 | X-H torsion
[ 10167 10162 10161 10158 ] final   34.18 input  -65.29 | X-H torsion
[ 10718 10713 10712 10709 ] final   64.14 input   66.30 | X-H torsion
[ 10763 10752 10751 10750 ] final   66.09 input  -60.55 | X-H torsion
[ 11005 11000 10999 10996 ] final    1.50 input  -57.11 | X-H torsion

> <Gold.Protein.ActiveResidues>
 VAL166  LYS551  ARG553  GLY616  TRP617  ASP618  TYR619  PRO620  LYS621  CYS622 
 ASP623  PHE694  ASN695  SER759  ASP760  ASP761  ALA762  ILE779  LEU786  VAL792 
 PHE793  MET794  SER795  GLU796  ALA797  LYS798  CYS799  TRP800  GLU811  SER814 

> <Gold.Protein.RotatedAtoms>
  151.8766  133.3486  159.3752 H   0  0  0  0  0  0  0  0  0  0  0  0  # atno 6907 bound_to 6896
  150.7138  134.5060  159.5594 H   0  0  0  0  0  0  0  0  0  0  0  0  # atno 6908 bound_to 6896
  152.2604  134.8041  160.0482 H   0  0  0  0  0  0  0  0  0  0  0  0  # atno 6909 bound_to 6896
  144.8858  139.5630  143.5821 H   0  0  0  0  0  0  0  0  0  0  0  0  # atno 7974 bound_to 7965
  156.2071  140.3033  155.9652 H   0  0  0  0  0  0  0  0  0  0  0  0  # atno 8008 bound_to 7997
  155.2814  140.0438  157.3033 H   0  0  0  0  0  0  0  0  0  0  0  0  # atno 8009 bound_to 7997
  154.5649  140.2331  155.8288 H   0  0  0  0  0  0  0  0  0  0  0  0  # atno 8010 bound_to 7997
  140.4339  144.1285  150.6163 H   0  0  0  0  0  0  0  0  0  0  0  0  # atno 10167 bound_to 10162
  157.6019  130.9143  149.9807 H   0  0  0  0  0  0  0  0  0  0  0  0  # atno 10718 bound_to 10713
  153.0124  135.5333  154.6769 H   0  0  0  0  0  0  0  0  0  0  0  0  # atno 10763 bound_to 10752
  154.5939  135.2861  155.0609 H   0  0  0  0  0  0  0  0  0  0  0  0  # atno 10764 bound_to 10752
  154.1692  135.6535  153.5057 H   0  0  0  0  0  0  0  0  0  0  0  0  # atno 10765 bound_to 10752
  140.6148  133.9715  155.8195 H   0  0  0  0  0  0  0  0  0  0  0  0  # atno 11005 bound_to 11000
  146.3024  139.7468  142.9082 LP  0  0  0  0  0  0  0  0  0  0  0  0  # atno 17320 bound_to 7965
  145.3871  141.0367  143.3145 LP  0  0  0  0  0  0  0  0  0  0  0  0  # atno 17321 bound_to 7965
  140.4396  143.2532  151.9490 LP  0  0  0  0  0  0  0  0  0  0  0  0  # atno 17342 bound_to 10162
  139.4786  144.5667  151.8153 LP  0  0  0  0  0  0  0  0  0  0  0  0  # atno 17343 bound_to 10162
  156.1095  130.3651  150.0075 LP  0  0  0  0  0  0  0  0  0  0  0  0  # atno 17370 bound_to 10713
  156.8176  130.9347  151.3642 LP  0  0  0  0  0  0  0  0  0  0  0  0  # atno 17371 bound_to 10713
  141.0783  134.0101  157.3424 LP  0  0  0  0  0  0  0  0  0  0  0  0  # atno 17394 bound_to 11000
  139.9177  135.0198  156.7946 LP  0  0  0  0  0  0  0  0  0  0  0  0  # atno 17395 bound_to 11000

$$$$
