AV-unprocessed.smi:1412|AV-procd|sdf|5746|dock4
  -GOLD-   22720 5383D 1   1.00000     0.00000
 Structure written by MMmdl.
 41 42  0  0  0  0  0  0  0  0  3 V2000
  149.1828  131.7273  153.8058 C   0  0  0  0  0  0  0  0  0  0  0  0
  149.2419  133.2254  154.1529 C   0  0  0  0  0  0  0  0  0  0  0  0
  147.8731  133.9379  154.3761 C   0  0  1  0  0  0  0  0  0  0  0  0
  146.9525  133.0251  155.2300 C   0  0  0  0  0  0  0  0  0  0  0  0
  148.0741  135.2585  155.1796 C   0  0  0  0  0  0  0  0  0  0  0  0
  148.3646  135.0083  156.5927 N   0  0  0  0  0  0  0  0  0  0  0  0
  148.7970  135.9021  157.4934 C   0  0  0  0  0  0  0  0  0  0  0  0
  149.1046  137.0413  157.1380 O   0  0  0  0  0  0  0  0  0  0  0  0
  148.8139  135.4290  158.7584 N   0  5  0  0  0  0  0  0  0  0  0  0
  147.9396  135.9044  159.6603 C   0  0  0  0  0  0  0  0  0  0  0  0
  147.2689  137.0525  159.4712 N   0  0  0  0  0  0  0  0  0  0  0  0
  146.4187  137.3667  160.5223 N   0  0  0  0  0  0  0  0  0  0  0  0
  146.4638  136.4385  161.4777 C   0  0  0  0  0  0  0  0  0  0  0  0
  147.5490  135.0967  161.1803 S   0  0  0  0  0  0  0  0  0  0  0  0
  147.2175  134.2658  153.0560 N   0  3  0  0  0  0  0  0  0  0  0  0
  147.0202  133.1145  152.1324 C   0  0  0  0  0  0  0  0  0  0  0  0
  146.6337  133.6218  150.7360 C   0  0  0  0  0  0  0  0  0  0  0  0
  145.4249  134.3631  150.8349 O   0  0  0  0  0  0  0  0  0  0  0  0
  145.5724  135.5049  151.6691 C   0  0  0  0  0  0  0  0  0  0  0  0
  145.9705  135.0792  153.0947 C   0  0  0  0  0  0  0  0  0  0  0  0
  150.1902  131.3223  153.7074 H   0  0  0  0  0  0  0  0  0  0  0  0
  148.6737  131.5469  152.8596 H   0  0  0  0  0  0  0  0  0  0  0  0
  148.6789  131.1493  154.5799 H   0  0  0  0  0  0  0  0  0  0  0  0
  149.8588  133.3173  155.0469 H   0  0  0  0  0  0  0  0  0  0  0  0
  149.7900  133.7326  153.3584 H   0  0  0  0  0  0  0  0  0  0  0  0
  147.3021  132.9486  156.2597 H   0  0  0  0  0  0  0  0  0  0  0  0
  146.9103  132.0077  154.8398 H   0  0  0  0  0  0  0  0  0  0  0  0
  145.9325  133.4085  155.2769 H   0  0  0  0  0  0  0  0  0  0  0  0
  148.9181  135.8211  154.7810 H   0  0  0  0  0  0  0  0  0  0  0  0
  147.2174  135.9239  155.0708 H   0  0  0  0  0  0  0  0  0  0  0  0
  148.1492  134.0840  156.9380 H   0  0  0  0  0  0  0  0  0  0  0  0
  145.8535  136.5440  162.3621 H   0  0  0  0  0  0  0  0  0  0  0  0
  147.9183  132.5049  152.0561 H   0  0  0  0  0  0  0  0  0  0  0  0
  146.2282  132.4635  152.5043 H   0  0  0  0  0  0  0  0  0  0  0  0
  147.4269  134.2362  150.3059 H   0  0  0  0  0  0  0  0  0  0  0  0
  146.4776  132.7811  150.0600 H   0  0  0  0  0  0  0  0  0  0  0  0
  146.3179  136.1804  151.2458 H   0  0  0  0  0  0  0  0  0  0  0  0
  144.6281  136.0491  151.6903 H   0  0  0  0  0  0  0  0  0  0  0  0
  145.1664  134.5069  153.5585 H   0  0  0  0  0  0  0  0  0  0  0  0
  146.0947  135.9916  153.6748 H   0  0  0  0  0  0  0  0  0  0  0  0
  147.8930  134.8609  152.5959 H   0  0  0  0  0  0  0  0  0  0  0  0
  1  2  1  0  0  0  0
  1 21  1  0  0  0  0
  1 22  1  0  0  0  0
  1 23  1  0  0  0  0
  2  3  1  0  0  0  0
  2 24  1  0  0  0  0
  2 25  1  0  0  0  0
  3  4  1  0  0  0  0
  3  5  1  0  0  0  0
  3 15  1  0  0  0  0
  4 26  1  0  0  0  0
  4 27  1  0  0  0  0
  4 28  1  0  0  0  0
  5  6  1  0  0  0  0
  5 29  1  0  0  0  0
  5 30  1  0  0  0  0
  6  7  1  0  0  0  0
  6 31  1  0  0  0  0
  7  8  2  0  0  0  0
  7  9  1  0  0  0  0
  9 10  1  0  0  0  0
 10 14  1  0  0  0  0
 10 11  2  0  0  0  0
 11 12  1  0  0  0  0
 12 13  2  0  0  0  0
 13 14  1  0  0  0  0
 13 32  1  0  0  0  0
 15 20  1  0  0  0  0
 15 16  1  0  0  0  0
 15 41  1  0  0  0  0
 16 17  1  0  0  0  0
 16 33  1  0  0  0  0
 16 34  1  0  0  0  0
 17 18  1  0  0  0  0
 17 35  1  0  0  0  0
 17 36  1  0  0  0  0
 18 19  1  0  0  0  0
 19 20  1  0  0  0  0
 19 37  1  0  0  0  0
 19 38  1  0  0  0  0
 20 39  1  0  0  0  0
 20 40  1  0  0  0  0
M  CHG  1   9  -1
M  CHG  1  15   1
M  END
> <s_m_source_file>
AV-unprocessed.smi

> <i_m_source_file_index>
1412

> <i_lp_mmshare_version>
43012

> <i_f3d_flags>
0

> <s_epik_input>
W0NIMl0xW0NIMl1PW0NIMl1bQ0gyXU4xW0NAQF0oW0NIM10pKFtDSDJdW0NIM10pW0NIMl1bTkhdQyg9TylbTkhdYzJubltjSF1zMg==

> <s_epik_cmdline>
J2VwaWtfcHl0aG9uJywgJy1waCcsICc3LjAnLCAnLXRuJywgJzgnLCAnLW1hJywgJzIwMCcsICctbWV0YWxfYmluZGluZycsICctaW1hZScsICc8aW5maWxlLm1hZT4nLCAnLW9tYWUnLCAnPG91dGZpbGUubWFlPic=

> <r_lp_tautomer_probability>
1

> <r_epik_Ionization_Penalty>
4.35651

> <r_epik_Ionization_Penalty_Charging>
4.3235

> <r_epik_Ionization_Penalty_Neutral>
0.0330098

> <r_epik_State_Penalty>
4.4846

> <r_epik_Charging_Adjusted_Penalty>
8.8081

> <i_epik_Tot_Q>
0

> <i_epik_Tot_abs_Q>
2

> <r_epik_Metal_State_Penalty>
1.11611

> <b_epik_Metal_Only>
1

> <s_lp_Force_Field>
OPLS_2005

> <r_lp_Energy>
23.2339

> <b_lp_Chiralities_Consistent>
1

> <s_lp_Variant>
AV-unprocessed.smi:1412-7

> <Gold.Version>
5.8.1

> <Gold.Id.Protein>
6NUR|6NUR_protein|mol2

> <Gold.PLP.Fitness>
38.1649

> <Gold.PLP.PLP>
-25.3153

> <Gold.PLP.part.hbond>
-3.3499

> <Gold.PLP.part.metal>
0.0000

> <Gold.PLP.part.buried>
-4.5781

> <Gold.PLP.part.nonpolar>
-17.6524

> <Gold.PLP.part.repulsive>
0.1907

> <Gold.PLP.ligand.clash>
0.0000

> <Gold.PLP.ligand.torsion>
1.2278

> <Gold.PLP.Chemscore.Hbond>
5.0000

> <Gold.PLP.Chemscore.CHOScore>
0.0000

> <Gold.PLP.Chemscore.Metal>
0.0000

> <Gold.Chemscore.Hbonds>
donor molecule, donor type, donor heavy atom, donor atom, acceptor molecule, acceptor atom, score
      L1  H    15    41       P1  7948  2.00
      P1  H  6896  6908       L1     9  1.04
      P1  H  6934  6947       L1    12  0.85

> <Gold.PLP.Chemscore.Internal.Correction>
0.3051

> <Gold.Rescore>
     Score         DG    S(hbond)    S(metal)    S(lipo)     H(rot)  DE(clash)    DE(int)     intcor
     14.52     -16.04       2.81        0.00      51.25       1.88       0.09       1.43       ----

> <Gold.Chemscore.Fitness>
14.5236

> <Gold.Chemscore.DG>
-16.0386

> <Gold.Chemscore.ZeroCoef>
-5.4800

> <Gold.Chemscore.Hbond>
2.8052

> <Gold.Chemscore.Metal>
0.0000

> <Gold.Chemscore.Lipo>
51.2524

> <Gold.Chemscore.Internal_Hbond>
0.0000

> <Gold.Chemscore.DEClash>
0.0880

> <Gold.Chemscore.DEInternal>
1.4270

> <Gold.Chemscore.Rot>
1.8779

> <Gold.Chemscore.Internal.Correction>
   9.000000E+99

> <Gold.Chemscore.Hbonds>
donor molecule, donor type, donor heavy atom, donor atom, acceptor molecule, acceptor atom, score
      L1  H    15    41       P1  7948  0.88
      P1  H  6896  6908       L1     9  0.48
      P1  H  6934  6947       L1    12  0.14

> <Gold.Chemscore.Hbond.Weighted>
-9.3695

> <Gold.Chemscore.Metal.Weighted>
-0.0000

> <Gold.Chemscore.Lipo.Weighted>
-5.9965

> <Gold.Chemscore.Internal_Hbond.Weighted>
0.0000

> <Gold.Chemscore.DEClash.Weighted>
0.0880

> <Gold.Chemscore.DEInternal.Weighted>
1.4270

> <Gold.Chemscore.Rot.Weighted>
4.8074

> <Gold.Chemscore.Internal.Correction.Weighted>
   9.000000E+99

> <Gold.Protein.RotatedTorsions>
[ 6907 6896 6895 6894 ] final  154.41 input  -60.11 | X-H torsion
[ 7974 7965 7964 7962 ] final -154.74 input  175.53 | X-H torsion
[ 8008 7997 7996 7995 ] final  -72.66 input   59.86 | X-H torsion
[ 10167 10162 10161 10158 ] final  -56.68 input  -65.29 | X-H torsion
[ 10718 10713 10712 10709 ] final  167.26 input   66.30 | X-H torsion
[ 10763 10752 10751 10750 ] final  107.80 input  -60.55 | X-H torsion
[ 11005 11000 10999 10996 ] final -157.36 input  -57.11 | X-H torsion

> <Gold.Protein.ActiveResidues>
 VAL166  LYS551  ARG553  GLY616  TRP617  ASP618  TYR619  PRO620  LYS621  CYS622 
 ASP623  PHE694  ASN695  SER759  ASP760  ASP761  ALA762  ILE779  LEU786  VAL792 
 PHE793  MET794  SER795  GLU796  ALA797  LYS798  CYS799  TRP800  GLU811  SER814 

> <Gold.Protein.RotatedAtoms>
  152.0588  133.4053  159.4408 H   0  0  0  0  0  0  0  0  0  0  0  0  # atno 6907 bound_to 6896
  150.6867  134.3223  159.4801 H   0  0  0  0  0  0  0  0  0  0  0  0  # atno 6908 bound_to 6896
  152.1042  134.9320  160.0619 H   0  0  0  0  0  0  0  0  0  0  0  0  # atno 6909 bound_to 6896
  144.7674  140.4346  143.5932 H   0  0  0  0  0  0  0  0  0  0  0  0  # atno 7974 bound_to 7965
  154.5184  140.0793  156.8125 H   0  0  0  0  0  0  0  0  0  0  0  0  # atno 8008 bound_to 7997
  155.3630  140.3419  155.4223 H   0  0  0  0  0  0  0  0  0  0  0  0  # atno 8009 bound_to 7997
  156.1654  140.1602  156.8528 H   0  0  0  0  0  0  0  0  0  0  0  0  # atno 8010 bound_to 7997
  140.6303  143.2456  151.5259 H   0  0  0  0  0  0  0  0  0  0  0  0  # atno 10167 bound_to 10162
  157.0541  131.0321  151.2670 H   0  0  0  0  0  0  0  0  0  0  0  0  # atno 10718 bound_to 10713
  153.4117  135.3833  155.2054 H   0  0  0  0  0  0  0  0  0  0  0  0  # atno 10763 bound_to 10752
  154.8738  135.3796  154.4493 H   0  0  0  0  0  0  0  0  0  0  0  0  # atno 10764 bound_to 10752
  153.5002  135.7088  153.5898 H   0  0  0  0  0  0  0  0  0  0  0  0  # atno 10765 bound_to 10752
  140.6655  134.4303  157.5233 H   0  0  0  0  0  0  0  0  0  0  0  0  # atno 11005 bound_to 11000
  145.6427  139.1552  143.2906 LP  0  0  0  0  0  0  0  0  0  0  0  0  # atno 17320 bound_to 7965
  146.1793  140.6522  142.9196 LP  0  0  0  0  0  0  0  0  0  0  0  0  # atno 17321 bound_to 7965
  139.5518  144.2377  152.1543 LP  0  0  0  0  0  0  0  0  0  0  0  0  # atno 17342 bound_to 10162
  140.1619  144.5018  150.6628 LP  0  0  0  0  0  0  0  0  0  0  0  0  # atno 17343 bound_to 10162
  157.5007  130.7878  149.7602 LP  0  0  0  0  0  0  0  0  0  0  0  0  # atno 17370 bound_to 10713
  155.9998  130.3886  150.2649 LP  0  0  0  0  0  0  0  0  0  0  0  0  # atno 17371 bound_to 10713
  139.8999  134.8581  156.1943 LP  0  0  0  0  0  0  0  0  0  0  0  0  # atno 17394 bound_to 11000
  141.0432  133.6927  156.1636 LP  0  0  0  0  0  0  0  0  0  0  0  0  # atno 17395 bound_to 11000

$$$$
