AV-unprocessed.smi:72|AV-procd|sdf|737|dock1
  -GOLD-   2262017 63D 1   1.00000     0.00000
 Structure written by MMmdl.
 28 29  0  0  0  0  0  0  0  0  2 V2000
  154.2416  138.1431  154.8651 N   0  0  0  0  0  0  0  0  0  0  0  0
  153.0021  138.3744  154.8706 C   0  0  0  0  0  0  0  0  0  0  0  0
  152.1065  137.5315  154.1090 N   0  0  0  0  0  0  0  0  0  0  0  0
  150.8397  137.8106  154.1397 C   0  0  0  0  0  0  0  0  0  0  0  0
  150.3174  138.9315  154.9112 N   0  0  0  0  0  0  0  0  0  0  0  0
  148.8363  139.2712  154.9471 C   0  0  2  0  0  0  0  0  0  0  0  0
  148.1067  138.3297  154.2111 O   0  0  0  0  0  0  0  0  0  0  0  0
  147.6126  138.9231  153.0153 C   0  0  1  0  0  0  0  0  0  0  0  0
  146.4200  138.1306  152.4513 C   0  0  0  0  0  0  0  0  0  0  0  0
  146.5188  138.0285  151.0465 O   0  0  0  0  0  0  0  0  0  0  0  0
  147.3558  140.3800  153.4195 C   0  0  1  0  0  0  0  0  0  0  0  0
  146.1221  140.5133  154.1017 O   0  0  0  0  0  0  0  0  0  0  0  0
  148.5158  140.6708  154.3631 C   0  0  2  0  0  0  0  0  0  0  0  0
  149.5869  141.2487  153.6369 O   0  0  0  0  0  0  0  0  0  0  0  0
  151.2210  139.7418  155.6491 C   0  0  0  0  0  0  0  0  0  0  0  0
  150.7607  140.6920  156.2826 O   0  0  0  0  0  0  0  0  0  0  0  0
  152.5490  139.4406  155.6157 N   0  5  0  0  0  0  0  0  0  0  0  0
  148.5368  139.1626  155.9909 H   0  0  0  0  0  0  0  0  0  0  0  0
  148.4226  138.9058  152.2844 H   0  0  0  0  0  0  0  0  0  0  0  0
  147.3369  141.0459  152.5554 H   0  0  0  0  0  0  0  0  0  0  0  0
  148.2415  141.3534  155.1687 H   0  0  0  0  0  0  0  0  0  0  0  0
  154.7637  138.7962  155.4307 H   0  0  0  0  0  0  0  0  0  0  0  0
  150.0995  137.2267  153.5935 H   0  0  0  0  0  0  0  0  0  0  0  0
  146.4186  137.1224  152.8659 H   0  0  0  0  0  0  0  0  0  0  0  0
  145.4671  138.5847  152.7229 H   0  0  0  0  0  0  0  0  0  0  0  0
  145.7417  138.4052  150.6625 H   0  0  0  0  0  0  0  0  0  0  0  0
  145.4231  140.3935  153.4772 H   0  0  0  0  0  0  0  0  0  0  0  0
  149.6856  140.7744  152.8247 H   0  0  0  0  0  0  0  0  0  0  0  0
  1  2  2  0  0  0  0
  1 22  1  0  0  0  0
  2 17  1  0  0  0  0
  2  3  1  0  0  0  0
  3  4  2  0  0  0  0
  4  5  1  0  0  0  0
  4 23  1  0  0  0  0
  5  6  1  0  0  0  0
  5 15  1  0  0  0  0
  6 18  1  0  0  0  0
  6 13  1  0  0  0  0
  6  7  1  0  0  0  0
  7  8  1  0  0  0  0
  8 19  1  0  0  0  0
  8  9  1  0  0  0  0
  8 11  1  0  0  0  0
  9 10  1  0  0  0  0
  9 24  1  0  0  0  0
  9 25  1  0  0  0  0
 10 26  1  0  0  0  0
 11 20  1  0  0  0  0
 11 12  1  0  0  0  0
 11 13  1  0  0  0  0
 12 27  1  0  0  0  0
 13 21  1  0  0  0  0
 13 14  1  0  0  0  0
 14 28  1  0  0  0  0
 15 16  2  0  0  0  0
 15 17  1  0  0  0  0
M  CHG  1  17  -1
M  END
> <s_m_source_file>
AV-unprocessed.smi

> <i_m_source_file_index>
72

> <i_lp_mmshare_version>
43012

> <i_f3d_flags>
0

> <s_epik_input>
W05IMl1jMW5bY0hdbihjKD1PKW4xKVtDQEBIXTJPW0NASF0oW0NIMl1bT0hdKVtDQEBIXShbT0hdKVtDQEhdMltPSF0=

> <s_epik_cmdline>
J2VwaWtfcHl0aG9uJywgJy1waCcsICc3LjAnLCAnLXRuJywgJzgnLCAnLW1hJywgJzIwMCcsICctbWV0YWxfYmluZGluZycsICctaW1hZScsICc8aW5maWxlLm1hZT4nLCAnLW9tYWUnLCAnPG91dGZpbGUubWFlPic=

> <r_lp_tautomer_probability>
7.17554e-07

> <r_epik_Ionization_Penalty>
12.8705

> <r_epik_Ionization_Penalty_Charging>
5.64144

> <r_epik_Ionization_Penalty_Neutral>
7.22905

> <r_epik_State_Penalty>
3.30104

> <r_epik_Charging_Adjusted_Penalty>
8.94249

> <i_epik_Tot_Q>
-1

> <i_epik_Tot_abs_Q>
1

> <r_epik_Metal_State_Penalty>
0.529074

> <b_epik_Metal_Only>
1

> <s_epik_Chemistry_Notes>
This compound contains an acetal/aminal-like group ( X-CH(R)-Y where X, Y are N, S, or O) that may be acid/base labile, releasing an aldehyde.

> <s_lp_Force_Field>
OPLS_2005

> <r_lp_Energy>
36.282

> <b_lp_Chiralities_Consistent>
1

> <s_lp_Variant>
AV-unprocessed.smi:72-75

> <Gold.Version>
5.8.1

> <Gold.Id.Protein>
6NUR|6NUR_protein|mol2

> <Gold.PLP.Fitness>
53.3814

> <Gold.PLP.PLP>
-31.4163

> <Gold.PLP.part.hbond>
-10.7854

> <Gold.PLP.part.metal>
0.0000

> <Gold.PLP.part.buried>
-0.1038

> <Gold.PLP.part.nonpolar>
-22.4961

> <Gold.PLP.part.repulsive>
0.3704

> <Gold.PLP.ligand.clash>
0.0543

> <Gold.PLP.ligand.torsion>
0.6088

> <Gold.PLP.Chemscore.Hbond>
6.6693

> <Gold.PLP.Chemscore.CHOScore>
1.0623

> <Gold.PLP.Chemscore.Metal>
0.0000

> <Gold.Chemscore.Hbonds>
donor molecule, donor type, donor heavy atom, donor atom, acceptor molecule, acceptor atom, score
      L1  H    10    26       P1 10171  0.96
      L1  H    12    27       P1 10175  1.00
      L1  H    14    28       P1  7957  1.00
      P1  H  7954  7966       L1    10  1.00
      P1  H  7997  8009       L1    17  1.80
      P1  H 10752 10763       L1     3  0.71
      L1  C     4    23       P1  7948  1.00
      L1  C     4    23       P1  7949  0.05

> <Gold.PLP.Chemscore.Internal.Correction>
0.0425

> <Gold.Rescore>
     Score         DG    S(hbond)    S(metal)    S(lipo)     H(rot)  DE(clash)    DE(int)     intcor
     10.19     -12.04       4.07        0.00      28.20       4.04       0.38       1.47       ----

> <Gold.Chemscore.Fitness>
10.1913

> <Gold.Chemscore.DG>
-12.0423

> <Gold.Chemscore.ZeroCoef>
-5.4800

> <Gold.Chemscore.Hbond>
4.0736

> <Gold.Chemscore.Metal>
0.0000

> <Gold.Chemscore.Lipo>
28.2001

> <Gold.Chemscore.Internal_Hbond>
0.0000

> <Gold.Chemscore.DEClash>
0.3788

> <Gold.Chemscore.DEInternal>
1.4721

> <Gold.Chemscore.Rot>
4.0403

> <Gold.Chemscore.Internal.Correction>
   9.000000E+99

> <Gold.Chemscore.Hbonds>
donor molecule, donor type, donor heavy atom, donor atom, acceptor molecule, acceptor atom, score
      L1  H    10    26       P1 10171  0.91
      L1  H    12    27       P1 10175  0.94
      L1  H    14    28       P1  7957  1.00
      P1  H  7954  7966       L1    10  0.91
      P1  H  7997  8009       L1    17  0.17
      P1  H 10752 10763       L1     3  0.34

> <Gold.Chemscore.Hbond.Weighted>
-13.6060

> <Gold.Chemscore.Metal.Weighted>
-0.0000

> <Gold.Chemscore.Lipo.Weighted>
-3.2994

> <Gold.Chemscore.Internal_Hbond.Weighted>
0.0000

> <Gold.Chemscore.DEClash.Weighted>
0.3788

> <Gold.Chemscore.DEInternal.Weighted>
1.4721

> <Gold.Chemscore.Rot.Weighted>
10.3431

> <Gold.Chemscore.Internal.Correction.Weighted>
   9.000000E+99

> <Gold.Protein.RotatedTorsions>
[ 6907 6896 6895 6894 ] final  109.04 input  -60.11 | X-H torsion
[ 7974 7965 7964 7962 ] final   81.42 input  175.53 | X-H torsion
[ 8008 7997 7996 7995 ] final -157.85 input   59.86 | X-H torsion
[ 10167 10162 10161 10158 ] final  -13.30 input  -65.29 | X-H torsion
[ 10718 10713 10712 10709 ] final -108.72 input   66.30 | X-H torsion
[ 10763 10752 10751 10750 ] final   16.90 input  -60.55 | X-H torsion
[ 11005 11000 10999 10996 ] final   -1.53 input  -57.11 | X-H torsion

> <Gold.Protein.ActiveResidues>
 VAL166  LYS551  ARG553  GLY616  TRP617  ASP618  TYR619  PRO620  LYS621  CYS622 
 ASP623  PHE694  ASN695  SER759  ASP760  ASP761  ALA762  ILE779  LEU786  VAL792 
 PHE793  MET794  SER795  GLU796  ALA797  LYS798  CYS799  TRP800  GLU811  SER814 

> <Gold.Protein.RotatedAtoms>
  152.5085  133.9002  159.7436 H   0  0  0  0  0  0  0  0  0  0  0  0  # atno 6907 bound_to 6896
  150.9419  133.6638  159.2796 H   0  0  0  0  0  0  0  0  0  0  0  0  # atno 6908 bound_to 6896
  151.3946  135.0966  159.9589 H   0  0  0  0  0  0  0  0  0  0  0  0  # atno 6909 bound_to 6896
  145.6384  139.2420  143.2045 H   0  0  0  0  0  0  0  0  0  0  0  0  # atno 7974 bound_to 7965
  155.7386  140.0811  157.2256 H   0  0  0  0  0  0  0  0  0  0  0  0  # atno 8008 bound_to 7997
  154.4024  140.1582  156.2646 H   0  0  0  0  0  0  0  0  0  0  0  0  # atno 8009 bound_to 7997
  155.9041  140.3408  155.6052 H   0  0  0  0  0  0  0  0  0  0  0  0  # atno 8010 bound_to 7997
  140.7179  143.5441  150.9376 H   0  0  0  0  0  0  0  0  0  0  0  0  # atno 10167 bound_to 10162
  156.0500  130.5727  150.8000 H   0  0  0  0  0  0  0  0  0  0  0  0  # atno 10718 bound_to 10713
  153.1388  135.6755  153.9060 H   0  0  0  0  0  0  0  0  0  0  0  0  # atno 10763 bound_to 10752
  153.8523  135.3092  155.3434 H   0  0  0  0  0  0  0  0  0  0  0  0  # atno 10764 bound_to 10752
  154.7770  135.4909  153.9849 H   0  0  0  0  0  0  0  0  0  0  0  0  # atno 10765 bound_to 10752
  140.6484  133.9426  155.8366 H   0  0  0  0  0  0  0  0  0  0  0  0  # atno 11005 bound_to 11000
  146.1300  140.7197  142.9416 LP  0  0  0  0  0  0  0  0  0  0  0  0  # atno 17320 bound_to 7965
  144.7167  140.4233  143.7039 LP  0  0  0  0  0  0  0  0  0  0  0  0  # atno 17321 bound_to 7965
  139.9164  143.6658  152.3105 LP  0  0  0  0  0  0  0  0  0  0  0  0  # atno 17342 bound_to 10162
  139.7060  144.7628  151.1193 LP  0  0  0  0  0  0  0  0  0  0  0  0  # atno 17343 bound_to 10162
  157.5416  131.0941  150.9820 LP  0  0  0  0  0  0  0  0  0  0  0  0  # atno 17370 bound_to 10713
  157.0101  130.5633  149.5320 LP  0  0  0  0  0  0  0  0  0  0  0  0  # atno 17371 bound_to 10713
  141.0555  134.0423  157.3728 LP  0  0  0  0  0  0  0  0  0  0  0  0  # atno 17394 bound_to 11000
  139.9055  135.0178  156.7464 LP  0  0  0  0  0  0  0  0  0  0  0  0  # atno 17395 bound_to 11000

$$$$
