AV-unprocessed.smi:757|AV-procd|sdf|3616|dock4
  -GOLD-   22720 1 13D 1   1.00000     0.00000
 Structure written by MMmdl.
 44 45  0  0  0  0  0  0  0  0  1 V2000
  148.5483  126.8082  150.6741 C   0  0  0  0  0  0  0  0  0  0  0  0
  147.9064  127.6348  151.3032 C   0  0  0  0  0  0  0  0  0  0  0  0
  147.1323  128.6208  152.0781 C   0  0  0  0  0  0  0  0  0  0  0  0
  147.8456  129.1329  153.3478 C   0  0  0  0  0  0  0  0  0  0  0  0
  148.2057  130.5517  153.2851 N   0  0  0  0  0  0  0  0  0  0  0  0
  149.1417  130.8504  154.3717 C   0  0  0  0  0  0  0  0  0  0  0  0
  149.6265  132.3078  154.2822 C   0  0  0  0  0  0  0  0  0  0  0  0
  148.4423  133.2864  154.3437 C   0  0  0  0  0  0  0  0  0  0  0  0
  148.8847  134.6584  154.1134 N   0  0  0  0  0  0  0  0  0  0  0  0
  149.2493  135.5240  155.0697 C   0  0  0  0  0  0  0  0  0  0  0  0
  149.2704  135.2426  156.2676 O   0  0  0  0  0  0  0  0  0  0  0  0
  149.5985  136.7095  154.5414 N   0  0  0  0  0  0  0  0  0  0  0  0
  149.9988  137.8978  155.2105 C   0  0  0  0  0  0  0  0  0  0  0  0
  150.0894  138.0325  156.6168 C   0  0  0  0  0  0  0  0  0  0  0  0
  150.4790  139.2725  157.1580 C   0  0  0  0  0  0  0  0  0  0  0  0
  150.7587  140.3411  156.2833 C   0  0  0  0  0  0  0  0  0  0  0  0
  151.1389  141.5530  156.8223 O   0  0  0  0  0  0  0  0  0  0  0  0
  151.5569  141.5864  158.1824 C   0  0  0  0  0  0  0  0  0  0  0  0
  150.6629  140.2229  154.9359 N   0  0  0  0  0  0  0  0  0  0  0  0
  150.2887  139.0317  154.4238 C   0  0  0  0  0  0  0  0  0  0  0  0
  147.4078  132.8871  153.2819 C   0  0  0  0  0  0  0  0  0  0  0  0
  147.0194  131.4044  153.4149 C   0  0  0  0  0  0  0  0  0  0  0  0
  149.1085  126.0834  150.1270 H   0  0  0  0  0  0  0  0  0  0  0  0
  146.8506  129.4341  151.4107 H   0  0  0  0  0  0  0  0  0  0  0  0
  146.2018  128.1310  152.3654 H   0  0  0  0  0  0  0  0  0  0  0  0
  147.2254  128.9500  154.2267 H   0  0  0  0  0  0  0  0  0  0  0  0
  148.7512  128.5396  153.4858 H   0  0  0  0  0  0  0  0  0  0  0  0
  148.6690  130.6660  155.3379 H   0  0  0  0  0  0  0  0  0  0  0  0
  150.0044  130.1862  154.3061 H   0  0  0  0  0  0  0  0  0  0  0  0
  150.3259  132.5114  155.0937 H   0  0  0  0  0  0  0  0  0  0  0  0
  150.1811  132.4482  153.3530 H   0  0  0  0  0  0  0  0  0  0  0  0
  147.9709  133.2160  155.3262 H   0  0  0  0  0  0  0  0  0  0  0  0
  148.9064  134.9721  153.1541 H   0  0  0  0  0  0  0  0  0  0  0  0
  149.6118  136.7577  153.5331 H   0  0  0  0  0  0  0  0  0  0  0  0
  149.8556  137.2224  157.2895 H   0  0  0  0  0  0  0  0  0  0  0  0
  150.5564  139.4027  158.2273 H   0  0  0  0  0  0  0  0  0  0  0  0
  151.8191  142.6089  158.4537 H   0  0  0  0  0  0  0  0  0  0  0  0
  152.4386  140.9650  158.3447 H   0  0  0  0  0  0  0  0  0  0  0  0
  150.7602  141.2606  158.8528 H   0  0  0  0  0  0  0  0  0  0  0  0
  150.2210  138.9832  153.3466 H   0  0  0  0  0  0  0  0  0  0  0  0
  146.5176  133.5101  153.3757 H   0  0  0  0  0  0  0  0  0  0  0  0
  147.8075  133.0667  152.2823 H   0  0  0  0  0  0  0  0  0  0  0  0
  146.2941  131.1684  152.6377 H   0  0  0  0  0  0  0  0  0  0  0  0
  146.5297  131.2254  154.3734 H   0  0  0  0  0  0  0  0  0  0  0  0
  1  2  3  0  0  0  0
  1 23  1  0  0  0  0
  2  3  1  0  0  0  0
  3  4  1  0  0  0  0
  3 24  1  0  0  0  0
  3 25  1  0  0  0  0
  4  5  1  0  0  0  0
  4 26  1  0  0  0  0
  4 27  1  0  0  0  0
  5 22  1  0  0  0  0
  5  6  1  0  0  0  0
  6  7  1  0  0  0  0
  6 28  1  0  0  0  0
  6 29  1  0  0  0  0
  7  8  1  0  0  0  0
  7 30  1  0  0  0  0
  7 31  1  0  0  0  0
  8  9  1  0  0  0  0
  8 21  1  0  0  0  0
  8 32  1  0  0  0  0
  9 10  1  0  0  0  0
  9 33  1  0  0  0  0
 10 11  2  0  0  0  0
 10 12  1  0  0  0  0
 12 13  1  0  0  0  0
 12 34  1  0  0  0  0
 13 20  1  0  0  0  0
 13 14  2  0  0  0  0
 14 15  1  0  0  0  0
 14 35  1  0  0  0  0
 15 16  2  0  0  0  0
 15 36  1  0  0  0  0
 16 17  1  0  0  0  0
 16 19  1  0  0  0  0
 17 18  1  0  0  0  0
 18 37  1  0  0  0  0
 18 38  1  0  0  0  0
 18 39  1  0  0  0  0
 19 20  2  0  0  0  0
 20 40  1  0  0  0  0
 21 22  1  0  0  0  0
 21 41  1  0  0  0  0
 21 42  1  0  0  0  0
 22 43  1  0  0  0  0
 22 44  1  0  0  0  0
M  END
> <s_m_source_file>
AV-unprocessed.smi

> <i_m_source_file_index>
757

> <i_lp_mmshare_version>
43012

> <i_f3d_flags>
0

> <s_epik_input>
W0NIXSNDW0NIMl1bQ0gyXU4xW0NIMl1bQ0gyXVtDSF0oW0NIMl1bQ0gyXTEpW05IXUMoPU8pW05IXWMyW2NIXVtjSF1jKE9bQ0gzXSluW2NIXTI=

> <s_epik_cmdline>
J2VwaWtfcHl0aG9uJywgJy1waCcsICc3LjAnLCAnLXRuJywgJzgnLCAnLW1hJywgJzIwMCcsICctbWV0YWxfYmluZGluZycsICctaW1hZScsICc8aW5maWxlLm1hZT4nLCAnLW9tYWUnLCAnPG91dGZpbGUubWFlPic=

> <r_lp_tautomer_probability>
1

> <r_epik_Ionization_Penalty>
1.61445

> <r_epik_Ionization_Penalty_Charging>
0

> <r_epik_Ionization_Penalty_Neutral>
1.61445

> <r_epik_State_Penalty>
1.71357

> <r_epik_Charging_Adjusted_Penalty>
1.71357

> <i_epik_Tot_Q>
0

> <i_epik_Tot_abs_Q>
0

> <r_epik_Metal_State_Penalty>
1.71356

> <b_epik_Metal_Only>
0

> <s_lp_Force_Field>
OPLS_2005

> <r_lp_Energy>
17.5598

> <b_lp_Chiralities_Consistent>
1

> <s_lp_Variant>
AV-unprocessed.smi:757-3

> <Gold.Version>
5.8.1

> <Gold.Id.Protein>
6NUR|6NUR_protein|mol2

> <Gold.PLP.Fitness>
47.6007

> <Gold.PLP.PLP>
-37.9286

> <Gold.PLP.part.hbond>
-3.0000

> <Gold.PLP.part.metal>
0.0000

> <Gold.PLP.part.buried>
-5.7960

> <Gold.PLP.part.nonpolar>
-28.6880

> <Gold.PLP.part.repulsive>
1.1719

> <Gold.PLP.ligand.clash>
0.0000

> <Gold.PLP.ligand.torsion>
1.0162

> <Gold.PLP.Chemscore.Hbond>
2.9000

> <Gold.PLP.Chemscore.CHOScore>
1.0000

> <Gold.PLP.Chemscore.Metal>
0.0000

> <Gold.Chemscore.Hbonds>
donor molecule, donor type, donor heavy atom, donor atom, acceptor molecule, acceptor atom, score
      L1  H     9    33       P1  7948  1.00
      L1  H    12    34       P1  7948  1.00
      P1  H  7989  7998       L1    19  0.95
      L1  C    20    40       P1  7957  1.00

> <Gold.PLP.Chemscore.Internal.Correction>
0.0045

> <Gold.Rescore>
     Score         DG    S(hbond)    S(metal)    S(lipo)     H(rot)  DE(clash)    DE(int)     intcor
     16.29     -18.44       2.13        0.00      83.93       1.55       0.08       2.07       ----

> <Gold.Chemscore.Fitness>
16.2933

> <Gold.Chemscore.DG>
-18.4435

> <Gold.Chemscore.ZeroCoef>
-5.4800

> <Gold.Chemscore.Hbond>
2.1305

> <Gold.Chemscore.Metal>
0.0000

> <Gold.Chemscore.Lipo>
83.9319

> <Gold.Chemscore.Internal_Hbond>
0.0000

> <Gold.Chemscore.DEClash>
0.0797

> <Gold.Chemscore.DEInternal>
2.0705

> <Gold.Chemscore.Rot>
1.5517

> <Gold.Chemscore.Internal.Correction>
   9.000000E+99

> <Gold.Chemscore.Hbonds>
donor molecule, donor type, donor heavy atom, donor atom, acceptor molecule, acceptor atom, score
      L1  H     9    33       P1  7948  0.25
      L1  H    12    34       P1  7948  0.67
      P1  H  7989  7998       L1    19  0.21

> <Gold.Chemscore.Hbond.Weighted>
-7.1159

> <Gold.Chemscore.Metal.Weighted>
-0.0000

> <Gold.Chemscore.Lipo.Weighted>
-9.8200

> <Gold.Chemscore.Internal_Hbond.Weighted>
0.0000

> <Gold.Chemscore.DEClash.Weighted>
0.0797

> <Gold.Chemscore.DEInternal.Weighted>
2.0705

> <Gold.Chemscore.Rot.Weighted>
3.9725

> <Gold.Chemscore.Internal.Correction.Weighted>
   9.000000E+99

> <Gold.Protein.RotatedTorsions>
[ 6907 6896 6895 6894 ] final  160.40 input  -60.11 | X-H torsion
[ 7974 7965 7964 7962 ] final   30.40 input  175.53 | X-H torsion
[ 8008 7997 7996 7995 ] final   64.03 input   59.86 | X-H torsion
[ 10167 10162 10161 10158 ] final  -77.37 input  -65.29 | X-H torsion
[ 10718 10713 10712 10709 ] final   55.63 input   66.30 | X-H torsion
[ 10763 10752 10751 10750 ] final  -57.75 input  -60.55 | X-H torsion
[ 11005 11000 10999 10996 ] final -121.38 input  -57.11 | X-H torsion

> <Gold.Protein.ActiveResidues>
 VAL166  LYS551  ARG553  GLY616  TRP617  ASP618  TYR619  PRO620  LYS621  CYS622 
 ASP623  PHE694  ASN695  SER759  ASP760  ASP761  ALA762  ILE779  LEU786  VAL792 
 PHE793  MET794  SER795  GLU796  ALA797  LYS798  CYS799  TRP800  GLU811  SER814 

> <Gold.Protein.RotatedAtoms>
  151.9713  133.3726  159.4071 H   0  0  0  0  0  0  0  0  0  0  0  0  # atno 6907 bound_to 6896
  150.6948  134.4137  159.5183 H   0  0  0  0  0  0  0  0  0  0  0  0  # atno 6908 bound_to 6896
  152.1842  134.8728  160.0574 H   0  0  0  0  0  0  0  0  0  0  0  0  # atno 6909 bound_to 6896
  146.1614  139.6793  142.9031 H   0  0  0  0  0  0  0  0  0  0  0  0  # atno 7974 bound_to 7965
  155.6396  140.3496  155.4710 H   0  0  0  0  0  0  0  0  0  0  0  0  # atno 8008 bound_to 7997
  155.9937  140.1199  157.0637 H   0  0  0  0  0  0  0  0  0  0  0  0  # atno 8009 bound_to 7997
  154.4227  140.1114  156.5587 H   0  0  0  0  0  0  0  0  0  0  0  0  # atno 8010 bound_to 7997
  140.4776  143.2410  151.8108 H   0  0  0  0  0  0  0  0  0  0  0  0  # atno 10167 bound_to 10162
  157.5361  130.8664  149.8756 H   0  0  0  0  0  0  0  0  0  0  0  0  # atno 10718 bound_to 10713
  154.2273  135.6367  153.5164 H   0  0  0  0  0  0  0  0  0  0  0  0  # atno 10763 bound_to 10752
  152.9956  135.5511  154.6050 H   0  0  0  0  0  0  0  0  0  0  0  0  # atno 10764 bound_to 10752
  154.5525  135.2902  155.0969 H   0  0  0  0  0  0  0  0  0  0  0  0  # atno 10765 bound_to 10752
  141.0074  134.0314  157.3458 H   0  0  0  0  0  0  0  0  0  0  0  0  # atno 11005 bound_to 11000
  145.4579  141.0431  143.2768 LP  0  0  0  0  0  0  0  0  0  0  0  0  # atno 17320 bound_to 7965
  144.8032  139.6101  143.7062 LP  0  0  0  0  0  0  0  0  0  0  0  0  # atno 17321 bound_to 7965
  139.4828  144.4813  151.9302 LP  0  0  0  0  0  0  0  0  0  0  0  0  # atno 17342 bound_to 10162
  140.3899  144.2629  150.5900 LP  0  0  0  0  0  0  0  0  0  0  0  0  # atno 17343 bound_to 10162
  156.0460  130.3728  150.1317 LP  0  0  0  0  0  0  0  0  0  0  0  0  # atno 17370 bound_to 10713
  156.9499  130.9771  151.3500 LP  0  0  0  0  0  0  0  0  0  0  0  0  # atno 17371 bound_to 10713
  139.9071  135.0182  156.7533 LP  0  0  0  0  0  0  0  0  0  0  0  0  # atno 17394 bound_to 11000
  140.6789  133.9492  155.7899 LP  0  0  0  0  0  0  0  0  0  0  0  0  # atno 17395 bound_to 11000

$$$$
