AV-unprocessed.smi:577|AV-procd|sdf|2980|dock3
  -GOLD-   2262023493D 1   1.00000     0.00000
 Structure written by MMmdl.
 41 42  0  0  0  0  0  0  0  0  1 V2000
  152.9041  142.8621  162.4053 C   0  0  0  0  0  0  0  0  0  0  0  0
  152.3385  143.5956  161.2012 C   0  0  0  0  0  0  0  0  0  0  0  0
  151.5156  144.6482  161.2495 C   0  0  0  0  0  0  0  0  0  0  0  0
  151.1017  145.2564  159.6653 S   0  0  0  0  0  0  0  0  0  0  0  0
  152.1266  143.9889  158.9017 C   0  0  0  0  0  0  0  0  0  0  0  0
  152.2610  143.8847  157.6835 O   0  0  0  0  0  0  0  0  0  0  0  0
  152.6936  143.2013  159.9032 N   0  0  0  0  0  0  0  0  0  0  0  0
  153.5744  142.0621  159.6128 C   0  0  0  0  0  0  0  0  0  0  0  0
  152.8558  140.8991  158.9155 C   0  0  0  0  0  0  0  0  0  0  0  0
  153.4768  139.9052  158.5360 O   0  0  0  0  0  0  0  0  0  0  0  0
  151.5303  141.0452  158.7650 N   0  0  0  0  0  0  0  0  0  0  0  0
  150.6191  140.0831  158.1470 C   0  0  0  0  0  0  0  0  0  0  0  0
  151.2691  139.5366  156.8589 C   0  0  0  0  0  0  0  0  0  0  0  0
  150.3289  138.6989  155.9721 C   0  0  0  0  0  0  0  0  0  0  0  0
  150.0075  139.3284  154.6039 C   0  0  0  0  0  0  0  0  0  0  0  0
  149.6806  140.8365  154.5810 C   0  0  0  0  0  0  0  0  0  0  0  0
  148.5740  141.3108  155.5397 C   0  0  0  0  0  0  0  0  0  0  0  0
  149.0605  141.8078  156.9186 C   0  0  0  0  0  0  0  0  0  0  0  0
  149.2154  140.7152  157.9932 C   0  0  0  0  0  0  0  0  0  0  0  0
  152.8431  143.4922  163.2930 H   0  0  0  0  0  0  0  0  0  0  0  0
  153.9524  142.5986  162.2670 H   0  0  0  0  0  0  0  0  0  0  0  0
  152.3348  141.9525  162.5961 H   0  0  0  0  0  0  0  0  0  0  0  0
  151.1292  145.1188  162.1415 H   0  0  0  0  0  0  0  0  0  0  0  0
  154.4274  142.3762  159.0110 H   0  0  0  0  0  0  0  0  0  0  0  0
  154.0031  141.6893  160.5448 H   0  0  0  0  0  0  0  0  0  0  0  0
  151.1125  141.8960  159.1131 H   0  0  0  0  0  0  0  0  0  0  0  0
  150.4886  139.2292  158.8141 H   0  0  0  0  0  0  0  0  0  0  0  0
  151.7215  140.3460  156.2874 H   0  0  0  0  0  0  0  0  0  0  0  0
  152.1135  138.9108  157.1519 H   0  0  0  0  0  0  0  0  0  0  0  0
  150.7909  137.7274  155.7927 H   0  0  0  0  0  0  0  0  0  0  0  0
  149.4037  138.4630  156.4956 H   0  0  0  0  0  0  0  0  0  0  0  0
  150.8561  139.1626  153.9391 H   0  0  0  0  0  0  0  0  0  0  0  0
  149.1780  138.7769  154.1596 H   0  0  0  0  0  0  0  0  0  0  0  0
  150.5807  141.4332  154.7264 H   0  0  0  0  0  0  0  0  0  0  0  0
  149.3620  141.0707  153.5646 H   0  0  0  0  0  0  0  0  0  0  0  0
  148.0848  142.1589  155.0585 H   0  0  0  0  0  0  0  0  0  0  0  0
  147.7950  140.5545  155.6419 H   0  0  0  0  0  0  0  0  0  0  0  0
  149.9673  142.4061  156.8268 H   0  0  0  0  0  0  0  0  0  0  0  0
  148.3012  142.4999  157.2844 H   0  0  0  0  0  0  0  0  0  0  0  0
  148.4611  139.9433  157.8425 H   0  0  0  0  0  0  0  0  0  0  0  0
  148.9517  141.1538  158.9569 H   0  0  0  0  0  0  0  0  0  0  0  0
  1  2  1  0  0  0  0
  1 20  1  0  0  0  0
  1 21  1  0  0  0  0
  1 22  1  0  0  0  0
  2  7  1  0  0  0  0
  2  3  2  0  0  0  0
  3  4  1  0  0  0  0
  3 23  1  0  0  0  0
  4  5  1  0  0  0  0
  5  6  2  0  0  0  0
  5  7  1  0  0  0  0
  7  8  1  0  0  0  0
  8  9  1  0  0  0  0
  8 24  1  0  0  0  0
  8 25  1  0  0  0  0
  9 10  2  0  0  0  0
  9 11  1  0  0  0  0
 11 12  1  0  0  0  0
 11 26  1  0  0  0  0
 12 19  1  0  0  0  0
 12 13  1  0  0  0  0
 12 27  1  0  0  0  0
 13 14  1  0  0  0  0
 13 28  1  0  0  0  0
 13 29  1  0  0  0  0
 14 15  1  0  0  0  0
 14 30  1  0  0  0  0
 14 31  1  0  0  0  0
 15 16  1  0  0  0  0
 15 32  1  0  0  0  0
 15 33  1  0  0  0  0
 16 17  1  0  0  0  0
 16 34  1  0  0  0  0
 16 35  1  0  0  0  0
 17 18  1  0  0  0  0
 17 36  1  0  0  0  0
 17 37  1  0  0  0  0
 18 19  1  0  0  0  0
 18 38  1  0  0  0  0
 18 39  1  0  0  0  0
 19 40  1  0  0  0  0
 19 41  1  0  0  0  0
M  END
> <s_m_source_file>
AV-unprocessed.smi

> <i_m_source_file_index>
577

> <i_lp_mmshare_version>
43012

> <i_f3d_flags>
0

> <s_epik_input>
W0NIM11jMVtjSF1zYyg9TyluMVtDSDJdQyg9TylbTkhdW0NIXTJbQ0gyXVtDSDJdW0NIMl1bQ0gyXVtDSDJdW0NIMl1bQ0gyXTI=

> <s_epik_cmdline>
J2VwaWtfcHl0aG9uJywgJy1waCcsICc3LjAnLCAnLXRuJywgJzgnLCAnLW1hJywgJzIwMCcsICctbWV0YWxfYmluZGluZycsICctaW1hZScsICc8aW5maWxlLm1hZT4nLCAnLW9tYWUnLCAnPG91dGZpbGUubWFlPic=

> <r_lp_tautomer_probability>
1

> <r_epik_Ionization_Penalty>
1.32564e-06

> <r_epik_Ionization_Penalty_Charging>
1.22505e-06

> <r_epik_Ionization_Penalty_Neutral>
1.00582e-07

> <r_epik_State_Penalty>
-0

> <r_epik_Charging_Adjusted_Penalty>
1.22505e-06

> <i_epik_Tot_Q>
0

> <i_epik_Tot_abs_Q>
0

> <r_epik_Metal_State_Penalty>
-0

> <b_epik_Metal_Only>
0

> <s_lp_Force_Field>
OPLS_2005

> <r_lp_Energy>
25.6493

> <b_lp_Chiralities_Consistent>
1

> <s_lp_Variant>
AV-unprocessed.smi:577-1

> <Gold.Version>
5.8.1

> <Gold.Id.Protein>
6NUR|6NUR_protein|mol2

> <Gold.PLP.Fitness>
42.2437

> <Gold.PLP.PLP>
-39.6230

> <Gold.PLP.part.hbond>
-1.0000

> <Gold.PLP.part.metal>
0.0000

> <Gold.PLP.part.buried>
-0.2284

> <Gold.PLP.part.nonpolar>
-37.7689

> <Gold.PLP.part.repulsive>
0.2107

> <Gold.PLP.ligand.clash>
0.0000

> <Gold.PLP.ligand.torsion>
0.2081

> <Gold.PLP.Chemscore.Hbond>
1.0000

> <Gold.PLP.Chemscore.CHOScore>
0.0000

> <Gold.PLP.Chemscore.Metal>
0.0000

> <Gold.Chemscore.Hbonds>
donor molecule, donor type, donor heavy atom, donor atom, acceptor molecule, acceptor atom, score
      P1  H  7997  8010       L1    10  0.99

> <Gold.PLP.Chemscore.Internal.Correction>
0.0370

> <Gold.Rescore>
     Score         DG    S(hbond)    S(metal)    S(lipo)     H(rot)  DE(clash)    DE(int)     intcor
     13.30     -16.41       0.98        0.00      95.74       1.39       1.16       1.95       ----

> <Gold.Chemscore.Fitness>
13.2975

> <Gold.Chemscore.DG>
-16.4133

> <Gold.Chemscore.ZeroCoef>
-5.4800

> <Gold.Chemscore.Hbond>
0.9818

> <Gold.Chemscore.Metal>
0.0000

> <Gold.Chemscore.Lipo>
95.7414

> <Gold.Chemscore.Internal_Hbond>
0.0000

> <Gold.Chemscore.DEClash>
1.1637

> <Gold.Chemscore.DEInternal>
1.9521

> <Gold.Chemscore.Rot>
1.3858

> <Gold.Chemscore.Internal.Correction>
   9.000000E+99

> <Gold.Chemscore.Hbonds>
donor molecule, donor type, donor heavy atom, donor atom, acceptor molecule, acceptor atom, score
      P1  H  7997  8010       L1    10  0.90

> <Gold.Chemscore.Hbond.Weighted>
-3.2792

> <Gold.Chemscore.Metal.Weighted>
-0.0000

> <Gold.Chemscore.Lipo.Weighted>
-11.2017

> <Gold.Chemscore.Internal_Hbond.Weighted>
0.0000

> <Gold.Chemscore.DEClash.Weighted>
1.1637

> <Gold.Chemscore.DEInternal.Weighted>
1.9521

> <Gold.Chemscore.Rot.Weighted>
3.5476

> <Gold.Chemscore.Internal.Correction.Weighted>
   9.000000E+99

> <Gold.Protein.RotatedTorsions>
[ 6907 6896 6895 6894 ] final   -6.52 input  -60.11 | X-H torsion
[ 7974 7965 7964 7962 ] final  108.14 input  175.53 | X-H torsion
[ 8008 7997 7996 7995 ] final   39.46 input   59.86 | X-H torsion
[ 10167 10162 10161 10158 ] final   97.20 input  -65.29 | X-H torsion
[ 10718 10713 10712 10709 ] final  114.67 input   66.30 | X-H torsion
[ 10763 10752 10751 10750 ] final   51.16 input  -60.55 | X-H torsion
[ 11005 11000 10999 10996 ] final -114.48 input  -57.11 | X-H torsion

> <Gold.Protein.ActiveResidues>
 VAL166  LYS551  ARG553  GLY616  TRP617  ASP618  TYR619  PRO620  LYS621  CYS622 
 ASP623  PHE694  ASN695  SER759  ASP760  ASP761  ALA762  ILE779  LEU786  VAL792 
 PHE793  MET794  SER795  GLU796  ALA797  LYS798  CYS799  TRP800  GLU811  SER814 

> <Gold.Protein.RotatedAtoms>
  151.4642  135.1041  159.9732 H   0  0  0  0  0  0  0  0  0  0  0  0  # atno 6907 bound_to 6896
  152.4841  133.8325  159.7121 H   0  0  0  0  0  0  0  0  0  0  0  0  # atno 6908 bound_to 6896
  150.8936  133.7149  159.2924 H   0  0  0  0  0  0  0  0  0  0  0  0  # atno 6909 bound_to 6896
  145.2845  139.2621  143.3898 H   0  0  0  0  0  0  0  0  0  0  0  0  # atno 7974 bound_to 7965
  155.2370  140.3342  155.4296 H   0  0  0  0  0  0  0  0  0  0  0  0  # atno 8008 bound_to 7997
  156.2271  140.1834  156.7380 H   0  0  0  0  0  0  0  0  0  0  0  0  # atno 8009 bound_to 7997
  154.5917  140.0637  156.9233 H   0  0  0  0  0  0  0  0  0  0  0  0  # atno 8010 bound_to 7997
  139.7823  144.6884  151.0006 H   0  0  0  0  0  0  0  0  0  0  0  0  # atno 10167 bound_to 10162
  157.6268  131.1002  150.7219 H   0  0  0  0  0  0  0  0  0  0  0  0  # atno 10718 bound_to 10713
  152.9785  135.5855  154.4370 H   0  0  0  0  0  0  0  0  0  0  0  0  # atno 10763 bound_to 10752
  154.3976  135.2768  155.2118 H   0  0  0  0  0  0  0  0  0  0  0  0  # atno 10764 bound_to 10752
  154.3963  135.6113  153.5926 H   0  0  0  0  0  0  0  0  0  0  0  0  # atno 10765 bound_to 10752
  141.0549  133.9628  157.2772 H   0  0  0  0  0  0  0  0  0  0  0  0  # atno 11005 bound_to 11000
  146.3205  140.3321  142.8641 LP  0  0  0  0  0  0  0  0  0  0  0  0  # atno 17320 bound_to 7965
  144.9225  140.7884  143.5739 LP  0  0  0  0  0  0  0  0  0  0  0  0  # atno 17321 bound_to 7965
  140.7818  143.4470  151.0468 LP  0  0  0  0  0  0  0  0  0  0  0  0  # atno 17342 bound_to 10162
  139.8150  143.7898  152.3174 LP  0  0  0  0  0  0  0  0  0  0  0  0  # atno 17343 bound_to 10162
  156.7565  130.4785  149.5445 LP  0  0  0  0  0  0  0  0  0  0  0  0  # atno 17370 bound_to 10713
  156.1445  130.6267  151.0512 LP  0  0  0  0  0  0  0  0  0  0  0  0  # atno 17371 bound_to 10713
  139.9381  135.0194  156.8622 LP  0  0  0  0  0  0  0  0  0  0  0  0  # atno 17394 bound_to 11000
  140.5984  134.0195  155.7527 LP  0  0  0  0  0  0  0  0  0  0  0  0  # atno 17395 bound_to 11000

$$$$
