AV-unprocessed.smi:1825|AV-procd|sdf|7413|dock8
  -GOLD-   22720 9 93D 1   1.00000     0.00000
 Structure written by MMmdl.
 34 35  0  0  0  0  0  0  0  0  1 V2000
  145.5604  138.4348  153.7778 O   0  0  0  0  0  0  0  0  0  0  0  0
  146.4801  137.7894  153.2741 C   0  0  0  0  0  0  0  0  0  0  0  0
  146.2960  136.6752  152.5519 N   0  0  0  0  0  0  0  0  0  0  0  0
  145.0052  136.0399  152.2976 C   0  0  0  0  0  0  0  0  0  0  0  0
  145.0732  134.9194  151.2287 C   0  0  0  0  0  0  0  0  0  0  0  0
  145.2605  135.5519  149.9757 O   0  0  0  0  0  0  0  0  0  0  0  0
  146.3195  134.0371  151.4823 C   0  0  0  0  0  0  0  0  0  0  0  0
  146.4250  132.8446  150.5147 C   0  0  0  0  0  0  0  0  0  0  0  0
  145.1476  131.9943  150.5379 C   0  0  0  0  0  0  0  0  0  0  0  0
  143.9146  132.8502  150.2179 C   0  0  0  0  0  0  0  0  0  0  0  0
  143.7920  134.0470  151.1785 C   0  0  0  0  0  0  0  0  0  0  0  0
  147.7864  138.0915  153.3730 N   0  0  0  0  0  0  0  0  0  0  0  0
  148.3858  139.1853  154.0501 C   0  0  0  0  0  0  0  0  0  0  0  0
  149.4977  139.0984  154.7898 N   0  0  0  0  0  0  0  0  0  0  0  0
  149.8588  140.3303  155.3408 C   0  0  0  0  0  0  0  0  0  0  0  0
  149.0042  141.3518  155.0086 C   0  0  0  0  0  0  0  0  0  0  0  0
  147.7035  140.8037  153.9853 S   0  0  0  0  0  0  0  0  0  0  0  0
  147.1099  136.2126  152.1750 H   0  0  0  0  0  0  0  0  0  0  0  0
  144.5531  135.6741  153.2216 H   0  0  0  0  0  0  0  0  0  0  0  0
  144.3471  136.8338  151.9434 H   0  0  0  0  0  0  0  0  0  0  0  0
  145.7691  134.9780  149.4238 H   0  0  0  0  0  0  0  0  0  0  0  0
  147.2275  134.6391  151.4229 H   0  0  0  0  0  0  0  0  0  0  0  0
  146.2839  133.6492  152.5014 H   0  0  0  0  0  0  0  0  0  0  0  0
  146.6094  133.2032  149.5013 H   0  0  0  0  0  0  0  0  0  0  0  0
  147.2841  132.2286  150.7813 H   0  0  0  0  0  0  0  0  0  0  0  0
  145.2306  131.1779  149.8199 H   0  0  0  0  0  0  0  0  0  0  0  0
  145.0303  131.5338  151.5198 H   0  0  0  0  0  0  0  0  0  0  0  0
  143.9745  133.2080  149.1893 H   0  0  0  0  0  0  0  0  0  0  0  0
  143.0144  132.2377  150.2759 H   0  0  0  0  0  0  0  0  0  0  0  0
  143.5769  133.6714  152.1799 H   0  0  0  0  0  0  0  0  0  0  0  0
  142.9281  134.6455  150.8870 H   0  0  0  0  0  0  0  0  0  0  0  0
  148.4283  137.4607  152.9162 H   0  0  0  0  0  0  0  0  0  0  0  0
  150.7419  140.3900  155.9597 H   0  0  0  0  0  0  0  0  0  0  0  0
  149.0606  142.3891  155.3031 H   0  0  0  0  0  0  0  0  0  0  0  0
  1  2  2  0  0  0  0
  2  3  1  0  0  0  0
  2 12  1  0  0  0  0
  3  4  1  0  0  0  0
  3 18  1  0  0  0  0
  4  5  1  0  0  0  0
  4 19  1  0  0  0  0
  4 20  1  0  0  0  0
  5 11  1  0  0  0  0
  5  6  1  0  0  0  0
  5  7  1  0  0  0  0
  6 21  1  0  0  0  0
  7  8  1  0  0  0  0
  7 22  1  0  0  0  0
  7 23  1  0  0  0  0
  8  9  1  0  0  0  0
  8 24  1  0  0  0  0
  8 25  1  0  0  0  0
  9 10  1  0  0  0  0
  9 26  1  0  0  0  0
  9 27  1  0  0  0  0
 10 11  1  0  0  0  0
 10 28  1  0  0  0  0
 10 29  1  0  0  0  0
 11 30  1  0  0  0  0
 11 31  1  0  0  0  0
 12 13  1  0  0  0  0
 12 32  1  0  0  0  0
 13 17  1  0  0  0  0
 13 14  2  0  0  0  0
 14 15  1  0  0  0  0
 15 16  2  0  0  0  0
 15 33  1  0  0  0  0
 16 17  1  0  0  0  0
 16 34  1  0  0  0  0
M  END
> <s_m_source_file>
AV-unprocessed.smi

> <i_m_source_file_index>
1825

> <i_lp_mmshare_version>
43012

> <i_f3d_flags>
0

> <s_epik_input>
czFbY0hdW2NIXW5jMVtOSF1DKD1PKVtOSF1bQ0gyXUMyKFtPSF0pW0NIMl1bQ0gyXVtDSDJdW0NIMl1bQ0gyXTI=

> <s_epik_cmdline>
J2VwaWtfcHl0aG9uJywgJy1waCcsICc3LjAnLCAnLXRuJywgJzgnLCAnLW1hJywgJzIwMCcsICctbWV0YWxfYmluZGluZycsICctaW1hZScsICc8aW5maWxlLm1hZT4nLCAnLW9tYWUnLCAnPG91dGZpbGUubWFlPic=

> <r_lp_tautomer_probability>
0.999

> <r_epik_Ionization_Penalty>
0.000358719

> <r_epik_Ionization_Penalty_Charging>
0

> <r_epik_Ionization_Penalty_Neutral>
0.000358719

> <r_epik_State_Penalty>
0.000177984

> <r_epik_Charging_Adjusted_Penalty>
0.000177984

> <i_epik_Tot_Q>
0

> <i_epik_Tot_abs_Q>
0

> <r_epik_Metal_State_Penalty>
0.00708714

> <b_epik_Metal_Only>
0

> <s_lp_Force_Field>
OPLS_2005

> <r_lp_Energy>
11.7205

> <b_lp_Chiralities_Consistent>
1

> <s_lp_Variant>
AV-unprocessed.smi:1825-1

> <Gold.Version>
5.8.1

> <Gold.Id.Protein>
6NUR|6NUR_protein|mol2

> <Gold.PLP.Fitness>
42.8238

> <Gold.PLP.PLP>
-31.9242

> <Gold.PLP.part.hbond>
-3.7627

> <Gold.PLP.part.metal>
0.0000

> <Gold.PLP.part.buried>
-3.2717

> <Gold.PLP.part.nonpolar>
-26.2047

> <Gold.PLP.part.repulsive>
0.7980

> <Gold.PLP.ligand.clash>
0.0000

> <Gold.PLP.ligand.torsion>
0.5177

> <Gold.PLP.Chemscore.Hbond>
2.9760

> <Gold.PLP.Chemscore.CHOScore>
1.0000

> <Gold.PLP.Chemscore.Metal>
0.0000

> <Gold.Chemscore.Hbonds>
donor molecule, donor type, donor heavy atom, donor atom, acceptor molecule, acceptor atom, score
      L1  H     3    18       P1  7948  0.99
      L1  H     6    21       P1  7921  0.74
      L1  H    12    32       P1  7948  1.00
      L1  C    16    34       P1  8028  1.00

> <Gold.PLP.Chemscore.Internal.Correction>
0.0069

> <Gold.Rescore>
     Score         DG    S(hbond)    S(metal)    S(lipo)     H(rot)  DE(clash)    DE(int)     intcor
     17.80     -18.36       2.92        0.00      67.24       1.86       0.04       0.51       ----

> <Gold.Chemscore.Fitness>
17.8049

> <Gold.Chemscore.DG>
-18.3553

> <Gold.Chemscore.ZeroCoef>
-5.4800

> <Gold.Chemscore.Hbond>
2.9230

> <Gold.Chemscore.Metal>
0.0000

> <Gold.Chemscore.Lipo>
67.2385

> <Gold.Chemscore.Internal_Hbond>
0.0000

> <Gold.Chemscore.DEClash>
0.0440

> <Gold.Chemscore.DEInternal>
0.5064

> <Gold.Chemscore.Rot>
1.8572

> <Gold.Chemscore.Internal.Correction>
   9.000000E+99

> <Gold.Chemscore.Hbonds>
donor molecule, donor type, donor heavy atom, donor atom, acceptor molecule, acceptor atom, score
      L1  H     3    18       P1  7948  0.94
      L1  H     6    21       P1  7921  0.71
      L1  H    12    32       P1  7948  0.99

> <Gold.Chemscore.Hbond.Weighted>
-9.7629

> <Gold.Chemscore.Metal.Weighted>
-0.0000

> <Gold.Chemscore.Lipo.Weighted>
-7.8669

> <Gold.Chemscore.Internal_Hbond.Weighted>
0.0000

> <Gold.Chemscore.DEClash.Weighted>
0.0440

> <Gold.Chemscore.DEInternal.Weighted>
0.5064

> <Gold.Chemscore.Rot.Weighted>
4.7545

> <Gold.Chemscore.Internal.Correction.Weighted>
   9.000000E+99

> <Gold.Protein.RotatedTorsions>
[ 6907 6896 6895 6894 ] final  -80.95 input  -60.11 | X-H torsion
[ 7974 7965 7964 7962 ] final -154.43 input  175.53 | X-H torsion
[ 8008 7997 7996 7995 ] final -145.83 input   59.86 | X-H torsion
[ 10167 10162 10161 10158 ] final  102.34 input  -65.29 | X-H torsion
[ 10718 10713 10712 10709 ] final  114.86 input   66.30 | X-H torsion
[ 10763 10752 10751 10750 ] final  177.58 input  -60.55 | X-H torsion
[ 11005 11000 10999 10996 ] final   -1.54 input  -57.11 | X-H torsion

> <Gold.Protein.ActiveResidues>
 VAL166  LYS551  ARG553  GLY616  TRP617  ASP618  TYR619  PRO620  LYS621  CYS622 
 ASP623  PHE694  ASN695  SER759  ASP760  ASP761  ALA762  ILE779  LEU786  VAL792 
 PHE793  MET794  SER795  GLU796  ALA797  LYS798  CYS799  TRP800  GLU811  SER814 

> <Gold.Protein.RotatedAtoms>
  150.6920  134.3891  159.5068 H   0  0  0  0  0  0  0  0  0  0  0  0  # atno 6907 bound_to 6896
  152.1682  134.8853  160.0545 H   0  0  0  0  0  0  0  0  0  0  0  0  # atno 6908 bound_to 6896
  151.9889  133.3749  159.4173 H   0  0  0  0  0  0  0  0  0  0  0  0  # atno 6909 bound_to 6896
  144.7690  140.4389  143.5921 H   0  0  0  0  0  0  0  0  0  0  0  0  # atno 7974 bound_to 7965
  155.5495  140.0615  157.2853 H   0  0  0  0  0  0  0  0  0  0  0  0  # atno 8008 bound_to 7997
  154.4425  140.1905  156.0716 H   0  0  0  0  0  0  0  0  0  0  0  0  # atno 8009 bound_to 7997
  156.0527  140.3282  155.7373 H   0  0  0  0  0  0  0  0  0  0  0  0  # atno 8010 bound_to 7997
  139.7358  144.7024  151.0651 H   0  0  0  0  0  0  0  0  0  0  0  0  # atno 10167 bound_to 10162
  157.6256  131.1004  150.7247 H   0  0  0  0  0  0  0  0  0  0  0  0  # atno 10718 bound_to 10713
  154.4964  135.2781  155.1456 H   0  0  0  0  0  0  0  0  0  0  0  0  # atno 10763 bound_to 10752
  154.3107  135.6229  153.5468 H   0  0  0  0  0  0  0  0  0  0  0  0  # atno 10764 bound_to 10752
  152.9895  135.5719  154.5397 H   0  0  0  0  0  0  0  0  0  0  0  0  # atno 10765 bound_to 10752
  140.6485  133.9426  155.8366 H   0  0  0  0  0  0  0  0  0  0  0  0  # atno 11005 bound_to 11000
  145.6382  139.1546  143.2930 LP  0  0  0  0  0  0  0  0  0  0  0  0  # atno 17320 bound_to 7965
  146.1821  140.6481  142.9184 LP  0  0  0  0  0  0  0  0  0  0  0  0  # atno 17321 bound_to 7965
  140.7778  143.4985  150.9801 LP  0  0  0  0  0  0  0  0  0  0  0  0  # atno 17342 bound_to 10162
  139.8674  143.7237  152.3169 LP  0  0  0  0  0  0  0  0  0  0  0  0  # atno 17343 bound_to 10162
  156.7596  130.4794  149.5440 LP  0  0  0  0  0  0  0  0  0  0  0  0  # atno 17370 bound_to 10713
  156.1426  130.6255  151.0488 LP  0  0  0  0  0  0  0  0  0  0  0  0  # atno 17371 bound_to 10713
  141.0554  134.0423  157.3729 LP  0  0  0  0  0  0  0  0  0  0  0  0  # atno 17394 bound_to 11000
  139.9054  135.0178  156.7463 LP  0  0  0  0  0  0  0  0  0  0  0  0  # atno 17395 bound_to 11000

$$$$
