AV-unprocessed.smi:148|AV-procd|sdf|1228|dock3
  -GOLD-   2262018423D 1   1.00000     0.00000
 Structure written by MMmdl.
 63 67  0  0  0  0  0  0  0  0  1 V2000
  154.6308  139.5289  159.3920 O   0  0  0  0  0  0  0  0  0  0  0  0
  153.3503  139.6445  159.9776 C   0  0  0  0  0  0  0  0  0  0  0  0
  152.3435  140.3140  159.0101 C   0  0  2  0  0  0  0  0  0  0  0  0
  152.1950  139.5436  157.6743 C   0  0  0  0  0  0  0  0  0  0  0  0
  151.3604  138.3605  157.7905 N   0  0  0  0  0  0  0  0  0  0  0  0
  150.7502  137.8981  158.9342 C   0  0  0  0  0  0  0  0  0  0  0  0
  150.0568  136.8018  158.7904 N   0  0  0  0  0  0  0  0  0  0  0  0
  150.1944  136.4898  157.4430 C   0  0  0  0  0  0  0  0  0  0  0  0
  149.7088  135.4429  156.6089 C   0  0  0  0  0  0  0  0  0  0  0  0
  148.9336  134.4204  157.0305 N   0  0  0  0  0  0  0  0  0  0  0  0
  147.6338  134.9588  157.4392 C   0  0  0  0  0  0  0  0  0  0  0  0
  146.7907  133.9090  158.1681 C   0  0  0  0  0  0  0  0  0  0  0  0
  146.6348  132.6699  157.2866 C   0  0  0  0  0  0  0  0  0  0  0  0
  148.0178  132.1367  156.8939 C   0  0  0  0  0  0  0  0  0  0  0  0
  148.9000  133.2044  156.1891 C   0  0  2  0  0  0  0  0  0  0  0  0
  150.3165  132.6055  155.8782 C   0  0  2  0  0  0  0  0  0  0  0  0
  150.3797  131.1376  155.4025 C   0  0  0  0  0  0  0  0  0  0  0  0
  151.7909  130.6229  155.7201 C   0  0  0  0  0  0  0  0  0  0  0  0
  152.4534  131.6971  156.5871 C   0  0  0  0  0  0  0  0  0  0  0  0
  151.3121  132.5997  157.0583 C   0  0  2  0  0  0  0  0  0  0  0  0
  150.7329  132.0263  158.2175 O   0  0  0  0  0  0  0  0  0  0  0  0
  150.0694  135.4487  155.3020 N   0  0  0  0  0  0  0  0  0  0  0  0
  150.8401  136.4323  154.8281 C   0  0  0  0  0  0  0  0  0  0  0  0
  151.3553  137.4777  155.4792 N   0  0  0  0  0  0  0  0  0  0  0  0
  151.0068  137.4634  156.7979 C   0  0  0  0  0  0  0  0  0  0  0  0
  152.6643  141.8120  158.7750 C   0  0  1  0  0  0  0  0  0  0  0  0
  151.6651  142.5487  157.9003 C   0  0  0  0  0  0  0  0  0  0  0  0
  151.9589  144.0060  158.2364 C   0  0  0  0  0  0  0  0  0  0  0  0
  152.3422  144.0103  159.6065 O   0  0  0  0  0  0  0  0  0  0  0  0
  152.6271  142.6826  160.0365 C   0  0  0  0  0  0  0  0  0  0  0  0
  155.1853  139.0339  159.9755 H   0  0  0  0  0  0  0  0  0  0  0  0
  153.0102  138.6528  160.2756 H   0  0  0  0  0  0  0  0  0  0  0  0
  153.4416  140.2167  160.9004 H   0  0  0  0  0  0  0  0  0  0  0  0
  151.3722  140.2698  159.5054 H   0  0  0  0  0  0  0  0  0  0  0  0
  151.7520  140.1817  156.9097 H   0  0  0  0  0  0  0  0  0  0  0  0
  153.1738  139.2467  157.2962 H   0  0  0  0  0  0  0  0  0  0  0  0
  150.8426  138.4001  159.8865 H   0  0  0  0  0  0  0  0  0  0  0  0
  147.7744  135.8218  158.0924 H   0  0  0  0  0  0  0  0  0  0  0  0
  147.0916  135.3119  156.5608 H   0  0  0  0  0  0  0  0  0  0  0  0
  147.2676  133.6391  159.1113 H   0  0  0  0  0  0  0  0  0  0  0  0
  145.8122  134.3205  158.4168 H   0  0  0  0  0  0  0  0  0  0  0  0
  146.0700  131.9011  157.8149 H   0  0  0  0  0  0  0  0  0  0  0  0
  146.0655  132.9189  156.3902 H   0  0  0  0  0  0  0  0  0  0  0  0
  148.5284  131.7756  157.7881 H   0  0  0  0  0  0  0  0  0  0  0  0
  147.8671  131.2677  156.2552 H   0  0  0  0  0  0  0  0  0  0  0  0
  148.4169  133.4628  155.2462 H   0  0  0  0  0  0  0  0  0  0  0  0
  150.7663  133.2187  155.0950 H   0  0  0  0  0  0  0  0  0  0  0  0
  149.6502  130.5367  155.9467 H   0  0  0  0  0  0  0  0  0  0  0  0
  150.1700  131.0295  154.3395 H   0  0  0  0  0  0  0  0  0  0  0  0
  151.7339  129.6730  156.2527 H   0  0  0  0  0  0  0  0  0  0  0  0
  152.3681  130.4529  154.8106 H   0  0  0  0  0  0  0  0  0  0  0  0
  153.0364  131.2777  157.4083 H   0  0  0  0  0  0  0  0  0  0  0  0
  153.1385  132.2802  155.9700 H   0  0  0  0  0  0  0  0  0  0  0  0
  151.6792  133.5980  157.2981 H   0  0  0  0  0  0  0  0  0  0  0  0
  149.8655  131.7213  157.9998 H   0  0  0  0  0  0  0  0  0  0  0  0
  151.0783  136.3729  153.7764 H   0  0  0  0  0  0  0  0  0  0  0  0
  153.6511  141.9071  158.3183 H   0  0  0  0  0  0  0  0  0  0  0  0
  151.7822  142.3365  156.8372 H   0  0  0  0  0  0  0  0  0  0  0  0
  150.6440  142.2967  158.1904 H   0  0  0  0  0  0  0  0  0  0  0  0
  152.7952  144.3726  157.6402 H   0  0  0  0  0  0  0  0  0  0  0  0
  151.1034  144.6576  158.0580 H   0  0  0  0  0  0  0  0  0  0  0  0
  151.8255  142.3642  160.7044 H   0  0  0  0  0  0  0  0  0  0  0  0
  153.5636  142.6455  160.5936 H   0  0  0  0  0  0  0  0  0  0  0  0
  1  2  1  0  0  0  0
  1 31  1  0  0  0  0
  2  3  1  0  0  0  0
  2 32  1  0  0  0  0
  2 33  1  0  0  0  0
  3  4  1  0  0  0  0
  3 26  1  0  0  0  0
  3 34  1  0  0  0  0
  4  5  1  0  0  0  0
  4 35  1  0  0  0  0
  4 36  1  0  0  0  0
  5 25  1  0  0  0  0
  5  6  1  0  0  0  0
  6  7  2  0  0  0  0
  6 37  1  0  0  0  0
  7  8  1  0  0  0  0
  8 25  2  0  0  0  0
  8  9  1  0  0  0  0
  9 10  1  0  0  0  0
  9 22  2  0  0  0  0
 10 15  1  0  0  0  0
 10 11  1  0  0  0  0
 11 12  1  0  0  0  0
 11 38  1  0  0  0  0
 11 39  1  0  0  0  0
 12 13  1  0  0  0  0
 12 40  1  0  0  0  0
 12 41  1  0  0  0  0
 13 14  1  0  0  0  0
 13 42  1  0  0  0  0
 13 43  1  0  0  0  0
 14 15  1  0  0  0  0
 14 44  1  0  0  0  0
 14 45  1  0  0  0  0
 15 16  1  0  0  0  0
 15 46  1  0  0  0  0
 16 20  1  0  0  0  0
 16 17  1  0  0  0  0
 16 47  1  0  0  0  0
 17 18  1  0  0  0  0
 17 48  1  0  0  0  0
 17 49  1  0  0  0  0
 18 19  1  0  0  0  0
 18 50  1  0  0  0  0
 18 51  1  0  0  0  0
 19 20  1  0  0  0  0
 19 52  1  0  0  0  0
 19 53  1  0  0  0  0
 20 21  1  0  0  0  0
 20 54  1  0  0  0  0
 21 55  1  0  0  0  0
 22 23  1  0  0  0  0
 23 24  2  0  0  0  0
 23 56  1  0  0  0  0
 24 25  1  0  0  0  0
 26 30  1  0  0  0  0
 26 27  1  0  0  0  0
 26 57  1  0  0  0  0
 27 28  1  0  0  0  0
 27 58  1  0  0  0  0
 27 59  1  0  0  0  0
 28 29  1  0  0  0  0
 28 60  1  0  0  0  0
 28 61  1  0  0  0  0
 29 30  1  0  0  0  0
 30 62  1  0  0  0  0
 30 63  1  0  0  0  0
M  END
> <s_m_source_file>
AV-unprocessed.smi

> <i_m_source_file_index>
148

> <i_lp_mmshare_version>
43012

> <i_f3d_flags>
0

> <s_epik_input>
W0NIMl0xT1tDSDJdW0NIMl1bQ0BIXTFbQ0BIXShbQ0gyXVtPSF0pW0NIMl1uKFtjSF1uMiljKGMyMyluW2NIXW5jM040W0NIMl1bQ0gyXVtDSDJdW0NIMl1bQ0BIXTRbQ0BASF01W0NIMl1bQ0gyXVtDSDJdW0NASF01W09IXQ==

> <s_epik_cmdline>
J2VwaWtfcHl0aG9uJywgJy1waCcsICc3LjAnLCAnLXRuJywgJzgnLCAnLW1hJywgJzIwMCcsICctbWV0YWxfYmluZGluZycsICctaW1hZScsICc8aW5maWxlLm1hZT4nLCAnLW9tYWUnLCAnPG91dGZpbGUubWFlPic=

> <r_lp_tautomer_probability>
1

> <r_epik_Ionization_Penalty>
0.00556303

> <r_epik_Ionization_Penalty_Charging>
0

> <r_epik_Ionization_Penalty_Neutral>
0.00556303

> <r_epik_State_Penalty>
0.00401767

> <r_epik_Charging_Adjusted_Penalty>
0.00401767

> <i_epik_Tot_Q>
0

> <i_epik_Tot_abs_Q>
0

> <r_epik_Metal_State_Penalty>
-0

> <b_epik_Metal_Only>
0

> <s_lp_Force_Field>
OPLS_2005

> <r_lp_Energy>
70.1865

> <b_lp_Chiralities_Consistent>
1

> <s_lp_Variant>
AV-unprocessed.smi:148-27

> <Gold.Version>
5.8.1

> <Gold.Id.Protein>
6NUR|6NUR_protein|mol2

> <Gold.PLP.Fitness>
46.9644

> <Gold.PLP.PLP>
-36.1693

> <Gold.PLP.part.hbond>
-3.0000

> <Gold.PLP.part.metal>
0.0000

> <Gold.PLP.part.buried>
-6.6920

> <Gold.PLP.part.nonpolar>
-26.1742

> <Gold.PLP.part.repulsive>
0.1767

> <Gold.PLP.ligand.clash>
0.0000

> <Gold.PLP.ligand.torsion>
0.9456

> <Gold.PLP.Chemscore.Hbond>
3.0000

> <Gold.PLP.Chemscore.CHOScore>
1.0266

> <Gold.PLP.Chemscore.Metal>
0.0000

> <Gold.Chemscore.Hbonds>
donor molecule, donor type, donor heavy atom, donor atom, acceptor molecule, acceptor atom, score
      P1  H  6896  6908       L1    21  0.60
      P1  H  6896  6909       L1     7  0.44
      P1  H  7997  8010       L1     1  0.67
      L1  C    23    56       P1  7949  1.00

> <Gold.PLP.Chemscore.Internal.Correction>
0.6066

> <Gold.Rescore>
     Score         DG    S(hbond)    S(metal)    S(lipo)     H(rot)  DE(clash)    DE(int)     intcor
     12.41     -15.64       2.07        0.00     100.35       3.32       0.02       3.21       ----

> <Gold.Chemscore.Fitness>
12.4144

> <Gold.Chemscore.DG>
-15.6369

> <Gold.Chemscore.ZeroCoef>
-5.4800

> <Gold.Chemscore.Hbond>
2.0708

> <Gold.Chemscore.Metal>
0.0000

> <Gold.Chemscore.Lipo>
100.3467

> <Gold.Chemscore.Internal_Hbond>
0.0000

> <Gold.Chemscore.DEClash>
0.0174

> <Gold.Chemscore.DEInternal>
3.2051

> <Gold.Chemscore.Rot>
3.3203

> <Gold.Chemscore.Internal.Correction>
   9.000000E+99

> <Gold.Chemscore.Hbonds>
donor molecule, donor type, donor heavy atom, donor atom, acceptor molecule, acceptor atom, score
      P1  H  6896  6908       L1    21  0.04
      P1  H  6896  6909       L1     7  0.13
      P1  H  7997  8010       L1     1  0.66

> <Gold.Chemscore.Hbond.Weighted>
-6.9163

> <Gold.Chemscore.Metal.Weighted>
-0.0000

> <Gold.Chemscore.Lipo.Weighted>
-11.7406

> <Gold.Chemscore.Internal_Hbond.Weighted>
0.0000

> <Gold.Chemscore.DEClash.Weighted>
0.0174

> <Gold.Chemscore.DEInternal.Weighted>
3.2051

> <Gold.Chemscore.Rot.Weighted>
8.5000

> <Gold.Chemscore.Internal.Correction.Weighted>
   9.000000E+99

> <Gold.Protein.RotatedTorsions>
[ 6907 6896 6895 6894 ] final   81.27 input  -60.11 | X-H torsion
[ 7974 7965 7964 7962 ] final    0.72 input  175.53 | X-H torsion
[ 8008 7997 7996 7995 ] final    1.23 input   59.86 | X-H torsion
[ 10167 10162 10161 10158 ] final   30.88 input  -65.29 | X-H torsion
[ 10718 10713 10712 10709 ] final   51.77 input   66.30 | X-H torsion
[ 10763 10752 10751 10750 ] final  174.51 input  -60.55 | X-H torsion
[ 11005 11000 10999 10996 ] final  150.90 input  -57.11 | X-H torsion

> <Gold.Protein.ActiveResidues>
 VAL166  LYS551  ARG553  GLY616  TRP617  ASP618  TYR619  PRO620  LYS621  CYS622 
 ASP623  PHE694  ASN695  SER759  ASP760  ASP761  ALA762  ILE779  LEU786  VAL792 
 PHE793  MET794  SER795  GLU796  ALA797  LYS798  CYS799  TRP800  GLU811  SER814 

> <Gold.Protein.RotatedAtoms>
  152.5263  134.3229  159.9154 H   0  0  0  0  0  0  0  0  0  0  0  0  # atno 6907 bound_to 6896
  151.3178  133.4046  159.2659 H   0  0  0  0  0  0  0  0  0  0  0  0  # atno 6908 bound_to 6896
  150.9984  134.9319  159.7997 H   0  0  0  0  0  0  0  0  0  0  0  0  # atno 6909 bound_to 6896
  146.2436  140.1095  142.8344 H   0  0  0  0  0  0  0  0  0  0  0  0  # atno 7974 bound_to 7965
  154.6773  140.2625  155.6945 H   0  0  0  0  0  0  0  0  0  0  0  0  # atno 8008 bound_to 7997
  156.2683  140.2817  156.1227 H   0  0  0  0  0  0  0  0  0  0  0  0  # atno 8009 bound_to 7997
  155.1082  140.0375  157.2706 H   0  0  0  0  0  0  0  0  0  0  0  0  # atno 8010 bound_to 7997
  140.4638  144.0866  150.6219 H   0  0  0  0  0  0  0  0  0  0  0  0  # atno 10167 bound_to 10162
  157.5012  130.8439  149.8318 H   0  0  0  0  0  0  0  0  0  0  0  0  # atno 10718 bound_to 10713
  154.4549  135.2766  155.1755 H   0  0  0  0  0  0  0  0  0  0  0  0  # atno 10763 bound_to 10752
  154.3567  135.6138  153.5673 H   0  0  0  0  0  0  0  0  0  0  0  0  # atno 10764 bound_to 10752
  152.9850  135.5824  154.4900 H   0  0  0  0  0  0  0  0  0  0  0  0  # atno 10765 bound_to 10752
  140.1172  134.8887  157.2021 H   0  0  0  0  0  0  0  0  0  0  0  0  # atno 11005 bound_to 11000
  145.0499  140.9010  143.5001 LP  0  0  0  0  0  0  0  0  0  0  0  0  # atno 17320 bound_to 7965
  145.1191  139.2706  143.5598 LP  0  0  0  0  0  0  0  0  0  0  0  0  # atno 17321 bound_to 7965
  140.4061  143.2679  151.9889 LP  0  0  0  0  0  0  0  0  0  0  0  0  # atno 17342 bound_to 10162
  139.4809  144.5956  151.7696 LP  0  0  0  0  0  0  0  0  0  0  0  0  # atno 17343 bound_to 10162
  156.0230  130.3789  150.1905 LP  0  0  0  0  0  0  0  0  0  0  0  0  # atno 17370 bound_to 10713
  157.0095  130.9946  151.3369 LP  0  0  0  0  0  0  0  0  0  0  0  0  # atno 17371 bound_to 10713
  140.3013  134.3129  155.7289 LP  0  0  0  0  0  0  0  0  0  0  0  0  # atno 17394 bound_to 11000
  141.2144  133.7593  156.9644 LP  0  0  0  0  0  0  0  0  0  0  0  0  # atno 17395 bound_to 11000

$$$$
