AV-unprocessed.smi:2379|AV-procd|sdf|9451|dock3
  -GOLD-   2272013 83D 1   1.00000     0.00000
 Structure written by MMmdl.
 53 55  0  0  0  0  0  0  0  0  2 V2000
  152.3520  145.8226  160.2954 C   0  0  0  0  0  0  0  0  0  0  0  0
  152.2638  144.4802  159.6002 C   0  0  0  0  0  0  0  0  0  0  0  0
  153.1693  143.4464  159.9062 C   0  0  0  0  0  0  0  0  0  0  0  0
  153.0346  142.2211  159.2241 C   0  0  0  0  0  0  0  0  0  0  0  0
  153.9751  141.0672  159.5019 C   0  0  0  0  0  0  0  0  0  0  0  0
  152.0814  141.9962  158.2945 N   0  0  0  0  0  0  0  0  0  0  0  0
  151.2045  142.9852  157.9913 C   0  0  0  0  0  0  0  0  0  0  0  0
  150.1673  142.8514  157.0305 N   0  0  0  0  0  0  0  0  0  0  0  0
  149.6416  141.7209  156.5271 C   0  0  0  0  0  0  0  0  0  0  0  0
  149.9853  140.5771  156.8273 O   0  0  0  0  0  0  0  0  0  0  0  0
  148.6696  141.9903  155.6432 N   0  0  0  0  0  0  0  0  0  0  0  0
  147.8843  140.9898  154.9261 C   0  0  2  0  0  0  0  0  0  0  0  0
  148.8206  139.9311  154.3202 C   0  0  0  0  0  0  0  0  0  0  0  0
  148.0429  138.9183  153.4628 C   0  0  0  0  0  0  0  0  0  0  0  0
  147.2680  139.6046  152.3973 N   0  3  1  0  0  0  0  0  0  0  0  0
  146.6296  138.6624  151.4425 C   0  0  0  0  0  0  0  0  0  0  0  0
  146.0392  137.4337  152.1602 C   0  0  2  0  0  0  0  0  0  0  0  0
  145.4776  136.3549  151.2535 C   0  0  0  0  0  0  0  0  0  0  0  0
  144.5617  135.5817  152.1985 C   0  0  0  0  0  0  0  0  0  0  0  0
  144.1214  136.5220  153.1741 O   0  0  0  0  0  0  0  0  0  0  0  0
  144.8079  137.7575  153.0056 C   0  0  0  0  0  0  0  0  0  0  0  0
  146.3147  140.5901  152.9699 C   0  0  0  0  0  0  0  0  0  0  0  0
  147.0518  141.6463  153.8085 C   0  0  0  0  0  0  0  0  0  0  0  0
  151.2705  144.2446  158.6284 C   0  0  0  0  0  0  0  0  0  0  0  0
  153.0638  145.7946  161.1212 H   0  0  0  0  0  0  0  0  0  0  0  0
  151.3788  146.1081  160.6955 H   0  0  0  0  0  0  0  0  0  0  0  0
  152.6739  146.5901  159.5915 H   0  0  0  0  0  0  0  0  0  0  0  0
  153.9465  143.5886  160.6431 H   0  0  0  0  0  0  0  0  0  0  0  0
  154.6296  141.2851  160.3462 H   0  0  0  0  0  0  0  0  0  0  0  0
  154.5979  140.8695  158.6292 H   0  0  0  0  0  0  0  0  0  0  0  0
  153.4115  140.1632  159.7343 H   0  0  0  0  0  0  0  0  0  0  0  0
  149.7760  143.7185  156.6938 H   0  0  0  0  0  0  0  0  0  0  0  0
  148.4557  142.9589  155.4554 H   0  0  0  0  0  0  0  0  0  0  0  0
  147.2117  140.4916  155.6273 H   0  0  0  0  0  0  0  0  0  0  0  0
  149.5792  140.4159  153.7034 H   0  0  0  0  0  0  0  0  0  0  0  0
  149.3561  139.4072  155.1129 H   0  0  0  0  0  0  0  0  0  0  0  0
  148.7491  138.2194  153.0126 H   0  0  0  0  0  0  0  0  0  0  0  0
  147.3676  138.3315  154.0876 H   0  0  0  0  0  0  0  0  0  0  0  0
  145.8111  139.1662  150.9256 H   0  0  0  0  0  0  0  0  0  0  0  0
  147.3307  138.3656  150.6605 H   0  0  0  0  0  0  0  0  0  0  0  0
  146.7949  136.9919  152.8123 H   0  0  0  0  0  0  0  0  0  0  0  0
  144.8905  136.7998  150.4484 H   0  0  0  0  0  0  0  0  0  0  0  0
  146.2463  135.7224  150.8080 H   0  0  0  0  0  0  0  0  0  0  0  0
  143.7197  135.1251  151.6773 H   0  0  0  0  0  0  0  0  0  0  0  0
  145.1156  134.7905  152.7057 H   0  0  0  0  0  0  0  0  0  0  0  0
  145.0652  138.2028  153.9670 H   0  0  0  0  0  0  0  0  0  0  0  0
  144.1479  138.4487  152.4791 H   0  0  0  0  0  0  0  0  0  0  0  0
  145.7620  141.0867  152.1732 H   0  0  0  0  0  0  0  0  0  0  0  0
  145.5780  140.0715  153.5859 H   0  0  0  0  0  0  0  0  0  0  0  0
  146.3285  142.3426  154.2351 H   0  0  0  0  0  0  0  0  0  0  0  0
  147.7006  142.2358  153.1587 H   0  0  0  0  0  0  0  0  0  0  0  0
  150.5665  145.0251  158.3771 H   0  0  0  0  0  0  0  0  0  0  0  0
  147.9434  140.1298  151.8605 H   0  0  0  0  0  0  0  0  0  0  0  0
  1  2  1  0  0  0  0
  1 25  1  0  0  0  0
  1 26  1  0  0  0  0
  1 27  1  0  0  0  0
  2 24  1  0  0  0  0
  2  3  2  0  0  0  0
  3  4  1  0  0  0  0
  3 28  1  0  0  0  0
  4  5  1  0  0  0  0
  4  6  2  0  0  0  0
  5 29  1  0  0  0  0
  5 30  1  0  0  0  0
  5 31  1  0  0  0  0
  6  7  1  0  0  0  0
  7  8  1  0  0  0  0
  7 24  2  0  0  0  0
  8  9  1  0  0  0  0
  8 32  1  0  0  0  0
  9 10  2  0  0  0  0
  9 11  1  0  0  0  0
 11 12  1  0  0  0  0
 11 33  1  0  0  0  0
 12 23  1  0  0  0  0
 12 13  1  0  0  0  0
 12 34  1  0  0  0  0
 13 14  1  0  0  0  0
 13 35  1  0  0  0  0
 13 36  1  0  0  0  0
 14 15  1  0  0  0  0
 14 37  1  0  0  0  0
 14 38  1  0  0  0  0
 15 16  1  0  0  0  0
 15 22  1  0  0  0  0
 15 53  1  0  0  0  0
 16 17  1  0  0  0  0
 16 39  1  0  0  0  0
 16 40  1  0  0  0  0
 17 21  1  0  0  0  0
 17 18  1  0  0  0  0
 17 41  1  0  0  0  0
 18 19  1  0  0  0  0
 18 42  1  0  0  0  0
 18 43  1  0  0  0  0
 19 20  1  0  0  0  0
 19 44  1  0  0  0  0
 19 45  1  0  0  0  0
 20 21  1  0  0  0  0
 21 46  1  0  0  0  0
 21 47  1  0  0  0  0
 22 23  1  0  0  0  0
 22 48  1  0  0  0  0
 22 49  1  0  0  0  0
 23 50  1  0  0  0  0
 23 51  1  0  0  0  0
 24 52  1  0  0  0  0
M  CHG  1  15   1
M  END
> <s_m_source_file>
AV-unprocessed.smi

> <i_m_source_file_index>
2379

> <i_lp_mmshare_version>
43012

> <i_f3d_flags>
0

> <s_epik_input>
W0NIM11jMVtjSF1jKFtDSDNdKW5jKFtjSF0xKVtOSF1DKD1PKVtOSF1bQ0hdMltDSDJdW0NIMl1OKFtDSDJdW0NIMl0yKVtDSDJdW0NAQEhdM1tDSDJdW0NIMl1PW0NIMl0z

> <s_epik_cmdline>
J2VwaWtfcHl0aG9uJywgJy1waCcsICc3LjAnLCAnLXRuJywgJzgnLCAnLW1hJywgJzIwMCcsICctbWV0YWxfYmluZGluZycsICctaW1hZScsICc8aW5maWxlLm1hZT4nLCAnLW9tYWUnLCAnPG91dGZpbGUubWFlPic=

> <r_epik_Ionization_Penalty>
0.00766556

> <r_epik_Ionization_Penalty_Charging>
0.00747775

> <r_epik_Ionization_Penalty_Neutral>
0.00018781

> <r_epik_State_Penalty>
0.00558817

> <r_epik_Charging_Adjusted_Penalty>
0.0130659

> <i_epik_Tot_Q>
1

> <i_epik_Tot_abs_Q>
1

> <r_epik_Metal_State_Penalty>
-0

> <b_epik_Metal_Only>
0

> <s_lp_Force_Field>
OPLS_2005

> <r_lp_Energy>
36.075

> <b_lp_Chiralities_Consistent>
1

> <s_lp_Variant>
AV-unprocessed.smi:2379-1

> <Gold.Version>
5.8.1

> <Gold.Id.Protein>
6NUR|6NUR_protein|mol2

> <Gold.PLP.Fitness>
51.6618

> <Gold.PLP.PLP>
-43.5632

> <Gold.PLP.part.hbond>
-3.0000

> <Gold.PLP.part.metal>
0.0000

> <Gold.PLP.part.buried>
4.2046

> <Gold.PLP.part.nonpolar>
-44.3803

> <Gold.PLP.part.repulsive>
0.3266

> <Gold.PLP.ligand.clash>
0.0000

> <Gold.PLP.ligand.torsion>
0.4753

> <Gold.PLP.Chemscore.Hbond>
3.0000

> <Gold.PLP.Chemscore.CHOScore>
0.0000

> <Gold.PLP.Chemscore.Metal>
0.0000

> <Gold.Chemscore.Hbonds>
donor molecule, donor type, donor heavy atom, donor atom, acceptor molecule, acceptor atom, score
      L1  H     8    32       P1  8028  1.00
      L1  H    11    33       P1  8028  1.00
      L1  H    15    53       P1  7957  0.86

> <Gold.PLP.Chemscore.Internal.Correction>
0.0492

> <Gold.Rescore>
     Score         DG    S(hbond)    S(metal)    S(lipo)     H(rot)  DE(clash)    DE(int)     intcor
     21.02     -26.08       2.78        0.00     126.81       1.37       2.14       2.92       ----

> <Gold.Chemscore.Fitness>
21.0218

> <Gold.Chemscore.DG>
-26.0801

> <Gold.Chemscore.ZeroCoef>
-5.4800

> <Gold.Chemscore.Hbond>
2.7777

> <Gold.Chemscore.Metal>
0.0000

> <Gold.Chemscore.Lipo>
126.8051

> <Gold.Chemscore.Internal_Hbond>
0.0000

> <Gold.Chemscore.DEClash>
2.1368

> <Gold.Chemscore.DEInternal>
2.9215

> <Gold.Chemscore.Rot>
1.3725

> <Gold.Chemscore.Internal.Correction>
   9.000000E+99

> <Gold.Chemscore.Hbonds>
donor molecule, donor type, donor heavy atom, donor atom, acceptor molecule, acceptor atom, score
      L1  H     8    32       P1  8028  0.99
      L1  H    11    33       P1  8028  0.94
      L1  H    15    53       P1  7957  0.85

> <Gold.Chemscore.Hbond.Weighted>
-9.2775

> <Gold.Chemscore.Metal.Weighted>
-0.0000

> <Gold.Chemscore.Lipo.Weighted>
-14.8362

> <Gold.Chemscore.Internal_Hbond.Weighted>
0.0000

> <Gold.Chemscore.DEClash.Weighted>
2.1368

> <Gold.Chemscore.DEInternal.Weighted>
2.9215

> <Gold.Chemscore.Rot.Weighted>
3.5136

> <Gold.Chemscore.Internal.Correction.Weighted>
   9.000000E+99

> <Gold.Protein.RotatedTorsions>
[ 6907 6896 6895 6894 ] final   -7.10 input  -60.11 | X-H torsion
[ 7974 7965 7964 7962 ] final  -84.40 input  175.53 | X-H torsion
[ 8008 7997 7996 7995 ] final  105.59 input   59.86 | X-H torsion
[ 10167 10162 10161 10158 ] final -175.59 input  -65.29 | X-H torsion
[ 10718 10713 10712 10709 ] final -130.99 input   66.30 | X-H torsion
[ 10763 10752 10751 10750 ] final  -44.86 input  -60.55 | X-H torsion
[ 11005 11000 10999 10996 ] final -108.02 input  -57.11 | X-H torsion

> <Gold.Protein.ActiveResidues>
 VAL166  LYS551  ARG553  GLY616  TRP617  ASP618  TYR619  PRO620  LYS621  CYS622 
 ASP623  PHE694  ASN695  SER759  ASP760  ASP761  ALA762  ILE779  LEU786  VAL792 
 PHE793  MET794  SER795  GLU796  ALA797  LYS798  CYS799  TRP800  GLU811  SER814 

> <Gold.Protein.RotatedAtoms>
  151.4550  135.1033  159.9708 H   0  0  0  0  0  0  0  0  0  0  0  0  # atno 6907 bound_to 6896
  152.4874  133.8405  159.7160 H   0  0  0  0  0  0  0  0  0  0  0  0  # atno 6908 bound_to 6896
  150.8996  133.7076  159.2910 H   0  0  0  0  0  0  0  0  0  0  0  0  # atno 6909 bound_to 6896
  145.5071  140.9543  143.1728 H   0  0  0  0  0  0  0  0  0  0  0  0  # atno 7974 bound_to 7965
  156.1672  140.3128  155.8910 H   0  0  0  0  0  0  0  0  0  0  0  0  # atno 8008 bound_to 7997
  155.3661  140.0479  157.3063 H   0  0  0  0  0  0  0  0  0  0  0  0  # atno 8009 bound_to 7997
  154.5204  140.2196  155.8997 H   0  0  0  0  0  0  0  0  0  0  0  0  # atno 8010 bound_to 7997
  139.5573  144.1957  152.1180 H   0  0  0  0  0  0  0  0  0  0  0  0  # atno 10167 bound_to 10162
  156.2199  130.6972  151.0744 H   0  0  0  0  0  0  0  0  0  0  0  0  # atno 10718 bound_to 10713
  154.0190  135.6671  153.4771 H   0  0  0  0  0  0  0  0  0  0  0  0  # atno 10763 bound_to 10752
  153.0588  135.5040  154.8041 H   0  0  0  0  0  0  0  0  0  0  0  0  # atno 10764 bound_to 10752
  154.6949  135.3068  154.9391 H   0  0  0  0  0  0  0  0  0  0  0  0  # atno 10765 bound_to 10752
  141.0923  133.9032  157.2045 H   0  0  0  0  0  0  0  0  0  0  0  0  # atno 11005 bound_to 11000
  144.7748  139.6655  143.7179 LP  0  0  0  0  0  0  0  0  0  0  0  0  # atno 17320 bound_to 7965
  146.2190  139.5601  142.9631 LP  0  0  0  0  0  0  0  0  0  0  0  0  # atno 17321 bound_to 7965
  140.1464  144.5155  150.6713 LP  0  0  0  0  0  0  0  0  0  0  0  0  # atno 17342 bound_to 10162
  140.6848  143.2344  151.5290 LP  0  0  0  0  0  0  0  0  0  0  0  0  # atno 17343 bound_to 10162
  157.7082  131.0746  150.6593 LP  0  0  0  0  0  0  0  0  0  0  0  0  # atno 17370 bound_to 10713
  156.6656  130.4525  149.5673 LP  0  0  0  0  0  0  0  0  0  0  0  0  # atno 17371 bound_to 10713
  139.9752  135.0116  156.9613 LP  0  0  0  0  0  0  0  0  0  0  0  0  # atno 17394 bound_to 11000
  140.5222  134.0896  155.7295 LP  0  0  0  0  0  0  0  0  0  0  0  0  # atno 17395 bound_to 11000

$$$$
