AV-unprocessed.smi:1033|AV-procd|sdf|4500|dock7
  -GOLD-   22720 2493D 1   1.00000     0.00000
 Structure written by MMmdl.
 57 59  0  0  0  0  0  0  0  0  3 V2000
  146.1122  130.1348  152.6045 C   0  0  0  0  0  0  0  0  0  0  0  0
  145.9958  131.5917  152.1895 C   0  0  0  0  0  0  0  0  0  0  0  0
  144.8357  132.0050  151.4966 C   0  0  0  0  0  0  0  0  0  0  0  0
  144.7594  133.3431  151.1289 C   0  0  0  0  0  0  0  0  0  0  0  0
  143.7653  134.0480  150.4473 N   0  3  0  0  0  0  0  0  0  0  0  0
  144.1386  135.3511  150.3186 C   0  0  0  0  0  0  0  0  0  0  0  0
  145.3587  135.4894  150.9061 N   0  0  0  0  0  0  0  0  0  0  0  0
  146.1978  136.6881  151.0516 C   0  0  0  0  0  0  0  0  0  0  0  0
  145.7617  137.5895  152.2236 C   0  0  2  0  0  0  0  0  0  0  0  0
  144.4297  138.0194  152.0203 O   0  0  0  0  0  0  0  0  0  0  0  0
  146.6671  138.8313  152.3503 C   0  0  0  0  0  0  0  0  0  0  0  0
  146.3441  139.6653  153.5360 N   0  3  0  0  0  0  0  0  0  0  0  0
  147.3310  140.7567  153.7440 C   0  0  0  0  0  0  0  0  0  0  0  0
  146.9210  141.6360  154.9436 C   0  0  0  0  0  0  0  0  0  0  0  0
  146.7566  140.8800  156.1848 N   0  0  0  0  0  0  0  0  0  0  0  0
  148.0372  140.4259  156.7469 C   0  0  0  0  0  0  0  0  0  0  0  0
  149.1707  141.4733  156.8298 C   0  0  1  0  0  0  0  0  0  0  0  0
  149.9306  141.7016  155.5139 C   0  0  0  0  0  0  0  0  0  0  0  0
  148.6847  142.6980  157.3403 O   0  0  0  0  0  0  0  0  0  0  0  0
  145.7753  139.8180  155.9501 C   0  0  0  0  0  0  0  0  0  0  0  0
  146.1564  138.8817  154.7865 C   0  0  0  0  0  0  0  0  0  0  0  0
  145.7851  134.2615  151.4279 C   0  0  0  0  0  0  0  0  0  0  0  0
  146.9349  133.8699  152.1103 C   0  0  0  0  0  0  0  0  0  0  0  0
  147.0320  132.5126  152.4925 C   0  0  0  0  0  0  0  0  0  0  0  0
  148.2757  132.0566  153.2365 C   0  0  0  0  0  0  0  0  0  0  0  0
  145.2475  129.5564  152.2776 H   0  0  0  0  0  0  0  0  0  0  0  0
  146.1790  130.0499  153.6894 H   0  0  0  0  0  0  0  0  0  0  0  0
  147.0008  129.6805  152.1659 H   0  0  0  0  0  0  0  0  0  0  0  0
  144.0426  131.3097  151.2629 H   0  0  0  0  0  0  0  0  0  0  0  0
  143.5674  136.1334  149.8393 H   0  0  0  0  0  0  0  0  0  0  0  0
  147.2193  136.3413  151.2135 H   0  0  0  0  0  0  0  0  0  0  0  0
  146.2107  137.2368  150.1093 H   0  0  0  0  0  0  0  0  0  0  0  0
  145.7924  136.9998  153.1392 H   0  0  0  0  0  0  0  0  0  0  0  0
  144.3986  138.9593  152.1185 H   0  0  0  0  0  0  0  0  0  0  0  0
  147.7167  138.5370  152.3959 H   0  0  0  0  0  0  0  0  0  0  0  0
  146.5593  139.4298  151.4440 H   0  0  0  0  0  0  0  0  0  0  0  0
  148.3264  140.3357  153.8908 H   0  0  0  0  0  0  0  0  0  0  0  0
  147.3822  141.3767  152.8483 H   0  0  0  0  0  0  0  0  0  0  0  0
  147.6531  142.4314  155.0875 H   0  0  0  0  0  0  0  0  0  0  0  0
  145.9819  142.1384  154.7073 H   0  0  0  0  0  0  0  0  0  0  0  0
  147.8942  139.9635  157.7234 H   0  0  0  0  0  0  0  0  0  0  0  0
  148.4093  139.6251  156.1064 H   0  0  0  0  0  0  0  0  0  0  0  0
  149.8894  141.1163  157.5681 H   0  0  0  0  0  0  0  0  0  0  0  0
  150.3251  140.7629  155.1241 H   0  0  0  0  0  0  0  0  0  0  0  0
  150.7740  142.3766  155.6629 H   0  0  0  0  0  0  0  0  0  0  0  0
  149.2920  142.1396  154.7464 H   0  0  0  0  0  0  0  0  0  0  0  0
  148.5720  143.3005  156.6210 H   0  0  0  0  0  0  0  0  0  0  0  0
  145.6116  139.2398  156.8579 H   0  0  0  0  0  0  0  0  0  0  0  0
  144.8104  140.2754  155.7263 H   0  0  0  0  0  0  0  0  0  0  0  0
  145.3626  138.1476  154.6561 H   0  0  0  0  0  0  0  0  0  0  0  0
  147.0632  138.3224  155.0198 H   0  0  0  0  0  0  0  0  0  0  0  0
  147.7270  134.5672  152.3392 H   0  0  0  0  0  0  0  0  0  0  0  0
  148.9627  132.8851  153.4118 H   0  0  0  0  0  0  0  0  0  0  0  0
  148.8081  131.2981  152.6623 H   0  0  0  0  0  0  0  0  0  0  0  0
  148.0099  131.6350  154.2061 H   0  0  0  0  0  0  0  0  0  0  0  0
  145.4633  140.1183  153.3363 H   0  0  0  0  0  0  0  0  0  0  0  0
  142.8935  133.6706  150.0980 H   0  0  0  0  0  0  0  0  0  0  0  0
  1  2  1  0  0  0  0
  1 26  1  0  0  0  0
  1 27  1  0  0  0  0
  1 28  1  0  0  0  0
  2 24  1  0  0  0  0
  2  3  2  0  0  0  0
  3  4  1  0  0  0  0
  3 29  1  0  0  0  0
  4 22  2  0  0  0  0
  4  5  1  0  0  0  0
  5  6  2  0  0  0  0
  5 57  1  0  0  0  0
  6  7  1  0  0  0  0
  6 30  1  0  0  0  0
  7  8  1  0  0  0  0
  7 22  1  0  0  0  0
  8  9  1  0  0  0  0
  8 31  1  0  0  0  0
  8 32  1  0  0  0  0
  9 10  1  0  0  0  0
  9 11  1  0  0  0  0
  9 33  1  0  0  0  0
 10 34  1  0  0  0  0
 11 12  1  0  0  0  0
 11 35  1  0  0  0  0
 11 36  1  0  0  0  0
 12 21  1  0  0  0  0
 12 13  1  0  0  0  0
 12 56  1  0  0  0  0
 13 14  1  0  0  0  0
 13 37  1  0  0  0  0
 13 38  1  0  0  0  0
 14 15  1  0  0  0  0
 14 39  1  0  0  0  0
 14 40  1  0  0  0  0
 15 16  1  0  0  0  0
 15 20  1  0  0  0  0
 16 17  1  0  0  0  0
 16 41  1  0  0  0  0
 16 42  1  0  0  0  0
 17 18  1  0  0  0  0
 17 19  1  0  0  0  0
 17 43  1  0  0  0  0
 18 44  1  0  0  0  0
 18 45  1  0  0  0  0
 18 46  1  0  0  0  0
 19 47  1  0  0  0  0
 20 21  1  0  0  0  0
 20 48  1  0  0  0  0
 20 49  1  0  0  0  0
 21 50  1  0  0  0  0
 21 51  1  0  0  0  0
 22 23  1  0  0  0  0
 23 24  2  0  0  0  0
 23 52  1  0  0  0  0
 24 25  1  0  0  0  0
 25 53  1  0  0  0  0
 25 54  1  0  0  0  0
 25 55  1  0  0  0  0
M  CHG  1   5   1
M  CHG  1  12   1
M  END
> <s_m_source_file>
AV-unprocessed.smi

> <i_m_source_file_index>
1033

> <i_lp_mmshare_version>
43012

> <i_f3d_flags>
0

> <s_epik_input>
W0NIM11jKFtjSF0xKWMoW0NIM10pW2NIXWMoYzEyKW4oW2NIXW4yKVtDSDJdW0NASF0oW09IXSlbQ0gyXU4zW0NIMl1bQ0gyXU4oW0NIMl1bQ0gyXTMpW0NIMl1bQ0BIXShbQ0gzXSlbT0hd

> <s_epik_cmdline>
J2VwaWtfcHl0aG9uJywgJy1waCcsICc3LjAnLCAnLXRuJywgJzgnLCAnLW1hJywgJzIwMCcsICctbWV0YWxfYmluZGluZycsICctaW1hZScsICc8aW5maWxlLm1hZT4nLCAnLW9tYWUnLCAnPG91dGZpbGUubWFlPic=

> <r_epik_Ionization_Penalty>
1.22049

> <r_epik_Ionization_Penalty_Charging>
1.17952

> <r_epik_Ionization_Penalty_Neutral>
0.0409743

> <r_epik_State_Penalty>
1.61468

> <r_epik_Charging_Adjusted_Penalty>
2.7942

> <i_epik_Tot_Q>
2

> <i_epik_Tot_abs_Q>
2

> <r_epik_Metal_State_Penalty>
5.63169

> <b_epik_Metal_Only>
0

> <s_lp_Force_Field>
OPLS_2005

> <r_lp_Energy>
46.6999

> <b_lp_Chiralities_Consistent>
1

> <s_lp_Variant>
AV-unprocessed.smi:1033-11

> <Gold.Version>
5.8.1

> <Gold.Id.Protein>
6NUR|6NUR_protein|mol2

> <Gold.PLP.Fitness>
60.6404

> <Gold.PLP.PLP>
-42.0171

> <Gold.PLP.part.hbond>
-4.2695

> <Gold.PLP.part.metal>
0.0000

> <Gold.PLP.part.buried>
-1.4235

> <Gold.PLP.part.nonpolar>
-37.4425

> <Gold.PLP.part.repulsive>
0.0475

> <Gold.PLP.ligand.clash>
0.0000

> <Gold.PLP.ligand.torsion>
0.5850

> <Gold.PLP.Chemscore.Hbond>
5.5505

> <Gold.PLP.Chemscore.CHOScore>
1.0000

> <Gold.PLP.Chemscore.Metal>
0.0000

> <Gold.Chemscore.Hbonds>
donor molecule, donor type, donor heavy atom, donor atom, acceptor molecule, acceptor atom, score
      L1  H     5    57       P1 10186  1.20
      L1  H    10    34       P1 10175  1.00
      L1  H    12    56       P1 10175  2.00
      L1  H    19    47       P1  8028  1.00
      L1  C     6    30       P1 10171  1.00

> <Gold.PLP.Chemscore.Internal.Correction>
0.1418

> <Gold.Rescore>
     Score         DG    S(hbond)    S(metal)    S(lipo)     H(rot)  DE(clash)    DE(int)     intcor
     19.11     -21.54       3.57        0.00     104.09       3.15       0.95       1.48       ----

> <Gold.Chemscore.Fitness>
19.1073

> <Gold.Chemscore.DG>
-21.5365

> <Gold.Chemscore.ZeroCoef>
-5.4800

> <Gold.Chemscore.Hbond>
3.5743

> <Gold.Chemscore.Metal>
0.0000

> <Gold.Chemscore.Lipo>
104.0852

> <Gold.Chemscore.Internal_Hbond>
0.0000

> <Gold.Chemscore.DEClash>
0.9518

> <Gold.Chemscore.DEInternal>
1.4775

> <Gold.Chemscore.Rot>
3.1483

> <Gold.Chemscore.Internal.Correction>
   9.000000E+99

> <Gold.Chemscore.Hbonds>
donor molecule, donor type, donor heavy atom, donor atom, acceptor molecule, acceptor atom, score
      L1  H     5    57       P1 10186  0.59
      L1  H    10    34       P1 10175  0.98
      L1  H    12    56       P1 10175  0.95
      L1  H    19    47       P1  8028  0.65

> <Gold.Chemscore.Hbond.Weighted>
-11.9383

> <Gold.Chemscore.Metal.Weighted>
-0.0000

> <Gold.Chemscore.Lipo.Weighted>
-12.1780

> <Gold.Chemscore.Internal_Hbond.Weighted>
0.0000

> <Gold.Chemscore.DEClash.Weighted>
0.9518

> <Gold.Chemscore.DEInternal.Weighted>
1.4775

> <Gold.Chemscore.Rot.Weighted>
8.0597

> <Gold.Chemscore.Internal.Correction.Weighted>
   9.000000E+99

> <Gold.Protein.RotatedTorsions>
[ 6907 6896 6895 6894 ] final  -93.78 input  -60.11 | X-H torsion
[ 7974 7965 7964 7962 ] final -110.61 input  175.53 | X-H torsion
[ 8008 7997 7996 7995 ] final -119.84 input   59.86 | X-H torsion
[ 10167 10162 10161 10158 ] final  -36.63 input  -65.29 | X-H torsion
[ 10718 10713 10712 10709 ] final  -13.48 input   66.30 | X-H torsion
[ 10763 10752 10751 10750 ] final  -43.00 input  -60.55 | X-H torsion
[ 11005 11000 10999 10996 ] final   40.42 input  -57.11 | X-H torsion

> <Gold.Protein.ActiveResidues>
 VAL166  LYS551  ARG553  GLY616  TRP617  ASP618  TYR619  PRO620  LYS621  CYS622 
 ASP623  PHE694  ASN695  SER759  ASP760  ASP761  ALA762  ILE779  LEU786  VAL792 
 PHE793  MET794  SER795  GLU796  ALA797  LYS798  CYS799  TRP800  GLU811  SER814 

> <Gold.Protein.RotatedAtoms>
  150.6929  134.1913  159.4286 H   0  0  0  0  0  0  0  0  0  0  0  0  # atno 6907 bound_to 6896
  151.9884  134.9990  160.0570 H   0  0  0  0  0  0  0  0  0  0  0  0  # atno 6908 bound_to 6896
  152.1690  133.4596  159.4936 H   0  0  0  0  0  0  0  0  0  0  0  0  # atno 6909 bound_to 6896
  145.1661  140.8902  143.3562 H   0  0  0  0  0  0  0  0  0  0  0  0  # atno 7974 bound_to 7965
  155.1222  140.0399  157.2753 H   0  0  0  0  0  0  0  0  0  0  0  0  # atno 8008 bound_to 7997
  154.6605  140.2590  155.7089 H   0  0  0  0  0  0  0  0  0  0  0  0  # atno 8009 bound_to 7997
  156.2617  140.2818  156.1075 H   0  0  0  0  0  0  0  0  0  0  0  0  # atno 8010 bound_to 7997
  140.7138  143.3396  151.2387 H   0  0  0  0  0  0  0  0  0  0  0  0  # atno 10167 bound_to 10162
  156.6296  130.4898  149.6134 H   0  0  0  0  0  0  0  0  0  0  0  0  # atno 10718 bound_to 10713
  153.9883  135.6708  153.4753 H   0  0  0  0  0  0  0  0  0  0  0  0  # atno 10763 bound_to 10752
  153.0716  135.4971  154.8314 H   0  0  0  0  0  0  0  0  0  0  0  0  # atno 10764 bound_to 10752
  154.7124  135.3100  154.9139 H   0  0  0  0  0  0  0  0  0  0  0  0  # atno 10765 bound_to 10752
  140.1932  134.3961  155.8135 H   0  0  0  0  0  0  0  0  0  0  0  0  # atno 11005 bound_to 11000
  145.0281  139.3365  143.6038 LP  0  0  0  0  0  0  0  0  0  0  0  0  # atno 17320 bound_to 7965
  146.3475  139.9607  142.8717 LP  0  0  0  0  0  0  0  0  0  0  0  0  # atno 17321 bound_to 7965
  139.6900  143.9708  152.2854 LP  0  0  0  0  0  0  0  0  0  0  0  0  # atno 17342 bound_to 10162
  139.9367  144.6708  150.8308 LP  0  0  0  0  0  0  0  0  0  0  0  0  # atno 17343 bound_to 10162
  156.2245  130.6757  151.1402 LP  0  0  0  0  0  0  0  0  0  0  0  0  # atno 17370 bound_to 10713
  157.7204  131.0685  150.6159 LP  0  0  0  0  0  0  0  0  0  0  0  0  # atno 17371 bound_to 10713
  141.2226  133.7057  156.8131 LP  0  0  0  0  0  0  0  0  0  0  0  0  # atno 17394 bound_to 11000
  140.2136  134.8809  157.3301 LP  0  0  0  0  0  0  0  0  0  0  0  0  # atno 17395 bound_to 11000

$$$$
