AV-unprocessed.smi:102|AV-procd|sdf|966|dock6
  -GOLD-   2262017513D 1   1.00000     0.00000
 Structure written by MMmdl.
 43 44  0  0  0  0  0  0  0  0  2 V2000
  150.5464  141.5793  156.7298 C   0  0  0  0  0  0  0  0  0  0  0  0
  150.8995  140.3041  155.9758 C   0  0  0  0  0  0  0  0  0  0  0  0
  150.9773  140.2829  154.7473 O   0  0  0  0  0  0  0  0  0  0  0  0
  151.1000  139.2655  156.7969 O   0  0  0  0  0  0  0  0  0  0  0  0
  151.7743  138.1078  156.3282 C   0  0  0  0  0  0  0  0  0  0  0  0
  150.8307  136.8942  156.3437 C   0  0  1  0  0  0  0  0  0  0  0  0
  150.5817  136.4535  157.6667 O   0  0  0  0  0  0  0  0  0  0  0  0
  149.4389  135.6595  157.6566 C   0  0  1  0  0  0  0  0  0  0  0  0
  148.7471  135.8024  158.9923 N   0  0  0  0  0  0  0  0  0  0  0  0
  148.4997  134.6686  159.7448 C   0  0  0  0  0  0  0  0  0  0  0  0
  147.9212  134.7464  160.9605 C   0  0  0  0  0  0  0  0  0  0  0  0
  147.6901  133.6251  161.6650 F   0  0  0  0  0  0  0  0  0  0  0  0
  147.5541  136.0527  161.5036 C   0  0  0  0  0  0  0  0  0  0  0  0
  147.0146  136.1175  162.6071 O   0  0  0  0  0  0  0  0  0  0  0  0
  147.8335  137.1568  160.7525 N   0  5  0  0  0  0  0  0  0  0  0  0
  148.4301  137.0842  159.5265 C   0  0  0  0  0  0  0  0  0  0  0  0
  148.7118  138.0809  158.8624 O   0  0  0  0  0  0  0  0  0  0  0  0
  148.5549  136.0931  156.4707 C   0  0  2  0  0  0  0  0  0  0  0  0
  148.2005  134.9596  155.6889 O   0  0  0  0  0  0  0  0  0  0  0  0
  149.1586  134.1962  155.1343 C   0  0  0  0  0  0  0  0  0  0  0  0
  148.6084  133.2587  154.0678 C   0  0  0  0  0  0  0  0  0  0  0  0
  150.3546  134.2068  155.4258 O   0  0  0  0  0  0  0  0  0  0  0  0
  149.4497  137.0478  155.6822 C   0  0  1  0  0  0  0  0  0  0  0  0
  148.8909  138.3543  155.7683 O   0  0  0  0  0  0  0  0  0  0  0  0
  147.6604  138.6139  155.2945 C   0  0  0  0  0  0  0  0  0  0  0  0
  147.2884  140.0844  155.4277 C   0  0  0  0  0  0  0  0  0  0  0  0
  146.8873  137.7991  154.7909 O   0  0  0  0  0  0  0  0  0  0  0  0
  149.9851  141.3460  157.6351 H   0  0  0  0  0  0  0  0  0  0  0  0
  149.9378  142.2341  156.1063 H   0  0  0  0  0  0  0  0  0  0  0  0
  151.4536  142.1132  157.0128 H   0  0  0  0  0  0  0  0  0  0  0  0
  152.1499  138.2671  155.3165 H   0  0  0  0  0  0  0  0  0  0  0  0
  152.6361  137.9182  156.9690 H   0  0  0  0  0  0  0  0  0  0  0  0
  151.3372  136.0705  155.8382 H   0  0  0  0  0  0  0  0  0  0  0  0
  149.7452  134.6147  157.5828 H   0  0  0  0  0  0  0  0  0  0  0  0
  148.7703  133.6978  159.3568 H   0  0  0  0  0  0  0  0  0  0  0  0
  147.6581  136.5938  156.8385 H   0  0  0  0  0  0  0  0  0  0  0  0
  147.9658  133.8037  153.3761 H   0  0  0  0  0  0  0  0  0  0  0  0
  148.0251  132.4623  154.5304 H   0  0  0  0  0  0  0  0  0  0  0  0
  149.4216  132.8065  153.5000 H   0  0  0  0  0  0  0  0  0  0  0  0
  149.5073  136.7333  154.6390 H   0  0  0  0  0  0  0  0  0  0  0  0
  148.1720  140.7142  155.3197 H   0  0  0  0  0  0  0  0  0  0  0  0
  146.8451  140.2734  156.4053 H   0  0  0  0  0  0  0  0  0  0  0  0
  146.5686  140.3663  154.6591 H   0  0  0  0  0  0  0  0  0  0  0  0
  1  2  1  0  0  0  0
  1 28  1  0  0  0  0
  1 29  1  0  0  0  0
  1 30  1  0  0  0  0
  2  3  2  0  0  0  0
  2  4  1  0  0  0  0
  4  5  1  0  0  0  0
  5  6  1  0  0  0  0
  5 31  1  0  0  0  0
  5 32  1  0  0  0  0
  6 23  1  0  0  0  0
  6  7  1  0  0  0  0
  6 33  1  0  0  0  0
  7  8  1  0  0  0  0
  8  9  1  0  0  0  0
  8 18  1  0  0  0  0
  8 34  1  0  0  0  0
  9 16  1  0  0  0  0
  9 10  1  0  0  0  0
 10 11  2  0  0  0  0
 10 35  1  0  0  0  0
 11 12  1  0  0  0  0
 11 13  1  0  0  0  0
 13 14  2  0  0  0  0
 13 15  1  0  0  0  0
 15 16  1  0  0  0  0
 16 17  2  0  0  0  0
 18 19  1  0  0  0  0
 18 23  1  0  0  0  0
 18 36  1  0  0  0  0
 19 20  1  0  0  0  0
 20 21  1  0  0  0  0
 20 22  2  0  0  0  0
 21 37  1  0  0  0  0
 21 38  1  0  0  0  0
 21 39  1  0  0  0  0
 23 24  1  0  0  0  0
 23 40  1  0  0  0  0
 24 25  1  0  0  0  0
 25 26  1  0  0  0  0
 25 27  2  0  0  0  0
 26 41  1  0  0  0  0
 26 42  1  0  0  0  0
 26 43  1  0  0  0  0
M  CHG  1  15  -1
M  END
> <s_m_source_file>
AV-unprocessed.smi

> <i_m_source_file_index>
102

> <i_lp_mmshare_version>
43012

> <i_f3d_flags>
0

> <s_epik_input>
W0NIM11DKD1PKU9bQ0gyXVtDQEBIXTFPW0NASF0oW0NAQEhdKE9DKD1PKVtDSDNdKVtDQEhdMU9DKD1PKVtDSDNdKW4yW2NIXWMoRiljKD1PKVtuSF1jMj1P

> <s_epik_cmdline>
J2VwaWtfcHl0aG9uJywgJy1waCcsICc3LjAnLCAnLXRuJywgJzgnLCAnLW1hJywgJzIwMCcsICctbWV0YWxfYmluZGluZycsICctaW1hZScsICc8aW5maWxlLm1hZT4nLCAnLW9tYWUnLCAnPG91dGZpbGUubWFlPic=

> <r_epik_Ionization_Penalty>
1.40304

> <r_epik_Ionization_Penalty_Charging>
1.43915e-08

> <r_epik_Ionization_Penalty_Neutral>
1.40304

> <r_epik_State_Penalty>
1.48536

> <r_epik_Charging_Adjusted_Penalty>
1.48536

> <i_epik_Tot_Q>
-1

> <i_epik_Tot_abs_Q>
1

> <r_epik_Metal_State_Penalty>
0.00663881

> <b_epik_Metal_Only>
0

> <s_epik_Chemistry_Notes>
This compound has an ester and may undergo hydrolysis at high or low pH. This compound contains an acetal/aminal-like group ( X-CH(R)-Y where X, Y are N, S, or O) that may be acid/base labile, releasing an aldehyde.

> <s_lp_Force_Field>
OPLS_2005

> <r_lp_Energy>
16.3749

> <b_lp_Chiralities_Consistent>
1

> <s_lp_Variant>
AV-unprocessed.smi:102-22

> <Gold.Version>
5.8.1

> <Gold.Id.Protein>
6NUR|6NUR_protein|mol2

> <Gold.PLP.Fitness>
39.1881

> <Gold.PLP.PLP>
-27.5243

> <Gold.PLP.part.hbond>
-3.7047

> <Gold.PLP.part.metal>
0.0000

> <Gold.PLP.part.buried>
-5.9054

> <Gold.PLP.part.nonpolar>
-18.9650

> <Gold.PLP.part.repulsive>
0.3032

> <Gold.PLP.ligand.clash>
0.0000

> <Gold.PLP.ligand.torsion>
0.9248

> <Gold.PLP.Chemscore.Hbond>
4.4560

> <Gold.PLP.Chemscore.CHOScore>
0.0000

> <Gold.PLP.Chemscore.Metal>
0.0000

> <Gold.Chemscore.Hbonds>
donor molecule, donor type, donor heavy atom, donor atom, acceptor molecule, acceptor atom, score
      P1  H  6931  6943       L1    15  1.70
      P1  H  6934  6947       L1    15  1.70
      P1  H  7989  7998       L1     3  0.99

> <Gold.PLP.Chemscore.Internal.Correction>
0.1453

> <Gold.Rescore>
     Score         DG    S(hbond)    S(metal)    S(lipo)     H(rot)  DE(clash)    DE(int)     intcor
      0.17      -5.94       2.04        0.00      33.03       4.00       0.00       5.77       ----

> <Gold.Chemscore.Fitness>
0.1708

> <Gold.Chemscore.DG>
-5.9428

> <Gold.Chemscore.ZeroCoef>
-5.4800

> <Gold.Chemscore.Hbond>
2.0435

> <Gold.Chemscore.Metal>
0.0000

> <Gold.Chemscore.Lipo>
33.0325

> <Gold.Chemscore.Internal_Hbond>
0.0000

> <Gold.Chemscore.DEClash>
0.0000

> <Gold.Chemscore.DEInternal>
5.7720

> <Gold.Chemscore.Rot>
3.9951

> <Gold.Chemscore.Internal.Correction>
   9.000000E+99

> <Gold.Chemscore.Hbonds>
donor molecule, donor type, donor heavy atom, donor atom, acceptor molecule, acceptor atom, score
      P1  H  6931  6943       L1    15  0.23
      P1  H  6934  6947       L1    15  0.45
      P1  H  7989  7998       L1     3  0.92

> <Gold.Chemscore.Hbond.Weighted>
-6.8254

> <Gold.Chemscore.Metal.Weighted>
-0.0000

> <Gold.Chemscore.Lipo.Weighted>
-3.8648

> <Gold.Chemscore.Internal_Hbond.Weighted>
0.0000

> <Gold.Chemscore.DEClash.Weighted>
0.0000

> <Gold.Chemscore.DEInternal.Weighted>
5.7720

> <Gold.Chemscore.Rot.Weighted>
10.2274

> <Gold.Chemscore.Internal.Correction.Weighted>
   9.000000E+99

> <Gold.Protein.RotatedTorsions>
[ 6907 6896 6895 6894 ] final  112.77 input  -60.11 | X-H torsion
[ 7974 7965 7964 7962 ] final -119.84 input  175.53 | X-H torsion
[ 8008 7997 7996 7995 ] final -178.13 input   59.86 | X-H torsion
[ 10167 10162 10161 10158 ] final -171.53 input  -65.29 | X-H torsion
[ 10718 10713 10712 10709 ] final  135.57 input   66.30 | X-H torsion
[ 10763 10752 10751 10750 ] final   75.92 input  -60.55 | X-H torsion
[ 11005 11000 10999 10996 ] final  -39.86 input  -57.11 | X-H torsion

> <Gold.Protein.ActiveResidues>
 VAL166  LYS551  ARG553  GLY616  TRP617  ASP618  TYR619  PRO620  LYS621  CYS622 
 ASP623  PHE694  ASN695  SER759  ASP760  ASP761  ALA762  ILE779  LEU786  VAL792 
 PHE793  MET794  SER795  GLU796  ALA797  LYS798  CYS799  TRP800  GLU811  SER814 

> <Gold.Protein.RotatedAtoms>
  152.4898  133.8469  159.7181 H   0  0  0  0  0  0  0  0  0  0  0  0  # atno 6907 bound_to 6896
  150.9017  133.7101  159.2884 H   0  0  0  0  0  0  0  0  0  0  0  0  # atno 6908 bound_to 6896
  151.4540  135.1036  159.9758 H   0  0  0  0  0  0  0  0  0  0  0  0  # atno 6909 bound_to 6896
  145.0580  140.8269  143.4169 H   0  0  0  0  0  0  0  0  0  0  0  0  # atno 7974 bound_to 7965
  156.0151  140.1249  157.0414 H   0  0  0  0  0  0  0  0  0  0  0  0  # atno 8008 bound_to 7997
  154.4290  140.1080  156.5955 H   0  0  0  0  0  0  0  0  0  0  0  0  # atno 8009 bound_to 7997
  155.6024  140.3470  155.4600 H   0  0  0  0  0  0  0  0  0  0  0  0  # atno 8010 bound_to 7997
  139.5797  144.1452  152.1498 H   0  0  0  0  0  0  0  0  0  0  0  0  # atno 10167 bound_to 10162
  157.4557  131.1069  150.9981 H   0  0  0  0  0  0  0  0  0  0  0  0  # atno 10718 bound_to 10713
  153.0689  135.4970  154.8260 H   0  0  0  0  0  0  0  0  0  0  0  0  # atno 10763 bound_to 10752
  154.6993  135.2999  154.9367 H   0  0  0  0  0  0  0  0  0  0  0  0  # atno 10764 bound_to 10752
  154.0095  135.6756  153.4817 H   0  0  0  0  0  0  0  0  0  0  0  0  # atno 10765 bound_to 10752
  141.0132  133.6898  156.2243 H   0  0  0  0  0  0  0  0  0  0  0  0  # atno 11005 bound_to 11000
  145.1444  139.2553  143.5474 LP  0  0  0  0  0  0  0  0  0  0  0  0  # atno 17320 bound_to 7965
  146.3522  140.1129  142.8603 LP  0  0  0  0  0  0  0  0  0  0  0  0  # atno 17321 bound_to 7965
  140.1002  144.5546  150.6994 LP  0  0  0  0  0  0  0  0  0  0  0  0  # atno 17342 bound_to 10162
  140.7076  143.2480  151.4678 LP  0  0  0  0  0  0  0  0  0  0  0  0  # atno 17343 bound_to 10162
  157.0795  130.5897  149.5418 LP  0  0  0  0  0  0  0  0  0  0  0  0  # atno 17370 bound_to 10713
  156.0006  130.5084  150.7648 LP  0  0  0  0  0  0  0  0  0  0  0  0  # atno 17371 bound_to 10713
  140.6698  134.4880  157.5587 LP  0  0  0  0  0  0  0  0  0  0  0  0  # atno 17394 bound_to 11000
  139.9102  134.8361  156.1557 LP  0  0  0  0  0  0  0  0  0  0  0  0  # atno 17395 bound_to 11000

$$$$
