AV-unprocessed.smi:102|AV-procd|sdf|958|dock9
  -GOLD-   2262017493D 1   1.00000     0.00000
 Structure written by MMmdl.
 44 45  0  0  0  0  0  0  0  0  1 V2000
  147.2338  140.5695  153.8887 C   0  0  0  0  0  0  0  0  0  0  0  0
  148.6578  140.5619  154.4284 C   0  0  0  0  0  0  0  0  0  0  0  0
  149.4183  141.5136  154.2488 O   0  0  0  0  0  0  0  0  0  0  0  0
  148.9473  139.4282  155.0933 O   0  0  0  0  0  0  0  0  0  0  0  0
  150.2246  139.2526  155.6905 C   0  0  0  0  0  0  0  0  0  0  0  0
  150.1782  138.1795  156.7892 C   0  0  1  0  0  0  0  0  0  0  0  0
  151.4892  137.8904  157.2658 O   0  0  0  0  0  0  0  0  0  0  0  0
  151.4528  137.5377  158.6161 C   0  0  1  0  0  0  0  0  0  0  0  0
  152.4143  138.4209  159.3753 N   0  0  0  0  0  0  0  0  0  0  0  0
  152.3296  139.8058  159.3081 C   0  0  0  0  0  0  0  0  0  0  0  0
  153.1658  140.6285  159.9841 C   0  0  0  0  0  0  0  0  0  0  0  0
  153.0226  141.9600  159.8704 F   0  0  0  0  0  0  0  0  0  0  0  0
  154.2154  140.0832  160.8399 C   0  0  0  0  0  0  0  0  0  0  0  0
  155.0225  140.7461  161.4883 O   0  0  0  0  0  0  0  0  0  0  0  0
  154.2528  138.6866  160.8889 N   0  0  0  0  0  0  0  0  0  0  0  0
  153.3953  137.8270  160.2001 C   0  0  0  0  0  0  0  0  0  0  0  0
  153.5111  136.6094  160.3313 O   0  0  0  0  0  0  0  0  0  0  0  0
  150.0236  137.7595  159.1286 C   0  0  2  0  0  0  0  0  0  0  0  0
  149.3479  136.5076  159.2055 O   0  0  0  0  0  0  0  0  0  0  0  0
  148.3754  136.3144  160.1124 C   0  0  0  0  0  0  0  0  0  0  0  0
  147.8383  134.8898  160.0907 C   0  0  0  0  0  0  0  0  0  0  0  0
  147.9340  137.1556  160.8950 O   0  0  0  0  0  0  0  0  0  0  0  0
  149.4330  138.6430  158.0383 C   0  0  2  0  0  0  0  0  0  0  0  0
  148.0240  138.4920  157.9091 O   0  0  0  0  0  0  0  0  0  0  0  0
  147.2794  139.5005  157.4241 C   0  0  0  0  0  0  0  0  0  0  0  0
  145.8066  139.1315  157.3079 C   0  0  0  0  0  0  0  0  0  0  0  0
  147.6906  140.6162  157.1052 O   0  0  0  0  0  0  0  0  0  0  0  0
  154.9573  138.2644  161.4762 H   0  0  0  0  0  0  0  0  0  0  0  0
  146.5185  140.5157  154.7094 H   0  0  0  0  0  0  0  0  0  0  0  0
  147.0729  139.7154  153.2304 H   0  0  0  0  0  0  0  0  0  0  0  0
  147.0436  141.4822  153.3235 H   0  0  0  0  0  0  0  0  0  0  0  0
  150.9911  139.0262  154.9478 H   0  0  0  0  0  0  0  0  0  0  0  0
  150.5025  140.2071  156.1375 H   0  0  0  0  0  0  0  0  0  0  0  0
  149.7318  137.2565  156.4150 H   0  0  0  0  0  0  0  0  0  0  0  0
  151.8140  136.5128  158.7193 H   0  0  0  0  0  0  0  0  0  0  0  0
  151.5661  140.2643  158.6972 H   0  0  0  0  0  0  0  0  0  0  0  0
  150.0248  138.2746  160.0908 H   0  0  0  0  0  0  0  0  0  0  0  0
  147.6976  134.5503  159.0644 H   0  0  0  0  0  0  0  0  0  0  0  0
  146.8793  134.8348  160.6063 H   0  0  0  0  0  0  0  0  0  0  0  0
  148.5366  134.2157  160.5867 H   0  0  0  0  0  0  0  0  0  0  0  0
  149.6956  139.6837  158.2349 H   0  0  0  0  0  0  0  0  0  0  0  0
  145.6948  138.1357  156.8784 H   0  0  0  0  0  0  0  0  0  0  0  0
  145.2831  139.8433  156.6691 H   0  0  0  0  0  0  0  0  0  0  0  0
  145.3380  139.1407  158.2921 H   0  0  0  0  0  0  0  0  0  0  0  0
  1  2  1  0  0  0  0
  1 29  1  0  0  0  0
  1 30  1  0  0  0  0
  1 31  1  0  0  0  0
  2  3  2  0  0  0  0
  2  4  1  0  0  0  0
  4  5  1  0  0  0  0
  5  6  1  0  0  0  0
  5 32  1  0  0  0  0
  5 33  1  0  0  0  0
  6 23  1  0  0  0  0
  6  7  1  0  0  0  0
  6 34  1  0  0  0  0
  7  8  1  0  0  0  0
  8  9  1  0  0  0  0
  8 18  1  0  0  0  0
  8 35  1  0  0  0  0
  9 16  1  0  0  0  0
  9 10  1  0  0  0  0
 10 11  2  0  0  0  0
 10 36  1  0  0  0  0
 11 12  1  0  0  0  0
 11 13  1  0  0  0  0
 13 14  2  0  0  0  0
 13 15  1  0  0  0  0
 15 28  1  0  0  0  0
 15 16  1  0  0  0  0
 16 17  2  0  0  0  0
 18 19  1  0  0  0  0
 18 23  1  0  0  0  0
 18 37  1  0  0  0  0
 19 20  1  0  0  0  0
 20 21  1  0  0  0  0
 20 22  2  0  0  0  0
 21 38  1  0  0  0  0
 21 39  1  0  0  0  0
 21 40  1  0  0  0  0
 23 24  1  0  0  0  0
 23 41  1  0  0  0  0
 24 25  1  0  0  0  0
 25 26  1  0  0  0  0
 25 27  2  0  0  0  0
 26 42  1  0  0  0  0
 26 43  1  0  0  0  0
 26 44  1  0  0  0  0
M  END
> <s_m_source_file>
AV-unprocessed.smi

> <i_m_source_file_index>
102

> <i_lp_mmshare_version>
43012

> <i_f3d_flags>
0

> <s_epik_input>
W0NIM11DKD1PKU9bQ0gyXVtDQEBIXTFPW0NASF0oW0NAQEhdKE9DKD1PKVtDSDNdKVtDQEhdMU9DKD1PKVtDSDNdKW4yW2NIXWMoRiljKD1PKVtuSF1jMj1P

> <s_epik_cmdline>
J2VwaWtfcHl0aG9uJywgJy1waCcsICc3LjAnLCAnLXRuJywgJzgnLCAnLW1hJywgJzIwMCcsICctbWV0YWxfYmluZGluZycsICctaW1hZScsICc8aW5maWxlLm1hZT4nLCAnLW9tYWUnLCAnPG91dGZpbGUubWFlPic=

> <r_lp_tautomer_probability>
0.999537

> <r_epik_Ionization_Penalty>
0.058267

> <r_epik_Ionization_Penalty_Charging>
0.058267

> <r_epik_Ionization_Penalty_Neutral>
6.57791e-16

> <r_epik_State_Penalty>
0.0503774

> <r_epik_Charging_Adjusted_Penalty>
0.108644

> <i_epik_Tot_Q>
0

> <i_epik_Tot_abs_Q>
0

> <r_epik_Metal_State_Penalty>
2.6644

> <b_epik_Metal_Only>
0

> <s_epik_Chemistry_Notes>
This compound has an ester and may undergo hydrolysis at high or low pH. This compound contains an acetal/aminal-like group ( X-CH(R)-Y where X, Y are N, S, or O) that may be acid/base labile, releasing an aldehyde.

> <s_lp_Force_Field>
OPLS_2005

> <r_lp_Energy>
14.1022

> <b_lp_Chiralities_Consistent>
1

> <s_lp_Variant>
AV-unprocessed.smi:102-14

> <Gold.Version>
5.8.1

> <Gold.Id.Protein>
6NUR|6NUR_protein|mol2

> <Gold.PLP.Fitness>
43.1952

> <Gold.PLP.PLP>
-34.5017

> <Gold.PLP.part.hbond>
-5.8827

> <Gold.PLP.part.metal>
0.0000

> <Gold.PLP.part.buried>
-5.2532

> <Gold.PLP.part.nonpolar>
-23.7799

> <Gold.PLP.part.repulsive>
0.3179

> <Gold.PLP.ligand.clash>
0.0000

> <Gold.PLP.ligand.torsion>
1.0101

> <Gold.PLP.Chemscore.Hbond>
3.5291

> <Gold.PLP.Chemscore.CHOScore>
0.0000

> <Gold.PLP.Chemscore.Metal>
0.0000

> <Gold.Chemscore.Hbonds>
donor molecule, donor type, donor heavy atom, donor atom, acceptor molecule, acceptor atom, score
      P1  H  6896  6908       L1    17  0.73
      P1  H  6931  6943       L1    22  0.91
      P1  H  6934  6947       L1    22  0.78
      P1  H  7989  7998       L1     3  0.03
      P1  H  8011  8017       L1     3  0.43

> <Gold.PLP.Chemscore.Internal.Correction>
0.1263

> <Gold.Rescore>
     Score         DG    S(hbond)    S(metal)    S(lipo)     H(rot)  DE(clash)    DE(int)     intcor
      9.94     -11.37       3.52        0.00      38.55       4.05       0.10       1.32       ----

> <Gold.Chemscore.Fitness>
9.9442

> <Gold.Chemscore.DG>
-11.3668

> <Gold.Chemscore.ZeroCoef>
-5.4800

> <Gold.Chemscore.Hbond>
3.5180

> <Gold.Chemscore.Metal>
0.0000

> <Gold.Chemscore.Lipo>
38.5455

> <Gold.Chemscore.Internal_Hbond>
0.0000

> <Gold.Chemscore.DEClash>
0.1020

> <Gold.Chemscore.DEInternal>
1.3206

> <Gold.Chemscore.Rot>
4.0520

> <Gold.Chemscore.Internal.Correction>
   9.000000E+99

> <Gold.Chemscore.Hbonds>
donor molecule, donor type, donor heavy atom, donor atom, acceptor molecule, acceptor atom, score
      P1  H  6896  6908       L1    17  0.73
      P1  H  6931  6943       L1    22  0.89
      P1  H  6934  6947       L1    22  0.74
      P1  H  7989  7998       L1     3  0.03
      P1  H  8011  8017       L1     3  0.42

> <Gold.Chemscore.Hbond.Weighted>
-11.7501

> <Gold.Chemscore.Metal.Weighted>
-0.0000

> <Gold.Chemscore.Lipo.Weighted>
-4.5098

> <Gold.Chemscore.Internal_Hbond.Weighted>
0.0000

> <Gold.Chemscore.DEClash.Weighted>
0.1020

> <Gold.Chemscore.DEInternal.Weighted>
1.3206

> <Gold.Chemscore.Rot.Weighted>
10.3732

> <Gold.Chemscore.Internal.Correction.Weighted>
   9.000000E+99

> <Gold.Protein.RotatedTorsions>
[ 6907 6896 6895 6894 ] final  -85.80 input  -60.11 | X-H torsion
[ 7974 7965 7964 7962 ] final   81.32 input  175.53 | X-H torsion
[ 8008 7997 7996 7995 ] final -107.38 input   59.86 | X-H torsion
[ 10167 10162 10161 10158 ] final -144.44 input  -65.29 | X-H torsion
[ 10718 10713 10712 10709 ] final  140.22 input   66.30 | X-H torsion
[ 10763 10752 10751 10750 ] final  -22.99 input  -60.55 | X-H torsion
[ 11005 11000 10999 10996 ] final  -74.36 input  -57.11 | X-H torsion

> <Gold.Protein.ActiveResidues>
 VAL166  LYS551  ARG553  GLY616  TRP617  ASP618  TYR619  PRO620  LYS621  CYS622 
 ASP623  PHE694  ASN695  SER759  ASP760  ASP761  ALA762  ILE779  LEU786  VAL792 
 PHE793  MET794  SER795  GLU796  ALA797  LYS798  CYS799  TRP800  GLU811  SER814 

> <Gold.Protein.RotatedAtoms>
  150.6869  134.3148  159.4761 H   0  0  0  0  0  0  0  0  0  0  0  0  # atno 6907 bound_to 6896
  152.1030  134.9325  160.0578 H   0  0  0  0  0  0  0  0  0  0  0  0  # atno 6908 bound_to 6896
  152.0597  133.4022  159.4449 H   0  0  0  0  0  0  0  0  0  0  0  0  # atno 6909 bound_to 6896
  145.6397  139.2422  143.2038 H   0  0  0  0  0  0  0  0  0  0  0  0  # atno 7974 bound_to 7965
  154.9286  140.0405  157.2036 H   0  0  0  0  0  0  0  0  0  0  0  0  # atno 8008 bound_to 7997
  154.8183  140.2879  155.5783 H   0  0  0  0  0  0  0  0  0  0  0  0  # atno 8009 bound_to 7997
  156.2978  140.2523  156.3086 H   0  0  0  0  0  0  0  0  0  0  0  0  # atno 8010 bound_to 7997
  139.7898  143.7982  152.2648 H   0  0  0  0  0  0  0  0  0  0  0  0  # atno 10167 bound_to 10162
  157.4057  131.1022  151.0506 H   0  0  0  0  0  0  0  0  0  0  0  0  # atno 10718 bound_to 10713
  153.6608  135.6976  153.5178 H   0  0  0  0  0  0  0  0  0  0  0  0  # atno 10763 bound_to 10752
  153.2633  135.4238  155.0915 H   0  0  0  0  0  0  0  0  0  0  0  0  # atno 10764 bound_to 10752
  154.8452  135.3560  154.6152 H   0  0  0  0  0  0  0  0  0  0  0  0  # atno 10765 bound_to 10752
  141.1634  133.6909  156.7353 H   0  0  0  0  0  0  0  0  0  0  0  0  # atno 11005 bound_to 11000
  146.1291  140.7209  142.9421 LP  0  0  0  0  0  0  0  0  0  0  0  0  # atno 17320 bound_to 7965
  144.7162  140.4217  143.7042 LP  0  0  0  0  0  0  0  0  0  0  0  0  # atno 17321 bound_to 7965
  139.8070  144.7351  150.9748 LP  0  0  0  0  0  0  0  0  0  0  0  0  # atno 17342 bound_to 10162
  140.7820  143.4288  151.0726 LP  0  0  0  0  0  0  0  0  0  0  0  0  # atno 17343 bound_to 10162
  157.1489  130.6175  149.5576 LP  0  0  0  0  0  0  0  0  0  0  0  0  # atno 17370 bound_to 10713
  155.9836  130.4856  150.6939 LP  0  0  0  0  0  0  0  0  0  0  0  0  # atno 17371 bound_to 10713
  140.2715  134.8389  157.3851 LP  0  0  0  0  0  0  0  0  0  0  0  0  # atno 17394 bound_to 11000
  140.1517  134.4841  155.7956 LP  0  0  0  0  0  0  0  0  0  0  0  0  # atno 17395 bound_to 11000

$$$$
