AV-unprocessed.smi:3285|AV-procd|sdf|12583|dock10
  -GOLD-   2272018503D 1   1.00000     0.00000
 Structure written by MMmdl.
 45 46  0  0  0  0  0  0  0  0  2 V2000
  149.8686  135.8114  156.8078 C   0  0  0  0  0  0  0  0  0  0  0  0
  149.9666  134.3263  156.6087 C   0  0  0  0  0  0  0  0  0  0  0  0
  150.5539  133.5921  157.5380 N   0  0  0  0  0  0  0  0  0  0  0  0
  150.4991  132.2736  157.0772 O   0  0  0  0  0  0  0  0  0  0  0  0
  149.8738  132.2648  155.8732 C   0  0  0  0  0  0  0  0  0  0  0  0
  149.7252  130.9349  155.2145 C   0  0  0  0  0  0  0  0  0  0  0  0
  149.5078  133.5343  155.5160 C   0  0  0  0  0  0  0  0  0  0  0  0
  148.7994  133.9894  154.2681 C   0  0  0  0  0  0  0  0  0  0  0  0
  147.5474  134.8100  154.6031 C   0  0  0  0  0  0  0  0  0  0  0  0
  146.9914  135.4473  153.3933 N   0  3  0  0  0  0  0  0  0  0  0  0
  145.9510  134.6583  152.6993 C   0  0  1  0  0  0  0  0  0  0  0  0
  145.6571  135.2668  151.3206 C   0  0  0  0  0  0  0  0  0  0  0  0
  144.6011  134.4423  150.5728 C   0  0  0  0  0  0  0  0  0  0  0  0
  145.0253  132.9681  150.4123 C   0  0  2  0  0  0  0  0  0  0  0  0
  143.9362  132.1947  149.6473 C   0  0  0  0  0  0  0  0  0  0  0  0
  145.3605  132.3390  151.7916 C   0  0  1  0  0  0  0  0  0  0  0  0
  145.8631  130.8882  151.6798 C   0  0  0  0  0  0  0  0  0  0  0  0
  146.3996  133.1949  152.5478 C   0  0  0  0  0  0  0  0  0  0  0  0
  149.4058  136.3021  155.9519 H   0  0  0  0  0  0  0  0  0  0  0  0
  150.8557  136.2536  156.9456 H   0  0  0  0  0  0  0  0  0  0  0  0
  149.2713  136.0496  157.6882 H   0  0  0  0  0  0  0  0  0  0  0  0
  149.2218  131.0249  154.2522 H   0  0  0  0  0  0  0  0  0  0  0  0
  149.1414  130.2583  155.8387 H   0  0  0  0  0  0  0  0  0  0  0  0
  150.7005  130.4790  155.0430 H   0  0  0  0  0  0  0  0  0  0  0  0
  149.4664  134.5874  153.6460 H   0  0  0  0  0  0  0  0  0  0  0  0
  148.5182  133.1346  153.6524 H   0  0  0  0  0  0  0  0  0  0  0  0
  146.7880  134.1691  155.0533 H   0  0  0  0  0  0  0  0  0  0  0  0
  147.7944  135.5843  155.3313 H   0  0  0  0  0  0  0  0  0  0  0  0
  146.5867  136.3323  153.6631 H   0  0  0  0  0  0  0  0  0  0  0  0
  145.0295  134.6780  153.2843 H   0  0  0  0  0  0  0  0  0  0  0  0
  145.3085  136.2945  151.4310 H   0  0  0  0  0  0  0  0  0  0  0  0
  146.5719  135.3111  150.7276 H   0  0  0  0  0  0  0  0  0  0  0  0
  143.6528  134.4966  151.1096 H   0  0  0  0  0  0  0  0  0  0  0  0
  144.4239  134.8878  149.5932 H   0  0  0  0  0  0  0  0  0  0  0  0
  145.9296  132.9492  149.8021 H   0  0  0  0  0  0  0  0  0  0  0  0
  143.0180  132.1199  150.2307 H   0  0  0  0  0  0  0  0  0  0  0  0
  144.2568  131.1847  149.3939 H   0  0  0  0  0  0  0  0  0  0  0  0
  143.6914  132.6920  148.7083 H   0  0  0  0  0  0  0  0  0  0  0  0
  144.4472  132.3243  152.3886 H   0  0  0  0  0  0  0  0  0  0  0  0
  146.7377  130.8192  151.0322 H   0  0  0  0  0  0  0  0  0  0  0  0
  145.0977  130.2234  151.2810 H   0  0  0  0  0  0  0  0  0  0  0  0
  146.1438  130.4946  152.6570 H   0  0  0  0  0  0  0  0  0  0  0  0
  147.3539  133.1576  152.0197 H   0  0  0  0  0  0  0  0  0  0  0  0
  146.5788  132.7666  153.5353 H   0  0  0  0  0  0  0  0  0  0  0  0
  147.7450  135.6248  152.7446 H   0  0  0  0  0  0  0  0  0  0  0  0
  1  2  1  0  0  0  0
  1 19  1  0  0  0  0
  1 20  1  0  0  0  0
  1 21  1  0  0  0  0
  2  7  1  0  0  0  0
  2  3  2  0  0  0  0
  3  4  1  0  0  0  0
  4  5  1  0  0  0  0
  5  6  1  0  0  0  0
  5  7  2  0  0  0  0
  6 22  1  0  0  0  0
  6 23  1  0  0  0  0
  6 24  1  0  0  0  0
  7  8  1  0  0  0  0
  8  9  1  0  0  0  0
  8 25  1  0  0  0  0
  8 26  1  0  0  0  0
  9 10  1  0  0  0  0
  9 27  1  0  0  0  0
  9 28  1  0  0  0  0
 10 11  1  0  0  0  0
 10 29  1  0  0  0  0
 10 45  1  0  0  0  0
 11 18  1  0  0  0  0
 11 12  1  0  0  0  0
 11 30  1  0  0  0  0
 12 13  1  0  0  0  0
 12 31  1  0  0  0  0
 12 32  1  0  0  0  0
 13 14  1  0  0  0  0
 13 33  1  0  0  0  0
 13 34  1  0  0  0  0
 14 15  1  0  0  0  0
 14 16  1  0  0  0  0
 14 35  1  0  0  0  0
 15 36  1  0  0  0  0
 15 37  1  0  0  0  0
 15 38  1  0  0  0  0
 16 17  1  0  0  0  0
 16 18  1  0  0  0  0
 16 39  1  0  0  0  0
 17 40  1  0  0  0  0
 17 41  1  0  0  0  0
 17 42  1  0  0  0  0
 18 43  1  0  0  0  0
 18 44  1  0  0  0  0
M  CHG  1  10   1
M  END
> <s_m_source_file>
AV-unprocessed.smi

> <i_m_source_file_index>
3285

> <i_lp_mmshare_version>
43012

> <i_f3d_flags>
0

> <s_epik_input>
W0NIM11jMW5vYyhbQ0gzXSljMVtDSDJdW0NIMl1bTkhdW0NAQEhdMltDSDJdW0NIMl1bQ0BASF0oW0NIM10pW0NAQEhdKFtDSDNdKVtDSDJdMg==

> <s_epik_cmdline>
J2VwaWtfcHl0aG9uJywgJy1waCcsICc3LjAnLCAnLXRuJywgJzgnLCAnLW1hJywgJzIwMCcsICctbWV0YWxfYmluZGluZycsICctaW1hZScsICc8aW5maWxlLm1hZT4nLCAnLW9tYWUnLCAnPG91dGZpbGUubWFlPic=

> <r_lp_tautomer_probability>
1

> <r_epik_Ionization_Penalty>
0.000204615

> <r_epik_Ionization_Penalty_Charging>
0.000204615

> <r_epik_Ionization_Penalty_Neutral>
9.28663e-11

> <r_epik_State_Penalty>
-0

> <r_epik_Charging_Adjusted_Penalty>
0.000204615

> <i_epik_Tot_Q>
1

> <i_epik_Tot_abs_Q>
1

> <r_epik_Metal_State_Penalty>
-0

> <b_epik_Metal_Only>
0

> <s_lp_Force_Field>
OPLS_2005

> <r_lp_Energy>
11.6607

> <b_lp_Chiralities_Consistent>
1

> <s_lp_Variant>
AV-unprocessed.smi:3285-4

> <Gold.Version>
5.8.1

> <Gold.Id.Protein>
6NUR|6NUR_protein|mol2

> <Gold.PLP.Fitness>
41.5705

> <Gold.PLP.PLP>
-33.4320

> <Gold.PLP.part.hbond>
-2.0000

> <Gold.PLP.part.metal>
0.0000

> <Gold.PLP.part.buried>
-4.6237

> <Gold.PLP.part.nonpolar>
-27.5136

> <Gold.PLP.part.repulsive>
0.0000

> <Gold.PLP.ligand.clash>
0.0000

> <Gold.PLP.ligand.torsion>
0.3503

> <Gold.PLP.Chemscore.Hbond>
2.9440

> <Gold.PLP.Chemscore.CHOScore>
0.0000

> <Gold.PLP.Chemscore.Metal>
0.0000

> <Gold.Chemscore.Hbonds>
donor molecule, donor type, donor heavy atom, donor atom, acceptor molecule, acceptor atom, score
      L1  H    10    45       P1  7948  2.00
      P1  H  6896  6907       L1     3  0.80

> <Gold.PLP.Chemscore.Internal.Correction>
0.0071

> <Gold.Rescore>
     Score         DG    S(hbond)    S(metal)    S(lipo)     H(rot)  DE(clash)    DE(int)     intcor
     18.09     -18.52       1.97        0.00      84.57       1.35       0.01       0.42       ----

> <Gold.Chemscore.Fitness>
18.0897

> <Gold.Chemscore.DG>
-18.5201

> <Gold.Chemscore.ZeroCoef>
-5.4800

> <Gold.Chemscore.Hbond>
1.9737

> <Gold.Chemscore.Metal>
0.0000

> <Gold.Chemscore.Lipo>
84.5706

> <Gold.Chemscore.Internal_Hbond>
0.0000

> <Gold.Chemscore.DEClash>
0.0089

> <Gold.Chemscore.DEInternal>
0.4215

> <Gold.Chemscore.Rot>
1.3465

> <Gold.Chemscore.Internal.Correction>
   9.000000E+99

> <Gold.Chemscore.Hbonds>
donor molecule, donor type, donor heavy atom, donor atom, acceptor molecule, acceptor atom, score
      L1  H    10    45       P1  7948  0.99
      P1  H  6896  6907       L1     3  0.48

> <Gold.Chemscore.Hbond.Weighted>
-6.5923

> <Gold.Chemscore.Metal.Weighted>
-0.0000

> <Gold.Chemscore.Lipo.Weighted>
-9.8948

> <Gold.Chemscore.Internal_Hbond.Weighted>
0.0000

> <Gold.Chemscore.DEClash.Weighted>
0.0089

> <Gold.Chemscore.DEInternal.Weighted>
0.4215

> <Gold.Chemscore.Rot.Weighted>
3.4470

> <Gold.Chemscore.Internal.Correction.Weighted>
   9.000000E+99

> <Gold.Protein.RotatedTorsions>
[ 6907 6896 6895 6894 ] final -144.61 input  -60.11 | X-H torsion
[ 7974 7965 7964 7962 ] final   50.66 input  175.53 | X-H torsion
[ 8008 7997 7996 7995 ] final -119.12 input   59.86 | X-H torsion
[ 10167 10162 10161 10158 ] final  -73.77 input  -65.29 | X-H torsion
[ 10718 10713 10712 10709 ] final   81.47 input   66.30 | X-H torsion
[ 10763 10752 10751 10750 ] final -162.29 input  -60.55 | X-H torsion
[ 11005 11000 10999 10996 ] final    9.78 input  -57.11 | X-H torsion

> <Gold.Protein.ActiveResidues>
 VAL166  LYS551  ARG553  GLY616  TRP617  ASP618  TYR619  PRO620  LYS621  CYS622 
 ASP623  PHE694  ASN695  SER759  ASP760  ASP761  ALA762  ILE779  LEU786  VAL792 
 PHE793  MET794  SER795  GLU796  ALA797  LYS798  CYS799  TRP800  GLU811  SER814 

> <Gold.Protein.RotatedAtoms>
  151.1164  133.5135  159.2603 H   0  0  0  0  0  0  0  0  0  0  0  0  # atno 6907 bound_to 6896
  151.1909  135.0401  159.8842 H   0  0  0  0  0  0  0  0  0  0  0  0  # atno 6908 bound_to 6896
  152.5453  134.1005  159.8369 H   0  0  0  0  0  0  0  0  0  0  0  0  # atno 6909 bound_to 6896
  145.9990  139.4419  143.0027 H   0  0  0  0  0  0  0  0  0  0  0  0  # atno 7974 bound_to 7965
  155.1105  140.0397  157.2723 H   0  0  0  0  0  0  0  0  0  0  0  0  # atno 8008 bound_to 7997
  154.6688  140.2607  155.7003 H   0  0  0  0  0  0  0  0  0  0  0  0  # atno 8009 bound_to 7997
  156.2650  140.2802  156.1190 H   0  0  0  0  0  0  0  0  0  0  0  0  # atno 8010 bound_to 7997
  140.5083  143.2349  151.7637 H   0  0  0  0  0  0  0  0  0  0  0  0  # atno 10167 bound_to 10162
  157.6833  131.0005  150.2231 H   0  0  0  0  0  0  0  0  0  0  0  0  # atno 10718 bound_to 10713
  154.7227  135.3029  154.9021 H   0  0  0  0  0  0  0  0  0  0  0  0  # atno 10763 bound_to 10752
  153.9888  135.6721  153.4757 H   0  0  0  0  0  0  0  0  0  0  0  0  # atno 10764 bound_to 10752
  153.0848  135.4990  154.8493 H   0  0  0  0  0  0  0  0  0  0  0  0  # atno 10765 bound_to 10752
  140.5219  134.0550  155.7847 H   0  0  0  0  0  0  0  0  0  0  0  0  # atno 11005 bound_to 11000
  145.7516  140.9970  143.1247 LP  0  0  0  0  0  0  0  0  0  0  0  0  # atno 17320 bound_to 7965
  144.6913  139.9222  143.7468 LP  0  0  0  0  0  0  0  0  0  0  0  0  # atno 17321 bound_to 7965
  139.4889  144.4427  151.9746 LP  0  0  0  0  0  0  0  0  0  0  0  0  # atno 17342 bound_to 10162
  140.3518  144.3080  150.5948 LP  0  0  0  0  0  0  0  0  0  0  0  0  # atno 17343 bound_to 10162
  156.2879  130.3742  149.7871 LP  0  0  0  0  0  0  0  0  0  0  0  0  # atno 17370 bound_to 10713
  156.5539  130.8354  151.3308 LP  0  0  0  0  0  0  0  0  0  0  0  0  # atno 17371 bound_to 10713
  141.1329  133.9271  157.2496 LP  0  0  0  0  0  0  0  0  0  0  0  0  # atno 17394 bound_to 11000
  139.9601  135.0156  156.9237 LP  0  0  0  0  0  0  0  0  0  0  0  0  # atno 17395 bound_to 11000

$$$$
