AV-unprocessed.smi:276|AV-procd|sdf|2084|dock1
  -GOLD-   2262021353D 1   1.00000     0.00000
 Structure written by MMmdl.
 57 61  0  0  0  0  0  0  0  0  1 V2000
  147.7199  136.2737  162.7104 C   0  0  0  0  0  0  0  0  0  0  0  0
  147.5221  137.0806  161.5628 O   0  0  0  0  0  0  0  0  0  0  0  0
  147.9535  136.4466  160.3692 C   0  0  2  0  0  0  0  0  0  0  0  0
  147.2914  136.9785  159.0928 C   0  0  0  0  0  0  0  0  0  0  0  0
  147.2779  135.5268  158.5952 C   0  0  2  0  0  0  0  0  0  0  0  0
  146.0919  135.2002  157.7997 N   0  0  0  0  0  0  0  0  0  0  0  0
  144.9351  136.0667  157.9871 C   0  0  0  0  0  0  0  0  0  0  0  0
  146.3010  134.9851  156.4808 C   0  0  0  0  0  0  0  0  0  0  0  0
  146.8995  133.8171  156.1369 N   0  0  0  0  0  0  0  0  0  0  0  0
  147.1470  133.5432  154.8527 C   0  0  0  0  0  0  0  0  0  0  0  0
  146.8749  134.2804  153.7739 N   0  0  0  0  0  0  0  0  0  0  0  0
  146.2519  135.4448  154.1148 C   0  0  0  0  0  0  0  0  0  0  0  0
  145.9222  135.8725  155.4320 C   0  0  0  0  0  0  0  0  0  0  0  0
  145.2771  137.1032  155.3790 N   0  0  0  0  0  0  0  0  0  0  0  0
  145.2416  137.3925  154.1070 C   0  0  0  0  0  0  0  0  0  0  0  0
  145.8065  136.4511  153.2777 N   0  0  0  0  0  0  0  0  0  0  0  0
  145.9040  136.5113  151.8305 C   0  0  0  0  0  0  0  0  0  0  0  0
  144.8073  135.6844  151.1329 C   0  0  1  0  0  0  0  0  0  0  0  0
  144.7123  136.0374  149.7653 O   0  0  0  0  0  0  0  0  0  0  0  0
  145.0158  134.1650  151.2979 C   0  0  1  0  0  0  0  0  0  0  0  0
  143.8165  133.2644  150.9864 C   0  0  0  0  0  0  0  0  0  0  0  0
  144.4590  131.9443  150.5790 C   0  0  0  0  0  0  0  0  0  0  0  0
  145.9575  132.2526  150.4949 C   0  0  0  0  0  0  0  0  0  0  0  0
  146.0419  133.6693  150.4532 O   0  0  0  0  0  0  0  0  0  0  0  0
  147.2537  135.1027  160.0884 C   0  0  0  0  0  0  0  0  0  0  0  0
  147.8769  133.7853  160.5678 C   0  0  0  0  0  0  0  0  0  0  0  0
  146.4747  133.2757  160.9176 C   0  0  0  0  0  0  0  0  0  0  0  0
  145.9598  134.7165  160.8341 C   0  0  0  0  0  0  0  0  0  0  0  0
  147.3620  136.8011  163.5946 H   0  0  0  0  0  0  0  0  0  0  0  0
  148.7762  136.0467  162.8594 H   0  0  0  0  0  0  0  0  0  0  0  0
  147.1682  135.3359  162.6317 H   0  0  0  0  0  0  0  0  0  0  0  0
  149.0398  136.3661  160.2847 H   0  0  0  0  0  0  0  0  0  0  0  0
  146.2954  137.3889  159.2715 H   0  0  0  0  0  0  0  0  0  0  0  0
  147.9110  137.6578  158.5070 H   0  0  0  0  0  0  0  0  0  0  0  0
  148.2242  135.2798  158.1118 H   0  0  0  0  0  0  0  0  0  0  0  0
  145.1505  137.0785  157.6411 H   0  0  0  0  0  0  0  0  0  0  0  0
  144.6576  136.1196  159.0398 H   0  0  0  0  0  0  0  0  0  0  0  0
  144.0696  135.6926  157.4380 H   0  0  0  0  0  0  0  0  0  0  0  0
  147.6346  132.5983  154.6626 H   0  0  0  0  0  0  0  0  0  0  0  0
  144.7950  138.3034  153.7354 H   0  0  0  0  0  0  0  0  0  0  0  0
  145.8520  137.5563  151.5219 H   0  0  0  0  0  0  0  0  0  0  0  0
  146.8910  136.1491  151.5406 H   0  0  0  0  0  0  0  0  0  0  0  0
  143.8466  135.9365  151.5839 H   0  0  0  0  0  0  0  0  0  0  0  0
  145.3672  135.5546  149.2850 H   0  0  0  0  0  0  0  0  0  0  0  0
  145.3303  133.9736  152.3259 H   0  0  0  0  0  0  0  0  0  0  0  0
  143.1483  133.1614  151.8418 H   0  0  0  0  0  0  0  0  0  0  0  0
  143.2299  133.6483  150.1516 H   0  0  0  0  0  0  0  0  0  0  0  0
  144.2620  131.1527  151.3026 H   0  0  0  0  0  0  0  0  0  0  0  0
  144.0724  131.6170  149.6132 H   0  0  0  0  0  0  0  0  0  0  0  0
  146.4730  131.8910  151.3859 H   0  0  0  0  0  0  0  0  0  0  0  0
  146.4308  131.8013  149.6228 H   0  0  0  0  0  0  0  0  0  0  0  0
  148.3856  133.2106  159.7941 H   0  0  0  0  0  0  0  0  0  0  0  0
  148.5059  133.9161  161.4494 H   0  0  0  0  0  0  0  0  0  0  0  0
  146.0552  132.6255  160.1501 H   0  0  0  0  0  0  0  0  0  0  0  0
  146.3937  132.8265  161.9075 H   0  0  0  0  0  0  0  0  0  0  0  0
  145.8765  135.1732  161.8207 H   0  0  0  0  0  0  0  0  0  0  0  0
  145.0355  134.8365  160.2698 H   0  0  0  0  0  0  0  0  0  0  0  0
  1  2  1  0  0  0  0
  1 29  1  0  0  0  0
  1 30  1  0  0  0  0
  1 31  1  0  0  0  0
  2  3  1  0  0  0  0
  3 25  1  0  0  0  0
  3  4  1  0  0  0  0
  3 32  1  0  0  0  0
  4  5  1  0  0  0  0
  4 33  1  0  0  0  0
  4 34  1  0  0  0  0
  5  6  1  0  0  0  0
  5 25  1  0  0  0  0
  5 35  1  0  0  0  0
  6  7  1  0  0  0  0
  6  8  1  0  0  0  0
  7 36  1  0  0  0  0
  7 37  1  0  0  0  0
  7 38  1  0  0  0  0
  8 13  1  0  0  0  0
  8  9  2  0  0  0  0
  9 10  1  0  0  0  0
 10 11  2  0  0  0  0
 10 39  1  0  0  0  0
 11 12  1  0  0  0  0
 12 16  1  0  0  0  0
 12 13  2  0  0  0  0
 13 14  1  0  0  0  0
 14 15  2  0  0  0  0
 15 16  1  0  0  0  0
 15 40  1  0  0  0  0
 16 17  1  0  0  0  0
 17 18  1  0  0  0  0
 17 41  1  0  0  0  0
 17 42  1  0  0  0  0
 18 19  1  0  0  0  0
 18 20  1  0  0  0  0
 18 43  1  0  0  0  0
 19 44  1  0  0  0  0
 20 24  1  0  0  0  0
 20 21  1  0  0  0  0
 20 45  1  0  0  0  0
 21 22  1  0  0  0  0
 21 46  1  0  0  0  0
 21 47  1  0  0  0  0
 22 23  1  0  0  0  0
 22 48  1  0  0  0  0
 22 49  1  0  0  0  0
 23 24  1  0  0  0  0
 23 50  1  0  0  0  0
 23 51  1  0  0  0  0
 25 28  1  0  0  0  0
 25 26  1  0  0  0  0
 26 27  1  0  0  0  0
 26 52  1  0  0  0  0
 26 53  1  0  0  0  0
 27 28  1  0  0  0  0
 27 54  1  0  0  0  0
 27 55  1  0  0  0  0
 28 56  1  0  0  0  0
 28 57  1  0  0  0  0
M  END
> <s_m_source_file>
AV-unprocessed.smi

> <i_m_source_file_index>
276

> <i_lp_mmshare_version>
43012

> <i_f3d_flags>
0

> <s_epik_input>
W0NIMl0xW0NIMl1bQ0gyXUMxMltDQEhdKE9bQ0gzXSlbQ0gyXVtDQEhdMk4oW0NIM10pYyhuW2NIXW4zKWMoYzM0KW5bY0hdbjRbQ0gyXVtDQEhdKFtPSF0pW0NAQEhdNVtDSDJdW0NIMl1bQ0gyXU81

> <s_epik_cmdline>
J2VwaWtfcHl0aG9uJywgJy1waCcsICc3LjAnLCAnLXRuJywgJzgnLCAnLW1hJywgJzIwMCcsICctbWV0YWxfYmluZGluZycsICctaW1hZScsICc8aW5maWxlLm1hZT4nLCAnLW9tYWUnLCAnPG91dGZpbGUubWFlPic=

> <r_lp_tautomer_probability>
1

> <r_epik_Ionization_Penalty>
0.00204117

> <r_epik_Ionization_Penalty_Charging>
0

> <r_epik_Ionization_Penalty_Neutral>
0.00204117

> <r_epik_State_Penalty>
0.00127401

> <r_epik_Charging_Adjusted_Penalty>
0.00127401

> <i_epik_Tot_Q>
0

> <i_epik_Tot_abs_Q>
0

> <r_epik_Metal_State_Penalty>
-0

> <b_epik_Metal_Only>
0

> <s_lp_Force_Field>
OPLS_2005

> <r_lp_Energy>
58.0628

> <b_lp_Chiralities_Consistent>
1

> <s_lp_Variant>
AV-unprocessed.smi:276-15

> <Gold.Version>
5.8.1

> <Gold.Id.Protein>
6NUR|6NUR_protein|mol2

> <Gold.PLP.Fitness>
39.6257

> <Gold.PLP.PLP>
-34.0671

> <Gold.PLP.part.hbond>
-4.0000

> <Gold.PLP.part.metal>
0.0000

> <Gold.PLP.part.buried>
-5.2967

> <Gold.PLP.part.nonpolar>
-24.7977

> <Gold.PLP.part.repulsive>
0.5778

> <Gold.PLP.ligand.clash>
0.1440

> <Gold.PLP.ligand.torsion>
2.0938

> <Gold.PLP.Chemscore.Hbond>
2.5040

> <Gold.PLP.Chemscore.CHOScore>
0.5587

> <Gold.PLP.Chemscore.Metal>
0.0000

> <Gold.Chemscore.Hbonds>
donor molecule, donor type, donor heavy atom, donor atom, acceptor molecule, acceptor atom, score
      L1  H    19    44       P1  7921  1.00
      P1  H  6931  6943       L1     2  0.75
      P1  H  6934  6947       L1     2  0.77
      L1  C    15    40       P1 10175  0.49

> <Gold.PLP.Chemscore.Internal.Correction>
0.7021

> <Gold.Rescore>
     Score         DG    S(hbond)    S(metal)    S(lipo)     H(rot)  DE(clash)    DE(int)     intcor
     10.93     -14.29       1.76        0.00      84.58       2.72       0.02       3.34       ----

> <Gold.Chemscore.Fitness>
10.9300

> <Gold.Chemscore.DG>
-14.2905

> <Gold.Chemscore.ZeroCoef>
-5.4800

> <Gold.Chemscore.Hbond>
1.7578

> <Gold.Chemscore.Metal>
0.0000

> <Gold.Chemscore.Lipo>
84.5761

> <Gold.Chemscore.Internal_Hbond>
0.0000

> <Gold.Chemscore.DEClash>
0.0212

> <Gold.Chemscore.DEInternal>
3.3394

> <Gold.Chemscore.Rot>
2.7172

> <Gold.Chemscore.Internal.Correction>
   9.000000E+99

> <Gold.Chemscore.Hbonds>
donor molecule, donor type, donor heavy atom, donor atom, acceptor molecule, acceptor atom, score
      L1  H    19    44       P1  7921  0.96
      P1  H  6931  6943       L1     2  0.03
      P1  H  6934  6947       L1     2  0.29

> <Gold.Chemscore.Hbond.Weighted>
-5.8711

> <Gold.Chemscore.Metal.Weighted>
-0.0000

> <Gold.Chemscore.Lipo.Weighted>
-9.8954

> <Gold.Chemscore.Internal_Hbond.Weighted>
0.0000

> <Gold.Chemscore.DEClash.Weighted>
0.0212

> <Gold.Chemscore.DEInternal.Weighted>
3.3394

> <Gold.Chemscore.Rot.Weighted>
6.9560

> <Gold.Chemscore.Internal.Correction.Weighted>
   9.000000E+99

> <Gold.Protein.RotatedTorsions>
[ 6907 6896 6895 6894 ] final   65.28 input  -60.11 | X-H torsion
[ 7974 7965 7964 7962 ] final  -16.78 input  175.53 | X-H torsion
[ 8008 7997 7996 7995 ] final  113.95 input   59.86 | X-H torsion
[ 10167 10162 10161 10158 ] final  110.84 input  -65.29 | X-H torsion
[ 10718 10713 10712 10709 ] final  117.92 input   66.30 | X-H torsion
[ 10763 10752 10751 10750 ] final -161.95 input  -60.55 | X-H torsion
[ 11005 11000 10999 10996 ] final   27.72 input  -57.11 | X-H torsion

> <Gold.Protein.ActiveResidues>
 VAL166  LYS551  ARG553  GLY616  TRP617  ASP618  TYR619  PRO620  LYS621  CYS622 
 ASP623  PHE694  ASN695  SER759  ASP760  ASP761  ALA762  ILE779  LEU786  VAL792 
 PHE793  MET794  SER795  GLU796  ALA797  LYS798  CYS799  TRP800  GLU811  SER814 

> <Gold.Protein.RotatedAtoms>
  152.4396  134.5618  159.9895 H   0  0  0  0  0  0  0  0  0  0  0  0  # atno 6907 bound_to 6896
  151.5719  133.3383  159.2999 H   0  0  0  0  0  0  0  0  0  0  0  0  # atno 6908 bound_to 6896
  150.8300  134.7582  159.6909 H   0  0  0  0  0  0  0  0  0  0  0  0  # atno 6909 bound_to 6896
  146.1972  140.3685  142.8436 H   0  0  0  0  0  0  0  0  0  0  0  0  # atno 7974 bound_to 7965
  156.2291  140.2969  156.0141 H   0  0  0  0  0  0  0  0  0  0  0  0  # atno 8008 bound_to 7997
  155.2276  140.0418  157.2974 H   0  0  0  0  0  0  0  0  0  0  0  0  # atno 8009 bound_to 7997
  154.5964  140.2415  155.7858 H   0  0  0  0  0  0  0  0  0  0  0  0  # atno 8010 bound_to 7997
  139.6657  144.7127  151.1782 H   0  0  0  0  0  0  0  0  0  0  0  0  # atno 10167 bound_to 10162
  157.6065  131.1042  150.7683 H   0  0  0  0  0  0  0  0  0  0  0  0  # atno 10718 bound_to 10713
  154.7257  135.3035  154.8974 H   0  0  0  0  0  0  0  0  0  0  0  0  # atno 10763 bound_to 10752
  153.9832  135.6728  153.4755 H   0  0  0  0  0  0  0  0  0  0  0  0  # atno 10764 bound_to 10752
  153.0873  135.4977  154.8541 H   0  0  0  0  0  0  0  0  0  0  0  0  # atno 10765 bound_to 10752
  140.3232  134.2520  155.7713 H   0  0  0  0  0  0  0  0  0  0  0  0  # atno 11005 bound_to 11000
  144.8605  140.7132  143.6110 LP  0  0  0  0  0  0  0  0  0  0  0  0  # atno 17320 bound_to 7965
  145.3605  139.1683  143.4386 LP  0  0  0  0  0  0  0  0  0  0  0  0  # atno 17321 bound_to 7965
  140.7598  143.5924  150.8783 LP  0  0  0  0  0  0  0  0  0  0  0  0  # atno 17342 bound_to 10162
  139.9585  143.6191  152.3009 LP  0  0  0  0  0  0  0  0  0  0  0  0  # atno 17343 bound_to 10162
  156.8070  130.4940  149.5361 LP  0  0  0  0  0  0  0  0  0  0  0  0  # atno 17370 bound_to 10713
  156.1153  130.6070  151.0110 LP  0  0  0  0  0  0  0  0  0  0  0  0  # atno 17371 bound_to 10713
  141.2081  133.7786  157.0077 LP  0  0  0  0  0  0  0  0  0  0  0  0  # atno 17394 bound_to 11000
  140.0924  134.9585  157.1796 LP  0  0  0  0  0  0  0  0  0  0  0  0  # atno 17395 bound_to 11000

$$$$
