AV-unprocessed.smi:3245|AV-procd|sdf|12409|dock5
  -GOLD-   2272018293D 1   1.00000     0.00000
 Structure written by MMmdl.
 34 35  0  0  0  0  0  0  0  0  2 V2000
  152.1026  144.3964  157.9030 C   0  0  0  0  0  0  0  0  0  0  0  0
  151.6963  142.9246  157.6852 C   0  0  1  0  0  0  0  0  0  0  0  0
  150.9558  142.3257  158.8991 C   0  0  0  0  0  0  0  0  0  0  0  0
  151.7922  142.2251  160.0817 N   0  0  0  0  0  0  0  0  0  0  0  0
  153.0160  141.6032  160.2149 C   0  0  0  0  0  0  0  0  0  0  0  0
  153.4211  141.7762  161.5074 C   0  0  0  0  0  0  0  0  0  0  0  0
  152.3672  142.5317  162.0936 C   0  0  0  0  0  0  0  0  0  0  0  0
  151.3953  142.8018  161.2371 N   0  0  0  0  0  0  0  0  0  0  0  0
  150.8088  142.8070  156.5347 N   0  0  0  0  0  0  0  0  0  0  0  0
  150.4509  141.4251  156.2455 C   0  0  0  0  0  0  0  0  0  0  0  0
  151.7142  140.6003  155.9401 C   0  0  0  0  0  0  0  0  0  0  0  0
  151.3929  139.2472  155.4682 N   0  0  0  0  0  0  0  0  0  0  0  0
  150.3105  138.9442  154.7447 C   0  0  0  0  0  0  0  0  0  0  0  0
  149.4257  139.7050  154.3520 O   0  0  0  0  0  0  0  0  0  0  0  0
  150.3429  137.4579  154.4752 C   0  0  0  0  0  0  0  0  0  0  0  0
  151.5573  137.0493  155.1437 N   0  5  0  0  0  0  0  0  0  0  0  0
  152.1240  138.1412  155.7089 C   0  0  0  0  0  0  0  0  0  0  0  0
  153.1657  138.1705  156.3639 O   0  0  0  0  0  0  0  0  0  0  0  0
  152.7601  144.5029  158.7657 H   0  0  0  0  0  0  0  0  0  0  0  0
  151.2284  145.0254  158.0741 H   0  0  0  0  0  0  0  0  0  0  0  0
  152.6424  144.8038  157.0491 H   0  0  0  0  0  0  0  0  0  0  0  0
  152.5905  142.3260  157.5048 H   0  0  0  0  0  0  0  0  0  0  0  0
  150.0846  142.9340  159.1484 H   0  0  0  0  0  0  0  0  0  0  0  0
  150.5816  141.3285  158.6622 H   0  0  0  0  0  0  0  0  0  0  0  0
  153.4891  141.0928  159.3889 H   0  0  0  0  0  0  0  0  0  0  0  0
  154.3318  141.4187  161.9642 H   0  0  0  0  0  0  0  0  0  0  0  0
  152.2810  142.8905  163.1086 H   0  0  0  0  0  0  0  0  0  0  0  0
  149.9631  143.3324  156.7053 H   0  0  0  0  0  0  0  0  0  0  0  0
  149.9013  140.9785  157.0733 H   0  0  0  0  0  0  0  0  0  0  0  0
  149.7926  141.4075  155.3762 H   0  0  0  0  0  0  0  0  0  0  0  0
  152.2916  141.1095  155.1670 H   0  0  0  0  0  0  0  0  0  0  0  0
  152.3694  140.5688  156.8124 H   0  0  0  0  0  0  0  0  0  0  0  0
  149.4477  136.9873  154.8828 H   0  0  0  0  0  0  0  0  0  0  0  0
  150.3606  137.2759  153.4001 H   0  0  0  0  0  0  0  0  0  0  0  0
  1  2  1  0  0  0  0
  1 19  1  0  0  0  0
  1 20  1  0  0  0  0
  1 21  1  0  0  0  0
  2  3  1  0  0  0  0
  2  9  1  0  0  0  0
  2 22  1  0  0  0  0
  3  4  1  0  0  0  0
  3 23  1  0  0  0  0
  3 24  1  0  0  0  0
  4  8  1  0  0  0  0
  4  5  1  0  0  0  0
  5  6  2  0  0  0  0
  5 25  1  0  0  0  0
  6  7  1  0  0  0  0
  6 26  1  0  0  0  0
  7  8  2  0  0  0  0
  7 27  1  0  0  0  0
  9 10  1  0  0  0  0
  9 28  1  0  0  0  0
 10 11  1  0  0  0  0
 10 29  1  0  0  0  0
 10 30  1  0  0  0  0
 11 12  1  0  0  0  0
 11 31  1  0  0  0  0
 11 32  1  0  0  0  0
 12 17  1  0  0  0  0
 12 13  1  0  0  0  0
 13 14  2  0  0  0  0
 13 15  1  0  0  0  0
 15 16  1  0  0  0  0
 15 33  1  0  0  0  0
 15 34  1  0  0  0  0
 16 17  1  0  0  0  0
 17 18  2  0  0  0  0
M  CHG  1  16  -1
M  END
> <s_m_source_file>
AV-unprocessed.smi

> <i_m_source_file_index>
3245

> <i_lp_mmshare_version>
43012

> <i_f3d_flags>
0

> <s_epik_input>
bjFbY0hdW2NIXVtjSF1uMVtDSDJdW0NAQEhdKFtDSDNdKVtOSF1bQ0gyXVtDSDJdTjJDKD1PKVtDSDJdW05IXUMyPU8=

> <s_epik_cmdline>
J2VwaWtfcHl0aG9uJywgJy1waCcsICc3LjAnLCAnLXRuJywgJzgnLCAnLW1hJywgJzIwMCcsICctbWV0YWxfYmluZGluZycsICctaW1hZScsICc8aW5maWxlLm1hZT4nLCAnLW9tYWUnLCAnPG91dGZpbGUubWFlPic=

> <r_lp_tautomer_probability>
1

> <r_epik_Ionization_Penalty>
8.62027

> <r_epik_Ionization_Penalty_Charging>
6.28132

> <r_epik_Ionization_Penalty_Neutral>
2.33895

> <r_epik_State_Penalty>
8.57043

> <r_epik_Charging_Adjusted_Penalty>
14.8517

> <i_epik_Tot_Q>
-1

> <i_epik_Tot_abs_Q>
1

> <r_epik_Metal_State_Penalty>
4.56785

> <b_epik_Metal_Only>
1

> <s_lp_Force_Field>
OPLS_2005

> <r_lp_Energy>
21.4513

> <b_lp_Chiralities_Consistent>
1

> <s_lp_Variant>
AV-unprocessed.smi:3245-8

> <Gold.Version>
5.8.1

> <Gold.Id.Protein>
6NUR|6NUR_protein|mol2

> <Gold.PLP.Fitness>
52.5920

> <Gold.PLP.PLP>
-42.3739

> <Gold.PLP.part.hbond>
-4.0000

> <Gold.PLP.part.metal>
0.0000

> <Gold.PLP.part.buried>
-5.6372

> <Gold.PLP.part.nonpolar>
-34.0153

> <Gold.PLP.part.repulsive>
0.3394

> <Gold.PLP.ligand.clash>
0.0000

> <Gold.PLP.ligand.torsion>
0.4298

> <Gold.PLP.Chemscore.Hbond>
3.6548

> <Gold.PLP.Chemscore.CHOScore>
0.0000

> <Gold.PLP.Chemscore.Metal>
0.0000

> <Gold.Chemscore.Hbonds>
donor molecule, donor type, donor heavy atom, donor atom, acceptor molecule, acceptor atom, score
      L1  H     9    28       P1  8028  0.69
      P1  H  6933  6945       L1     8  0.28
      P1  H  7997  8008       L1    18  0.32
      P1  H 10752 10763       L1    16  1.76

> <Gold.PLP.Chemscore.Internal.Correction>
0.1134

> <Gold.Rescore>
     Score         DG    S(hbond)    S(metal)    S(lipo)     H(rot)  DE(clash)    DE(int)     intcor
     13.67     -17.10       2.42        0.00      86.56       2.58       1.49       1.94       ----

> <Gold.Chemscore.Fitness>
13.6694

> <Gold.Chemscore.DG>
-17.0991

> <Gold.Chemscore.ZeroCoef>
-5.4800

> <Gold.Chemscore.Hbond>
2.4249

> <Gold.Chemscore.Metal>
0.0000

> <Gold.Chemscore.Lipo>
86.5610

> <Gold.Chemscore.Internal_Hbond>
0.0000

> <Gold.Chemscore.DEClash>
1.4918

> <Gold.Chemscore.DEInternal>
1.9379

> <Gold.Chemscore.Rot>
2.5811

> <Gold.Chemscore.Internal.Correction>
   9.000000E+99

> <Gold.Chemscore.Hbonds>
donor molecule, donor type, donor heavy atom, donor atom, acceptor molecule, acceptor atom, score
      L1  H     9    28       P1  8028  0.65
      P1  H  6933  6945       L1     8  0.03
      P1  H  7997  8008       L1    18  0.30
      P1  H 10752 10763       L1    16  0.75

> <Gold.Chemscore.Hbond.Weighted>
-8.0990

> <Gold.Chemscore.Metal.Weighted>
-0.0000

> <Gold.Chemscore.Lipo.Weighted>
-10.1276

> <Gold.Chemscore.Internal_Hbond.Weighted>
0.0000

> <Gold.Chemscore.DEClash.Weighted>
1.4918

> <Gold.Chemscore.DEInternal.Weighted>
1.9379

> <Gold.Chemscore.Rot.Weighted>
6.6076

> <Gold.Chemscore.Internal.Correction.Weighted>
   9.000000E+99

> <Gold.Protein.RotatedTorsions>
[ 6907 6896 6895 6894 ] final   18.13 input  -60.11 | X-H torsion
[ 7974 7965 7964 7962 ] final   17.36 input  175.53 | X-H torsion
[ 8008 7997 7996 7995 ] final  -38.11 input   59.86 | X-H torsion
[ 10167 10162 10161 10158 ] final -152.39 input  -65.29 | X-H torsion
[ 10718 10713 10712 10709 ] final  -74.57 input   66.30 | X-H torsion
[ 10763 10752 10751 10750 ] final   54.61 input  -60.55 | X-H torsion
[ 11005 11000 10999 10996 ] final  -74.99 input  -57.11 | X-H torsion

> <Gold.Protein.ActiveResidues>
 VAL166  LYS551  ARG553  GLY616  TRP617  ASP618  TYR619  PRO620  LYS621  CYS622 
 ASP623  PHE694  ASN695  SER759  ASP760  ASP761  ALA762  ILE779  LEU786  VAL792 
 PHE793  MET794  SER795  GLU796  ALA797  LYS798  CYS799  TRP800  GLU811  SER814 

> <Gold.Protein.RotatedAtoms>
  151.8604  135.0526  160.0468 H   0  0  0  0  0  0  0  0  0  0  0  0  # atno 6907 bound_to 6896
  152.2667  133.5341  159.5423 H   0  0  0  0  0  0  0  0  0  0  0  0  # atno 6908 bound_to 6896
  150.7136  134.0670  159.3893 H   0  0  0  0  0  0  0  0  0  0  0  0  # atno 6909 bound_to 6896
  146.2221  139.8613  142.8604 H   0  0  0  0  0  0  0  0  0  0  0  0  # atno 7974 bound_to 7965
  154.4042  140.1586  156.2647 H   0  0  0  0  0  0  0  0  0  0  0  0  # atno 8008 bound_to 7997
  155.9005  140.3433  155.6001 H   0  0  0  0  0  0  0  0  0  0  0  0  # atno 8009 bound_to 7997
  155.7453  140.0798  157.2217 H   0  0  0  0  0  0  0  0  0  0  0  0  # atno 8010 bound_to 7997
  139.7185  143.8994  152.2495 H   0  0  0  0  0  0  0  0  0  0  0  0  # atno 10167 bound_to 10162
  156.0238  130.4420  150.2912 H   0  0  0  0  0  0  0  0  0  0  0  0  # atno 10718 bound_to 10713
  152.9806  135.5739  154.4932 H   0  0  0  0  0  0  0  0  0  0  0  0  # atno 10763 bound_to 10752
  154.4463  135.2777  155.1814 H   0  0  0  0  0  0  0  0  0  0  0  0  # atno 10764 bound_to 10752
  154.3461  135.6219  153.5673 H   0  0  0  0  0  0  0  0  0  0  0  0  # atno 10765 bound_to 10752
  141.1641  133.6931  156.7449 H   0  0  0  0  0  0  0  0  0  0  0  0  # atno 11005 bound_to 11000
  145.2701  141.0106  143.3776 LP  0  0  0  0  0  0  0  0  0  0  0  0  # atno 17320 bound_to 7965
  144.9230  139.4389  143.6532 LP  0  0  0  0  0  0  0  0  0  0  0  0  # atno 17321 bound_to 7965
  139.8884  144.6979  150.8798 LP  0  0  0  0  0  0  0  0  0  0  0  0  # atno 17342 bound_to 10162
  140.7749  143.3606  151.1836 LP  0  0  0  0  0  0  0  0  0  0  0  0  # atno 17343 bound_to 10162
  157.1016  131.0197  151.3083 LP  0  0  0  0  0  0  0  0  0  0  0  0  # atno 17370 bound_to 10713
  157.4775  130.7745  149.7382 LP  0  0  0  0  0  0  0  0  0  0  0  0  # atno 17371 bound_to 10713
  140.2647  134.8439  157.3792 LP  0  0  0  0  0  0  0  0  0  0  0  0  # atno 17394 bound_to 11000
  140.1578  134.4768  155.7916 LP  0  0  0  0  0  0  0  0  0  0  0  0  # atno 17395 bound_to 11000

$$$$
