AV-unprocessed.smi:101|AV-procd|sdf|932|dock6
  -GOLD-   2262017443D 1   1.00000     0.00000
 Structure written by MMmdl.
 43 45  0  0  0  0  0  0  0  0  2 V2000
  144.7450  141.1252  158.6452 C   0  0  0  0  0  0  0  0  0  0  0  0
  144.9481  141.8194  157.3098 C   0  0  0  0  0  0  0  0  0  0  0  0
  145.9529  141.4864  156.4692 C   0  0  0  0  0  0  0  0  0  0  0  0
  146.1330  142.1225  155.2524 N   0  0  0  0  0  0  0  0  0  0  0  0
  147.2642  141.7422  154.3145 C   0  0  1  0  0  0  0  0  0  0  0  0
  148.4468  141.5830  155.0467 O   0  0  0  0  0  0  0  0  0  0  0  0
  148.8121  140.2084  155.0900 C   0  0  2  0  0  0  0  0  0  0  0  0
  150.3215  140.0936  155.3353 C   0  0  0  0  0  0  0  0  0  0  0  0
  150.6596  140.7493  156.5464 O   0  0  0  0  0  0  0  0  0  0  0  0
  151.7921  140.4226  157.1975 C   0  0  0  0  0  0  0  0  0  0  0  0
  152.5417  139.5094  156.8458 O   0  0  0  0  0  0  0  0  0  0  0  0
  152.0447  141.2829  158.3896 C   0  0  0  0  0  0  0  0  0  0  0  0
  152.9459  140.8397  159.3858 C   0  0  0  0  0  0  0  0  0  0  0  0
  153.2024  141.6289  160.5238 C   0  0  0  0  0  0  0  0  0  0  0  0
  152.5594  142.8704  160.6807 C   0  0  0  0  0  0  0  0  0  0  0  0
  151.6599  143.3223  159.6975 C   0  0  0  0  0  0  0  0  0  0  0  0
  151.4032  142.5350  158.5577 C   0  0  0  0  0  0  0  0  0  0  0  0
  148.3460  139.7031  153.7257 C   0  0  1  0  0  0  0  0  0  0  0  0
  148.2401  138.2937  153.6495 O   0  0  0  0  0  0  0  0  0  0  0  0
  147.0082  140.4157  153.5573 C   0  0  1  0  0  0  0  0  0  0  0  0
  145.9345  139.6550  154.0928 O   0  0  0  0  0  0  0  0  0  0  0  0
  145.2380  143.1517  154.8608 C   0  0  0  0  0  0  0  0  0  0  0  0
  145.4152  143.6819  153.7637 O   0  0  0  0  0  0  0  0  0  0  0  0
  144.2235  143.4968  155.7034 N   0  5  0  0  0  0  0  0  0  0  0  0
  144.0263  142.8887  156.9083 C   0  0  0  0  0  0  0  0  0  0  0  0
  143.1051  143.2090  157.6590 O   0  0  0  0  0  0  0  0  0  0  0  0
  145.5064  140.3638  158.8168 H   0  0  0  0  0  0  0  0  0  0  0  0
  143.7690  140.6399  158.6774 H   0  0  0  0  0  0  0  0  0  0  0  0
  144.7983  141.8464  159.4615 H   0  0  0  0  0  0  0  0  0  0  0  0
  146.6274  140.6985  156.7664 H   0  0  0  0  0  0  0  0  0  0  0  0
  147.4012  142.5997  153.6535 H   0  0  0  0  0  0  0  0  0  0  0  0
  148.2535  139.7222  155.8918 H   0  0  0  0  0  0  0  0  0  0  0  0
  150.6214  139.0453  155.3723 H   0  0  0  0  0  0  0  0  0  0  0  0
  150.8655  140.5611  154.5134 H   0  0  0  0  0  0  0  0  0  0  0  0
  153.4512  139.8895  159.2875 H   0  0  0  0  0  0  0  0  0  0  0  0
  153.8933  141.2804  161.2775 H   0  0  0  0  0  0  0  0  0  0  0  0
  152.7555  143.4751  161.5540 H   0  0  0  0  0  0  0  0  0  0  0  0
  151.1645  144.2745  159.8172 H   0  0  0  0  0  0  0  0  0  0  0  0
  150.7053  142.9105  157.8234 H   0  0  0  0  0  0  0  0  0  0  0  0
  149.0377  140.0485  152.9559 H   0  0  0  0  0  0  0  0  0  0  0  0
  148.5850  138.0190  152.8132 H   0  0  0  0  0  0  0  0  0  0  0  0
  146.7937  140.6273  152.5092 H   0  0  0  0  0  0  0  0  0  0  0  0
  145.2255  139.6645  153.4671 H   0  0  0  0  0  0  0  0  0  0  0  0
  1  2  1  0  0  0  0
  1 27  1  0  0  0  0
  1 28  1  0  0  0  0
  1 29  1  0  0  0  0
  2 25  1  0  0  0  0
  2  3  2  0  0  0  0
  3  4  1  0  0  0  0
  3 30  1  0  0  0  0
  4  5  1  0  0  0  0
  4 22  1  0  0  0  0
  5 20  1  0  0  0  0
  5  6  1  0  0  0  0
  5 31  1  0  0  0  0
  6  7  1  0  0  0  0
  7  8  1  0  0  0  0
  7 18  1  0  0  0  0
  7 32  1  0  0  0  0
  8  9  1  0  0  0  0
  8 33  1  0  0  0  0
  8 34  1  0  0  0  0
  9 10  1  0  0  0  0
 10 11  2  0  0  0  0
 10 12  1  0  0  0  0
 12 17  1  0  0  0  0
 12 13  2  0  0  0  0
 13 14  1  0  0  0  0
 13 35  1  0  0  0  0
 14 15  2  0  0  0  0
 14 36  1  0  0  0  0
 15 16  1  0  0  0  0
 15 37  1  0  0  0  0
 16 17  2  0  0  0  0
 16 38  1  0  0  0  0
 17 39  1  0  0  0  0
 18 19  1  0  0  0  0
 18 20  1  0  0  0  0
 18 40  1  0  0  0  0
 19 41  1  0  0  0  0
 20 21  1  0  0  0  0
 20 42  1  0  0  0  0
 21 43  1  0  0  0  0
 22 23  2  0  0  0  0
 22 24  1  0  0  0  0
 24 25  1  0  0  0  0
 25 26  2  0  0  0  0
M  CHG  1  24  -1
M  END
> <s_m_source_file>
AV-unprocessed.smi

> <i_m_source_file_index>
101

> <i_lp_mmshare_version>
43012

> <i_f3d_flags>
0

> <s_epik_input>
Tz1jMVtuSF1jKD1PKW4oW2NIXWMxW0NIM10pW0NAQEhdMk9bQ0BIXShbQ0BASF0oW09IXSlbQ0BIXTJbT0hdKVtDSDJdT0MoPU8pYzNbY0hdW2NIXVtjSF1bY0hdW2NIXTM=

> <s_epik_cmdline>
J2VwaWtfcHl0aG9uJywgJy1waCcsICc3LjAnLCAnLXRuJywgJzgnLCAnLW1hJywgJzIwMCcsICctbWV0YWxfYmluZGluZycsICctaW1hZScsICc8aW5maWxlLm1hZT4nLCAnLW9tYWUnLCAnPG91dGZpbGUubWFlPic=

> <r_lp_tautomer_probability>
0.999537

> <r_epik_Ionization_Penalty>
3.21006

> <r_epik_Ionization_Penalty_Charging>
5.75142e-08

> <r_epik_Ionization_Penalty_Neutral>
3.21006

> <r_epik_State_Penalty>
3.20925

> <r_epik_Charging_Adjusted_Penalty>
3.20925

> <i_epik_Tot_Q>
-1

> <i_epik_Tot_abs_Q>
1

> <r_epik_Metal_State_Penalty>
0.119957

> <b_epik_Metal_Only>
1

> <s_epik_Chemistry_Notes>
This compound has an ester and may undergo hydrolysis at high or low pH. This compound contains an acetal/aminal-like group ( X-CH(R)-Y where X, Y are N, S, or O) that may be acid/base labile, releasing an aldehyde.

> <s_lp_Force_Field>
OPLS_2005

> <r_lp_Energy>
48.7646

> <b_lp_Chiralities_Consistent>
1

> <s_lp_Variant>
AV-unprocessed.smi:101-20

> <Gold.Version>
5.8.1

> <Gold.Id.Protein>
6NUR|6NUR_protein|mol2

> <Gold.PLP.Fitness>
51.5717

> <Gold.PLP.PLP>
-43.8818

> <Gold.PLP.part.hbond>
-3.5771

> <Gold.PLP.part.metal>
0.0000

> <Gold.PLP.part.buried>
-4.4215

> <Gold.PLP.part.nonpolar>
-36.5969

> <Gold.PLP.part.repulsive>
0.6368

> <Gold.PLP.ligand.clash>
0.0000

> <Gold.PLP.ligand.torsion>
0.7210

> <Gold.PLP.Chemscore.Hbond>
3.0000

> <Gold.PLP.Chemscore.CHOScore>
0.0000

> <Gold.PLP.Chemscore.Metal>
0.0000

> <Gold.Chemscore.Hbonds>
donor molecule, donor type, donor heavy atom, donor atom, acceptor molecule, acceptor atom, score
      L1  H    19    41       P1  7948  0.75
      L1  H    21    43       P1 10175  1.00
      P1  H  7997  8010       L1    11  1.00

> <Gold.PLP.Chemscore.Internal.Correction>
0.1320

> <Gold.Rescore>
     Score         DG    S(hbond)    S(metal)    S(lipo)     H(rot)  DE(clash)    DE(int)     intcor
     14.62     -16.86       2.88        0.00      86.47       3.27       0.70       1.53       ----

> <Gold.Chemscore.Fitness>
14.6221

> <Gold.Chemscore.DG>
-16.8555

> <Gold.Chemscore.ZeroCoef>
-5.4800

> <Gold.Chemscore.Hbond>
2.8799

> <Gold.Chemscore.Metal>
0.0000

> <Gold.Chemscore.Lipo>
86.4665

> <Gold.Chemscore.Internal_Hbond>
0.0000

> <Gold.Chemscore.DEClash>
0.7027

> <Gold.Chemscore.DEInternal>
1.5307

> <Gold.Chemscore.Rot>
3.2656

> <Gold.Chemscore.Internal.Correction>
   9.000000E+99

> <Gold.Chemscore.Hbonds>
donor molecule, donor type, donor heavy atom, donor atom, acceptor molecule, acceptor atom, score
      L1  H    19    41       P1  7948  0.70
      L1  H    21    43       P1 10175  0.93
      P1  H  7997  8010       L1    11  0.85

> <Gold.Chemscore.Hbond.Weighted>
-9.6188

> <Gold.Chemscore.Metal.Weighted>
-0.0000

> <Gold.Chemscore.Lipo.Weighted>
-10.1166

> <Gold.Chemscore.Internal_Hbond.Weighted>
0.0000

> <Gold.Chemscore.DEClash.Weighted>
0.7027

> <Gold.Chemscore.DEInternal.Weighted>
1.5307

> <Gold.Chemscore.Rot.Weighted>
8.3598

> <Gold.Chemscore.Internal.Correction.Weighted>
   9.000000E+99

> <Gold.Protein.RotatedTorsions>
[ 6907 6896 6895 6894 ] final  159.41 input  -60.11 | X-H torsion
[ 7974 7965 7964 7962 ] final -127.73 input  175.53 | X-H torsion
[ 8008 7997 7996 7995 ] final   67.15 input   59.86 | X-H torsion
[ 10167 10162 10161 10158 ] final  -56.98 input  -65.29 | X-H torsion
[ 10718 10713 10712 10709 ] final   -9.37 input   66.30 | X-H torsion
[ 10763 10752 10751 10750 ] final   40.66 input  -60.55 | X-H torsion
[ 11005 11000 10999 10996 ] final   43.77 input  -57.11 | X-H torsion

> <Gold.Protein.ActiveResidues>
 VAL166  LYS551  ARG553  GLY616  TRP617  ASP618  TYR619  PRO620  LYS621  CYS622 
 ASP623  PHE694  ASN695  SER759  ASP760  ASP761  ALA762  ILE779  LEU786  VAL792 
 PHE793  MET794  SER795  GLU796  ALA797  LYS798  CYS799  TRP800  GLU811  SER814 

> <Gold.Protein.RotatedAtoms>
  151.9859  133.3774  159.4125 H   0  0  0  0  0  0  0  0  0  0  0  0  # atno 6907 bound_to 6896
  150.6928  134.3988  159.5119 H   0  0  0  0  0  0  0  0  0  0  0  0  # atno 6908 bound_to 6896
  152.1714  134.8830  160.0585 H   0  0  0  0  0  0  0  0  0  0  0  0  # atno 6909 bound_to 6896
  144.9741  140.7575  143.4652 H   0  0  0  0  0  0  0  0  0  0  0  0  # atno 7974 bound_to 7965
  155.6885  140.3496  155.4884 H   0  0  0  0  0  0  0  0  0  0  0  0  # atno 8008 bound_to 7997
  155.9545  140.1125  157.0971 H   0  0  0  0  0  0  0  0  0  0  0  0  # atno 8009 bound_to 7997
  154.4129  140.1187  156.5083 H   0  0  0  0  0  0  0  0  0  0  0  0  # atno 8010 bound_to 7997
  140.6285  143.2449  151.5302 H   0  0  0  0  0  0  0  0  0  0  0  0  # atno 10167 bound_to 10162
  156.6890  130.5059  149.5949 H   0  0  0  0  0  0  0  0  0  0  0  0  # atno 10718 bound_to 10713
  152.9930  135.6185  154.2662 H   0  0  0  0  0  0  0  0  0  0  0  0  # atno 10763 bound_to 10752
  154.2396  135.2789  155.2860 H   0  0  0  0  0  0  0  0  0  0  0  0  # atno 10764 bound_to 10752
  154.5380  135.5769  153.6873 H   0  0  0  0  0  0  0  0  0  0  0  0  # atno 10765 bound_to 10752
  140.1613  134.4337  155.8315 H   0  0  0  0  0  0  0  0  0  0  0  0  # atno 11005 bound_to 11000
  145.2516  139.2029  143.4939 LP  0  0  0  0  0  0  0  0  0  0  0  0  # atno 17320 bound_to 7965
  146.3390  140.2430  142.8596 LP  0  0  0  0  0  0  0  0  0  0  0  0  # atno 17321 bound_to 7965
  139.5502  144.2415  152.1516 LP  0  0  0  0  0  0  0  0  0  0  0  0  # atno 17342 bound_to 10162
  140.1653  144.4987  150.6609 LP  0  0  0  0  0  0  0  0  0  0  0  0  # atno 17343 bound_to 10162
  156.1811  130.6499  151.0952 LP  0  0  0  0  0  0  0  0  0  0  0  0  # atno 17370 bound_to 10713
  157.7016  131.0774  150.6803 LP  0  0  0  0  0  0  0  0  0  0  0  0  # atno 17371 bound_to 10713
  141.2209  133.6915  156.7600 LP  0  0  0  0  0  0  0  0  0  0  0  0  # atno 17394 bound_to 11000
  140.2486  134.8558  157.3645 LP  0  0  0  0  0  0  0  0  0  0  0  0  # atno 17395 bound_to 11000

$$$$
