AV-unprocessed.smi:1199|AV-procd|sdf|5019|dock4
  -GOLD-   22720 4 43D 1   1.00000     0.00000
 Structure written by MMmdl.
 41 42  0  0  0  0  0  0  0  0  1 V2000
  146.3621  136.7961  155.8472 C   0  0  0  0  0  0  0  0  0  0  0  0
  147.5653  135.9587  156.3064 C   0  0  1  0  0  0  0  0  0  0  0  0
  148.8093  136.2150  155.4269 C   0  0  0  0  0  0  0  0  0  0  0  0
  149.3163  137.5902  155.4295 N   0  0  0  0  0  0  0  0  0  0  0  0
  148.5664  138.4784  154.5421 C   0  0  0  0  0  0  0  0  0  0  0  0
  149.1427  139.9046  154.5238 C   0  0  0  0  0  0  0  0  0  0  0  0
  150.5182  139.8625  154.1608 O   0  0  0  0  0  0  0  0  0  0  0  0
  151.2902  139.0539  155.0420 C   0  0  0  0  0  0  0  0  0  0  0  0
  150.7254  137.6229  155.0507 C   0  0  0  0  0  0  0  0  0  0  0  0
  147.8699  136.2943  157.6952 N   0  0  0  0  0  0  0  0  0  0  0  0
  148.8682  135.7718  158.4234 C   0  0  0  0  0  0  0  0  0  0  0  0
  149.5916  134.8581  158.0267 O   0  0  0  0  0  0  0  0  0  0  0  0
  149.0848  136.3864  159.8110 C   0  0  0  0  0  0  0  0  0  0  0  0
  147.9656  136.0808  160.7122 N   0  0  0  0  0  0  0  0  0  0  0  0
  147.4234  137.2012  161.3260 N   0  0  0  0  0  0  0  0  0  0  0  0
  146.4653  137.0696  162.1793 C   0  0  0  0  0  0  0  0  0  0  0  0
  145.9648  138.2048  162.7680 O   0  0  0  0  0  0  0  0  0  0  0  0
  145.9304  135.7672  162.5087 C   0  0  0  0  0  0  0  0  0  0  0  0
  146.4603  134.6825  161.9018 C   0  0  0  0  0  0  0  0  0  0  0  0
  147.5526  134.7948  160.9334 C   0  0  0  0  0  0  0  0  0  0  0  0
  148.0586  133.8221  160.3745 O   0  0  0  0  0  0  0  0  0  0  0  0
  146.4918  138.3403  163.5406 H   0  0  0  0  0  0  0  0  0  0  0  0
  146.0861  136.5553  154.8200 H   0  0  0  0  0  0  0  0  0  0  0  0
  146.5785  137.8638  155.8924 H   0  0  0  0  0  0  0  0  0  0  0  0
  145.4891  136.6048  156.4720 H   0  0  0  0  0  0  0  0  0  0  0  0
  147.2874  134.9070  156.2137 H   0  0  0  0  0  0  0  0  0  0  0  0
  149.6080  135.5720  155.7992 H   0  0  0  0  0  0  0  0  0  0  0  0
  148.6254  135.8807  154.4043 H   0  0  0  0  0  0  0  0  0  0  0  0
  148.5629  138.0750  153.5283 H   0  0  0  0  0  0  0  0  0  0  0  0
  147.5279  138.5409  154.8614 H   0  0  0  0  0  0  0  0  0  0  0  0
  148.6013  140.5219  153.8065 H   0  0  0  0  0  0  0  0  0  0  0  0
  149.0321  140.3775  155.5009 H   0  0  0  0  0  0  0  0  0  0  0  0
  152.3273  139.0507  154.7064 H   0  0  0  0  0  0  0  0  0  0  0  0
  151.2784  139.4810  156.0461 H   0  0  0  0  0  0  0  0  0  0  0  0
  151.3085  137.0114  155.7404 H   0  0  0  0  0  0  0  0  0  0  0  0
  150.8519  137.1822  154.0606 H   0  0  0  0  0  0  0  0  0  0  0  0
  147.3206  137.0317  158.1120 H   0  0  0  0  0  0  0  0  0  0  0  0
  150.0145  136.0122  160.2451 H   0  0  0  0  0  0  0  0  0  0  0  0
  149.2297  137.4622  159.7004 H   0  0  0  0  0  0  0  0  0  0  0  0
  145.1263  135.6739  163.2235 H   0  0  0  0  0  0  0  0  0  0  0  0
  146.0707  133.7036  162.1394 H   0  0  0  0  0  0  0  0  0  0  0  0
  1  2  1  0  0  0  0
  1 23  1  0  0  0  0
  1 24  1  0  0  0  0
  1 25  1  0  0  0  0
  2  3  1  0  0  0  0
  2 10  1  0  0  0  0
  2 26  1  0  0  0  0
  3  4  1  0  0  0  0
  3 27  1  0  0  0  0
  3 28  1  0  0  0  0
  4  9  1  0  0  0  0
  4  5  1  0  0  0  0
  5  6  1  0  0  0  0
  5 29  1  0  0  0  0
  5 30  1  0  0  0  0
  6  7  1  0  0  0  0
  6 31  1  0  0  0  0
  6 32  1  0  0  0  0
  7  8  1  0  0  0  0
  8  9  1  0  0  0  0
  8 33  1  0  0  0  0
  8 34  1  0  0  0  0
  9 35  1  0  0  0  0
  9 36  1  0  0  0  0
 10 11  1  0  0  0  0
 10 37  1  0  0  0  0
 11 12  2  0  0  0  0
 11 13  1  0  0  0  0
 13 38  1  0  0  0  0
 13 39  1  0  0  0  0
 13 14  1  0  0  0  0
 14 15  1  0  0  0  0
 14 20  1  0  0  0  0
 15 16  2  0  0  0  0
 16 17  1  0  0  0  0
 16 18  1  0  0  0  0
 17 22  1  0  0  0  0
 18 40  1  0  0  0  0
 18 19  2  0  0  0  0
 19 41  1  0  0  0  0
 19 20  1  0  0  0  0
 20 21  2  0  0  0  0
M  END
> <s_m_source_file>
AV-unprocessed.smi

> <i_m_source_file_index>
1199

> <i_lp_mmshare_version>
43012

> <i_f3d_flags>
0

> <s_epik_input>
W0NIMl0xW0NIMl1PW0NIMl1bQ0gyXU4xW0NIMl1bQ0BASF0oW0NIM10pW05IXUMoPU8pW0NIMl1uMltuSF1jKD1PKVtjSF1bY0hdYzI9Tw==

> <s_epik_cmdline>
J2VwaWtfcHl0aG9uJywgJy1waCcsICc3LjAnLCAnLXRuJywgJzgnLCAnLW1hJywgJzIwMCcsICctbWV0YWxfYmluZGluZycsICctaW1hZScsICc8aW5maWxlLm1hZT4nLCAnLW9tYWUnLCAnPG91dGZpbGUubWFlPic=

> <r_epik_Ionization_Penalty>
2.36432

> <r_epik_Ionization_Penalty_Charging>
3.67277e-08

> <r_epik_Ionization_Penalty_Neutral>
2.36432

> <r_epik_State_Penalty>
1.96081

> <r_epik_Charging_Adjusted_Penalty>
1.96081

> <i_epik_Tot_Q>
0

> <i_epik_Tot_abs_Q>
0

> <r_epik_Metal_State_Penalty>
1.96081

> <b_epik_Metal_Only>
0

> <s_lp_Force_Field>
OPLS_2005

> <r_lp_Energy>
38.3542

> <b_lp_Chiralities_Consistent>
1

> <s_lp_Variant>
AV-unprocessed.smi:1199-6

> <Gold.Version>
5.8.1

> <Gold.Id.Protein>
6NUR|6NUR_protein|mol2

> <Gold.PLP.Fitness>
40.3999

> <Gold.PLP.PLP>
-29.9556

> <Gold.PLP.part.hbond>
-5.6561

> <Gold.PLP.part.metal>
0.0000

> <Gold.PLP.part.buried>
-4.2972

> <Gold.PLP.part.nonpolar>
-21.1587

> <Gold.PLP.part.repulsive>
0.7150

> <Gold.PLP.ligand.clash>
0.0000

> <Gold.PLP.ligand.torsion>
0.3312

> <Gold.PLP.Chemscore.Hbond>
3.6984

> <Gold.PLP.Chemscore.CHOScore>
0.0000

> <Gold.PLP.Chemscore.Metal>
0.0000

> <Gold.Chemscore.Hbonds>
donor molecule, donor type, donor heavy atom, donor atom, acceptor molecule, acceptor atom, score
      P1  H  6896  6909       L1    12  1.00
      P1  H  6931  6943       L1    15  0.90
      P1  H  6934  6947       L1    15  0.85
      P1  H  7989  7998       L1     7  1.00

> <Gold.PLP.Chemscore.Internal.Correction>
0.0114

> <Gold.Rescore>
     Score         DG    S(hbond)    S(metal)    S(lipo)     H(rot)  DE(clash)    DE(int)     intcor
      8.94     -11.69       2.49        0.00      46.32       2.94       0.10       2.65       ----

> <Gold.Chemscore.Fitness>
8.9368

> <Gold.Chemscore.DG>
-11.6891

> <Gold.Chemscore.ZeroCoef>
-5.4800

> <Gold.Chemscore.Hbond>
2.4927

> <Gold.Chemscore.Metal>
0.0000

> <Gold.Chemscore.Lipo>
46.3200

> <Gold.Chemscore.Internal_Hbond>
0.0000

> <Gold.Chemscore.DEClash>
0.0998

> <Gold.Chemscore.DEInternal>
2.6525

> <Gold.Chemscore.Rot>
2.9437

> <Gold.Chemscore.Internal.Correction>
   9.000000E+99

> <Gold.Chemscore.Hbonds>
donor molecule, donor type, donor heavy atom, donor atom, acceptor molecule, acceptor atom, score
      P1  H  6896  6909       L1    12  0.82
      P1  H  6931  6943       L1    15  0.36
      P1  H  6934  6947       L1    15  0.16
      P1  H  7989  7998       L1     7  0.44

> <Gold.Chemscore.Hbond.Weighted>
-8.3256

> <Gold.Chemscore.Metal.Weighted>
-0.0000

> <Gold.Chemscore.Lipo.Weighted>
-5.4194

> <Gold.Chemscore.Internal_Hbond.Weighted>
0.0000

> <Gold.Chemscore.DEClash.Weighted>
0.0998

> <Gold.Chemscore.DEInternal.Weighted>
2.6525

> <Gold.Chemscore.Rot.Weighted>
7.5359

> <Gold.Chemscore.Internal.Correction.Weighted>
   9.000000E+99

> <Gold.Protein.RotatedTorsions>
[ 6907 6896 6895 6894 ] final   20.94 input  -60.11 | X-H torsion
[ 7974 7965 7964 7962 ] final  -91.31 input  175.53 | X-H torsion
[ 8008 7997 7996 7995 ] final  136.74 input   59.86 | X-H torsion
[ 10167 10162 10161 10158 ] final   55.76 input  -65.29 | X-H torsion
[ 10718 10713 10712 10709 ] final  105.74 input   66.30 | X-H torsion
[ 10763 10752 10751 10750 ] final   41.77 input  -60.55 | X-H torsion
[ 11005 11000 10999 10996 ] final  -64.48 input  -57.11 | X-H torsion

> <Gold.Protein.ActiveResidues>
 VAL166  LYS551  ARG553  GLY616  TRP617  ASP618  TYR619  PRO620  LYS621  CYS622 
 ASP623  PHE694  ASN695  SER759  ASP760  ASP761  ALA762  ILE779  LEU786  VAL792 
 PHE793  MET794  SER795  GLU796  ALA797  LYS798  CYS799  TRP800  GLU811  SER814 

> <Gold.Protein.RotatedAtoms>
  151.9042  135.0366  160.0508 H   0  0  0  0  0  0  0  0  0  0  0  0  # atno 6907 bound_to 6896
  152.2333  133.5071  159.5236 H   0  0  0  0  0  0  0  0  0  0  0  0  # atno 6908 bound_to 6896
  150.7032  134.1103  159.4040 H   0  0  0  0  0  0  0  0  0  0  0  0  # atno 6909 bound_to 6896
  145.4148  140.9547  143.2214 H   0  0  0  0  0  0  0  0  0  0  0  0  # atno 7974 bound_to 7965
  156.3003  140.2437  156.3795 H   0  0  0  0  0  0  0  0  0  0  0  0  # atno 8008 bound_to 7997
  154.8714  140.0416  157.1746 H   0  0  0  0  0  0  0  0  0  0  0  0  # atno 8009 bound_to 7997
  154.8792  140.2946  155.5439 H   0  0  0  0  0  0  0  0  0  0  0  0  # atno 8010 bound_to 7997
  140.2160  144.3839  150.6469 H   0  0  0  0  0  0  0  0  0  0  0  0  # atno 10167 bound_to 10162
  157.6694  131.0835  150.5903 H   0  0  0  0  0  0  0  0  0  0  0  0  # atno 10718 bound_to 10713
  152.9900  135.6152  154.2841 H   0  0  0  0  0  0  0  0  0  0  0  0  # atno 10763 bound_to 10752
  154.2569  135.2783  155.2796 H   0  0  0  0  0  0  0  0  0  0  0  0  # atno 10764 bound_to 10752
  154.5240  135.5807  153.6761 H   0  0  0  0  0  0  0  0  0  0  0  0  # atno 10765 bound_to 10752
  141.1426  133.6666  156.5840 H   0  0  0  0  0  0  0  0  0  0  0  0  # atno 11005 bound_to 11000
  144.8285  139.5669  143.6954 LP  0  0  0  0  0  0  0  0  0  0  0  0  # atno 17320 bound_to 7965
  146.2687  139.6581  142.9311 LP  0  0  0  0  0  0  0  0  0  0  0  0  # atno 17321 bound_to 7965
  140.6289  143.2185  151.6537 LP  0  0  0  0  0  0  0  0  0  0  0  0  # atno 17342 bound_to 10162
  139.5162  144.3355  152.0788 LP  0  0  0  0  0  0  0  0  0  0  0  0  # atno 17343 bound_to 10162
  156.6203  130.4404  149.5825 LP  0  0  0  0  0  0  0  0  0  0  0  0  # atno 17370 bound_to 10713
  156.2361  130.6823  151.1510 LP  0  0  0  0  0  0  0  0  0  0  0  0  # atno 17371 bound_to 10713
  140.3815  134.7519  157.4664 LP  0  0  0  0  0  0  0  0  0  0  0  0  # atno 17394 bound_to 11000
  140.0634  134.5964  155.8723 LP  0  0  0  0  0  0  0  0  0  0  0  0  # atno 17395 bound_to 11000

$$$$
