AV-unprocessed.smi:1472|AV-procd|sdf|5964|dock2
  -GOLD-   22720 6 53D 1   1.00000     0.00000
 Structure written by MMmdl.
 41 42  0  0  0  0  0  0  0  0  1 V2000
  151.0279  142.4559  156.6451 C   0  0  0  0  0  0  0  0  0  0  0  0
  149.6322  141.2590  156.6097 S   0  0  0  0  0  0  0  0  0  0  0  0
  150.0898  140.0022  157.2218 O   0  0  0  0  0  0  0  0  0  0  0  0
  148.4362  141.9335  157.1371 O   0  0  0  0  0  0  0  0  0  0  0  0
  149.3717  140.9619  154.9151 N   0  0  0  0  0  0  0  0  0  0  0  0
  149.7880  139.6771  154.3196 C   0  0  0  0  0  0  0  0  0  0  0  0
  148.5944  138.7260  154.1229 C   0  0  0  0  0  0  0  0  0  0  0  0
  147.4644  139.3904  153.3148 C   0  0  0  0  0  0  0  0  0  0  0  0
  146.2451  138.4635  153.1203 C   0  0  0  0  0  0  0  0  0  0  0  0
  146.5970  137.1935  152.4927 N   0  0  0  0  0  0  0  0  0  0  0  0
  145.7186  136.2811  152.0528 C   0  0  0  0  0  0  0  0  0  0  0  0
  144.4989  136.4154  152.1478 O   0  0  0  0  0  0  0  0  0  0  0  0
  146.3481  135.2183  151.5216 N   0  0  0  0  0  0  0  0  0  0  0  0
  145.7877  134.0595  150.9183 C   0  0  0  0  0  0  0  0  0  0  0  0
  144.3844  134.0029  150.7879 C   0  0  0  0  0  0  0  0  0  0  0  0
  143.8011  132.8580  150.2092 C   0  0  0  0  0  0  0  0  0  0  0  0
  144.5173  131.7988  149.7774 N   0  0  0  0  0  0  0  0  0  0  0  0
  145.8590  131.8482  149.9157 C   0  0  0  0  0  0  0  0  0  0  0  0
  146.5420  132.9445  150.4795 C   0  0  0  0  0  0  0  0  0  0  0  0
  147.0599  140.6978  154.0145 C   0  0  0  0  0  0  0  0  0  0  0  0
  148.2641  141.6358  154.2095 C   0  0  0  0  0  0  0  0  0  0  0  0
  151.2627  142.6969  157.6814 H   0  0  0  0  0  0  0  0  0  0  0  0
  150.7461  143.3696  156.1249 H   0  0  0  0  0  0  0  0  0  0  0  0
  151.9065  142.0153  156.1776 H   0  0  0  0  0  0  0  0  0  0  0  0
  150.2542  139.8806  153.3549 H   0  0  0  0  0  0  0  0  0  0  0  0
  150.5521  139.2032  154.9353 H   0  0  0  0  0  0  0  0  0  0  0  0
  148.9441  137.8272  153.6144 H   0  0  0  0  0  0  0  0  0  0  0  0
  148.2136  138.3981  155.0892 H   0  0  0  0  0  0  0  0  0  0  0  0
  147.8574  139.6490  152.3301 H   0  0  0  0  0  0  0  0  0  0  0  0
  145.7863  138.2453  154.0851 H   0  0  0  0  0  0  0  0  0  0  0  0
  145.4798  138.9638  152.5243 H   0  0  0  0  0  0  0  0  0  0  0  0
  147.5814  136.9999  152.3803 H   0  0  0  0  0  0  0  0  0  0  0  0
  147.3549  135.2200  151.5937 H   0  0  0  0  0  0  0  0  0  0  0  0
  143.7620  134.8214  151.1188 H   0  0  0  0  0  0  0  0  0  0  0  0
  142.7297  132.7911  150.0923 H   0  0  0  0  0  0  0  0  0  0  0  0
  146.4070  130.9835  149.5720 H   0  0  0  0  0  0  0  0  0  0  0  0
  147.6157  132.9005  150.5729 H   0  0  0  0  0  0  0  0  0  0  0  0
  146.2973  141.2110  153.4276 H   0  0  0  0  0  0  0  0  0  0  0  0
  146.6002  140.4756  154.9768 H   0  0  0  0  0  0  0  0  0  0  0  0
  147.9620  142.5344  154.7466 H   0  0  0  0  0  0  0  0  0  0  0  0
  148.6283  141.9685  153.2368 H   0  0  0  0  0  0  0  0  0  0  0  0
  1  2  1  0  0  0  0
  1 22  1  0  0  0  0
  1 23  1  0  0  0  0
  1 24  1  0  0  0  0
  2  3  2  0  0  0  0
  2  4  2  0  0  0  0
  2  5  1  0  0  0  0
  5 21  1  0  0  0  0
  5  6  1  0  0  0  0
  6  7  1  0  0  0  0
  6 25  1  0  0  0  0
  6 26  1  0  0  0  0
  7  8  1  0  0  0  0
  7 27  1  0  0  0  0
  7 28  1  0  0  0  0
  8  9  1  0  0  0  0
  8 20  1  0  0  0  0
  8 29  1  0  0  0  0
  9 10  1  0  0  0  0
  9 30  1  0  0  0  0
  9 31  1  0  0  0  0
 10 11  1  0  0  0  0
 10 32  1  0  0  0  0
 11 12  2  0  0  0  0
 11 13  1  0  0  0  0
 13 14  1  0  0  0  0
 13 33  1  0  0  0  0
 14 19  1  0  0  0  0
 14 15  2  0  0  0  0
 15 16  1  0  0  0  0
 15 34  1  0  0  0  0
 16 17  2  0  0  0  0
 16 35  1  0  0  0  0
 17 18  1  0  0  0  0
 18 19  2  0  0  0  0
 18 36  1  0  0  0  0
 19 37  1  0  0  0  0
 20 21  1  0  0  0  0
 20 38  1  0  0  0  0
 20 39  1  0  0  0  0
 21 40  1  0  0  0  0
 21 41  1  0  0  0  0
M  END
> <s_m_source_file>
AV-unprocessed.smi

> <i_m_source_file_index>
1472

> <i_lp_mmshare_version>
43012

> <i_f3d_flags>
0

> <s_epik_input>
W0NIM11TKD1PKSg9TylOMVtDSDJdW0NIMl1bQ0hdKFtDSDJdW0NIMl0xKVtDSDJdW05IXUMoPU8pW05IXWMyW2NIXVtjSF1uW2NIXVtjSF0y

> <s_epik_cmdline>
J2VwaWtfcHl0aG9uJywgJy1waCcsICc3LjAnLCAnLXRuJywgJzgnLCAnLW1hJywgJzIwMCcsICctbWV0YWxfYmluZGluZycsICctaW1hZScsICc8aW5maWxlLm1hZT4nLCAnLW9tYWUnLCAnPG91dGZpbGUubWFlPic=

> <r_epik_Ionization_Penalty>
0.115464

> <r_epik_Ionization_Penalty_Charging>
0

> <r_epik_Ionization_Penalty_Neutral>
0.115464

> <r_epik_State_Penalty>
0.105063

> <r_epik_Charging_Adjusted_Penalty>
0.105063

> <i_epik_Tot_Q>
0

> <i_epik_Tot_abs_Q>
0

> <r_epik_Metal_State_Penalty>
0.0877879

> <b_epik_Metal_Only>
0

> <s_lp_Force_Field>
OPLS_2005

> <r_lp_Energy>
7.04119

> <b_lp_Chiralities_Consistent>
1

> <s_lp_Variant>
AV-unprocessed.smi:1472-1

> <Gold.Version>
5.8.1

> <Gold.Id.Protein>
6NUR|6NUR_protein|mol2

> <Gold.PLP.Fitness>
48.6651

> <Gold.PLP.PLP>
-37.8011

> <Gold.PLP.part.hbond>
-2.9227

> <Gold.PLP.part.metal>
0.0000

> <Gold.PLP.part.buried>
-2.9592

> <Gold.PLP.part.nonpolar>
-32.9863

> <Gold.PLP.part.repulsive>
0.5978

> <Gold.PLP.ligand.clash>
0.0000

> <Gold.PLP.ligand.torsion>
1.0734

> <Gold.PLP.Chemscore.Hbond>
2.0875

> <Gold.PLP.Chemscore.CHOScore>
1.5651

> <Gold.PLP.Chemscore.Metal>
0.0000

> <Gold.Chemscore.Hbonds>
donor molecule, donor type, donor heavy atom, donor atom, acceptor molecule, acceptor atom, score
      L1  H    10    32       P1  7948  1.00
      L1  H    13    33       P1  7948  0.98
      P1  H 10785 10796       L1    17  0.11
      L1  C    16    35       P1 10186  1.00
      L1  C    18    36       P1 10747  0.53

> <Gold.PLP.Chemscore.Internal.Correction>
2.0529

> <Gold.Rescore>
     Score         DG    S(hbond)    S(metal)    S(lipo)     H(rot)  DE(clash)    DE(int)     intcor
     17.07     -19.76       2.11        0.00      89.95       1.29       0.20       2.49       ----

> <Gold.Chemscore.Fitness>
17.0727

> <Gold.Chemscore.DG>
-19.7597

> <Gold.Chemscore.ZeroCoef>
-5.4800

> <Gold.Chemscore.Hbond>
2.1108

> <Gold.Chemscore.Metal>
0.0000

> <Gold.Chemscore.Lipo>
89.9514

> <Gold.Chemscore.Internal_Hbond>
0.0000

> <Gold.Chemscore.DEClash>
0.1958

> <Gold.Chemscore.DEInternal>
2.4913

> <Gold.Chemscore.Rot>
1.2869

> <Gold.Chemscore.Internal.Correction>
   9.000000E+99

> <Gold.Chemscore.Hbonds>
donor molecule, donor type, donor heavy atom, donor atom, acceptor molecule, acceptor atom, score
      L1  H    10    32       P1  7948  0.99
      L1  H    13    33       P1  7948  0.82
      P1  H 10785 10796       L1    17  0.11

> <Gold.Chemscore.Hbond.Weighted>
-7.0500

> <Gold.Chemscore.Metal.Weighted>
-0.0000

> <Gold.Chemscore.Lipo.Weighted>
-10.5243

> <Gold.Chemscore.Internal_Hbond.Weighted>
0.0000

> <Gold.Chemscore.DEClash.Weighted>
0.1958

> <Gold.Chemscore.DEInternal.Weighted>
2.4913

> <Gold.Chemscore.Rot.Weighted>
3.2946

> <Gold.Chemscore.Internal.Correction.Weighted>
   9.000000E+99

> <Gold.Protein.RotatedTorsions>
[ 6907 6896 6895 6894 ] final -119.57 input  -60.11 | X-H torsion
[ 7974 7965 7964 7962 ] final  -47.15 input  175.53 | X-H torsion
[ 8008 7997 7996 7995 ] final -168.90 input   59.86 | X-H torsion
[ 10167 10162 10161 10158 ] final    9.49 input  -65.29 | X-H torsion
[ 10718 10713 10712 10709 ] final  143.67 input   66.30 | X-H torsion
[ 10763 10752 10751 10750 ] final   67.24 input  -60.55 | X-H torsion
[ 11005 11000 10999 10996 ] final  -26.71 input  -57.11 | X-H torsion

> <Gold.Protein.ActiveResidues>
 VAL166  LYS551  ARG553  GLY616  TRP617  ASP618  TYR619  PRO620  LYS621  CYS622 
 ASP623  PHE694  ASN695  SER759  ASP760  ASP761  ALA762  ILE779  LEU786  VAL792 
 PHE793  MET794  SER795  GLU796  ALA797  LYS798  CYS799  TRP800  GLU811  SER814 

> <Gold.Protein.RotatedAtoms>
  150.8317  133.8080  159.3095 H   0  0  0  0  0  0  0  0  0  0  0  0  # atno 6907 bound_to 6896
  151.5808  135.1057  160.0026 H   0  0  0  0  0  0  0  0  0  0  0  0  # atno 6908 bound_to 6896
  152.4396  133.7381  159.6682 H   0  0  0  0  0  0  0  0  0  0  0  0  # atno 6909 bound_to 6896
  145.9645  140.7445  142.9441 H   0  0  0  0  0  0  0  0  0  0  0  0  # atno 7974 bound_to 7965
  155.8977  140.1035  157.1373 H   0  0  0  0  0  0  0  0  0  0  0  0  # atno 8008 bound_to 7997
  154.4022  140.1298  156.4460 H   0  0  0  0  0  0  0  0  0  0  0  0  # atno 8009 bound_to 7997
  155.7459  140.3466  155.5129 H   0  0  0  0  0  0  0  0  0  0  0  0  # atno 8010 bound_to 7997
  140.6252  143.8117  150.7224 H   0  0  0  0  0  0  0  0  0  0  0  0  # atno 10167 bound_to 10162
  157.3662  131.0972  151.0870 H   0  0  0  0  0  0  0  0  0  0  0  0  # atno 10718 bound_to 10713
  153.0177  135.5291  154.6949 H   0  0  0  0  0  0  0  0  0  0  0  0  # atno 10763 bound_to 10752
  154.6074  135.2874  155.0472 H   0  0  0  0  0  0  0  0  0  0  0  0  # atno 10764 bound_to 10752
  154.1506  135.6563  153.5015 H   0  0  0  0  0  0  0  0  0  0  0  0  # atno 10765 bound_to 10752
  140.9053  133.7496  156.0598 H   0  0  0  0  0  0  0  0  0  0  0  0  # atno 11005 bound_to 11000
  144.6822  140.2646  143.7314 LP  0  0  0  0  0  0  0  0  0  0  0  0  # atno 17320 bound_to 7965
  145.7993  139.1958  143.2057 LP  0  0  0  0  0  0  0  0  0  0  0  0  # atno 17321 bound_to 7965
  140.1716  143.4190  152.1997 LP  0  0  0  0  0  0  0  0  0  0  0  0  # atno 17342 bound_to 10162
  139.5473  144.7309  151.4542 LP  0  0  0  0  0  0  0  0  0  0  0  0  # atno 17343 bound_to 10162
  157.1991  130.6386  149.5732 LP  0  0  0  0  0  0  0  0  0  0  0  0  # atno 17370 bound_to 10713
  155.9746  130.4697  150.6403 LP  0  0  0  0  0  0  0  0  0  0  0  0  # atno 17371 bound_to 10713
  140.8178  134.3324  157.5391 LP  0  0  0  0  0  0  0  0  0  0  0  0  # atno 17394 bound_to 11000
  139.8748  134.9292  156.3469 LP  0  0  0  0  0  0  0  0  0  0  0  0  # atno 17395 bound_to 11000

$$$$
