AV-unprocessed.smi:1648|AV-procd|sdf|6634|dock3
  -GOLD-   22720 7333D 1   1.00000     0.00000
 Structure written by MMmdl.
 41 41  0  0  0  0  0  0  0  0  1 V2000
  149.9182  136.7101  157.4981 C   0  0  0  0  0  0  0  0  0  0  0  0
  149.6176  137.1302  156.0580 C   0  0  0  0  0  0  0  0  0  0  0  0
  150.5182  137.1062  155.2226 O   0  0  0  0  0  0  0  0  0  0  0  0
  148.3702  137.5078  155.7285 N   0  0  0  0  0  0  0  0  0  0  0  0
  147.8905  137.9405  154.4134 C   0  0  1  0  0  0  0  0  0  0  0  0
  146.6168  137.1377  154.0918 C   0  0  0  0  0  0  0  0  0  0  0  0
  145.6414  137.1896  154.8426 O   0  0  0  0  0  0  0  0  0  0  0  0
  146.6452  136.4019  152.9690 N   0  0  0  0  0  0  0  0  0  0  0  0
  145.5640  135.5478  152.4802 C   0  0  1  0  0  0  0  0  0  0  0  0
  144.2827  136.3850  152.3703 C   0  0  0  0  0  0  0  0  0  0  0  0
  145.9357  134.9077  151.1250 C   0  0  0  0  0  0  0  0  0  0  0  0
  145.3262  133.6039  150.9310 N   0  0  0  0  0  0  0  0  0  0  0  0
  143.9719  133.3211  150.8081 C   0  0  0  0  0  0  0  0  0  0  0  0
  143.8674  131.9575  150.6516 C   0  0  0  0  0  0  0  0  0  0  0  0
  145.1378  131.3861  150.6569 N   0  0  0  0  0  0  0  0  0  0  0  0
  145.9494  132.4227  150.8186 C   0  0  0  0  0  0  0  0  0  0  0  0
  147.5584  139.4607  154.4738 C   0  0  0  0  0  0  0  0  0  0  0  0
  147.0724  140.0236  153.1216 C   0  0  0  0  0  0  0  0  0  0  0  0
  148.7619  140.2908  154.9619 C   0  0  0  0  0  0  0  0  0  0  0  0
  149.5856  137.4660  158.2086 H   0  0  0  0  0  0  0  0  0  0  0  0
  150.9900  136.5681  157.6399 H   0  0  0  0  0  0  0  0  0  0  0  0
  149.4193  135.7693  157.7316 H   0  0  0  0  0  0  0  0  0  0  0  0
  147.6715  137.4550  156.4556 H   0  0  0  0  0  0  0  0  0  0  0  0
  148.6501  137.7725  153.6479 H   0  0  0  0  0  0  0  0  0  0  0  0
  147.4885  136.4250  152.4143 H   0  0  0  0  0  0  0  0  0  0  0  0
  145.3649  134.7532  153.2016 H   0  0  0  0  0  0  0  0  0  0  0  0
  143.4437  135.7754  152.0335 H   0  0  0  0  0  0  0  0  0  0  0  0
  144.4026  137.2061  151.6627 H   0  0  0  0  0  0  0  0  0  0  0  0
  144.0101  136.8133  153.3355 H   0  0  0  0  0  0  0  0  0  0  0  0
  145.6092  135.5495  150.3056 H   0  0  0  0  0  0  0  0  0  0  0  0
  147.0185  134.8100  151.0317 H   0  0  0  0  0  0  0  0  0  0  0  0
  143.2155  134.0905  150.8532 H   0  0  0  0  0  0  0  0  0  0  0  0
  142.9834  131.3488  150.5329 H   0  0  0  0  0  0  0  0  0  0  0  0
  147.0233  132.3177  150.8621 H   0  0  0  0  0  0  0  0  0  0  0  0
  146.7543  139.6144  155.1958 H   0  0  0  0  0  0  0  0  0  0  0  0
  147.8120  139.8594  152.3375 H   0  0  0  0  0  0  0  0  0  0  0  0
  146.8932  141.0972  153.1860 H   0  0  0  0  0  0  0  0  0  0  0  0
  146.1361  139.5685  152.7979 H   0  0  0  0  0  0  0  0  0  0  0  0
  149.6216  140.1643  154.3032 H   0  0  0  0  0  0  0  0  0  0  0  0
  149.0701  140.0099  155.9690 H   0  0  0  0  0  0  0  0  0  0  0  0
  148.5202  141.3536  154.9902 H   0  0  0  0  0  0  0  0  0  0  0  0
  1  2  1  0  0  0  0
  1 20  1  0  0  0  0
  1 21  1  0  0  0  0
  1 22  1  0  0  0  0
  2  3  2  0  0  0  0
  2  4  1  0  0  0  0
  4  5  1  0  0  0  0
  4 23  1  0  0  0  0
  5  6  1  0  0  0  0
  5 17  1  0  0  0  0
  5 24  1  0  0  0  0
  6  7  2  0  0  0  0
  6  8  1  0  0  0  0
  8  9  1  0  0  0  0
  8 25  1  0  0  0  0
  9 10  1  0  0  0  0
  9 11  1  0  0  0  0
  9 26  1  0  0  0  0
 10 27  1  0  0  0  0
 10 28  1  0  0  0  0
 10 29  1  0  0  0  0
 11 12  1  0  0  0  0
 11 30  1  0  0  0  0
 11 31  1  0  0  0  0
 12 16  1  0  0  0  0
 12 13  1  0  0  0  0
 13 14  2  0  0  0  0
 13 32  1  0  0  0  0
 14 15  1  0  0  0  0
 14 33  1  0  0  0  0
 15 16  2  0  0  0  0
 16 34  1  0  0  0  0
 17 18  1  0  0  0  0
 17 19  1  0  0  0  0
 17 35  1  0  0  0  0
 18 36  1  0  0  0  0
 18 37  1  0  0  0  0
 18 38  1  0  0  0  0
 19 39  1  0  0  0  0
 19 40  1  0  0  0  0
 19 41  1  0  0  0  0
M  END
> <s_m_source_file>
AV-unprocessed.smi

> <i_m_source_file_index>
1648

> <i_lp_mmshare_version>
43012

> <i_f3d_flags>
0

> <s_epik_input>
W0NIM11DKD1PKVtOSF1bQ0BASF0oW0NIXShbQ0gzXSlbQ0gzXSlDKD1PKVtOSF1bQ0BIXShbQ0gzXSlbQ0gyXW4xW2NIXVtjSF1uW2NIXTE=

> <s_epik_cmdline>
J2VwaWtfcHl0aG9uJywgJy1waCcsICc3LjAnLCAnLXRuJywgJzgnLCAnLW1hJywgJzIwMCcsICctbWV0YWxfYmluZGluZycsICctaW1hZScsICc8aW5maWxlLm1hZT4nLCAnLW9tYWUnLCAnPG91dGZpbGUubWFlPic=

> <r_lp_tautomer_probability>
1

> <r_epik_Ionization_Penalty>
0.628885

> <r_epik_Ionization_Penalty_Charging>
0.628884

> <r_epik_Ionization_Penalty_Neutral>
4.35155e-07

> <r_epik_State_Penalty>
0.64556

> <r_epik_Charging_Adjusted_Penalty>
1.27444

> <i_epik_Tot_Q>
0

> <i_epik_Tot_abs_Q>
0

> <r_epik_Metal_State_Penalty>
0.30874

> <b_epik_Metal_Only>
0

> <s_lp_Force_Field>
OPLS_2005

> <r_lp_Energy>
9.11872

> <b_lp_Chiralities_Consistent>
1

> <s_lp_Variant>
AV-unprocessed.smi:1648-8

> <Gold.Version>
5.8.1

> <Gold.Id.Protein>
6NUR|6NUR_protein|mol2

> <Gold.PLP.Fitness>
34.6349

> <Gold.PLP.PLP>
-23.5883

> <Gold.PLP.part.hbond>
-1.0000

> <Gold.PLP.part.metal>
0.0000

> <Gold.PLP.part.buried>
-4.5907

> <Gold.PLP.part.nonpolar>
-18.9866

> <Gold.PLP.part.repulsive>
0.2934

> <Gold.PLP.ligand.clash>
0.0000

> <Gold.PLP.ligand.torsion>
0.5294

> <Gold.PLP.Chemscore.Hbond>
1.0000

> <Gold.PLP.Chemscore.CHOScore>
2.9900

> <Gold.PLP.Chemscore.Metal>
0.0000

> <Gold.Chemscore.Hbonds>
donor molecule, donor type, donor heavy atom, donor atom, acceptor molecule, acceptor atom, score
      L1  H     8    25       P1  7948  1.00
      L1  C    13    32       P1 10186  0.88
      L1  C    14    33       P1 10952  0.90
      L1  C    16    34       P1 10747  1.00

> <Gold.PLP.Chemscore.Internal.Correction>
0.1356

> <Gold.Rescore>
     Score         DG    S(hbond)    S(metal)    S(lipo)     H(rot)  DE(clash)    DE(int)     intcor
      7.98      -8.61       0.99        0.00      53.71       2.52       0.13       0.51       ----

> <Gold.Chemscore.Fitness>
7.9777

> <Gold.Chemscore.DG>
-8.6105

> <Gold.Chemscore.ZeroCoef>
-5.4800

> <Gold.Chemscore.Hbond>
0.9886

> <Gold.Chemscore.Metal>
0.0000

> <Gold.Chemscore.Lipo>
53.7078

> <Gold.Chemscore.Internal_Hbond>
0.0000

> <Gold.Chemscore.DEClash>
0.1264

> <Gold.Chemscore.DEInternal>
0.5064

> <Gold.Chemscore.Rot>
2.5216

> <Gold.Chemscore.Internal.Correction>
   9.000000E+99

> <Gold.Chemscore.Hbonds>
donor molecule, donor type, donor heavy atom, donor atom, acceptor molecule, acceptor atom, score
      L1  H     8    25       P1  7948  0.97

> <Gold.Chemscore.Hbond.Weighted>
-3.3020

> <Gold.Chemscore.Metal.Weighted>
-0.0000

> <Gold.Chemscore.Lipo.Weighted>
-6.2838

> <Gold.Chemscore.Internal_Hbond.Weighted>
0.0000

> <Gold.Chemscore.DEClash.Weighted>
0.1264

> <Gold.Chemscore.DEInternal.Weighted>
0.5064

> <Gold.Chemscore.Rot.Weighted>
6.4553

> <Gold.Chemscore.Internal.Correction.Weighted>
   9.000000E+99

> <Gold.Protein.RotatedTorsions>
[ 6907 6896 6895 6894 ] final   67.87 input  -60.11 | X-H torsion
[ 7974 7965 7964 7962 ] final    0.57 input  175.53 | X-H torsion
[ 8008 7997 7996 7995 ] final    0.43 input   59.86 | X-H torsion
[ 10167 10162 10161 10158 ] final  156.57 input  -65.29 | X-H torsion
[ 10718 10713 10712 10709 ] final   57.67 input   66.30 | X-H torsion
[ 10763 10752 10751 10750 ] final   12.79 input  -60.55 | X-H torsion
[ 11005 11000 10999 10996 ] final  145.10 input  -57.11 | X-H torsion

> <Gold.Protein.ActiveResidues>
 VAL166  LYS551  ARG553  GLY616  TRP617  ASP618  TYR619  PRO620  LYS621  CYS622 
 ASP623  PHE694  ASN695  SER759  ASP760  ASP761  ALA762  ILE779  LEU786  VAL792 
 PHE793  MET794  SER795  GLU796  ALA797  LYS798  CYS799  TRP800  GLU811  SER814 

> <Gold.Protein.RotatedAtoms>
  152.4582  134.5245  159.9792 H   0  0  0  0  0  0  0  0  0  0  0  0  # atno 6907 bound_to 6896
  151.5300  133.3445  159.2924 H   0  0  0  0  0  0  0  0  0  0  0  0  # atno 6908 bound_to 6896
  150.8534  134.7895  159.7089 H   0  0  0  0  0  0  0  0  0  0  0  0  # atno 6909 bound_to 6896
  146.2435  140.1118  142.8343 H   0  0  0  0  0  0  0  0  0  0  0  0  # atno 7974 bound_to 7965
  154.6680  140.2605  155.7037 H   0  0  0  0  0  0  0  0  0  0  0  0  # atno 8008 bound_to 7997
  156.2647  140.2835  156.1100 H   0  0  0  0  0  0  0  0  0  0  0  0  # atno 8009 bound_to 7997
  155.1210  140.0377  157.2740 H   0  0  0  0  0  0  0  0  0  0  0  0  # atno 8010 bound_to 7997
  139.4821  144.4997  151.8187 H   0  0  0  0  0  0  0  0  0  0  0  0  # atno 10167 bound_to 10162
  157.5533  130.8782  149.8997 H   0  0  0  0  0  0  0  0  0  0  0  0  # atno 10718 bound_to 10713
  153.1786  135.6824  153.8508 H   0  0  0  0  0  0  0  0  0  0  0  0  # atno 10763 bound_to 10752
  153.7848  135.3177  155.3372 H   0  0  0  0  0  0  0  0  0  0  0  0  # atno 10764 bound_to 10752
  154.8045  135.4757  154.0452 H   0  0  0  0  0  0  0  0  0  0  0  0  # atno 10765 bound_to 10752
  140.0685  134.9165  157.1305 H   0  0  0  0  0  0  0  0  0  0  0  0  # atno 11005 bound_to 11000
  145.0480  140.8996  143.5012 LP  0  0  0  0  0  0  0  0  0  0  0  0  # atno 17320 bound_to 7965
  145.1211  139.2693  143.5588 LP  0  0  0  0  0  0  0  0  0  0  0  0  # atno 17321 bound_to 7965
  140.4489  144.1883  150.5896 LP  0  0  0  0  0  0  0  0  0  0  0  0  # atno 17342 bound_to 10162
  140.4606  143.2450  151.9225 LP  0  0  0  0  0  0  0  0  0  0  0  0  # atno 17343 bound_to 10162
  156.0596  130.3702  150.1012 LP  0  0  0  0  0  0  0  0  0  0  0  0  # atno 17370 bound_to 10713
  156.9183  130.9674  151.3552 LP  0  0  0  0  0  0  0  0  0  0  0  0  # atno 17371 bound_to 10713
  140.3663  134.2439  155.7182 LP  0  0  0  0  0  0  0  0  0  0  0  0  # atno 17394 bound_to 11000
  141.2002  133.7992  157.0499 LP  0  0  0  0  0  0  0  0  0  0  0  0  # atno 17395 bound_to 11000

$$$$
