AV-unprocessed.smi:298|AV-procd|sdf|2263|dock4
  -GOLD-   2262022153D 1   1.00000     0.00000
 Structure written by MMmdl.
 39 41  0  0  0  0  0  0  0  0  2 V2000
  152.1449  142.4380  159.6205 C   0  0  0  0  0  0  0  0  0  0  0  0
  151.7449  141.7204  158.3426 C   0  0  0  0  0  0  0  0  0  0  0  0
  150.7845  142.3267  157.5015 C   0  0  0  0  0  0  0  0  0  0  0  0
  150.4376  141.6452  156.3410 C   0  0  0  0  0  0  0  0  0  0  0  0
  149.5384  141.9695  155.3228 N   0  3  0  0  0  0  0  0  0  0  0  0
  149.5390  140.9821  154.3847 C   0  0  0  0  0  0  0  0  0  0  0  0
  150.4270  140.0336  154.7889 N   0  0  0  0  0  0  0  0  0  0  0  0
  150.8178  138.7702  154.1502 C   0  0  0  0  0  0  0  0  0  0  0  0
  150.6710  137.5570  155.0885 C   0  0  2  0  0  0  0  0  0  0  0  0
  150.9929  136.3709  154.3854 O   0  0  0  0  0  0  0  0  0  0  0  0
  149.2500  137.4501  155.6727 C   0  0  0  0  0  0  0  0  0  0  0  0
  149.2184  136.7239  156.9287 N   0  0  0  0  0  0  0  0  0  0  0  0
  149.5902  135.4732  157.2208 C   0  0  0  0  0  0  0  0  0  0  0  0
  149.4188  135.1436  158.4949 N   0  0  0  0  0  0  0  0  0  0  0  0
  148.9031  136.3222  158.9506 C   0  0  0  0  0  0  0  0  0  0  0  0
  148.5271  136.4979  160.3432 C   0  0  0  0  0  0  0  0  0  0  0  0
  148.2279  136.6379  161.4523 N   0  0  0  0  0  0  0  0  0  0  0  0
  148.7578  137.3042  158.0631 N   0  0  0  0  0  0  0  0  0  0  0  0
  151.0111  140.4041  156.0043 C   0  0  0  0  0  0  0  0  0  0  0  0
  151.9602  139.7934  156.8199 C   0  0  0  0  0  0  0  0  0  0  0  0
  152.3260  140.4703  158.0054 C   0  0  0  0  0  0  0  0  0  0  0  0
  153.3582  139.8282  158.9166 C   0  0  0  0  0  0  0  0  0  0  0  0
  151.5800  143.3611  159.7539 H   0  0  0  0  0  0  0  0  0  0  0  0
  153.2041  142.6957  159.5981 H   0  0  0  0  0  0  0  0  0  0  0  0
  151.9591  141.8068  160.4898 H   0  0  0  0  0  0  0  0  0  0  0  0
  150.3394  143.2786  157.7507 H   0  0  0  0  0  0  0  0  0  0  0  0
  148.9468  140.9585  153.4813 H   0  0  0  0  0  0  0  0  0  0  0  0
  150.2189  138.6411  153.2476 H   0  0  0  0  0  0  0  0  0  0  0  0
  151.8531  138.8751  153.8226 H   0  0  0  0  0  0  0  0  0  0  0  0
  151.3828  137.6542  155.9092 H   0  0  0  0  0  0  0  0  0  0  0  0
  150.9449  136.5473  153.4583 H   0  0  0  0  0  0  0  0  0  0  0  0
  148.8364  138.4450  155.8431 H   0  0  0  0  0  0  0  0  0  0  0  0
  148.5832  136.9517  154.9676 H   0  0  0  0  0  0  0  0  0  0  0  0
  149.9965  134.7917  156.4878 H   0  0  0  0  0  0  0  0  0  0  0  0
  152.4025  138.8425  156.5617 H   0  0  0  0  0  0  0  0  0  0  0  0
  153.7373  138.8964  158.4959 H   0  0  0  0  0  0  0  0  0  0  0  0
  152.9205  139.6018  159.8891 H   0  0  0  0  0  0  0  0  0  0  0  0
  154.2079  140.4950  159.0651 H   0  0  0  0  0  0  0  0  0  0  0  0
  148.9668  142.8029  155.2686 H   0  0  0  0  0  0  0  0  0  0  0  0
  1  2  1  0  0  0  0
  1 23  1  0  0  0  0
  1 24  1  0  0  0  0
  1 25  1  0  0  0  0
  2 21  1  0  0  0  0
  2  3  2  0  0  0  0
  3  4  1  0  0  0  0
  3 26  1  0  0  0  0
  4 19  2  0  0  0  0
  4  5  1  0  0  0  0
  5  6  2  0  0  0  0
  5 39  1  0  0  0  0
  6  7  1  0  0  0  0
  6 27  1  0  0  0  0
  7  8  1  0  0  0  0
  7 19  1  0  0  0  0
  8  9  1  0  0  0  0
  8 28  1  0  0  0  0
  8 29  1  0  0  0  0
  9 10  1  0  0  0  0
  9 11  1  0  0  0  0
  9 30  1  0  0  0  0
 10 31  1  0  0  0  0
 11 12  1  0  0  0  0
 11 32  1  0  0  0  0
 11 33  1  0  0  0  0
 12 18  1  0  0  0  0
 12 13  1  0  0  0  0
 13 14  2  0  0  0  0
 13 34  1  0  0  0  0
 14 15  1  0  0  0  0
 15 16  1  0  0  0  0
 15 18  2  0  0  0  0
 16 17  3  0  0  0  0
 19 20  1  0  0  0  0
 20 21  2  0  0  0  0
 20 35  1  0  0  0  0
 21 22  1  0  0  0  0
 22 36  1  0  0  0  0
 22 37  1  0  0  0  0
 22 38  1  0  0  0  0
M  CHG  1   5   1
M  END
> <s_m_source_file>
AV-unprocessed.smi

> <i_m_source_file_index>
298

> <i_lp_mmshare_version>
43012

> <i_f3d_flags>
0

> <s_epik_input>
W0NIM11jKFtjSF0xKWMoW0NIM10pW2NIXWMoYzEyKW4oW2NIXW4yKVtDSDJdW0NASF0oW09IXSlbQ0gyXW4zW2NIXW5jKG4zKUMjTg==

> <s_epik_cmdline>
J2VwaWtfcHl0aG9uJywgJy1waCcsICc3LjAnLCAnLXRuJywgJzgnLCAnLW1hJywgJzIwMCcsICctbWV0YWxfYmluZGluZycsICctaW1hZScsICc8aW5maWxlLm1hZT4nLCAnLW9tYWUnLCAnPG91dGZpbGUubWFlPic=

> <r_epik_Ionization_Penalty>
1.12076

> <r_epik_Ionization_Penalty_Charging>
1.12075

> <r_epik_Ionization_Penalty_Neutral>
1.54565e-06

> <r_epik_State_Penalty>
1.17957

> <r_epik_Charging_Adjusted_Penalty>
2.30033

> <i_epik_Tot_Q>
1

> <i_epik_Tot_abs_Q>
1

> <r_epik_Metal_State_Penalty>
1.26402

> <b_epik_Metal_Only>
0

> <s_lp_Force_Field>
OPLS_2005

> <r_lp_Energy>
16.3626

> <b_lp_Chiralities_Consistent>
1

> <s_lp_Variant>
AV-unprocessed.smi:298-3

> <Gold.Version>
5.8.1

> <Gold.Id.Protein>
6NUR|6NUR_protein|mol2

> <Gold.PLP.Fitness>
56.3445

> <Gold.PLP.PLP>
-36.5680

> <Gold.PLP.part.hbond>
-5.3039

> <Gold.PLP.part.metal>
0.0000

> <Gold.PLP.part.buried>
-1.0142

> <Gold.PLP.part.nonpolar>
-30.1992

> <Gold.PLP.part.repulsive>
0.1855

> <Gold.PLP.ligand.clash>
0.0000

> <Gold.PLP.ligand.torsion>
0.2970

> <Gold.PLP.Chemscore.Hbond>
5.7823

> <Gold.PLP.Chemscore.CHOScore>
1.0000

> <Gold.PLP.Chemscore.Metal>
0.0000

> <Gold.Chemscore.Hbonds>
donor molecule, donor type, donor heavy atom, donor atom, acceptor molecule, acceptor atom, score
      L1  H     5    39       P1  8028  1.82
      L1  H    10    31       P1  7949  0.85
      P1  H  6896  6909       L1    14  1.00
      P1  H  6931  6943       L1    17  1.00
      P1  H 10752 10764       L1    10  0.86
      L1  C     6    27       P1  7957  0.86

> <Gold.PLP.Chemscore.Internal.Correction>
0.0238

> <Gold.Rescore>
     Score         DG    S(hbond)    S(metal)    S(lipo)     H(rot)  DE(clash)    DE(int)     intcor
     14.50     -15.43       2.83        0.00      71.98       3.09       0.58       0.36       ----

> <Gold.Chemscore.Fitness>
14.4951

> <Gold.Chemscore.DG>
-15.4323

> <Gold.Chemscore.ZeroCoef>
-5.4800

> <Gold.Chemscore.Hbond>
2.8260

> <Gold.Chemscore.Metal>
0.0000

> <Gold.Chemscore.Lipo>
71.9807

> <Gold.Chemscore.Internal_Hbond>
0.0000

> <Gold.Chemscore.DEClash>
0.5784

> <Gold.Chemscore.DEInternal>
0.3588

> <Gold.Chemscore.Rot>
3.0892

> <Gold.Chemscore.Internal.Correction>
   9.000000E+99

> <Gold.Chemscore.Hbonds>
donor molecule, donor type, donor heavy atom, donor atom, acceptor molecule, acceptor atom, score
      L1  H     5    39       P1  8028  0.89
      L1  H    10    31       P1  7949  0.15
      P1  H  6896  6909       L1    14  0.96
      P1  H  6931  6943       L1    17  0.40
      P1  H 10752 10764       L1    10  0.24

> <Gold.Chemscore.Hbond.Weighted>
-9.4390

> <Gold.Chemscore.Metal.Weighted>
-0.0000

> <Gold.Chemscore.Lipo.Weighted>
-8.4217

> <Gold.Chemscore.Internal_Hbond.Weighted>
0.0000

> <Gold.Chemscore.DEClash.Weighted>
0.5784

> <Gold.Chemscore.DEInternal.Weighted>
0.3588

> <Gold.Chemscore.Rot.Weighted>
7.9084

> <Gold.Chemscore.Internal.Correction.Weighted>
   9.000000E+99

> <Gold.Protein.RotatedTorsions>
[ 6907 6896 6895 6894 ] final   27.20 input  -60.11 | X-H torsion
[ 7974 7965 7964 7962 ] final   33.96 input  175.53 | X-H torsion
[ 8008 7997 7996 7995 ] final   84.47 input   59.86 | X-H torsion
[ 10167 10162 10161 10158 ] final -109.00 input  -65.29 | X-H torsion
[ 10718 10713 10712 10709 ] final -100.21 input   66.30 | X-H torsion
[ 10763 10752 10751 10750 ] final  -61.16 input  -60.55 | X-H torsion
[ 11005 11000 10999 10996 ] final   55.93 input  -57.11 | X-H torsion

> <Gold.Protein.ActiveResidues>
 VAL166  LYS551  ARG553  GLY616  TRP617  ASP618  TYR619  PRO620  LYS621  CYS622 
 ASP623  PHE694  ASN695  SER759  ASP760  ASP761  ALA762  ILE779  LEU786  VAL792 
 PHE793  MET794  SER795  GLU796  ALA797  LYS798  CYS799  TRP800  GLU811  SER814 

> <Gold.Protein.RotatedAtoms>
  151.9988  134.9939  160.0564 H   0  0  0  0  0  0  0  0  0  0  0  0  # atno 6907 bound_to 6896
  152.1539  133.4534  159.4835 H   0  0  0  0  0  0  0  0  0  0  0  0  # atno 6908 bound_to 6896
  150.6879  134.2073  159.4388 H   0  0  0  0  0  0  0  0  0  0  0  0  # atno 6909 bound_to 6896
  146.1386  139.6330  142.9178 H   0  0  0  0  0  0  0  0  0  0  0  0  # atno 7974 bound_to 7965
  155.9374  140.3410  155.6299 H   0  0  0  0  0  0  0  0  0  0  0  0  # atno 8008 bound_to 7997
  155.7082  140.0768  157.2401 H   0  0  0  0  0  0  0  0  0  0  0  0  # atno 8009 bound_to 7997
  154.4096  140.1627  156.2253 H   0  0  0  0  0  0  0  0  0  0  0  0  # atno 8010 bound_to 7997
  140.1601  143.4127  152.1432 H   0  0  0  0  0  0  0  0  0  0  0  0  # atno 10167 bound_to 10162
  156.0156  130.5317  150.6784 H   0  0  0  0  0  0  0  0  0  0  0  0  # atno 10718 bound_to 10713
  154.2803  135.6273  153.5344 H   0  0  0  0  0  0  0  0  0  0  0  0  # atno 10763 bound_to 10752
  152.9867  135.5631  154.5502 H   0  0  0  0  0  0  0  0  0  0  0  0  # atno 10764 bound_to 10752
  154.5092  135.2876  155.1333 H   0  0  0  0  0  0  0  0  0  0  0  0  # atno 10765 bound_to 10752
  140.0568  134.5658  155.9198 H   0  0  0  0  0  0  0  0  0  0  0  0  # atno 11005 bound_to 11000
  145.5100  141.0435  143.2493 LP  0  0  0  0  0  0  0  0  0  0  0  0  # atno 17320 bound_to 7965
  144.7767  139.6615  143.7172 LP  0  0  0  0  0  0  0  0  0  0  0  0  # atno 17321 bound_to 7965
  139.5385  144.7233  151.4812 LP  0  0  0  0  0  0  0  0  0  0  0  0  # atno 17342 bound_to 10162
  140.6648  143.8421  150.6929 LP  0  0  0  0  0  0  0  0  0  0  0  0  # atno 17343 bound_to 10162
  157.4491  131.0870  151.0864 LP  0  0  0  0  0  0  0  0  0  0  0  0  # atno 17370 bound_to 10713
  157.1385  130.6133  149.5549 LP  0  0  0  0  0  0  0  0  0  0  0  0  # atno 17371 bound_to 10713
  141.1956  133.6588  156.5649 LP  0  0  0  0  0  0  0  0  0  0  0  0  # atno 17394 bound_to 11000
  140.3831  134.7506  157.4674 LP  0  0  0  0  0  0  0  0  0  0  0  0  # atno 17395 bound_to 11000

$$$$
