AV-unprocessed.smi:220|AV-procd|sdf|1684|dock8
  -GOLD-   2262020123D 1   1.00000     0.00000
 Structure written by MMmdl.
 51 55  0  0  0  0  0  0  0  0  1 V2000
  149.4531  142.4666  155.8907 N   0  0  0  0  0  0  0  0  0  0  0  0
  150.3646  141.5226  156.1363 C   0  0  0  0  0  0  0  0  0  0  0  0
  150.9126  140.8934  155.2324 O   0  0  0  0  0  0  0  0  0  0  0  0
  150.7064  141.2599  157.6155 C   0  0  2  0  0  0  0  0  0  0  0  0
  150.9475  142.5575  158.4235 C   0  0  2  0  0  0  0  0  0  0  0  0
  151.6359  143.7403  157.7199 C   0  0  0  0  0  0  0  0  0  0  0  0
  152.3146  144.5069  158.8556 C   0  0  0  0  0  0  0  0  0  0  0  0
  152.7292  143.4414  159.8795 C   0  0  0  0  0  0  0  0  0  0  0  0
  151.9535  142.1670  159.5035 C   0  0  2  0  0  0  0  0  0  0  0  0
  152.7988  141.0833  158.8225 C   0  0  0  0  0  0  0  0  0  0  0  0
  151.9299  140.4818  157.8180 N   0  0  0  0  0  0  0  0  0  0  0  0
  152.1081  139.1879  157.4347 C   0  0  0  0  0  0  0  0  0  0  0  0
  153.2940  138.6024  157.7480 N   0  0  0  0  0  0  0  0  0  0  0  0
  153.5477  137.3411  157.3918 C   0  0  0  0  0  0  0  0  0  0  0  0
  152.7648  136.4900  156.7298 N   0  0  0  0  0  0  0  0  0  0  0  0
  151.5667  137.0601  156.4175 C   0  0  0  0  0  0  0  0  0  0  0  0
  151.1575  138.3909  156.7259 C   0  0  0  0  0  0  0  0  0  0  0  0
  149.8681  138.5968  156.2463 N   0  0  0  0  0  0  0  0  0  0  0  0
  149.5431  137.4680  155.6804 C   0  0  0  0  0  0  0  0  0  0  0  0
  150.4991  136.4817  155.7506 N   0  0  0  0  0  0  0  0  0  0  0  0
  150.4039  135.1317  155.2125 C   0  0  0  0  0  0  0  0  0  0  0  0
  149.0190  134.4723  155.3903 C   0  0  0  0  0  0  0  0  0  0  0  0
  148.6838  134.3084  156.8826 C   0  0  0  0  0  0  0  0  0  0  0  0
  149.5935  133.4322  157.5161 O   0  0  0  0  0  0  0  0  0  0  0  0
  147.8896  135.0637  154.5333 C   0  0  0  0  0  0  0  0  0  0  0  0
  147.8527  133.9148  153.6617 O   0  0  0  0  0  0  0  0  0  0  0  0
  148.7810  133.2267  154.5257 C   0  0  0  0  0  0  0  0  0  0  0  0
  149.1955  142.6770  154.9372 H   0  0  0  0  0  0  0  0  0  0  0  0
  149.0258  142.9670  156.6563 H   0  0  0  0  0  0  0  0  0  0  0  0
  149.8849  140.7191  158.0866 H   0  0  0  0  0  0  0  0  0  0  0  0
  150.0202  142.9070  158.8802 H   0  0  0  0  0  0  0  0  0  0  0  0
  152.3976  143.3854  157.0238 H   0  0  0  0  0  0  0  0  0  0  0  0
  150.9360  144.3607  157.1591 H   0  0  0  0  0  0  0  0  0  0  0  0
  153.1596  145.1011  158.5067 H   0  0  0  0  0  0  0  0  0  0  0  0
  151.5972  145.1909  159.3111 H   0  0  0  0  0  0  0  0  0  0  0  0
  153.8062  143.2712  159.8565 H   0  0  0  0  0  0  0  0  0  0  0  0
  152.4790  143.7696  160.8890 H   0  0  0  0  0  0  0  0  0  0  0  0
  151.4354  141.7417  160.3642 H   0  0  0  0  0  0  0  0  0  0  0  0
  153.6648  141.5077  158.3127 H   0  0  0  0  0  0  0  0  0  0  0  0
  153.1584  140.3589  159.5549 H   0  0  0  0  0  0  0  0  0  0  0  0
  154.5171  136.9602  157.6775 H   0  0  0  0  0  0  0  0  0  0  0  0
  148.5889  137.3285  155.1949 H   0  0  0  0  0  0  0  0  0  0  0  0
  150.6664  135.1803  154.1549 H   0  0  0  0  0  0  0  0  0  0  0  0
  151.1812  134.5218  155.6743 H   0  0  0  0  0  0  0  0  0  0  0  0
  148.6799  135.2644  157.4057 H   0  0  0  0  0  0  0  0  0  0  0  0
  147.6834  133.8930  157.0085 H   0  0  0  0  0  0  0  0  0  0  0  0
  150.1729  133.0739  156.8611 H   0  0  0  0  0  0  0  0  0  0  0  0
  146.9487  135.1963  155.0692 H   0  0  0  0  0  0  0  0  0  0  0  0
  148.1564  135.9726  153.9956 H   0  0  0  0  0  0  0  0  0  0  0  0
  149.6676  132.8822  153.9922 H   0  0  0  0  0  0  0  0  0  0  0  0
  148.3048  132.4017  155.0576 H   0  0  0  0  0  0  0  0  0  0  0  0
  1  2  1  0  0  0  0
  1 28  1  0  0  0  0
  1 29  1  0  0  0  0
  2  3  2  0  0  0  0
  2  4  1  0  0  0  0
  4 11  1  0  0  0  0
  4  5  1  0  0  0  0
  4 30  1  0  0  0  0
  5  9  1  0  0  0  0
  5  6  1  0  0  0  0
  5 31  1  0  0  0  0
  6  7  1  0  0  0  0
  6 32  1  0  0  0  0
  6 33  1  0  0  0  0
  7  8  1  0  0  0  0
  7 34  1  0  0  0  0
  7 35  1  0  0  0  0
  8  9  1  0  0  0  0
  8 36  1  0  0  0  0
  8 37  1  0  0  0  0
  9 10  1  0  0  0  0
  9 38  1  0  0  0  0
 10 11  1  0  0  0  0
 10 39  1  0  0  0  0
 10 40  1  0  0  0  0
 11 12  1  0  0  0  0
 12 17  1  0  0  0  0
 12 13  2  0  0  0  0
 13 14  1  0  0  0  0
 14 15  2  0  0  0  0
 14 41  1  0  0  0  0
 15 16  1  0  0  0  0
 16 20  1  0  0  0  0
 16 17  2  0  0  0  0
 17 18  1  0  0  0  0
 18 19  2  0  0  0  0
 19 20  1  0  0  0  0
 19 42  1  0  0  0  0
 20 21  1  0  0  0  0
 21 22  1  0  0  0  0
 21 43  1  0  0  0  0
 21 44  1  0  0  0  0
 22 27  1  0  0  0  0
 22 23  1  0  0  0  0
 22 25  1  0  0  0  0
 23 24  1  0  0  0  0
 23 45  1  0  0  0  0
 23 46  1  0  0  0  0
 24 47  1  0  0  0  0
 25 26  1  0  0  0  0
 25 48  1  0  0  0  0
 25 49  1  0  0  0  0
 26 27  1  0  0  0  0
 27 50  1  0  0  0  0
 27 51  1  0  0  0  0
M  END
> <s_m_source_file>
AV-unprocessed.smi

> <i_m_source_file_index>
220

> <i_lp_mmshare_version>
43012

> <i_f3d_flags>
0

> <s_epik_input>
W0NIMl0xW0NIMl1bQ0gyXVtDQEhdKFtDQEhdMTIpW0NIMl1OKFtDQEBIXTJDKD1PKVtOSDJdKWMobltjSF1uMyljKGMzNCluW2NIXW40W0NIMl1DNShbQ0gyXVtPSF0pW0NIMl1PW0NIMl01

> <s_epik_cmdline>
J2VwaWtfcHl0aG9uJywgJy1waCcsICc3LjAnLCAnLXRuJywgJzgnLCAnLW1hJywgJzIwMCcsICctbWV0YWxfYmluZGluZycsICctaW1hZScsICc8aW5maWxlLm1hZT4nLCAnLW9tYWUnLCAnPG91dGZpbGUubWFlPic=

> <r_lp_tautomer_probability>
1

> <r_epik_Ionization_Penalty>
0.00118987

> <r_epik_Ionization_Penalty_Charging>
0

> <r_epik_Ionization_Penalty_Neutral>
0.00118987

> <r_epik_State_Penalty>
0.000654261

> <r_epik_Charging_Adjusted_Penalty>
0.000654261

> <i_epik_Tot_Q>
0

> <i_epik_Tot_abs_Q>
0

> <r_epik_Metal_State_Penalty>
-0

> <b_epik_Metal_Only>
0

> <s_lp_Force_Field>
OPLS_2005

> <r_lp_Energy>
60.6153

> <b_lp_Chiralities_Consistent>
1

> <s_lp_Variant>
AV-unprocessed.smi:220-3

> <Gold.Version>
5.8.1

> <Gold.Id.Protein>
6NUR|6NUR_protein|mol2

> <Gold.PLP.Fitness>
52.0366

> <Gold.PLP.PLP>
-41.9032

> <Gold.PLP.part.hbond>
-4.8691

> <Gold.PLP.part.metal>
0.0000

> <Gold.PLP.part.buried>
-5.6151

> <Gold.PLP.part.nonpolar>
-31.7892

> <Gold.PLP.part.repulsive>
0.3150

> <Gold.PLP.ligand.clash>
0.0000

> <Gold.PLP.ligand.torsion>
0.8662

> <Gold.PLP.Chemscore.Hbond>
3.8160

> <Gold.PLP.Chemscore.CHOScore>
0.0000

> <Gold.PLP.Chemscore.Metal>
0.0000

> <Gold.Chemscore.Hbonds>
donor molecule, donor type, donor heavy atom, donor atom, acceptor molecule, acceptor atom, score
      P1  H  6896  6908       L1    24  0.49
      P1  H  7989  7998       L1     3  0.77
      P1  H  7997  8009       L1    13  0.86
      P1  H 10752 10763       L1    15  0.99

> <Gold.PLP.Chemscore.Internal.Correction>
0.4179

> <Gold.Rescore>
     Score         DG    S(hbond)    S(metal)    S(lipo)     H(rot)  DE(clash)    DE(int)     intcor
     16.67     -19.60       3.24        0.00      91.45       2.89       1.27       1.66       ----

> <Gold.Chemscore.Fitness>
16.6670

> <Gold.Chemscore.DG>
-19.5976

> <Gold.Chemscore.ZeroCoef>
-5.4800

> <Gold.Chemscore.Hbond>
3.2359

> <Gold.Chemscore.Metal>
0.0000

> <Gold.Chemscore.Lipo>
91.4540

> <Gold.Chemscore.Internal_Hbond>
0.0000

> <Gold.Chemscore.DEClash>
1.2725

> <Gold.Chemscore.DEInternal>
1.6581

> <Gold.Chemscore.Rot>
2.8869

> <Gold.Chemscore.Internal.Correction>
   9.000000E+99

> <Gold.Chemscore.Hbonds>
donor molecule, donor type, donor heavy atom, donor atom, acceptor molecule, acceptor atom, score
      L1  H     1    29       P1  8028  0.02
      P1  H  6896  6908       L1    24  0.11
      P1  H  7989  7998       L1     3  0.76
      P1  H  7997  8009       L1    13  0.30
      P1  H 10752 10763       L1    15  0.84

> <Gold.Chemscore.Hbond.Weighted>
-10.8080

> <Gold.Chemscore.Metal.Weighted>
-0.0000

> <Gold.Chemscore.Lipo.Weighted>
-10.7001

> <Gold.Chemscore.Internal_Hbond.Weighted>
0.0000

> <Gold.Chemscore.DEClash.Weighted>
1.2725

> <Gold.Chemscore.DEInternal.Weighted>
1.6581

> <Gold.Chemscore.Rot.Weighted>
7.3905

> <Gold.Chemscore.Internal.Correction.Weighted>
   9.000000E+99

> <Gold.Protein.RotatedTorsions>
[ 6907 6896 6895 6894 ] final   98.74 input  -60.11 | X-H torsion
[ 7974 7965 7964 7962 ] final  -67.15 input  175.53 | X-H torsion
[ 8008 7997 7996 7995 ] final  145.55 input   59.86 | X-H torsion
[ 10167 10162 10161 10158 ] final  -29.09 input  -65.29 | X-H torsion
[ 10718 10713 10712 10709 ] final  -33.57 input   66.30 | X-H torsion
[ 10763 10752 10751 10750 ] final  124.25 input  -60.55 | X-H torsion
[ 11005 11000 10999 10996 ] final -157.10 input  -57.11 | X-H torsion

> <Gold.Protein.ActiveResidues>
 VAL166  LYS551  ARG553  GLY616  TRP617  ASP618  TYR619  PRO620  LYS621  CYS622 
 ASP623  PHE694  ASN695  SER759  ASP760  ASP761  ALA762  ILE779  LEU786  VAL792 
 PHE793  MET794  SER795  GLU796  ALA797  LYS798  CYS799  TRP800  GLU811  SER814 

> <Gold.Protein.RotatedAtoms>
  152.5404  134.0534  159.8119 H   0  0  0  0  0  0  0  0  0  0  0  0  # atno 6907 bound_to 6896
  151.0672  133.5488  159.2637 H   0  0  0  0  0  0  0  0  0  0  0  0  # atno 6908 bound_to 6896
  151.2364  135.0581  159.9062 H   0  0  0  0  0  0  0  0  0  0  0  0  # atno 6909 bound_to 6896
  145.7327  140.8989  143.0571 H   0  0  0  0  0  0  0  0  0  0  0  0  # atno 7974 bound_to 7965
  156.2880  140.2206  156.5234 H   0  0  0  0  0  0  0  0  0  0  0  0  # atno 8008 bound_to 7997
  154.7509  140.0480  157.0915 H   0  0  0  0  0  0  0  0  0  0  0  0  # atno 8009 bound_to 7997
  155.0111  140.3113  155.4833 H   0  0  0  0  0  0  0  0  0  0  0  0  # atno 8010 bound_to 7997
  140.7264  143.3956  151.1353 H   0  0  0  0  0  0  0  0  0  0  0  0  # atno 10167 bound_to 10162
  156.3610  130.4324  149.7624 H   0  0  0  0  0  0  0  0  0  0  0  0  # atno 10718 bound_to 10713
  153.6584  135.3350  155.3120 H   0  0  0  0  0  0  0  0  0  0  0  0  # atno 10763 bound_to 10752
  154.8521  135.4358  154.1830 H   0  0  0  0  0  0  0  0  0  0  0  0  # atno 10764 bound_to 10752
  153.2791  135.7007  153.7479 H   0  0  0  0  0  0  0  0  0  0  0  0  # atno 10765 bound_to 10752
  140.6683  134.4275  157.5232 H   0  0  0  0  0  0  0  0  0  0  0  0  # atno 11005 bound_to 11000
  144.6889  139.9353  143.7473 LP  0  0  0  0  0  0  0  0  0  0  0  0  # atno 17320 bound_to 7965
  146.0522  139.3522  143.0632 LP  0  0  0  0  0  0  0  0  0  0  0  0  # atno 17321 bound_to 7965
  139.7568  143.8695  152.3091 LP  0  0  0  0  0  0  0  0  0  0  0  0  # atno 17342 bound_to 10162
  139.8567  144.7137  150.9148 LP  0  0  0  0  0  0  0  0  0  0  0  0  # atno 17343 bound_to 10162
  156.4788  130.8031  151.3046 LP  0  0  0  0  0  0  0  0  0  0  0  0  # atno 17370 bound_to 10713
  157.7473  131.0012  150.2956 LP  0  0  0  0  0  0  0  0  0  0  0  0  # atno 17371 bound_to 10713
  139.8990  134.8601  156.1978 LP  0  0  0  0  0  0  0  0  0  0  0  0  # atno 17394 bound_to 11000
  141.0412  133.6937  156.1601 LP  0  0  0  0  0  0  0  0  0  0  0  0  # atno 17395 bound_to 11000

$$$$
