AV-unprocessed.smi:632|AV-procd|sdf|3127|dock3
  -GOLD-   22720 0 53D 1   1.00000     0.00000
 Structure written by MMmdl.
 42 43  0  0  0  0  0  0  0  0  1 V2000
  150.3770  123.7758  151.1805 C   0  0  0  0  0  0  0  0  0  0  0  0
  148.8424  123.7937  151.3205 C   0  0  0  0  0  0  0  0  0  0  0  0
  148.2483  123.2039  150.0225 C   0  0  0  0  0  0  0  0  0  0  0  0
  148.3941  122.8907  152.4864 C   0  0  0  0  0  0  0  0  0  0  0  0
  148.3660  125.2085  151.5548 C   0  0  0  0  0  0  0  0  0  0  0  0
  147.7103  125.5591  152.6717 N   0  0  0  0  0  0  0  0  0  0  0  0
  147.3652  126.9021  152.6950 N   0  0  0  0  0  0  0  0  0  0  0  0
  147.7715  127.5420  151.5918 C   0  0  0  0  0  0  0  0  0  0  0  0
  147.5569  128.9262  151.3575 N   0  0  0  0  0  0  0  0  0  0  0  0
  146.4529  129.6521  151.6076 C   0  0  0  0  0  0  0  0  0  0  0  0
  145.4022  129.2117  152.0750 O   0  0  0  0  0  0  0  0  0  0  0  0
  146.6344  130.9400  151.2808 N   0  0  0  0  0  0  0  0  0  0  0  0
  145.6413  131.9976  151.4455 C   0  0  2  0  0  0  0  0  0  0  0  0
  145.0926  132.4481  150.0773 C   0  0  0  0  0  0  0  0  0  0  0  0
  144.0795  133.5964  150.2294 C   0  0  0  0  0  0  0  0  0  0  0  0
  144.6561  134.7862  151.0207 C   0  0  2  0  0  0  0  0  0  0  0  0
  145.6363  135.4521  150.2493 O   0  0  0  0  0  0  0  0  0  0  0  0
  145.2585  134.3367  152.3657 C   0  0  0  0  0  0  0  0  0  0  0  0
  146.2666  133.1862  152.1977 C   0  0  0  0  0  0  0  0  0  0  0  0
  148.6148  126.5437  150.4226 S   0  0  0  0  0  0  0  0  0  0  0  0
  150.7488  122.7673  150.9969 H   0  0  0  0  0  0  0  0  0  0  0  0
  150.8654  124.1404  152.0850 H   0  0  0  0  0  0  0  0  0  0  0  0
  150.7073  124.4048  150.3531 H   0  0  0  0  0  0  0  0  0  0  0  0
  148.5405  123.7825  149.1453 H   0  0  0  0  0  0  0  0  0  0  0  0
  147.1585  123.1740  150.0553 H   0  0  0  0  0  0  0  0  0  0  0  0
  148.5915  122.1815  149.8599 H   0  0  0  0  0  0  0  0  0  0  0  0
  148.7092  121.8580  152.3342 H   0  0  0  0  0  0  0  0  0  0  0  0
  147.3087  122.8918  152.5943 H   0  0  0  0  0  0  0  0  0  0  0  0
  148.8188  123.2208  153.4350 H   0  0  0  0  0  0  0  0  0  0  0  0
  148.3412  129.4250  150.9644 H   0  0  0  0  0  0  0  0  0  0  0  0
  147.5267  131.2125  150.8949 H   0  0  0  0  0  0  0  0  0  0  0  0
  144.8145  131.6170  152.0483 H   0  0  0  0  0  0  0  0  0  0  0  0
  145.9143  132.7688  149.4353 H   0  0  0  0  0  0  0  0  0  0  0  0
  144.6151  131.6096  149.5688 H   0  0  0  0  0  0  0  0  0  0  0  0
  143.7348  133.9252  149.2483 H   0  0  0  0  0  0  0  0  0  0  0  0
  143.1976  133.2191  150.7488 H   0  0  0  0  0  0  0  0  0  0  0  0
  143.8592  135.5061  151.2101 H   0  0  0  0  0  0  0  0  0  0  0  0
  145.5643  135.1582  149.3540 H   0  0  0  0  0  0  0  0  0  0  0  0
  145.7315  135.1801  152.8702 H   0  0  0  0  0  0  0  0  0  0  0  0
  144.4527  134.0047  153.0217 H   0  0  0  0  0  0  0  0  0  0  0  0
  146.6182  132.8640  153.1787 H   0  0  0  0  0  0  0  0  0  0  0  0
  147.1448  133.5460  151.6594 H   0  0  0  0  0  0  0  0  0  0  0  0
  1  2  1  0  0  0  0
  1 21  1  0  0  0  0
  1 22  1  0  0  0  0
  1 23  1  0  0  0  0
  2  3  1  0  0  0  0
  2  4  1  0  0  0  0
  2  5  1  0  0  0  0
  3 24  1  0  0  0  0
  3 25  1  0  0  0  0
  3 26  1  0  0  0  0
  4 27  1  0  0  0  0
  4 28  1  0  0  0  0
  4 29  1  0  0  0  0
  5 20  1  0  0  0  0
  5  6  2  0  0  0  0
  6  7  1  0  0  0  0
  7  8  2  0  0  0  0
  8  9  1  0  0  0  0
  8 20  1  0  0  0  0
  9 10  1  0  0  0  0
  9 30  1  0  0  0  0
 10 11  2  0  0  0  0
 10 12  1  0  0  0  0
 12 13  1  0  0  0  0
 12 31  1  0  0  0  0
 13 19  1  0  0  0  0
 13 14  1  0  0  0  0
 13 32  1  0  0  0  0
 14 15  1  0  0  0  0
 14 33  1  0  0  0  0
 14 34  1  0  0  0  0
 15 16  1  0  0  0  0
 15 35  1  0  0  0  0
 15 36  1  0  0  0  0
 16 17  1  0  0  0  0
 16 18  1  0  0  0  0
 16 37  1  0  0  0  0
 17 38  1  0  0  0  0
 18 19  1  0  0  0  0
 18 39  1  0  0  0  0
 18 40  1  0  0  0  0
 19 41  1  0  0  0  0
 19 42  1  0  0  0  0
M  END
> <s_m_source_file>
AV-unprocessed.smi

> <i_m_source_file_index>
632

> <i_lp_mmshare_version>
43012

> <i_f3d_flags>
0

> <s_epik_input>
W0NIM11DKFtDSDNdKShbQ0gzXSljMW5uYyhzMSlbTkhdQyg9TylbTkhdW0NAQEhdMltDSDJdW0NIMl1bQ0BASF0oW09IXSlbQ0gyXVtDSDJdMg==

> <s_epik_cmdline>
J2VwaWtfcHl0aG9uJywgJy1waCcsICc3LjAnLCAnLXRuJywgJzgnLCAnLW1hJywgJzIwMCcsICctbWV0YWxfYmluZGluZycsICctaW1hZScsICc8aW5maWxlLm1hZT4nLCAnLW9tYWUnLCAnPG91dGZpbGUubWFlPic=

> <r_lp_tautomer_probability>
1

> <r_epik_Ionization_Penalty>
0.000349475

> <r_epik_Ionization_Penalty_Charging>
0

> <r_epik_Ionization_Penalty_Neutral>
0.000349475

> <r_epik_State_Penalty>
-0

> <r_epik_Charging_Adjusted_Penalty>
0

> <i_epik_Tot_Q>
0

> <i_epik_Tot_abs_Q>
0

> <r_epik_Metal_State_Penalty>
0.179207

> <b_epik_Metal_Only>
0

> <s_lp_Force_Field>
OPLS_2005

> <r_lp_Energy>
4.89168

> <b_lp_Chiralities_Consistent>
1

> <s_lp_Variant>
AV-unprocessed.smi:632-2

> <Gold.Version>
5.8.1

> <Gold.Id.Protein>
6NUR|6NUR_protein|mol2

> <Gold.PLP.Fitness>
43.6293

> <Gold.PLP.PLP>
-35.6375

> <Gold.PLP.part.hbond>
-4.2813

> <Gold.PLP.part.metal>
0.0000

> <Gold.PLP.part.buried>
-5.0954

> <Gold.PLP.part.nonpolar>
-26.5035

> <Gold.PLP.part.repulsive>
0.2925

> <Gold.PLP.ligand.clash>
0.0000

> <Gold.PLP.ligand.torsion>
0.4328

> <Gold.PLP.Chemscore.Hbond>
2.9500

> <Gold.PLP.Chemscore.CHOScore>
0.0000

> <Gold.PLP.Chemscore.Metal>
0.0000

> <Gold.Chemscore.Hbonds>
donor molecule, donor type, donor heavy atom, donor atom, acceptor molecule, acceptor atom, score
      L1  H     9    30       P1 10747  0.90
      L1  H    12    31       P1 10747  1.00
      L1  H    17    38       P1  7921  1.00

> <Gold.PLP.Chemscore.Internal.Correction>
0.0074

> <Gold.Rescore>
     Score         DG    S(hbond)    S(metal)    S(lipo)     H(rot)  DE(clash)    DE(int)     intcor
     15.54     -16.22       2.21        0.00      65.94       1.70       0.13       0.55       ----

> <Gold.Chemscore.Fitness>
15.5445

> <Gold.Chemscore.DG>
-16.2193

> <Gold.Chemscore.ZeroCoef>
-5.4800

> <Gold.Chemscore.Hbond>
2.2061

> <Gold.Chemscore.Metal>
0.0000

> <Gold.Chemscore.Lipo>
65.9368

> <Gold.Chemscore.Internal_Hbond>
0.0000

> <Gold.Chemscore.DEClash>
0.1291

> <Gold.Chemscore.DEInternal>
0.5457

> <Gold.Chemscore.Rot>
1.6968

> <Gold.Chemscore.Internal.Correction>
   9.000000E+99

> <Gold.Chemscore.Hbonds>
donor molecule, donor type, donor heavy atom, donor atom, acceptor molecule, acceptor atom, score
      L1  H     9    30       P1 10747  0.17
      L1  H    12    31       P1 10747  0.95
      L1  H    17    38       P1  7921  0.98

> <Gold.Chemscore.Hbond.Weighted>
-7.3685

> <Gold.Chemscore.Metal.Weighted>
-0.0000

> <Gold.Chemscore.Lipo.Weighted>
-7.7146

> <Gold.Chemscore.Internal_Hbond.Weighted>
0.0000

> <Gold.Chemscore.DEClash.Weighted>
0.1291

> <Gold.Chemscore.DEInternal.Weighted>
0.5457

> <Gold.Chemscore.Rot.Weighted>
4.3438

> <Gold.Chemscore.Internal.Correction.Weighted>
   9.000000E+99

> <Gold.Protein.RotatedTorsions>
[ 6907 6896 6895 6894 ] final -155.59 input  -60.11 | X-H torsion
[ 7974 7965 7964 7962 ] final   42.23 input  175.53 | X-H torsion
[ 8008 7997 7996 7995 ] final   41.48 input   59.86 | X-H torsion
[ 10167 10162 10161 10158 ] final  125.01 input  -65.29 | X-H torsion
[ 10718 10713 10712 10709 ] final  -37.13 input   66.30 | X-H torsion
[ 10763 10752 10751 10750 ] final  171.06 input  -60.55 | X-H torsion
[ 11005 11000 10999 10996 ] final   41.77 input  -57.11 | X-H torsion

> <Gold.Protein.ActiveResidues>
 VAL166  LYS551  ARG553  GLY616  TRP617  ASP618  TYR619  PRO620  LYS621  CYS622 
 ASP623  PHE694  ASN695  SER759  ASP760  ASP761  ALA762  ILE779  LEU786  VAL792 
 PHE793  MET794  SER795  GLU796  ALA797  LYS798  CYS799  TRP800  GLU811  SER814 

> <Gold.Protein.RotatedAtoms>
  151.2749  133.4237  159.2623 H   0  0  0  0  0  0  0  0  0  0  0  0  # atno 6907 bound_to 6896
  151.0412  134.9609  159.8173 H   0  0  0  0  0  0  0  0  0  0  0  0  # atno 6908 bound_to 6896
  152.5365  134.2707  159.9023 H   0  0  0  0  0  0  0  0  0  0  0  0  # atno 6909 bound_to 6896
  146.0757  139.5324  142.9569 H   0  0  0  0  0  0  0  0  0  0  0  0  # atno 7974 bound_to 7965
  155.2703  140.3365  155.4266 H   0  0  0  0  0  0  0  0  0  0  0  0  # atno 8008 bound_to 7997
  156.2136  140.1780  156.7682 H   0  0  0  0  0  0  0  0  0  0  0  0  # atno 8009 bound_to 7997
  154.5721  140.0668  156.8964 H   0  0  0  0  0  0  0  0  0  0  0  0  # atno 8010 bound_to 7997
  139.5709  144.6938  151.3781 H   0  0  0  0  0  0  0  0  0  0  0  0  # atno 10167 bound_to 10162
  156.3187  130.4262  149.7980 H   0  0  0  0  0  0  0  0  0  0  0  0  # atno 10718 bound_to 10713
  154.4064  135.2755  155.2064 H   0  0  0  0  0  0  0  0  0  0  0  0  # atno 10763 bound_to 10752
  154.4068  135.6031  153.5933 H   0  0  0  0  0  0  0  0  0  0  0  0  # atno 10764 bound_to 10752
  152.9831  135.5940  154.4340 H   0  0  0  0  0  0  0  0  0  0  0  0  # atno 10765 bound_to 10752
  140.1802  134.4113  155.8204 H   0  0  0  0  0  0  0  0  0  0  0  0  # atno 11005 bound_to 11000
  145.6310  141.0304  143.1863 LP  0  0  0  0  0  0  0  0  0  0  0  0  # atno 17320 bound_to 7965
  144.7260  139.7874  143.7364 LP  0  0  0  0  0  0  0  0  0  0  0  0  # atno 17321 bound_to 7965
  140.6994  143.7670  150.7378 LP  0  0  0  0  0  0  0  0  0  0  0  0  # atno 17342 bound_to 10162
  140.1176  143.4641  152.2333 LP  0  0  0  0  0  0  0  0  0  0  0  0  # atno 17343 bound_to 10162
  156.5296  130.8252  151.3232 LP  0  0  0  0  0  0  0  0  0  0  0  0  # atno 17370 bound_to 10713
  157.7407  130.9856  150.2396 LP  0  0  0  0  0  0  0  0  0  0  0  0  # atno 17371 bound_to 10713
  141.2222  133.6997  156.7918 LP  0  0  0  0  0  0  0  0  0  0  0  0  # atno 17394 bound_to 11000
  140.2276  134.8710  157.3443 LP  0  0  0  0  0  0  0  0  0  0  0  0  # atno 17395 bound_to 11000

$$$$
