AV-unprocessed.smi:2061|AV-procd|sdf|8388|dock10
  -GOLD-   2272011 73D 1   1.00000     0.00000
 Structure written by MMmdl.
 45 46  0  0  0  0  0  0  0  0  3 V2000
  147.5009  135.9194  162.6540 C   0  0  0  0  0  0  0  0  0  0  0  0
  147.4328  136.1026  161.1765 C   0  0  0  0  0  0  0  0  0  0  0  0
  148.0934  135.5142  160.1351 C   0  0  0  0  0  0  0  0  0  0  0  0
  147.5428  136.1626  158.9976 C   0  0  0  0  0  0  0  0  0  0  0  0
  147.9745  135.8201  157.6888 N   0  0  0  0  0  0  0  0  0  0  0  0
  149.0381  135.0837  157.3189 C   0  0  0  0  0  0  0  0  0  0  0  0
  149.7772  134.5803  158.1736 O   0  0  0  0  0  0  0  0  0  0  0  0
  149.1612  134.9948  155.9654 N   0  5  0  0  0  0  0  0  0  0  0  0
  148.0481  135.0806  155.0178 C   0  0  0  0  0  0  0  0  0  0  0  0
  147.9810  133.8183  154.1127 C   0  0  2  0  0  0  0  0  0  0  0  0
  149.3573  133.1640  153.8331 C   0  0  0  0  0  0  0  0  0  0  0  0
  147.2077  134.1093  152.8655 N   0  3  1  0  0  0  0  0  0  0  0  0
  146.9691  132.9633  151.9450 C   0  0  0  0  0  0  0  0  0  0  0  0
  146.3230  133.4599  150.6393 C   0  0  1  0  0  0  0  0  0  0  0  0
  146.0001  132.3100  149.6793 C   0  0  0  0  0  0  0  0  0  0  0  0
  145.1063  134.1296  150.9536 O   0  0  0  0  0  0  0  0  0  0  0  0
  145.3067  135.2750  151.7752 C   0  0  1  0  0  0  0  0  0  0  0  0
  143.9527  135.9642  151.9756 C   0  0  0  0  0  0  0  0  0  0  0  0
  145.9400  134.8401  153.1106 C   0  0  0  0  0  0  0  0  0  0  0  0
  146.6276  137.0655  159.3178 N   0  0  0  0  0  0  0  0  0  0  0  0
  146.5533  137.0324  160.7152 O   0  0  0  0  0  0  0  0  0  0  0  0
  147.9688  134.9676  162.9065 H   0  0  0  0  0  0  0  0  0  0  0  0
  146.5033  135.9318  163.0932 H   0  0  0  0  0  0  0  0  0  0  0  0
  148.0840  136.7168  163.1146 H   0  0  0  0  0  0  0  0  0  0  0  0
  148.8487  134.7440  160.1811 H   0  0  0  0  0  0  0  0  0  0  0  0
  147.4128  136.1867  156.9346 H   0  0  0  0  0  0  0  0  0  0  0  0
  147.0944  135.1937  155.5362 H   0  0  0  0  0  0  0  0  0  0  0  0
  148.1323  135.9652  154.3862 H   0  0  0  0  0  0  0  0  0  0  0  0
  147.3972  133.0821  154.6671 H   0  0  0  0  0  0  0  0  0  0  0  0
  149.8347  132.8173  154.7514 H   0  0  0  0  0  0  0  0  0  0  0  0
  150.0566  133.8430  153.3417 H   0  0  0  0  0  0  0  0  0  0  0  0
  149.2472  132.2886  153.1931 H   0  0  0  0  0  0  0  0  0  0  0  0
  147.9066  132.4547  151.7184 H   0  0  0  0  0  0  0  0  0  0  0  0
  146.3124  132.2321  152.4186 H   0  0  0  0  0  0  0  0  0  0  0  0
  146.9977  134.1539  150.1348 H   0  0  0  0  0  0  0  0  0  0  0  0
  146.9031  131.7662  149.4011 H   0  0  0  0  0  0  0  0  0  0  0  0
  145.5421  132.6840  148.7632 H   0  0  0  0  0  0  0  0  0  0  0  0
  145.3071  131.6001  150.1318 H   0  0  0  0  0  0  0  0  0  0  0  0
  145.9752  135.9690  151.2623 H   0  0  0  0  0  0  0  0  0  0  0  0
  144.0556  136.8597  152.5890 H   0  0  0  0  0  0  0  0  0  0  0  0
  143.2404  135.3011  152.4673 H   0  0  0  0  0  0  0  0  0  0  0  0
  143.5228  136.2647  151.0198 H   0  0  0  0  0  0  0  0  0  0  0  0
  145.2534  134.2040  153.6715 H   0  0  0  0  0  0  0  0  0  0  0  0
  146.1312  135.7240  153.7205 H   0  0  0  0  0  0  0  0  0  0  0  0
  147.7902  134.7594  152.3569 H   0  0  0  0  0  0  0  0  0  0  0  0
  1  2  1  0  0  0  0
  1 22  1  0  0  0  0
  1 23  1  0  0  0  0
  1 24  1  0  0  0  0
  2 21  1  0  0  0  0
  2  3  2  0  0  0  0
  3  4  1  0  0  0  0
  3 25  1  0  0  0  0
  4  5  1  0  0  0  0
  4 20  2  0  0  0  0
  5  6  1  0  0  0  0
  5 26  1  0  0  0  0
  6  7  2  0  0  0  0
  6  8  1  0  0  0  0
  8  9  1  0  0  0  0
  9 10  1  0  0  0  0
  9 27  1  0  0  0  0
  9 28  1  0  0  0  0
 10 11  1  0  0  0  0
 10 12  1  0  0  0  0
 10 29  1  0  0  0  0
 11 30  1  0  0  0  0
 11 31  1  0  0  0  0
 11 32  1  0  0  0  0
 12 19  1  0  0  0  0
 12 13  1  0  0  0  0
 12 45  1  0  0  0  0
 13 14  1  0  0  0  0
 13 33  1  0  0  0  0
 13 34  1  0  0  0  0
 14 15  1  0  0  0  0
 14 16  1  0  0  0  0
 14 35  1  0  0  0  0
 15 36  1  0  0  0  0
 15 37  1  0  0  0  0
 15 38  1  0  0  0  0
 16 17  1  0  0  0  0
 17 18  1  0  0  0  0
 17 19  1  0  0  0  0
 17 39  1  0  0  0  0
 18 40  1  0  0  0  0
 18 41  1  0  0  0  0
 18 42  1  0  0  0  0
 19 43  1  0  0  0  0
 19 44  1  0  0  0  0
 20 21  1  0  0  0  0
M  CHG  1   8  -1
M  CHG  1  12   1
M  END
> <s_m_source_file>
AV-unprocessed.smi

> <i_m_source_file_index>
2061

> <i_lp_mmshare_version>
43012

> <i_f3d_flags>
0

> <s_epik_input>
W0NIM11jMVtjSF1jKG5vMSlbTkhdQyg9TylbTkhdW0NIMl1bQ0BIXShbQ0gzXSlOMltDSDJdW0NAQEhdKFtDSDNdKU9bQ0BASF0oW0NIM10pW0NIMl0y

> <s_epik_cmdline>
J2VwaWtfcHl0aG9uJywgJy1waCcsICc3LjAnLCAnLXRuJywgJzgnLCAnLW1hJywgJzIwMCcsICctbWV0YWxfYmluZGluZycsICctaW1hZScsICc8aW5maWxlLm1hZT4nLCAnLW9tYWUnLCAnPG91dGZpbGUubWFlPic=

> <r_epik_Ionization_Penalty>
6.8073

> <r_epik_Ionization_Penalty_Charging>
6.80729

> <r_epik_Ionization_Penalty_Neutral>
5.65391e-06

> <r_epik_State_Penalty>
7.47323

> <r_epik_Charging_Adjusted_Penalty>
14.2805

> <i_epik_Tot_Q>
0

> <i_epik_Tot_abs_Q>
2

> <r_epik_Metal_State_Penalty>
3.40035

> <b_epik_Metal_Only>
1

> <s_lp_Force_Field>
OPLS_2005

> <r_lp_Energy>
16.5553

> <b_lp_Chiralities_Consistent>
1

> <s_lp_Variant>
AV-unprocessed.smi:2061-29

> <Gold.Version>
5.8.1

> <Gold.Id.Protein>
6NUR|6NUR_protein|mol2

> <Gold.PLP.Fitness>
43.8236

> <Gold.PLP.PLP>
-32.8363

> <Gold.PLP.part.hbond>
-3.1500

> <Gold.PLP.part.metal>
0.0000

> <Gold.PLP.part.buried>
-5.5027

> <Gold.PLP.part.nonpolar>
-25.5949

> <Gold.PLP.part.repulsive>
0.2113

> <Gold.PLP.ligand.clash>
0.0510

> <Gold.PLP.ligand.torsion>
0.5479

> <Gold.PLP.Chemscore.Hbond>
4.0000

> <Gold.PLP.Chemscore.CHOScore>
0.0000

> <Gold.PLP.Chemscore.Metal>
0.0000

> <Gold.Chemscore.Hbonds>
donor molecule, donor type, donor heavy atom, donor atom, acceptor molecule, acceptor atom, score
      L1  H    12    45       P1  7948  2.00
      P1  H  6896  6907       L1     7  1.00
      P1  H  6934  6947       L1    21  0.59

> <Gold.PLP.Chemscore.Internal.Correction>
0.1341

> <Gold.Rescore>
     Score         DG    S(hbond)    S(metal)    S(lipo)     H(rot)  DE(clash)    DE(int)     intcor
     15.82     -17.81       2.40        0.00      70.91       1.56       0.06       1.93       ----

> <Gold.Chemscore.Fitness>
15.8169

> <Gold.Chemscore.DG>
-17.8099

> <Gold.Chemscore.ZeroCoef>
-5.4800

> <Gold.Chemscore.Hbond>
2.3996

> <Gold.Chemscore.Metal>
0.0000

> <Gold.Chemscore.Lipo>
70.9071

> <Gold.Chemscore.Internal_Hbond>
0.0000

> <Gold.Chemscore.DEClash>
0.0640

> <Gold.Chemscore.DEInternal>
1.9291

> <Gold.Chemscore.Rot>
1.5550

> <Gold.Chemscore.Internal.Correction>
   9.000000E+99

> <Gold.Chemscore.Hbonds>
donor molecule, donor type, donor heavy atom, donor atom, acceptor molecule, acceptor atom, score
      L1  H    12    45       P1  7948  0.74
      P1  H  6896  6907       L1     7  0.92
      P1  H  6934  6947       L1    21  0.05

> <Gold.Chemscore.Hbond.Weighted>
-8.0147

> <Gold.Chemscore.Metal.Weighted>
-0.0000

> <Gold.Chemscore.Lipo.Weighted>
-8.2961

> <Gold.Chemscore.Internal_Hbond.Weighted>
0.0000

> <Gold.Chemscore.DEClash.Weighted>
0.0640

> <Gold.Chemscore.DEInternal.Weighted>
1.9291

> <Gold.Chemscore.Rot.Weighted>
3.9809

> <Gold.Chemscore.Internal.Correction.Weighted>
   9.000000E+99

> <Gold.Protein.RotatedTorsions>
[ 6907 6896 6895 6894 ] final  -81.77 input  -60.11 | X-H torsion
[ 7974 7965 7964 7962 ] final  112.87 input  175.53 | X-H torsion
[ 8008 7997 7996 7995 ] final   60.48 input   59.86 | X-H torsion
[ 10167 10162 10161 10158 ] final  117.49 input  -65.29 | X-H torsion
[ 10718 10713 10712 10709 ] final    1.54 input   66.30 | X-H torsion
[ 10763 10752 10751 10750 ] final -175.44 input  -60.55 | X-H torsion
[ 11005 11000 10999 10996 ] final   50.76 input  -57.11 | X-H torsion

> <Gold.Protein.ActiveResidues>
 VAL166  LYS551  ARG553  GLY616  TRP617  ASP618  TYR619  PRO620  LYS621  CYS622 
 ASP623  PHE694  ASN695  SER759  ASP760  ASP761  ALA762  ILE779  LEU786  VAL792 
 PHE793  MET794  SER795  GLU796  ALA797  LYS798  CYS799  TRP800  GLU811  SER814 

> <Gold.Protein.RotatedAtoms>
  150.6907  134.3767  159.5015 H   0  0  0  0  0  0  0  0  0  0  0  0  # atno 6907 bound_to 6896
  152.1575  134.8936  160.0553 H   0  0  0  0  0  0  0  0  0  0  0  0  # atno 6908 bound_to 6896
  152.0011  133.3791  159.4219 H   0  0  0  0  0  0  0  0  0  0  0  0  # atno 6909 bound_to 6896
  145.2241  139.2848  143.4202 H   0  0  0  0  0  0  0  0  0  0  0  0  # atno 7974 bound_to 7965
  155.5830  140.3491  155.4545 H   0  0  0  0  0  0  0  0  0  0  0  0  # atno 8008 bound_to 7997
  156.0359  140.1285  157.0234 H   0  0  0  0  0  0  0  0  0  0  0  0  # atno 8009 bound_to 7997
  154.4371  140.1034  156.6152 H   0  0  0  0  0  0  0  0  0  0  0  0  # atno 8010 bound_to 7997
  139.6175  144.7095  151.2706 H   0  0  0  0  0  0  0  0  0  0  0  0  # atno 10167 bound_to 10162
  156.8497  130.5549  149.5670 H   0  0  0  0  0  0  0  0  0  0  0  0  # atno 10718 bound_to 10713
  154.5844  135.2839  155.0700 H   0  0  0  0  0  0  0  0  0  0  0  0  # atno 10763 bound_to 10752
  154.2024  135.6422  153.5095 H   0  0  0  0  0  0  0  0  0  0  0  0  # atno 10764 bound_to 10752
  153.0099  135.5472  154.6508 H   0  0  0  0  0  0  0  0  0  0  0  0  # atno 10765 bound_to 10752
  140.0990  134.5107  155.8780 H   0  0  0  0  0  0  0  0  0  0  0  0  # atno 11005 bound_to 11000
  146.3369  140.2556  142.8600 LP  0  0  0  0  0  0  0  0  0  0  0  0  # atno 17320 bound_to 7965
  144.9737  140.8394  143.5439 LP  0  0  0  0  0  0  0  0  0  0  0  0  # atno 17321 bound_to 7965
  140.7361  143.6718  150.8075 LP  0  0  0  0  0  0  0  0  0  0  0  0  # atno 17342 bound_to 10162
  140.0324  143.5430  152.2754 LP  0  0  0  0  0  0  0  0  0  0  0  0  # atno 17343 bound_to 10162
  156.0835  130.5839  150.9605 LP  0  0  0  0  0  0  0  0  0  0  0  0  # atno 17370 bound_to 10713
  157.6310  131.0921  150.8441 LP  0  0  0  0  0  0  0  0  0  0  0  0  # atno 17371 bound_to 10713
  141.2100  133.6690  156.6479 LP  0  0  0  0  0  0  0  0  0  0  0  0  # atno 17394 bound_to 11000
  140.3247  134.7979  157.4280 LP  0  0  0  0  0  0  0  0  0  0  0  0  # atno 17395 bound_to 11000

$$$$
