AV-unprocessed.smi:243|AV-procd|sdf|1859|dock7
  -GOLD-   2262020493D 1   1.00000     0.00000
 Structure written by MMmdl.
 58 61  0  0  0  0  0  0  0  0  2 V2000
  144.9440  132.8727  150.5667 C   0  0  0  0  0  0  0  0  0  0  0  0
  146.3809  132.4092  150.2872 C   0  0  0  0  0  0  0  0  0  0  0  0
  147.0710  131.9303  151.5113 N   0  3  1  0  0  0  0  0  0  0  0  0
  147.4768  133.0491  152.3998 C   0  0  0  0  0  0  0  0  0  0  0  0
  148.3196  132.5426  153.5801 C   0  0  0  0  0  0  0  0  0  0  0  0
  147.5617  131.4562  154.3673 C   0  0  2  0  0  0  0  0  0  0  0  0
  148.2617  131.0181  155.5860 N   0  0  0  0  0  0  0  0  0  0  0  0
  148.0884  129.6618  156.1122 C   0  0  0  0  0  0  0  0  0  0  0  0
  148.5545  131.9894  156.4933 C   0  0  0  0  0  0  0  0  0  0  0  0
  149.3196  133.0466  156.1081 N   0  0  0  0  0  0  0  0  0  0  0  0
  149.6411  134.0061  156.9800 C   0  0  0  0  0  0  0  0  0  0  0  0
  149.3092  134.1070  158.2675 N   0  0  0  0  0  0  0  0  0  0  0  0
  148.5355  133.0562  158.6624 C   0  0  0  0  0  0  0  0  0  0  0  0
  148.1175  131.9630  157.8501 C   0  0  0  0  0  0  0  0  0  0  0  0
  147.3361  131.0938  158.6036 N   0  0  0  0  0  0  0  0  0  0  0  0
  147.3049  131.6338  159.7907 C   0  0  0  0  0  0  0  0  0  0  0  0
  147.9904  132.8204  159.9124 N   0  0  0  0  0  0  0  0  0  0  0  0
  148.1110  133.6403  161.1082 C   0  0  0  0  0  0  0  0  0  0  0  0
  147.1943  134.8860  161.0925 C   0  0  1  0  0  0  0  0  0  0  0  0
  145.9732  134.5532  160.4549 O   0  0  0  0  0  0  0  0  0  0  0  0
  146.8802  135.4482  162.4768 C   0  0  0  0  0  0  0  0  0  0  0  0
  146.7457  136.9417  162.2155 C   0  0  0  0  0  0  0  0  0  0  0  0
  147.7792  137.1816  161.2761 O   0  0  0  0  0  0  0  0  0  0  0  0
  147.8157  136.0920  160.3596 C   0  0  0  0  0  0  0  0  0  0  0  0
  147.1065  130.3071  153.4276 C   0  0  2  0  0  0  0  0  0  0  0  0
  148.2305  129.3834  152.9211 C   0  0  0  0  0  0  0  0  0  0  0  0
  146.2983  130.8966  152.2522 C   0  0  0  0  0  0  0  0  0  0  0  0
  144.4377  133.1298  149.6359 H   0  0  0  0  0  0  0  0  0  0  0  0
  144.9123  133.7553  151.2046 H   0  0  0  0  0  0  0  0  0  0  0  0
  144.3639  132.0859  151.0502 H   0  0  0  0  0  0  0  0  0  0  0  0
  146.3288  131.5960  149.5621 H   0  0  0  0  0  0  0  0  0  0  0  0
  146.9599  133.2048  149.8159 H   0  0  0  0  0  0  0  0  0  0  0  0
  148.0596  133.7782  151.8354 H   0  0  0  0  0  0  0  0  0  0  0  0
  146.5885  133.5675  152.7646 H   0  0  0  0  0  0  0  0  0  0  0  0
  149.2667  132.1579  153.2012 H   0  0  0  0  0  0  0  0  0  0  0  0
  148.5634  133.3783  154.2372 H   0  0  0  0  0  0  0  0  0  0  0  0
  146.6518  131.9530  154.6966 H   0  0  0  0  0  0  0  0  0  0  0  0
  148.8066  129.4603  156.9082 H   0  0  0  0  0  0  0  0  0  0  0  0
  148.2679  128.9154  155.3395 H   0  0  0  0  0  0  0  0  0  0  0  0
  147.0891  129.5030  156.5133 H   0  0  0  0  0  0  0  0  0  0  0  0
  150.2521  134.8072  156.5903 H   0  0  0  0  0  0  0  0  0  0  0  0
  146.7703  131.1817  160.6133 H   0  0  0  0  0  0  0  0  0  0  0  0
  147.8823  133.0150  161.9720 H   0  0  0  0  0  0  0  0  0  0  0  0
  149.1540  133.9412  161.2176 H   0  0  0  0  0  0  0  0  0  0  0  0
  145.3350  134.3427  161.1192 H   0  0  0  0  0  0  0  0  0  0  0  0
  145.9960  135.0100  162.9423 H   0  0  0  0  0  0  0  0  0  0  0  0
  147.7236  135.2886  163.1497 H   0  0  0  0  0  0  0  0  0  0  0  0
  145.7778  137.1792  161.7710 H   0  0  0  0  0  0  0  0  0  0  0  0
  146.8718  137.5426  163.1164 H   0  0  0  0  0  0  0  0  0  0  0  0
  148.8491  135.9107  160.0616 H   0  0  0  0  0  0  0  0  0  0  0  0
  147.2591  136.3560  159.4588 H   0  0  0  0  0  0  0  0  0  0  0  0
  146.4177  129.6720  153.9866 H   0  0  0  0  0  0  0  0  0  0  0  0
  149.0325  129.9384  152.4352 H   0  0  0  0  0  0  0  0  0  0  0  0
  147.8460  128.6634  152.1983 H   0  0  0  0  0  0  0  0  0  0  0  0
  148.6613  128.8023  153.7351 H   0  0  0  0  0  0  0  0  0  0  0  0
  145.3763  131.3437  152.6280 H   0  0  0  0  0  0  0  0  0  0  0  0
  145.9959  130.0912  151.5838 H   0  0  0  0  0  0  0  0  0  0  0  0
  147.9273  131.4927  151.2025 H   0  0  0  0  0  0  0  0  0  0  0  0
  1  2  1  0  0  0  0
  1 28  1  0  0  0  0
  1 29  1  0  0  0  0
  1 30  1  0  0  0  0
  2  3  1  0  0  0  0
  2 31  1  0  0  0  0
  2 32  1  0  0  0  0
  3 27  1  0  0  0  0
  3  4  1  0  0  0  0
  3 58  1  0  0  0  0
  4  5  1  0  0  0  0
  4 33  1  0  0  0  0
  4 34  1  0  0  0  0
  5  6  1  0  0  0  0
  5 35  1  0  0  0  0
  5 36  1  0  0  0  0
  6  7  1  0  0  0  0
  6 25  1  0  0  0  0
  6 37  1  0  0  0  0
  7  8  1  0  0  0  0
  7  9  1  0  0  0  0
  8 38  1  0  0  0  0
  8 39  1  0  0  0  0
  8 40  1  0  0  0  0
  9 14  1  0  0  0  0
  9 10  2  0  0  0  0
 10 11  1  0  0  0  0
 11 12  2  0  0  0  0
 11 41  1  0  0  0  0
 12 13  1  0  0  0  0
 13 17  1  0  0  0  0
 13 14  2  0  0  0  0
 14 15  1  0  0  0  0
 15 16  2  0  0  0  0
 16 17  1  0  0  0  0
 16 42  1  0  0  0  0
 17 18  1  0  0  0  0
 18 19  1  0  0  0  0
 18 43  1  0  0  0  0
 18 44  1  0  0  0  0
 19 24  1  0  0  0  0
 19 20  1  0  0  0  0
 19 21  1  0  0  0  0
 20 45  1  0  0  0  0
 21 22  1  0  0  0  0
 21 46  1  0  0  0  0
 21 47  1  0  0  0  0
 22 23  1  0  0  0  0
 22 48  1  0  0  0  0
 22 49  1  0  0  0  0
 23 24  1  0  0  0  0
 24 50  1  0  0  0  0
 24 51  1  0  0  0  0
 25 26  1  0  0  0  0
 25 27  1  0  0  0  0
 25 52  1  0  0  0  0
 26 53  1  0  0  0  0
 26 54  1  0  0  0  0
 26 55  1  0  0  0  0
 27 56  1  0  0  0  0
 27 57  1  0  0  0  0
M  CHG  1   3   1
M  END
> <s_m_source_file>
AV-unprocessed.smi

> <i_m_source_file_index>
243

> <i_lp_mmshare_version>
43012

> <i_f3d_flags>
0

> <s_epik_input>
W0NIM11bQ0gyXU4xW0NIMl1bQ0gyXVtDQEhdKFtDQEBIXShbQ0gzXSlbQ0gyXTEpTihbQ0gzXSljKG5bY0hdbjIpYyhjMjMpbltjSF1uM1tDSDJdW0NAQF00KFtPSF0pW0NIMl1bQ0gyXU9bQ0gyXTQ=

> <s_epik_cmdline>
J2VwaWtfcHl0aG9uJywgJy1waCcsICc3LjAnLCAnLXRuJywgJzgnLCAnLW1hJywgJzIwMCcsICctbWV0YWxfYmluZGluZycsICctaW1hZScsICc8aW5maWxlLm1hZT4nLCAnLW9tYWUnLCAnPG91dGZpbGUubWFlPic=

> <r_lp_tautomer_probability>
1

> <r_epik_Ionization_Penalty>
0.00253099

> <r_epik_Ionization_Penalty_Charging>
0.00137877

> <r_epik_Ionization_Penalty_Neutral>
0.00115221

> <r_epik_State_Penalty>
-0

> <r_epik_Charging_Adjusted_Penalty>
0.00137877

> <i_epik_Tot_Q>
1

> <i_epik_Tot_abs_Q>
1

> <r_epik_Metal_State_Penalty>
-0

> <b_epik_Metal_Only>
0

> <s_lp_Force_Field>
OPLS_2005

> <r_lp_Energy>
49.5807

> <b_lp_Chiralities_Consistent>
1

> <s_lp_Variant>
AV-unprocessed.smi:243-12

> <Gold.Version>
5.8.1

> <Gold.Id.Protein>
6NUR|6NUR_protein|mol2

> <Gold.PLP.Fitness>
45.0171

> <Gold.PLP.PLP>
-36.0147

> <Gold.PLP.part.hbond>
-4.0000

> <Gold.PLP.part.metal>
0.0000

> <Gold.PLP.part.buried>
-4.1096

> <Gold.PLP.part.nonpolar>
-27.5166

> <Gold.PLP.part.repulsive>
0.0160

> <Gold.PLP.ligand.clash>
0.0000

> <Gold.PLP.ligand.torsion>
1.7840

> <Gold.PLP.Chemscore.Hbond>
3.8800

> <Gold.PLP.Chemscore.CHOScore>
0.0000

> <Gold.PLP.Chemscore.Metal>
0.0000

> <Gold.Chemscore.Hbonds>
donor molecule, donor type, donor heavy atom, donor atom, acceptor molecule, acceptor atom, score
      L1  H     3    58       P1 10747  1.00
      P1  H  6896  6908       L1    12  1.00
      P1  H  6931  6943       L1    23  0.99
      P1  H  6934  6947       L1    23  0.52

> <Gold.PLP.Chemscore.Internal.Correction>
0.9304

> <Gold.Rescore>
     Score         DG    S(hbond)    S(metal)    S(lipo)     H(rot)  DE(clash)    DE(int)     intcor
     14.49     -19.27       2.61        0.00      92.28       2.24       0.46       4.31       ----

> <Gold.Chemscore.Fitness>
14.4927

> <Gold.Chemscore.DG>
-19.2656

> <Gold.Chemscore.ZeroCoef>
-5.4800

> <Gold.Chemscore.Hbond>
2.6100

> <Gold.Chemscore.Metal>
0.0000

> <Gold.Chemscore.Lipo>
92.2833

> <Gold.Chemscore.Internal_Hbond>
0.0000

> <Gold.Chemscore.DEClash>
0.4584

> <Gold.Chemscore.DEInternal>
4.3145

> <Gold.Chemscore.Rot>
2.2379

> <Gold.Chemscore.Internal.Correction>
   9.000000E+99

> <Gold.Chemscore.Hbonds>
donor molecule, donor type, donor heavy atom, donor atom, acceptor molecule, acceptor atom, score
      L1  H     3    58       P1 10747  0.93
      P1  H  6896  6908       L1    12  0.22
      P1  H  6931  6943       L1    23  0.81
      P1  H  6934  6947       L1    23  0.04

> <Gold.Chemscore.Hbond.Weighted>
-8.7175

> <Gold.Chemscore.Metal.Weighted>
-0.0000

> <Gold.Chemscore.Lipo.Weighted>
-10.7971

> <Gold.Chemscore.Internal_Hbond.Weighted>
0.0000

> <Gold.Chemscore.DEClash.Weighted>
0.4584

> <Gold.Chemscore.DEInternal.Weighted>
4.3145

> <Gold.Chemscore.Rot.Weighted>
5.7291

> <Gold.Chemscore.Internal.Correction.Weighted>
   9.000000E+99

> <Gold.Protein.RotatedTorsions>
[ 6907 6896 6895 6894 ] final  122.64 input  -60.11 | X-H torsion
[ 7974 7965 7964 7962 ] final  129.37 input  175.53 | X-H torsion
[ 8008 7997 7996 7995 ] final  167.98 input   59.86 | X-H torsion
[ 10167 10162 10161 10158 ] final  133.07 input  -65.29 | X-H torsion
[ 10718 10713 10712 10709 ] final  -47.79 input   66.30 | X-H torsion
[ 10763 10752 10751 10750 ] final   52.96 input  -60.55 | X-H torsion
[ 11005 11000 10999 10996 ] final   80.16 input  -57.11 | X-H torsion

> <Gold.Protein.ActiveResidues>
 VAL166  LYS551  ARG553  GLY616  TRP617  ASP618  TYR619  PRO620  LYS621  CYS622 
 ASP623  PHE694  ASN695  SER759  ASP760  ASP761  ALA762  ILE779  LEU786  VAL792 
 PHE793  MET794  SER795  GLU796  ALA797  LYS798  CYS799  TRP800  GLU811  SER814 

> <Gold.Protein.RotatedAtoms>
  152.4226  133.7142  159.6495 H   0  0  0  0  0  0  0  0  0  0  0  0  # atno 6907 bound_to 6896
  150.8102  133.8425  159.3192 H   0  0  0  0  0  0  0  0  0  0  0  0  # atno 6908 bound_to 6896
  151.6137  135.1040  160.0138 H   0  0  0  0  0  0  0  0  0  0  0  0  # atno 6909 bound_to 6896
  145.0293  139.4060  143.5157 H   0  0  0  0  0  0  0  0  0  0  0  0  # atno 7974 bound_to 7965
  156.1587  140.1602  156.8649 H   0  0  0  0  0  0  0  0  0  0  0  0  # atno 8008 bound_to 7997
  154.5140  140.0794  156.8080 H   0  0  0  0  0  0  0  0  0  0  0  0  # atno 8009 bound_to 7997
  155.3751  140.3402  155.4247 H   0  0  0  0  0  0  0  0  0  0  0  0  # atno 8010 bound_to 7997
  139.5313  144.6633  151.4942 H   0  0  0  0  0  0  0  0  0  0  0  0  # atno 10167 bound_to 10162
  156.2051  130.4158  149.9189 H   0  0  0  0  0  0  0  0  0  0  0  0  # atno 10718 bound_to 10713
  152.9792  135.5795  154.4664 H   0  0  0  0  0  0  0  0  0  0  0  0  # atno 10763 bound_to 10752
  154.4233  135.2772  155.1963 H   0  0  0  0  0  0  0  0  0  0  0  0  # atno 10764 bound_to 10752
  154.3703  135.6169  153.5790 H   0  0  0  0  0  0  0  0  0  0  0  0  # atno 10765 bound_to 10752
  139.9145  134.7899  156.1873 H   0  0  0  0  0  0  0  0  0  0  0  0  # atno 11005 bound_to 11000
  146.3496  139.9835  142.8693 LP  0  0  0  0  0  0  0  0  0  0  0  0  # atno 17320 bound_to 7965
  145.1791  140.9758  143.4277 LP  0  0  0  0  0  0  0  0  0  0  0  0  # atno 17321 bound_to 7965
  140.6492  143.8731  150.6768 LP  0  0  0  0  0  0  0  0  0  0  0  0  # atno 17342 bound_to 10162
  140.2091  143.3898  152.1732 LP  0  0  0  0  0  0  0  0  0  0  0  0  # atno 17343 bound_to 10162
  156.6886  130.8887  151.3585 LP  0  0  0  0  0  0  0  0  0  0  0  0  # atno 17370 bound_to 10713
  157.7007  130.9330  150.0778 LP  0  0  0  0  0  0  0  0  0  0  0  0  # atno 17371 bound_to 10713
  141.0605  133.6844  156.1943 LP  0  0  0  0  0  0  0  0  0  0  0  0  # atno 17394 bound_to 11000
  140.6668  134.4910  157.5586 LP  0  0  0  0  0  0  0  0  0  0  0  0  # atno 17395 bound_to 11000

$$$$
