AV-unprocessed.smi:249|AV-procd|sdf|1908|dock5
  -GOLD-   2262020593D 1   1.00000     0.00000
 Structure written by MMmdl.
 64 67  0  0  0  0  0  0  0  0  2 V2000
  146.5926  132.6165  152.2661 C   0  0  0  0  0  0  0  0  0  0  0  0
  147.9378  133.1447  152.7906 C   0  0  0  0  0  0  0  0  0  0  0  0
  148.0493  133.1250  154.2782 N   0  3  2  0  0  0  0  0  0  0  0  0
  147.7604  134.4621  154.8721 C   0  0  0  0  0  0  0  0  0  0  0  0
  147.7983  134.4378  156.4081 C   0  0  0  0  0  0  0  0  0  0  0  0
  149.1634  133.9481  156.9343 C   0  0  2  0  0  0  0  0  0  0  0  0
  150.2785  134.8660  156.6469 N   0  0  0  0  0  0  0  0  0  0  0  0
  151.6143  134.2893  156.5373 C   0  0  0  0  0  0  0  0  0  0  0  0
  150.3137  136.0052  157.3735 C   0  0  0  0  0  0  0  0  0  0  0  0
  149.5355  136.0572  158.4822 N   0  0  0  0  0  0  0  0  0  0  0  0
  149.5462  137.1492  159.2527 C   0  0  0  0  0  0  0  0  0  0  0  0
  150.2519  138.2719  159.0998 N   0  0  0  0  0  0  0  0  0  0  0  0
  151.0281  138.2231  157.9793 C   0  0  0  0  0  0  0  0  0  0  0  0
  151.1106  137.1413  157.0594 C   0  0  0  0  0  0  0  0  0  0  0  0
  151.9917  137.4559  156.0321 N   0  0  0  0  0  0  0  0  0  0  0  0
  152.4179  138.6517  156.3351 C   0  0  0  0  0  0  0  0  0  0  0  0
  151.9127  139.1751  157.5046 N   0  0  0  0  0  0  0  0  0  0  0  0
  152.2264  140.4689  158.0829 C   0  0  0  0  0  0  0  0  0  0  0  0
  151.0874  141.5227  157.9806 C   0  0  2  0  0  0  0  0  0  0  0  0
  150.4380  141.4300  156.5780 C   0  0  0  0  0  0  0  0  0  0  0  0
  149.2204  142.1449  156.5245 O   0  0  0  0  0  0  0  0  0  0  0  0
  151.5600  142.9743  158.3010 C   0  0  1  0  0  0  0  0  0  0  0  0
  150.4453  143.9682  158.5942 C   0  0  0  0  0  0  0  0  0  0  0  0
  151.1876  145.0950  159.2974 C   0  0  0  0  0  0  0  0  0  0  0  0
  152.1470  144.4335  160.1057 O   0  0  0  0  0  0  0  0  0  0  0  0
  152.4085  143.1372  159.5757 C   0  0  0  0  0  0  0  0  0  0  0  0
  149.3867  132.5523  156.3245 C   0  0  0  0  0  0  0  0  0  0  0  0
  149.3464  132.5606  154.7780 C   0  0  1  0  0  0  0  0  0  0  0  0
  149.6168  131.1281  154.2727 C   0  0  0  0  0  0  0  0  0  0  0  0
  146.6283  132.4969  151.1831 H   0  0  0  0  0  0  0  0  0  0  0  0
  145.7683  133.2966  152.4786 H   0  0  0  0  0  0  0  0  0  0  0  0
  146.3539  131.6430  152.6955 H   0  0  0  0  0  0  0  0  0  0  0  0
  148.6989  132.5073  152.3464 H   0  0  0  0  0  0  0  0  0  0  0  0
  148.1207  134.1533  152.4176 H   0  0  0  0  0  0  0  0  0  0  0  0
  148.4718  135.1933  154.4861 H   0  0  0  0  0  0  0  0  0  0  0  0
  146.7701  134.8042  154.5770 H   0  0  0  0  0  0  0  0  0  0  0  0
  147.5413  135.4199  156.8054 H   0  0  0  0  0  0  0  0  0  0  0  0
  147.0152  133.7703  156.7707 H   0  0  0  0  0  0  0  0  0  0  0  0
  149.0990  133.8360  158.0170 H   0  0  0  0  0  0  0  0  0  0  0  0
  152.3956  135.0497  156.5912 H   0  0  0  0  0  0  0  0  0  0  0  0
  151.7269  133.7779  155.5815 H   0  0  0  0  0  0  0  0  0  0  0  0
  151.7887  133.5674  157.3359 H   0  0  0  0  0  0  0  0  0  0  0  0
  148.9018  137.1171  160.1190 H   0  0  0  0  0  0  0  0  0  0  0  0
  153.1320  139.1797  155.7200 H   0  0  0  0  0  0  0  0  0  0  0  0
  152.4993  140.3215  159.1285 H   0  0  0  0  0  0  0  0  0  0  0  0
  153.1261  140.8272  157.5823 H   0  0  0  0  0  0  0  0  0  0  0  0
  150.3122  141.2648  158.7036 H   0  0  0  0  0  0  0  0  0  0  0  0
  151.0790  141.8613  155.8106 H   0  0  0  0  0  0  0  0  0  0  0  0
  150.2594  140.3906  156.3008 H   0  0  0  0  0  0  0  0  0  0  0  0
  149.3974  143.0186  156.2105 H   0  0  0  0  0  0  0  0  0  0  0  0
  152.1296  143.3583  157.4531 H   0  0  0  0  0  0  0  0  0  0  0  0
  149.9305  144.3157  157.6980 H   0  0  0  0  0  0  0  0  0  0  0  0
  149.7080  143.5302  159.2688 H   0  0  0  0  0  0  0  0  0  0  0  0
  151.7062  145.7233  158.5721 H   0  0  0  0  0  0  0  0  0  0  0  0
  150.5291  145.7285  159.8918 H   0  0  0  0  0  0  0  0  0  0  0  0
  152.1298  142.4051  160.3342 H   0  0  0  0  0  0  0  0  0  0  0  0
  153.4743  143.0313  159.3791 H   0  0  0  0  0  0  0  0  0  0  0  0
  150.3271  132.1298  156.6789 H   0  0  0  0  0  0  0  0  0  0  0  0
  148.6136  131.8779  156.6962 H   0  0  0  0  0  0  0  0  0  0  0  0
  150.1528  133.2005  154.4158 H   0  0  0  0  0  0  0  0  0  0  0  0
  150.4796  130.6935  154.7784 H   0  0  0  0  0  0  0  0  0  0  0  0
  149.8488  131.0986  153.2088 H   0  0  0  0  0  0  0  0  0  0  0  0
  148.7651  130.4726  154.4574 H   0  0  0  0  0  0  0  0  0  0  0  0
  147.3269  132.5020  154.6102 H   0  0  0  0  0  0  0  0  0  0  0  0
  1  2  1  0  0  0  0
  1 30  1  0  0  0  0
  1 31  1  0  0  0  0
  1 32  1  0  0  0  0
  2  3  1  0  0  0  0
  2 33  1  0  0  0  0
  2 34  1  0  0  0  0
  3 28  1  0  0  0  0
  3  4  1  0  0  0  0
  3 64  1  0  0  0  0
  4  5  1  0  0  0  0
  4 35  1  0  0  0  0
  4 36  1  0  0  0  0
  5  6  1  0  0  0  0
  5 37  1  0  0  0  0
  5 38  1  0  0  0  0
  6  7  1  0  0  0  0
  6 27  1  0  0  0  0
  6 39  1  0  0  0  0
  7  8  1  0  0  0  0
  7  9  1  0  0  0  0
  8 40  1  0  0  0  0
  8 41  1  0  0  0  0
  8 42  1  0  0  0  0
  9 14  1  0  0  0  0
  9 10  2  0  0  0  0
 10 11  1  0  0  0  0
 11 12  2  0  0  0  0
 11 43  1  0  0  0  0
 12 13  1  0  0  0  0
 13 17  1  0  0  0  0
 13 14  2  0  0  0  0
 14 15  1  0  0  0  0
 15 16  2  0  0  0  0
 16 17  1  0  0  0  0
 16 44  1  0  0  0  0
 17 18  1  0  0  0  0
 18 19  1  0  0  0  0
 18 45  1  0  0  0  0
 18 46  1  0  0  0  0
 19 20  1  0  0  0  0
 19 22  1  0  0  0  0
 19 47  1  0  0  0  0
 20 21  1  0  0  0  0
 20 48  1  0  0  0  0
 20 49  1  0  0  0  0
 21 50  1  0  0  0  0
 22 26  1  0  0  0  0
 22 23  1  0  0  0  0
 22 51  1  0  0  0  0
 23 24  1  0  0  0  0
 23 52  1  0  0  0  0
 23 53  1  0  0  0  0
 24 25  1  0  0  0  0
 24 54  1  0  0  0  0
 24 55  1  0  0  0  0
 25 26  1  0  0  0  0
 26 56  1  0  0  0  0
 26 57  1  0  0  0  0
 27 28  1  0  0  0  0
 27 58  1  0  0  0  0
 27 59  1  0  0  0  0
 28 29  1  0  0  0  0
 28 60  1  0  0  0  0
 29 61  1  0  0  0  0
 29 62  1  0  0  0  0
 29 63  1  0  0  0  0
M  CHG  1   3   1
M  END
> <s_m_source_file>
AV-unprocessed.smi

> <i_m_source_file_index>
249

> <i_lp_mmshare_version>
43012

> <i_f3d_flags>
0

> <s_epik_input>
W0NIM11bQ0gyXU4xW0NIMl1bQ0gyXVtDQEhdKFtDSDJdW0NASF0xW0NIM10pTihbQ0gzXSljKG5bY0hdbjIpYyhjMjMpbltjSF1uM1tDSDJdW0NASF0oW0NIMl1bT0hdKVtDQEBIXTRbQ0gyXVtDSDJdT1tDSDJdNA==

> <s_epik_cmdline>
J2VwaWtfcHl0aG9uJywgJy1waCcsICc3LjAnLCAnLXRuJywgJzgnLCAnLW1hJywgJzIwMCcsICctbWV0YWxfYmluZGluZycsICctaW1hZScsICc8aW5maWxlLm1hZT4nLCAnLW9tYWUnLCAnPG91dGZpbGUubWFlPic=

> <r_lp_tautomer_probability>
1

> <r_epik_Ionization_Penalty>
0.00294688

> <r_epik_Ionization_Penalty_Charging>
0.00169971

> <r_epik_Ionization_Penalty_Neutral>
0.00124717

> <r_epik_State_Penalty>
-0

> <r_epik_Charging_Adjusted_Penalty>
0.00169971

> <i_epik_Tot_Q>
1

> <i_epik_Tot_abs_Q>
1

> <r_epik_Metal_State_Penalty>
-0

> <b_epik_Metal_Only>
0

> <s_lp_Force_Field>
OPLS_2005

> <r_lp_Energy>
57.0978

> <b_lp_Chiralities_Consistent>
1

> <s_lp_Variant>
AV-unprocessed.smi:249-11

> <Gold.Version>
5.8.1

> <Gold.Id.Protein>
6NUR|6NUR_protein|mol2

> <Gold.PLP.Fitness>
43.3338

> <Gold.PLP.PLP>
-40.0916

> <Gold.PLP.part.hbond>
-2.6805

> <Gold.PLP.part.metal>
0.0000

> <Gold.PLP.part.buried>
-5.3052

> <Gold.PLP.part.nonpolar>
-32.3269

> <Gold.PLP.part.repulsive>
0.0604

> <Gold.PLP.ligand.clash>
0.0000

> <Gold.PLP.ligand.torsion>
1.6643

> <Gold.PLP.Chemscore.Hbond>
1.9750

> <Gold.PLP.Chemscore.CHOScore>
0.0000

> <Gold.PLP.Chemscore.Metal>
0.0000

> <Gold.Chemscore.Hbonds>
donor molecule, donor type, donor heavy atom, donor atom, acceptor molecule, acceptor atom, score
      L1  H    21    50       P1  8028  1.00
      P1  H  6896  6909       L1    10  0.49

> <Gold.PLP.Chemscore.Internal.Correction>
0.6459

> <Gold.Rescore>
     Score         DG    S(hbond)    S(metal)    S(lipo)     H(rot)  DE(clash)    DE(int)     intcor
     13.15     -15.89       1.64        0.00     105.63       2.90       0.13       2.62       ----

> <Gold.Chemscore.Fitness>
13.1479

> <Gold.Chemscore.DG>
-15.8932

> <Gold.Chemscore.ZeroCoef>
-5.4800

> <Gold.Chemscore.Hbond>
1.6408

> <Gold.Chemscore.Metal>
0.0000

> <Gold.Chemscore.Lipo>
105.6295

> <Gold.Chemscore.Internal_Hbond>
0.0000

> <Gold.Chemscore.DEClash>
0.1276

> <Gold.Chemscore.DEInternal>
2.6177

> <Gold.Chemscore.Rot>
2.9006

> <Gold.Chemscore.Internal.Correction>
   9.000000E+99

> <Gold.Chemscore.Hbonds>
donor molecule, donor type, donor heavy atom, donor atom, acceptor molecule, acceptor atom, score
      L1  H    21    50       P1  8028  0.97
      P1  H  6896  6909       L1    10  0.01
      P1  H 10752 10764       L1    15  0.01

> <Gold.Chemscore.Hbond.Weighted>
-5.4802

> <Gold.Chemscore.Metal.Weighted>
-0.0000

> <Gold.Chemscore.Lipo.Weighted>
-12.3587

> <Gold.Chemscore.Internal_Hbond.Weighted>
0.0000

> <Gold.Chemscore.DEClash.Weighted>
0.1276

> <Gold.Chemscore.DEInternal.Weighted>
2.6177

> <Gold.Chemscore.Rot.Weighted>
7.4256

> <Gold.Chemscore.Internal.Correction.Weighted>
   9.000000E+99

> <Gold.Protein.RotatedTorsions>
[ 6907 6896 6895 6894 ] final   69.36 input  -60.11 | X-H torsion
[ 7974 7965 7964 7962 ] final   15.61 input  175.53 | X-H torsion
[ 8008 7997 7996 7995 ] final  130.34 input   59.86 | X-H torsion
[ 10167 10162 10161 10158 ] final  153.08 input  -65.29 | X-H torsion
[ 10718 10713 10712 10709 ] final -160.09 input   66.30 | X-H torsion
[ 10763 10752 10751 10750 ] final  -52.83 input  -60.55 | X-H torsion
[ 11005 11000 10999 10996 ] final   42.69 input  -57.11 | X-H torsion

> <Gold.Protein.ActiveResidues>
 VAL166  LYS551  ARG553  GLY616  TRP617  ASP618  TYR619  PRO620  LYS621  CYS622 
 ASP623  PHE694  ASN695  SER759  ASP760  ASP761  ALA762  ILE779  LEU786  VAL792 
 PHE793  MET794  SER795  GLU796  ALA797  LYS798  CYS799  TRP800  GLU811  SER814 

> <Gold.Protein.RotatedAtoms>
  152.4681  134.5027  159.9729 H   0  0  0  0  0  0  0  0  0  0  0  0  # atno 6907 bound_to 6896
  151.5060  133.3488  159.2885 H   0  0  0  0  0  0  0  0  0  0  0  0  # atno 6908 bound_to 6896
  150.8676  134.8071  159.7192 H   0  0  0  0  0  0  0  0  0  0  0  0  # atno 6909 bound_to 6896
  146.2273  139.8868  142.8561 H   0  0  0  0  0  0  0  0  0  0  0  0  # atno 7974 bound_to 7965
  156.2953  140.2598  156.2746 H   0  0  0  0  0  0  0  0  0  0  0  0  # atno 8008 bound_to 7997
  154.9661  140.0392  157.2231 H   0  0  0  0  0  0  0  0  0  0  0  0  # atno 8009 bound_to 7997
  154.7901  140.2810  155.6002 H   0  0  0  0  0  0  0  0  0  0  0  0  # atno 8010 bound_to 7997
  139.4829  144.5303  151.7733 H   0  0  0  0  0  0  0  0  0  0  0  0  # atno 10167 bound_to 10162
  156.5773  130.8714  151.2854 H   0  0  0  0  0  0  0  0  0  0  0  0  # atno 10718 bound_to 10713
  154.1491  135.6493  153.4959 H   0  0  0  0  0  0  0  0  0  0  0  0  # atno 10763 bound_to 10752
  153.0143  135.5333  154.6827 H   0  0  0  0  0  0  0  0  0  0  0  0  # atno 10764 bound_to 10752
  154.6109  135.2954  155.0404 H   0  0  0  0  0  0  0  0  0  0  0  0  # atno 10765 bound_to 10752
  140.1715  134.4216  155.8254 H   0  0  0  0  0  0  0  0  0  0  0  0  # atno 11005 bound_to 11000
  145.2457  141.0026  143.3910 LP  0  0  0  0  0  0  0  0  0  0  0  0  # atno 17320 bound_to 7965
  144.9415  139.4183  143.6446 LP  0  0  0  0  0  0  0  0  0  0  0  0  # atno 17321 bound_to 7965
  140.4829  144.1424  150.5936 LP  0  0  0  0  0  0  0  0  0  0  0  0  # atno 17342 bound_to 10162
  140.4258  143.2591  151.9658 LP  0  0  0  0  0  0  0  0  0  0  0  0  # atno 17343 bound_to 10162
  157.7335  130.9731  150.1979 LP  0  0  0  0  0  0  0  0  0  0  0  0  # atno 17370 bound_to 10713
  156.2662  130.3716  149.8078 LP  0  0  0  0  0  0  0  0  0  0  0  0  # atno 17371 bound_to 10713
  141.2217  133.6958  156.7771 LP  0  0  0  0  0  0  0  0  0  0  0  0  # atno 17394 bound_to 11000
  140.2372  134.8641  157.3537 LP  0  0  0  0  0  0  0  0  0  0  0  0  # atno 17395 bound_to 11000

$$$$
