AV-unprocessed.smi:3307|AV-procd|sdf|12707|dock9
  -GOLD-   2272019 43D 1   1.00000     0.00000
 Structure written by MMmdl.
 31 32  0  0  0  0  0  0  0  0  2 V2000
  153.8673  141.4241  161.5859 C   0  0  0  0  0  0  0  0  0  0  0  0
  153.1277  142.5012  160.8487 C   0  0  0  0  0  0  0  0  0  0  0  0
  152.4795  143.6498  161.3824 C   0  0  0  0  0  0  0  0  0  0  0  0
  151.9699  144.2894  160.2877 C   0  0  0  0  0  0  0  0  0  0  0  0
  151.1815  145.5541  160.1928 C   0  0  0  0  0  0  0  0  0  0  0  0
  152.3190  143.5331  159.1832 N   0  0  0  0  0  0  0  0  0  0  0  0
  152.0322  143.7736  157.7782 C   0  0  0  0  0  0  0  0  0  0  0  0
  151.1397  142.6788  157.1645 C   0  0  1  0  0  0  0  0  0  0  0  0
  151.5393  141.2401  157.5089 C   0  0  0  0  0  0  0  0  0  0  0  0
  150.2393  140.4715  157.3065 C   0  0  0  0  0  0  0  0  0  0  0  0
  149.1696  141.4570  157.7825 C   0  0  0  0  0  0  0  0  0  0  0  0
  149.7335  142.8095  157.5955 N   0  3  0  0  0  0  0  0  0  0  0  0
  153.0272  142.4373  159.5314 N   0  0  0  0  0  0  0  0  0  0  0  0
  153.8452  141.5963  162.6621 H   0  0  0  0  0  0  0  0  0  0  0  0
  154.9124  141.3840  161.2784 H   0  0  0  0  0  0  0  0  0  0  0  0
  153.4255  140.4451  161.3984 H   0  0  0  0  0  0  0  0  0  0  0  0
  152.4001  143.9573  162.4147 H   0  0  0  0  0  0  0  0  0  0  0  0
  151.0182  145.9849  161.1808 H   0  0  0  0  0  0  0  0  0  0  0  0
  150.2052  145.3714  159.7437 H   0  0  0  0  0  0  0  0  0  0  0  0
  151.7030  146.2950  159.5875 H   0  0  0  0  0  0  0  0  0  0  0  0
  151.5523  144.7492  157.6827 H   0  0  0  0  0  0  0  0  0  0  0  0
  152.9759  143.8421  157.2363 H   0  0  0  0  0  0  0  0  0  0  0  0
  151.1438  142.7785  156.0782 H   0  0  0  0  0  0  0  0  0  0  0  0
  152.3543  140.8659  156.8883 H   0  0  0  0  0  0  0  0  0  0  0  0
  151.8501  141.1705  158.5526 H   0  0  0  0  0  0  0  0  0  0  0  0
  150.1000  140.2564  156.2462 H   0  0  0  0  0  0  0  0  0  0  0  0
  150.2158  139.5253  157.8479 H   0  0  0  0  0  0  0  0  0  0  0  0
  148.2299  141.3393  157.2425 H   0  0  0  0  0  0  0  0  0  0  0  0
  148.9683  141.3132  158.8445 H   0  0  0  0  0  0  0  0  0  0  0  0
  149.6970  143.2968  158.4793 H   0  0  0  0  0  0  0  0  0  0  0  0
  149.2077  143.3233  156.9029 H   0  0  0  0  0  0  0  0  0  0  0  0
  1  2  1  0  0  0  0
  1 14  1  0  0  0  0
  1 15  1  0  0  0  0
  1 16  1  0  0  0  0
  2 13  2  0  0  0  0
  2  3  1  0  0  0  0
  3  4  2  0  0  0  0
  3 17  1  0  0  0  0
  4  5  1  0  0  0  0
  4  6  1  0  0  0  0
  5 18  1  0  0  0  0
  5 19  1  0  0  0  0
  5 20  1  0  0  0  0
  6  7  1  0  0  0  0
  6 13  1  0  0  0  0
  7  8  1  0  0  0  0
  7 21  1  0  0  0  0
  7 22  1  0  0  0  0
  8 12  1  0  0  0  0
  8  9  1  0  0  0  0
  8 23  1  0  0  0  0
  9 10  1  0  0  0  0
  9 24  1  0  0  0  0
  9 25  1  0  0  0  0
 10 11  1  0  0  0  0
 10 26  1  0  0  0  0
 10 27  1  0  0  0  0
 11 12  1  0  0  0  0
 11 28  1  0  0  0  0
 11 29  1  0  0  0  0
 12 30  1  0  0  0  0
 12 31  1  0  0  0  0
M  CHG  1  12   1
M  END
> <s_m_source_file>
AV-unprocessed.smi

> <i_m_source_file_index>
3307

> <i_lp_mmshare_version>
43012

> <i_f3d_flags>
0

> <s_epik_input>
W0NIM11jMVtjSF1jKFtDSDNdKW4objEpW0NIMl1bQ0BASF0yW0NIMl1bQ0gyXVtDSDJdW05IXTI=

> <s_epik_cmdline>
J2VwaWtfcHl0aG9uJywgJy1waCcsICc3LjAnLCAnLXRuJywgJzgnLCAnLW1hJywgJzIwMCcsICctbWV0YWxfYmluZGluZycsICctaW1hZScsICc8aW5maWxlLm1hZT4nLCAnLW9tYWUnLCAnPG91dGZpbGUubWFlPic=

> <r_lp_tautomer_probability>
1

> <r_epik_Ionization_Penalty>
0.000974324

> <r_epik_Ionization_Penalty_Charging>
0.000863359

> <r_epik_Ionization_Penalty_Neutral>
0.000110964

> <r_epik_State_Penalty>
-0

> <r_epik_Charging_Adjusted_Penalty>
0.000863359

> <i_epik_Tot_Q>
1

> <i_epik_Tot_abs_Q>
1

> <r_epik_Metal_State_Penalty>
-0

> <b_epik_Metal_Only>
0

> <s_lp_Force_Field>
OPLS_2005

> <r_lp_Energy>
22.7328

> <b_lp_Chiralities_Consistent>
1

> <s_lp_Variant>
AV-unprocessed.smi:3307-2

> <Gold.Version>
5.8.1

> <Gold.Id.Protein>
6NUR|6NUR_protein|mol2

> <Gold.PLP.Fitness>
40.7456

> <Gold.PLP.PLP>
-34.9859

> <Gold.PLP.part.hbond>
-1.0000

> <Gold.PLP.part.metal>
0.0000

> <Gold.PLP.part.buried>
-5.2383

> <Gold.PLP.part.nonpolar>
-28.7805

> <Gold.PLP.part.repulsive>
0.0291

> <Gold.PLP.ligand.clash>
0.0000

> <Gold.PLP.ligand.torsion>
0.1202

> <Gold.PLP.Chemscore.Hbond>
2.0000

> <Gold.PLP.Chemscore.CHOScore>
0.0000

> <Gold.PLP.Chemscore.Metal>
0.0000

> <Gold.Chemscore.Hbonds>
donor molecule, donor type, donor heavy atom, donor atom, acceptor molecule, acceptor atom, score
      L1  H    12    31       P1  8028  2.00

> <Gold.PLP.Chemscore.Internal.Correction>
0.0001

> <Gold.Rescore>
     Score         DG    S(hbond)    S(metal)    S(lipo)     H(rot)  DE(clash)    DE(int)     intcor
     15.22     -16.82       0.99        0.00      94.24       1.16       0.06       1.54       ----

> <Gold.Chemscore.Fitness>
15.2248

> <Gold.Chemscore.DG>
-16.8197

> <Gold.Chemscore.ZeroCoef>
-5.4800

> <Gold.Chemscore.Hbond>
0.9852

> <Gold.Chemscore.Metal>
0.0000

> <Gold.Chemscore.Lipo>
94.2378

> <Gold.Chemscore.Internal_Hbond>
0.0000

> <Gold.Chemscore.DEClash>
0.0551

> <Gold.Chemscore.DEInternal>
1.5398

> <Gold.Chemscore.Rot>
1.1628

> <Gold.Chemscore.Internal.Correction>
   9.000000E+99

> <Gold.Chemscore.Hbonds>
donor molecule, donor type, donor heavy atom, donor atom, acceptor molecule, acceptor atom, score
      L1  H    12    31       P1  8028  0.91

> <Gold.Chemscore.Hbond.Weighted>
-3.2907

> <Gold.Chemscore.Metal.Weighted>
-0.0000

> <Gold.Chemscore.Lipo.Weighted>
-11.0258

> <Gold.Chemscore.Internal_Hbond.Weighted>
0.0000

> <Gold.Chemscore.DEClash.Weighted>
0.0551

> <Gold.Chemscore.DEInternal.Weighted>
1.5398

> <Gold.Chemscore.Rot.Weighted>
2.9768

> <Gold.Chemscore.Internal.Correction.Weighted>
   9.000000E+99

> <Gold.Protein.RotatedTorsions>
[ 6907 6896 6895 6894 ] final  139.81 input  -60.11 | X-H torsion
[ 7974 7965 7964 7962 ] final   26.15 input  175.53 | X-H torsion
[ 8008 7997 7996 7995 ] final  145.75 input   59.86 | X-H torsion
[ 10167 10162 10161 10158 ] final   61.80 input  -65.29 | X-H torsion
[ 10718 10713 10712 10709 ] final  -99.48 input   66.30 | X-H torsion
[ 10763 10752 10751 10750 ] final  -36.11 input  -60.55 | X-H torsion
[ 11005 11000 10999 10996 ] final   68.86 input  -57.11 | X-H torsion

> <Gold.Protein.ActiveResidues>
 VAL166  LYS551  ARG553  GLY616  TRP617  ASP618  TYR619  PRO620  LYS621  CYS622 
 ASP623  PHE694  ASN695  SER759  ASP760  ASP761  ALA762  ILE779  LEU786  VAL792 
 PHE793  MET794  SER795  GLU796  ALA797  LYS798  CYS799  TRP800  GLU811  SER814 

> <Gold.Protein.RotatedAtoms>
  152.2505  133.5211  159.5322 H   0  0  0  0  0  0  0  0  0  0  0  0  # atno 6907 bound_to 6896
  150.7092  134.0967  159.3960 H   0  0  0  0  0  0  0  0  0  0  0  0  # atno 6908 bound_to 6896
  151.8887  135.0425  160.0546 H   0  0  0  0  0  0  0  0  0  0  0  0  # atno 6909 bound_to 6896
  146.1852  139.7368  142.8871 H   0  0  0  0  0  0  0  0  0  0  0  0  # atno 7974 bound_to 7965
  156.2874  140.2201  156.5266 H   0  0  0  0  0  0  0  0  0  0  0  0  # atno 8008 bound_to 7997
  154.7484  140.0482  157.0894 H   0  0  0  0  0  0  0  0  0  0  0  0  # atno 8009 bound_to 7997
  155.0141  140.3116  155.4821 H   0  0  0  0  0  0  0  0  0  0  0  0  # atno 8010 bound_to 7997
  140.1508  144.4464  150.6760 H   0  0  0  0  0  0  0  0  0  0  0  0  # atno 10167 bound_to 10162
  156.0135  130.5284  150.6676 H   0  0  0  0  0  0  0  0  0  0  0  0  # atno 10718 bound_to 10713
  153.8743  135.6828  153.4772 H   0  0  0  0  0  0  0  0  0  0  0  0  # atno 10763 bound_to 10752
  153.1270  135.4715  154.9285 H   0  0  0  0  0  0  0  0  0  0  0  0  # atno 10764 bound_to 10752
  154.7699  135.3235  154.8161 H   0  0  0  0  0  0  0  0  0  0  0  0  # atno 10765 bound_to 10752
  139.9687  134.6937  156.0492 H   0  0  0  0  0  0  0  0  0  0  0  0  # atno 11005 bound_to 11000
  145.3958  141.0378  143.3098 LP  0  0  0  0  0  0  0  0  0  0  0  0  # atno 17320 bound_to 7965
  144.8385  139.5510  143.6911 LP  0  0  0  0  0  0  0  0  0  0  0  0  # atno 17321 bound_to 7965
  140.6703  143.2283  151.5641 LP  0  0  0  0  0  0  0  0  0  0  0  0  # atno 17342 bound_to 10162
  139.5427  144.2605  152.1381 LP  0  0  0  0  0  0  0  0  0  0  0  0  # atno 17343 bound_to 10162
  157.4406  131.0860  151.0948 LP  0  0  0  0  0  0  0  0  0  0  0  0  # atno 17370 bound_to 10713
  157.1493  130.6177  149.5577 LP  0  0  0  0  0  0  0  0  0  0  0  0  # atno 17371 bound_to 10713
  141.1367  133.6573  156.3612 LP  0  0  0  0  0  0  0  0  0  0  0  0  # atno 17394 bound_to 11000
  140.5341  134.6184  157.5359 LP  0  0  0  0  0  0  0  0  0  0  0  0  # atno 17395 bound_to 11000

$$$$
