AV-unprocessed.smi:2389|AV-procd|sdf|9472|dock2
  -GOLD-   2272013103D 1   1.00000     0.00000
 Structure written by MMmdl.
 34 35  0  0  0  0  0  0  0  0  1 V2000
  152.6023  138.7051  154.4578 C   0  0  0  0  0  0  0  0  0  0  0  0
  151.6119  137.6727  155.0018 C   0  0  0  0  0  0  0  0  0  0  0  0
  150.3956  137.7724  154.2666 O   0  0  0  0  0  0  0  0  0  0  0  0
  149.6991  138.9630  154.3068 C   0  0  0  0  0  0  0  0  0  0  0  0
  148.4580  139.0433  153.6475 C   0  0  0  0  0  0  0  0  0  0  0  0
  147.7544  140.2602  153.6874 C   0  0  0  0  0  0  0  0  0  0  0  0
  148.3159  141.3479  154.3828 C   0  0  0  0  0  0  0  0  0  0  0  0
  149.5658  141.1915  155.0219 C   0  0  0  0  0  0  0  0  0  0  0  0
  150.0489  142.3442  155.6966 N   0  0  0  0  0  0  0  0  0  0  0  0
  151.0369  142.4204  156.6060 C   0  0  0  0  0  0  0  0  0  0  0  0
  151.7072  141.4698  157.0109 O   0  0  0  0  0  0  0  0  0  0  0  0
  151.2085  143.6800  157.0316 N   0  0  0  0  0  0  0  0  0  0  0  0
  152.1960  144.0999  158.0173 C   0  0  0  0  0  0  0  0  0  0  0  0
  151.7854  145.2838  158.8721 C   0  0  0  0  0  0  0  0  0  0  0  0
  152.0223  145.2909  160.3650 C   0  0  0  0  0  0  0  0  0  0  0  0
  150.6188  145.1662  159.8250 C   0  0  0  0  0  0  0  0  0  0  0  0
  150.2345  140.0131  154.9764 N   0  0  0  0  0  0  0  0  0  0  0  0
  153.5497  138.6558  154.9948 H   0  0  0  0  0  0  0  0  0  0  0  0
  152.2103  139.7167  154.5640 H   0  0  0  0  0  0  0  0  0  0  0  0
  152.8067  138.5332  153.4008 H   0  0  0  0  0  0  0  0  0  0  0  0
  152.0345  136.6714  154.9037 H   0  0  0  0  0  0  0  0  0  0  0  0
  151.4342  137.8618  156.0618 H   0  0  0  0  0  0  0  0  0  0  0  0
  148.0556  138.1901  153.1215 H   0  0  0  0  0  0  0  0  0  0  0  0
  146.7997  140.3587  153.1921 H   0  0  0  0  0  0  0  0  0  0  0  0
  147.7886  142.2900  154.4227 H   0  0  0  0  0  0  0  0  0  0  0  0
  149.5854  143.2098  155.4638 H   0  0  0  0  0  0  0  0  0  0  0  0
  150.6141  144.3997  156.6473 H   0  0  0  0  0  0  0  0  0  0  0  0
  152.3790  143.2530  158.6788 H   0  0  0  0  0  0  0  0  0  0  0  0
  153.1465  144.3135  157.5254 H   0  0  0  0  0  0  0  0  0  0  0  0
  151.8763  146.2427  158.3650 H   0  0  0  0  0  0  0  0  0  0  0  0
  152.4697  144.4053  160.8120 H   0  0  0  0  0  0  0  0  0  0  0  0
  152.3053  146.2366  160.8225 H   0  0  0  0  0  0  0  0  0  0  0  0
  149.9629  146.0284  159.9250 H   0  0  0  0  0  0  0  0  0  0  0  0
  150.1321  144.1968  159.9147 H   0  0  0  0  0  0  0  0  0  0  0  0
  1  2  1  0  0  0  0
  1 18  1  0  0  0  0
  1 19  1  0  0  0  0
  1 20  1  0  0  0  0
  2  3  1  0  0  0  0
  2 21  1  0  0  0  0
  2 22  1  0  0  0  0
  3  4  1  0  0  0  0
  4 17  1  0  0  0  0
  4  5  2  0  0  0  0
  5  6  1  0  0  0  0
  5 23  1  0  0  0  0
  6  7  2  0  0  0  0
  6 24  1  0  0  0  0
  7  8  1  0  0  0  0
  7 25  1  0  0  0  0
  8  9  1  0  0  0  0
  8 17  2  0  0  0  0
  9 10  1  0  0  0  0
  9 26  1  0  0  0  0
 10 11  2  0  0  0  0
 10 12  1  0  0  0  0
 12 13  1  0  0  0  0
 12 27  1  0  0  0  0
 13 14  1  0  0  0  0
 13 28  1  0  0  0  0
 13 29  1  0  0  0  0
 14 16  1  0  0  0  0
 14 15  1  0  0  0  0
 14 30  1  0  0  0  0
 15 16  1  0  0  0  0
 15 31  1  0  0  0  0
 15 32  1  0  0  0  0
 16 33  1  0  0  0  0
 16 34  1  0  0  0  0
M  END
> <s_m_source_file>
AV-unprocessed.smi

> <i_m_source_file_index>
2389

> <i_lp_mmshare_version>
43012

> <i_f3d_flags>
0

> <s_epik_input>
W0NIM11bQ0gyXU9jMVtjSF1bY0hdW2NIXWMobjEpW05IXUMoPU8pW05IXVtDSDJdW0NIXTJbQ0gyXVtDSDJdMg==

> <s_epik_cmdline>
J2VwaWtfcHl0aG9uJywgJy1waCcsICc3LjAnLCAnLXRuJywgJzgnLCAnLW1hJywgJzIwMCcsICctbWV0YWxfYmluZGluZycsICctaW1hZScsICc8aW5maWxlLm1hZT4nLCAnLW9tYWUnLCAnPG91dGZpbGUubWFlPic=

> <r_lp_tautomer_probability>
1

> <r_epik_Ionization_Penalty>
4.07356e-05

> <r_epik_Ionization_Penalty_Charging>
0

> <r_epik_Ionization_Penalty_Neutral>
4.07356e-05

> <r_epik_State_Penalty>
-0

> <r_epik_Charging_Adjusted_Penalty>
0

> <i_epik_Tot_Q>
0

> <i_epik_Tot_abs_Q>
0

> <r_epik_Metal_State_Penalty>
-0

> <b_epik_Metal_Only>
0

> <s_lp_Force_Field>
OPLS_2005

> <r_lp_Energy>
13.6513

> <b_lp_Chiralities_Consistent>
1

> <s_lp_Variant>
AV-unprocessed.smi:2389-1

> <Gold.Version>
5.8.1

> <Gold.Id.Protein>
6NUR|6NUR_protein|mol2

> <Gold.PLP.Fitness>
44.8978

> <Gold.PLP.PLP>
-39.5127

> <Gold.PLP.part.hbond>
-2.0944

> <Gold.PLP.part.metal>
0.0000

> <Gold.PLP.part.buried>
-3.1568

> <Gold.PLP.part.nonpolar>
-34.4006

> <Gold.PLP.part.repulsive>
0.4728

> <Gold.PLP.ligand.clash>
0.0000

> <Gold.PLP.ligand.torsion>
0.5744

> <Gold.PLP.Chemscore.Hbond>
1.9813

> <Gold.PLP.Chemscore.CHOScore>
0.0000

> <Gold.PLP.Chemscore.Metal>
0.0000

> <Gold.Chemscore.Hbonds>
donor molecule, donor type, donor heavy atom, donor atom, acceptor molecule, acceptor atom, score
      L1  H     9    26       P1  8028  1.00
      L1  H    12    27       P1  8028  0.91
      P1  H  7989  7998       L1    17  0.28

> <Gold.PLP.Chemscore.Internal.Correction>
0.5900

> <Gold.Rescore>
     Score         DG    S(hbond)    S(metal)    S(lipo)     H(rot)  DE(clash)    DE(int)     intcor
     15.47     -17.43       1.94        0.00      82.43       1.62       0.09       1.87       ----

> <Gold.Chemscore.Fitness>
15.4750

> <Gold.Chemscore.DG>
-17.4340

> <Gold.Chemscore.ZeroCoef>
-5.4800

> <Gold.Chemscore.Hbond>
1.9354

> <Gold.Chemscore.Metal>
0.0000

> <Gold.Chemscore.Lipo>
82.4281

> <Gold.Chemscore.Internal_Hbond>
0.0000

> <Gold.Chemscore.DEClash>
0.0882

> <Gold.Chemscore.DEInternal>
1.8708

> <Gold.Chemscore.Rot>
1.6228

> <Gold.Chemscore.Internal.Correction>
   9.000000E+99

> <Gold.Chemscore.Hbonds>
donor molecule, donor type, donor heavy atom, donor atom, acceptor molecule, acceptor atom, score
      L1  H     9    26       P1  8028  0.99
      L1  H    12    27       P1  8028  0.85
      P1  H  7989  7998       L1    17  0.01

> <Gold.Chemscore.Hbond.Weighted>
-6.4644

> <Gold.Chemscore.Metal.Weighted>
-0.0000

> <Gold.Chemscore.Lipo.Weighted>
-9.6441

> <Gold.Chemscore.Internal_Hbond.Weighted>
0.0000

> <Gold.Chemscore.DEClash.Weighted>
0.0882

> <Gold.Chemscore.DEInternal.Weighted>
1.8708

> <Gold.Chemscore.Rot.Weighted>
4.1545

> <Gold.Chemscore.Internal.Correction.Weighted>
   9.000000E+99

> <Gold.Protein.RotatedTorsions>
[ 6907 6896 6895 6894 ] final   65.78 input  -60.11 | X-H torsion
[ 7974 7965 7964 7962 ] final  134.40 input  175.53 | X-H torsion
[ 8008 7997 7996 7995 ] final  -88.92 input   59.86 | X-H torsion
[ 10167 10162 10161 10158 ] final   91.53 input  -65.29 | X-H torsion
[ 10718 10713 10712 10709 ] final  143.01 input   66.30 | X-H torsion
[ 10763 10752 10751 10750 ] final   22.18 input  -60.55 | X-H torsion
[ 11005 11000 10999 10996 ] final  -50.02 input  -57.11 | X-H torsion

> <Gold.Protein.ActiveResidues>
 VAL166  LYS551  ARG553  GLY616  TRP617  ASP618  TYR619  PRO620  LYS621  CYS622 
 ASP623  PHE694  ASN695  SER759  ASP760  ASP761  ALA762  ILE779  LEU786  VAL792 
 PHE793  MET794  SER795  GLU796  ALA797  LYS798  CYS799  TRP800  GLU811  SER814 

> <Gold.Protein.RotatedAtoms>
  152.4433  134.5547  159.9876 H   0  0  0  0  0  0  0  0  0  0  0  0  # atno 6907 bound_to 6896
  151.5639  133.3393  159.2984 H   0  0  0  0  0  0  0  0  0  0  0  0  # atno 6908 bound_to 6896
  150.8343  134.7643  159.6944 H   0  0  0  0  0  0  0  0  0  0  0  0  # atno 6909 bound_to 6896
  144.9768  139.4547  143.5406 H   0  0  0  0  0  0  0  0  0  0  0  0  # atno 7974 bound_to 7965
  154.6804  140.0548  157.0260 H   0  0  0  0  0  0  0  0  0  0  0  0  # atno 8008 bound_to 7997
  155.0959  140.3224  155.4542 H   0  0  0  0  0  0  0  0  0  0  0  0  # atno 8009 bound_to 7997
  156.2692  140.2039  156.6086 H   0  0  0  0  0  0  0  0  0  0  0  0  # atno 8010 bound_to 7997
  139.8365  144.6662  150.9335 H   0  0  0  0  0  0  0  0  0  0  0  0  # atno 10167 bound_to 10162
  157.3739  131.0983  151.0802 H   0  0  0  0  0  0  0  0  0  0  0  0  # atno 10718 bound_to 10713
  153.0936  135.6653  153.9807 H   0  0  0  0  0  0  0  0  0  0  0  0  # atno 10763 bound_to 10752
  153.9397  135.2995  155.3444 H   0  0  0  0  0  0  0  0  0  0  0  0  # atno 10764 bound_to 10752
  154.7352  135.5105  153.9104 H   0  0  0  0  0  0  0  0  0  0  0  0  # atno 10765 bound_to 10752
  141.0792  133.6657  156.3670 H   0  0  0  0  0  0  0  0  0  0  0  0  # atno 11005 bound_to 11000
  146.3397  139.9015  142.8794 LP  0  0  0  0  0  0  0  0  0  0  0  0  # atno 17320 bound_to 7965
  145.2479  141.0033  143.3898 LP  0  0  0  0  0  0  0  0  0  0  0  0  # atno 17321 bound_to 7965
  140.7802  143.3952  151.1242 LP  0  0  0  0  0  0  0  0  0  0  0  0  # atno 17342 bound_to 10162
  139.7602  143.8647  152.3098 LP  0  0  0  0  0  0  0  0  0  0  0  0  # atno 17343 bound_to 10162
  157.1896  130.6346  149.5700 LP  0  0  0  0  0  0  0  0  0  0  0  0  # atno 17370 bound_to 10713
  155.9761  130.4726  150.6506 LP  0  0  0  0  0  0  0  0  0  0  0  0  # atno 17371 bound_to 10713
  140.5505  134.6032  157.5406 LP  0  0  0  0  0  0  0  0  0  0  0  0  # atno 17394 bound_to 11000
  139.9605  134.7460  156.0247 LP  0  0  0  0  0  0  0  0  0  0  0  0  # atno 17395 bound_to 11000

$$$$
