AV-unprocessed.smi:2412|AV-procd|sdf|9533|dock10
  -GOLD-   2272013163D 1   1.00000     0.00000
 Structure written by MMmdl.
 38 39  0  0  0  0  0  0  0  0  2 V2000
  151.4661  144.7108  157.9977 C   0  0  0  0  0  0  0  0  0  0  0  0
  151.7866  143.2883  158.4227 C   0  0  0  0  0  0  0  0  0  0  0  0
  152.9413  143.0376  159.1960 C   0  0  0  0  0  0  0  0  0  0  0  0
  153.2371  141.7797  159.5850 N   0  3  0  0  0  0  0  0  0  0  0  0
  152.4655  140.7186  159.2711 C   0  0  0  0  0  0  0  0  0  0  0  0
  151.2986  140.9010  158.5031 C   0  0  0  0  0  0  0  0  0  0  0  0
  150.9515  142.2016  158.0556 C   0  0  0  0  0  0  0  0  0  0  0  0
  149.7778  142.4698  157.2954 N   0  0  0  0  0  0  0  0  0  0  0  0
  148.7651  141.6380  156.9967 C   0  0  0  0  0  0  0  0  0  0  0  0
  148.7081  140.4479  157.3055 O   0  0  0  0  0  0  0  0  0  0  0  0
  147.8098  142.2664  156.2954 N   0  0  0  0  0  0  0  0  0  0  0  0
  146.5567  141.6585  155.8506 C   0  0  0  0  0  0  0  0  0  0  0  0
  145.3548  142.6199  155.9174 C   0  0  0  0  0  0  0  0  0  0  0  0
  144.6051  142.6010  156.8957 O   0  0  0  0  0  0  0  0  0  0  0  0
  145.1647  143.4723  154.8890 N   0  0  0  0  0  0  0  0  0  0  0  0
  144.0841  144.4521  154.7777 C   0  0  0  0  0  0  0  0  0  0  0  0
  144.4216  145.3041  153.5533 C   0  0  0  0  0  0  0  0  0  0  0  0
  145.2956  144.3992  152.6964 C   0  0  0  0  0  0  0  0  0  0  0  0
  146.0264  143.5178  153.7092 C   0  0  0  0  0  0  0  0  0  0  0  0
  152.2319  145.4081  158.3392 H   0  0  0  0  0  0  0  0  0  0  0  0
  150.5106  145.0273  158.4171 H   0  0  0  0  0  0  0  0  0  0  0  0
  151.4082  144.7813  156.9112 H   0  0  0  0  0  0  0  0  0  0  0  0
  153.6340  143.8020  159.5167 H   0  0  0  0  0  0  0  0  0  0  0  0
  152.7976  139.7619  159.6475 H   0  0  0  0  0  0  0  0  0  0  0  0
  150.6847  140.0403  158.2851 H   0  0  0  0  0  0  0  0  0  0  0  0
  149.7266  143.3930  156.8900 H   0  0  0  0  0  0  0  0  0  0  0  0
  147.9383  143.2444  156.0815 H   0  0  0  0  0  0  0  0  0  0  0  0
  146.6892  141.3308  154.8193 H   0  0  0  0  0  0  0  0  0  0  0  0
  146.3526  140.7651  156.4428 H   0  0  0  0  0  0  0  0  0  0  0  0
  143.1399  143.9265  154.6281 H   0  0  0  0  0  0  0  0  0  0  0  0
  143.9922  145.0748  155.6683 H   0  0  0  0  0  0  0  0  0  0  0  0
  143.5352  145.6586  153.0266 H   0  0  0  0  0  0  0  0  0  0  0  0
  144.9970  146.1776  153.8635 H   0  0  0  0  0  0  0  0  0  0  0  0
  144.6630  143.7785  152.0604 H   0  0  0  0  0  0  0  0  0  0  0  0
  145.9761  144.9548  152.0505 H   0  0  0  0  0  0  0  0  0  0  0  0
  146.9828  143.9635  153.9868 H   0  0  0  0  0  0  0  0  0  0  0  0
  146.2207  142.5244  153.3014 H   0  0  0  0  0  0  0  0  0  0  0  0
  154.0765  141.6252  160.1444 H   0  0  0  0  0  0  0  0  0  0  0  0
  1  2  1  0  0  0  0
  1 20  1  0  0  0  0
  1 21  1  0  0  0  0
  1 22  1  0  0  0  0
  2  7  1  0  0  0  0
  2  3  2  0  0  0  0
  3  4  1  0  0  0  0
  3 23  1  0  0  0  0
  4  5  2  0  0  0  0
  4 38  1  0  0  0  0
  5  6  1  0  0  0  0
  5 24  1  0  0  0  0
  6  7  2  0  0  0  0
  6 25  1  0  0  0  0
  7  8  1  0  0  0  0
  8  9  1  0  0  0  0
  8 26  1  0  0  0  0
  9 10  2  0  0  0  0
  9 11  1  0  0  0  0
 11 12  1  0  0  0  0
 11 27  1  0  0  0  0
 12 13  1  0  0  0  0
 12 28  1  0  0  0  0
 12 29  1  0  0  0  0
 13 14  2  0  0  0  0
 13 15  1  0  0  0  0
 15 19  1  0  0  0  0
 15 16  1  0  0  0  0
 16 17  1  0  0  0  0
 16 30  1  0  0  0  0
 16 31  1  0  0  0  0
 17 18  1  0  0  0  0
 17 32  1  0  0  0  0
 17 33  1  0  0  0  0
 18 19  1  0  0  0  0
 18 34  1  0  0  0  0
 18 35  1  0  0  0  0
 19 36  1  0  0  0  0
 19 37  1  0  0  0  0
M  CHG  1   4   1
M  END
> <s_m_source_file>
AV-unprocessed.smi

> <i_m_source_file_index>
2412

> <i_lp_mmshare_version>
43012

> <i_f3d_flags>
0

> <s_epik_input>
W0NIM11jMVtjSF1uW2NIXVtjSF1jMVtOSF1DKD1PKVtOSF1bQ0gyXUMoPU8pTjJbQ0gyXVtDSDJdW0NIMl1bQ0gyXTI=

> <s_epik_cmdline>
J2VwaWtfcHl0aG9uJywgJy1waCcsICc3LjAnLCAnLXRuJywgJzgnLCAnLW1hJywgJzIwMCcsICctbWV0YWxfYmluZGluZycsICctaW1hZScsICc8aW5maWxlLm1hZT4nLCAnLW9tYWUnLCAnPG91dGZpbGUubWFlPic=

> <r_epik_Ionization_Penalty>
0.861722

> <r_epik_Ionization_Penalty_Charging>
0.861704

> <r_epik_Ionization_Penalty_Neutral>
1.84974e-05

> <r_epik_State_Penalty>
0.898238

> <r_epik_Charging_Adjusted_Penalty>
1.75994

> <i_epik_Tot_Q>
1

> <i_epik_Tot_abs_Q>
1

> <r_epik_Metal_State_Penalty>
1.0245

> <b_epik_Metal_Only>
0

> <s_lp_Force_Field>
OPLS_2005

> <r_lp_Energy>
33.6381

> <b_lp_Chiralities_Consistent>
1

> <s_lp_Variant>
AV-unprocessed.smi:2412-2

> <Gold.Version>
5.8.1

> <Gold.Id.Protein>
6NUR|6NUR_protein|mol2

> <Gold.PLP.Fitness>
42.7697

> <Gold.PLP.PLP>
-37.7885

> <Gold.PLP.part.hbond>
-2.0000

> <Gold.PLP.part.metal>
0.0000

> <Gold.PLP.part.buried>
-6.0006

> <Gold.PLP.part.nonpolar>
-29.9650

> <Gold.PLP.part.repulsive>
0.1491

> <Gold.PLP.ligand.clash>
0.0000

> <Gold.PLP.ligand.torsion>
0.5100

> <Gold.PLP.Chemscore.Hbond>
2.0000

> <Gold.PLP.Chemscore.CHOScore>
0.0000

> <Gold.PLP.Chemscore.Metal>
0.0000

> <Gold.Chemscore.Hbonds>
donor molecule, donor type, donor heavy atom, donor atom, acceptor molecule, acceptor atom, score
      L1  H     8    26       P1  8028  1.00
      L1  H    11    27       P1  8028  1.00

> <Gold.PLP.Chemscore.Internal.Correction>
0.0013

> <Gold.Rescore>
     Score         DG    S(hbond)    S(metal)    S(lipo)     H(rot)  DE(clash)    DE(int)     intcor
     15.94     -17.83       1.55        0.00      89.26       1.28       0.22       1.67       ----

> <Gold.Chemscore.Fitness>
15.9420

> <Gold.Chemscore.DG>
-17.8334

> <Gold.Chemscore.ZeroCoef>
-5.4800

> <Gold.Chemscore.Hbond>
1.5519

> <Gold.Chemscore.Metal>
0.0000

> <Gold.Chemscore.Lipo>
89.2591

> <Gold.Chemscore.Internal_Hbond>
0.0000

> <Gold.Chemscore.DEClash>
0.2192

> <Gold.Chemscore.DEInternal>
1.6722

> <Gold.Chemscore.Rot>
1.2786

> <Gold.Chemscore.Internal.Correction>
   9.000000E+99

> <Gold.Chemscore.Hbonds>
donor molecule, donor type, donor heavy atom, donor atom, acceptor molecule, acceptor atom, score
      L1  H     8    26       P1  8028  0.93
      L1  H    11    27       P1  8028  0.30

> <Gold.Chemscore.Hbond.Weighted>
-5.1834

> <Gold.Chemscore.Metal.Weighted>
-0.0000

> <Gold.Chemscore.Lipo.Weighted>
-10.4433

> <Gold.Chemscore.Internal_Hbond.Weighted>
0.0000

> <Gold.Chemscore.DEClash.Weighted>
0.2192

> <Gold.Chemscore.DEInternal.Weighted>
1.6722

> <Gold.Chemscore.Rot.Weighted>
3.2733

> <Gold.Chemscore.Internal.Correction.Weighted>
   9.000000E+99

> <Gold.Protein.RotatedTorsions>
[ 6907 6896 6895 6894 ] final   82.58 input  -60.11 | X-H torsion
[ 7974 7965 7964 7962 ] final  111.11 input  175.53 | X-H torsion
[ 8008 7997 7996 7995 ] final  134.56 input   59.86 | X-H torsion
[ 10167 10162 10161 10158 ] final  -86.61 input  -65.29 | X-H torsion
[ 10718 10713 10712 10709 ] final  -52.99 input   66.30 | X-H torsion
[ 10763 10752 10751 10750 ] final   50.23 input  -60.55 | X-H torsion
[ 11005 11000 10999 10996 ] final   -4.08 input  -57.11 | X-H torsion

> <Gold.Protein.ActiveResidues>
 VAL166  LYS551  ARG553  GLY616  TRP617  ASP618  TYR619  PRO620  LYS621  CYS622 
 ASP623  PHE694  ASN695  SER759  ASP760  ASP761  ALA762  ILE779  LEU786  VAL792 
 PHE793  MET794  SER795  GLU796  ALA797  LYS798  CYS799  TRP800  GLU811  SER814 

> <Gold.Protein.RotatedAtoms>
  152.5303  134.3028  159.9084 H   0  0  0  0  0  0  0  0  0  0  0  0  # atno 6907 bound_to 6896
  151.2979  133.4129  159.2645 H   0  0  0  0  0  0  0  0  0  0  0  0  # atno 6908 bound_to 6896
  151.0145  134.9438  159.8082 H   0  0  0  0  0  0  0  0  0  0  0  0  # atno 6909 bound_to 6896
  145.2464  139.2757  143.4090 H   0  0  0  0  0  0  0  0  0  0  0  0  # atno 7974 bound_to 7965
  156.2999  140.2493  156.3436 H   0  0  0  0  0  0  0  0  0  0  0  0  # atno 8008 bound_to 7997
  154.9031  140.0405  157.1924 H   0  0  0  0  0  0  0  0  0  0  0  0  # atno 8009 bound_to 7997
  154.8480  140.2901  155.5620 H   0  0  0  0  0  0  0  0  0  0  0  0  # atno 8010 bound_to 7997
  140.3925  143.2698  151.9246 H   0  0  0  0  0  0  0  0  0  0  0  0  # atno 10167 bound_to 10162
  156.1574  130.4150  149.9847 H   0  0  0  0  0  0  0  0  0  0  0  0  # atno 10718 bound_to 10713
  152.9785  135.5885  154.4219 H   0  0  0  0  0  0  0  0  0  0  0  0  # atno 10763 bound_to 10752
  154.3842  135.2767  155.2195 H   0  0  0  0  0  0  0  0  0  0  0  0  # atno 10764 bound_to 10752
  154.4095  135.6084  153.5999 H   0  0  0  0  0  0  0  0  0  0  0  0  # atno 10765 bound_to 10752
  140.6763  133.9192  155.8526 H   0  0  0  0  0  0  0  0  0  0  0  0  # atno 11005 bound_to 11000
  146.3314  140.2843  142.8612 LP  0  0  0  0  0  0  0  0  0  0  0  0  # atno 17320 bound_to 7965
  144.9542  140.8209  143.5553 LP  0  0  0  0  0  0  0  0  0  0  0  0  # atno 17321 bound_to 7965
  139.4788  144.5713  151.8083 LP  0  0  0  0  0  0  0  0  0  0  0  0  # atno 17342 bound_to 10162
  140.4825  144.1429  150.5935 LP  0  0  0  0  0  0  0  0  0  0  0  0  # atno 17343 bound_to 10162
  156.7687  130.9178  151.3643 LP  0  0  0  0  0  0  0  0  0  0  0  0  # atno 17370 bound_to 10713
  157.6706  130.9047  150.0031 LP  0  0  0  0  0  0  0  0  0  0  0  0  # atno 17371 bound_to 10713
  141.0353  134.0699  157.3967 LP  0  0  0  0  0  0  0  0  0  0  0  0  # atno 17394 bound_to 11000
  139.8965  135.0146  156.7057 LP  0  0  0  0  0  0  0  0  0  0  0  0  # atno 17395 bound_to 11000

$$$$
