AV-unprocessed.smi:250|AV-procd|sdf|1930|dock2
  -GOLD-   2262021 43D 1   1.00000     0.00000
 Structure written by MMmdl.
 56 60  0  0  0  0  0  0  0  0  1 V2000
  152.2086  144.2375  161.2732 C   0  0  0  0  0  0  0  0  0  0  0  0
  151.8121  144.1835  159.8718 N   0  0  0  0  0  0  0  0  0  0  0  0
  150.8412  144.9184  159.3040 C   0  0  0  0  0  0  0  0  0  0  0  0
  150.1180  145.7340  159.8726 O   0  0  0  0  0  0  0  0  0  0  0  0
  150.7979  144.6224  158.0013 N   0  0  0  0  0  0  0  0  0  0  0  0
  151.8568  143.7183  157.6082 C   0  0  2  0  0  0  0  0  0  0  0  0
  151.4660  142.6857  156.5262 C   0  0  0  0  0  0  0  0  0  0  0  0
  151.0874  141.3816  157.0657 N   0  0  0  0  0  0  0  0  0  0  0  0
  150.6054  140.5129  156.1415 C   0  0  0  0  0  0  0  0  0  0  0  0
  149.7874  140.9606  155.1511 N   0  0  0  0  0  0  0  0  0  0  0  0
  149.2969  140.1102  154.2447 C   0  0  0  0  0  0  0  0  0  0  0  0
  149.4949  138.7948  154.1421 N   0  0  0  0  0  0  0  0  0  0  0  0
  150.3215  138.3403  155.1269 C   0  0  0  0  0  0  0  0  0  0  0  0
  150.9122  139.1228  156.1591 C   0  0  0  0  0  0  0  0  0  0  0  0
  151.6936  138.3137  156.9755 N   0  0  0  0  0  0  0  0  0  0  0  0
  151.5639  137.1213  156.4616 C   0  0  0  0  0  0  0  0  0  0  0  0
  150.7713  137.0479  155.3381 N   0  0  0  0  0  0  0  0  0  0  0  0
  150.4529  135.8524  154.5693 C   0  0  0  0  0  0  0  0  0  0  0  0
  149.5842  134.7848  155.3044 C   0  0  0  0  0  0  0  0  0  0  0  0
  148.2171  135.4458  155.6417 C   0  0  0  0  0  0  0  0  0  0  0  0
  147.4865  135.7990  154.4836 O   0  0  0  0  0  0  0  0  0  0  0  0
  149.3504  133.5474  154.3981 C   0  0  0  0  0  0  0  0  0  0  0  0
  148.6634  132.3829  155.1363 C   0  0  0  0  0  0  0  0  0  0  0  0
  149.4216  132.0187  156.2831 O   0  0  0  0  0  0  0  0  0  0  0  0
  149.5492  133.0758  157.2261 C   0  0  0  0  0  0  0  0  0  0  0  0
  150.2893  134.2636  156.5840 C   0  0  0  0  0  0  0  0  0  0  0  0
  151.9467  140.8506  158.1187 C   0  0  0  0  0  0  0  0  0  0  0  0
  151.8963  141.7914  159.3212 C   0  0  0  0  0  0  0  0  0  0  0  0
  152.3891  143.2067  158.9568 C   0  0  2  0  0  0  0  0  0  0  0  0
  152.6148  144.3677  157.1661 H   0  0  0  0  0  0  0  0  0  0  0  0
  153.4792  143.2459  158.9716 H   0  0  0  0  0  0  0  0  0  0  0  0
  152.3722  145.2685  161.5897 H   0  0  0  0  0  0  0  0  0  0  0  0
  153.1330  143.6835  161.4401 H   0  0  0  0  0  0  0  0  0  0  0  0
  151.4322  143.8023  161.9035 H   0  0  0  0  0  0  0  0  0  0  0  0
  150.1579  145.0403  157.3417 H   0  0  0  0  0  0  0  0  0  0  0  0
  150.6875  143.1006  155.8868 H   0  0  0  0  0  0  0  0  0  0  0  0
  152.3284  142.5199  155.8790 H   0  0  0  0  0  0  0  0  0  0  0  0
  148.6552  140.5462  153.4933 H   0  0  0  0  0  0  0  0  0  0  0  0
  152.0526  136.2566  156.8866 H   0  0  0  0  0  0  0  0  0  0  0  0
  149.9563  136.1791  153.6549 H   0  0  0  0  0  0  0  0  0  0  0  0
  151.3951  135.4052  154.2496 H   0  0  0  0  0  0  0  0  0  0  0  0
  147.6055  134.7658  156.2357 H   0  0  0  0  0  0  0  0  0  0  0  0
  148.3320  136.3483  156.2390 H   0  0  0  0  0  0  0  0  0  0  0  0
  148.0248  135.6295  153.7254 H   0  0  0  0  0  0  0  0  0  0  0  0
  148.7720  133.8249  153.5161 H   0  0  0  0  0  0  0  0  0  0  0  0
  150.3014  133.1656  154.0289 H   0  0  0  0  0  0  0  0  0  0  0  0
  147.6402  132.6277  155.4212 H   0  0  0  0  0  0  0  0  0  0  0  0
  148.5993  131.5170  154.4771 H   0  0  0  0  0  0  0  0  0  0  0  0
  148.5698  133.3669  157.6061 H   0  0  0  0  0  0  0  0  0  0  0  0
  150.1160  132.7076  158.0813 H   0  0  0  0  0  0  0  0  0  0  0  0
  151.2942  133.9202  156.3426 H   0  0  0  0  0  0  0  0  0  0  0  0
  150.4137  135.0647  157.3129 H   0  0  0  0  0  0  0  0  0  0  0  0
  151.6090  139.8594  158.4250 H   0  0  0  0  0  0  0  0  0  0  0  0
  152.9687  140.7505  157.7503 H   0  0  0  0  0  0  0  0  0  0  0  0
  150.8672  141.8290  159.6839 H   0  0  0  0  0  0  0  0  0  0  0  0
  152.4933  141.3888  160.1397 H   0  0  0  0  0  0  0  0  0  0  0  0
  1  2  1  0  0  0  0
  1 32  1  0  0  0  0
  1 33  1  0  0  0  0
  1 34  1  0  0  0  0
  2 29  1  0  0  0  0
  2  3  1  0  0  0  0
  3  4  2  0  0  0  0
  3  5  1  0  0  0  0
  5  6  1  0  0  0  0
  5 35  1  0  0  0  0
  6 30  1  0  0  0  0
  6 29  1  0  0  0  0
  6  7  1  0  0  0  0
  7  8  1  0  0  0  0
  7 36  1  0  0  0  0
  7 37  1  0  0  0  0
  8  9  1  0  0  0  0
  8 27  1  0  0  0  0
  9 14  1  0  0  0  0
  9 10  2  0  0  0  0
 10 11  1  0  0  0  0
 11 12  2  0  0  0  0
 11 38  1  0  0  0  0
 12 13  1  0  0  0  0
 13 17  1  0  0  0  0
 13 14  2  0  0  0  0
 14 15  1  0  0  0  0
 15 16  2  0  0  0  0
 16 17  1  0  0  0  0
 16 39  1  0  0  0  0
 17 18  1  0  0  0  0
 18 19  1  0  0  0  0
 18 40  1  0  0  0  0
 18 41  1  0  0  0  0
 19 26  1  0  0  0  0
 19 20  1  0  0  0  0
 19 22  1  0  0  0  0
 20 21  1  0  0  0  0
 20 42  1  0  0  0  0
 20 43  1  0  0  0  0
 21 44  1  0  0  0  0
 22 23  1  0  0  0  0
 22 45  1  0  0  0  0
 22 46  1  0  0  0  0
 23 24  1  0  0  0  0
 23 47  1  0  0  0  0
 23 48  1  0  0  0  0
 24 25  1  0  0  0  0
 25 26  1  0  0  0  0
 25 49  1  0  0  0  0
 25 50  1  0  0  0  0
 26 51  1  0  0  0  0
 26 52  1  0  0  0  0
 27 28  1  0  0  0  0
 27 53  1  0  0  0  0
 27 54  1  0  0  0  0
 28 29  1  0  0  0  0
 28 55  1  0  0  0  0
 28 56  1  0  0  0  0
 29 31  1  0  0  0  0
M  END
> <s_m_source_file>
AV-unprocessed.smi

> <i_m_source_file_index>
250

> <i_lp_mmshare_version>
43012

> <i_f3d_flags>
0

> <s_epik_input>
Tz1DKFtOSF0xKU4oW0NIM10pW0NASF0oW0NASF0xMilbQ0gyXVtDSDJdTihbQ0gyXTIpYyhuW2NIXW4zKWMoYzM0KW5bY0hdbjRbQ0gyXUM1KFtDSDJdW09IXSlbQ0gyXVtDSDJdT1tDSDJdW0NIMl01

> <s_epik_cmdline>
J2VwaWtfcHl0aG9uJywgJy1waCcsICc3LjAnLCAnLXRuJywgJzgnLCAnLW1hJywgJzIwMCcsICctbWV0YWxfYmluZGluZycsICctaW1hZScsICc8aW5maWxlLm1hZT4nLCAnLW9tYWUnLCAnPG91dGZpbGUubWFlPic=

> <r_lp_tautomer_probability>
1

> <r_epik_Ionization_Penalty>
0.00229024

> <r_epik_Ionization_Penalty_Charging>
0

> <r_epik_Ionization_Penalty_Neutral>
0.00229024

> <r_epik_State_Penalty>
0.0013961

> <r_epik_Charging_Adjusted_Penalty>
0.0013961

> <i_epik_Tot_Q>
0

> <i_epik_Tot_abs_Q>
0

> <r_epik_Metal_State_Penalty>
-0

> <b_epik_Metal_Only>
0

> <s_lp_Force_Field>
OPLS_2005

> <r_lp_Energy>
69.2322

> <b_lp_Chiralities_Consistent>
1

> <s_lp_Variant>
AV-unprocessed.smi:250-1

> <Gold.Version>
5.8.1

> <Gold.Id.Protein>
6NUR|6NUR_protein|mol2

> <Gold.PLP.Fitness>
50.3071

> <Gold.PLP.PLP>
-44.4619

> <Gold.PLP.part.hbond>
-3.7273

> <Gold.PLP.part.metal>
0.0000

> <Gold.PLP.part.buried>
-3.0773

> <Gold.PLP.part.nonpolar>
-37.5527

> <Gold.PLP.part.repulsive>
0.7114

> <Gold.PLP.ligand.clash>
0.0000

> <Gold.PLP.ligand.torsion>
0.3713

> <Gold.PLP.Chemscore.Hbond>
1.5043

> <Gold.PLP.Chemscore.CHOScore>
0.5449

> <Gold.PLP.Chemscore.Metal>
0.0000

> <Gold.Chemscore.Hbonds>
donor molecule, donor type, donor heavy atom, donor atom, acceptor molecule, acceptor atom, score
      L1  H     5    35       P1  8028  0.55
      L1  H    21    44       P1  7948  0.68
      L1  C    11    38       P1  7957  0.54

> <Gold.PLP.Chemscore.Internal.Correction>
0.4401

> <Gold.Rescore>
     Score         DG    S(hbond)    S(metal)    S(lipo)     H(rot)  DE(clash)    DE(int)     intcor
     10.62     -14.38       1.02        0.00     102.97       2.56       1.99       1.77       ----

> <Gold.Chemscore.Fitness>
10.6248

> <Gold.Chemscore.DG>
-14.3812

> <Gold.Chemscore.ZeroCoef>
-5.4800

> <Gold.Chemscore.Hbond>
1.0204

> <Gold.Chemscore.Metal>
0.0000

> <Gold.Chemscore.Lipo>
102.9650

> <Gold.Chemscore.Internal_Hbond>
0.0000

> <Gold.Chemscore.DEClash>
1.9901

> <Gold.Chemscore.DEInternal>
1.7663

> <Gold.Chemscore.Rot>
2.5601

> <Gold.Chemscore.Internal.Correction>
   9.000000E+99

> <Gold.Chemscore.Hbonds>
donor molecule, donor type, donor heavy atom, donor atom, acceptor molecule, acceptor atom, score
      L1  H     5    35       P1  8028  0.04
      L1  H    21    44       P1  7948  0.67

> <Gold.Chemscore.Hbond.Weighted>
-3.4081

> <Gold.Chemscore.Metal.Weighted>
-0.0000

> <Gold.Chemscore.Lipo.Weighted>
-12.0469

> <Gold.Chemscore.Internal_Hbond.Weighted>
0.0000

> <Gold.Chemscore.DEClash.Weighted>
1.9901

> <Gold.Chemscore.DEInternal.Weighted>
1.7663

> <Gold.Chemscore.Rot.Weighted>
6.5538

> <Gold.Chemscore.Internal.Correction.Weighted>
   9.000000E+99

> <Gold.Protein.RotatedTorsions>
[ 6907 6896 6895 6894 ] final  168.66 input  -60.11 | X-H torsion
[ 7974 7965 7964 7962 ] final   -7.88 input  175.53 | X-H torsion
[ 8008 7997 7996 7995 ] final  -45.26 input   59.86 | X-H torsion
[ 10167 10162 10161 10158 ] final  -35.61 input  -65.29 | X-H torsion
[ 10718 10713 10712 10709 ] final    0.25 input   66.30 | X-H torsion
[ 10763 10752 10751 10750 ] final  146.94 input  -60.55 | X-H torsion
[ 11005 11000 10999 10996 ] final   91.78 input  -57.11 | X-H torsion

> <Gold.Protein.ActiveResidues>
 VAL166  LYS551  ARG553  GLY616  TRP617  ASP618  TYR619  PRO620  LYS621  CYS622 
 ASP623  PHE694  ASN695  SER759  ASP760  ASP761  ALA762  ILE779  LEU786  VAL792 
 PHE793  MET794  SER795  GLU796  ALA797  LYS798  CYS799  TRP800  GLU811  SER814 

> <Gold.Protein.RotatedAtoms>
  151.8441  133.3428  159.3652 H   0  0  0  0  0  0  0  0  0  0  0  0  # atno 6907 bound_to 6896
  150.7226  134.5363  159.5734 H   0  0  0  0  0  0  0  0  0  0  0  0  # atno 6908 bound_to 6896
  152.2842  134.7795  160.0441 H   0  0  0  0  0  0  0  0  0  0  0  0  # atno 6909 bound_to 6896
  146.2295  140.2386  142.8342 H   0  0  0  0  0  0  0  0  0  0  0  0  # atno 7974 bound_to 7965
  154.4000  140.1401  156.3819 H   0  0  0  0  0  0  0  0  0  0  0  0  # atno 8008 bound_to 7997
  155.7996  140.3476  155.5374 H   0  0  0  0  0  0  0  0  0  0  0  0  # atno 8009 bound_to 7997
  155.8497  140.0939  157.1673 H   0  0  0  0  0  0  0  0  0  0  0  0  # atno 8010 bound_to 7997
  140.7161  143.3465  151.2245 H   0  0  0  0  0  0  0  0  0  0  0  0  # atno 10167 bound_to 10162
  156.8305  130.5487  149.5687 H   0  0  0  0  0  0  0  0  0  0  0  0  # atno 10718 bound_to 10713
  154.0301  135.2898  155.3369 H   0  0  0  0  0  0  0  0  0  0  0  0  # atno 10763 bound_to 10752
  154.6993  135.5195  153.8507 H   0  0  0  0  0  0  0  0  0  0  0  0  # atno 10764 bound_to 10752
  153.0644  135.6625  154.0515 H   0  0  0  0  0  0  0  0  0  0  0  0  # atno 10765 bound_to 10752
  139.8833  134.8694  156.3478 H   0  0  0  0  0  0  0  0  0  0  0  0  # atno 11005 bound_to 11000
  144.9502  140.8171  143.5576 LP  0  0  0  0  0  0  0  0  0  0  0  0  # atno 17320 bound_to 7965
  145.2346  139.2100  143.5025 LP  0  0  0  0  0  0  0  0  0  0  0  0  # atno 17321 bound_to 7965
  139.6986  143.9572  152.2894 LP  0  0  0  0  0  0  0  0  0  0  0  0  # atno 17342 bound_to 10162
  139.9257  144.6772  150.8415 LP  0  0  0  0  0  0  0  0  0  0  0  0  # atno 17343 bound_to 10162
  156.0937  130.5915  150.9776 LP  0  0  0  0  0  0  0  0  0  0  0  0  # atno 17370 bound_to 10713
  157.6409  131.0910  150.8253 LP  0  0  0  0  0  0  0  0  0  0  0  0  # atno 17371 bound_to 10713
  140.9615  133.7385  156.0408 LP  0  0  0  0  0  0  0  0  0  0  0  0  # atno 17394 bound_to 11000
  140.7983  134.3538  157.5446 LP  0  0  0  0  0  0  0  0  0  0  0  0  # atno 17395 bound_to 11000

$$$$
