AV-unprocessed.smi:265|AV-procd|sdf|2023|dock7
  -GOLD-   2262021223D 1   1.00000     0.00000
 Structure written by MMmdl.
 52 56  0  0  0  0  0  0  0  0  1 V2000
  145.9561  140.8481  154.8730 C   0  0  0  0  0  0  0  0  0  0  0  0
  146.1966  139.4625  154.2534 C   0  0  2  0  0  0  0  0  0  0  0  0
  146.1836  138.5099  155.3140 O   0  0  0  0  0  0  0  0  0  0  0  0
  147.0534  137.4420  154.9835 C   0  0  0  0  0  0  0  0  0  0  0  0
  148.2265  138.1654  154.3404 C   0  0  0  0  0  0  0  0  0  0  0  0
  147.5476  139.2523  153.5117 C   0  0  1  0  0  0  0  0  0  0  0  0
  147.2567  138.7063  152.2354 O   0  0  0  0  0  0  0  0  0  0  0  0
  148.4235  140.5161  153.3032 C   0  0  0  0  0  0  0  0  0  0  0  0
  149.2328  140.8628  154.4627 N   0  0  0  0  0  0  0  0  0  0  0  0
  149.0287  141.9216  155.3189 C   0  0  0  0  0  0  0  0  0  0  0  0
  149.8940  142.0279  156.2900 N   0  0  0  0  0  0  0  0  0  0  0  0
  150.7526  140.9516  156.0994 C   0  0  0  0  0  0  0  0  0  0  0  0
  151.9058  140.4714  156.7823 C   0  0  0  0  0  0  0  0  0  0  0  0
  152.3997  141.0703  157.8956 N   0  0  0  0  0  0  0  0  0  0  0  0
  152.2281  140.3768  159.1720 C   0  0  0  0  0  0  0  0  0  0  0  0
  153.1640  140.9644  160.2392 C   0  0  0  0  0  0  0  0  0  0  0  0
  152.9948  142.4866  160.3705 C   0  0  2  0  0  0  0  0  0  0  0  0
  151.7209  142.7923  160.9226 O   0  0  0  0  0  0  0  0  0  0  0  0
  151.5497  144.1730  161.2466 C   0  0  0  0  0  0  0  0  0  0  0  0
  151.9557  145.1008  160.0865 C   0  0  0  0  0  0  0  0  0  0  0  0
  151.5970  146.2761  160.0877 O   0  0  0  0  0  0  0  0  0  0  0  0
  152.7364  144.5972  159.1170 N   0  0  0  0  0  0  0  0  0  0  0  0
  153.0908  143.1867  158.9970 C   0  0  2  0  0  0  0  0  0  0  0  0
  152.1784  142.5139  157.9507 C   0  0  0  0  0  0  0  0  0  0  0  0
  152.5135  139.3635  156.2790 N   0  0  0  0  0  0  0  0  0  0  0  0
  152.0241  138.7593  155.1924 C   0  0  0  0  0  0  0  0  0  0  0  0
  150.9580  139.0916  154.4621 N   0  0  0  0  0  0  0  0  0  0  0  0
  150.3499  140.2087  154.9533 C   0  0  0  0  0  0  0  0  0  0  0  0
  153.7684  142.8649  161.0419 H   0  0  0  0  0  0  0  0  0  0  0  0
  154.1222  143.1288  158.6466 H   0  0  0  0  0  0  0  0  0  0  0  0
  145.9328  141.6280  154.1118 H   0  0  0  0  0  0  0  0  0  0  0  0
  146.7285  141.1018  155.5993 H   0  0  0  0  0  0  0  0  0  0  0  0
  144.9986  140.8738  155.3937 H   0  0  0  0  0  0  0  0  0  0  0  0
  145.3592  139.2317  153.5921 H   0  0  0  0  0  0  0  0  0  0  0  0
  147.3415  136.8691  155.8651 H   0  0  0  0  0  0  0  0  0  0  0  0
  146.5652  136.7707  154.2752 H   0  0  0  0  0  0  0  0  0  0  0  0
  148.8276  138.6164  155.1305 H   0  0  0  0  0  0  0  0  0  0  0  0
  148.8763  137.5067  153.7624 H   0  0  0  0  0  0  0  0  0  0  0  0
  147.7026  137.8768  152.1573 H   0  0  0  0  0  0  0  0  0  0  0  0
  149.0964  140.3730  152.4570 H   0  0  0  0  0  0  0  0  0  0  0  0
  147.8010  141.3780  153.0605 H   0  0  0  0  0  0  0  0  0  0  0  0
  148.2152  142.6221  155.1951 H   0  0  0  0  0  0  0  0  0  0  0  0
  151.1903  140.4677  159.4959 H   0  0  0  0  0  0  0  0  0  0  0  0
  152.4374  139.3128  159.0542 H   0  0  0  0  0  0  0  0  0  0  0  0
  152.9877  140.4815  161.2007 H   0  0  0  0  0  0  0  0  0  0  0  0
  154.1967  140.7422  159.9677 H   0  0  0  0  0  0  0  0  0  0  0  0
  150.5071  144.3487  161.5132 H   0  0  0  0  0  0  0  0  0  0  0  0
  152.1529  144.4176  162.1217 H   0  0  0  0  0  0  0  0  0  0  0  0
  153.0353  145.2144  158.3760 H   0  0  0  0  0  0  0  0  0  0  0  0
  152.3424  142.9780  156.9784 H   0  0  0  0  0  0  0  0  0  0  0  0
  151.1307  142.6876  158.2019 H   0  0  0  0  0  0  0  0  0  0  0  0
  152.5638  137.8845  154.8604 H   0  0  0  0  0  0  0  0  0  0  0  0
  1  2  1  0  0  0  0
  1 31  1  0  0  0  0
  1 32  1  0  0  0  0
  1 33  1  0  0  0  0
  2  6  1  0  0  0  0
  2  3  1  0  0  0  0
  2 34  1  0  0  0  0
  3  4  1  0  0  0  0
  4  5  1  0  0  0  0
  4 35  1  0  0  0  0
  4 36  1  0  0  0  0
  5  6  1  0  0  0  0
  5 37  1  0  0  0  0
  5 38  1  0  0  0  0
  6  7  1  0  0  0  0
  6  8  1  0  0  0  0
  7 39  1  0  0  0  0
  8  9  1  0  0  0  0
  8 40  1  0  0  0  0
  8 41  1  0  0  0  0
  9 28  1  0  0  0  0
  9 10  1  0  0  0  0
 10 11  2  0  0  0  0
 10 42  1  0  0  0  0
 11 12  1  0  0  0  0
 12 28  2  0  0  0  0
 12 13  1  0  0  0  0
 13 14  1  0  0  0  0
 13 25  2  0  0  0  0
 14 24  1  0  0  0  0
 14 15  1  0  0  0  0
 15 16  1  0  0  0  0
 15 43  1  0  0  0  0
 15 44  1  0  0  0  0
 16 17  1  0  0  0  0
 16 45  1  0  0  0  0
 16 46  1  0  0  0  0
 17 29  1  0  0  0  0
 17 23  1  0  0  0  0
 17 18  1  0  0  0  0
 18 19  1  0  0  0  0
 19 20  1  0  0  0  0
 19 47  1  0  0  0  0
 19 48  1  0  0  0  0
 20 21  2  0  0  0  0
 20 22  1  0  0  0  0
 22 23  1  0  0  0  0
 22 49  1  0  0  0  0
 23 30  1  0  0  0  0
 23 24  1  0  0  0  0
 24 50  1  0  0  0  0
 24 51  1  0  0  0  0
 25 26  1  0  0  0  0
 26 27  2  0  0  0  0
 26 52  1  0  0  0  0
 27 28  1  0  0  0  0
M  END
> <s_m_source_file>
AV-unprocessed.smi

> <i_m_source_file_index>
265

> <i_lp_mmshare_version>
43012

> <i_f3d_flags>
0

> <s_epik_input>
W0NIMl0xW0NIMl1PW0NAQEhdKFtDSDNdKVtDQEBdMShbT0hdKVtDSDJdbihbY0hdbjIpYyhjMjMpbltjSF1uYzNOKFtDSDJdW0NIMl00KVtDSDJdW0NAQEhdKFtDQEhdNDUpW05IXUMoPU8pW0NIMl1PNQ==

> <s_epik_cmdline>
J2VwaWtfcHl0aG9uJywgJy1waCcsICc3LjAnLCAnLXRuJywgJzgnLCAnLW1hJywgJzIwMCcsICctbWV0YWxfYmluZGluZycsICctaW1hZScsICc8aW5maWxlLm1hZT4nLCAnLW9tYWUnLCAnPG91dGZpbGUubWFlPic=

> <r_lp_tautomer_probability>
1

> <r_epik_Ionization_Penalty>
0.00221504

> <r_epik_Ionization_Penalty_Charging>
0

> <r_epik_Ionization_Penalty_Neutral>
0.00221504

> <r_epik_State_Penalty>
-0

> <r_epik_Charging_Adjusted_Penalty>
0

> <i_epik_Tot_Q>
0

> <i_epik_Tot_abs_Q>
0

> <r_epik_Metal_State_Penalty>
-0

> <b_epik_Metal_Only>
0

> <s_lp_Force_Field>
OPLS_2005

> <r_lp_Energy>
44.3548

> <b_lp_Chiralities_Consistent>
1

> <s_lp_Variant>
AV-unprocessed.smi:265-9

> <Gold.Version>
5.8.1

> <Gold.Id.Protein>
6NUR|6NUR_protein|mol2

> <Gold.PLP.Fitness>
50.2867

> <Gold.PLP.PLP>
-44.1361

> <Gold.PLP.part.hbond>
-6.8676

> <Gold.PLP.part.metal>
0.0000

> <Gold.PLP.part.buried>
1.9400

> <Gold.PLP.part.nonpolar>
-40.3474

> <Gold.PLP.part.repulsive>
1.4730

> <Gold.PLP.ligand.clash>
0.0000

> <Gold.PLP.ligand.torsion>
0.9977

> <Gold.PLP.Chemscore.Hbond>
2.0076

> <Gold.PLP.Chemscore.CHOScore>
0.5901

> <Gold.PLP.Chemscore.Metal>
0.0000

> <Gold.Chemscore.Hbonds>
donor molecule, donor type, donor heavy atom, donor atom, acceptor molecule, acceptor atom, score
      L1  H     7    39       P1  7948  0.91
      P1  H  6933  6945       L1    18  0.06
      P1  H  7997  8010       L1    25  0.80
      L1  C    10    42       P1  8028  0.64

> <Gold.PLP.Chemscore.Internal.Correction>
0.3528

> <Gold.Rescore>
     Score         DG    S(hbond)    S(metal)    S(lipo)     H(rot)  DE(clash)    DE(int)     intcor
      7.11     -14.53       1.44        0.00      85.52       2.25       3.05       4.37       ----

> <Gold.Chemscore.Fitness>
7.1120

> <Gold.Chemscore.DG>
-14.5314

> <Gold.Chemscore.ZeroCoef>
-5.4800

> <Gold.Chemscore.Hbond>
1.4352

> <Gold.Chemscore.Metal>
0.0000

> <Gold.Chemscore.Lipo>
85.5204

> <Gold.Chemscore.Internal_Hbond>
0.0000

> <Gold.Chemscore.DEClash>
3.0503

> <Gold.Chemscore.DEInternal>
4.3691

> <Gold.Chemscore.Rot>
2.2453

> <Gold.Chemscore.Internal.Correction>
   9.000000E+99

> <Gold.Chemscore.Hbonds>
donor molecule, donor type, donor heavy atom, donor atom, acceptor molecule, acceptor atom, score
      L1  H     7    39       P1  7948  0.89
      P1  H  6933  6945       L1    18  0.02
      P1  H  7997  8010       L1    25  0.11

> <Gold.Chemscore.Hbond.Weighted>
-4.7934

> <Gold.Chemscore.Metal.Weighted>
-0.0000

> <Gold.Chemscore.Lipo.Weighted>
-10.0059

> <Gold.Chemscore.Internal_Hbond.Weighted>
0.0000

> <Gold.Chemscore.DEClash.Weighted>
3.0503

> <Gold.Chemscore.DEInternal.Weighted>
4.3691

> <Gold.Chemscore.Rot.Weighted>
5.7479

> <Gold.Chemscore.Internal.Correction.Weighted>
   9.000000E+99

> <Gold.Protein.RotatedTorsions>
[ 6907 6896 6895 6894 ] final   24.87 input  -60.11 | X-H torsion
[ 7974 7965 7964 7962 ] final  -51.61 input  175.53 | X-H torsion
[ 8008 7997 7996 7995 ] final   84.05 input   59.86 | X-H torsion
[ 10167 10162 10161 10158 ] final  103.89 input  -65.29 | X-H torsion
[ 10718 10713 10712 10709 ] final  -36.76 input   66.30 | X-H torsion
[ 10763 10752 10751 10750 ] final  -10.83 input  -60.55 | X-H torsion
[ 11005 11000 10999 10996 ] final   11.10 input  -57.11 | X-H torsion

> <Gold.Protein.ActiveResidues>
 VAL166  LYS551  ARG553  GLY616  TRP617  ASP618  TYR619  PRO620  LYS621  CYS622 
 ASP623  PHE694  ASN695  SER759  ASP760  ASP761  ALA762  ILE779  LEU786  VAL792 
 PHE793  MET794  SER795  GLU796  ALA797  LYS798  CYS799  TRP800  GLU811  SER814 

> <Gold.Protein.RotatedAtoms>
  151.9640  135.0109  160.0548 H   0  0  0  0  0  0  0  0  0  0  0  0  # atno 6907 bound_to 6896
  152.1843  133.4724  159.4983 H   0  0  0  0  0  0  0  0  0  0  0  0  # atno 6908 bound_to 6896
  150.6923  134.1711  159.4255 H   0  0  0  0  0  0  0  0  0  0  0  0  # atno 6909 bound_to 6896
  145.9170  140.7866  142.9666 H   0  0  0  0  0  0  0  0  0  0  0  0  # atno 7974 bound_to 7965
  155.9320  140.3414  155.6257 H   0  0  0  0  0  0  0  0  0  0  0  0  # atno 8008 bound_to 7997
  155.7145  140.0776  157.2375 H   0  0  0  0  0  0  0  0  0  0  0  0  # atno 8009 bound_to 7997
  154.4087  140.1616  156.2321 H   0  0  0  0  0  0  0  0  0  0  0  0  # atno 8010 bound_to 7997
  139.7224  144.7055  151.0851 H   0  0  0  0  0  0  0  0  0  0  0  0  # atno 10167 bound_to 10162
  156.3231  130.4268  149.7941 H   0  0  0  0  0  0  0  0  0  0  0  0  # atno 10718 bound_to 10713
  153.4749  135.7017  153.5972 H   0  0  0  0  0  0  0  0  0  0  0  0  # atno 10763 bound_to 10752
  153.4210  135.3825  155.2111 H   0  0  0  0  0  0  0  0  0  0  0  0  # atno 10764 bound_to 10752
  154.8724  135.3927  154.4191 H   0  0  0  0  0  0  0  0  0  0  0  0  # atno 10765 bound_to 10752
  140.5071  134.0689  155.7808 H   0  0  0  0  0  0  0  0  0  0  0  0  # atno 11005 bound_to 11000
  144.6749  140.1916  143.7396 LP  0  0  0  0  0  0  0  0  0  0  0  0  # atno 17320 bound_to 7965
  145.8598  139.2217  143.1723 LP  0  0  0  0  0  0  0  0  0  0  0  0  # atno 17321 bound_to 7965
  140.7756  143.5149  150.9607 LP  0  0  0  0  0  0  0  0  0  0  0  0  # atno 17342 bound_to 10162
  139.8836  143.7041  152.3154 LP  0  0  0  0  0  0  0  0  0  0  0  0  # atno 17343 bound_to 10162
  156.5242  130.8228  151.3214 LP  0  0  0  0  0  0  0  0  0  0  0  0  # atno 17370 bound_to 10713
  157.7416  130.9873  150.2455 LP  0  0  0  0  0  0  0  0  0  0  0  0  # atno 17371 bound_to 10713
  141.1405  133.9146  157.2336 LP  0  0  0  0  0  0  0  0  0  0  0  0  # atno 17394 bound_to 11000
  139.9680  135.0136  156.9438 LP  0  0  0  0  0  0  0  0  0  0  0  0  # atno 17395 bound_to 11000

$$$$
