AV-unprocessed.smi:3202|AV-procd|sdf|12241|dock10
  -GOLD-   2272018 73D 1   1.00000     0.00000
 Structure written by MMmdl.
 43 44  0  0  0  0  0  0  0  0  2 V2000
  146.6526  138.2006  152.9472 C   0  0  0  0  0  0  0  0  0  0  0  0
  147.7149  139.0893  153.4989 C   0  0  0  0  0  0  0  0  0  0  0  0
  147.6505  140.3278  154.0723 C   0  0  0  0  0  0  0  0  0  0  0  0
  149.0047  140.6407  154.3905 C   0  0  0  0  0  0  0  0  0  0  0  0
  149.5327  141.8930  155.0369 C   0  0  0  0  0  0  0  0  0  0  0  0
  149.8925  141.7109  156.5300 C   0  0  2  0  0  0  0  0  0  0  0  0
  148.6529  141.5775  157.4301 C   0  0  0  0  0  0  0  0  0  0  0  0
  150.7126  142.8454  157.0136 N   0  3  0  0  0  0  0  0  0  0  0  0
  150.7105  143.0747  158.4786 C   0  0  2  0  0  0  0  0  0  0  0  0
  149.6599  144.0979  158.9336 C   0  0  0  0  0  0  0  0  0  0  0  0
  150.2051  144.6956  160.2371 C   0  0  0  0  0  0  0  0  0  0  0  0
  151.6325  144.1520  160.3971 C   0  0  0  0  0  0  0  0  0  0  0  0
  152.0524  143.6169  159.0161 C   0  0  0  0  0  0  0  0  0  0  0  0
  153.1072  142.5026  159.1486 C   0  0  0  0  0  0  0  0  0  0  0  0
  152.6235  144.7703  158.1586 C   0  0  0  0  0  0  0  0  0  0  0  0
  149.8413  139.6731  154.0422 N   0  0  0  0  0  0  0  0  0  0  0  0
  149.0440  138.7346  153.4993 N   0  0  0  0  0  0  0  0  0  0  0  0
  149.4154  137.8664  153.1395 H   0  0  0  0  0  0  0  0  0  0  0  0
  145.6640  138.6355  153.0961 H   0  0  0  0  0  0  0  0  0  0  0  0
  146.6682  137.2265  153.4364 H   0  0  0  0  0  0  0  0  0  0  0  0
  146.7944  138.0456  151.8775 H   0  0  0  0  0  0  0  0  0  0  0  0
  146.7656  140.9241  154.2399 H   0  0  0  0  0  0  0  0  0  0  0  0
  150.4074  142.2247  154.4786 H   0  0  0  0  0  0  0  0  0  0  0  0
  148.8026  142.6976  154.9354 H   0  0  0  0  0  0  0  0  0  0  0  0
  150.4708  140.7937  156.6427 H   0  0  0  0  0  0  0  0  0  0  0  0
  148.0780  140.6823  157.1933 H   0  0  0  0  0  0  0  0  0  0  0  0
  147.9907  142.4377  157.3258 H   0  0  0  0  0  0  0  0  0  0  0  0
  148.9377  141.5028  158.4800 H   0  0  0  0  0  0  0  0  0  0  0  0
  151.6638  142.6974  156.7082 H   0  0  0  0  0  0  0  0  0  0  0  0
  150.5028  142.1329  158.9873 H   0  0  0  0  0  0  0  0  0  0  0  0
  149.5472  144.8883  158.1901 H   0  0  0  0  0  0  0  0  0  0  0  0
  148.6793  143.6425  159.0751 H   0  0  0  0  0  0  0  0  0  0  0  0
  150.2105  145.7844  160.1763 H   0  0  0  0  0  0  0  0  0  0  0  0
  149.5878  144.4212  161.0933 H   0  0  0  0  0  0  0  0  0  0  0  0
  152.3194  144.9030  160.7890 H   0  0  0  0  0  0  0  0  0  0  0  0
  151.6131  143.3354  161.1205 H   0  0  0  0  0  0  0  0  0  0  0  0
  154.0200  142.8783  159.6122 H   0  0  0  0  0  0  0  0  0  0  0  0
  153.3767  142.0939  158.1741 H   0  0  0  0  0  0  0  0  0  0  0  0
  152.7460  141.6761  159.7616 H   0  0  0  0  0  0  0  0  0  0  0  0
  153.5095  145.2016  158.6258 H   0  0  0  0  0  0  0  0  0  0  0  0
  151.9043  145.5786  158.0247 H   0  0  0  0  0  0  0  0  0  0  0  0
  152.9214  144.4276  157.1673 H   0  0  0  0  0  0  0  0  0  0  0  0
  150.3687  143.6899  156.5791 H   0  0  0  0  0  0  0  0  0  0  0  0
  1  2  1  0  0  0  0
  1 19  1  0  0  0  0
  1 20  1  0  0  0  0
  1 21  1  0  0  0  0
  2 17  1  0  0  0  0
  2  3  2  0  0  0  0
  3  4  1  0  0  0  0
  3 22  1  0  0  0  0
  4  5  1  0  0  0  0
  4 16  2  0  0  0  0
  5  6  1  0  0  0  0
  5 23  1  0  0  0  0
  5 24  1  0  0  0  0
  6  7  1  0  0  0  0
  6  8  1  0  0  0  0
  6 25  1  0  0  0  0
  7 26  1  0  0  0  0
  7 27  1  0  0  0  0
  7 28  1  0  0  0  0
  8  9  1  0  0  0  0
  8 29  1  0  0  0  0
  8 43  1  0  0  0  0
  9 13  1  0  0  0  0
  9 10  1  0  0  0  0
  9 30  1  0  0  0  0
 10 11  1  0  0  0  0
 10 31  1  0  0  0  0
 10 32  1  0  0  0  0
 11 12  1  0  0  0  0
 11 33  1  0  0  0  0
 11 34  1  0  0  0  0
 12 13  1  0  0  0  0
 12 35  1  0  0  0  0
 12 36  1  0  0  0  0
 13 14  1  0  0  0  0
 13 15  1  0  0  0  0
 14 37  1  0  0  0  0
 14 38  1  0  0  0  0
 14 39  1  0  0  0  0
 15 40  1  0  0  0  0
 15 41  1  0  0  0  0
 15 42  1  0  0  0  0
 16 17  1  0  0  0  0
 17 18  1  0  0  0  0
M  CHG  1   8   1
M  END
> <s_m_source_file>
AV-unprocessed.smi

> <i_m_source_file_index>
3202

> <i_lp_mmshare_version>
43012

> <i_f3d_flags>
0

> <s_epik_input>
W0NIM11jMVtjSF1jKG5bbkhdMSlbQ0gyXVtDQEhdKFtDSDNdKVtOSF1bQ0BASF0oQzIoW0NIM10pW0NIM10pW0NIMl1bQ0gyXVtDSDJdMg==

> <s_epik_cmdline>
J2VwaWtfcHl0aG9uJywgJy1waCcsICc3LjAnLCAnLXRuJywgJzgnLCAnLW1hJywgJzIwMCcsICctbWV0YWxfYmluZGluZycsICctaW1hZScsICc8aW5maWxlLm1hZT4nLCAnLW9tYWUnLCAnPG91dGZpbGUubWFlPic=

> <r_lp_tautomer_probability>
0.5

> <r_epik_Ionization_Penalty>
0.000341671

> <r_epik_Ionization_Penalty_Charging>
0.000281809

> <r_epik_Ionization_Penalty_Neutral>
5.9862e-05

> <r_epik_State_Penalty>
0.41068

> <r_epik_Charging_Adjusted_Penalty>
0.410962

> <i_epik_Tot_Q>
1

> <i_epik_Tot_abs_Q>
1

> <r_epik_Metal_State_Penalty>
0.410672

> <b_epik_Metal_Only>
0

> <s_lp_Force_Field>
OPLS_2005

> <r_lp_Energy>
28.8614

> <b_lp_Chiralities_Consistent>
1

> <s_lp_Variant>
AV-unprocessed.smi:3202-1

> <Gold.Version>
5.8.1

> <Gold.Id.Protein>
6NUR|6NUR_protein|mol2

> <Gold.PLP.Fitness>
44.0701

> <Gold.PLP.PLP>
-36.2309

> <Gold.PLP.part.hbond>
-3.7058

> <Gold.PLP.part.metal>
0.0000

> <Gold.PLP.part.buried>
-1.8441

> <Gold.PLP.part.nonpolar>
-32.0375

> <Gold.PLP.part.repulsive>
1.6336

> <Gold.PLP.ligand.clash>
0.0000

> <Gold.PLP.ligand.torsion>
1.0137

> <Gold.PLP.Chemscore.Hbond>
3.2865

> <Gold.PLP.Chemscore.CHOScore>
0.0000

> <Gold.PLP.Chemscore.Metal>
0.0000

> <Gold.Chemscore.Hbonds>
donor molecule, donor type, donor heavy atom, donor atom, acceptor molecule, acceptor atom, score
      L1  H     8    43       P1  8028  2.00
      L1  H    17    18       P1  7948  0.73
      P1  H  7989  7998       L1    16  0.53

> <Gold.PLP.Chemscore.Internal.Correction>
0.0072

> <Gold.Rescore>
     Score         DG    S(hbond)    S(metal)    S(lipo)     H(rot)  DE(clash)    DE(int)     intcor
     18.50     -20.99       1.62        0.00     118.30       1.46       1.38       1.12       ----

> <Gold.Chemscore.Fitness>
18.4953

> <Gold.Chemscore.DG>
-20.9949

> <Gold.Chemscore.ZeroCoef>
-5.4800

> <Gold.Chemscore.Hbond>
1.6199

> <Gold.Chemscore.Metal>
0.0000

> <Gold.Chemscore.Lipo>
118.2979

> <Gold.Chemscore.Internal_Hbond>
0.0000

> <Gold.Chemscore.DEClash>
1.3839

> <Gold.Chemscore.DEInternal>
1.1157

> <Gold.Chemscore.Rot>
1.4596

> <Gold.Chemscore.Internal.Correction>
   9.000000E+99

> <Gold.Chemscore.Hbonds>
donor molecule, donor type, donor heavy atom, donor atom, acceptor molecule, acceptor atom, score
      L1  H     8    43       P1  8028  0.91
      L1  H    17    18       P1  7948  0.67
      P1  H  7989  7998       L1    16  0.13

> <Gold.Chemscore.Hbond.Weighted>
-5.4105

> <Gold.Chemscore.Metal.Weighted>
-0.0000

> <Gold.Chemscore.Lipo.Weighted>
-13.8408

> <Gold.Chemscore.Internal_Hbond.Weighted>
0.0000

> <Gold.Chemscore.DEClash.Weighted>
1.3839

> <Gold.Chemscore.DEInternal.Weighted>
1.1157

> <Gold.Chemscore.Rot.Weighted>
3.7365

> <Gold.Chemscore.Internal.Correction.Weighted>
   9.000000E+99

> <Gold.Protein.RotatedTorsions>
[ 6907 6896 6895 6894 ] final  112.38 input  -60.11 | X-H torsion
[ 7974 7965 7964 7962 ] final -104.94 input  175.53 | X-H torsion
[ 8008 7997 7996 7995 ] final  -13.80 input   59.86 | X-H torsion
[ 10167 10162 10161 10158 ] final  -49.72 input  -65.29 | X-H torsion
[ 10718 10713 10712 10709 ] final   -4.92 input   66.30 | X-H torsion
[ 10763 10752 10751 10750 ] final  -77.25 input  -60.55 | X-H torsion
[ 11005 11000 10999 10996 ] final  -84.48 input  -57.11 | X-H torsion

> <Gold.Protein.ActiveResidues>
 VAL166  LYS551  ARG553  GLY616  TRP617  ASP618  TYR619  PRO620  LYS621  CYS622 
 ASP623  PHE694  ASN695  SER759  ASP760  ASP761  ALA762  ILE779  LEU786  VAL792 
 PHE793  MET794  SER795  GLU796  ALA797  LYS798  CYS799  TRP800  GLU811  SER814 

> <Gold.Protein.RotatedAtoms>
  152.4919  133.8524  159.7208 H   0  0  0  0  0  0  0  0  0  0  0  0  # atno 6907 bound_to 6896
  150.9057  133.7052  159.2874 H   0  0  0  0  0  0  0  0  0  0  0  0  # atno 6908 bound_to 6896
  151.4478  135.1031  159.9741 H   0  0  0  0  0  0  0  0  0  0  0  0  # atno 6909 bound_to 6896
  145.2368  140.9191  143.3173 H   0  0  0  0  0  0  0  0  0  0  0  0  # atno 7974 bound_to 7965
  154.5262  140.2240  155.8886 H   0  0  0  0  0  0  0  0  0  0  0  0  # atno 8008 bound_to 7997
  156.1715  140.3120  155.8947 H   0  0  0  0  0  0  0  0  0  0  0  0  # atno 8009 bound_to 7997
  155.3547  140.0457  157.3037 H   0  0  0  0  0  0  0  0  0  0  0  0  # atno 8010 bound_to 7997
  140.6671  143.2686  151.4256 H   0  0  0  0  0  0  0  0  0  0  0  0  # atno 10167 bound_to 10162
  156.7542  130.5249  149.5798 H   0  0  0  0  0  0  0  0  0  0  0  0  # atno 10718 bound_to 10713
  154.5105  135.5770  153.6601 H   0  0  0  0  0  0  0  0  0  0  0  0  # atno 10763 bound_to 10752
  152.9896  135.6157  154.2886 H   0  0  0  0  0  0  0  0  0  0  0  0  # atno 10764 bound_to 10752
  154.2800  135.2851  155.2681 H   0  0  0  0  0  0  0  0  0  0  0  0  # atno 10765 bound_to 10752
  141.1650  133.7348  156.8874 H   0  0  0  0  0  0  0  0  0  0  0  0  # atno 11005 bound_to 11000
  144.9625  139.3964  143.6348 LP  0  0  0  0  0  0  0  0  0  0  0  0  # atno 17320 bound_to 7965
  146.3339  139.8685  142.8844 LP  0  0  0  0  0  0  0  0  0  0  0  0  # atno 17321 bound_to 7965
  139.5925  144.1469  152.2105 LP  0  0  0  0  0  0  0  0  0  0  0  0  # atno 17342 bound_to 10162
  140.0828  144.5686  150.7110 LP  0  0  0  0  0  0  0  0  0  0  0  0  # atno 17343 bound_to 10162
  156.1381  130.6225  151.0429 LP  0  0  0  0  0  0  0  0  0  0  0  0  # atno 17370 bound_to 10713
  157.6763  131.0849  150.7485 LP  0  0  0  0  0  0  0  0  0  0  0  0  # atno 17371 bound_to 10713
  140.1672  134.9125  157.2789 LP  0  0  0  0  0  0  0  0  0  0  0  0  # atno 17394 bound_to 11000
  140.2543  134.3646  155.7430 LP  0  0  0  0  0  0  0  0  0  0  0  0  # atno 17395 bound_to 11000

$$$$
