AV-unprocessed.smi:1755|AV-procd|sdf|7070|dock10
  -GOLD-   22720 8293D 1   1.00000     0.00000
 Structure written by MMmdl.
 46 47  0  0  0  0  0  0  0  0  2 V2000
  150.9039  141.9190  156.1079 C   0  0  0  0  0  0  0  0  0  0  0  0
  149.9898  140.9984  155.3546 C   0  0  0  0  0  0  0  0  0  0  0  0
  150.0478  139.5766  155.2745 C   0  0  0  0  0  0  0  0  0  0  0  0
  148.9842  139.2770  154.4676 C   0  0  0  0  0  0  0  0  0  0  0  0
  148.5438  138.0605  154.0495 N   0  0  0  0  0  0  0  0  0  0  0  0
  147.3886  137.4395  154.3454 C   0  0  0  0  0  0  0  0  0  0  0  0
  146.5263  137.8642  155.1141 O   0  0  0  0  0  0  0  0  0  0  0  0
  147.2827  136.2754  153.6885 N   0  0  0  0  0  0  0  0  0  0  0  0
  146.1558  135.3472  153.7832 C   0  0  0  0  0  0  0  0  0  0  0  0
  145.7211  134.7534  152.4055 C   0  0  0  0  0  0  0  0  0  0  0  0
  146.8657  133.9681  151.8178 N   0  3  0  0  0  0  0  0  0  0  0  0
  146.6110  133.2846  150.5247 C   0  0  0  0  0  0  0  0  0  0  0  0
  147.5282  133.0460  152.7753 C   0  0  0  0  0  0  0  0  0  0  0  0
  144.4382  133.9121  152.5792 C   0  0  0  0  0  0  0  0  0  0  0  0
  143.2742  134.9126  152.6439 C   0  0  0  0  0  0  0  0  0  0  0  0
  143.7844  136.2093  152.0002 C   0  0  0  0  0  0  0  0  0  0  0  0
  145.1906  135.8848  151.4861 C   0  0  0  0  0  0  0  0  0  0  0  0
  148.3542  140.4478  154.1087 N   0  0  0  0  0  0  0  0  0  0  0  0
  147.1875  140.6470  153.2714 C   0  0  0  0  0  0  0  0  0  0  0  0
  148.9807  141.5101  154.6586 N   0  0  0  0  0  0  0  0  0  0  0  0
  151.6753  141.3607  156.6389 H   0  0  0  0  0  0  0  0  0  0  0  0
  150.3522  142.5037  156.8444 H   0  0  0  0  0  0  0  0  0  0  0  0
  151.4035  142.6151  155.4337 H   0  0  0  0  0  0  0  0  0  0  0  0
  150.7578  138.9102  155.7407 H   0  0  0  0  0  0  0  0  0  0  0  0
  149.1662  137.5727  153.4226 H   0  0  0  0  0  0  0  0  0  0  0  0
  148.0500  135.9991  153.0935 H   0  0  0  0  0  0  0  0  0  0  0  0
  146.4654  134.5487  154.4566 H   0  0  0  0  0  0  0  0  0  0  0  0
  145.3195  135.8206  154.2988 H   0  0  0  0  0  0  0  0  0  0  0  0
  145.7569  132.6098  150.5872 H   0  0  0  0  0  0  0  0  0  0  0  0
  147.4772  132.6958  150.2213 H   0  0  0  0  0  0  0  0  0  0  0  0
  146.4397  134.0029  149.7232 H   0  0  0  0  0  0  0  0  0  0  0  0
  146.8827  132.2045  153.0286 H   0  0  0  0  0  0  0  0  0  0  0  0
  147.8159  133.5466  153.6983 H   0  0  0  0  0  0  0  0  0  0  0  0
  148.4427  132.6413  152.3405 H   0  0  0  0  0  0  0  0  0  0  0  0
  144.2896  133.2667  151.7129 H   0  0  0  0  0  0  0  0  0  0  0  0
  144.4668  133.2645  153.4564 H   0  0  0  0  0  0  0  0  0  0  0  0
  142.3946  134.5247  152.1289 H   0  0  0  0  0  0  0  0  0  0  0  0
  142.9874  135.0997  153.6794 H   0  0  0  0  0  0  0  0  0  0  0  0
  143.1314  136.5528  151.1972 H   0  0  0  0  0  0  0  0  0  0  0  0
  143.8268  137.0062  152.7439 H   0  0  0  0  0  0  0  0  0  0  0  0
  145.8369  136.7605  151.4446 H   0  0  0  0  0  0  0  0  0  0  0  0
  145.0543  135.5482  150.4598 H   0  0  0  0  0  0  0  0  0  0  0  0
  146.3541  140.0591  153.6574 H   0  0  0  0  0  0  0  0  0  0  0  0
  147.4099  140.3259  152.2533 H   0  0  0  0  0  0  0  0  0  0  0  0
  146.9001  141.6995  153.2564 H   0  0  0  0  0  0  0  0  0  0  0  0
  147.5618  134.6654  151.5963 H   0  0  0  0  0  0  0  0  0  0  0  0
  1  2  1  0  0  0  0
  1 21  1  0  0  0  0
  1 22  1  0  0  0  0
  1 23  1  0  0  0  0
  2 20  2  0  0  0  0
  2  3  1  0  0  0  0
  3  4  2  0  0  0  0
  3 24  1  0  0  0  0
  4  5  1  0  0  0  0
  4 18  1  0  0  0  0
  5  6  1  0  0  0  0
  5 25  1  0  0  0  0
  6  7  2  0  0  0  0
  6  8  1  0  0  0  0
  8  9  1  0  0  0  0
  8 26  1  0  0  0  0
  9 10  1  0  0  0  0
  9 27  1  0  0  0  0
  9 28  1  0  0  0  0
 10 17  1  0  0  0  0
 10 11  1  0  0  0  0
 10 14  1  0  0  0  0
 11 12  1  0  0  0  0
 11 13  1  0  0  0  0
 11 46  1  0  0  0  0
 12 29  1  0  0  0  0
 12 30  1  0  0  0  0
 12 31  1  0  0  0  0
 13 32  1  0  0  0  0
 13 33  1  0  0  0  0
 13 34  1  0  0  0  0
 14 15  1  0  0  0  0
 14 35  1  0  0  0  0
 14 36  1  0  0  0  0
 15 16  1  0  0  0  0
 15 37  1  0  0  0  0
 15 38  1  0  0  0  0
 16 17  1  0  0  0  0
 16 39  1  0  0  0  0
 16 40  1  0  0  0  0
 17 41  1  0  0  0  0
 17 42  1  0  0  0  0
 18 19  1  0  0  0  0
 18 20  1  0  0  0  0
 19 43  1  0  0  0  0
 19 44  1  0  0  0  0
 19 45  1  0  0  0  0
M  CHG  1  11   1
M  END
> <s_m_source_file>
AV-unprocessed.smi

> <i_m_source_file_index>
1755

> <i_lp_mmshare_version>
43012

> <i_f3d_flags>
0

> <s_epik_input>
W0NIM11jMVtjSF1jKG4objEpW0NIM10pW05IXUMoPU8pW05IXVtDSDJdQzIoTihbQ0gzXSlbQ0gzXSlbQ0gyXVtDSDJdW0NIMl1bQ0gyXTI=

> <s_epik_cmdline>
J2VwaWtfcHl0aG9uJywgJy1waCcsICc3LjAnLCAnLXRuJywgJzgnLCAnLW1hJywgJzIwMCcsICctbWV0YWxfYmluZGluZycsICctaW1hZScsICc8aW5maWxlLm1hZT4nLCAnLW9tYWUnLCAnPG91dGZpbGUubWFlPic=

> <r_lp_tautomer_probability>
1

> <r_epik_Ionization_Penalty>
0.00248705

> <r_epik_Ionization_Penalty_Charging>
0.00240703

> <r_epik_Ionization_Penalty_Neutral>
8.00151e-05

> <r_epik_State_Penalty>
0.00166499

> <r_epik_Charging_Adjusted_Penalty>
0.00407202

> <i_epik_Tot_Q>
1

> <i_epik_Tot_abs_Q>
1

> <r_epik_Metal_State_Penalty>
-0

> <b_epik_Metal_Only>
0

> <s_lp_Force_Field>
OPLS_2005

> <r_lp_Energy>
45.253

> <b_lp_Chiralities_Consistent>
1

> <s_lp_Variant>
AV-unprocessed.smi:1755-1

> <Gold.Version>
5.8.1

> <Gold.Id.Protein>
6NUR|6NUR_protein|mol2

> <Gold.PLP.Fitness>
41.6510

> <Gold.PLP.PLP>
-32.2489

> <Gold.PLP.part.hbond>
-2.8405

> <Gold.PLP.part.metal>
0.0000

> <Gold.PLP.part.buried>
-4.2394

> <Gold.PLP.part.nonpolar>
-24.9408

> <Gold.PLP.part.repulsive>
0.2368

> <Gold.PLP.ligand.clash>
0.0000

> <Gold.PLP.ligand.torsion>
0.8996

> <Gold.PLP.Chemscore.Hbond>
3.6838

> <Gold.PLP.Chemscore.CHOScore>
0.0000

> <Gold.PLP.Chemscore.Metal>
0.0000

> <Gold.Chemscore.Hbonds>
donor molecule, donor type, donor heavy atom, donor atom, acceptor molecule, acceptor atom, score
      L1  H     5    25       P1  7948  0.72
      L1  H     8    26       P1  7948  1.00
      L1  H    11    46       P1  7948  1.89

> <Gold.PLP.Chemscore.Internal.Correction>
0.1499

> <Gold.Rescore>
     Score         DG    S(hbond)    S(metal)    S(lipo)     H(rot)  DE(clash)    DE(int)     intcor
     15.05     -15.95       2.04        0.00      63.60       1.49       0.02       0.88       ----

> <Gold.Chemscore.Fitness>
15.0467

> <Gold.Chemscore.DG>
-15.9473

> <Gold.Chemscore.ZeroCoef>
-5.4800

> <Gold.Chemscore.Hbond>
2.0443

> <Gold.Chemscore.Metal>
0.0000

> <Gold.Chemscore.Lipo>
63.5981

> <Gold.Chemscore.Internal_Hbond>
0.0000

> <Gold.Chemscore.DEClash>
0.0231

> <Gold.Chemscore.DEInternal>
0.8775

> <Gold.Chemscore.Rot>
1.4851

> <Gold.Chemscore.Internal.Correction>
   9.000000E+99

> <Gold.Chemscore.Hbonds>
donor molecule, donor type, donor heavy atom, donor atom, acceptor molecule, acceptor atom, score
      L1  H     5    25       P1  7948  0.67
      L1  H     8    26       P1  7948  0.91
      L1  H    11    46       P1  7948  0.31

> <Gold.Chemscore.Hbond.Weighted>
-6.8281

> <Gold.Chemscore.Metal.Weighted>
-0.0000

> <Gold.Chemscore.Lipo.Weighted>
-7.4410

> <Gold.Chemscore.Internal_Hbond.Weighted>
0.0000

> <Gold.Chemscore.DEClash.Weighted>
0.0231

> <Gold.Chemscore.DEInternal.Weighted>
0.8775

> <Gold.Chemscore.Rot.Weighted>
3.8018

> <Gold.Chemscore.Internal.Correction.Weighted>
   9.000000E+99

> <Gold.Protein.RotatedTorsions>
[ 6907 6896 6895 6894 ] final   82.75 input  -60.11 | X-H torsion
[ 7974 7965 7964 7962 ] final   35.62 input  175.53 | X-H torsion
[ 8008 7997 7996 7995 ] final -171.47 input   59.86 | X-H torsion
[ 10167 10162 10161 10158 ] final -169.24 input  -65.29 | X-H torsion
[ 10718 10713 10712 10709 ] final  159.49 input   66.30 | X-H torsion
[ 10763 10752 10751 10750 ] final   95.24 input  -60.55 | X-H torsion
[ 11005 11000 10999 10996 ] final   40.79 input  -57.11 | X-H torsion

> <Gold.Protein.ActiveResidues>
 VAL166  LYS551  ARG553  GLY616  TRP617  ASP618  TYR619  PRO620  LYS621  CYS622 
 ASP623  PHE694  ASN695  SER759  ASP760  ASP761  ALA762  ILE779  LEU786  VAL792 
 PHE793  MET794  SER795  GLU796  ALA797  LYS798  CYS799  TRP800  GLU811  SER814 

> <Gold.Protein.RotatedAtoms>
  152.5308  134.3001  159.9074 H   0  0  0  0  0  0  0  0  0  0  0  0  # atno 6907 bound_to 6896
  151.2952  133.4141  159.2643 H   0  0  0  0  0  0  0  0  0  0  0  0  # atno 6908 bound_to 6896
  151.0167  134.9454  159.8094 H   0  0  0  0  0  0  0  0  0  0  0  0  # atno 6909 bound_to 6896
  146.1270  139.6120  142.9252 H   0  0  0  0  0  0  0  0  0  0  0  0  # atno 7974 bound_to 7965
  155.9320  140.1093  157.1125 H   0  0  0  0  0  0  0  0  0  0  0  0  # atno 8008 bound_to 7997
  154.4072  140.1236  156.4880 H   0  0  0  0  0  0  0  0  0  0  0  0  # atno 8009 bound_to 7997
  155.7068  140.3471  155.4959 H   0  0  0  0  0  0  0  0  0  0  0  0  # atno 8010 bound_to 7997
  139.5935  144.1162  152.1662 H   0  0  0  0  0  0  0  0  0  0  0  0  # atno 10167 bound_to 10162
  157.1635  131.0593  151.2220 H   0  0  0  0  0  0  0  0  0  0  0  0  # atno 10718 bound_to 10713
  153.2509  135.4261  155.0796 H   0  0  0  0  0  0  0  0  0  0  0  0  # atno 10763 bound_to 10752
  154.8381  135.3425  154.6514 H   0  0  0  0  0  0  0  0  0  0  0  0  # atno 10764 bound_to 10752
  153.6935  135.7032  153.5140 H   0  0  0  0  0  0  0  0  0  0  0  0  # atno 10765 bound_to 10752
  140.1897  134.4002  155.8153 H   0  0  0  0  0  0  0  0  0  0  0  0  # atno 11005 bound_to 11000
  145.5344  141.0425  143.2365 LP  0  0  0  0  0  0  0  0  0  0  0  0  # atno 17320 bound_to 7965
  144.7652  139.6862  143.7218 LP  0  0  0  0  0  0  0  0  0  0  0  0  # atno 17321 bound_to 7965
  140.0742  144.5754  150.7169 LP  0  0  0  0  0  0  0  0  0  0  0  0  # atno 17342 bound_to 10162
  140.7193  143.2573  151.4332 LP  0  0  0  0  0  0  0  0  0  0  0  0  # atno 17343 bound_to 10162
  157.4110  130.7385  149.6839 LP  0  0  0  0  0  0  0  0  0  0  0  0  # atno 17370 bound_to 10713
  155.9750  130.4095  150.3883 LP  0  0  0  0  0  0  0  0  0  0  0  0  # atno 17371 bound_to 10713
  141.2226  133.7040  156.8074 LP  0  0  0  0  0  0  0  0  0  0  0  0  # atno 17394 bound_to 11000
  140.2174  134.8783  157.3340 LP  0  0  0  0  0  0  0  0  0  0  0  0  # atno 17395 bound_to 11000

$$$$
