AV-unprocessed.smi:1254|AV-procd|sdf|5274|dock3
  -GOLD-   22720 4393D 1   1.00000     0.00000
 Structure written by MMmdl.
 45 46  0  0  0  0  0  0  0  0  1 V2000
  147.9233  130.7526  153.6484 C   0  0  0  0  0  0  0  0  0  0  0  0
  148.6323  132.0153  154.0010 C   0  0  0  0  0  0  0  0  0  0  0  0
  148.8196  133.1938  153.3350 C   0  0  0  0  0  0  0  0  0  0  0  0
  149.5813  133.9632  154.2543 C   0  0  0  0  0  0  0  0  0  0  0  0
  149.9889  135.2833  153.9353 N   0  0  0  0  0  0  0  0  0  0  0  0
  150.8973  136.0379  154.5765 C   0  0  0  0  0  0  0  0  0  0  0  0
  151.5427  135.6861  155.5646 O   0  0  0  0  0  0  0  0  0  0  0  0
  151.0163  137.2454  154.0067 N   0  0  0  0  0  0  0  0  0  0  0  0
  151.8868  138.3141  154.4845 C   0  0  0  0  0  0  0  0  0  0  0  0
  151.1595  139.2343  155.4797 C   0  0  1  0  0  0  0  0  0  0  0  0
  152.1393  139.9398  156.4373 C   0  0  0  0  0  0  0  0  0  0  0  0
  151.4566  140.8595  157.3414 N   0  0  0  0  0  0  0  0  0  0  0  0
  152.4075  141.5019  158.2501 C   0  0  0  0  0  0  0  0  0  0  0  0
  151.8470  142.6647  159.0973 C   0  0  0  0  0  0  0  0  0  0  0  0
  151.8623  143.9711  158.2903 C   0  0  0  0  0  0  0  0  0  0  0  0
  152.6237  142.8363  160.4130 C   0  0  0  0  0  0  0  0  0  0  0  0
  150.6916  141.8209  156.5505 C   0  0  0  0  0  0  0  0  0  0  0  0
  149.7243  141.1235  155.5792 C   0  0  0  0  0  0  0  0  0  0  0  0
  150.4494  140.2279  154.7438 O   0  0  0  0  0  0  0  0  0  0  0  0
  149.8382  133.3122  155.3787 N   0  0  0  0  0  0  0  0  0  0  0  0
  149.2303  132.0608  155.2225 O   0  0  0  0  0  0  0  0  0  0  0  0
  147.7383  130.6965  152.5754 H   0  0  0  0  0  0  0  0  0  0  0  0
  146.9631  130.6936  154.1610 H   0  0  0  0  0  0  0  0  0  0  0  0
  148.5143  129.8822  153.9346 H   0  0  0  0  0  0  0  0  0  0  0  0
  148.4652  133.4602  152.3502 H   0  0  0  0  0  0  0  0  0  0  0  0
  149.5315  135.7030  153.1396 H   0  0  0  0  0  0  0  0  0  0  0  0
  150.4456  137.4522  153.2002 H   0  0  0  0  0  0  0  0  0  0  0  0
  152.7785  137.8854  154.9453 H   0  0  0  0  0  0  0  0  0  0  0  0
  152.2297  138.8894  153.6242 H   0  0  0  0  0  0  0  0  0  0  0  0
  150.4499  138.6462  156.0651 H   0  0  0  0  0  0  0  0  0  0  0  0
  152.6769  139.1881  157.0165 H   0  0  0  0  0  0  0  0  0  0  0  0
  152.8890  140.4809  155.8576 H   0  0  0  0  0  0  0  0  0  0  0  0
  152.8014  140.7521  158.9379 H   0  0  0  0  0  0  0  0  0  0  0  0
  153.2666  141.8543  157.6769 H   0  0  0  0  0  0  0  0  0  0  0  0
  150.8048  142.4632  159.3435 H   0  0  0  0  0  0  0  0  0  0  0  0
  152.8775  144.2499  158.0058 H   0  0  0  0  0  0  0  0  0  0  0  0
  151.4402  144.7947  158.8670 H   0  0  0  0  0  0  0  0  0  0  0  0
  151.2743  143.8760  157.3769 H   0  0  0  0  0  0  0  0  0  0  0  0
  153.6780  143.0437  160.2267 H   0  0  0  0  0  0  0  0  0  0  0  0
  152.5652  141.9379  161.0284 H   0  0  0  0  0  0  0  0  0  0  0  0
  152.2213  143.6604  161.0027 H   0  0  0  0  0  0  0  0  0  0  0  0
  150.1134  142.4757  157.2010 H   0  0  0  0  0  0  0  0  0  0  0  0
  151.3716  142.4598  155.9852 H   0  0  0  0  0  0  0  0  0  0  0  0
  148.9535  140.5780  156.1261 H   0  0  0  0  0  0  0  0  0  0  0  0
  149.2154  141.8593  154.9566 H   0  0  0  0  0  0  0  0  0  0  0  0
  1  2  1  0  0  0  0
  1 22  1  0  0  0  0
  1 23  1  0  0  0  0
  1 24  1  0  0  0  0
  2 21  1  0  0  0  0
  2  3  2  0  0  0  0
  3  4  1  0  0  0  0
  3 25  1  0  0  0  0
  4  5  1  0  0  0  0
  4 20  2  0  0  0  0
  5  6  1  0  0  0  0
  5 26  1  0  0  0  0
  6  7  2  0  0  0  0
  6  8  1  0  0  0  0
  8  9  1  0  0  0  0
  8 27  1  0  0  0  0
  9 10  1  0  0  0  0
  9 28  1  0  0  0  0
  9 29  1  0  0  0  0
 10 19  1  0  0  0  0
 10 11  1  0  0  0  0
 10 30  1  0  0  0  0
 11 12  1  0  0  0  0
 11 31  1  0  0  0  0
 11 32  1  0  0  0  0
 12 13  1  0  0  0  0
 12 17  1  0  0  0  0
 13 14  1  0  0  0  0
 13 33  1  0  0  0  0
 13 34  1  0  0  0  0
 14 15  1  0  0  0  0
 14 16  1  0  0  0  0
 14 35  1  0  0  0  0
 15 36  1  0  0  0  0
 15 37  1  0  0  0  0
 15 38  1  0  0  0  0
 16 39  1  0  0  0  0
 16 40  1  0  0  0  0
 16 41  1  0  0  0  0
 17 18  1  0  0  0  0
 17 42  1  0  0  0  0
 17 43  1  0  0  0  0
 18 19  1  0  0  0  0
 18 44  1  0  0  0  0
 18 45  1  0  0  0  0
 20 21  1  0  0  0  0
M  END
> <s_m_source_file>
AV-unprocessed.smi

> <i_m_source_file_index>
1254

> <i_lp_mmshare_version>
43012

> <i_f3d_flags>
0

> <s_epik_input>
W0NIM11jMVtjSF1jKG5vMSlbTkhdQyg9TylbTkhdW0NIMl1bQ0BASF0yW0NIMl1OKFtDSDJdW0NIMl1PMilbQ0gyXVtDSF0oW0NIM10pW0NIM10=

> <s_epik_cmdline>
J2VwaWtfcHl0aG9uJywgJy1waCcsICc3LjAnLCAnLXRuJywgJzgnLCAnLW1hJywgJzIwMCcsICctbWV0YWxfYmluZGluZycsICctaW1hZScsICc8aW5maWxlLm1hZT4nLCAnLW9tYWUnLCAnPG91dGZpbGUubWFlPic=

> <r_epik_Ionization_Penalty>
1.11086

> <r_epik_Ionization_Penalty_Charging>
0

> <r_epik_Ionization_Penalty_Neutral>
1.11086

> <r_epik_State_Penalty>
1.16881

> <r_epik_Charging_Adjusted_Penalty>
1.16881

> <i_epik_Tot_Q>
0

> <i_epik_Tot_abs_Q>
0

> <r_epik_Metal_State_Penalty>
1.1835

> <b_epik_Metal_Only>
0

> <s_lp_Force_Field>
OPLS_2005

> <r_lp_Energy>
20.9556

> <b_lp_Chiralities_Consistent>
1

> <s_lp_Variant>
AV-unprocessed.smi:1254-6

> <Gold.Version>
5.8.1

> <Gold.Id.Protein>
6NUR|6NUR_protein|mol2

> <Gold.PLP.Fitness>
48.0274

> <Gold.PLP.PLP>
-39.6181

> <Gold.PLP.part.hbond>
-5.9868

> <Gold.PLP.part.metal>
0.0000

> <Gold.PLP.part.buried>
-3.1652

> <Gold.PLP.part.nonpolar>
-31.2600

> <Gold.PLP.part.repulsive>
0.2945

> <Gold.PLP.ligand.clash>
0.0000

> <Gold.PLP.ligand.torsion>
0.8469

> <Gold.PLP.Chemscore.Hbond>
3.3456

> <Gold.PLP.Chemscore.CHOScore>
0.0000

> <Gold.PLP.Chemscore.Metal>
0.0000

> <Gold.Chemscore.Hbonds>
donor molecule, donor type, donor heavy atom, donor atom, acceptor molecule, acceptor atom, score
      L1  H     5    26       P1  7948  0.53
      L1  H     8    27       P1  7948  0.14
      P1  H  7989  7998       L1    19  1.00
      P1  H 10752 10765       L1     7  0.99

> <Gold.PLP.Chemscore.Internal.Correction>
0.0663

> <Gold.Rescore>
     Score         DG    S(hbond)    S(metal)    S(lipo)     H(rot)  DE(clash)    DE(int)     intcor
     12.83     -14.87       1.28        0.00      80.77       1.69       0.01       2.03       ----

> <Gold.Chemscore.Fitness>
12.8268

> <Gold.Chemscore.DG>
-14.8712

> <Gold.Chemscore.ZeroCoef>
-5.4800

> <Gold.Chemscore.Hbond>
1.2777

> <Gold.Chemscore.Metal>
0.0000

> <Gold.Chemscore.Lipo>
80.7697

> <Gold.Chemscore.Internal_Hbond>
0.0000

> <Gold.Chemscore.DEClash>
0.0126

> <Gold.Chemscore.DEInternal>
2.0317

> <Gold.Chemscore.Rot>
1.6900

> <Gold.Chemscore.Internal.Correction>
   9.000000E+99

> <Gold.Chemscore.Hbonds>
donor molecule, donor type, donor heavy atom, donor atom, acceptor molecule, acceptor atom, score
      L1  H     5    26       P1  7948  0.05
      L1  H     8    27       P1  7948  0.01
      P1  H  7989  7998       L1    19  0.54
      P1  H 10752 10765       L1     7  0.62

> <Gold.Chemscore.Hbond.Weighted>
-4.2676

> <Gold.Chemscore.Metal.Weighted>
-0.0000

> <Gold.Chemscore.Lipo.Weighted>
-9.4501

> <Gold.Chemscore.Internal_Hbond.Weighted>
0.0000

> <Gold.Chemscore.DEClash.Weighted>
0.0126

> <Gold.Chemscore.DEInternal.Weighted>
2.0317

> <Gold.Chemscore.Rot.Weighted>
4.3265

> <Gold.Chemscore.Internal.Correction.Weighted>
   9.000000E+99

> <Gold.Protein.RotatedTorsions>
[ 6907 6896 6895 6894 ] final -128.36 input  -60.11 | X-H torsion
[ 7974 7965 7964 7962 ] final  -74.13 input  175.53 | X-H torsion
[ 8008 7997 7996 7995 ] final  -23.46 input   59.86 | X-H torsion
[ 10167 10162 10161 10158 ] final  -25.65 input  -65.29 | X-H torsion
[ 10718 10713 10712 10709 ] final   10.37 input   66.30 | X-H torsion
[ 10763 10752 10751 10750 ] final -147.02 input  -60.55 | X-H torsion
[ 11005 11000 10999 10996 ] final  -89.91 input  -57.11 | X-H torsion

> <Gold.Protein.ActiveResidues>
 VAL166  LYS551  ARG553  GLY616  TRP617  ASP618  TYR619  PRO620  LYS621  CYS622 
 ASP623  PHE694  ASN695  SER759  ASP760  ASP761  ALA762  ILE779  LEU786  VAL792 
 PHE793  MET794  SER795  GLU796  ALA797  LYS798  CYS799  TRP800  GLU811  SER814 

> <Gold.Protein.RotatedAtoms>
  150.9170  133.6926  159.2840 H   0  0  0  0  0  0  0  0  0  0  0  0  # atno 6907 bound_to 6896
  151.4394  135.1017  159.9675 H   0  0  0  0  0  0  0  0  0  0  0  0  # atno 6908 bound_to 6896
  152.4960  133.8582  159.7292 H   0  0  0  0  0  0  0  0  0  0  0  0  # atno 6909 bound_to 6896
  145.6431  140.9305  143.1025 H   0  0  0  0  0  0  0  0  0  0  0  0  # atno 7974 bound_to 7965
  154.4584  140.1980  156.0313 H   0  0  0  0  0  0  0  0  0  0  0  0  # atno 8008 bound_to 7997
  156.0792  140.3274  155.7644 H   0  0  0  0  0  0  0  0  0  0  0  0  # atno 8009 bound_to 7997
  155.5139  140.0564  157.2909 H   0  0  0  0  0  0  0  0  0  0  0  0  # atno 8010 bound_to 7997
  140.7286  143.4246  151.0897 H   0  0  0  0  0  0  0  0  0  0  0  0  # atno 10167 bound_to 10162
  156.9800  130.6002  149.5676 H   0  0  0  0  0  0  0  0  0  0  0  0  # atno 10718 bound_to 10713
  154.8307  135.3371  154.6753 H   0  0  0  0  0  0  0  0  0  0  0  0  # atno 10763 bound_to 10752
  153.7373  135.6948  153.4979 H   0  0  0  0  0  0  0  0  0  0  0  0  # atno 10764 bound_to 10752
  153.2269  135.4429  155.0503 H   0  0  0  0  0  0  0  0  0  0  0  0  # atno 10765 bound_to 10752
  141.1576  133.7659  156.9663 H   0  0  0  0  0  0  0  0  0  0  0  0  # atno 11005 bound_to 11000
  144.7150  139.8230  143.7402 LP  0  0  0  0  0  0  0  0  0  0  0  0  # atno 17320 bound_to 7965
  146.1265  139.4292  143.0195 LP  0  0  0  0  0  0  0  0  0  0  0  0  # atno 17321 bound_to 7965
  139.7896  143.8238  152.3150 LP  0  0  0  0  0  0  0  0  0  0  0  0  # atno 17342 bound_to 10162
  139.8217  144.7293  150.9564 LP  0  0  0  0  0  0  0  0  0  0  0  0  # atno 17343 bound_to 10162
  156.0248  130.5342  150.8377 LP  0  0  0  0  0  0  0  0  0  0  0  0  # atno 17370 bound_to 10713
  157.5533  131.0944  150.9665 LP  0  0  0  0  0  0  0  0  0  0  0  0  # atno 17371 bound_to 10713
  140.1159  134.9447  157.2134 LP  0  0  0  0  0  0  0  0  0  0  0  0  # atno 17394 bound_to 11000
  140.3133  134.2998  155.7262 LP  0  0  0  0  0  0  0  0  0  0  0  0  # atno 17395 bound_to 11000

$$$$
