AV-unprocessed.smi:2924|AV-procd|sdf|11219|dock2
  -GOLD-   2272016113D 1   1.00000     0.00000
 Structure written by MMmdl.
 29 31  0  0  0  0  0  0  0  0  1 V2000
  153.6498  138.8271  155.0635 N   0  0  0  0  0  0  0  0  0  0  0  0
  152.5956  139.2862  155.1920 C   0  0  0  0  0  0  0  0  0  0  0  0
  151.2667  139.8637  155.3539 C   0  0  0  0  0  0  0  0  0  0  0  0
  150.2566  139.5244  154.4292 C   0  0  0  0  0  0  0  0  0  0  0  0
  148.9740  140.0829  154.5784 C   0  0  0  0  0  0  0  0  0  0  0  0
  148.7521  140.9628  155.6533 C   0  0  0  0  0  0  0  0  0  0  0  0
  149.7086  141.2944  156.5452 N   0  0  0  0  0  0  0  0  0  0  0  0
  150.9476  140.7624  156.4070 C   0  0  0  0  0  0  0  0  0  0  0  0
  151.9235  141.1246  157.3534 N   0  0  0  0  0  0  0  0  0  0  0  0
  151.5531  141.6968  158.6444 C   0  0  1  0  0  0  0  0  0  0  0  0
  152.7643  142.1188  159.4795 C   0  0  0  0  0  0  0  0  0  0  0  0
  152.4307  143.5821  159.8028 C   0  0  1  0  0  0  0  0  0  0  0  0
  152.6356  144.4895  158.5829 C   0  0  0  0  0  0  0  0  0  0  0  0
  151.4501  144.0983  157.7031 C   0  0  0  0  0  0  0  0  0  0  0  0
  150.7626  143.0183  158.5561 C   0  0  2  0  0  0  0  0  0  0  0  0
  151.0146  143.5327  159.8531 O   0  0  0  0  0  0  0  0  0  0  0  0
  150.4568  138.8455  153.6126 H   0  0  0  0  0  0  0  0  0  0  0  0
  148.1803  139.8433  153.8863 H   0  0  0  0  0  0  0  0  0  0  0  0
  147.7813  141.4121  155.8015 H   0  0  0  0  0  0  0  0  0  0  0  0
  152.8757  141.2487  157.0406 H   0  0  0  0  0  0  0  0  0  0  0  0
  150.9787  140.9649  159.2144 H   0  0  0  0  0  0  0  0  0  0  0  0
  152.8201  141.5216  160.3901 H   0  0  0  0  0  0  0  0  0  0  0  0
  153.7164  142.0241  158.9557 H   0  0  0  0  0  0  0  0  0  0  0  0
  152.9018  143.9528  160.7134 H   0  0  0  0  0  0  0  0  0  0  0  0
  152.5718  145.5411  158.8647 H   0  0  0  0  0  0  0  0  0  0  0  0
  153.5976  144.3227  158.0970 H   0  0  0  0  0  0  0  0  0  0  0  0
  150.7871  144.9526  157.5618 H   0  0  0  0  0  0  0  0  0  0  0  0
  151.7496  143.7407  156.7177 H   0  0  0  0  0  0  0  0  0  0  0  0
  149.7040  142.8878  158.3298 H   0  0  0  0  0  0  0  0  0  0  0  0
  1  2  3  0  0  0  0
  2  3  1  0  0  0  0
  3  8  1  0  0  0  0
  3  4  2  0  0  0  0
  4  5  1  0  0  0  0
  4 17  1  0  0  0  0
  5  6  2  0  0  0  0
  5 18  1  0  0  0  0
  6  7  1  0  0  0  0
  6 19  1  0  0  0  0
  7  8  2  0  0  0  0
  8  9  1  0  0  0  0
  9 10  1  0  0  0  0
  9 20  1  0  0  0  0
 10 15  1  0  0  0  0
 10 11  1  0  0  0  0
 10 21  1  0  0  0  0
 11 12  1  0  0  0  0
 11 22  1  0  0  0  0
 11 23  1  0  0  0  0
 12 16  1  0  0  0  0
 12 13  1  0  0  0  0
 12 24  1  0  0  0  0
 13 14  1  0  0  0  0
 13 25  1  0  0  0  0
 13 26  1  0  0  0  0
 14 15  1  0  0  0  0
 14 27  1  0  0  0  0
 14 28  1  0  0  0  0
 15 16  1  0  0  0  0
 15 29  1  0  0  0  0
M  END
> <s_m_source_file>
AV-unprocessed.smi

> <i_m_source_file_index>
2924

> <i_lp_mmshare_version>
43012

> <i_f3d_flags>
0

> <s_epik_input>
TiNDYzFbY0hdW2NIXVtjSF1uYzFbTkhdW0NASF0oW0NIMl1bQ0BASF0yMylbQ0BASF0oTzMpW0NIMl1bQ0gyXTI=

> <s_epik_cmdline>
J2VwaWtfcHl0aG9uJywgJy1waCcsICc3LjAnLCAnLXRuJywgJzgnLCAnLW1hJywgJzIwMCcsICctbWV0YWxfYmluZGluZycsICctaW1hZScsICc8aW5maWxlLm1hZT4nLCAnLW9tYWUnLCAnPG91dGZpbGUubWFlPic=

> <r_lp_tautomer_probability>
1

> <r_epik_Ionization_Penalty>
2.11559e-05

> <r_epik_Ionization_Penalty_Charging>
0

> <r_epik_Ionization_Penalty_Neutral>
2.11559e-05

> <r_epik_State_Penalty>
-0

> <r_epik_Charging_Adjusted_Penalty>
0

> <i_epik_Tot_Q>
0

> <i_epik_Tot_abs_Q>
0

> <r_epik_Metal_State_Penalty>
-0

> <b_epik_Metal_Only>
0

> <s_lp_Force_Field>
OPLS_2005

> <r_lp_Energy>
42.6424

> <b_lp_Chiralities_Consistent>
1

> <s_lp_Variant>
AV-unprocessed.smi:2924-2

> <Gold.Version>
5.8.1

> <Gold.Id.Protein>
6NUR|6NUR_protein|mol2

> <Gold.PLP.Fitness>
39.1641

> <Gold.PLP.PLP>
-37.3611

> <Gold.PLP.part.hbond>
-1.0000

> <Gold.PLP.part.metal>
0.0000

> <Gold.PLP.part.buried>
-1.5115

> <Gold.PLP.part.nonpolar>
-34.1968

> <Gold.PLP.part.repulsive>
0.2361

> <Gold.PLP.ligand.clash>
0.0000

> <Gold.PLP.ligand.torsion>
0.0875

> <Gold.PLP.Chemscore.Hbond>
0.6560

> <Gold.PLP.Chemscore.CHOScore>
0.0000

> <Gold.PLP.Chemscore.Metal>
0.0000

> <Gold.Chemscore.Hbonds>
donor molecule, donor type, donor heavy atom, donor atom, acceptor molecule, acceptor atom, score
      P1  H  7997  8008       L1     1  0.72

> <Gold.PLP.Chemscore.Internal.Correction>
0.0101

> <Gold.Rescore>
     Score         DG    S(hbond)    S(metal)    S(lipo)     H(rot)  DE(clash)    DE(int)     intcor
     13.08     -14.51       0.01        0.00      98.83       1.00       0.12       1.31       ----

> <Gold.Chemscore.Fitness>
13.0765

> <Gold.Chemscore.DG>
-14.5072

> <Gold.Chemscore.ZeroCoef>
-5.4800

> <Gold.Chemscore.Hbond>
0.0071

> <Gold.Chemscore.Metal>
0.0000

> <Gold.Chemscore.Lipo>
98.8341

> <Gold.Chemscore.Internal_Hbond>
0.0000

> <Gold.Chemscore.DEClash>
0.1183

> <Gold.Chemscore.DEInternal>
1.3123

> <Gold.Chemscore.Rot>
1.0000

> <Gold.Chemscore.Internal.Correction>
   9.000000E+99

> <Gold.Chemscore.Hbonds>
donor molecule, donor type, donor heavy atom, donor atom, acceptor molecule, acceptor atom, score
      P1  H  7997  8008       L1     1  0.25

> <Gold.Chemscore.Hbond.Weighted>
-0.0236

> <Gold.Chemscore.Metal.Weighted>
-0.0000

> <Gold.Chemscore.Lipo.Weighted>
-11.5636

> <Gold.Chemscore.Internal_Hbond.Weighted>
0.0000

> <Gold.Chemscore.DEClash.Weighted>
0.1183

> <Gold.Chemscore.DEInternal.Weighted>
1.3123

> <Gold.Chemscore.Rot.Weighted>
2.5600

> <Gold.Chemscore.Internal.Correction.Weighted>
   9.000000E+99

> <Gold.Protein.RotatedTorsions>
[ 6907 6896 6895 6894 ] final  137.18 input  -60.11 | X-H torsion
[ 7974 7965 7964 7962 ] final   47.81 input  175.53 | X-H torsion
[ 8008 7997 7996 7995 ] final   10.43 input   59.86 | X-H torsion
[ 10167 10162 10161 10158 ] final  -31.25 input  -65.29 | X-H torsion
[ 10718 10713 10712 10709 ] final   33.60 input   66.30 | X-H torsion
[ 10763 10752 10751 10750 ] final  -89.04 input  -60.55 | X-H torsion
[ 11005 11000 10999 10996 ] final  145.95 input  -57.11 | X-H torsion

> <Gold.Protein.ActiveResidues>
 VAL166  LYS551  ARG553  GLY616  TRP617  ASP618  TYR619  PRO620  LYS621  CYS622 
 ASP623  PHE694  ASN695  SER759  ASP760  ASP761  ALA762  ILE779  LEU786  VAL792 
 PHE793  MET794  SER795  GLU796  ALA797  LYS798  CYS799  TRP800  GLU811  SER814 

> <Gold.Protein.RotatedAtoms>
  152.2810  133.5470  159.5497 H   0  0  0  0  0  0  0  0  0  0  0  0  # atno 6907 bound_to 6896
  150.7196  134.0564  159.3825 H   0  0  0  0  0  0  0  0  0  0  0  0  # atno 6908 bound_to 6896
  151.8475  135.0569  160.0506 H   0  0  0  0  0  0  0  0  0  0  0  0  # atno 6909 bound_to 6896
  146.0263  139.4710  142.9866 H   0  0  0  0  0  0  0  0  0  0  0  0  # atno 7974 bound_to 7965
  154.7933  140.2839  155.5975 H   0  0  0  0  0  0  0  0  0  0  0  0  # atno 8008 bound_to 7997
  156.2967  140.2600  156.2714 H   0  0  0  0  0  0  0  0  0  0  0  0  # atno 8009 bound_to 7997
  154.9644  140.0377  157.2195 H   0  0  0  0  0  0  0  0  0  0  0  0  # atno 8010 bound_to 7997
  140.7239  143.3785  151.1645 H   0  0  0  0  0  0  0  0  0  0  0  0  # atno 10167 bound_to 10162
  157.2999  130.7345  149.6660 H   0  0  0  0  0  0  0  0  0  0  0  0  # atno 10718 bound_to 10713
  154.6510  135.5355  153.7902 H   0  0  0  0  0  0  0  0  0  0  0  0  # atno 10763 bound_to 10752
  153.0386  135.6482  154.1016 H   0  0  0  0  0  0  0  0  0  0  0  0  # atno 10764 bound_to 10752
  154.0933  135.2938  155.3247 H   0  0  0  0  0  0  0  0  0  0  0  0  # atno 10765 bound_to 10752
  140.0754  134.9128  157.1413 H   0  0  0  0  0  0  0  0  0  0  0  0  # atno 11005 bound_to 11000
  145.7113  141.0105  143.1452 LP  0  0  0  0  0  0  0  0  0  0  0  0  # atno 17320 bound_to 7965
  144.7011  139.8761  143.7444 LP  0  0  0  0  0  0  0  0  0  0  0  0  # atno 17321 bound_to 7965
  139.7370  143.8984  152.3038 LP  0  0  0  0  0  0  0  0  0  0  0  0  # atno 17342 bound_to 10162
  139.8792  144.7027  150.8897 LP  0  0  0  0  0  0  0  0  0  0  0  0  # atno 17343 bound_to 10162
  155.9671  130.4283  150.4783 LP  0  0  0  0  0  0  0  0  0  0  0  0  # atno 17370 bound_to 10713
  157.2761  131.0597  151.2228 LP  0  0  0  0  0  0  0  0  0  0  0  0  # atno 17371 bound_to 10713
  140.3566  134.2540  155.7192 LP  0  0  0  0  0  0  0  0  0  0  0  0  # atno 17394 bound_to 11000
  141.2027  133.7930  157.0376 LP  0  0  0  0  0  0  0  0  0  0  0  0  # atno 17395 bound_to 11000

$$$$
