AV-unprocessed.smi:1828|AV-procd|sdf|7425|dock10
  -GOLD-   22720 9103D 1   1.00000     0.00000
 Structure written by MMmdl.
 39 41  0  0  0  0  0  0  0  0  1 V2000
  151.5234  136.6846  154.6922 O   0  0  0  0  0  0  0  0  0  0  0  0
  151.5055  137.9858  155.2407 C   0  0  0  0  0  0  0  0  0  0  0  0
  150.3350  138.7994  154.7668 C   0  0  0  0  0  0  0  0  0  0  0  0
  149.3391  138.2343  154.0816 N   0  0  0  0  0  0  0  0  0  0  0  0
  148.4958  139.2965  153.8286 C   0  0  0  0  0  0  0  0  0  0  0  0
  147.2663  139.3480  153.1339 C   0  0  0  0  0  0  0  0  0  0  0  0
  146.5731  140.5686  152.9994 C   0  0  0  0  0  0  0  0  0  0  0  0
  147.0985  141.7525  153.5561 C   0  0  0  0  0  0  0  0  0  0  0  0
  148.3219  141.7224  154.2528 C   0  0  0  0  0  0  0  0  0  0  0  0
  149.0096  140.5008  154.3849 C   0  0  0  0  0  0  0  0  0  0  0  0
  150.2070  140.1349  154.9931 N   0  0  0  0  0  0  0  0  0  0  0  0
  151.0996  141.0447  155.7022 C   0  0  0  0  0  0  0  0  0  0  0  0
  150.3820  141.8071  156.8345 C   0  0  1  0  0  0  0  0  0  0  0  0
  149.4270  140.9425  157.4151 O   0  0  0  0  0  0  0  0  0  0  0  0
  151.3500  142.3787  157.8618 C   0  0  0  0  0  0  0  0  0  0  0  0
  151.4826  143.7736  158.0368 C   0  0  0  0  0  0  0  0  0  0  0  0
  152.3662  144.2842  159.0061 C   0  0  0  0  0  0  0  0  0  0  0  0
  153.1165  143.4055  159.8103 C   0  0  0  0  0  0  0  0  0  0  0  0
  152.9857  142.0089  159.6523 C   0  0  0  0  0  0  0  0  0  0  0  0
  153.7905  141.0540  160.5211 C   0  0  0  0  0  0  0  0  0  0  0  0
  155.0723  141.0487  160.1531 F   0  0  0  0  0  0  0  0  0  0  0  0
  153.7100  141.4454  161.7922 F   0  0  0  0  0  0  0  0  0  0  0  0
  153.3242  139.8084  160.4251 F   0  0  0  0  0  0  0  0  0  0  0  0
  152.1080  141.5037  158.6693 C   0  0  0  0  0  0  0  0  0  0  0  0
  150.7726  136.2118  155.0167 H   0  0  0  0  0  0  0  0  0  0  0  0
  151.4609  137.9098  156.3272 H   0  0  0  0  0  0  0  0  0  0  0  0
  152.4533  138.4579  154.9957 H   0  0  0  0  0  0  0  0  0  0  0  0
  146.8567  138.4466  152.7028 H   0  0  0  0  0  0  0  0  0  0  0  0
  145.6342  140.5966  152.4658 H   0  0  0  0  0  0  0  0  0  0  0  0
  146.5616  142.6837  153.4482 H   0  0  0  0  0  0  0  0  0  0  0  0
  148.7272  142.6278  154.6793 H   0  0  0  0  0  0  0  0  0  0  0  0
  151.9060  140.4436  156.1244 H   0  0  0  0  0  0  0  0  0  0  0  0
  151.5848  141.7258  155.0048 H   0  0  0  0  0  0  0  0  0  0  0  0
  149.8171  142.6331  156.4002 H   0  0  0  0  0  0  0  0  0  0  0  0
  148.7245  140.8141  156.7959 H   0  0  0  0  0  0  0  0  0  0  0  0
  150.9033  144.4573  157.4338 H   0  0  0  0  0  0  0  0  0  0  0  0
  152.4663  145.3516  159.1360 H   0  0  0  0  0  0  0  0  0  0  0  0
  153.7910  143.8098  160.5504 H   0  0  0  0  0  0  0  0  0  0  0  0
  152.0038  140.4360  158.5421 H   0  0  0  0  0  0  0  0  0  0  0  0
  1  2  1  0  0  0  0
  1 25  1  0  0  0  0
  2  3  1  0  0  0  0
  2 26  1  0  0  0  0
  2 27  1  0  0  0  0
  3 11  1  0  0  0  0
  3  4  2  0  0  0  0
  4  5  1  0  0  0  0
  5 10  2  0  0  0  0
  5  6  1  0  0  0  0
  6  7  2  0  0  0  0
  6 28  1  0  0  0  0
  7  8  1  0  0  0  0
  7 29  1  0  0  0  0
  8  9  2  0  0  0  0
  8 30  1  0  0  0  0
  9 10  1  0  0  0  0
  9 31  1  0  0  0  0
 10 11  1  0  0  0  0
 11 12  1  0  0  0  0
 12 13  1  0  0  0  0
 12 32  1  0  0  0  0
 12 33  1  0  0  0  0
 13 14  1  0  0  0  0
 13 15  1  0  0  0  0
 13 34  1  0  0  0  0
 14 35  1  0  0  0  0
 15 24  1  0  0  0  0
 15 16  2  0  0  0  0
 16 17  1  0  0  0  0
 16 36  1  0  0  0  0
 17 18  2  0  0  0  0
 17 37  1  0  0  0  0
 18 19  1  0  0  0  0
 18 38  1  0  0  0  0
 19 20  1  0  0  0  0
 19 24  2  0  0  0  0
 20 21  1  0  0  0  0
 20 22  1  0  0  0  0
 20 23  1  0  0  0  0
 24 39  1  0  0  0  0
M  END
> <s_m_source_file>
AV-unprocessed.smi

> <i_m_source_file_index>
1828

> <i_lp_mmshare_version>
43012

> <i_f3d_flags>
0

> <s_epik_input>
W2NIXTFbY0hdW2NIXVtjSF1jKGMxMiluKGMobjIpW0NIMl1bT0hdKVtDSDJdW0NASF0oW09IXSljM1tjSF1bY0hdW2NIXWMoQyhGKShGKUYpW2NIXTM=

> <s_epik_cmdline>
J2VwaWtfcHl0aG9uJywgJy1waCcsICc3LjAnLCAnLXRuJywgJzgnLCAnLW1hJywgJzIwMCcsICctbWV0YWxfYmluZGluZycsICctaW1hZScsICc8aW5maWxlLm1hZT4nLCAnLW9tYWUnLCAnPG91dGZpbGUubWFlPic=

> <r_epik_Ionization_Penalty>
0.0634719

> <r_epik_Ionization_Penalty_Charging>
0

> <r_epik_Ionization_Penalty_Neutral>
0.0634719

> <r_epik_State_Penalty>
0.0551572

> <r_epik_Charging_Adjusted_Penalty>
0.0551572

> <i_epik_Tot_Q>
0

> <i_epik_Tot_abs_Q>
0

> <r_epik_Metal_State_Penalty>
5.78034e-05

> <b_epik_Metal_Only>
0

> <s_lp_Force_Field>
OPLS_2005

> <r_lp_Energy>
14.211

> <b_lp_Chiralities_Consistent>
1

> <s_lp_Variant>
AV-unprocessed.smi:1828-2

> <Gold.Version>
5.8.1

> <Gold.Id.Protein>
6NUR|6NUR_protein|mol2

> <Gold.PLP.Fitness>
55.0021

> <Gold.PLP.PLP>
-53.4081

> <Gold.PLP.part.hbond>
-1.5253

> <Gold.PLP.part.metal>
0.0000

> <Gold.PLP.part.buried>
-0.1781

> <Gold.PLP.part.nonpolar>
-52.8887

> <Gold.PLP.part.repulsive>
1.1521

> <Gold.PLP.ligand.clash>
0.8364

> <Gold.PLP.ligand.torsion>
0.8624

> <Gold.PLP.Chemscore.Hbond>
1.0000

> <Gold.PLP.Chemscore.CHOScore>
0.0000

> <Gold.PLP.Chemscore.Metal>
0.0000

> <Gold.Chemscore.Hbonds>
donor molecule, donor type, donor heavy atom, donor atom, acceptor molecule, acceptor atom, score
      P1  H 10752 10765       L1     1  1.00

> <Gold.PLP.Chemscore.Internal.Correction>
1.1551

> <Gold.Rescore>
     Score         DG    S(hbond)    S(metal)    S(lipo)     H(rot)  DE(clash)    DE(int)     intcor
     16.01     -17.70       0.98        0.00     140.22       2.91       0.83       0.86       ----

> <Gold.Chemscore.Fitness>
16.0090

> <Gold.Chemscore.DG>
-17.6973

> <Gold.Chemscore.ZeroCoef>
-5.4800

> <Gold.Chemscore.Hbond>
0.9795

> <Gold.Chemscore.Metal>
0.0000

> <Gold.Chemscore.Lipo>
140.2213

> <Gold.Chemscore.Internal_Hbond>
0.0000

> <Gold.Chemscore.DEClash>
0.8287

> <Gold.Chemscore.DEInternal>
0.8596

> <Gold.Chemscore.Rot>
2.9141

> <Gold.Chemscore.Internal.Correction>
   9.000000E+99

> <Gold.Chemscore.Hbonds>
donor molecule, donor type, donor heavy atom, donor atom, acceptor molecule, acceptor atom, score
      P1  H 10752 10765       L1     1  0.74

> <Gold.Chemscore.Hbond.Weighted>
-3.2714

> <Gold.Chemscore.Metal.Weighted>
-0.0000

> <Gold.Chemscore.Lipo.Weighted>
-16.4059

> <Gold.Chemscore.Internal_Hbond.Weighted>
0.0000

> <Gold.Chemscore.DEClash.Weighted>
0.8287

> <Gold.Chemscore.DEInternal.Weighted>
0.8596

> <Gold.Chemscore.Rot.Weighted>
7.4600

> <Gold.Chemscore.Internal.Correction.Weighted>
   9.000000E+99

> <Gold.Protein.RotatedTorsions>
[ 6907 6896 6895 6894 ] final -156.63 input  -60.11 | X-H torsion
[ 7974 7965 7964 7962 ] final  -87.04 input  175.53 | X-H torsion
[ 8008 7997 7996 7995 ] final   36.06 input   59.86 | X-H torsion
[ 10167 10162 10161 10158 ] final   55.06 input  -65.29 | X-H torsion
[ 10718 10713 10712 10709 ] final  116.74 input   66.30 | X-H torsion
[ 10763 10752 10751 10750 ] final -176.56 input  -60.55 | X-H torsion
[ 11005 11000 10999 10996 ] final  174.14 input  -57.11 | X-H torsion

> <Gold.Protein.ActiveResidues>
 VAL166  LYS551  ARG553  GLY616  TRP617  ASP618  TYR619  PRO620  LYS621  CYS622 
 ASP623  PHE694  ASN695  SER759  ASP760  ASP761  ALA762  ILE779  LEU786  VAL792 
 PHE793  MET794  SER795  GLU796  ALA797  LYS798  CYS799  TRP800  GLU811  SER814 

> <Gold.Protein.RotatedAtoms>
  151.2905  133.4167  159.2632 H   0  0  0  0  0  0  0  0  0  0  0  0  # atno 6907 bound_to 6896
  151.0281  134.9520  159.8106 H   0  0  0  0  0  0  0  0  0  0  0  0  # atno 6908 bound_to 6896
  152.5339  134.2867  159.9080 H   0  0  0  0  0  0  0  0  0  0  0  0  # atno 6909 bound_to 6896
  145.4718  140.9559  143.1913 H   0  0  0  0  0  0  0  0  0  0  0  0  # atno 7974 bound_to 7965
  155.1812  140.3300  155.4375 H   0  0  0  0  0  0  0  0  0  0  0  0  # atno 8008 bound_to 7997
  156.2476  140.1926  156.6861 H   0  0  0  0  0  0  0  0  0  0  0  0  # atno 8009 bound_to 7997
  154.6270  140.0587  156.9671 H   0  0  0  0  0  0  0  0  0  0  0  0  # atno 8010 bound_to 7997
  140.2235  144.3763  150.6441 H   0  0  0  0  0  0  0  0  0  0  0  0  # atno 10167 bound_to 10162
  157.6141  131.1029  150.7516 H   0  0  0  0  0  0  0  0  0  0  0  0  # atno 10718 bound_to 10713
  154.5708  135.2828  155.0829 H   0  0  0  0  0  0  0  0  0  0  0  0  # atno 10763 bound_to 10752
  154.2202  135.6392  153.5146 H   0  0  0  0  0  0  0  0  0  0  0  0  # atno 10764 bound_to 10752
  153.0057  135.5512  154.6331 H   0  0  0  0  0  0  0  0  0  0  0  0  # atno 10765 bound_to 10752
  140.3481  134.7218  157.4249 H   0  0  0  0  0  0  0  0  0  0  0  0  # atno 11005 bound_to 11000
  144.7941  139.6270  143.7100 LP  0  0  0  0  0  0  0  0  0  0  0  0  # atno 17320 bound_to 7965
  146.2392  139.5967  142.9503 LP  0  0  0  0  0  0  0  0  0  0  0  0  # atno 17321 bound_to 7965
  140.6238  143.2179  151.6640 LP  0  0  0  0  0  0  0  0  0  0  0  0  # atno 17342 bound_to 10162
  139.5135  144.3439  152.0715 LP  0  0  0  0  0  0  0  0  0  0  0  0  # atno 17343 bound_to 10162
  156.7887  130.4883  149.5388 LP  0  0  0  0  0  0  0  0  0  0  0  0  # atno 17370 bound_to 10713
  156.1256  130.6141  151.0258 LP  0  0  0  0  0  0  0  0  0  0  0  0  # atno 17371 bound_to 10713
  140.0725  134.5842  155.8626 LP  0  0  0  0  0  0  0  0  0  0  0  0  # atno 17394 bound_to 11000
  141.2020  133.6622  156.5980 LP  0  0  0  0  0  0  0  0  0  0  0  0  # atno 17395 bound_to 11000

$$$$
