AV-unprocessed.smi:2013|AV-procd|sdf|8159|dock10
  -GOLD-   2272010403D 1   1.00000     0.00000
 Structure written by MMmdl.
 50 51  0  0  0  0  0  0  0  0  1 V2000
  147.1072  140.3576  152.9235 C   0  0  0  0  0  0  0  0  0  0  0  0
  146.9795  140.4671  154.4530 C   0  0  0  0  0  0  0  0  0  0  0  0
  145.8088  139.6094  154.9778 C   0  0  0  0  0  0  0  0  0  0  0  0
  147.0504  141.9446  154.9593 C   0  0  2  0  0  0  0  0  0  0  0  0
  147.4612  142.0745  156.4506 C   0  0  0  0  0  0  0  0  0  0  0  0
  148.8588  142.4629  156.5945 N   0  0  0  0  0  0  0  0  0  0  0  0
  149.7926  141.7281  157.2132 C   0  0  0  0  0  0  0  0  0  0  0  0
  149.5510  140.6451  157.7483 O   0  0  0  0  0  0  0  0  0  0  0  0
  151.2065  142.3258  157.2327 C   0  0  0  0  0  0  0  0  0  0  0  0
  151.7859  142.4202  158.5792 N   0  0  0  0  0  0  0  0  0  0  0  0
  152.4874  141.3471  159.0970 C   0  0  0  0  0  0  0  0  0  0  0  0
  153.0645  141.3535  160.3182 C   0  0  0  0  0  0  0  0  0  0  0  0
  152.9737  142.5238  161.1825 C   0  0  0  0  0  0  0  0  0  0  0  0
  153.5025  142.5815  162.2933 O   0  0  0  0  0  0  0  0  0  0  0  0
  152.2365  143.6015  160.6361 N   0  0  0  0  0  0  0  0  0  0  0  0
  152.1167  144.8134  161.4202 C   0  0  0  0  0  0  0  0  0  0  0  0
  151.6509  143.5953  159.3499 C   0  0  0  0  0  0  0  0  0  0  0  0
  151.0487  144.5734  158.9000 O   0  0  0  0  0  0  0  0  0  0  0  0
  145.9176  142.8000  154.5510 N   0  0  0  0  0  0  0  0  0  0  0  0
  146.1850  143.5704  153.3378 C   0  0  0  0  0  0  0  0  0  0  0  0
  144.9404  144.3388  152.8638 C   0  0  0  0  0  0  0  0  0  0  0  0
  144.4832  145.1889  153.9102 O   0  0  0  0  0  0  0  0  0  0  0  0
  144.1630  144.4717  155.0976 C   0  0  0  0  0  0  0  0  0  0  0  0
  145.3946  143.6889  155.5866 C   0  0  0  0  0  0  0  0  0  0  0  0
  146.2246  140.7508  152.4182 H   0  0  0  0  0  0  0  0  0  0  0  0
  147.2262  139.3190  152.6140 H   0  0  0  0  0  0  0  0  0  0  0  0
  147.9747  140.9093  152.5601 H   0  0  0  0  0  0  0  0  0  0  0  0
  147.8743  139.9826  154.8458 H   0  0  0  0  0  0  0  0  0  0  0  0
  144.8449  139.9140  154.5782 H   0  0  0  0  0  0  0  0  0  0  0  0
  145.7420  139.6223  156.0650 H   0  0  0  0  0  0  0  0  0  0  0  0
  145.9475  138.5673  154.6882 H   0  0  0  0  0  0  0  0  0  0  0  0
  147.9068  142.3411  154.4109 H   0  0  0  0  0  0  0  0  0  0  0  0
  146.8530  142.8260  156.9538 H   0  0  0  0  0  0  0  0  0  0  0  0
  147.2991  141.1365  156.9822 H   0  0  0  0  0  0  0  0  0  0  0  0
  149.1354  143.3435  156.1849 H   0  0  0  0  0  0  0  0  0  0  0  0
  151.8570  141.7346  156.5859 H   0  0  0  0  0  0  0  0  0  0  0  0
  151.1638  143.3169  156.7789 H   0  0  0  0  0  0  0  0  0  0  0  0
  152.5865  140.4568  158.4929 H   0  0  0  0  0  0  0  0  0  0  0  0
  153.6039  140.4821  160.6591 H   0  0  0  0  0  0  0  0  0  0  0  0
  151.1409  145.2651  161.2349 H   0  0  0  0  0  0  0  0  0  0  0  0
  152.9283  145.4726  161.1092 H   0  0  0  0  0  0  0  0  0  0  0  0
  152.1808  144.5779  162.4832 H   0  0  0  0  0  0  0  0  0  0  0  0
  146.9870  144.2874  153.5117 H   0  0  0  0  0  0  0  0  0  0  0  0
  146.5222  142.9073  152.5405 H   0  0  0  0  0  0  0  0  0  0  0  0
  145.1789  144.9453  151.9901 H   0  0  0  0  0  0  0  0  0  0  0  0
  144.1475  143.6492  152.5698 H   0  0  0  0  0  0  0  0  0  0  0  0
  143.8339  145.1757  155.8617 H   0  0  0  0  0  0  0  0  0  0  0  0
  143.3291  143.7950  154.9059 H   0  0  0  0  0  0  0  0  0  0  0  0
  145.1016  143.1227  156.4649 H   0  0  0  0  0  0  0  0  0  0  0  0
  146.1638  144.3947  155.9013 H   0  0  0  0  0  0  0  0  0  0  0  0
  1  2  1  0  0  0  0
  1 25  1  0  0  0  0
  1 26  1  0  0  0  0
  1 27  1  0  0  0  0
  2  3  1  0  0  0  0
  2  4  1  0  0  0  0
  2 28  1  0  0  0  0
  3 29  1  0  0  0  0
  3 30  1  0  0  0  0
  3 31  1  0  0  0  0
  4  5  1  0  0  0  0
  4 19  1  0  0  0  0
  4 32  1  0  0  0  0
  5  6  1  0  0  0  0
  5 33  1  0  0  0  0
  5 34  1  0  0  0  0
  6  7  1  0  0  0  0
  6 35  1  0  0  0  0
  7  8  2  0  0  0  0
  7  9  1  0  0  0  0
  9 10  1  0  0  0  0
  9 36  1  0  0  0  0
  9 37  1  0  0  0  0
 10 17  1  0  0  0  0
 10 11  1  0  0  0  0
 11 12  2  0  0  0  0
 11 38  1  0  0  0  0
 12 13  1  0  0  0  0
 12 39  1  0  0  0  0
 13 14  2  0  0  0  0
 13 15  1  0  0  0  0
 15 16  1  0  0  0  0
 15 17  1  0  0  0  0
 16 40  1  0  0  0  0
 16 41  1  0  0  0  0
 16 42  1  0  0  0  0
 17 18  2  0  0  0  0
 19 24  1  0  0  0  0
 19 20  1  0  0  0  0
 20 21  1  0  0  0  0
 20 43  1  0  0  0  0
 20 44  1  0  0  0  0
 21 22  1  0  0  0  0
 21 45  1  0  0  0  0
 21 46  1  0  0  0  0
 22 23  1  0  0  0  0
 23 24  1  0  0  0  0
 23 47  1  0  0  0  0
 23 48  1  0  0  0  0
 24 49  1  0  0  0  0
 24 50  1  0  0  0  0
M  END
> <s_m_source_file>
AV-unprocessed.smi

> <i_m_source_file_index>
2013

> <i_lp_mmshare_version>
43012

> <i_f3d_flags>
0

> <s_epik_input>
W0NIMl0xW0NIMl1PW0NIMl1bQ0gyXU4xW0NASF0oW0NIXShbQ0gzXSlbQ0gzXSlbQ0gyXVtOSF1DKD1PKVtDSDJdbjJbY0hdW2NIXWMoPU8pbihbQ0gzXSljMj1P

> <s_epik_cmdline>
J2VwaWtfcHl0aG9uJywgJy1waCcsICc3LjAnLCAnLXRuJywgJzgnLCAnLW1hJywgJzIwMCcsICctbWV0YWxfYmluZGluZycsICctaW1hZScsICc8aW5maWxlLm1hZT4nLCAnLW9tYWUnLCAnPG91dGZpbGUubWFlPic=

> <r_lp_tautomer_probability>
1

> <r_epik_Ionization_Penalty>
0.45351

> <r_epik_Ionization_Penalty_Charging>
1.24653e-08

> <r_epik_Ionization_Penalty_Neutral>
0.45351

> <r_epik_State_Penalty>
0.456487

> <r_epik_Charging_Adjusted_Penalty>
0.456487

> <i_epik_Tot_Q>
0

> <i_epik_Tot_abs_Q>
0

> <r_epik_Metal_State_Penalty>
0.456449

> <b_epik_Metal_Only>
0

> <s_lp_Force_Field>
OPLS_2005

> <r_lp_Energy>
47.2128

> <b_lp_Chiralities_Consistent>
1

> <s_lp_Variant>
AV-unprocessed.smi:2013-3

> <Gold.Version>
5.8.1

> <Gold.Id.Protein>
6NUR|6NUR_protein|mol2

> <Gold.PLP.Fitness>
40.4209

> <Gold.PLP.PLP>
-41.9269

> <Gold.PLP.part.hbond>
-1.4747

> <Gold.PLP.part.metal>
0.0000

> <Gold.PLP.part.buried>
-5.0716

> <Gold.PLP.part.nonpolar>
-36.3184

> <Gold.PLP.part.repulsive>
0.4161

> <Gold.PLP.ligand.clash>
0.0000

> <Gold.PLP.ligand.torsion>
2.5004

> <Gold.PLP.Chemscore.Hbond>
1.0000

> <Gold.PLP.Chemscore.CHOScore>
0.0000

> <Gold.PLP.Chemscore.Metal>
0.0000

> <Gold.Chemscore.Hbonds>
donor molecule, donor type, donor heavy atom, donor atom, acceptor molecule, acceptor atom, score
      L1  H     6    35       P1  8028  0.91

> <Gold.PLP.Chemscore.Internal.Correction>
0.4948

> <Gold.Rescore>
     Score         DG    S(hbond)    S(metal)    S(lipo)     H(rot)  DE(clash)    DE(int)     intcor
     10.23     -12.69       0.99        0.00      81.60       2.20       0.24       2.22       ----

> <Gold.Chemscore.Fitness>
10.2289

> <Gold.Chemscore.DG>
-12.6947

> <Gold.Chemscore.ZeroCoef>
-5.4800

> <Gold.Chemscore.Hbond>
0.9909

> <Gold.Chemscore.Metal>
0.0000

> <Gold.Chemscore.Lipo>
81.5978

> <Gold.Chemscore.Internal_Hbond>
0.0000

> <Gold.Chemscore.DEClash>
0.2447

> <Gold.Chemscore.DEInternal>
2.2211

> <Gold.Chemscore.Rot>
2.2039

> <Gold.Chemscore.Internal.Correction>
   9.000000E+99

> <Gold.Chemscore.Hbonds>
donor molecule, donor type, donor heavy atom, donor atom, acceptor molecule, acceptor atom, score
      L1  H     6    35       P1  8028  0.85

> <Gold.Chemscore.Hbond.Weighted>
-3.3098

> <Gold.Chemscore.Metal.Weighted>
-0.0000

> <Gold.Chemscore.Lipo.Weighted>
-9.5469

> <Gold.Chemscore.Internal_Hbond.Weighted>
0.0000

> <Gold.Chemscore.DEClash.Weighted>
0.2447

> <Gold.Chemscore.DEInternal.Weighted>
2.2211

> <Gold.Chemscore.Rot.Weighted>
5.6420

> <Gold.Chemscore.Internal.Correction.Weighted>
   9.000000E+99

> <Gold.Protein.RotatedTorsions>
[ 6907 6896 6895 6894 ] final  -21.55 input  -60.11 | X-H torsion
[ 7974 7965 7964 7962 ] final  -62.78 input  175.53 | X-H torsion
[ 8008 7997 7996 7995 ] final  -61.02 input   59.86 | X-H torsion
[ 10167 10162 10161 10158 ] final  148.39 input  -65.29 | X-H torsion
[ 10718 10713 10712 10709 ] final  -88.16 input   66.30 | X-H torsion
[ 10763 10752 10751 10750 ] final   79.93 input  -60.55 | X-H torsion
[ 11005 11000 10999 10996 ] final  153.49 input  -57.11 | X-H torsion

> <Gold.Protein.ActiveResidues>
 VAL166  LYS551  ARG553  GLY616  TRP617  ASP618  TYR619  PRO620  LYS621  CYS622 
 ASP623  PHE694  ASN695  SER759  ASP760  ASP761  ALA762  ILE779  LEU786  VAL792 
 PHE793  MET794  SER795  GLU796  ALA797  LYS798  CYS799  TRP800  GLU811  SER814 

> <Gold.Protein.RotatedAtoms>
  151.2316  135.0556  159.8989 H   0  0  0  0  0  0  0  0  0  0  0  0  # atno 6907 bound_to 6896
  152.5404  134.0530  159.8129 H   0  0  0  0  0  0  0  0  0  0  0  0  # atno 6908 bound_to 6896
  151.0711  133.5417  159.2658 H   0  0  0  0  0  0  0  0  0  0  0  0  # atno 6909 bound_to 6896
  145.7872  140.8730  143.0300 H   0  0  0  0  0  0  0  0  0  0  0  0  # atno 7974 bound_to 7965
  154.4427  140.1027  156.6365 H   0  0  0  0  0  0  0  0  0  0  0  0  # atno 8008 bound_to 7997
  155.5548  140.3486  155.4458 H   0  0  0  0  0  0  0  0  0  0  0  0  # atno 8009 bound_to 7997
  156.0502  140.1302  157.0047 H   0  0  0  0  0  0  0  0  0  0  0  0  # atno 8010 bound_to 7997
  139.4875  144.5683  151.7103 H   0  0  0  0  0  0  0  0  0  0  0  0  # atno 10167 bound_to 10162
  155.9984  130.4826  150.4977 H   0  0  0  0  0  0  0  0  0  0  0  0  # atno 10718 bound_to 10713
  153.0992  135.4821  154.8835 H   0  0  0  0  0  0  0  0  0  0  0  0  # atno 10763 bound_to 10752
  154.7359  135.3071  154.8814 H   0  0  0  0  0  0  0  0  0  0  0  0  # atno 10764 bound_to 10752
  153.9436  135.6831  153.4797 H   0  0  0  0  0  0  0  0  0  0  0  0  # atno 10765 bound_to 10752
  140.1403  134.8743  157.2322 H   0  0  0  0  0  0  0  0  0  0  0  0  # atno 11005 bound_to 11000
  144.6787  140.0072  143.7484 LP  0  0  0  0  0  0  0  0  0  0  0  0  # atno 17320 bound_to 7965
  146.0014  139.3094  143.0925 LP  0  0  0  0  0  0  0  0  0  0  0  0  # atno 17321 bound_to 7965
  140.5265  144.0797  150.6039 LP  0  0  0  0  0  0  0  0  0  0  0  0  # atno 17342 bound_to 10162
  140.3773  143.2822  152.0210 LP  0  0  0  0  0  0  0  0  0  0  0  0  # atno 17343 bound_to 10162
  157.2965  131.0637  151.2098 LP  0  0  0  0  0  0  0  0  0  0  0  0  # atno 17370 bound_to 10713
  157.3092  130.6881  149.6206 LP  0  0  0  0  0  0  0  0  0  0  0  0  # atno 17371 bound_to 10713
  140.2731  134.3437  155.7367 LP  0  0  0  0  0  0  0  0  0  0  0  0  # atno 17394 bound_to 11000
  141.2185  133.7435  156.9252 LP  0  0  0  0  0  0  0  0  0  0  0  0  # atno 17395 bound_to 11000

$$$$
