AV-unprocessed.smi:1186|AV-procd|sdf|4975|dock1
  -GOLD-   22720 3573D 1   1.00000     0.00000
 Structure written by MMmdl.
 39 40  0  0  0  0  0  0  0  0  1 V2000
  144.7057  136.7988  152.8458 O   0  0  0  0  0  0  0  0  0  0  0  0
  145.9021  136.6199  152.6180 C   0  0  0  0  0  0  0  0  0  0  0  0
  146.7735  137.6066  152.3670 N   0  0  0  0  0  0  0  0  0  0  0  0
  146.4366  139.0268  152.3404 C   0  0  0  0  0  0  0  0  0  0  0  0
  147.3292  139.9125  153.2008 C   0  0  0  0  0  0  0  0  0  0  0  0
  147.0560  141.2822  153.4063 C   0  0  0  0  0  0  0  0  0  0  0  0
  147.9355  142.0266  154.2134 C   0  0  0  0  0  0  0  0  0  0  0  0
  149.0216  141.4951  154.8116 N   0  0  0  0  0  0  0  0  0  0  0  0
  149.2861  140.1769  154.6365 C   0  0  0  0  0  0  0  0  0  0  0  0
  150.4190  139.6299  155.2766 N   0  0  0  0  0  0  0  0  0  0  0  0
  151.3767  138.8895  154.4576 C   0  0  0  0  0  0  0  0  0  0  0  0
  152.3790  138.1398  155.3512 C   0  0  0  0  0  0  0  0  0  0  0  0
  153.0109  139.0583  156.2366 O   0  0  0  0  0  0  0  0  0  0  0  0
  152.0727  139.6903  157.1015 C   0  0  0  0  0  0  0  0  0  0  0  0
  151.0529  140.4901  156.2724 C   0  0  0  0  0  0  0  0  0  0  0  0
  148.4594  139.3551  153.8335 C   0  0  0  0  0  0  0  0  0  0  0  0
  146.4937  135.4180  152.6012 N   0  0  0  0  0  0  0  0  0  0  0  0
  145.8247  134.1525  152.8849 C   0  0  0  0  0  0  0  0  0  0  0  0
  146.6070  132.9519  152.3264 C   0  0  0  0  0  0  0  0  0  0  0  0
  146.0313  131.8241  152.7409 F   0  0  0  0  0  0  0  0  0  0  0  0
  146.5932  132.9730  150.9934 F   0  0  0  0  0  0  0  0  0  0  0  0
  147.8699  132.9660  152.7521 F   0  0  0  0  0  0  0  0  0  0  0  0
  147.7376  137.3632  152.1937 H   0  0  0  0  0  0  0  0  0  0  0  0
  146.5086  139.3720  151.3090 H   0  0  0  0  0  0  0  0  0  0  0  0
  145.3947  139.1599  152.6373 H   0  0  0  0  0  0  0  0  0  0  0  0
  146.1995  141.7626  152.9575 H   0  0  0  0  0  0  0  0  0  0  0  0
  147.7603  143.0782  154.3862 H   0  0  0  0  0  0  0  0  0  0  0  0
  150.8542  138.1744  153.8207 H   0  0  0  0  0  0  0  0  0  0  0  0
  151.9071  139.5833  153.8039 H   0  0  0  0  0  0  0  0  0  0  0  0
  151.8812  137.3527  155.9198 H   0  0  0  0  0  0  0  0  0  0  0  0
  153.1398  137.6567  154.7380 H   0  0  0  0  0  0  0  0  0  0  0  0
  151.5708  138.9436  157.7190 H   0  0  0  0  0  0  0  0  0  0  0  0
  152.6082  140.3551  157.7793 H   0  0  0  0  0  0  0  0  0  0  0  0
  151.5532  141.3119  155.7585 H   0  0  0  0  0  0  0  0  0  0  0  0
  150.3215  140.9360  156.9451 H   0  0  0  0  0  0  0  0  0  0  0  0
  148.6910  138.3107  153.6857 H   0  0  0  0  0  0  0  0  0  0  0  0
  147.4833  135.3750  152.4071 H   0  0  0  0  0  0  0  0  0  0  0  0
  145.6626  134.0349  153.9576 H   0  0  0  0  0  0  0  0  0  0  0  0
  144.8351  134.1893  152.4287 H   0  0  0  0  0  0  0  0  0  0  0  0
  1  2  2  0  0  0  0
  2  3  1  0  0  0  0
  2 17  1  0  0  0  0
  3  4  1  0  0  0  0
  3 23  1  0  0  0  0
  4  5  1  0  0  0  0
  4 24  1  0  0  0  0
  4 25  1  0  0  0  0
  5 16  1  0  0  0  0
  5  6  2  0  0  0  0
  6  7  1  0  0  0  0
  6 26  1  0  0  0  0
  7  8  2  0  0  0  0
  7 27  1  0  0  0  0
  8  9  1  0  0  0  0
  9 10  1  0  0  0  0
  9 16  2  0  0  0  0
 10 15  1  0  0  0  0
 10 11  1  0  0  0  0
 11 12  1  0  0  0  0
 11 28  1  0  0  0  0
 11 29  1  0  0  0  0
 12 13  1  0  0  0  0
 12 30  1  0  0  0  0
 12 31  1  0  0  0  0
 13 14  1  0  0  0  0
 14 15  1  0  0  0  0
 14 32  1  0  0  0  0
 14 33  1  0  0  0  0
 15 34  1  0  0  0  0
 15 35  1  0  0  0  0
 16 36  1  0  0  0  0
 17 18  1  0  0  0  0
 17 37  1  0  0  0  0
 18 19  1  0  0  0  0
 18 38  1  0  0  0  0
 18 39  1  0  0  0  0
 19 20  1  0  0  0  0
 19 21  1  0  0  0  0
 19 22  1  0  0  0  0
M  END
> <s_m_source_file>
AV-unprocessed.smi

> <i_m_source_file_index>
1186

> <i_lp_mmshare_version>
43012

> <i_f3d_flags>
0

> <s_epik_input>
RkMoRikoRilbQ0gyXVtOSF1DKD1PKVtOSF1bQ0gyXWMxW2NIXVtjSF1uYyhbY0hdMSlOMltDSDJdW0NIMl1PW0NIMl1bQ0gyXTI=

> <s_epik_cmdline>
J2VwaWtfcHl0aG9uJywgJy1waCcsICc3LjAnLCAnLXRuJywgJzgnLCAnLW1hJywgJzIwMCcsICctbWV0YWxfYmluZGluZycsICctaW1hZScsICc8aW5maWxlLm1hZT4nLCAnLW9tYWUnLCAnPG91dGZpbGUubWFlPic=

> <r_lp_tautomer_probability>
1

> <r_epik_Ionization_Penalty>
0.00300827

> <r_epik_Ionization_Penalty_Charging>
0

> <r_epik_Ionization_Penalty_Neutral>
0.00300827

> <r_epik_State_Penalty>
0.0020903

> <r_epik_Charging_Adjusted_Penalty>
0.0020903

> <i_epik_Tot_Q>
0

> <i_epik_Tot_abs_Q>
0

> <r_epik_Metal_State_Penalty>
-0

> <b_epik_Metal_Only>
0

> <s_lp_Force_Field>
OPLS_2005

> <r_lp_Energy>
10.4369

> <b_lp_Chiralities_Consistent>
1

> <s_lp_Variant>
AV-unprocessed.smi:1186-1

> <Gold.Version>
5.8.1

> <Gold.Id.Protein>
6NUR|6NUR_protein|mol2

> <Gold.PLP.Fitness>
48.9987

> <Gold.PLP.PLP>
-37.4550

> <Gold.PLP.part.hbond>
-3.0000

> <Gold.PLP.part.metal>
0.0000

> <Gold.PLP.part.buried>
0.3063

> <Gold.PLP.part.nonpolar>
-34.7386

> <Gold.PLP.part.repulsive>
0.4349

> <Gold.PLP.ligand.clash>
0.0000

> <Gold.PLP.ligand.torsion>
0.4207

> <Gold.PLP.Chemscore.Hbond>
3.0000

> <Gold.PLP.Chemscore.CHOScore>
1.0000

> <Gold.PLP.Chemscore.Metal>
0.0000

> <Gold.Chemscore.Hbonds>
donor molecule, donor type, donor heavy atom, donor atom, acceptor molecule, acceptor atom, score
      L1  H     3    23       P1  7948  1.00
      L1  H    17    37       P1  7948  0.98
      P1  H  7997  8008       L1    13  1.00
      L1  C     7    27       P1  8028  1.00

> <Gold.PLP.Chemscore.Internal.Correction>
0.3852

> <Gold.Rescore>
     Score         DG    S(hbond)    S(metal)    S(lipo)     H(rot)  DE(clash)    DE(int)     intcor
     17.27     -17.90       2.89        0.00      69.51       2.09       0.22       0.42       ----

> <Gold.Chemscore.Fitness>
17.2694

> <Gold.Chemscore.DG>
-17.9042

> <Gold.Chemscore.ZeroCoef>
-5.4800

> <Gold.Chemscore.Hbond>
2.8867

> <Gold.Chemscore.Metal>
0.0000

> <Gold.Chemscore.Lipo>
69.5101

> <Gold.Chemscore.Internal_Hbond>
0.0000

> <Gold.Chemscore.DEClash>
0.2174

> <Gold.Chemscore.DEInternal>
0.4174

> <Gold.Chemscore.Rot>
2.0899

> <Gold.Chemscore.Internal.Correction>
   9.000000E+99

> <Gold.Chemscore.Hbonds>
donor molecule, donor type, donor heavy atom, donor atom, acceptor molecule, acceptor atom, score
      L1  H     3    23       P1  7948  0.96
      L1  H    17    37       P1  7948  0.93
      P1  H  7997  8008       L1    13  0.26

> <Gold.Chemscore.Hbond.Weighted>
-9.6417

> <Gold.Chemscore.Metal.Weighted>
-0.0000

> <Gold.Chemscore.Lipo.Weighted>
-8.1327

> <Gold.Chemscore.Internal_Hbond.Weighted>
0.0000

> <Gold.Chemscore.DEClash.Weighted>
0.2174

> <Gold.Chemscore.DEInternal.Weighted>
0.4174

> <Gold.Chemscore.Rot.Weighted>
5.3502

> <Gold.Chemscore.Internal.Correction.Weighted>
   9.000000E+99

> <Gold.Protein.RotatedTorsions>
[ 6907 6896 6895 6894 ] final  162.75 input  -60.11 | X-H torsion
[ 7974 7965 7964 7962 ] final  120.86 input  175.53 | X-H torsion
[ 8008 7997 7996 7995 ] final  -48.32 input   59.86 | X-H torsion
[ 10167 10162 10161 10158 ] final  138.00 input  -65.29 | X-H torsion
[ 10718 10713 10712 10709 ] final  -32.81 input   66.30 | X-H torsion
[ 10763 10752 10751 10750 ] final   39.77 input  -60.55 | X-H torsion
[ 11005 11000 10999 10996 ] final   12.02 input  -57.11 | X-H torsion

> <Gold.Protein.ActiveResidues>
 VAL166  LYS551  ARG553  GLY616  TRP617  ASP618  TYR619  PRO620  LYS621  CYS622 
 ASP623  PHE694  ASN695  SER759  ASP760  ASP761  ALA762  ILE779  LEU786  VAL792 
 PHE793  MET794  SER795  GLU796  ALA797  LYS798  CYS799  TRP800  GLU811  SER814 

> <Gold.Protein.RotatedAtoms>
  151.9357  133.3623  159.3946 H   0  0  0  0  0  0  0  0  0  0  0  0  # atno 6907 bound_to 6896
  150.7008  134.4492  159.5337 H   0  0  0  0  0  0  0  0  0  0  0  0  # atno 6908 bound_to 6896
  152.2140  134.8475  160.0545 H   0  0  0  0  0  0  0  0  0  0  0  0  # atno 6909 bound_to 6896
  145.1262  139.3357  143.4689 H   0  0  0  0  0  0  0  0  0  0  0  0  # atno 7974 bound_to 7965
  154.4027  140.1324  156.4320 H   0  0  0  0  0  0  0  0  0  0  0  0  # atno 8008 bound_to 7997
  155.7542  140.3487  155.5145 H   0  0  0  0  0  0  0  0  0  0  0  0  # atno 8009 bound_to 7997
  155.8921  140.1005  157.1401 H   0  0  0  0  0  0  0  0  0  0  0  0  # atno 8010 bound_to 7997
  139.5125  144.6378  151.5649 H   0  0  0  0  0  0  0  0  0  0  0  0  # atno 10167 bound_to 10162
  156.3703  130.4338  149.7551 H   0  0  0  0  0  0  0  0  0  0  0  0  # atno 10718 bound_to 10713
  152.9956  135.6211  154.2519 H   0  0  0  0  0  0  0  0  0  0  0  0  # atno 10763 bound_to 10752
  154.2257  135.2794  155.2910 H   0  0  0  0  0  0  0  0  0  0  0  0  # atno 10764 bound_to 10752
  154.5491  135.5738  153.6964 H   0  0  0  0  0  0  0  0  0  0  0  0  # atno 10765 bound_to 10752
  140.4967  134.0787  155.7784 H   0  0  0  0  0  0  0  0  0  0  0  0  # atno 11005 bound_to 11000
  146.3517  140.1241  142.8599 LP  0  0  0  0  0  0  0  0  0  0  0  0  # atno 17320 bound_to 7965
  145.0686  140.9139  143.4895 LP  0  0  0  0  0  0  0  0  0  0  0  0  # atno 17321 bound_to 7965
  140.6134  143.9394  150.6470 LP  0  0  0  0  0  0  0  0  0  0  0  0  # atno 17342 bound_to 10162
  140.2644  143.3501  152.1294 LP  0  0  0  0  0  0  0  0  0  0  0  0  # atno 17343 bound_to 10162
  156.4681  130.7983  151.3002 LP  0  0  0  0  0  0  0  0  0  0  0  0  # atno 17370 bound_to 10713
  157.7483  131.0044  150.3076 LP  0  0  0  0  0  0  0  0  0  0  0  0  # atno 17371 bound_to 10713
  141.1457  133.9060  157.2222 LP  0  0  0  0  0  0  0  0  0  0  0  0  # atno 17394 bound_to 11000
  139.9737  135.0120  156.9578 LP  0  0  0  0  0  0  0  0  0  0  0  0  # atno 17395 bound_to 11000

$$$$
