AV-unprocessed.smi:1620|AV-procd|sdf|6491|dock5
  -GOLD-   22720 7153D 1   1.00000     0.00000
 Structure written by MMmdl.
 40 40  0  0  0  0  0  0  0  0  1 V2000
  136.6005  136.5674  156.9238 C   0  0  0  0  0  0  0  0  0  0  0  0
  137.3453  137.5397  155.9913 C   0  0  0  0  0  0  0  0  0  0  0  0
  136.9062  137.2904  154.5358 C   0  0  0  0  0  0  0  0  0  0  0  0
  138.8890  137.4665  156.1760 C   0  0  2  0  0  0  0  0  0  0  0  0
  139.3620  137.5962  157.6400 C   0  0  0  0  0  0  0  0  0  0  0  0
  139.6043  138.4389  155.3093 N   0  0  0  0  0  0  0  0  0  0  0  0
  139.2734  139.8533  155.5299 C   0  0  0  0  0  0  0  0  0  0  0  0
  140.6033  138.1381  154.4370 C   0  0  0  0  0  0  0  0  0  0  0  0
  141.1650  138.9962  153.7538 O   0  0  0  0  0  0  0  0  0  0  0  0
  140.8634  136.8218  154.3158 N   0  0  0  0  0  0  0  0  0  0  0  0
  141.8345  136.1978  153.4927 C   0  0  0  0  0  0  0  0  0  0  0  0
  142.8457  136.8860  152.7734 C   0  0  0  0  0  0  0  0  0  0  0  0
  143.6057  136.0438  152.0900 N   0  0  0  0  0  0  0  0  0  0  0  0
  143.0955  134.8147  152.3557 N   0  0  0  0  0  0  0  0  0  0  0  0
  143.6981  133.6393  151.7533 C   0  0  0  0  0  0  0  0  0  0  0  0
  144.6917  134.0285  150.6575 C   0  0  0  0  0  0  0  0  0  0  0  0
  144.1862  134.5229  149.5243 N   0  0  0  0  0  0  0  0  0  0  0  0
  145.8998  133.8852  150.8326 O   0  0  0  0  0  0  0  0  0  0  0  0
  142.0107  134.8733  153.2086 C   0  0  0  0  0  0  0  0  0  0  0  0
  136.9138  135.5366  156.7548 H   0  0  0  0  0  0  0  0  0  0  0  0
  135.5234  136.6158  156.7607 H   0  0  0  0  0  0  0  0  0  0  0  0
  136.7700  136.8029  157.9740 H   0  0  0  0  0  0  0  0  0  0  0  0
  137.0144  138.5443  156.2553 H   0  0  0  0  0  0  0  0  0  0  0  0
  137.2261  136.3076  154.1885 H   0  0  0  0  0  0  0  0  0  0  0  0
  137.3151  138.0362  153.8545 H   0  0  0  0  0  0  0  0  0  0  0  0
  135.8210  137.3370  154.4407 H   0  0  0  0  0  0  0  0  0  0  0  0
  139.1736  136.4492  155.9078 H   0  0  0  0  0  0  0  0  0  0  0  0
  139.0417  136.7443  158.2391 H   0  0  0  0  0  0  0  0  0  0  0  0
  138.9754  138.4950  158.1201 H   0  0  0  0  0  0  0  0  0  0  0  0
  140.4504  137.6292  157.6973 H   0  0  0  0  0  0  0  0  0  0  0  0
  139.1941  140.3935  154.5850 H   0  0  0  0  0  0  0  0  0  0  0  0
  140.0456  140.3340  156.1320 H   0  0  0  0  0  0  0  0  0  0  0  0
  138.3213  139.9866  156.0419 H   0  0  0  0  0  0  0  0  0  0  0  0
  140.3060  136.2011  154.8846 H   0  0  0  0  0  0  0  0  0  0  0  0
  143.0505  137.9454  152.7259 H   0  0  0  0  0  0  0  0  0  0  0  0
  144.1943  133.0455  152.5229 H   0  0  0  0  0  0  0  0  0  0  0  0
  142.9066  133.0183  151.3315 H   0  0  0  0  0  0  0  0  0  0  0  0
  144.8051  134.8014  148.7766 H   0  0  0  0  0  0  0  0  0  0  0  0
  143.1867  134.6243  149.4228 H   0  0  0  0  0  0  0  0  0  0  0  0
  141.4810  133.9856  153.5215 H   0  0  0  0  0  0  0  0  0  0  0  0
  1  2  1  0  0  0  0
  1 20  1  0  0  0  0
  1 21  1  0  0  0  0
  1 22  1  0  0  0  0
  2  3  1  0  0  0  0
  2  4  1  0  0  0  0
  2 23  1  0  0  0  0
  3 24  1  0  0  0  0
  3 25  1  0  0  0  0
  3 26  1  0  0  0  0
  4  5  1  0  0  0  0
  4  6  1  0  0  0  0
  4 27  1  0  0  0  0
  5 28  1  0  0  0  0
  5 29  1  0  0  0  0
  5 30  1  0  0  0  0
  6  7  1  0  0  0  0
  6  8  1  0  0  0  0
  7 31  1  0  0  0  0
  7 32  1  0  0  0  0
  7 33  1  0  0  0  0
  8  9  2  0  0  0  0
  8 10  1  0  0  0  0
 10 11  1  0  0  0  0
 10 34  1  0  0  0  0
 11 19  2  0  0  0  0
 11 12  1  0  0  0  0
 12 13  2  0  0  0  0
 12 35  1  0  0  0  0
 13 14  1  0  0  0  0
 14 15  1  0  0  0  0
 14 19  1  0  0  0  0
 15 16  1  0  0  0  0
 15 36  1  0  0  0  0
 15 37  1  0  0  0  0
 16 17  1  0  0  0  0
 16 18  2  0  0  0  0
 17 38  1  0  0  0  0
 17 39  1  0  0  0  0
 19 40  1  0  0  0  0
M  END
> <s_m_source_file>
AV-unprocessed.smi

> <i_m_source_file_index>
1620

> <i_lp_mmshare_version>
43012

> <i_f3d_flags>
0

> <s_epik_input>
W0NIM11bQ0hdKFtDSDNdKVtDQEhdKFtDSDNdKU4oW0NIM10pQyg9TylbTkhdYzFbY0hdbm4oW2NIXTEpW0NIMl1DKD1PKVtOSDJd

> <s_epik_cmdline>
J2VwaWtfcHl0aG9uJywgJy1waCcsICc3LjAnLCAnLXRuJywgJzgnLCAnLW1hJywgJzIwMCcsICctbWV0YWxfYmluZGluZycsICctaW1hZScsICc8aW5maWxlLm1hZT4nLCAnLW9tYWUnLCAnPG91dGZpbGUubWFlPic=

> <r_lp_tautomer_probability>
1

> <r_epik_Ionization_Penalty>
4.85642e-05

> <r_epik_Ionization_Penalty_Charging>
0

> <r_epik_Ionization_Penalty_Neutral>
4.85642e-05

> <r_epik_State_Penalty>
-0

> <r_epik_Charging_Adjusted_Penalty>
0

> <i_epik_Tot_Q>
0

> <i_epik_Tot_abs_Q>
0

> <r_epik_Metal_State_Penalty>
-0

> <b_epik_Metal_Only>
0

> <s_lp_Force_Field>
OPLS_2005

> <r_lp_Energy>
32.3257

> <b_lp_Chiralities_Consistent>
1

> <s_lp_Variant>
AV-unprocessed.smi:1620-1

> <Gold.Version>
5.8.1

> <Gold.Id.Protein>
6NUR|6NUR_protein|mol2

> <Gold.PLP.Fitness>
34.9553

> <Gold.PLP.PLP>
-24.6789

> <Gold.PLP.part.hbond>
-1.9963

> <Gold.PLP.part.metal>
0.0000

> <Gold.PLP.part.buried>
-7.0056

> <Gold.PLP.part.nonpolar>
-17.0008

> <Gold.PLP.part.repulsive>
0.9631

> <Gold.PLP.ligand.clash>
0.0000

> <Gold.PLP.ligand.torsion>
0.4373

> <Gold.PLP.Chemscore.Hbond>
2.0000

> <Gold.PLP.Chemscore.CHOScore>
1.6372

> <Gold.PLP.Chemscore.Metal>
0.0000

> <Gold.Chemscore.Hbonds>
donor molecule, donor type, donor heavy atom, donor atom, acceptor molecule, acceptor atom, score
      L1  H    17    38       P1  7921  1.00
      L1  H    17    39       P1 10186  0.62
      L1  C    12    35       P1 10175  0.91
      L1  C    19    40       P1 10957  0.32

> <Gold.PLP.Chemscore.Internal.Correction>
0.2392

> <Gold.Rescore>
     Score         DG    S(hbond)    S(metal)    S(lipo)     H(rot)  DE(clash)    DE(int)     intcor
     10.36     -11.93       1.98        0.00      44.60       2.10       0.00       1.57       ----

> <Gold.Chemscore.Fitness>
10.3605

> <Gold.Chemscore.DG>
-11.9320

> <Gold.Chemscore.ZeroCoef>
-5.4800

> <Gold.Chemscore.Hbond>
1.9819

> <Gold.Chemscore.Metal>
0.0000

> <Gold.Chemscore.Lipo>
44.6012

> <Gold.Chemscore.Internal_Hbond>
0.0000

> <Gold.Chemscore.DEClash>
0.0036

> <Gold.Chemscore.DEInternal>
1.5679

> <Gold.Chemscore.Rot>
2.1039

> <Gold.Chemscore.Internal.Correction>
   9.000000E+99

> <Gold.Chemscore.Hbonds>
donor molecule, donor type, donor heavy atom, donor atom, acceptor molecule, acceptor atom, score
      L1  H    17    38       P1  7921  1.00
      L1  H    17    39       P1 10186  0.61

> <Gold.Chemscore.Hbond.Weighted>
-6.6197

> <Gold.Chemscore.Metal.Weighted>
-0.0000

> <Gold.Chemscore.Lipo.Weighted>
-5.2183

> <Gold.Chemscore.Internal_Hbond.Weighted>
0.0000

> <Gold.Chemscore.DEClash.Weighted>
0.0036

> <Gold.Chemscore.DEInternal.Weighted>
1.5679

> <Gold.Chemscore.Rot.Weighted>
5.3860

> <Gold.Chemscore.Internal.Correction.Weighted>
   9.000000E+99

> <Gold.Protein.RotatedTorsions>
[ 6907 6896 6895 6894 ] final  -58.44 input  -60.11 | X-H torsion
[ 7974 7965 7964 7962 ] final   51.99 input  175.53 | X-H torsion
[ 8008 7997 7996 7995 ] final  -70.66 input   59.86 | X-H torsion
[ 10167 10162 10161 10158 ] final  158.84 input  -65.29 | X-H torsion
[ 10718 10713 10712 10709 ] final -149.52 input   66.30 | X-H torsion
[ 10763 10752 10751 10750 ] final  -38.68 input  -60.55 | X-H torsion
[ 11005 11000 10999 10996 ] final  100.92 input  -57.11 | X-H torsion

> <Gold.Protein.ActiveResidues>
 VAL166  LYS551  ARG553  GLY616  TRP617  ASP618  TYR619  PRO620  LYS621  CYS622 
 ASP623  PHE694  ASN695  SER759  ASP760  ASP761  ALA762  ILE779  LEU786  VAL792 
 PHE793  MET794  SER795  GLU796  ALA797  LYS798  CYS799  TRP800  GLU811  SER814 

> <Gold.Protein.RotatedAtoms>
  150.8007  134.7098  159.6597 H   0  0  0  0  0  0  0  0  0  0  0  0  # atno 6907 bound_to 6896
  152.4123  134.6099  160.0032 H   0  0  0  0  0  0  0  0  0  0  0  0  # atno 6908 bound_to 6896
  151.6338  133.3293  159.3151 H   0  0  0  0  0  0  0  0  0  0  0  0  # atno 6909 bound_to 6896
  145.9858  139.4288  143.0104 H   0  0  0  0  0  0  0  0  0  0  0  0  # atno 7974 bound_to 7965
  154.5029  140.0830  156.7834 H   0  0  0  0  0  0  0  0  0  0  0  0  # atno 8008 bound_to 7997
  155.3962  140.3435  155.4236 H   0  0  0  0  0  0  0  0  0  0  0  0  # atno 8009 bound_to 7997
  156.1479  140.1549  156.8805 H   0  0  0  0  0  0  0  0  0  0  0  0  # atno 8010 bound_to 7997
  139.4829  144.4787  151.8475 H   0  0  0  0  0  0  0  0  0  0  0  0  # atno 10167 bound_to 10162
  156.4342  130.8090  151.2318 H   0  0  0  0  0  0  0  0  0  0  0  0  # atno 10718 bound_to 10713
  153.9169  135.6786  153.4749 H   0  0  0  0  0  0  0  0  0  0  0  0  # atno 10763 bound_to 10752
  153.1049  135.4810  154.8931 H   0  0  0  0  0  0  0  0  0  0  0  0  # atno 10764 bound_to 10752
  154.7498  135.3182  154.8534 H   0  0  0  0  0  0  0  0  0  0  0  0  # atno 10765 bound_to 10752
  139.8772  134.9161  156.4829 H   0  0  0  0  0  0  0  0  0  0  0  0  # atno 11005 bound_to 11000
  145.7703  140.9899  143.1153 LP  0  0  0  0  0  0  0  0  0  0  0  0  # atno 17320 bound_to 7965
  144.6874  139.9439  143.7476 LP  0  0  0  0  0  0  0  0  0  0  0  0  # atno 17321 bound_to 7965
  140.4261  144.2179  150.5887 LP  0  0  0  0  0  0  0  0  0  0  0  0  # atno 17342 bound_to 10162
  140.4826  143.2374  151.8934 LP  0  0  0  0  0  0  0  0  0  0  0  0  # atno 17343 bound_to 10162
  157.7507  131.0189  150.3644 LP  0  0  0  0  0  0  0  0  0  0  0  0  # atno 17370 bound_to 10713
  156.3988  130.3912  149.6975 LP  0  0  0  0  0  0  0  0  0  0  0  0  # atno 17371 bound_to 10713
  140.8714  133.7985  155.9368 LP  0  0  0  0  0  0  0  0  0  0  0  0  # atno 17394 bound_to 11000
  140.8949  134.2450  157.5074 LP  0  0  0  0  0  0  0  0  0  0  0  0  # atno 17395 bound_to 11000

$$$$
