AV-unprocessed.smi:1767|AV-procd|sdf|7140|dock5
  -GOLD-   22720 8383D 1   1.00000     0.00000
 Structure written by MMmdl.
 32 34  0  0  0  0  0  0  0  0  1 V2000
  153.3731  139.4876  158.4796 O   0  0  0  0  0  0  0  0  0  0  0  0
  152.6450  140.6905  158.6184 C   0  0  1  0  0  0  0  0  0  0  0  0
  151.1481  140.3760  158.4268 C   0  0  0  0  0  0  0  0  0  0  0  0
  150.7618  140.3760  157.0272 N   0  0  0  0  0  0  0  0  0  0  0  0
  151.4478  139.8386  156.0003 C   0  0  0  0  0  0  0  0  0  0  0  0
  150.9213  139.9592  154.7852 N   0  0  0  0  0  0  0  0  0  0  0  0
  149.7557  140.6559  155.0539 C   0  0  0  0  0  0  0  0  0  0  0  0
  148.7383  141.1103  154.1846 C   0  0  0  0  0  0  0  0  0  0  0  0
  147.6272  141.8155  154.6921 C   0  0  0  0  0  0  0  0  0  0  0  0
  147.5157  142.0760  156.0734 C   0  0  0  0  0  0  0  0  0  0  0  0
  148.5157  141.6314  156.9592 C   0  0  0  0  0  0  0  0  0  0  0  0
  149.6240  140.9297  156.4490 C   0  0  0  0  0  0  0  0  0  0  0  0
  152.9245  141.3829  159.9455 C   0  0  0  0  0  0  0  0  0  0  0  0
  152.3542  142.6458  160.2146 C   0  0  0  0  0  0  0  0  0  0  0  0
  152.5821  143.2793  161.4515 C   0  0  0  0  0  0  0  0  0  0  0  0
  153.3828  142.6541  162.4265 C   0  0  0  0  0  0  0  0  0  0  0  0
  153.6000  143.2619  163.6167 F   0  0  0  0  0  0  0  0  0  0  0  0
  153.9559  141.3952  162.1636 C   0  0  0  0  0  0  0  0  0  0  0  0
  153.7278  140.7609  160.9271 C   0  0  0  0  0  0  0  0  0  0  0  0
  153.7342  139.2580  159.3225 H   0  0  0  0  0  0  0  0  0  0  0  0
  152.9754  141.3427  157.8088 H   0  0  0  0  0  0  0  0  0  0  0  0
  150.9180  139.3903  158.8340 H   0  0  0  0  0  0  0  0  0  0  0  0
  150.5252  141.0890  158.9688 H   0  0  0  0  0  0  0  0  0  0  0  0
  152.3905  139.3338  156.1541 H   0  0  0  0  0  0  0  0  0  0  0  0
  148.8135  140.9171  153.1247 H   0  0  0  0  0  0  0  0  0  0  0  0
  146.8564  142.1589  154.0177 H   0  0  0  0  0  0  0  0  0  0  0  0
  146.6621  142.6182  156.4530 H   0  0  0  0  0  0  0  0  0  0  0  0
  148.4344  141.8326  158.0169 H   0  0  0  0  0  0  0  0  0  0  0  0
  151.7295  143.1284  159.4772 H   0  0  0  0  0  0  0  0  0  0  0  0
  152.1395  144.2436  161.6534 H   0  0  0  0  0  0  0  0  0  0  0  0
  154.5676  140.9137  162.9121 H   0  0  0  0  0  0  0  0  0  0  0  0
  154.1638  139.7907  160.7390 H   0  0  0  0  0  0  0  0  0  0  0  0
  1  2  1  0  0  0  0
  1 20  1  0  0  0  0
  2  3  1  0  0  0  0
  2 13  1  0  0  0  0
  2 21  1  0  0  0  0
  3  4  1  0  0  0  0
  3 22  1  0  0  0  0
  3 23  1  0  0  0  0
  4 12  1  0  0  0  0
  4  5  1  0  0  0  0
  5  6  2  0  0  0  0
  5 24  1  0  0  0  0
  6  7  1  0  0  0  0
  7 12  2  0  0  0  0
  7  8  1  0  0  0  0
  8  9  2  0  0  0  0
  8 25  1  0  0  0  0
  9 10  1  0  0  0  0
  9 26  1  0  0  0  0
 10 11  2  0  0  0  0
 10 27  1  0  0  0  0
 11 12  1  0  0  0  0
 11 28  1  0  0  0  0
 13 19  1  0  0  0  0
 13 14  2  0  0  0  0
 14 15  1  0  0  0  0
 14 29  1  0  0  0  0
 15 16  2  0  0  0  0
 15 30  1  0  0  0  0
 16 17  1  0  0  0  0
 16 18  1  0  0  0  0
 18 19  2  0  0  0  0
 18 31  1  0  0  0  0
 19 32  1  0  0  0  0
M  END
> <s_m_source_file>
AV-unprocessed.smi

> <i_m_source_file_index>
1767

> <i_lp_mmshare_version>
43012

> <i_f3d_flags>
0

> <s_epik_input>
W2NIXTFbY0hdYyhGKVtjSF1bY0hdYzFbQ0BIXShbT0hdKVtDSDJdbihbY0hdbjIpYyhjMjMpW2NIXVtjSF1bY0hdW2NIXTM=

> <s_epik_cmdline>
J2VwaWtfcHl0aG9uJywgJy1waCcsICc3LjAnLCAnLXRuJywgJzgnLCAnLW1hJywgJzIwMCcsICctbWV0YWxfYmluZGluZycsICctaW1hZScsICc8aW5maWxlLm1hZT4nLCAnLW9tYWUnLCAnPG91dGZpbGUubWFlPic=

> <r_epik_Ionization_Penalty>
0.0696514

> <r_epik_Ionization_Penalty_Charging>
0

> <r_epik_Ionization_Penalty_Neutral>
0.0696514

> <r_epik_State_Penalty>
0.0610247

> <r_epik_Charging_Adjusted_Penalty>
0.0610247

> <i_epik_Tot_Q>
0

> <i_epik_Tot_abs_Q>
0

> <r_epik_Metal_State_Penalty>
6.42746e-05

> <b_epik_Metal_Only>
0

> <s_lp_Force_Field>
OPLS_2005

> <r_lp_Energy>
11.9243

> <b_lp_Chiralities_Consistent>
1

> <s_lp_Variant>
AV-unprocessed.smi:1767-2

> <Gold.Version>
5.8.1

> <Gold.Id.Protein>
6NUR|6NUR_protein|mol2

> <Gold.PLP.Fitness>
52.2701

> <Gold.PLP.PLP>
-47.4208

> <Gold.PLP.part.hbond>
-1.9821

> <Gold.PLP.part.metal>
0.0000

> <Gold.PLP.part.buried>
-3.3970

> <Gold.PLP.part.nonpolar>
-41.1080

> <Gold.PLP.part.repulsive>
0.0789

> <Gold.PLP.ligand.clash>
0.0000

> <Gold.PLP.ligand.torsion>
0.5874

> <Gold.PLP.Chemscore.Hbond>
2.0000

> <Gold.PLP.Chemscore.CHOScore>
0.0000

> <Gold.PLP.Chemscore.Metal>
0.0000

> <Gold.Chemscore.Hbonds>
donor molecule, donor type, donor heavy atom, donor atom, acceptor molecule, acceptor atom, score
      P1  H  7989  7998       L1     6  1.00
      P1  H  7997  8008       L1     1  0.95

> <Gold.PLP.Chemscore.Internal.Correction>
0.0241

> <Gold.Rescore>
     Score         DG    S(hbond)    S(metal)    S(lipo)     H(rot)  DE(clash)    DE(int)     intcor
     18.44     -19.09       1.76        0.00     107.89       1.91       0.06       0.59       ----

> <Gold.Chemscore.Fitness>
18.4426

> <Gold.Chemscore.DG>
-19.0928

> <Gold.Chemscore.ZeroCoef>
-5.4800

> <Gold.Chemscore.Hbond>
1.7615

> <Gold.Chemscore.Metal>
0.0000

> <Gold.Chemscore.Lipo>
107.8898

> <Gold.Chemscore.Internal_Hbond>
0.0000

> <Gold.Chemscore.DEClash>
0.0606

> <Gold.Chemscore.DEInternal>
0.5896

> <Gold.Chemscore.Rot>
1.9116

> <Gold.Chemscore.Internal.Correction>
   9.000000E+99

> <Gold.Chemscore.Hbonds>
donor molecule, donor type, donor heavy atom, donor atom, acceptor molecule, acceptor atom, score
      P1  H  7989  7998       L1     6  0.39
      P1  H  7997  8008       L1     1  0.20

> <Gold.Chemscore.Hbond.Weighted>
-5.8834

> <Gold.Chemscore.Metal.Weighted>
-0.0000

> <Gold.Chemscore.Lipo.Weighted>
-12.6231

> <Gold.Chemscore.Internal_Hbond.Weighted>
0.0000

> <Gold.Chemscore.DEClash.Weighted>
0.0606

> <Gold.Chemscore.DEInternal.Weighted>
0.5896

> <Gold.Chemscore.Rot.Weighted>
4.8937

> <Gold.Chemscore.Internal.Correction.Weighted>
   9.000000E+99

> <Gold.Protein.RotatedTorsions>
[ 6907 6896 6895 6894 ] final   66.65 input  -60.11 | X-H torsion
[ 7974 7965 7964 7962 ] final -103.40 input  175.53 | X-H torsion
[ 8008 7997 7996 7995 ] final  -89.29 input   59.86 | X-H torsion
[ 10167 10162 10161 10158 ] final   77.02 input  -65.29 | X-H torsion
[ 10718 10713 10712 10709 ] final  177.06 input   66.30 | X-H torsion
[ 10763 10752 10751 10750 ] final   -2.69 input  -60.55 | X-H torsion
[ 11005 11000 10999 10996 ] final  -10.37 input  -57.11 | X-H torsion

> <Gold.Protein.ActiveResidues>
 VAL166  LYS551  ARG553  GLY616  TRP617  ASP618  TYR619  PRO620  LYS621  CYS622 
 ASP623  PHE694  ASN695  SER759  ASP760  ASP761  ALA762  ILE779  LEU786  VAL792 
 PHE793  MET794  SER795  GLU796  ALA797  LYS798  CYS799  TRP800  GLU811  SER814 

> <Gold.Protein.RotatedAtoms>
  152.4496  134.5422  159.9842 H   0  0  0  0  0  0  0  0  0  0  0  0  # atno 6907 bound_to 6896
  151.5498  133.3413  159.2959 H   0  0  0  0  0  0  0  0  0  0  0  0  # atno 6908 bound_to 6896
  150.8421  134.7749  159.7004 H   0  0  0  0  0  0  0  0  0  0  0  0  # atno 6909 bound_to 6896
  145.2564  140.9255  143.3066 H   0  0  0  0  0  0  0  0  0  0  0  0  # atno 7974 bound_to 7965
  154.6848  140.0543  157.0303 H   0  0  0  0  0  0  0  0  0  0  0  0  # atno 8008 bound_to 7997
  155.0900  140.3218  155.4557 H   0  0  0  0  0  0  0  0  0  0  0  0  # atno 8009 bound_to 7997
  156.2707  140.2049  156.6027 H   0  0  0  0  0  0  0  0  0  0  0  0  # atno 8010 bound_to 7997
  139.9861  144.5791  150.7859 H   0  0  0  0  0  0  0  0  0  0  0  0  # atno 10167 bound_to 10162
  156.9110  130.9910  151.3020 H   0  0  0  0  0  0  0  0  0  0  0  0  # atno 10718 bound_to 10713
  153.3613  135.6990  153.6710 H   0  0  0  0  0  0  0  0  0  0  0  0  # atno 10763 bound_to 10752
  153.5397  135.3575  155.2713 H   0  0  0  0  0  0  0  0  0  0  0  0  # atno 10764 bound_to 10752
  154.8668  135.4200  154.2871 H   0  0  0  0  0  0  0  0  0  0  0  0  # atno 10765 bound_to 10752
  140.7441  133.8646  155.8991 H   0  0  0  0  0  0  0  0  0  0  0  0  # atno 11005 bound_to 11000
  144.9457  139.4139  143.6427 LP  0  0  0  0  0  0  0  0  0  0  0  0  # atno 17320 bound_to 7965
  146.3288  139.8439  142.8885 LP  0  0  0  0  0  0  0  0  0  0  0  0  # atno 17321 bound_to 7965
  140.7472  143.2902  151.3351 LP  0  0  0  0  0  0  0  0  0  0  0  0  # atno 17342 bound_to 10162
  139.6374  144.0604  152.2527 LP  0  0  0  0  0  0  0  0  0  0  0  0  # atno 17343 bound_to 10162
  157.5967  130.8483  149.8740 LP  0  0  0  0  0  0  0  0  0  0  0  0  # atno 17370 bound_to 10713
  156.0536  130.3713  150.1143 LP  0  0  0  0  0  0  0  0  0  0  0  0  # atno 17371 bound_to 10713
  140.9810  134.1405  157.4494 LP  0  0  0  0  0  0  0  0  0  0  0  0  # atno 17394 bound_to 11000
  139.8800  135.0010  156.6045 LP  0  0  0  0  0  0  0  0  0  0  0  0  # atno 17395 bound_to 11000

$$$$
