AV-unprocessed.smi:45|AV-procd|sdf|415|dock5
  -GOLD-   2262016283D 1   1.00000     0.00000
 Structure written by MMmdl.
 60 63  0  0  0  0  0  0  0  0  3 V2000
  152.3518  144.7454  158.0457 C   0  0  0  0  0  0  0  0  0  0  0  0
  152.7650  143.4278  158.3766 O   0  0  0  0  0  0  0  0  0  0  0  0
  151.9868  142.3723  157.9481 C   0  0  0  0  0  0  0  0  0  0  0  0
  150.9329  142.5001  157.0076 C   0  0  0  0  0  0  0  0  0  0  0  0
  150.1825  141.3748  156.6161 C   0  0  0  0  0  0  0  0  0  0  0  0
  150.4706  140.1055  157.1553 C   0  0  0  0  0  0  0  0  0  0  0  0
  149.6636  138.8951  156.7308 C   0  0  0  0  0  0  0  0  0  0  0  0
  148.9768  138.2503  157.8403 N   0  0  0  0  0  0  0  0  0  0  0  0
  148.6477  136.8841  157.8077 C   0  0  0  0  0  0  0  0  0  0  0  0
  148.9288  136.1948  156.6785 N   0  0  0  0  0  0  0  0  0  0  0  0
  148.6498  134.8876  156.5918 C   0  0  0  0  0  0  0  0  0  0  0  0
  148.9591  134.1995  155.4193 N   0  0  0  0  0  0  0  0  0  0  0  0
  148.6379  134.7523  154.1080 C   0  0  0  0  0  0  0  0  0  0  0  0
  148.3222  133.5554  153.2124 C   0  0  0  0  0  0  0  0  0  0  0  0
  149.1653  132.4429  153.8216 C   0  0  0  0  0  0  0  0  0  0  0  0
  149.1257  132.7477  155.3264 C   0  0  1  0  0  0  0  0  0  0  0  0
  150.3748  132.2276  156.0692 C   0  0  0  0  0  0  0  0  0  0  0  0
  150.0532  131.9415  157.4141 O   0  0  0  0  0  0  0  0  0  0  0  0
  148.0903  134.2125  157.6078 N   0  3  0  0  0  0  0  0  0  0  0  0
  147.7891  134.8551  158.7623 C   0  0  0  0  0  0  0  0  0  0  0  0
  148.0590  136.2323  158.9198 C   0  0  0  0  0  0  0  0  0  0  0  0
  147.6920  136.9456  160.1967 C   0  0  0  0  0  0  0  0  0  0  0  0
  146.8906  137.8845  160.1379 O   0  0  0  0  0  0  0  0  0  0  0  0
  148.3529  136.4300  161.2703 N   0  5  0  0  0  0  0  0  0  0  0  0
  147.7578  136.2616  162.5973 C   0  0  0  0  0  0  0  0  0  0  0  0
  146.5817  135.2914  162.5903 C   0  0  0  0  0  0  0  0  0  0  0  0
  146.8682  133.9951  162.4155 N   0  0  0  0  0  0  0  0  0  0  0  0
  145.8281  133.1334  162.3999 C   0  0  0  0  0  0  0  0  0  0  0  0
  144.4984  133.5720  162.5607 C   0  0  0  0  0  0  0  0  0  0  0  0
  144.3174  134.9584  162.7375 C   0  0  0  0  0  0  0  0  0  0  0  0
  145.3608  135.8159  162.7530 N   0  0  0  0  0  0  0  0  0  0  0  0
  151.5148  139.9706  158.0908 C   0  0  0  0  0  0  0  0  0  0  0  0
  152.2657  141.0954  158.4851 C   0  0  0  0  0  0  0  0  0  0  0  0
  153.5385  140.8951  159.6359 Cl  0  0  0  0  0  0  0  0  0  0  0  0
  148.2315  132.2912  155.7544 H   0  0  0  0  0  0  0  0  0  0  0  0
  153.0735  145.4587  158.4435 H   0  0  0  0  0  0  0  0  0  0  0  0
  151.3807  144.9807  158.4830 H   0  0  0  0  0  0  0  0  0  0  0  0
  152.3075  144.8901  156.9653 H   0  0  0  0  0  0  0  0  0  0  0  0
  150.6780  143.4534  156.5702 H   0  0  0  0  0  0  0  0  0  0  0  0
  149.3825  141.4889  155.8989 H   0  0  0  0  0  0  0  0  0  0  0  0
  148.9305  139.2129  155.9883 H   0  0  0  0  0  0  0  0  0  0  0  0
  150.3193  138.1716  156.2446 H   0  0  0  0  0  0  0  0  0  0  0  0
  148.7703  138.7906  158.6691 H   0  0  0  0  0  0  0  0  0  0  0  0
  147.7958  135.4447  154.1432 H   0  0  0  0  0  0  0  0  0  0  0  0
  149.5081  135.2937  153.7356 H   0  0  0  0  0  0  0  0  0  0  0  0
  147.2643  133.3008  153.2929 H   0  0  0  0  0  0  0  0  0  0  0  0
  148.5475  133.7385  152.1615 H   0  0  0  0  0  0  0  0  0  0  0  0
  148.7904  131.4472  153.5824 H   0  0  0  0  0  0  0  0  0  0  0  0
  150.1858  132.5160  153.4422 H   0  0  0  0  0  0  0  0  0  0  0  0
  150.7641  131.3272  155.5925 H   0  0  0  0  0  0  0  0  0  0  0  0
  151.1798  132.9611  156.0691 H   0  0  0  0  0  0  0  0  0  0  0  0
  149.5986  131.1132  157.4468 H   0  0  0  0  0  0  0  0  0  0  0  0
  147.3334  134.2416  159.5264 H   0  0  0  0  0  0  0  0  0  0  0  0
  148.4959  135.8840  163.3060 H   0  0  0  0  0  0  0  0  0  0  0  0
  147.4320  137.2133  163.0215 H   0  0  0  0  0  0  0  0  0  0  0  0
  146.0583  132.0877  162.2593 H   0  0  0  0  0  0  0  0  0  0  0  0
  143.6657  132.8847  162.5493 H   0  0  0  0  0  0  0  0  0  0  0  0
  143.3322  135.3807  162.8685 H   0  0  0  0  0  0  0  0  0  0  0  0
  151.7428  139.0022  158.5118 H   0  0  0  0  0  0  0  0  0  0  0  0
  147.8857  133.2170  157.5234 H   0  0  0  0  0  0  0  0  0  0  0  0
  1  2  1  0  0  0  0
  1 36  1  0  0  0  0
  1 37  1  0  0  0  0
  1 38  1  0  0  0  0
  2  3  1  0  0  0  0
  3 33  1  0  0  0  0
  3  4  2  0  0  0  0
  4  5  1  0  0  0  0
  4 39  1  0  0  0  0
  5  6  2  0  0  0  0
  5 40  1  0  0  0  0
  6  7  1  0  0  0  0
  6 32  1  0  0  0  0
  7  8  1  0  0  0  0
  7 41  1  0  0  0  0
  7 42  1  0  0  0  0
  8  9  1  0  0  0  0
  8 43  1  0  0  0  0
  9 21  1  0  0  0  0
  9 10  2  0  0  0  0
 10 11  1  0  0  0  0
 11 12  1  0  0  0  0
 11 19  2  0  0  0  0
 12 16  1  0  0  0  0
 12 13  1  0  0  0  0
 13 14  1  0  0  0  0
 13 44  1  0  0  0  0
 13 45  1  0  0  0  0
 14 15  1  0  0  0  0
 14 46  1  0  0  0  0
 14 47  1  0  0  0  0
 15 16  1  0  0  0  0
 15 48  1  0  0  0  0
 15 49  1  0  0  0  0
 16 35  1  0  0  0  0
 16 17  1  0  0  0  0
 17 18  1  0  0  0  0
 17 50  1  0  0  0  0
 17 51  1  0  0  0  0
 18 52  1  0  0  0  0
 19 20  1  0  0  0  0
 19 60  1  0  0  0  0
 20 21  2  0  0  0  0
 20 53  1  0  0  0  0
 21 22  1  0  0  0  0
 22 23  2  0  0  0  0
 22 24  1  0  0  0  0
 24 25  1  0  0  0  0
 25 26  1  0  0  0  0
 25 54  1  0  0  0  0
 25 55  1  0  0  0  0
 26 31  1  0  0  0  0
 26 27  2  0  0  0  0
 27 28  1  0  0  0  0
 28 29  2  0  0  0  0
 28 56  1  0  0  0  0
 29 30  1  0  0  0  0
 29 57  1  0  0  0  0
 30 31  2  0  0  0  0
 30 58  1  0  0  0  0
 32 33  2  0  0  0  0
 32 59  1  0  0  0  0
 33 34  1  0  0  0  0
M  CHG  1  19   1
M  CHG  1  24  -1
M  END
> <s_m_source_file>
AV-unprocessed.smi

> <i_m_source_file_index>
45

> <i_lp_mmshare_version>
43012

> <i_f3d_flags>
0

> <s_epik_input>
W0NIM11PYzFbY0hdW2NIXWMoW2NIXWMxQ2wpW0NIMl1bTkhdYzJuYyhOM1tDSDJdW0NIMl1bQ0gyXVtDQEhdM1tDSDJdW09IXSluW2NIXWMyQyg9TylbTkhdW0NIMl1jNG5bY0hdW2NIXVtjSF1uNA==

> <s_epik_cmdline>
J2VwaWtfcHl0aG9uJywgJy1waCcsICc3LjAnLCAnLXRuJywgJzgnLCAnLW1hJywgJzIwMCcsICctbWV0YWxfYmluZGluZycsICctaW1hZScsICc8aW5maWxlLm1hZT4nLCAnLW9tYWUnLCAnPG91dGZpbGUubWFlPic=

> <r_lp_tautomer_probability>
0.575011

> <r_epik_Ionization_Penalty>
6.73124

> <r_epik_Ionization_Penalty_Charging>
6.73106

> <r_epik_Ionization_Penalty_Neutral>
0.000179426

> <r_epik_State_Penalty>
8.26145

> <r_epik_Charging_Adjusted_Penalty>
14.9925

> <i_epik_Tot_Q>
0

> <i_epik_Tot_abs_Q>
2

> <r_epik_Metal_State_Penalty>
4.22532

> <b_epik_Metal_Only>
1

> <s_epik_Chemistry_Notes>
This compound contains an electron-poor aromatic ring that is susceptible to covalent hydrolysis at low pH, typically resulting in measured values for nitrogen ring protonation that are around two units higher than predicted values.

> <s_lp_Force_Field>
OPLS_2005

> <r_lp_Energy>
44.6193

> <b_lp_Chiralities_Consistent>
1

> <s_lp_Variant>
AV-unprocessed.smi:45-9

> <Gold.Version>
5.8.1

> <Gold.Id.Protein>
6NUR|6NUR_protein|mol2

> <Gold.PLP.Fitness>
60.6279

> <Gold.PLP.PLP>
-54.4634

> <Gold.PLP.part.hbond>
-2.8065

> <Gold.PLP.part.metal>
0.0000

> <Gold.PLP.part.buried>
-8.9370

> <Gold.PLP.part.nonpolar>
-42.8646

> <Gold.PLP.part.repulsive>
0.2014

> <Gold.PLP.ligand.clash>
0.0000

> <Gold.PLP.ligand.torsion>
2.6630

> <Gold.PLP.Chemscore.Hbond>
3.4300

> <Gold.PLP.Chemscore.CHOScore>
0.0000

> <Gold.PLP.Chemscore.Metal>
0.0000

> <Gold.Chemscore.Hbonds>
donor molecule, donor type, donor heavy atom, donor atom, acceptor molecule, acceptor atom, score
      P1  H  6931  6943       L1    24  0.55
      P1  H  6934  6947       L1    23  0.68

> <Gold.PLP.Chemscore.Internal.Correction>
1.2005

> <Gold.Rescore>
     Score         DG    S(hbond)    S(metal)    S(lipo)     H(rot)  DE(clash)    DE(int)     intcor
     14.22     -18.51       1.94        0.00     119.54       2.90       1.06       3.23       ----

> <Gold.Chemscore.Fitness>
14.2198

> <Gold.Chemscore.DG>
-18.5078

> <Gold.Chemscore.ZeroCoef>
-5.4800

> <Gold.Chemscore.Hbond>
1.9350

> <Gold.Chemscore.Metal>
0.0000

> <Gold.Chemscore.Lipo>
119.5369

> <Gold.Chemscore.Internal_Hbond>
0.0000

> <Gold.Chemscore.DEClash>
1.0570

> <Gold.Chemscore.DEInternal>
3.2311

> <Gold.Chemscore.Rot>
2.8988

> <Gold.Chemscore.Internal.Correction>
   9.000000E+99

> <Gold.Chemscore.Hbonds>
donor molecule, donor type, donor heavy atom, donor atom, acceptor molecule, acceptor atom, score
      P1  H  6934  6947       L1    23  0.65

> <Gold.Chemscore.Hbond.Weighted>
-6.4629

> <Gold.Chemscore.Metal.Weighted>
-0.0000

> <Gold.Chemscore.Lipo.Weighted>
-13.9858

> <Gold.Chemscore.Internal_Hbond.Weighted>
0.0000

> <Gold.Chemscore.DEClash.Weighted>
1.0570

> <Gold.Chemscore.DEInternal.Weighted>
3.2311

> <Gold.Chemscore.Rot.Weighted>
7.4209

> <Gold.Chemscore.Internal.Correction.Weighted>
   9.000000E+99

> <Gold.Protein.RotatedTorsions>
[ 6907 6896 6895 6894 ] final -158.65 input  -60.11 | X-H torsion
[ 7974 7965 7964 7962 ] final -103.01 input  175.53 | X-H torsion
[ 8008 7997 7996 7995 ] final   40.63 input   59.86 | X-H torsion
[ 10167 10162 10161 10158 ] final  179.60 input  -65.29 | X-H torsion
[ 10718 10713 10712 10709 ] final  179.15 input   66.30 | X-H torsion
[ 10763 10752 10751 10750 ] final  -36.02 input  -60.55 | X-H torsion
[ 11005 11000 10999 10996 ] final  -22.01 input  -57.11 | X-H torsion

> <Gold.Protein.ActiveResidues>
 VAL166  LYS551  ARG553  GLY616  TRP617  ASP618  TYR619  PRO620  LYS621  CYS622 
 ASP623  PHE694  ASN695  SER759  ASP760  ASP761  ALA762  ILE779  LEU786  VAL792 
 PHE793  MET794  SER795  GLU796  ALA797  LYS798  CYS799  TRP800  GLU811  SER814 

> <Gold.Protein.RotatedAtoms>
  151.3215  133.4038  159.2654 H   0  0  0  0  0  0  0  0  0  0  0  0  # atno 6907 bound_to 6896
  151.0031  134.9338  159.7975 H   0  0  0  0  0  0  0  0  0  0  0  0  # atno 6908 bound_to 6896
  152.5280  134.3180  159.9190 H   0  0  0  0  0  0  0  0  0  0  0  0  # atno 6909 bound_to 6896
  145.2614  140.9270  143.3038 H   0  0  0  0  0  0  0  0  0  0  0  0  # atno 7974 bound_to 7965
  155.2563  140.3356  155.4277 H   0  0  0  0  0  0  0  0  0  0  0  0  # atno 8008 bound_to 7997
  156.2194  140.1802  156.7556 H   0  0  0  0  0  0  0  0  0  0  0  0  # atno 8009 bound_to 7997
  154.5802  140.0655  156.9078 H   0  0  0  0  0  0  0  0  0  0  0  0  # atno 8010 bound_to 7997
  139.5344  144.2541  152.0761 H   0  0  0  0  0  0  0  0  0  0  0  0  # atno 10167 bound_to 10162
  156.8800  130.9812  151.3063 H   0  0  0  0  0  0  0  0  0  0  0  0  # atno 10718 bound_to 10713
  153.8729  135.6829  153.4773 H   0  0  0  0  0  0  0  0  0  0  0  0  # atno 10763 bound_to 10752
  153.1277  135.4711  154.9297 H   0  0  0  0  0  0  0  0  0  0  0  0  # atno 10764 bound_to 10752
  154.7706  135.3237  154.8149 H   0  0  0  0  0  0  0  0  0  0  0  0  # atno 10765 bound_to 10752
  140.8616  133.7784  156.0081 H   0  0  0  0  0  0  0  0  0  0  0  0  # atno 11005 bound_to 11000
  144.9415  139.4184  143.6446 LP  0  0  0  0  0  0  0  0  0  0  0  0  # atno 17320 bound_to 7965
  146.3274  139.8377  142.8896 LP  0  0  0  0  0  0  0  0  0  0  0  0  # atno 17321 bound_to 7965
  140.2009  144.4659  150.6432 LP  0  0  0  0  0  0  0  0  0  0  0  0  # atno 17342 bound_to 10162
  140.6541  143.2233  151.6009 LP  0  0  0  0  0  0  0  0  0  0  0  0  # atno 17343 bound_to 10162
  157.6146  130.8608  149.9007 LP  0  0  0  0  0  0  0  0  0  0  0  0  # atno 17370 bound_to 10713
  156.0682  130.3689  150.0833 LP  0  0  0  0  0  0  0  0  0  0  0  0  # atno 17371 bound_to 10713
  140.8676  134.2765  157.5206 LP  0  0  0  0  0  0  0  0  0  0  0  0  # atno 17394 bound_to 11000
  139.8707  134.9550  156.4195 LP  0  0  0  0  0  0  0  0  0  0  0  0  # atno 17395 bound_to 11000

$$$$
