AV-unprocessed.smi:2237|AV-procd|sdf|9051|dock2
  -GOLD-   2272012253D 1   1.00000     0.00000
 Structure written by MMmdl.
 54 56  0  0  0  0  0  0  0  0  2 V2000
  152.6757  142.8476  162.1895 C   0  0  0  0  0  0  0  0  0  0  0  0
  152.3118  143.5617  160.9047 C   0  0  0  0  0  0  0  0  0  0  0  0
  153.2749  143.7840  159.9008 C   0  0  0  0  0  0  0  0  0  0  0  0
  152.8704  144.4508  158.7305 C   0  0  0  0  0  0  0  0  0  0  0  0
  151.5293  144.8637  158.6127 C   0  0  0  0  0  0  0  0  0  0  0  0
  150.6255  144.6010  159.6669 C   0  0  0  0  0  0  0  0  0  0  0  0
  149.2977  145.0530  159.4466 N   0  0  0  0  0  0  0  0  0  0  0  0
  148.2349  144.9444  160.2633 C   0  0  0  0  0  0  0  0  0  0  0  0
  148.2471  144.4436  161.3883 O   0  0  0  0  0  0  0  0  0  0  0  0
  147.1356  145.4627  159.6966 N   0  0  0  0  0  0  0  0  0  0  0  0
  145.8104  145.5016  160.3077 C   0  0  0  0  0  0  0  0  0  0  0  0
  145.2865  144.0771  160.5070 C   0  0  0  0  0  0  0  0  0  0  0  0
  143.8400  144.0826  161.0303 C   0  0  0  0  0  0  0  0  0  0  0  0
  142.9297  144.7794  160.1062 N   0  0  0  0  0  0  0  0  0  0  0  0
  141.5203  144.7113  160.5572 C   0  0  2  0  0  0  0  0  0  0  0  0
  140.8524  143.3295  160.3338 C   0  0  0  0  0  0  0  0  0  0  0  0
  140.6500  143.0245  158.8385 C   0  0  0  0  0  0  0  0  0  0  0  0
  139.8304  144.0743  158.1851 N   0  3  2  0  0  0  0  0  0  0  0  0
  139.5509  143.7678  156.7659 C   0  0  0  0  0  0  0  0  0  0  0  0
  140.4030  145.4304  158.3687 C   0  0  0  0  0  0  0  0  0  0  0  0
  140.6041  145.7507  159.8610 C   0  0  0  0  0  0  0  0  0  0  0  0
  143.3888  146.1739  159.9866 C   0  0  0  0  0  0  0  0  0  0  0  0
  144.8163  146.2587  159.4193 C   0  0  0  0  0  0  0  0  0  0  0  0
  151.0256  143.9576  160.7919 N   0  0  0  0  0  0  0  0  0  0  0  0
  153.7544  142.7125  162.2750 H   0  0  0  0  0  0  0  0  0  0  0  0
  152.2045  141.8649  162.2208 H   0  0  0  0  0  0  0  0  0  0  0  0
  152.3359  143.4193  163.0534 H   0  0  0  0  0  0  0  0  0  0  0  0
  154.2962  143.4536  160.0208 H   0  0  0  0  0  0  0  0  0  0  0  0
  153.5756  144.6421  157.9355 H   0  0  0  0  0  0  0  0  0  0  0  0
  151.2023  145.3760  157.7196 H   0  0  0  0  0  0  0  0  0  0  0  0
  149.1359  145.5044  158.5587 H   0  0  0  0  0  0  0  0  0  0  0  0
  147.2195  145.8544  158.7700 H   0  0  0  0  0  0  0  0  0  0  0  0
  145.8703  145.9901  161.2823 H   0  0  0  0  0  0  0  0  0  0  0  0
  145.3264  143.5263  159.5659 H   0  0  0  0  0  0  0  0  0  0  0  0
  145.9278  143.5399  161.2068 H   0  0  0  0  0  0  0  0  0  0  0  0
  143.5605  143.0384  161.1442 H   0  0  0  0  0  0  0  0  0  0  0  0
  143.7939  144.5401  162.0198 H   0  0  0  0  0  0  0  0  0  0  0  0
  141.5164  144.9153  161.6292 H   0  0  0  0  0  0  0  0  0  0  0  0
  141.3744  142.5144  160.8309 H   0  0  0  0  0  0  0  0  0  0  0  0
  139.8724  143.3409  160.8131 H   0  0  0  0  0  0  0  0  0  0  0  0
  141.6153  142.9437  158.3361 H   0  0  0  0  0  0  0  0  0  0  0  0
  140.1549  142.0590  158.7284 H   0  0  0  0  0  0  0  0  0  0  0  0
  140.4726  143.7379  156.1832 H   0  0  0  0  0  0  0  0  0  0  0  0
  138.8950  144.5223  156.3303 H   0  0  0  0  0  0  0  0  0  0  0  0
  139.0547  142.8013  156.6715 H   0  0  0  0  0  0  0  0  0  0  0  0
  141.3515  145.5063  157.8344 H   0  0  0  0  0  0  0  0  0  0  0  0
  139.7316  146.1677  157.9270 H   0  0  0  0  0  0  0  0  0  0  0  0
  139.6281  145.7286  160.3478 H   0  0  0  0  0  0  0  0  0  0  0  0
  140.9385  146.7773  159.9915 H   0  0  0  0  0  0  0  0  0  0  0  0
  142.7601  146.7414  159.3061 H   0  0  0  0  0  0  0  0  0  0  0  0
  143.3367  146.6697  160.9572 H   0  0  0  0  0  0  0  0  0  0  0  0
  145.1132  147.3044  159.3321 H   0  0  0  0  0  0  0  0  0  0  0  0
  144.8285  145.8492  158.4080 H   0  0  0  0  0  0  0  0  0  0  0  0
  138.9382  144.0758  158.6587 H   0  0  0  0  0  0  0  0  0  0  0  0
  1  2  1  0  0  0  0
  1 25  1  0  0  0  0
  1 26  1  0  0  0  0
  1 27  1  0  0  0  0
  2 24  1  0  0  0  0
  2  3  2  0  0  0  0
  3  4  1  0  0  0  0
  3 28  1  0  0  0  0
  4  5  2  0  0  0  0
  4 29  1  0  0  0  0
  5  6  1  0  0  0  0
  5 30  1  0  0  0  0
  6  7  1  0  0  0  0
  6 24  2  0  0  0  0
  7  8  1  0  0  0  0
  7 31  1  0  0  0  0
  8  9  2  0  0  0  0
  8 10  1  0  0  0  0
 10 11  1  0  0  0  0
 10 32  1  0  0  0  0
 11 23  1  0  0  0  0
 11 12  1  0  0  0  0
 11 33  1  0  0  0  0
 12 13  1  0  0  0  0
 12 34  1  0  0  0  0
 12 35  1  0  0  0  0
 13 14  1  0  0  0  0
 13 36  1  0  0  0  0
 13 37  1  0  0  0  0
 14 15  1  0  0  0  0
 14 22  1  0  0  0  0
 15 21  1  0  0  0  0
 15 16  1  0  0  0  0
 15 38  1  0  0  0  0
 16 17  1  0  0  0  0
 16 39  1  0  0  0  0
 16 40  1  0  0  0  0
 17 18  1  0  0  0  0
 17 41  1  0  0  0  0
 17 42  1  0  0  0  0
 18 19  1  0  0  0  0
 18 20  1  0  0  0  0
 18 54  1  0  0  0  0
 19 43  1  0  0  0  0
 19 44  1  0  0  0  0
 19 45  1  0  0  0  0
 20 21  1  0  0  0  0
 20 46  1  0  0  0  0
 20 47  1  0  0  0  0
 21 48  1  0  0  0  0
 21 49  1  0  0  0  0
 22 23  1  0  0  0  0
 22 50  1  0  0  0  0
 22 51  1  0  0  0  0
 23 52  1  0  0  0  0
 23 53  1  0  0  0  0
M  CHG  1  18   1
M  END
> <s_m_source_file>
AV-unprocessed.smi

> <i_m_source_file_index>
2237

> <i_lp_mmshare_version>
43012

> <i_f3d_flags>
0

> <s_epik_input>
W0NIM11jMVtjSF1bY0hdW2NIXWMobjEpW05IXUMoPU8pW05IXVtDSF0yW0NIMl1bQ0gyXU4oW0NIMl1bQ0gyXTIpW0NIXTNbQ0gyXVtDSDJdTihbQ0gzXSlbQ0gyXVtDSDJdMw==

> <s_epik_cmdline>
J2VwaWtfcHl0aG9uJywgJy1waCcsICc3LjAnLCAnLXRuJywgJzgnLCAnLW1hJywgJzIwMCcsICctbWV0YWxfYmluZGluZycsICctaW1hZScsICc8aW5maWxlLm1hZT4nLCAnLW9tYWUnLCAnPG91dGZpbGUubWFlPic=

> <r_epik_Ionization_Penalty>
1.00983

> <r_epik_Ionization_Penalty_Charging>
0.000974969

> <r_epik_Ionization_Penalty_Neutral>
1.00886

> <r_epik_State_Penalty>
1.10286

> <r_epik_Charging_Adjusted_Penalty>
1.10383

> <i_epik_Tot_Q>
1

> <i_epik_Tot_abs_Q>
1

> <r_epik_Metal_State_Penalty>
1.10284

> <b_epik_Metal_Only>
0

> <s_lp_Force_Field>
OPLS_2005

> <r_lp_Energy>
36.6088

> <b_lp_Chiralities_Consistent>
1

> <s_lp_Variant>
AV-unprocessed.smi:2237-6

> <Gold.Version>
5.8.1

> <Gold.Id.Protein>
6NUR|6NUR_protein|mol2

> <Gold.PLP.Fitness>
47.9575

> <Gold.PLP.PLP>
-39.6529

> <Gold.PLP.part.hbond>
-4.0000

> <Gold.PLP.part.metal>
0.0000

> <Gold.PLP.part.buried>
-5.6461

> <Gold.PLP.part.nonpolar>
-30.9154

> <Gold.PLP.part.repulsive>
0.6894

> <Gold.PLP.ligand.clash>
0.0000

> <Gold.PLP.ligand.torsion>
0.2766

> <Gold.PLP.Chemscore.Hbond>
2.9520

> <Gold.PLP.Chemscore.CHOScore>
0.0000

> <Gold.PLP.Chemscore.Metal>
0.0000

> <Gold.Chemscore.Hbonds>
donor molecule, donor type, donor heavy atom, donor atom, acceptor molecule, acceptor atom, score
      L1  H     7    31       P1  8029  0.94
      L1  H    10    32       P1  8029  1.00
      P1  H  6933  6944       L1     9  0.84

> <Gold.PLP.Chemscore.Internal.Correction>
0.0018

> <Gold.Rescore>
     Score         DG    S(hbond)    S(metal)    S(lipo)     H(rot)  DE(clash)    DE(int)     intcor
     21.78     -24.82       2.78        0.00     112.63       1.22       1.55       1.49       ----

> <Gold.Chemscore.Fitness>
21.7838

> <Gold.Chemscore.DG>
-24.8233

> <Gold.Chemscore.ZeroCoef>
-5.4800

> <Gold.Chemscore.Hbond>
2.7794

> <Gold.Chemscore.Metal>
0.0000

> <Gold.Chemscore.Lipo>
112.6307

> <Gold.Chemscore.Internal_Hbond>
0.0000

> <Gold.Chemscore.DEClash>
1.5460

> <Gold.Chemscore.DEInternal>
1.4935

> <Gold.Chemscore.Rot>
1.2179

> <Gold.Chemscore.Internal.Correction>
   9.000000E+99

> <Gold.Chemscore.Hbonds>
donor molecule, donor type, donor heavy atom, donor atom, acceptor molecule, acceptor atom, score
      L1  H     7    31       P1  8029  0.89
      L1  H    10    32       P1  8029  0.97
      P1  H  6933  6944       L1     9  0.72

> <Gold.Chemscore.Hbond.Weighted>
-9.2833

> <Gold.Chemscore.Metal.Weighted>
-0.0000

> <Gold.Chemscore.Lipo.Weighted>
-13.1778

> <Gold.Chemscore.Internal_Hbond.Weighted>
0.0000

> <Gold.Chemscore.DEClash.Weighted>
1.5460

> <Gold.Chemscore.DEInternal.Weighted>
1.4935

> <Gold.Chemscore.Rot.Weighted>
3.1177

> <Gold.Chemscore.Internal.Correction.Weighted>
   9.000000E+99

> <Gold.Protein.RotatedTorsions>
[ 6907 6896 6895 6894 ] final  129.37 input  -60.11 | X-H torsion
[ 7974 7965 7964 7962 ] final  -65.35 input  175.53 | X-H torsion
[ 8008 7997 7996 7995 ] final  -53.58 input   59.86 | X-H torsion
[ 10167 10162 10161 10158 ] final   40.03 input  -65.29 | X-H torsion
[ 10718 10713 10712 10709 ] final  109.79 input   66.30 | X-H torsion
[ 10763 10752 10751 10750 ] final -128.72 input  -60.55 | X-H torsion
[ 11005 11000 10999 10996 ] final  -19.96 input  -57.11 | X-H torsion

> <Gold.Protein.ActiveResidues>
 VAL166  LYS551  ARG553  GLY616  TRP617  ASP618  TYR619  PRO620  LYS621  CYS622 
 ASP623  PHE694  ASN695  SER759  ASP760  ASP761  ALA762  ILE779  LEU786  VAL792 
 PHE793  MET794  SER795  GLU796  ALA797  LYS798  CYS799  TRP800  GLU811  SER814 

> <Gold.Protein.RotatedAtoms>
  152.3630  133.6321  159.6029 H   0  0  0  0  0  0  0  0  0  0  0  0  # atno 6907 bound_to 6896
  150.7614  133.9393  159.3460 H   0  0  0  0  0  0  0  0  0  0  0  0  # atno 6908 bound_to 6896
  151.7228  135.0892  160.0338 H   0  0  0  0  0  0  0  0  0  0  0  0  # atno 6909 bound_to 6896
  145.7554  140.8888  143.0458 H   0  0  0  0  0  0  0  0  0  0  0  0  # atno 7974 bound_to 7965
  154.4137  140.1196  156.5176 H   0  0  0  0  0  0  0  0  0  0  0  0  # atno 8008 bound_to 7997
  155.6735  140.3496  155.4808 H   0  0  0  0  0  0  0  0  0  0  0  0  # atno 8009 bound_to 7997
  155.9612  140.1123  157.0884 H   0  0  0  0  0  0  0  0  0  0  0  0  # atno 8010 bound_to 7997
  140.3782  144.2015  150.6131 H   0  0  0  0  0  0  0  0  0  0  0  0  # atno 10167 bound_to 10162
  157.6525  131.0920  150.6506 H   0  0  0  0  0  0  0  0  0  0  0  0  # atno 10718 bound_to 10713
  154.8757  135.3919  154.3803 H   0  0  0  0  0  0  0  0  0  0  0  0  # atno 10763 bound_to 10752
  153.4552  135.7028  153.6089 H   0  0  0  0  0  0  0  0  0  0  0  0  # atno 10764 bound_to 10752
  153.4612  135.3811  155.2308 H   0  0  0  0  0  0  0  0  0  0  0  0  # atno 10765 bound_to 10752
  140.8417  133.7921  155.9868 H   0  0  0  0  0  0  0  0  0  0  0  0  # atno 11005 bound_to 11000
  144.6841  139.9649  143.7481 LP  0  0  0  0  0  0  0  0  0  0  0  0  # atno 17320 bound_to 7965
  146.0316  139.3340  143.0751 LP  0  0  0  0  0  0  0  0  0  0  0  0  # atno 17321 bound_to 7965
  140.4964  143.2331  151.8743 LP  0  0  0  0  0  0  0  0  0  0  0  0  # atno 17342 bound_to 10162
  139.4797  144.5108  151.8935 LP  0  0  0  0  0  0  0  0  0  0  0  0  # atno 17343 bound_to 10162
  156.6815  130.4568  149.5626 LP  0  0  0  0  0  0  0  0  0  0  0  0  # atno 17370 bound_to 10713
  156.1925  130.6569  151.1078 LP  0  0  0  0  0  0  0  0  0  0  0  0  # atno 17371 bound_to 10713
  140.8887  134.2521  157.5106 LP  0  0  0  0  0  0  0  0  0  0  0  0  # atno 17394 bound_to 11000
  139.8703  134.9651  156.4517 LP  0  0  0  0  0  0  0  0  0  0  0  0  # atno 17395 bound_to 11000

$$$$
