AV-unprocessed.smi:4|AV-procd|sdf|34|dock10
  -GOLD-   2262015143D 1   1.00000     0.00000
 Structure written by MMmdl.
 43 44  0  0  0  0  0  0  0  0  1 V2000
  152.5622  130.1942  155.7227 C   0  0  0  0  0  0  0  0  0  0  0  0
  151.0144  130.1750  155.8195 C   0  0  0  0  0  0  0  0  0  0  0  0
  150.5503  129.1471  154.7542 C   0  0  0  0  0  0  0  0  0  0  0  0
  150.6943  129.6682  157.2491 C   0  0  0  0  0  0  0  0  0  0  0  0
  150.4138  131.5048  155.5812 N   0  0  0  0  0  0  0  0  0  0  0  0
  149.5427  131.7908  154.5262 C   0  0  0  0  0  0  0  0  0  0  0  0
  148.9792  133.0041  154.2947 C   0  0  0  0  0  0  0  0  0  0  0  0
  148.0651  133.2519  153.1026 C   0  0  0  0  0  0  0  0  0  0  0  0
  147.7559  132.0103  152.3987 N   0  0  0  0  0  0  0  0  0  0  0  0
  146.3269  131.7104  152.3664 C   0  0  0  0  0  0  0  0  0  0  0  0
  145.7110  132.0683  151.0110 C   0  0  0  0  0  0  0  0  0  0  0  0
  146.3355  131.2091  150.0769 O   0  0  0  0  0  0  0  0  0  0  0  0
  144.1741  132.0630  150.9185 C   0  0  0  0  0  0  0  0  0  0  0  0
  144.2392  133.3323  150.0678 C   0  0  0  0  0  0  0  0  0  0  0  0
  145.6558  133.5518  150.5997 C   0  0  0  0  0  0  0  0  0  0  0  0
  149.2985  134.1246  155.1799 C   0  0  0  0  0  0  0  0  0  0  0  0
  148.8673  135.2711  155.0685 O   0  0  0  0  0  0  0  0  0  0  0  0
  150.1707  133.8159  156.2210 N   0  0  0  0  0  0  0  0  0  0  0  0
  150.7433  132.5701  156.4674 C   0  0  0  0  0  0  0  0  0  0  0  0
  151.5011  132.4629  157.4302 O   0  0  0  0  0  0  0  0  0  0  0  0
  150.4107  134.5644  156.8546 H   0  0  0  0  0  0  0  0  0  0  0  0
  152.9823  129.2019  155.8921 H   0  0  0  0  0  0  0  0  0  0  0  0
  153.0111  130.8479  156.4719 H   0  0  0  0  0  0  0  0  0  0  0  0
  152.9055  130.5101  154.7365 H   0  0  0  0  0  0  0  0  0  0  0  0
  150.7105  129.5269  153.7444 H   0  0  0  0  0  0  0  0  0  0  0  0
  149.5008  128.8724  154.8407 H   0  0  0  0  0  0  0  0  0  0  0  0
  151.1074  128.2135  154.8400 H   0  0  0  0  0  0  0  0  0  0  0  0
  151.2441  128.7537  157.4742 H   0  0  0  0  0  0  0  0  0  0  0  0
  149.6431  129.4298  157.4002 H   0  0  0  0  0  0  0  0  0  0  0  0
  150.9760  130.4070  158.0003 H   0  0  0  0  0  0  0  0  0  0  0  0
  149.2678  131.0256  153.8199 H   0  0  0  0  0  0  0  0  0  0  0  0
  147.1485  133.7275  153.4536 H   0  0  0  0  0  0  0  0  0  0  0  0
  148.5383  133.9583  152.4195 H   0  0  0  0  0  0  0  0  0  0  0  0
  148.2377  131.2399  152.8524 H   0  0  0  0  0  0  0  0  0  0  0  0
  146.1580  130.6567  152.5940 H   0  0  0  0  0  0  0  0  0  0  0  0
  145.8292  132.2699  153.1594 H   0  0  0  0  0  0  0  0  0  0  0  0
  147.2509  131.1691  150.3081 H   0  0  0  0  0  0  0  0  0  0  0  0
  143.7474  131.2016  150.4033 H   0  0  0  0  0  0  0  0  0  0  0  0
  143.6867  132.2295  151.8804 H   0  0  0  0  0  0  0  0  0  0  0  0
  144.2185  133.1247  148.9970 H   0  0  0  0  0  0  0  0  0  0  0  0
  143.5230  134.1059  150.3464 H   0  0  0  0  0  0  0  0  0  0  0  0
  145.6817  134.2306  151.4540 H   0  0  0  0  0  0  0  0  0  0  0  0
  146.3805  133.8434  149.8390 H   0  0  0  0  0  0  0  0  0  0  0  0
  1  2  1  0  0  0  0
  1 22  1  0  0  0  0
  1 23  1  0  0  0  0
  1 24  1  0  0  0  0
  2  3  1  0  0  0  0
  2  4  1  0  0  0  0
  2  5  1  0  0  0  0
  3 25  1  0  0  0  0
  3 26  1  0  0  0  0
  3 27  1  0  0  0  0
  4 28  1  0  0  0  0
  4 29  1  0  0  0  0
  4 30  1  0  0  0  0
  5 19  1  0  0  0  0
  5  6  1  0  0  0  0
  6  7  2  0  0  0  0
  6 31  1  0  0  0  0
  7  8  1  0  0  0  0
  7 16  1  0  0  0  0
  8  9  1  0  0  0  0
  8 32  1  0  0  0  0
  8 33  1  0  0  0  0
  9 10  1  0  0  0  0
  9 34  1  0  0  0  0
 10 11  1  0  0  0  0
 10 35  1  0  0  0  0
 10 36  1  0  0  0  0
 11 15  1  0  0  0  0
 11 12  1  0  0  0  0
 11 13  1  0  0  0  0
 12 37  1  0  0  0  0
 13 14  1  0  0  0  0
 13 38  1  0  0  0  0
 13 39  1  0  0  0  0
 14 15  1  0  0  0  0
 14 40  1  0  0  0  0
 14 41  1  0  0  0  0
 15 42  1  0  0  0  0
 15 43  1  0  0  0  0
 16 17  2  0  0  0  0
 16 18  1  0  0  0  0
 18 21  1  0  0  0  0
 18 19  1  0  0  0  0
 19 20  2  0  0  0  0
M  END
> <s_m_source_file>
AV-unprocessed.smi

> <i_m_source_file_index>
4

> <i_lp_mmshare_version>
43012

> <i_f3d_flags>
0

> <s_epik_input>
W0NIM11DKFtDSDNdKShbQ0gzXSluMVtjSF1jKGMoPU8pW25IXWMxPU8pW0NIMl1bTkhdW0NIMl1DMihbT0hdKVtDSDJdW0NIMl1bQ0gyXTI=

> <s_epik_cmdline>
J2VwaWtfcHl0aG9uJywgJy1waCcsICc3LjAnLCAnLXRuJywgJzgnLCAnLW1hJywgJzIwMCcsICctbWV0YWxfYmluZGluZycsICctaW1hZScsICc8aW5maWxlLm1hZT4nLCAnLW9tYWUnLCAnPG91dGZpbGUubWFlPic=

> <r_lp_tautomer_probability>
0.999537

> <r_epik_Ionization_Penalty>
2.11381

> <r_epik_Ionization_Penalty_Charging>
0.000786845

> <r_epik_Ionization_Penalty_Neutral>
2.11303

> <r_epik_State_Penalty>
2.25008

> <r_epik_Charging_Adjusted_Penalty>
2.25087

> <i_epik_Tot_Q>
0

> <i_epik_Tot_abs_Q>
0

> <r_epik_Metal_State_Penalty>
2.75188

> <b_epik_Metal_Only>
0

> <s_lp_Force_Field>
OPLS_2005

> <r_lp_Energy>
31.2144

> <b_lp_Chiralities_Consistent>
1

> <s_lp_Variant>
AV-unprocessed.smi:4-2

> <Gold.Version>
5.8.1

> <Gold.Id.Protein>
6NUR|6NUR_protein|mol2

> <Gold.PLP.Fitness>
41.3666

> <Gold.PLP.PLP>
-36.8206

> <Gold.PLP.part.hbond>
-2.8620

> <Gold.PLP.part.metal>
0.0000

> <Gold.PLP.part.buried>
-6.2272

> <Gold.PLP.part.nonpolar>
-28.5351

> <Gold.PLP.part.repulsive>
0.2362

> <Gold.PLP.ligand.clash>
0.0000

> <Gold.PLP.ligand.torsion>
0.7743

> <Gold.PLP.Chemscore.Hbond>
1.9913

> <Gold.PLP.Chemscore.CHOScore>
0.0000

> <Gold.PLP.Chemscore.Metal>
0.0000

> <Gold.Chemscore.Hbonds>
donor molecule, donor type, donor heavy atom, donor atom, acceptor molecule, acceptor atom, score
      L1  H    12    37       P1 10747  1.00
      P1  H  6896  6908       L1    20  1.00

> <Gold.PLP.Chemscore.Internal.Correction>
0.1209

> <Gold.Rescore>
     Score         DG    S(hbond)    S(metal)    S(lipo)     H(rot)  DE(clash)    DE(int)     intcor
     12.23     -14.54       1.93        0.00      76.31       2.46       0.01       2.30       ----

> <Gold.Chemscore.Fitness>
12.2285

> <Gold.Chemscore.DG>
-14.5438

> <Gold.Chemscore.ZeroCoef>
-5.4800

> <Gold.Chemscore.Hbond>
1.9269

> <Gold.Chemscore.Metal>
0.0000

> <Gold.Chemscore.Lipo>
76.3126

> <Gold.Chemscore.Internal_Hbond>
0.0000

> <Gold.Chemscore.DEClash>
0.0126

> <Gold.Chemscore.DEInternal>
2.3027

> <Gold.Chemscore.Rot>
2.4612

> <Gold.Chemscore.Internal.Correction>
   9.000000E+99

> <Gold.Chemscore.Hbonds>
donor molecule, donor type, donor heavy atom, donor atom, acceptor molecule, acceptor atom, score
      L1  H    12    37       P1 10747  1.00
      P1  H  6896  6908       L1    20  0.88

> <Gold.Chemscore.Hbond.Weighted>
-6.4358

> <Gold.Chemscore.Metal.Weighted>
-0.0000

> <Gold.Chemscore.Lipo.Weighted>
-8.9286

> <Gold.Chemscore.Internal_Hbond.Weighted>
0.0000

> <Gold.Chemscore.DEClash.Weighted>
0.0126

> <Gold.Chemscore.DEInternal.Weighted>
2.3027

> <Gold.Chemscore.Rot.Weighted>
6.3006

> <Gold.Chemscore.Internal.Correction.Weighted>
   9.000000E+99

> <Gold.Protein.RotatedTorsions>
[ 6907 6896 6895 6894 ] final   56.63 input  -60.11 | X-H torsion
[ 7974 7965 7964 7962 ] final   99.27 input  175.53 | X-H torsion
[ 8008 7997 7996 7995 ] final  -77.74 input   59.86 | X-H torsion
[ 10167 10162 10161 10158 ] final  -24.27 input  -65.29 | X-H torsion
[ 10718 10713 10712 10709 ] final -149.61 input   66.30 | X-H torsion
[ 10763 10752 10751 10750 ] final   93.11 input  -60.55 | X-H torsion
[ 11005 11000 10999 10996 ] final -108.79 input  -57.11 | X-H torsion

> <Gold.Protein.ActiveResidues>
 VAL166  LYS551  ARG553  GLY616  TRP617  ASP618  TYR619  PRO620  LYS621  CYS622 
 ASP623  PHE694  ASN695  SER759  ASP760  ASP761  ALA762  ILE779  LEU786  VAL792 
 PHE793  MET794  SER795  GLU796  ALA797  LYS798  CYS799  TRP800  GLU811  SER814 

> <Gold.Protein.RotatedAtoms>
  152.3654  134.6811  160.0193 H   0  0  0  0  0  0  0  0  0  0  0  0  # atno 6907 bound_to 6896
  151.7121  133.3307  159.3301 H   0  0  0  0  0  0  0  0  0  0  0  0  # atno 6908 bound_to 6896
  150.7635  134.6457  159.6306 H   0  0  0  0  0  0  0  0  0  0  0  0  # atno 6909 bound_to 6896
  145.4011  139.2347  143.3299 H   0  0  0  0  0  0  0  0  0  0  0  0  # atno 7974 bound_to 7965
  154.5624  140.0705  156.8840 H   0  0  0  0  0  0  0  0  0  0  0  0  # atno 8008 bound_to 7997
  155.2786  140.3370  155.4242 H   0  0  0  0  0  0  0  0  0  0  0  0  # atno 8009 bound_to 7997
  156.2053  140.1737  156.7798 H   0  0  0  0  0  0  0  0  0  0  0  0  # atno 8010 bound_to 7997
  140.7288  143.4368  151.0718 H   0  0  0  0  0  0  0  0  0  0  0  0  # atno 10167 bound_to 10162
  156.4353  130.8095  151.2324 H   0  0  0  0  0  0  0  0  0  0  0  0  # atno 10718 bound_to 10713
  153.2266  135.4337  155.0549 H   0  0  0  0  0  0  0  0  0  0  0  0  # atno 10763 bound_to 10752
  154.8276  135.3369  154.6848 H   0  0  0  0  0  0  0  0  0  0  0  0  # atno 10764 bound_to 10752
  153.7278  135.7013  153.5053 H   0  0  0  0  0  0  0  0  0  0  0  0  # atno 10765 bound_to 10752
  141.0883  133.9100  157.2135 H   0  0  0  0  0  0  0  0  0  0  0  0  # atno 11005 bound_to 11000
  146.2751  140.4709  142.8798 LP  0  0  0  0  0  0  0  0  0  0  0  0  # atno 17320 bound_to 7965
  144.8373  140.6802  143.6252 LP  0  0  0  0  0  0  0  0  0  0  0  0  # atno 17321 bound_to 7965
  139.8031  143.8056  152.3165 LP  0  0  0  0  0  0  0  0  0  0  0  0  # atno 17342 bound_to 10162
  139.8080  144.7347  150.9736 LP  0  0  0  0  0  0  0  0  0  0  0  0  # atno 17343 bound_to 10162
  157.7507  131.0185  150.3629 LP  0  0  0  0  0  0  0  0  0  0  0  0  # atno 17370 bound_to 10713
  156.3975  130.3909  149.6984 LP  0  0  0  0  0  0  0  0  0  0  0  0  # atno 17371 bound_to 10713
  139.9704  135.0130  156.9497 LP  0  0  0  0  0  0  0  0  0  0  0  0  # atno 17394 bound_to 11000
  140.5312  134.0811  155.7316 LP  0  0  0  0  0  0  0  0  0  0  0  0  # atno 17395 bound_to 11000

$$$$
