AV-unprocessed.smi:919|AV-procd|sdf|4165|dock7
  -GOLD-   22720 2 73D 1   1.00000     0.00000
 Structure written by MMmdl.
 43 45  0  0  0  0  0  0  0  0  1 V2000
  148.0905  138.3929  154.6644 C   0  0  0  0  0  0  0  0  0  0  0  0
  149.5309  138.8052  154.7661 C   0  0  0  0  0  0  0  0  0  0  0  0
  149.8304  140.0919  154.8251 N   0  0  0  0  0  0  0  0  0  0  0  0
  151.2236  140.1582  154.9237 O   0  0  0  0  0  0  0  0  0  0  0  0
  151.7138  138.8925  154.9219 C   0  0  0  0  0  0  0  0  0  0  0  0
  153.1936  138.7422  155.0297 C   0  0  0  0  0  0  0  0  0  0  0  0
  150.6954  137.9861  154.8209 C   0  0  0  0  0  0  0  0  0  0  0  0
  150.7868  136.4848  154.7876 C   0  0  0  0  0  0  0  0  0  0  0  0
  149.5103  135.8352  155.3439 C   0  0  0  0  0  0  0  0  0  0  0  0
  148.5938  135.4548  154.2765 N   0  0  0  0  0  0  0  0  0  0  0  0
  147.4265  134.8137  154.4549 C   0  0  0  0  0  0  0  0  0  0  0  0
  147.0060  134.4649  155.5566 O   0  0  0  0  0  0  0  0  0  0  0  0
  146.7351  134.5818  153.3253 N   0  0  0  0  0  0  0  0  0  0  0  0
  145.4399  133.9109  153.1852 C   0  0  1  0  0  0  0  0  0  0  0  0
  144.3121  134.7350  153.8454 C   0  0  0  0  0  0  0  0  0  0  0  0
  143.3273  134.9732  152.6857 C   0  0  1  0  0  0  0  0  0  0  0  0
  143.9351  135.9793  151.6895 C   0  0  0  0  0  0  0  0  0  0  0  0
  145.0243  135.1475  150.9867 C   0  0  0  0  0  0  0  0  0  0  0  0
  144.9397  133.7924  151.7213 C   0  0  2  0  0  0  0  0  0  0  0  0
  143.4329  133.6630  151.9176 C   0  0  0  0  0  0  0  0  0  0  0  0
  147.9923  137.3298  154.4460 H   0  0  0  0  0  0  0  0  0  0  0  0
  147.5793  138.9398  153.8717 H   0  0  0  0  0  0  0  0  0  0  0  0
  147.5624  138.5882  155.5979 H   0  0  0  0  0  0  0  0  0  0  0  0
  153.4518  138.0414  155.8239 H   0  0  0  0  0  0  0  0  0  0  0  0
  153.6723  139.6960  155.2529 H   0  0  0  0  0  0  0  0  0  0  0  0
  153.6111  138.3631  154.0971 H   0  0  0  0  0  0  0  0  0  0  0  0
  150.9611  136.1302  153.7714 H   0  0  0  0  0  0  0  0  0  0  0  0
  151.6481  136.1467  155.3651 H   0  0  0  0  0  0  0  0  0  0  0  0
  149.7580  134.9624  155.9508 H   0  0  0  0  0  0  0  0  0  0  0  0
  148.9932  136.5338  156.0025 H   0  0  0  0  0  0  0  0  0  0  0  0
  148.8584  135.7057  153.3352 H   0  0  0  0  0  0  0  0  0  0  0  0
  147.1514  134.9138  152.4673 H   0  0  0  0  0  0  0  0  0  0  0  0
  145.4809  132.9252  153.6525 H   0  0  0  0  0  0  0  0  0  0  0  0
  143.8371  134.1584  154.6403 H   0  0  0  0  0  0  0  0  0  0  0  0
  144.6587  135.6723  154.2834 H   0  0  0  0  0  0  0  0  0  0  0  0
  142.3214  135.2361  153.0143 H   0  0  0  0  0  0  0  0  0  0  0  0
  143.1886  136.3182  150.9701 H   0  0  0  0  0  0  0  0  0  0  0  0
  144.3422  136.8588  152.1899 H   0  0  0  0  0  0  0  0  0  0  0  0
  144.7806  135.0219  149.9309 H   0  0  0  0  0  0  0  0  0  0  0  0
  146.0087  135.6131  151.0366 H   0  0  0  0  0  0  0  0  0  0  0  0
  145.3954  132.9708  151.1681 H   0  0  0  0  0  0  0  0  0  0  0  0
  143.1459  132.7908  152.5076 H   0  0  0  0  0  0  0  0  0  0  0  0
  142.8707  133.6625  150.9820 H   0  0  0  0  0  0  0  0  0  0  0  0
  1  2  1  0  0  0  0
  1 21  1  0  0  0  0
  1 22  1  0  0  0  0
  1 23  1  0  0  0  0
  2  7  1  0  0  0  0
  2  3  2  0  0  0  0
  3  4  1  0  0  0  0
  4  5  1  0  0  0  0
  5  6  1  0  0  0  0
  5  7  2  0  0  0  0
  6 24  1  0  0  0  0
  6 25  1  0  0  0  0
  6 26  1  0  0  0  0
  7  8  1  0  0  0  0
  8  9  1  0  0  0  0
  8 27  1  0  0  0  0
  8 28  1  0  0  0  0
  9 10  1  0  0  0  0
  9 29  1  0  0  0  0
  9 30  1  0  0  0  0
 10 11  1  0  0  0  0
 10 31  1  0  0  0  0
 11 12  2  0  0  0  0
 11 13  1  0  0  0  0
 13 14  1  0  0  0  0
 13 32  1  0  0  0  0
 14 19  1  0  0  0  0
 14 15  1  0  0  0  0
 14 33  1  0  0  0  0
 15 16  1  0  0  0  0
 15 34  1  0  0  0  0
 15 35  1  0  0  0  0
 16 20  1  0  0  0  0
 16 17  1  0  0  0  0
 16 36  1  0  0  0  0
 17 18  1  0  0  0  0
 17 37  1  0  0  0  0
 17 38  1  0  0  0  0
 18 19  1  0  0  0  0
 18 39  1  0  0  0  0
 18 40  1  0  0  0  0
 19 20  1  0  0  0  0
 19 41  1  0  0  0  0
 20 42  1  0  0  0  0
 20 43  1  0  0  0  0
M  END
> <s_m_source_file>
AV-unprocessed.smi

> <i_m_source_file_index>
919

> <i_lp_mmshare_version>
43012

> <i_f3d_flags>
0

> <s_epik_input>
W0NIM11jMW5vYyhbQ0gzXSljMVtDSDJdW0NIMl1bTkhdQyg9TylbTkhdW0NASF0oW0NIMl1bQ0BASF0yMylbQ0BASF0oW0NIMl0zKVtDSDJdW0NIMl0y

> <s_epik_cmdline>
J2VwaWtfcHl0aG9uJywgJy1waCcsICc3LjAnLCAnLXRuJywgJzgnLCAnLW1hJywgJzIwMCcsICctbWV0YWxfYmluZGluZycsICctaW1hZScsICc8aW5maWxlLm1hZT4nLCAnLW9tYWUnLCAnPG91dGZpbGUubWFlPic=

> <r_lp_tautomer_probability>
1

> <r_epik_Ionization_Penalty>
6.40771e-05

> <r_epik_Ionization_Penalty_Charging>
0

> <r_epik_Ionization_Penalty_Neutral>
6.40771e-05

> <r_epik_State_Penalty>
-0

> <r_epik_Charging_Adjusted_Penalty>
0

> <i_epik_Tot_Q>
0

> <i_epik_Tot_abs_Q>
0

> <r_epik_Metal_State_Penalty>
-0

> <b_epik_Metal_Only>
0

> <s_lp_Force_Field>
OPLS_2005

> <r_lp_Energy>
47.6346

> <b_lp_Chiralities_Consistent>
1

> <s_lp_Variant>
AV-unprocessed.smi:919-2

> <Gold.Version>
5.8.1

> <Gold.Id.Protein>
6NUR|6NUR_protein|mol2

> <Gold.PLP.Fitness>
35.6415

> <Gold.PLP.PLP>
-30.1797

> <Gold.PLP.part.hbond>
-3.1742

> <Gold.PLP.part.metal>
0.0000

> <Gold.PLP.part.buried>
-2.9931

> <Gold.PLP.part.nonpolar>
-24.7233

> <Gold.PLP.part.repulsive>
0.1768

> <Gold.PLP.ligand.clash>
0.0000

> <Gold.PLP.ligand.torsion>
0.6469

> <Gold.PLP.Chemscore.Hbond>
2.2458

> <Gold.PLP.Chemscore.CHOScore>
0.0000

> <Gold.PLP.Chemscore.Metal>
0.0000

> <Gold.Chemscore.Hbonds>
donor molecule, donor type, donor heavy atom, donor atom, acceptor molecule, acceptor atom, score
      L1  H    10    31       P1  7948  1.00
      L1  H    13    32       P1  7948  0.29
      P1  H  7989  7998       L1     4  1.00

> <Gold.PLP.Chemscore.Internal.Correction>
0.0181

> <Gold.Rescore>
     Score         DG    S(hbond)    S(metal)    S(lipo)     H(rot)  DE(clash)    DE(int)     intcor
     14.77     -16.62       1.94        0.00      73.06       1.52       0.12       1.72       ----

> <Gold.Chemscore.Fitness>
14.7732

> <Gold.Chemscore.DG>
-16.6161

> <Gold.Chemscore.ZeroCoef>
-5.4800

> <Gold.Chemscore.Hbond>
1.9371

> <Gold.Chemscore.Metal>
0.0000

> <Gold.Chemscore.Lipo>
73.0559

> <Gold.Chemscore.Internal_Hbond>
0.0000

> <Gold.Chemscore.DEClash>
0.1198

> <Gold.Chemscore.DEInternal>
1.7232

> <Gold.Chemscore.Rot>
1.5161

> <Gold.Chemscore.Internal.Correction>
   9.000000E+99

> <Gold.Chemscore.Hbonds>
donor molecule, donor type, donor heavy atom, donor atom, acceptor molecule, acceptor atom, score
      L1  H    10    31       P1  7948  0.88
      L1  H    13    32       P1  7948  0.28
      P1  H  7989  7998       L1     4  0.22

> <Gold.Chemscore.Hbond.Weighted>
-6.4699

> <Gold.Chemscore.Metal.Weighted>
-0.0000

> <Gold.Chemscore.Lipo.Weighted>
-8.5475

> <Gold.Chemscore.Internal_Hbond.Weighted>
0.0000

> <Gold.Chemscore.DEClash.Weighted>
0.1198

> <Gold.Chemscore.DEInternal.Weighted>
1.7232

> <Gold.Chemscore.Rot.Weighted>
3.8813

> <Gold.Chemscore.Internal.Correction.Weighted>
   9.000000E+99

> <Gold.Protein.RotatedTorsions>
[ 6907 6896 6895 6894 ] final -167.25 input  -60.11 | X-H torsion
[ 7974 7965 7964 7962 ] final   40.39 input  175.53 | X-H torsion
[ 8008 7997 7996 7995 ] final  -98.65 input   59.86 | X-H torsion
[ 10167 10162 10161 10158 ] final   -5.20 input  -65.29 | X-H torsion
[ 10718 10713 10712 10709 ] final -167.25 input   66.30 | X-H torsion
[ 10763 10752 10751 10750 ] final  -32.11 input  -60.55 | X-H torsion
[ 11005 11000 10999 10996 ] final  -33.32 input  -57.11 | X-H torsion

> <Gold.Protein.ActiveResidues>
 VAL166  LYS551  ARG553  GLY616  TRP617  ASP618  TYR619  PRO620  LYS621  CYS622 
 ASP623  PHE694  ASN695  SER759  ASP760  ASP761  ALA762  ILE779  LEU786  VAL792 
 PHE793  MET794  SER795  GLU796  ALA797  LYS798  CYS799  TRP800  GLU811  SER814 

> <Gold.Protein.RotatedAtoms>
  151.4566  133.3603  159.2802 H   0  0  0  0  0  0  0  0  0  0  0  0  # atno 6907 bound_to 6896
  150.9054  134.8471  159.7400 H   0  0  0  0  0  0  0  0  0  0  0  0  # atno 6908 bound_to 6896
  152.4903  134.4490  159.9620 H   0  0  0  0  0  0  0  0  0  0  0  0  # atno 6909 bound_to 6896
  146.0908  139.5538  142.9477 H   0  0  0  0  0  0  0  0  0  0  0  0  # atno 7974 bound_to 7965
  154.8041  140.0453  157.1294 H   0  0  0  0  0  0  0  0  0  0  0  0  # atno 8008 bound_to 7997
  154.9444  140.3057  155.5085 H   0  0  0  0  0  0  0  0  0  0  0  0  # atno 8009 bound_to 7997
  156.2965  140.2299  156.4516 H   0  0  0  0  0  0  0  0  0  0  0  0  # atno 8010 bound_to 7997
  140.6954  143.6336  150.8500 H   0  0  0  0  0  0  0  0  0  0  0  0  # atno 10167 bound_to 10162
  156.6797  130.9117  151.3055 H   0  0  0  0  0  0  0  0  0  0  0  0  # atno 10718 bound_to 10713
  153.8083  135.6884  153.4845 H   0  0  0  0  0  0  0  0  0  0  0  0  # atno 10763 bound_to 10752
  153.1644  135.4567  154.9815 H   0  0  0  0  0  0  0  0  0  0  0  0  # atno 10764 bound_to 10752
  154.7978  135.3326  154.7566 H   0  0  0  0  0  0  0  0  0  0  0  0  # atno 10765 bound_to 10752
  140.9625  133.7156  156.1393 H   0  0  0  0  0  0  0  0  0  0  0  0  # atno 11005 bound_to 11000
  145.6042  141.0350  143.2002 LP  0  0  0  0  0  0  0  0  0  0  0  0  # atno 17320 bound_to 7965
  144.7359  139.7588  143.7329 LP  0  0  0  0  0  0  0  0  0  0  0  0  # atno 17321 bound_to 7965
  140.0053  143.5700  152.2860 LP  0  0  0  0  0  0  0  0  0  0  0  0  # atno 17342 bound_to 10162
  139.6404  144.7654  151.2350 LP  0  0  0  0  0  0  0  0  0  0  0  0  # atno 17343 bound_to 10162
  157.7048  130.9373  150.0896 LP  0  0  0  0  0  0  0  0  0  0  0  0  # atno 17370 bound_to 10713
  156.1877  130.3653  149.8951 LP  0  0  0  0  0  0  0  0  0  0  0  0  # atno 17371 bound_to 10713
  140.7446  134.4112  157.5550 LP  0  0  0  0  0  0  0  0  0  0  0  0  # atno 17394 bound_to 11000
  139.8883  134.8860  156.2481 LP  0  0  0  0  0  0  0  0  0  0  0  0  # atno 17395 bound_to 11000

$$$$
