AV-unprocessed.smi:243|AV-procd|sdf|1851|dock7
  -GOLD-   2262020473D 1   1.00000     0.00000
 Structure written by MMmdl.
 58 61  0  0  0  0  0  0  0  0  2 V2000
  152.7979  143.4990  160.0109 C   0  0  0  0  0  0  0  0  0  0  0  0
  151.8637  143.6644  158.8034 C   0  0  0  0  0  0  0  0  0  0  0  0
  151.8612  142.4737  157.9163 N   0  3  1  0  0  0  0  0  0  0  0  0
  151.8799  141.2046  158.6815 C   0  0  0  0  0  0  0  0  0  0  0  0
  152.0726  140.0193  157.7312 C   0  0  0  0  0  0  0  0  0  0  0  0
  150.9464  139.9487  156.6763 C   0  0  2  0  0  0  0  0  0  0  0  0
  151.0602  138.7680  155.8013 N   0  0  0  0  0  0  0  0  0  0  0  0
  152.1729  138.6813  154.8621 C   0  0  0  0  0  0  0  0  0  0  0  0
  150.5055  137.5848  156.1710 C   0  0  0  0  0  0  0  0  0  0  0  0
  150.5072  136.5706  155.2692 N   0  0  0  0  0  0  0  0  0  0  0  0
  149.9869  135.3815  155.5841 C   0  0  0  0  0  0  0  0  0  0  0  0
  149.4255  134.9954  156.7302 N   0  0  0  0  0  0  0  0  0  0  0  0
  149.4345  136.0026  157.6491 C   0  0  0  0  0  0  0  0  0  0  0  0
  149.9606  137.3130  157.4603 C   0  0  0  0  0  0  0  0  0  0  0  0
  149.8058  138.0500  158.6286 N   0  0  0  0  0  0  0  0  0  0  0  0
  149.2178  137.2291  159.4542 C   0  0  0  0  0  0  0  0  0  0  0  0
  148.9427  135.9819  158.9425 N   0  0  0  0  0  0  0  0  0  0  0  0
  148.2916  134.8810  159.6345 C   0  0  0  0  0  0  0  0  0  0  0  0
  147.0084  135.2925  160.4009 C   0  0  1  0  0  0  0  0  0  0  0  0
  146.0375  135.7751  159.4914 O   0  0  0  0  0  0  0  0  0  0  0  0
  146.4253  134.1389  161.2002 C   0  0  0  0  0  0  0  0  0  0  0  0
  147.2089  134.1990  162.5105 C   0  0  0  0  0  0  0  0  0  0  0  0
  147.6305  135.5523  162.6589 O   0  0  0  0  0  0  0  0  0  0  0  0
  147.2424  136.3138  161.5206 C   0  0  0  0  0  0  0  0  0  0  0  0
  150.8505  141.3065  155.9223 C   0  0  1  0  0  0  0  0  0  0  0  0
  149.6505  141.3973  154.9632 C   0  0  0  0  0  0  0  0  0  0  0  0
  150.7548  142.4800  156.9253 C   0  0  0  0  0  0  0  0  0  0  0  0
  152.6930  144.3425  160.6935 H   0  0  0  0  0  0  0  0  0  0  0  0
  153.8461  143.4532  159.7171 H   0  0  0  0  0  0  0  0  0  0  0  0
  152.5635  142.5925  160.5698 H   0  0  0  0  0  0  0  0  0  0  0  0
  150.8555  143.8272  159.1868 H   0  0  0  0  0  0  0  0  0  0  0  0
  152.1247  144.5570  158.2328 H   0  0  0  0  0  0  0  0  0  0  0  0
  152.6983  141.2175  159.4027 H   0  0  0  0  0  0  0  0  0  0  0  0
  150.9546  141.0961  159.2498 H   0  0  0  0  0  0  0  0  0  0  0  0
  153.0458  140.1378  157.2565 H   0  0  0  0  0  0  0  0  0  0  0  0
  152.1090  139.0908  158.3021 H   0  0  0  0  0  0  0  0  0  0  0  0
  150.0137  139.8235  157.2282 H   0  0  0  0  0  0  0  0  0  0  0  0
  152.0027  137.8887  154.1319 H   0  0  0  0  0  0  0  0  0  0  0  0
  153.1186  138.4824  155.3627 H   0  0  0  0  0  0  0  0  0  0  0  0
  152.2742  139.6170  154.3117 H   0  0  0  0  0  0  0  0  0  0  0  0
  150.0265  134.6320  154.8074 H   0  0  0  0  0  0  0  0  0  0  0  0
  148.9595  137.5149  160.4636 H   0  0  0  0  0  0  0  0  0  0  0  0
  148.0581  134.1092  158.9000 H   0  0  0  0  0  0  0  0  0  0  0  0
  149.0174  134.4382  160.3176 H   0  0  0  0  0  0  0  0  0  0  0  0
  145.4004  135.0933  159.3421 H   0  0  0  0  0  0  0  0  0  0  0  0
  145.3692  134.3167  161.4108 H   0  0  0  0  0  0  0  0  0  0  0  0
  146.5043  133.1743  160.6976 H   0  0  0  0  0  0  0  0  0  0  0  0
  146.6091  133.8769  163.3619 H   0  0  0  0  0  0  0  0  0  0  0  0
  148.0930  133.5625  162.4613 H   0  0  0  0  0  0  0  0  0  0  0  0
  147.9727  137.0845  161.2790 H   0  0  0  0  0  0  0  0  0  0  0  0
  146.3096  136.8213  161.7727 H   0  0  0  0  0  0  0  0  0  0  0  0
  151.7609  141.4426  155.3361 H   0  0  0  0  0  0  0  0  0  0  0  0
  148.7150  141.1685  155.4747 H   0  0  0  0  0  0  0  0  0  0  0  0
  149.7480  140.7180  154.1214 H   0  0  0  0  0  0  0  0  0  0  0  0
  149.5601  142.3987  154.5414 H   0  0  0  0  0  0  0  0  0  0  0  0
  149.8012  142.4438  157.4551 H   0  0  0  0  0  0  0  0  0  0  0  0
  150.7658  143.4171  156.3698 H   0  0  0  0  0  0  0  0  0  0  0  0
  152.7266  142.5026  157.3960 H   0  0  0  0  0  0  0  0  0  0  0  0
  1  2  1  0  0  0  0
  1 28  1  0  0  0  0
  1 29  1  0  0  0  0
  1 30  1  0  0  0  0
  2  3  1  0  0  0  0
  2 31  1  0  0  0  0
  2 32  1  0  0  0  0
  3 27  1  0  0  0  0
  3  4  1  0  0  0  0
  3 58  1  0  0  0  0
  4  5  1  0  0  0  0
  4 33  1  0  0  0  0
  4 34  1  0  0  0  0
  5  6  1  0  0  0  0
  5 35  1  0  0  0  0
  5 36  1  0  0  0  0
  6  7  1  0  0  0  0
  6 25  1  0  0  0  0
  6 37  1  0  0  0  0
  7  8  1  0  0  0  0
  7  9  1  0  0  0  0
  8 38  1  0  0  0  0
  8 39  1  0  0  0  0
  8 40  1  0  0  0  0
  9 14  1  0  0  0  0
  9 10  2  0  0  0  0
 10 11  1  0  0  0  0
 11 12  2  0  0  0  0
 11 41  1  0  0  0  0
 12 13  1  0  0  0  0
 13 17  1  0  0  0  0
 13 14  2  0  0  0  0
 14 15  1  0  0  0  0
 15 16  2  0  0  0  0
 16 17  1  0  0  0  0
 16 42  1  0  0  0  0
 17 18  1  0  0  0  0
 18 19  1  0  0  0  0
 18 43  1  0  0  0  0
 18 44  1  0  0  0  0
 19 24  1  0  0  0  0
 19 20  1  0  0  0  0
 19 21  1  0  0  0  0
 20 45  1  0  0  0  0
 21 22  1  0  0  0  0
 21 46  1  0  0  0  0
 21 47  1  0  0  0  0
 22 23  1  0  0  0  0
 22 48  1  0  0  0  0
 22 49  1  0  0  0  0
 23 24  1  0  0  0  0
 24 50  1  0  0  0  0
 24 51  1  0  0  0  0
 25 26  1  0  0  0  0
 25 27  1  0  0  0  0
 25 52  1  0  0  0  0
 26 53  1  0  0  0  0
 26 54  1  0  0  0  0
 26 55  1  0  0  0  0
 27 56  1  0  0  0  0
 27 57  1  0  0  0  0
M  CHG  1   3   1
M  END
> <s_m_source_file>
AV-unprocessed.smi

> <i_m_source_file_index>
243

> <i_lp_mmshare_version>
43012

> <i_f3d_flags>
0

> <s_epik_input>
W0NIM11bQ0gyXU4xW0NIMl1bQ0gyXVtDQEhdKFtDQEBIXShbQ0gzXSlbQ0gyXTEpTihbQ0gzXSljKG5bY0hdbjIpYyhjMjMpbltjSF1uM1tDSDJdW0NAQF00KFtPSF0pW0NIMl1bQ0gyXU9bQ0gyXTQ=

> <s_epik_cmdline>
J2VwaWtfcHl0aG9uJywgJy1waCcsICc3LjAnLCAnLXRuJywgJzgnLCAnLW1hJywgJzIwMCcsICctbWV0YWxfYmluZGluZycsICctaW1hZScsICc8aW5maWxlLm1hZT4nLCAnLW9tYWUnLCAnPG91dGZpbGUubWFlPic=

> <r_lp_tautomer_probability>
1

> <r_epik_Ionization_Penalty>
0.00253099

> <r_epik_Ionization_Penalty_Charging>
0.00137877

> <r_epik_Ionization_Penalty_Neutral>
0.00115221

> <r_epik_State_Penalty>
-0

> <r_epik_Charging_Adjusted_Penalty>
0.00137877

> <i_epik_Tot_Q>
1

> <i_epik_Tot_abs_Q>
1

> <r_epik_Metal_State_Penalty>
-0

> <b_epik_Metal_Only>
0

> <s_lp_Force_Field>
OPLS_2005

> <r_lp_Energy>
48.9209

> <b_lp_Chiralities_Consistent>
1

> <s_lp_Variant>
AV-unprocessed.smi:243-4

> <Gold.Version>
5.8.1

> <Gold.Id.Protein>
6NUR|6NUR_protein|mol2

> <Gold.PLP.Fitness>
40.8431

> <Gold.PLP.PLP>
-41.9379

> <Gold.PLP.part.hbond>
0.0000

> <Gold.PLP.part.metal>
0.0000

> <Gold.PLP.part.buried>
-4.0506

> <Gold.PLP.part.nonpolar>
-37.9476

> <Gold.PLP.part.repulsive>
0.1780

> <Gold.PLP.ligand.clash>
0.0000

> <Gold.PLP.ligand.torsion>
0.9338

> <Gold.PLP.Chemscore.Hbond>
0.0000

> <Gold.PLP.Chemscore.CHOScore>
0.0000

> <Gold.PLP.Chemscore.Metal>
0.0000

> <Gold.PLP.Chemscore.Internal.Correction>
0.7728

> <Gold.Rescore>
     Score         DG    S(hbond)    S(metal)    S(lipo)     H(rot)  DE(clash)    DE(int)     intcor
     10.36     -12.30       0.00        0.00     107.26       2.24       0.00       1.94       ----

> <Gold.Chemscore.Fitness>
10.3604

> <Gold.Chemscore.DG>
-12.3000

> <Gold.Chemscore.ZeroCoef>
-5.4800

> <Gold.Chemscore.Hbond>
0.0000

> <Gold.Chemscore.Metal>
0.0000

> <Gold.Chemscore.Lipo>
107.2575

> <Gold.Chemscore.Internal_Hbond>
0.0000

> <Gold.Chemscore.DEClash>
0.0009

> <Gold.Chemscore.DEInternal>
1.9387

> <Gold.Chemscore.Rot>
2.2379

> <Gold.Chemscore.Internal.Correction>
   9.000000E+99

> <Gold.Chemscore.Hbond.Weighted>
-0.0000

> <Gold.Chemscore.Metal.Weighted>
-0.0000

> <Gold.Chemscore.Lipo.Weighted>
-12.5491

> <Gold.Chemscore.Internal_Hbond.Weighted>
0.0000

> <Gold.Chemscore.DEClash.Weighted>
0.0009

> <Gold.Chemscore.DEInternal.Weighted>
1.9387

> <Gold.Chemscore.Rot.Weighted>
5.7291

> <Gold.Chemscore.Internal.Correction.Weighted>
   9.000000E+99

> <Gold.Protein.RotatedTorsions>
[ 6907 6896 6895 6894 ] final  120.70 input  -60.11 | X-H torsion
[ 7974 7965 7964 7962 ] final -106.89 input  175.53 | X-H torsion
[ 8008 7997 7996 7995 ] final   68.70 input   59.86 | X-H torsion
[ 10167 10162 10161 10158 ] final  -64.90 input  -65.29 | X-H torsion
[ 10718 10713 10712 10709 ] final  -82.54 input   66.30 | X-H torsion
[ 10763 10752 10751 10750 ] final  162.49 input  -60.55 | X-H torsion
[ 11005 11000 10999 10996 ] final   65.15 input  -57.11 | X-H torsion

> <Gold.Protein.ActiveResidues>
 VAL166  LYS551  ARG553  GLY616  TRP617  ASP618  TYR619  PRO620  LYS621  CYS622 
 ASP623  PHE694  ASN695  SER759  ASP760  ASP761  ALA762  ILE779  LEU786  VAL792 
 PHE793  MET794  SER795  GLU796  ALA797  LYS798  CYS799  TRP800  GLU811  SER814 

> <Gold.Protein.RotatedAtoms>
  152.4378  133.7393  159.6631 H   0  0  0  0  0  0  0  0  0  0  0  0  # atno 6907 bound_to 6896
  150.8264  133.8153  159.3123 H   0  0  0  0  0  0  0  0  0  0  0  0  # atno 6908 bound_to 6896
  151.5820  135.1060  160.0071 H   0  0  0  0  0  0  0  0  0  0  0  0  # atno 6909 bound_to 6896
  145.2122  140.9101  143.3308 H   0  0  0  0  0  0  0  0  0  0  0  0  # atno 7974 bound_to 7965
  155.7123  140.3494  155.4979 H   0  0  0  0  0  0  0  0  0  0  0  0  # atno 8008 bound_to 7997
  155.9345  140.1090  157.1128 H   0  0  0  0  0  0  0  0  0  0  0  0  # atno 8009 bound_to 7997
  154.4091  140.1225  156.4832 H   0  0  0  0  0  0  0  0  0  0  0  0  # atno 8010 bound_to 7997
  140.5768  143.2323  151.6425 H   0  0  0  0  0  0  0  0  0  0  0  0  # atno 10167 bound_to 10162
  156.0031  130.4637  150.4120 H   0  0  0  0  0  0  0  0  0  0  0  0  # atno 10718 bound_to 10713
  154.2792  135.2763  155.2704 H   0  0  0  0  0  0  0  0  0  0  0  0  # atno 10763 bound_to 10752
  154.5233  135.5750  153.6702 H   0  0  0  0  0  0  0  0  0  0  0  0  # atno 10764 bound_to 10752
  152.9932  135.6210  154.2951 H   0  0  0  0  0  0  0  0  0  0  0  0  # atno 10765 bound_to 10752
  139.9913  134.6588  156.0087 H   0  0  0  0  0  0  0  0  0  0  0  0  # atno 11005 bound_to 11000
  144.9845  139.3750  143.6245 LP  0  0  0  0  0  0  0  0  0  0  0  0  # atno 17320 bound_to 7965
  146.3395  139.9001  142.8796 LP  0  0  0  0  0  0  0  0  0  0  0  0  # atno 17321 bound_to 7965
  139.5147  144.3401  152.0748 LP  0  0  0  0  0  0  0  0  0  0  0  0  # atno 17342 bound_to 10162
  140.2546  144.4133  150.6209 LP  0  0  0  0  0  0  0  0  0  0  0  0  # atno 17343 bound_to 10162
  157.2182  131.0476  151.2561 LP  0  0  0  0  0  0  0  0  0  0  0  0  # atno 17370 bound_to 10713
  157.3825  130.7239  149.6640 LP  0  0  0  0  0  0  0  0  0  0  0  0  # atno 17371 bound_to 10713
  141.1568  133.6542  156.4186 LP  0  0  0  0  0  0  0  0  0  0  0  0  # atno 17394 bound_to 11000
  140.4904  134.6581  157.5208 LP  0  0  0  0  0  0  0  0  0  0  0  0  # atno 17395 bound_to 11000

$$$$
