AV-unprocessed.smi:2991|AV-procd|sdf|11399|dock4
  -GOLD-   2272016323D 1   1.00000     0.00000
 Structure written by MMmdl.
 38 39  0  0  0  0  0  0  0  0  2 V2000
  147.4032  130.1360  153.1897 C   0  0  0  0  0  0  0  0  0  0  0  0
  148.3874  131.0434  153.9027 C   0  0  0  0  0  0  0  0  0  0  0  0
  149.2542  130.4736  154.7686 N   0  3  0  0  0  0  0  0  0  0  0  0
  150.1694  131.1796  155.4645 C   0  0  0  0  0  0  0  0  0  0  0  0
  150.2544  132.5755  155.2984 C   0  0  0  0  0  0  0  0  0  0  0  0
  149.3805  133.2238  154.3890 C   0  0  0  0  0  0  0  0  0  0  0  0
  149.3890  134.6308  154.1766 N   0  0  0  0  0  0  0  0  0  0  0  0
  149.8617  135.5947  154.9846 C   0  0  0  0  0  0  0  0  0  0  0  0
  150.3829  135.4071  156.0839 O   0  0  0  0  0  0  0  0  0  0  0  0
  149.7113  136.8068  154.4319 N   0  0  0  0  0  0  0  0  0  0  0  0
  150.1528  138.0734  155.0158 C   0  0  2  0  0  0  0  0  0  0  0  0
  149.3109  139.2534  154.4654 C   0  0  0  0  0  0  0  0  0  0  0  0
  149.9839  140.6416  154.5016 C   0  0  0  0  0  0  0  0  0  0  0  0
  150.5334  141.0780  155.8749 C   0  0  0  0  0  0  0  0  0  0  0  0
  151.5354  140.1181  156.5605 C   0  0  0  0  0  0  0  0  0  0  0  0
  152.2460  139.2288  155.6424 N   0  0  0  0  0  0  0  0  0  0  0  0
  151.6805  138.2491  154.9163 C   0  0  0  0  0  0  0  0  0  0  0  0
  152.3506  137.5270  154.1791 O   0  0  0  0  0  0  0  0  0  0  0  0
  148.4244  132.4425  153.6936 C   0  0  0  0  0  0  0  0  0  0  0  0
  147.3148  133.1853  152.5906 Cl  0  0  0  0  0  0  0  0  0  0  0  0
  146.3788  130.4295  153.4218 H   0  0  0  0  0  0  0  0  0  0  0  0
  147.5330  129.0946  153.4872 H   0  0  0  0  0  0  0  0  0  0  0  0
  147.5433  130.1993  152.1103 H   0  0  0  0  0  0  0  0  0  0  0  0
  150.7984  130.6109  156.1339 H   0  0  0  0  0  0  0  0  0  0  0  0
  150.9794  133.1238  155.8804 H   0  0  0  0  0  0  0  0  0  0  0  0
  149.0729  134.9322  153.2661 H   0  0  0  0  0  0  0  0  0  0  0  0
  149.2798  136.8652  153.5207 H   0  0  0  0  0  0  0  0  0  0  0  0
  149.9469  137.9978  156.0844 H   0  0  0  0  0  0  0  0  0  0  0  0
  149.0389  139.0503  153.4286 H   0  0  0  0  0  0  0  0  0  0  0  0
  148.3680  139.2983  155.0118 H   0  0  0  0  0  0  0  0  0  0  0  0
  150.7885  140.6734  153.7658 H   0  0  0  0  0  0  0  0  0  0  0  0
  149.2634  141.3862  154.1619 H   0  0  0  0  0  0  0  0  0  0  0  0
  151.0221  142.0435  155.7399 H   0  0  0  0  0  0  0  0  0  0  0  0
  149.7032  141.2662  156.5566 H   0  0  0  0  0  0  0  0  0  0  0  0
  152.2730  140.6987  157.1151 H   0  0  0  0  0  0  0  0  0  0  0  0
  151.0221  139.5169  157.3118 H   0  0  0  0  0  0  0  0  0  0  0  0
  153.2451  139.3548  155.5664 H   0  0  0  0  0  0  0  0  0  0  0  0
  149.2116  129.4635  154.9062 H   0  0  0  0  0  0  0  0  0  0  0  0
  1  2  1  0  0  0  0
  1 21  1  0  0  0  0
  1 22  1  0  0  0  0
  1 23  1  0  0  0  0
  2 19  1  0  0  0  0
  2  3  2  0  0  0  0
  3  4  1  0  0  0  0
  3 38  1  0  0  0  0
  4  5  2  0  0  0  0
  4 24  1  0  0  0  0
  5  6  1  0  0  0  0
  5 25  1  0  0  0  0
  6  7  1  0  0  0  0
  6 19  2  0  0  0  0
  7  8  1  0  0  0  0
  7 26  1  0  0  0  0
  8  9  2  0  0  0  0
  8 10  1  0  0  0  0
 10 11  1  0  0  0  0
 10 27  1  0  0  0  0
 11 17  1  0  0  0  0
 11 12  1  0  0  0  0
 11 28  1  0  0  0  0
 12 13  1  0  0  0  0
 12 29  1  0  0  0  0
 12 30  1  0  0  0  0
 13 14  1  0  0  0  0
 13 31  1  0  0  0  0
 13 32  1  0  0  0  0
 14 15  1  0  0  0  0
 14 33  1  0  0  0  0
 14 34  1  0  0  0  0
 15 16  1  0  0  0  0
 15 35  1  0  0  0  0
 15 36  1  0  0  0  0
 16 17  1  0  0  0  0
 16 37  1  0  0  0  0
 17 18  2  0  0  0  0
 19 20  1  0  0  0  0
M  CHG  1   3   1
M  END
> <s_m_source_file>
AV-unprocessed.smi

> <i_m_source_file_index>
2991

> <i_lp_mmshare_version>
43012

> <i_f3d_flags>
0

> <s_epik_input>
W0NIM11jMW5bY0hdW2NIXWMoYzFDbClbTkhdQyg9TylbTkhdW0NAQEhdMltDSDJdW0NIMl1bQ0gyXVtDSDJdW05IXUMyPU8=

> <s_epik_cmdline>
J2VwaWtfcHl0aG9uJywgJy1waCcsICc3LjAnLCAnLXRuJywgJzgnLCAnLW1hJywgJzIwMCcsICctbWV0YWxfYmluZGluZycsICctaW1hZScsICc8aW5maWxlLm1hZT4nLCAnLW9tYWUnLCAnPG91dGZpbGUubWFlPic=

> <r_epik_Ionization_Penalty>
2.55031

> <r_epik_Ionization_Penalty_Charging>
2.55029

> <r_epik_Ionization_Penalty_Neutral>
1.86001e-05

> <r_epik_State_Penalty>
2.71882

> <r_epik_Charging_Adjusted_Penalty>
5.26911

> <i_epik_Tot_Q>
1

> <i_epik_Tot_abs_Q>
1

> <r_epik_Metal_State_Penalty>
2.7268

> <b_epik_Metal_Only>
0

> <s_lp_Force_Field>
OPLS_2005

> <r_lp_Energy>
25.1386

> <b_lp_Chiralities_Consistent>
1

> <s_lp_Variant>
AV-unprocessed.smi:2991-3

> <Gold.Version>
5.8.1

> <Gold.Id.Protein>
6NUR|6NUR_protein|mol2

> <Gold.PLP.Fitness>
41.5021

> <Gold.PLP.PLP>
-34.3629

> <Gold.PLP.part.hbond>
-3.0000

> <Gold.PLP.part.metal>
0.0000

> <Gold.PLP.part.buried>
-1.8826

> <Gold.PLP.part.nonpolar>
-29.9822

> <Gold.PLP.part.repulsive>
0.4339

> <Gold.PLP.ligand.clash>
0.0000

> <Gold.PLP.ligand.torsion>
0.3716

> <Gold.PLP.Chemscore.Hbond>
2.6100

> <Gold.PLP.Chemscore.CHOScore>
0.0000

> <Gold.PLP.Chemscore.Metal>
0.0000

> <Gold.Chemscore.Hbonds>
donor molecule, donor type, donor heavy atom, donor atom, acceptor molecule, acceptor atom, score
      L1  H     7    26       P1  7948  0.85
      L1  H    10    27       P1  7948  1.00
      P1  H 10752 10765       L1    18  0.75

> <Gold.PLP.Chemscore.Internal.Correction>
0.0525

> <Gold.Rescore>
     Score         DG    S(hbond)    S(metal)    S(lipo)     H(rot)  DE(clash)    DE(int)     intcor
     16.81     -18.29       2.31        0.00      65.45       1.00       0.03       1.45       ----

> <Gold.Chemscore.Fitness>
16.8146

> <Gold.Chemscore.DG>
-18.2936

> <Gold.Chemscore.ZeroCoef>
-5.4800

> <Gold.Chemscore.Hbond>
2.3101

> <Gold.Chemscore.Metal>
0.0000

> <Gold.Chemscore.Lipo>
65.4519

> <Gold.Chemscore.Internal_Hbond>
0.0000

> <Gold.Chemscore.DEClash>
0.0292

> <Gold.Chemscore.DEInternal>
1.4498

> <Gold.Chemscore.Rot>
1.0000

> <Gold.Chemscore.Internal.Correction>
   9.000000E+99

> <Gold.Chemscore.Hbonds>
donor molecule, donor type, donor heavy atom, donor atom, acceptor molecule, acceptor atom, score
      L1  H     7    26       P1  7948  0.14
      L1  H    10    27       P1  7948  0.93
      P1  H 10752 10765       L1    18  0.75

> <Gold.Chemscore.Hbond.Weighted>
-7.7157

> <Gold.Chemscore.Metal.Weighted>
-0.0000

> <Gold.Chemscore.Lipo.Weighted>
-7.6579

> <Gold.Chemscore.Internal_Hbond.Weighted>
0.0000

> <Gold.Chemscore.DEClash.Weighted>
0.0292

> <Gold.Chemscore.DEInternal.Weighted>
1.4498

> <Gold.Chemscore.Rot.Weighted>
2.5600

> <Gold.Chemscore.Internal.Correction.Weighted>
   9.000000E+99

> <Gold.Protein.RotatedTorsions>
[ 6907 6896 6895 6894 ] final  -14.39 input  -60.11 | X-H torsion
[ 7974 7965 7964 7962 ] final  173.19 input  175.53 | X-H torsion
[ 8008 7997 7996 7995 ] final  122.79 input   59.86 | X-H torsion
[ 10167 10162 10161 10158 ] final  -65.96 input  -65.29 | X-H torsion
[ 10718 10713 10712 10709 ] final    2.82 input   66.30 | X-H torsion
[ 10763 10752 10751 10750 ] final  152.91 input  -60.55 | X-H torsion
[ 11005 11000 10999 10996 ] final -173.54 input  -57.11 | X-H torsion

> <Gold.Protein.ActiveResidues>
 VAL166  LYS551  ARG553  GLY616  TRP617  ASP618  TYR619  PRO620  LYS621  CYS622 
 ASP623  PHE694  ASN695  SER759  ASP760  ASP761  ALA762  ILE779  LEU786  VAL792 
 PHE793  MET794  SER795  GLU796  ALA797  LYS798  CYS799  TRP800  GLU811  SER814 

> <Gold.Protein.RotatedAtoms>
  151.3402  135.0862  159.9368 H   0  0  0  0  0  0  0  0  0  0  0  0  # atno 6907 bound_to 6896
  152.5213  133.9455  159.7657 H   0  0  0  0  0  0  0  0  0  0  0  0  # atno 6908 bound_to 6896
  150.9810  133.6192  159.2752 H   0  0  0  0  0  0  0  0  0  0  0  0  # atno 6909 bound_to 6896
  144.7249  139.9611  143.6435 H   0  0  0  0  0  0  0  0  0  0  0  0  # atno 7974 bound_to 7965
  156.2741  140.2778  156.1524 H   0  0  0  0  0  0  0  0  0  0  0  0  # atno 8008 bound_to 7997
  155.0840  140.0388  157.2665 H   0  0  0  0  0  0  0  0  0  0  0  0  # atno 8009 bound_to 7997
  154.6942  140.2635  155.6788 H   0  0  0  0  0  0  0  0  0  0  0  0  # atno 8010 bound_to 7997
  140.5692  143.2316  151.6573 H   0  0  0  0  0  0  0  0  0  0  0  0  # atno 10167 bound_to 10162
  156.8687  130.5612  149.5658 H   0  0  0  0  0  0  0  0  0  0  0  0  # atno 10718 bound_to 10713
  154.1276  135.2828  155.3193 H   0  0  0  0  0  0  0  0  0  0  0  0  # atno 10763 bound_to 10752
  154.6378  135.5413  153.7757 H   0  0  0  0  0  0  0  0  0  0  0  0  # atno 10764 bound_to 10752
  153.0292  135.6479  154.1428 H   0  0  0  0  0  0  0  0  0  0  0  0  # atno 10765 bound_to 10752
  140.4845  134.6043  157.4932 H   0  0  0  0  0  0  0  0  0  0  0  0  # atno 11005 bound_to 11000
  146.0637  139.3629  143.0566 LP  0  0  0  0  0  0  0  0  0  0  0  0  # atno 17320 bound_to 7965
  145.8060  140.9749  143.0974 LP  0  0  0  0  0  0  0  0  0  0  0  0  # atno 17321 bound_to 7965
  139.5108  144.3529  152.0635 LP  0  0  0  0  0  0  0  0  0  0  0  0  # atno 17342 bound_to 10162
  140.2664  144.4011  150.6167 LP  0  0  0  0  0  0  0  0  0  0  0  0  # atno 17343 bound_to 10162
  156.0738  130.5765  150.9434 LP  0  0  0  0  0  0  0  0  0  0  0  0  # atno 17370 bound_to 10713
  157.6208  131.0930  150.8626 LP  0  0  0  0  0  0  0  0  0  0  0  0  # atno 17371 bound_to 10713
  139.9806  134.7143  155.9867 LP  0  0  0  0  0  0  0  0  0  0  0  0  # atno 17394 bound_to 11000
  141.1514  133.6548  156.4027 LP  0  0  0  0  0  0  0  0  0  0  0  0  # atno 17395 bound_to 11000

$$$$
