AV-unprocessed.smi:72|AV-procd|sdf|744|dock5
  -GOLD-   2262017 73D 1   1.00000     0.00000
 Structure written by MMmdl.
 29 30  0  0  0  0  0  0  0  0  1 V2000
  152.7367  143.7579  160.4370 N   0  0  0  0  0  0  0  0  0  0  0  0
  151.9666  142.9583  159.6188 C   0  0  0  0  0  0  0  0  0  0  0  0
  151.0522  143.6176  158.7862 N   0  0  0  0  0  0  0  0  0  0  0  0
  150.3240  142.8713  158.0173 C   0  0  0  0  0  0  0  0  0  0  0  0
  150.4561  141.4238  158.0262 N   0  0  0  0  0  0  0  0  0  0  0  0
  149.6170  140.5231  157.1364 C   0  0  1  0  0  0  0  0  0  0  0  0
  148.6869  141.2881  156.4230 O   0  0  0  0  0  0  0  0  0  0  0  0
  149.0449  141.3403  155.0443 C   0  0  2  0  0  0  0  0  0  0  0  0
  147.7968  141.6175  154.1925 C   0  0  0  0  0  0  0  0  0  0  0  0
  147.1777  142.8137  154.6147 O   0  0  0  0  0  0  0  0  0  0  0  0
  149.6410  139.9502  154.8274 C   0  0  1  0  0  0  0  0  0  0  0  0
  150.4097  139.8529  153.6430 O   0  0  0  0  0  0  0  0  0  0  0  0
  150.4529  139.7333  156.1009 C   0  0  1  0  0  0  0  0  0  0  0  0
  151.7875  140.2002  155.9688 O   0  0  0  0  0  0  0  0  0  0  0  0
  151.4102  140.8231  158.8928 C   0  0  0  0  0  0  0  0  0  0  0  0
  151.5495  139.5998  158.9036 O   0  0  0  0  0  0  0  0  0  0  0  0
  152.1688  141.6748  159.7040 N   0  0  0  0  0  0  0  0  0  0  0  0
  149.0543  139.8805  157.8156 H   0  0  0  0  0  0  0  0  0  0  0  0
  149.8131  142.0986  154.8813 H   0  0  0  0  0  0  0  0  0  0  0  0
  148.8378  139.2125  154.7883 H   0  0  0  0  0  0  0  0  0  0  0  0
  150.4824  138.6801  156.3818 H   0  0  0  0  0  0  0  0  0  0  0  0
  153.4274  143.3937  161.0769 H   0  0  0  0  0  0  0  0  0  0  0  0
  152.6684  144.7651  160.4556 H   0  0  0  0  0  0  0  0  0  0  0  0
  149.5831  143.2782  157.3294 H   0  0  0  0  0  0  0  0  0  0  0  0
  148.0773  141.7471  153.1468 H   0  0  0  0  0  0  0  0  0  0  0  0
  147.0916  140.7872  154.2387 H   0  0  0  0  0  0  0  0  0  0  0  0
  147.8446  143.3988  154.9401 H   0  0  0  0  0  0  0  0  0  0  0  0
  149.8586  140.0789  152.9095 H   0  0  0  0  0  0  0  0  0  0  0  0
  152.3746  139.5056  156.2259 H   0  0  0  0  0  0  0  0  0  0  0  0
  1  2  1  0  0  0  0
  1 22  1  0  0  0  0
  1 23  1  0  0  0  0
  2 17  2  0  0  0  0
  2  3  1  0  0  0  0
  3  4  2  0  0  0  0
  4  5  1  0  0  0  0
  4 24  1  0  0  0  0
  5  6  1  0  0  0  0
  5 15  1  0  0  0  0
  6 18  1  0  0  0  0
  6 13  1  0  0  0  0
  6  7  1  0  0  0  0
  7  8  1  0  0  0  0
  8 19  1  0  0  0  0
  8  9  1  0  0  0  0
  8 11  1  0  0  0  0
  9 10  1  0  0  0  0
  9 25  1  0  0  0  0
  9 26  1  0  0  0  0
 10 27  1  0  0  0  0
 11 20  1  0  0  0  0
 11 12  1  0  0  0  0
 11 13  1  0  0  0  0
 12 28  1  0  0  0  0
 13 21  1  0  0  0  0
 13 14  1  0  0  0  0
 14 29  1  0  0  0  0
 15 16  2  0  0  0  0
 15 17  1  0  0  0  0
M  END
> <s_m_source_file>
AV-unprocessed.smi

> <i_m_source_file_index>
72

> <i_lp_mmshare_version>
43012

> <i_f3d_flags>
0

> <s_epik_input>
W05IMl1jMW5bY0hdbihjKD1PKW4xKVtDQEBIXTJPW0NASF0oW0NIMl1bT0hdKVtDQEBIXShbT0hdKVtDQEhdMltPSF0=

> <s_epik_cmdline>
J2VwaWtfcHl0aG9uJywgJy1waCcsICc3LjAnLCAnLXRuJywgJzgnLCAnLW1hJywgJzIwMCcsICctbWV0YWxfYmluZGluZycsICctaW1hZScsICc8aW5maWxlLm1hZT4nLCAnLW9tYWUnLCAnPG91dGZpbGUubWFlPic=

> <r_lp_tautomer_probability>
4.77166e-05

> <r_epik_Ionization_Penalty>
1.3546

> <r_epik_Ionization_Penalty_Charging>
1.46833e-10

> <r_epik_Ionization_Penalty_Neutral>
1.3546

> <r_epik_State_Penalty>
3.51908

> <r_epik_Charging_Adjusted_Penalty>
3.51908

> <i_epik_Tot_Q>
0

> <i_epik_Tot_abs_Q>
0

> <r_epik_Metal_State_Penalty>
3.44088

> <b_epik_Metal_Only>
1

> <s_epik_Chemistry_Notes>
This compound contains an acetal/aminal-like group ( X-CH(R)-Y where X, Y are N, S, or O) that may be acid/base labile, releasing an aldehyde.

> <s_lp_Force_Field>
OPLS_2005

> <r_lp_Energy>
34.5765

> <b_lp_Chiralities_Consistent>
1

> <s_lp_Variant>
AV-unprocessed.smi:72-82

> <Gold.Version>
5.8.1

> <Gold.Id.Protein>
6NUR|6NUR_protein|mol2

> <Gold.PLP.Fitness>
34.1359

> <Gold.PLP.PLP>
-22.6198

> <Gold.PLP.part.hbond>
-3.0000

> <Gold.PLP.part.metal>
0.0000

> <Gold.PLP.part.buried>
-2.5820

> <Gold.PLP.part.nonpolar>
-16.8440

> <Gold.PLP.part.repulsive>
0.2139

> <Gold.PLP.ligand.clash>
0.0000

> <Gold.PLP.ligand.torsion>
0.0571

> <Gold.PLP.Chemscore.Hbond>
2.8560

> <Gold.PLP.Chemscore.CHOScore>
1.0000

> <Gold.PLP.Chemscore.Metal>
0.0000

> <Gold.Chemscore.Hbonds>
donor molecule, donor type, donor heavy atom, donor atom, acceptor molecule, acceptor atom, score
      L1  H    10    27       P1  8028  1.00
      L1  H    12    28       P1  7957  0.94
      P1  H  7989  7998       L1    12  0.88
      L1  C     4    24       P1  8028  1.00

> <Gold.PLP.Chemscore.Internal.Correction>
0.0623

> <Gold.Rescore>
     Score         DG    S(hbond)    S(metal)    S(lipo)     H(rot)  DE(clash)    DE(int)     intcor
      4.15      -4.35       1.91        0.00      24.58       4.06       0.04       0.16       ----

> <Gold.Chemscore.Fitness>
4.1468

> <Gold.Chemscore.DG>
-4.3481

> <Gold.Chemscore.ZeroCoef>
-5.4800

> <Gold.Chemscore.Hbond>
1.9118

> <Gold.Chemscore.Metal>
0.0000

> <Gold.Chemscore.Lipo>
24.5840

> <Gold.Chemscore.Internal_Hbond>
0.0000

> <Gold.Chemscore.DEClash>
0.0402

> <Gold.Chemscore.DEInternal>
0.1611

> <Gold.Chemscore.Rot>
4.0600

> <Gold.Chemscore.Internal.Correction>
   9.000000E+99

> <Gold.Chemscore.Hbonds>
donor molecule, donor type, donor heavy atom, donor atom, acceptor molecule, acceptor atom, score
      L1  H    10    27       P1  8028  0.60
      L1  H    12    28       P1  7957  0.91
      P1  H  7989  7998       L1    12  0.24

> <Gold.Chemscore.Hbond.Weighted>
-6.3854

> <Gold.Chemscore.Metal.Weighted>
-0.0000

> <Gold.Chemscore.Lipo.Weighted>
-2.8763

> <Gold.Chemscore.Internal_Hbond.Weighted>
0.0000

> <Gold.Chemscore.DEClash.Weighted>
0.0402

> <Gold.Chemscore.DEInternal.Weighted>
0.1611

> <Gold.Chemscore.Rot.Weighted>
10.3936

> <Gold.Chemscore.Internal.Correction.Weighted>
   9.000000E+99

> <Gold.Protein.RotatedTorsions>
[ 6907 6896 6895 6894 ] final  101.53 input  -60.11 | X-H torsion
[ 7974 7965 7964 7962 ] final  123.06 input  175.53 | X-H torsion
[ 8008 7997 7996 7995 ] final    1.56 input   59.86 | X-H torsion
[ 10167 10162 10161 10158 ] final  -10.74 input  -65.29 | X-H torsion
[ 10718 10713 10712 10709 ] final   -2.42 input   66.30 | X-H torsion
[ 10763 10752 10751 10750 ] final  -73.83 input  -60.55 | X-H torsion
[ 11005 11000 10999 10996 ] final  -42.76 input  -57.11 | X-H torsion

> <Gold.Protein.ActiveResidues>
 VAL166  LYS551  ARG553  GLY616  TRP617  ASP618  TYR619  PRO620  LYS621  CYS622 
 ASP623  PHE694  ASN695  SER759  ASP760  ASP761  ALA762  ILE779  LEU786  VAL792 
 PHE793  MET794  SER795  GLU796  ALA797  LYS798  CYS799  TRP800  GLU811  SER814 

> <Gold.Protein.RotatedAtoms>
  152.5347  134.0112  159.7938 H   0  0  0  0  0  0  0  0  0  0  0  0  # atno 6907 bound_to 6896
  151.0314  133.5779  159.2667 H   0  0  0  0  0  0  0  0  0  0  0  0  # atno 6908 bound_to 6896
  151.2782  135.0713  159.9213 H   0  0  0  0  0  0  0  0  0  0  0  0  # atno 6909 bound_to 6896
  145.1003  139.3523  143.4815 H   0  0  0  0  0  0  0  0  0  0  0  0  # atno 7974 bound_to 7965
  154.6812  140.2633  155.6907 H   0  0  0  0  0  0  0  0  0  0  0  0  # atno 8008 bound_to 7997
  156.2697  140.2810  156.1279 H   0  0  0  0  0  0  0  0  0  0  0  0  # atno 8009 bound_to 7997
  155.1029  140.0374  157.2692 H   0  0  0  0  0  0  0  0  0  0  0  0  # atno 8010 bound_to 7997
  140.7121  143.5715  150.9087 H   0  0  0  0  0  0  0  0  0  0  0  0  # atno 10167 bound_to 10162
  156.7910  130.5362  149.5735 H   0  0  0  0  0  0  0  0  0  0  0  0  # atno 10718 bound_to 10713
  154.4648  135.5884  153.6281 H   0  0  0  0  0  0  0  0  0  0  0  0  # atno 10763 bound_to 10752
  152.9827  135.6052  154.3440 H   0  0  0  0  0  0  0  0  0  0  0  0  # atno 10764 bound_to 10752
  154.3316  135.2842  155.2448 H   0  0  0  0  0  0  0  0  0  0  0  0  # atno 10765 bound_to 10752
  141.0338  133.6809  156.2639 H   0  0  0  0  0  0  0  0  0  0  0  0  # atno 11005 bound_to 11000
  146.3530  140.0877  142.8614 LP  0  0  0  0  0  0  0  0  0  0  0  0  # atno 17320 bound_to 7965
  145.0963  140.9317  143.4739 LP  0  0  0  0  0  0  0  0  0  0  0  0  # atno 17321 bound_to 7965
  139.9441  143.6347  152.3046 LP  0  0  0  0  0  0  0  0  0  0  0  0  # atno 17342 bound_to 10162
  139.6843  144.7653  151.1553 LP  0  0  0  0  0  0  0  0  0  0  0  0  # atno 17343 bound_to 10162
  156.1159  130.6074  151.0119 LP  0  0  0  0  0  0  0  0  0  0  0  0  # atno 17370 bound_to 10713
  157.6600  131.0882  150.7859 LP  0  0  0  0  0  0  0  0  0  0  0  0  # atno 17371 bound_to 10713
  140.6359  134.5216  157.5564 LP  0  0  0  0  0  0  0  0  0  0  0  0  # atno 17394 bound_to 11000
  139.9226  134.8119  156.1165 LP  0  0  0  0  0  0  0  0  0  0  0  0  # atno 17395 bound_to 11000

$$$$
