AV-unprocessed.smi:2888|AV-procd|sdf|11104|dock3
  -GOLD-   2272015573D 1   1.00000     0.00000
 Structure written by MMmdl.
 34 36  0  0  0  0  0  0  0  0  2 V2000
  152.9622  141.0251  160.0490 C   0  0  0  0  0  0  0  0  0  0  0  0
  152.2077  142.0779  159.2652 C   0  0  0  0  0  0  0  0  0  0  0  0
  152.3789  143.4500  159.5169 C   0  0  0  0  0  0  0  0  0  0  0  0
  151.6213  144.3365  158.7276 C   0  0  0  0  0  0  0  0  0  0  0  0
  151.7131  145.8387  158.8927 C   0  0  0  0  0  0  0  0  0  0  0  0
  150.7784  143.8534  157.7802 N   0  3  0  0  0  0  0  0  0  0  0  0
  150.6687  142.5293  157.5914 C   0  0  0  0  0  0  0  0  0  0  0  0
  149.8012  142.0937  156.6060 N   0  0  0  0  0  0  0  0  0  0  0  0
  149.5699  140.6921  156.2783 C   0  0  2  0  0  0  0  0  0  0  0  0
  150.8568  139.8568  156.2766 C   0  0  0  0  0  0  0  0  0  0  0  0
  150.8512  139.2692  154.8599 C   0  0  1  0  0  0  0  0  0  0  0  0
  149.7382  138.2309  154.6651 C   0  0  0  0  0  0  0  0  0  0  0  0
  148.4921  139.1145  154.6144 C   0  0  0  0  0  0  0  0  0  0  0  0
  149.0864  140.5132  154.8297 C   0  0  2  0  0  0  0  0  0  0  0  0
  150.3168  140.3655  154.1394 O   0  0  0  0  0  0  0  0  0  0  0  0
  151.3627  141.6363  158.3122 N   0  0  0  0  0  0  0  0  0  0  0  0
  153.5612  141.4767  160.8404 H   0  0  0  0  0  0  0  0  0  0  0  0
  153.6305  140.4689  159.3910 H   0  0  0  0  0  0  0  0  0  0  0  0
  152.2673  140.3215  160.5087 H   0  0  0  0  0  0  0  0  0  0  0  0
  153.0582  143.8070  160.2778 H   0  0  0  0  0  0  0  0  0  0  0  0
  152.3309  146.1030  159.7516 H   0  0  0  0  0  0  0  0  0  0  0  0
  150.7222  146.2682  159.0425 H   0  0  0  0  0  0  0  0  0  0  0  0
  152.1542  146.2901  158.0037 H   0  0  0  0  0  0  0  0  0  0  0  0
  149.4076  142.7916  155.9918 H   0  0  0  0  0  0  0  0  0  0  0  0
  148.8313  140.2850  156.9704 H   0  0  0  0  0  0  0  0  0  0  0  0
  151.7421  140.4780  156.4214 H   0  0  0  0  0  0  0  0  0  0  0  0
  150.8573  139.0849  157.0467 H   0  0  0  0  0  0  0  0  0  0  0  0
  151.8311  138.9387  154.5142 H   0  0  0  0  0  0  0  0  0  0  0  0
  149.8658  137.6949  153.7239 H   0  0  0  0  0  0  0  0  0  0  0  0
  149.7086  137.5000  155.4739 H   0  0  0  0  0  0  0  0  0  0  0  0
  148.0148  139.0448  153.6361 H   0  0  0  0  0  0  0  0  0  0  0  0
  147.7542  138.8521  155.3734 H   0  0  0  0  0  0  0  0  0  0  0  0
  148.4496  141.3182  154.4604 H   0  0  0  0  0  0  0  0  0  0  0  0
  150.2367  144.5070  157.2145 H   0  0  0  0  0  0  0  0  0  0  0  0
  1  2  1  0  0  0  0
  1 17  1  0  0  0  0
  1 18  1  0  0  0  0
  1 19  1  0  0  0  0
  2 16  1  0  0  0  0
  2  3  2  0  0  0  0
  3  4  1  0  0  0  0
  3 20  1  0  0  0  0
  4  5  1  0  0  0  0
  4  6  2  0  0  0  0
  5 21  1  0  0  0  0
  5 22  1  0  0  0  0
  5 23  1  0  0  0  0
  6  7  1  0  0  0  0
  6 34  1  0  0  0  0
  7  8  1  0  0  0  0
  7 16  2  0  0  0  0
  8  9  1  0  0  0  0
  8 24  1  0  0  0  0
  9 14  1  0  0  0  0
  9 10  1  0  0  0  0
  9 25  1  0  0  0  0
 10 11  1  0  0  0  0
 10 26  1  0  0  0  0
 10 27  1  0  0  0  0
 11 15  1  0  0  0  0
 11 12  1  0  0  0  0
 11 28  1  0  0  0  0
 12 13  1  0  0  0  0
 12 29  1  0  0  0  0
 12 30  1  0  0  0  0
 13 14  1  0  0  0  0
 13 31  1  0  0  0  0
 13 32  1  0  0  0  0
 14 15  1  0  0  0  0
 14 33  1  0  0  0  0
M  CHG  1   6   1
M  END
> <s_m_source_file>
AV-unprocessed.smi

> <i_m_source_file_index>
2888

> <i_lp_mmshare_version>
43012

> <i_f3d_flags>
0

> <s_epik_input>
W0NIM11jMVtjSF1jKFtDSDNdKW5jKG4xKVtOSF1bQ0BIXShbQ0gyXVtDQEBIXTIzKVtDQEBIXShPMylbQ0gyXVtDSDJdMg==

> <s_epik_cmdline>
J2VwaWtfcHl0aG9uJywgJy1waCcsICc3LjAnLCAnLXRuJywgJzgnLCAnLW1hJywgJzIwMCcsICctbWV0YWxfYmluZGluZycsICctaW1hZScsICc8aW5maWxlLm1hZT4nLCAnLW9tYWUnLCAnPG91dGZpbGUubWFlPic=

> <r_lp_tautomer_probability>
0.505494

> <r_epik_Ionization_Penalty>
2.49163

> <r_epik_Ionization_Penalty_Charging>
2.49163

> <r_epik_Ionization_Penalty_Neutral>
3.7631e-06

> <r_epik_State_Penalty>
2.656

> <r_epik_Charging_Adjusted_Penalty>
5.14762

> <i_epik_Tot_Q>
1

> <i_epik_Tot_abs_Q>
1

> <r_epik_Metal_State_Penalty>
2.66479

> <b_epik_Metal_Only>
0

> <s_lp_Force_Field>
OPLS_2005

> <r_lp_Energy>
35.8908

> <b_lp_Chiralities_Consistent>
1

> <s_lp_Variant>
AV-unprocessed.smi:2888-5

> <Gold.Version>
5.8.1

> <Gold.Id.Protein>
6NUR|6NUR_protein|mol2

> <Gold.PLP.Fitness>
43.2543

> <Gold.PLP.PLP>
-29.3772

> <Gold.PLP.part.hbond>
-2.6721

> <Gold.PLP.part.metal>
0.0000

> <Gold.PLP.part.buried>
-2.1531

> <Gold.PLP.part.nonpolar>
-25.7111

> <Gold.PLP.part.repulsive>
0.5359

> <Gold.PLP.ligand.clash>
0.0000

> <Gold.PLP.ligand.torsion>
0.3055

> <Gold.PLP.Chemscore.Hbond>
4.8229

> <Gold.PLP.Chemscore.CHOScore>
0.0000

> <Gold.PLP.Chemscore.Metal>
0.0000

> <Gold.Chemscore.Hbonds>
donor molecule, donor type, donor heavy atom, donor atom, acceptor molecule, acceptor atom, score
      L1  H     6    34       P1  8028  1.90
      L1  H     8    24       P1  8028  1.98
      P1  H  7989  7998       L1    15  0.88

> <Gold.PLP.Chemscore.Internal.Correction>
0.0193

> <Gold.Rescore>
     Score         DG    S(hbond)    S(metal)    S(lipo)     H(rot)  DE(clash)    DE(int)     intcor
     18.94     -21.34       2.41        0.00      88.60       1.00       0.41       1.99       ----

> <Gold.Chemscore.Fitness>
18.9412

> <Gold.Chemscore.DG>
-21.3438

> <Gold.Chemscore.ZeroCoef>
-5.4800

> <Gold.Chemscore.Hbond>
2.4124

> <Gold.Chemscore.Metal>
0.0000

> <Gold.Chemscore.Lipo>
88.6014

> <Gold.Chemscore.Internal_Hbond>
0.0000

> <Gold.Chemscore.DEClash>
0.4081

> <Gold.Chemscore.DEInternal>
1.9946

> <Gold.Chemscore.Rot>
1.0000

> <Gold.Chemscore.Internal.Correction>
   9.000000E+99

> <Gold.Chemscore.Hbonds>
donor molecule, donor type, donor heavy atom, donor atom, acceptor molecule, acceptor atom, score
      L1  H     6    34       P1  8028  0.47
      L1  H     8    24       P1  8028  0.87
      P1  H  7989  7998       L1    15  0.18

> <Gold.Chemscore.Hbond.Weighted>
-8.0574

> <Gold.Chemscore.Metal.Weighted>
-0.0000

> <Gold.Chemscore.Lipo.Weighted>
-10.3664

> <Gold.Chemscore.Internal_Hbond.Weighted>
0.0000

> <Gold.Chemscore.DEClash.Weighted>
0.4081

> <Gold.Chemscore.DEInternal.Weighted>
1.9946

> <Gold.Chemscore.Rot.Weighted>
2.5600

> <Gold.Chemscore.Internal.Correction.Weighted>
   9.000000E+99

> <Gold.Protein.RotatedTorsions>
[ 6907 6896 6895 6894 ] final  111.00 input  -60.11 | X-H torsion
[ 7974 7965 7964 7962 ] final  168.13 input  175.53 | X-H torsion
[ 8008 7997 7996 7995 ] final  -34.46 input   59.86 | X-H torsion
[ 10167 10162 10161 10158 ] final   55.98 input  -65.29 | X-H torsion
[ 10718 10713 10712 10709 ] final   26.99 input   66.30 | X-H torsion
[ 10763 10752 10751 10750 ] final -159.72 input  -60.55 | X-H torsion
[ 11005 11000 10999 10996 ] final  103.59 input  -57.11 | X-H torsion

> <Gold.Protein.ActiveResidues>
 VAL166  LYS551  ARG553  GLY616  TRP617  ASP618  TYR619  PRO620  LYS621  CYS622 
 ASP623  PHE694  ASN695  SER759  ASP760  ASP761  ALA762  ILE779  LEU786  VAL792 
 PHE793  MET794  SER795  GLU796  ALA797  LYS798  CYS799  TRP800  GLU811  SER814 

> <Gold.Protein.RotatedAtoms>
  152.4991  133.8720  159.7302 H   0  0  0  0  0  0  0  0  0  0  0  0  # atno 6907 bound_to 6896
  150.9204  133.6879  159.2840 H   0  0  0  0  0  0  0  0  0  0  0  0  # atno 6908 bound_to 6896
  151.4257  135.1008  159.9680 H   0  0  0  0  0  0  0  0  0  0  0  0  # atno 6909 bound_to 6896
  144.7399  139.8862  143.6400 H   0  0  0  0  0  0  0  0  0  0  0  0  # atno 7974 bound_to 7965
  154.4120  140.1683  156.2053 H   0  0  0  0  0  0  0  0  0  0  0  0  # atno 8008 bound_to 7997
  155.9490  140.3402  155.6368 H   0  0  0  0  0  0  0  0  0  0  0  0  # atno 8009 bound_to 7997
  155.6894  140.0732  157.2445 H   0  0  0  0  0  0  0  0  0  0  0  0  # atno 8010 bound_to 7997
  140.2136  144.3863  150.6479 H   0  0  0  0  0  0  0  0  0  0  0  0  # atno 10167 bound_to 10162
  157.2142  130.6948  149.6241 H   0  0  0  0  0  0  0  0  0  0  0  0  # atno 10718 bound_to 10713
  154.7451  135.3078  154.8660 H   0  0  0  0  0  0  0  0  0  0  0  0  # atno 10763 bound_to 10752
  153.9463  135.6769  153.4748 H   0  0  0  0  0  0  0  0  0  0  0  0  # atno 10764 bound_to 10752
  153.1048  135.4895  154.8857 H   0  0  0  0  0  0  0  0  0  0  0  0  # atno 10765 bound_to 10752
  139.8785  134.9269  156.5233 H   0  0  0  0  0  0  0  0  0  0  0  0  # atno 11005 bound_to 11000
  146.1175  139.4188  143.0249 LP  0  0  0  0  0  0  0  0  0  0  0  0  # atno 17320 bound_to 7965
  145.7353  141.0028  143.1330 LP  0  0  0  0  0  0  0  0  0  0  0  0  # atno 17321 bound_to 7965
  140.6306  143.2187  151.6504 LP  0  0  0  0  0  0  0  0  0  0  0  0  # atno 17342 bound_to 10162
  139.5170  144.3328  152.0811 LP  0  0  0  0  0  0  0  0  0  0  0  0  # atno 17343 bound_to 10162
  155.9688  130.4541  150.5837 LP  0  0  0  0  0  0  0  0  0  0  0  0  # atno 17370 bound_to 10713
  157.3641  131.0755  151.1612 LP  0  0  0  0  0  0  0  0  0  0  0  0  # atno 17371 bound_to 10713
  140.8434  133.8187  155.9097 LP  0  0  0  0  0  0  0  0  0  0  0  0  # atno 17394 bound_to 11000
  140.9215  134.2136  157.4923 LP  0  0  0  0  0  0  0  0  0  0  0  0  # atno 17395 bound_to 11000

$$$$
