AV-unprocessed.smi:1540|AV-procd|sdf|6201|dock2
  -GOLD-   22720 6373D 1   1.00000     0.00000
 Structure written by MMmdl.
 32 32  0  0  0  0  0  0  0  0  2 V2000
  152.6451  142.8723  162.4957 C   0  0  0  0  0  0  0  0  0  0  0  0
  153.3053  141.9385  161.7945 C   0  0  0  0  0  0  0  0  0  0  0  0
  152.9027  141.4529  160.4196 C   0  0  0  0  0  0  0  0  0  0  0  0
  153.1172  142.4759  159.4552 O   0  0  0  0  0  0  0  0  0  0  0  0
  152.0073  143.3401  159.2221 C   0  0  1  0  0  0  0  0  0  0  0  0
  152.5418  144.6013  158.5268 C   0  0  0  0  0  0  0  0  0  0  0  0
  150.9483  142.6324  158.3608 C   0  0  0  0  0  0  0  0  0  0  0  0
  149.7762  142.6205  158.7362 O   0  0  0  0  0  0  0  0  0  0  0  0
  151.4124  142.0661  157.2295 N   0  0  0  0  0  0  0  0  0  0  0  0
  150.7256  141.3693  156.2198 C   0  0  0  0  0  0  0  0  0  0  0  0
  149.5083  141.7161  155.7169 C   0  0  0  0  0  0  0  0  0  0  0  0
  148.8514  140.9509  154.6645 C   0  0  0  0  0  0  0  0  0  0  0  0
  147.5317  141.3536  154.0306 C   0  0  0  0  0  0  0  0  0  0  0  0
  147.2552  140.5936  152.9707 F   0  0  0  0  0  0  0  0  0  0  0  0
  146.5434  141.2124  154.9127 F   0  0  0  0  0  0  0  0  0  0  0  0
  147.5598  142.6276  153.6390 F   0  0  0  0  0  0  0  0  0  0  0  0
  149.6159  139.8826  154.2377 C   0  0  0  0  0  0  0  0  0  0  0  0
  150.8211  139.4674  154.6845 N   0  5  0  0  0  0  0  0  0  0  0  0
  151.4221  140.1852  155.6749 C   0  0  0  0  0  0  0  0  0  0  0  0
  152.5255  139.8682  156.1206 O   0  0  0  0  0  0  0  0  0  0  0  0
  151.7576  143.3467  162.1031 H   0  0  0  0  0  0  0  0  0  0  0  0
  152.9865  143.1750  163.4747 H   0  0  0  0  0  0  0  0  0  0  0  0
  154.1895  141.4858  162.2189 H   0  0  0  0  0  0  0  0  0  0  0  0
  153.4913  140.5648  160.1883 H   0  0  0  0  0  0  0  0  0  0  0  0
  151.8517  141.1593  160.4272 H   0  0  0  0  0  0  0  0  0  0  0  0
  151.5726  143.6366  160.1788 H   0  0  0  0  0  0  0  0  0  0  0  0
  151.7368  145.3036  158.3069 H   0  0  0  0  0  0  0  0  0  0  0  0
  153.0442  144.3612  157.5889 H   0  0  0  0  0  0  0  0  0  0  0  0
  153.2624  145.1164  159.1625 H   0  0  0  0  0  0  0  0  0  0  0  0
  152.4102  142.1208  157.0844 H   0  0  0  0  0  0  0  0  0  0  0  0
  148.9843  142.5853  156.0762 H   0  0  0  0  0  0  0  0  0  0  0  0
  149.1981  139.2716  153.4092 H   0  0  0  0  0  0  0  0  0  0  0  0
  1  2  2  0  0  0  0
  1 21  1  0  0  0  0
  1 22  1  0  0  0  0
  2  3  1  0  0  0  0
  2 23  1  0  0  0  0
  3  4  1  0  0  0  0
  3 24  1  0  0  0  0
  3 25  1  0  0  0  0
  4  5  1  0  0  0  0
  5  6  1  0  0  0  0
  5  7  1  0  0  0  0
  5 26  1  0  0  0  0
  6 27  1  0  0  0  0
  6 28  1  0  0  0  0
  6 29  1  0  0  0  0
  7  8  2  0  0  0  0
  7  9  1  0  0  0  0
  9 10  1  0  0  0  0
  9 30  1  0  0  0  0
 10 19  1  0  0  0  0
 10 11  2  0  0  0  0
 11 12  1  0  0  0  0
 11 31  1  0  0  0  0
 12 13  1  0  0  0  0
 12 17  2  0  0  0  0
 13 14  1  0  0  0  0
 13 15  1  0  0  0  0
 13 16  1  0  0  0  0
 17 18  1  0  0  0  0
 17 32  1  0  0  0  0
 18 19  1  0  0  0  0
 19 20  2  0  0  0  0
M  CHG  1  18  -1
M  END
> <s_m_source_file>
AV-unprocessed.smi

> <i_m_source_file_index>
1540

> <i_lp_mmshare_version>
43012

> <i_f3d_flags>
0

> <s_epik_input>
W0NIMl09W0NIXVtDSDJdT1tDQEhdKFtDSDNdKUMoPU8pW05IXWMxW2NIXWMoQyhGKShGKUYpW2NIXVtuSF1jMT1P

> <s_epik_cmdline>
J2VwaWtfcHl0aG9uJywgJy1waCcsICc3LjAnLCAnLXRuJywgJzgnLCAnLW1hJywgJzIwMCcsICctbWV0YWxfYmluZGluZycsICctaW1hZScsICc8aW5maWxlLm1hZT4nLCAnLW9tYWUnLCAnPG91dGZpbGUubWFlPic=

> <r_epik_Ionization_Penalty>
2.56803

> <r_epik_Ionization_Penalty_Charging>
0.0609694

> <r_epik_Ionization_Penalty_Neutral>
2.50706

> <r_epik_State_Penalty>
2.67253

> <r_epik_Charging_Adjusted_Penalty>
2.7335

> <i_epik_Tot_Q>
-1

> <i_epik_Tot_abs_Q>
1

> <r_epik_Metal_State_Penalty>
0.517713

> <b_epik_Metal_Only>
0

> <s_lp_Force_Field>
OPLS_2005

> <r_lp_Energy>
20.9633

> <b_lp_Chiralities_Consistent>
1

> <s_lp_Variant>
AV-unprocessed.smi:1540-4

> <Gold.Version>
5.8.1

> <Gold.Id.Protein>
6NUR|6NUR_protein|mol2

> <Gold.PLP.Fitness>
47.3651

> <Gold.PLP.PLP>
-46.0387

> <Gold.PLP.part.hbond>
-2.3741

> <Gold.PLP.part.metal>
0.0000

> <Gold.PLP.part.buried>
-0.8343

> <Gold.PLP.part.nonpolar>
-40.9188

> <Gold.PLP.part.repulsive>
0.2582

> <Gold.PLP.ligand.clash>
0.0000

> <Gold.PLP.ligand.torsion>
0.9877

> <Gold.PLP.Chemscore.Hbond>
1.0566

> <Gold.PLP.Chemscore.CHOScore>
0.0000

> <Gold.PLP.Chemscore.Metal>
0.0000

> <Gold.Chemscore.Hbonds>
donor molecule, donor type, donor heavy atom, donor atom, acceptor molecule, acceptor atom, score
      P1  H  7989  7998       L1    18  0.07
      P1  H  7997  8010       L1    20  1.00

> <Gold.PLP.Chemscore.Internal.Correction>
0.1322

> <Gold.Rescore>
     Score         DG    S(hbond)    S(metal)    S(lipo)     H(rot)  DE(clash)    DE(int)     intcor
     14.26     -15.05       0.99        0.00      92.33       1.77       0.11       0.68       ----

> <Gold.Chemscore.Fitness>
14.2607

> <Gold.Chemscore.DG>
-15.0514

> <Gold.Chemscore.ZeroCoef>
-5.4800

> <Gold.Chemscore.Hbond>
0.9918

> <Gold.Chemscore.Metal>
0.0000

> <Gold.Chemscore.Lipo>
92.3311

> <Gold.Chemscore.Internal_Hbond>
0.0000

> <Gold.Chemscore.DEClash>
0.1128

> <Gold.Chemscore.DEInternal>
0.6778

> <Gold.Chemscore.Rot>
1.7750

> <Gold.Chemscore.Internal.Correction>
   9.000000E+99

> <Gold.Chemscore.Hbonds>
donor molecule, donor type, donor heavy atom, donor atom, acceptor molecule, acceptor atom, score
      P1  H  7997  8010       L1    20  1.00

> <Gold.Chemscore.Hbond.Weighted>
-3.3125

> <Gold.Chemscore.Metal.Weighted>
-0.0000

> <Gold.Chemscore.Lipo.Weighted>
-10.8027

> <Gold.Chemscore.Internal_Hbond.Weighted>
0.0000

> <Gold.Chemscore.DEClash.Weighted>
0.1128

> <Gold.Chemscore.DEInternal.Weighted>
0.6778

> <Gold.Chemscore.Rot.Weighted>
4.5439

> <Gold.Chemscore.Internal.Correction.Weighted>
   9.000000E+99

> <Gold.Protein.RotatedTorsions>
[ 6907 6896 6895 6894 ] final  -86.67 input  -60.11 | X-H torsion
[ 7974 7965 7964 7962 ] final  164.89 input  175.53 | X-H torsion
[ 8008 7997 7996 7995 ] final   77.79 input   59.86 | X-H torsion
[ 10167 10162 10161 10158 ] final   90.44 input  -65.29 | X-H torsion
[ 10718 10713 10712 10709 ] final   18.94 input   66.30 | X-H torsion
[ 10763 10752 10751 10750 ] final   29.26 input  -60.55 | X-H torsion
[ 11005 11000 10999 10996 ] final  142.34 input  -57.11 | X-H torsion

> <Gold.Protein.ActiveResidues>
 VAL166  LYS551  ARG553  GLY616  TRP617  ASP618  TYR619  PRO620  LYS621  CYS622 
 ASP623  PHE694  ASN695  SER759  ASP760  ASP761  ALA762  ILE779  LEU786  VAL792 
 PHE793  MET794  SER795  GLU796  ALA797  LYS798  CYS799  TRP800  GLU811  SER814 

> <Gold.Protein.RotatedAtoms>
  150.6866  134.3014  159.4707 H   0  0  0  0  0  0  0  0  0  0  0  0  # atno 6907 bound_to 6896
  152.0910  134.9405  160.0581 H   0  0  0  0  0  0  0  0  0  0  0  0  # atno 6908 bound_to 6896
  152.0721  133.4077  159.4500 H   0  0  0  0  0  0  0  0  0  0  0  0  # atno 6909 bound_to 6896
  144.7526  139.8391  143.6361 H   0  0  0  0  0  0  0  0  0  0  0  0  # atno 7974 bound_to 7965
  155.8466  140.3460  155.5666 H   0  0  0  0  0  0  0  0  0  0  0  0  # atno 8008 bound_to 7997
  155.8083  140.0895  157.1938 H   0  0  0  0  0  0  0  0  0  0  0  0  # atno 8009 bound_to 7997
  154.4006  140.1452  156.3343 H   0  0  0  0  0  0  0  0  0  0  0  0  # atno 8010 bound_to 7997
  139.8473  144.6611  150.9211 H   0  0  0  0  0  0  0  0  0  0  0  0  # atno 10167 bound_to 10162
  157.1035  130.6478  149.5878 H   0  0  0  0  0  0  0  0  0  0  0  0  # atno 10718 bound_to 10713
  153.0441  135.6493  154.0864 H   0  0  0  0  0  0  0  0  0  0  0  0  # atno 10763 bound_to 10752
  154.0565  135.2891  155.3333 H   0  0  0  0  0  0  0  0  0  0  0  0  # atno 10764 bound_to 10752
  154.6686  135.5365  153.8174 H   0  0  0  0  0  0  0  0  0  0  0  0  # atno 10765 bound_to 10752
  140.0470  134.9276  157.0947 H   0  0  0  0  0  0  0  0  0  0  0  0  # atno 11005 bound_to 11000
  146.1495  139.4574  143.0058 LP  0  0  0  0  0  0  0  0  0  0  0  0  # atno 17320 bound_to 7965
  145.6892  141.0169  143.1564 LP  0  0  0  0  0  0  0  0  0  0  0  0  # atno 17321 bound_to 7965
  140.7791  143.3858  151.1396 LP  0  0  0  0  0  0  0  0  0  0  0  0  # atno 17342 bound_to 10162
  139.7499  143.8794  152.3074 LP  0  0  0  0  0  0  0  0  0  0  0  0  # atno 17343 bound_to 10162
  155.9868  130.4904  150.7094 LP  0  0  0  0  0  0  0  0  0  0  0  0  # atno 17370 bound_to 10713
  157.4621  131.0884  151.0735 LP  0  0  0  0  0  0  0  0  0  0  0  0  # atno 17371 bound_to 10713
  140.3978  134.2115  155.7164 LP  0  0  0  0  0  0  0  0  0  0  0  0  # atno 17394 bound_to 11000
  141.1911  133.8201  157.0890 LP  0  0  0  0  0  0  0  0  0  0  0  0  # atno 17395 bound_to 11000

$$$$
