AV-unprocessed.smi:283|AV-procd|sdf|2144|dock4
  -GOLD-   2262021473D 1   1.00000     0.00000
 Structure written by MMmdl.
 48 51  0  0  0  0  0  0  0  0  1 V2000
  153.9740  139.5569  160.1586 C   0  0  0  0  0  0  0  0  0  0  0  0
  153.9045  140.8385  160.9998 C   0  0  1  0  0  0  0  0  0  0  0  0
  155.2093  141.1039  161.6028 N   0  0  0  0  0  0  0  0  0  0  0  0
  155.4292  140.8556  162.9127 C   0  0  0  0  0  0  0  0  0  0  0  0
  155.3755  139.5532  163.2799 N   0  0  0  0  0  0  0  0  0  0  0  0
  155.6081  139.2043  164.5478 C   0  0  0  0  0  0  0  0  0  0  0  0
  155.9047  139.9870  165.5865 N   0  0  0  0  0  0  0  0  0  0  0  0
  155.9436  141.3033  165.2302 C   0  0  0  0  0  0  0  0  0  0  0  0
  155.7126  141.8211  163.9234 C   0  0  0  0  0  0  0  0  0  0  0  0
  155.8198  143.2067  163.9543 N   0  0  0  0  0  0  0  0  0  0  0  0
  156.1123  143.4832  165.1951 C   0  0  0  0  0  0  0  0  0  0  0  0
  156.2133  142.3950  166.0308 N   0  0  0  0  0  0  0  0  0  0  0  0
  156.5446  142.3959  167.4872 C   0  0  1  0  0  0  0  0  0  0  0  0
  157.8536  141.9433  167.6373 O   0  0  0  0  0  0  0  0  0  0  0  0
  158.5143  142.6706  168.6673 C   0  0  2  0  0  0  0  0  0  0  0  0
  158.2737  141.9639  170.0154 C   0  0  0  0  0  0  0  0  0  0  0  0
  158.4650  142.8746  171.0763 O   0  0  0  0  0  0  0  0  0  0  0  0
  157.8691  144.0619  168.6006 C   0  0  1  0  0  0  0  0  0  0  0  0
  158.6096  144.8758  167.7129 O   0  0  0  0  0  0  0  0  0  0  0  0
  156.4595  143.8170  168.0673 C   0  0  2  0  0  0  0  0  0  0  0  0
  155.5348  143.8732  169.1353 O   0  0  0  0  0  0  0  0  0  0  0  0
  153.3376  141.9913  160.1655 C   0  0  0  0  0  0  0  0  0  0  0  0
  153.0225  141.7855  158.8017 C   0  0  0  0  0  0  0  0  0  0  0  0
  152.5063  142.8335  158.0168 C   0  0  0  0  0  0  0  0  0  0  0  0
  152.2899  144.0993  158.5898 C   0  0  0  0  0  0  0  0  0  0  0  0
  152.5840  144.3118  159.9493 C   0  0  0  0  0  0  0  0  0  0  0  0
  153.1009  143.2660  160.7400 C   0  0  0  0  0  0  0  0  0  0  0  0
  153.4279  143.5820  162.4083 Cl  0  0  0  0  0  0  0  0  0  0  0  0
  155.8420  141.6926  167.9371 H   0  0  0  0  0  0  0  0  0  0  0  0
  159.5867  142.7264  168.4718 H   0  0  0  0  0  0  0  0  0  0  0  0
  157.8707  144.5648  169.5690 H   0  0  0  0  0  0  0  0  0  0  0  0
  156.1695  144.5430  167.3054 H   0  0  0  0  0  0  0  0  0  0  0  0
  152.9905  139.2886  159.7715 H   0  0  0  0  0  0  0  0  0  0  0  0
  154.3335  138.7154  160.7517 H   0  0  0  0  0  0  0  0  0  0  0  0
  154.6450  139.6764  159.3073 H   0  0  0  0  0  0  0  0  0  0  0  0
  153.2287  140.6321  161.8276 H   0  0  0  0  0  0  0  0  0  0  0  0
  155.7882  141.7471  161.0827 H   0  0  0  0  0  0  0  0  0  0  0  0
  155.5531  138.1467  164.7600 H   0  0  0  0  0  0  0  0  0  0  0  0
  156.2681  144.4968  165.5350 H   0  0  0  0  0  0  0  0  0  0  0  0
  157.2443  141.6101  170.0771 H   0  0  0  0  0  0  0  0  0  0  0  0
  158.9196  141.0950  170.1431 H   0  0  0  0  0  0  0  0  0  0  0  0
  157.6744  142.9014  171.5938 H   0  0  0  0  0  0  0  0  0  0  0  0
  158.9730  144.3245  167.0354 H   0  0  0  0  0  0  0  0  0  0  0  0
  156.0030  143.7362  169.9447 H   0  0  0  0  0  0  0  0  0  0  0  0
  153.1793  140.8191  158.3459 H   0  0  0  0  0  0  0  0  0  0  0  0
  152.2761  142.6647  156.9751 H   0  0  0  0  0  0  0  0  0  0  0  0
  151.8940  144.9051  157.9893 H   0  0  0  0  0  0  0  0  0  0  0  0
  152.4094  145.2833  160.3880 H   0  0  0  0  0  0  0  0  0  0  0  0
  1  2  1  0  0  0  0
  1 33  1  0  0  0  0
  1 34  1  0  0  0  0
  1 35  1  0  0  0  0
  2  3  1  0  0  0  0
  2 22  1  0  0  0  0
  2 36  1  0  0  0  0
  3  4  1  0  0  0  0
  3 37  1  0  0  0  0
  4  9  1  0  0  0  0
  4  5  2  0  0  0  0
  5  6  1  0  0  0  0
  6  7  2  0  0  0  0
  6 38  1  0  0  0  0
  7  8  1  0  0  0  0
  8 12  1  0  0  0  0
  8  9  2  0  0  0  0
  9 10  1  0  0  0  0
 10 11  2  0  0  0  0
 11 12  1  0  0  0  0
 11 39  1  0  0  0  0
 12 13  1  0  0  0  0
 13 29  1  0  0  0  0
 13 20  1  0  0  0  0
 13 14  1  0  0  0  0
 14 15  1  0  0  0  0
 15 30  1  0  0  0  0
 15 16  1  0  0  0  0
 15 18  1  0  0  0  0
 16 17  1  0  0  0  0
 16 40  1  0  0  0  0
 16 41  1  0  0  0  0
 17 42  1  0  0  0  0
 18 31  1  0  0  0  0
 18 19  1  0  0  0  0
 18 20  1  0  0  0  0
 19 43  1  0  0  0  0
 20 32  1  0  0  0  0
 20 21  1  0  0  0  0
 21 44  1  0  0  0  0
 22 27  1  0  0  0  0
 22 23  2  0  0  0  0
 23 24  1  0  0  0  0
 23 45  1  0  0  0  0
 24 25  2  0  0  0  0
 24 46  1  0  0  0  0
 25 26  1  0  0  0  0
 25 47  1  0  0  0  0
 26 27  2  0  0  0  0
 26 48  1  0  0  0  0
 27 28  1  0  0  0  0
M  END
> <s_m_source_file>
AV-unprocessed.smi

> <i_m_source_file_index>
283

> <i_lp_mmshare_version>
43012

> <i_f3d_flags>
0

> <s_epik_input>
Q2xjMVtjSF1bY0hdW2NIXVtjSF1jMVtDQEhdKFtDSDNdKVtOSF1jKG5bY0hdbjIpYyhjMjMpbltjSF1uM1tDQEBIXTRPW0NASF0oW0NIMl1bT0hdKVtDQEBIXShbT0hdKVtDQEhdNFtPSF0=

> <s_epik_cmdline>
J2VwaWtfcHl0aG9uJywgJy1waCcsICc3LjAnLCAnLXRuJywgJzgnLCAnLW1hJywgJzIwMCcsICctbWV0YWxfYmluZGluZycsICctaW1hZScsICc8aW5maWxlLm1hZT4nLCAnLW9tYWUnLCAnPG91dGZpbGUubWFlPic=

> <r_lp_tautomer_probability>
1

> <r_epik_Ionization_Penalty>
0.000266407

> <r_epik_Ionization_Penalty_Charging>
0

> <r_epik_Ionization_Penalty_Neutral>
0.000266407

> <r_epik_State_Penalty>
-0

> <r_epik_Charging_Adjusted_Penalty>
0

> <i_epik_Tot_Q>
0

> <i_epik_Tot_abs_Q>
0

> <r_epik_Metal_State_Penalty>
-0

> <b_epik_Metal_Only>
0

> <s_epik_Chemistry_Notes>
This compound contains an acetal/aminal-like group ( X-CH(R)-Y where X, Y are N, S, or O) that may be acid/base labile, releasing an aldehyde.

> <s_lp_Force_Field>
OPLS_2005

> <r_lp_Energy>
38.3642

> <b_lp_Chiralities_Consistent>
1

> <s_lp_Variant>
AV-unprocessed.smi:283-20

> <Gold.Version>
5.8.1

> <Gold.Id.Protein>
6NUR|6NUR_protein|mol2

> <Gold.PLP.Fitness>
51.8958

> <Gold.PLP.PLP>
-54.3622

> <Gold.PLP.part.hbond>
-4.2289

> <Gold.PLP.part.metal>
0.0000

> <Gold.PLP.part.buried>
-5.1539

> <Gold.PLP.part.nonpolar>
-43.5284

> <Gold.PLP.part.repulsive>
0.0436

> <Gold.PLP.ligand.clash>
0.0000

> <Gold.PLP.ligand.torsion>
1.2906

> <Gold.PLP.Chemscore.Hbond>
0.0000

> <Gold.PLP.Chemscore.CHOScore>
0.0000

> <Gold.PLP.Chemscore.Metal>
0.0000

> <Gold.PLP.Chemscore.Internal.Correction>
0.1148

> <Gold.Rescore>
     Score         DG    S(hbond)    S(metal)    S(lipo)     H(rot)  DE(clash)    DE(int)     intcor
      3.84      -7.21       0.00        0.00     104.44       4.10       0.67       2.71       ----

> <Gold.Chemscore.Fitness>
3.8390

> <Gold.Chemscore.DG>
-7.2119

> <Gold.Chemscore.ZeroCoef>
-5.4800

> <Gold.Chemscore.Hbond>
0.0000

> <Gold.Chemscore.Metal>
0.0000

> <Gold.Chemscore.Lipo>
104.4426

> <Gold.Chemscore.Internal_Hbond>
0.0000

> <Gold.Chemscore.DEClash>
0.6654

> <Gold.Chemscore.DEInternal>
2.7075

> <Gold.Chemscore.Rot>
4.0968

> <Gold.Chemscore.Internal.Correction>
   9.000000E+99

> <Gold.Chemscore.Hbond.Weighted>
-0.0000

> <Gold.Chemscore.Metal.Weighted>
-0.0000

> <Gold.Chemscore.Lipo.Weighted>
-12.2198

> <Gold.Chemscore.Internal_Hbond.Weighted>
0.0000

> <Gold.Chemscore.DEClash.Weighted>
0.6654

> <Gold.Chemscore.DEInternal.Weighted>
2.7075

> <Gold.Chemscore.Rot.Weighted>
10.4879

> <Gold.Chemscore.Internal.Correction.Weighted>
   9.000000E+99

> <Gold.Protein.RotatedTorsions>
[ 6907 6896 6895 6894 ] final  -96.83 input  -60.11 | X-H torsion
[ 7974 7965 7964 7962 ] final  -45.86 input  175.53 | X-H torsion
[ 8008 7997 7996 7995 ] final  -53.91 input   59.86 | X-H torsion
[ 10167 10162 10161 10158 ] final  131.26 input  -65.29 | X-H torsion
[ 10718 10713 10712 10709 ] final  -83.67 input   66.30 | X-H torsion
[ 10763 10752 10751 10750 ] final  127.40 input  -60.55 | X-H torsion
[ 11005 11000 10999 10996 ] final   64.16 input  -57.11 | X-H torsion

> <Gold.Protein.ActiveResidues>
 VAL166  LYS551  ARG553  GLY616  TRP617  ASP618  TYR619  PRO620  LYS621  CYS622 
 ASP623  PHE694  ASN695  SER759  ASP760  ASP761  ALA762  ILE779  LEU786  VAL792 
 PHE793  MET794  SER795  GLU796  ALA797  LYS798  CYS799  TRP800  GLU811  SER814 

> <Gold.Protein.RotatedAtoms>
  150.6999  134.1442  159.4116 H   0  0  0  0  0  0  0  0  0  0  0  0  # atno 6907 bound_to 6896
  151.9426  135.0204  160.0546 H   0  0  0  0  0  0  0  0  0  0  0  0  # atno 6908 bound_to 6896
  152.2080  133.4855  159.5131 H   0  0  0  0  0  0  0  0  0  0  0  0  # atno 6909 bound_to 6896
  145.9778  140.7316  142.9378 H   0  0  0  0  0  0  0  0  0  0  0  0  # atno 7974 bound_to 7965
  154.4147  140.1189  156.5230 H   0  0  0  0  0  0  0  0  0  0  0  0  # atno 8008 bound_to 7997
  155.6683  140.3496  155.4789 H   0  0  0  0  0  0  0  0  0  0  0  0  # atno 8009 bound_to 7997
  155.9655  140.1131  157.0848 H   0  0  0  0  0  0  0  0  0  0  0  0  # atno 8010 bound_to 7997
  139.5392  144.6714  151.4682 H   0  0  0  0  0  0  0  0  0  0  0  0  # atno 10167 bound_to 10162
  156.0015  130.4673  150.4293 H   0  0  0  0  0  0  0  0  0  0  0  0  # atno 10718 bound_to 10713
  153.7087  135.3271  155.3241 H   0  0  0  0  0  0  0  0  0  0  0  0  # atno 10763 bound_to 10752
  154.8391  135.4472  154.1336 H   0  0  0  0  0  0  0  0  0  0  0  0  # atno 10764 bound_to 10752
  153.2423  135.6972  153.7848 H   0  0  0  0  0  0  0  0  0  0  0  0  # atno 10765 bound_to 10752
  139.9977  134.6492  155.9983 H   0  0  0  0  0  0  0  0  0  0  0  0  # atno 11005 bound_to 11000
  144.6853  140.2857  143.7285 LP  0  0  0  0  0  0  0  0  0  0  0  0  # atno 17320 bound_to 7965
  145.7814  139.1892  143.2156 LP  0  0  0  0  0  0  0  0  0  0  0  0  # atno 17321 bound_to 7965
  140.6614  143.8490  150.6892 LP  0  0  0  0  0  0  0  0  0  0  0  0  # atno 17342 bound_to 10162
  140.1886  143.4055  152.1880 LP  0  0  0  0  0  0  0  0  0  0  0  0  # atno 17343 bound_to 10162
  157.2343  131.0511  151.2474 LP  0  0  0  0  0  0  0  0  0  0  0  0  # atno 17370 bound_to 10713
  157.3681  130.7167  149.6546 LP  0  0  0  0  0  0  0  0  0  0  0  0  # atno 17371 bound_to 10713
  141.1617  133.6538  156.4342 LP  0  0  0  0  0  0  0  0  0  0  0  0  # atno 17394 bound_to 11000
  140.4787  134.6685  157.5161 LP  0  0  0  0  0  0  0  0  0  0  0  0  # atno 17395 bound_to 11000

$$$$
