AV-unprocessed.smi:1500|AV-procd|sdf|6063|dock2
  -GOLD-   22720 6183D 1   1.00000     0.00000
 Structure written by MMmdl.
 32 33  0  0  0  0  0  0  0  0  1 V2000
  147.9804  138.8679  152.8742 N   0  0  0  0  0  0  0  0  0  0  0  0
  147.9085  139.5371  154.0278 C   0  0  0  0  0  0  0  0  0  0  0  0
  147.3047  139.0994  155.0047 O   0  0  0  0  0  0  0  0  0  0  0  0
  148.6108  140.8950  154.0933 C   0  0  0  0  0  0  0  0  0  0  0  0
  149.6940  140.8791  155.0609 N   0  0  0  0  0  0  0  0  0  0  0  0
  149.7297  141.4651  156.3117 C   0  0  0  0  0  0  0  0  0  0  0  0
  150.9590  141.1655  156.8268 C   0  0  0  0  0  0  0  0  0  0  0  0
  151.5183  141.5138  158.0822 N   0  0  0  0  0  0  0  0  0  0  0  0
  152.6284  141.0112  158.6566 C   0  0  0  0  0  0  0  0  0  0  0  0
  153.3346  140.1432  158.1420 O   0  0  0  0  0  0  0  0  0  0  0  0
  152.9133  141.5579  159.8594 N   0  0  0  0  0  0  0  0  0  0  0  0
  152.2912  142.7471  160.4503 C   0  0  0  0  0  0  0  0  0  0  0  0
  152.7876  142.8033  161.8954 C   0  0  0  0  0  0  0  0  0  0  0  0
  154.1102  142.0514  161.8645 C   0  0  0  0  0  0  0  0  0  0  0  0
  153.9190  141.0058  160.7661 C   0  0  0  0  0  0  0  0  0  0  0  0
  151.6193  140.3999  155.8311 C   0  0  0  0  0  0  0  0  0  0  0  0
  150.8498  140.2327  154.7664 N   0  0  0  0  0  0  0  0  0  0  0  0
  147.5306  137.9677  152.7897 H   0  0  0  0  0  0  0  0  0  0  0  0
  148.4825  139.2608  152.0914 H   0  0  0  0  0  0  0  0  0  0  0  0
  149.0032  141.1495  153.1073 H   0  0  0  0  0  0  0  0  0  0  0  0
  147.9070  141.6810  154.3703 H   0  0  0  0  0  0  0  0  0  0  0  0
  148.8935  142.0230  156.7063 H   0  0  0  0  0  0  0  0  0  0  0  0
  151.0266  142.2271  158.6008 H   0  0  0  0  0  0  0  0  0  0  0  0
  152.6193  143.6303  159.9000 H   0  0  0  0  0  0  0  0  0  0  0  0
  151.2014  142.7067  160.4136 H   0  0  0  0  0  0  0  0  0  0  0  0
  152.8891  143.8226  162.2685 H   0  0  0  0  0  0  0  0  0  0  0  0
  152.0854  142.2782  162.5443 H   0  0  0  0  0  0  0  0  0  0  0  0
  154.9115  142.7358  161.5827 H   0  0  0  0  0  0  0  0  0  0  0  0
  154.3700  141.6110  162.8274 H   0  0  0  0  0  0  0  0  0  0  0  0
  153.5419  140.0724  161.1868 H   0  0  0  0  0  0  0  0  0  0  0  0
  154.8596  140.7917  160.2558 H   0  0  0  0  0  0  0  0  0  0  0  0
  152.6092  139.9684  155.8442 H   0  0  0  0  0  0  0  0  0  0  0  0
  1  2  1  0  0  0  0
  1 18  1  0  0  0  0
  1 19  1  0  0  0  0
  2  3  2  0  0  0  0
  2  4  1  0  0  0  0
  4  5  1  0  0  0  0
  4 20  1  0  0  0  0
  4 21  1  0  0  0  0
  5 17  1  0  0  0  0
  5  6  1  0  0  0  0
  6  7  2  0  0  0  0
  6 22  1  0  0  0  0
  7  8  1  0  0  0  0
  7 16  1  0  0  0  0
  8  9  1  0  0  0  0
  8 23  1  0  0  0  0
  9 10  2  0  0  0  0
  9 11  1  0  0  0  0
 11 15  1  0  0  0  0
 11 12  1  0  0  0  0
 12 13  1  0  0  0  0
 12 24  1  0  0  0  0
 12 25  1  0  0  0  0
 13 14  1  0  0  0  0
 13 26  1  0  0  0  0
 13 27  1  0  0  0  0
 14 15  1  0  0  0  0
 14 28  1  0  0  0  0
 14 29  1  0  0  0  0
 15 30  1  0  0  0  0
 15 31  1  0  0  0  0
 16 17  2  0  0  0  0
 16 32  1  0  0  0  0
M  END
> <s_m_source_file>
AV-unprocessed.smi

> <i_m_source_file_index>
1500

> <i_lp_mmshare_version>
43012

> <i_f3d_flags>
0

> <s_epik_input>
W05IMl1DKD1PKVtDSDJdbjFbY0hdYyhbY0hdbjEpW05IXUMoPU8pTjJbQ0gyXVtDSDJdW0NIMl1bQ0gyXTI=

> <s_epik_cmdline>
J2VwaWtfcHl0aG9uJywgJy1waCcsICc3LjAnLCAnLXRuJywgJzgnLCAnLW1hJywgJzIwMCcsICctbWV0YWxfYmluZGluZycsICctaW1hZScsICc8aW5maWxlLm1hZT4nLCAnLW9tYWUnLCAnPG91dGZpbGUubWFlPic=

> <r_lp_tautomer_probability>
1

> <r_epik_Ionization_Penalty>
4.95516e-05

> <r_epik_Ionization_Penalty_Charging>
0

> <r_epik_Ionization_Penalty_Neutral>
4.95516e-05

> <r_epik_State_Penalty>
-0

> <r_epik_Charging_Adjusted_Penalty>
0

> <i_epik_Tot_Q>
0

> <i_epik_Tot_abs_Q>
0

> <r_epik_Metal_State_Penalty>
-0

> <b_epik_Metal_Only>
0

> <s_lp_Force_Field>
OPLS_2005

> <r_lp_Energy>
39.2894

> <b_lp_Chiralities_Consistent>
1

> <s_lp_Variant>
AV-unprocessed.smi:1500-1

> <Gold.Version>
5.8.1

> <Gold.Id.Protein>
6NUR|6NUR_protein|mol2

> <Gold.PLP.Fitness>
48.7472

> <Gold.PLP.PLP>
-37.6098

> <Gold.PLP.part.hbond>
-3.4173

> <Gold.PLP.part.metal>
0.0000

> <Gold.PLP.part.buried>
-0.2882

> <Gold.PLP.part.nonpolar>
-31.8046

> <Gold.PLP.part.repulsive>
0.2725

> <Gold.PLP.ligand.clash>
0.0000

> <Gold.PLP.ligand.torsion>
0.2838

> <Gold.PLP.Chemscore.Hbond>
3.0000

> <Gold.PLP.Chemscore.CHOScore>
0.9012

> <Gold.PLP.Chemscore.Metal>
0.0000

> <Gold.Chemscore.Hbonds>
donor molecule, donor type, donor heavy atom, donor atom, acceptor molecule, acceptor atom, score
      L1  H     1    18       P1  7948  0.01
      L1  H     1    19       P1  7957  1.00
      P1  H  7989  7998       L1    17  1.00
      P1  H  7997  8009       L1    10  0.99
      L1  C     6    22       P1  8028  0.06

> <Gold.PLP.Chemscore.Internal.Correction>
0.0015

> <Gold.Rescore>
     Score         DG    S(hbond)    S(metal)    S(lipo)     H(rot)  DE(clash)    DE(int)     intcor
     17.14     -18.86       2.71        0.00      70.84       1.54       0.09       1.64       ----

> <Gold.Chemscore.Fitness>
17.1378

> <Gold.Chemscore.DG>
-18.8647

> <Gold.Chemscore.ZeroCoef>
-5.4800

> <Gold.Chemscore.Hbond>
2.7093

> <Gold.Chemscore.Metal>
0.0000

> <Gold.Chemscore.Lipo>
70.8387

> <Gold.Chemscore.Internal_Hbond>
0.0000

> <Gold.Chemscore.DEClash>
0.0868

> <Gold.Chemscore.DEInternal>
1.6401

> <Gold.Chemscore.Rot>
1.5440

> <Gold.Chemscore.Internal.Correction>
   9.000000E+99

> <Gold.Chemscore.Hbonds>
donor molecule, donor type, donor heavy atom, donor atom, acceptor molecule, acceptor atom, score
      L1  H     1    18       P1  7948  0.02
      L1  H     1    19       P1  7957  0.99
      P1  H  7989  7998       L1    17  0.51
      P1  H  7997  8009       L1    10  0.93

> <Gold.Chemscore.Hbond.Weighted>
-9.0491

> <Gold.Chemscore.Metal.Weighted>
-0.0000

> <Gold.Chemscore.Lipo.Weighted>
-8.2881

> <Gold.Chemscore.Internal_Hbond.Weighted>
0.0000

> <Gold.Chemscore.DEClash.Weighted>
0.0868

> <Gold.Chemscore.DEInternal.Weighted>
1.6401

> <Gold.Chemscore.Rot.Weighted>
3.9526

> <Gold.Chemscore.Internal.Correction.Weighted>
   9.000000E+99

> <Gold.Protein.RotatedTorsions>
[ 6907 6896 6895 6894 ] final   15.38 input  -60.11 | X-H torsion
[ 7974 7965 7964 7962 ] final  124.96 input  175.53 | X-H torsion
[ 8008 7997 7996 7995 ] final  153.30 input   59.86 | X-H torsion
[ 10167 10162 10161 10158 ] final   57.16 input  -65.29 | X-H torsion
[ 10718 10713 10712 10709 ] final  158.33 input   66.30 | X-H torsion
[ 10763 10752 10751 10750 ] final -149.64 input  -60.55 | X-H torsion
[ 11005 11000 10999 10996 ] final   17.07 input  -57.11 | X-H torsion

> <Gold.Protein.ActiveResidues>
 VAL166  LYS551  ARG553  GLY616  TRP617  ASP618  TYR619  PRO620  LYS621  CYS622 
 ASP623  PHE694  ASN695  SER759  ASP760  ASP761  ALA762  ILE779  LEU786  VAL792 
 PHE793  MET794  SER795  GLU796  ALA797  LYS798  CYS799  TRP800  GLU811  SER814 

> <Gold.Protein.RotatedAtoms>
  151.8172  135.0663  160.0420 H   0  0  0  0  0  0  0  0  0  0  0  0  # atno 6907 bound_to 6896
  152.2977  133.5620  159.5607 H   0  0  0  0  0  0  0  0  0  0  0  0  # atno 6908 bound_to 6896
  150.7259  134.0252  159.3757 H   0  0  0  0  0  0  0  0  0  0  0  0  # atno 6909 bound_to 6896
  145.0785  139.3675  143.4921 H   0  0  0  0  0  0  0  0  0  0  0  0  # atno 7974 bound_to 7965
  156.2588  140.1997  156.6469 H   0  0  0  0  0  0  0  0  0  0  0  0  # atno 8008 bound_to 7997
  154.6567  140.0565  157.0041 H   0  0  0  0  0  0  0  0  0  0  0  0  # atno 8009 bound_to 7997
  155.1337  140.3236  155.4471 H   0  0  0  0  0  0  0  0  0  0  0  0  # atno 8010 bound_to 7997
  140.2009  144.3988  150.6529 H   0  0  0  0  0  0  0  0  0  0  0  0  # atno 10167 bound_to 10162
  157.1794  131.0629  151.2140 H   0  0  0  0  0  0  0  0  0  0  0  0  # atno 10718 bound_to 10713
  154.8165  135.3304  154.7160 H   0  0  0  0  0  0  0  0  0  0  0  0  # atno 10763 bound_to 10752
  153.7799  135.6919  153.4895 H   0  0  0  0  0  0  0  0  0  0  0  0  # atno 10764 bound_to 10752
  153.1987  135.4524  155.0187 H   0  0  0  0  0  0  0  0  0  0  0  0  # atno 10765 bound_to 10752
  140.4401  134.1331  155.7689 H   0  0  0  0  0  0  0  0  0  0  0  0  # atno 11005 bound_to 11000
  146.3530  140.0563  142.8632 LP  0  0  0  0  0  0  0  0  0  0  0  0  # atno 17320 bound_to 7965
  145.1207  140.9460  143.4602 LP  0  0  0  0  0  0  0  0  0  0  0  0  # atno 17321 bound_to 7965
  140.6391  143.2200  151.6330 LP  0  0  0  0  0  0  0  0  0  0  0  0  # atno 17342 bound_to 10162
  139.5217  144.3184  152.0932 LP  0  0  0  0  0  0  0  0  0  0  0  0  # atno 17343 bound_to 10162
  157.3967  130.7311  149.6737 LP  0  0  0  0  0  0  0  0  0  0  0  0  # atno 17370 bound_to 10713
  155.9726  130.4132  150.4069 LP  0  0  0  0  0  0  0  0  0  0  0  0  # atno 17371 bound_to 10713
  141.1709  133.8610  157.1573 LP  0  0  0  0  0  0  0  0  0  0  0  0  # atno 17394 bound_to 11000
  140.0076  135.0002  157.0325 LP  0  0  0  0  0  0  0  0  0  0  0  0  # atno 17395 bound_to 11000

$$$$
