AV-unprocessed.smi:1769|AV-procd|sdf|7153|dock7
  -GOLD-   22720 8393D 1   1.00000     0.00000
 Structure written by MMmdl.
 42 43  0  0  0  0  0  0  0  0  2 V2000
  150.3506  140.6830  156.8771 C   0  0  0  0  0  0  0  0  0  0  0  0
  149.9065  139.7716  155.7308 C   0  0  0  0  0  0  0  0  0  0  0  0
  150.1659  138.5708  155.8131 O   0  0  0  0  0  0  0  0  0  0  0  0
  149.2453  140.3073  154.6765 N   0  0  0  0  0  0  0  0  0  0  0  0
  148.8368  141.7127  154.5558 C   0  0  0  0  0  0  0  0  0  0  0  0
  147.3081  141.7955  154.7117 C   0  0  0  0  0  0  0  0  0  0  0  0
  146.6005  140.8931  153.6830 C   0  0  0  0  0  0  0  0  0  0  0  0
  147.1684  139.4535  153.6931 C   0  0  1  0  0  0  0  0  0  0  0  0
  146.5565  138.6077  152.5688 C   0  0  0  0  0  0  0  0  0  0  0  0
  146.5714  139.0143  151.4064 O   0  0  0  0  0  0  0  0  0  0  0  0
  146.0183  137.4316  152.9271 N   0  0  0  0  0  0  0  0  0  0  0  0
  145.3880  136.4897  152.0100 C   0  0  0  0  0  0  0  0  0  0  0  0
  145.8138  135.0428  152.3078 C   0  0  0  0  0  0  0  0  0  0  0  0
  145.2070  134.0561  151.3296 C   0  0  0  0  0  0  0  0  0  0  0  0
  146.0226  133.1152  150.6630 C   0  0  0  0  0  0  0  0  0  0  0  0
  145.4330  132.2051  149.7610 C   0  0  0  0  0  0  0  0  0  0  0  0
  144.0404  132.2561  149.5465 C   0  0  0  0  0  0  0  0  0  0  0  0
  143.2920  133.1704  150.2027 N   0  3  0  0  0  0  0  0  0  0  0  0
  143.8186  134.0590  151.0739 C   0  0  0  0  0  0  0  0  0  0  0  0
  148.7094  139.4916  153.5794 C   0  0  0  0  0  0  0  0  0  0  0  0
  149.4947  141.1913  157.3220 H   0  0  0  0  0  0  0  0  0  0  0  0
  151.0629  141.4290  156.5238 H   0  0  0  0  0  0  0  0  0  0  0  0
  150.8373  140.1035  157.6622 H   0  0  0  0  0  0  0  0  0  0  0  0
  149.3203  142.3728  155.2743 H   0  0  0  0  0  0  0  0  0  0  0  0
  149.1315  142.0876  153.5745 H   0  0  0  0  0  0  0  0  0  0  0  0
  147.0278  141.4908  155.7210 H   0  0  0  0  0  0  0  0  0  0  0  0
  146.9736  142.8267  154.5952 H   0  0  0  0  0  0  0  0  0  0  0  0
  145.5282  140.8785  153.8821 H   0  0  0  0  0  0  0  0  0  0  0  0
  146.7226  141.3342  152.6923 H   0  0  0  0  0  0  0  0  0  0  0  0
  146.9106  138.9939  154.6494 H   0  0  0  0  0  0  0  0  0  0  0  0
  146.0520  137.1709  153.9023 H   0  0  0  0  0  0  0  0  0  0  0  0
  144.3021  136.5884  152.0640 H   0  0  0  0  0  0  0  0  0  0  0  0
  145.6736  136.7613  150.9935 H   0  0  0  0  0  0  0  0  0  0  0  0
  146.9009  134.9587  152.2731 H   0  0  0  0  0  0  0  0  0  0  0  0
  145.5167  134.7602  153.3188 H   0  0  0  0  0  0  0  0  0  0  0  0
  147.0880  133.0887  150.8414 H   0  0  0  0  0  0  0  0  0  0  0  0
  146.0409  131.4781  149.2425 H   0  0  0  0  0  0  0  0  0  0  0  0
  143.5065  131.5984  148.8759 H   0  0  0  0  0  0  0  0  0  0  0  0
  143.1178  134.7384  151.5374 H   0  0  0  0  0  0  0  0  0  0  0  0
  149.0149  139.9301  152.6276 H   0  0  0  0  0  0  0  0  0  0  0  0
  149.1134  138.4778  153.5781 H   0  0  0  0  0  0  0  0  0  0  0  0
  142.2860  133.1898  150.0332 H   0  0  0  0  0  0  0  0  0  0  0  0
  1  2  1  0  0  0  0
  1 21  1  0  0  0  0
  1 22  1  0  0  0  0
  1 23  1  0  0  0  0
  2  3  2  0  0  0  0
  2  4  1  0  0  0  0
  4 20  1  0  0  0  0
  4  5  1  0  0  0  0
  5  6  1  0  0  0  0
  5 24  1  0  0  0  0
  5 25  1  0  0  0  0
  6  7  1  0  0  0  0
  6 26  1  0  0  0  0
  6 27  1  0  0  0  0
  7  8  1  0  0  0  0
  7 28  1  0  0  0  0
  7 29  1  0  0  0  0
  8  9  1  0  0  0  0
  8 20  1  0  0  0  0
  8 30  1  0  0  0  0
  9 10  2  0  0  0  0
  9 11  1  0  0  0  0
 11 12  1  0  0  0  0
 11 31  1  0  0  0  0
 12 13  1  0  0  0  0
 12 32  1  0  0  0  0
 12 33  1  0  0  0  0
 13 14  1  0  0  0  0
 13 34  1  0  0  0  0
 13 35  1  0  0  0  0
 14 19  1  0  0  0  0
 14 15  2  0  0  0  0
 15 16  1  0  0  0  0
 15 36  1  0  0  0  0
 16 17  2  0  0  0  0
 16 37  1  0  0  0  0
 17 18  1  0  0  0  0
 17 38  1  0  0  0  0
 18 19  2  0  0  0  0
 18 42  1  0  0  0  0
 19 39  1  0  0  0  0
 20 40  1  0  0  0  0
 20 41  1  0  0  0  0
M  CHG  1  18   1
M  END
> <s_m_source_file>
AV-unprocessed.smi

> <i_m_source_file_index>
1769

> <i_lp_mmshare_version>
43012

> <i_f3d_flags>
0

> <s_epik_input>
W0NIM11DKD1PKU4xW0NIMl1bQ0gyXVtDSDJdW0NASF0oW0NIMl0xKUMoPU8pW05IXVtDSDJdW0NIMl1jMltjSF1bY0hdW2NIXW5bY0hdMg==

> <s_epik_cmdline>
J2VwaWtfcHl0aG9uJywgJy1waCcsICc3LjAnLCAnLXRuJywgJzgnLCAnLW1hJywgJzIwMCcsICctbWV0YWxfYmluZGluZycsICctaW1hZScsICc8aW5maWxlLm1hZT4nLCAnLW9tYWUnLCAnPG91dGZpbGUubWFlPic=

> <r_epik_Ionization_Penalty>
2.25127

> <r_epik_Ionization_Penalty_Charging>
2.25127

> <r_epik_Ionization_Penalty_Neutral>
1.02261e-06

> <r_epik_State_Penalty>
2.39841

> <r_epik_Charging_Adjusted_Penalty>
4.64968

> <i_epik_Tot_Q>
1

> <i_epik_Tot_abs_Q>
1

> <r_epik_Metal_State_Penalty>
2.41159

> <b_epik_Metal_Only>
0

> <s_lp_Force_Field>
OPLS_2005

> <r_lp_Energy>
29.7946

> <b_lp_Chiralities_Consistent>
1

> <s_lp_Variant>
AV-unprocessed.smi:1769-3

> <Gold.Version>
5.8.1

> <Gold.Id.Protein>
6NUR|6NUR_protein|mol2

> <Gold.PLP.Fitness>
43.7491

> <Gold.PLP.PLP>
-36.1407

> <Gold.PLP.part.hbond>
-2.6710

> <Gold.PLP.part.metal>
0.0000

> <Gold.PLP.part.buried>
2.3709

> <Gold.PLP.part.nonpolar>
-38.0564

> <Gold.PLP.part.repulsive>
2.6156

> <Gold.PLP.ligand.clash>
0.0000

> <Gold.PLP.ligand.torsion>
0.3520

> <Gold.PLP.Chemscore.Hbond>
2.7603

> <Gold.PLP.Chemscore.CHOScore>
0.0000

> <Gold.PLP.Chemscore.Metal>
0.0000

> <Gold.Chemscore.Hbonds>
donor molecule, donor type, donor heavy atom, donor atom, acceptor molecule, acceptor atom, score
      L1  H    18    42       P1 10186  1.54

> <Gold.PLP.Chemscore.Internal.Correction>
0.0314

> <Gold.Rescore>
     Score         DG    S(hbond)    S(metal)    S(lipo)     H(rot)  DE(clash)    DE(int)     intcor
     14.97     -17.85       1.72        0.00      91.92       1.61       2.55       0.32       ----

> <Gold.Chemscore.Fitness>
14.9730

> <Gold.Chemscore.DG>
-17.8484

> <Gold.Chemscore.ZeroCoef>
-5.4800

> <Gold.Chemscore.Hbond>
1.7172

> <Gold.Chemscore.Metal>
0.0000

> <Gold.Chemscore.Lipo>
91.9198

> <Gold.Chemscore.Internal_Hbond>
0.0000

> <Gold.Chemscore.DEClash>
2.5526

> <Gold.Chemscore.DEInternal>
0.3227

> <Gold.Chemscore.Rot>
1.6100

> <Gold.Chemscore.Internal.Correction>
   9.000000E+99

> <Gold.Chemscore.Hbonds>
donor molecule, donor type, donor heavy atom, donor atom, acceptor molecule, acceptor atom, score
      L1  H    18    42       P1 10186  0.78
      P1  H  7954  7966       L1    10  0.03

> <Gold.Chemscore.Hbond.Weighted>
-5.7354

> <Gold.Chemscore.Metal.Weighted>
-0.0000

> <Gold.Chemscore.Lipo.Weighted>
-10.7546

> <Gold.Chemscore.Internal_Hbond.Weighted>
0.0000

> <Gold.Chemscore.DEClash.Weighted>
2.5526

> <Gold.Chemscore.DEInternal.Weighted>
0.3227

> <Gold.Chemscore.Rot.Weighted>
4.1216

> <Gold.Chemscore.Internal.Correction.Weighted>
   9.000000E+99

> <Gold.Protein.RotatedTorsions>
[ 6907 6896 6895 6894 ] final  -97.57 input  -60.11 | X-H torsion
[ 7974 7965 7964 7962 ] final  -74.22 input  175.53 | X-H torsion
[ 8008 7997 7996 7995 ] final   62.41 input   59.86 | X-H torsion
[ 10167 10162 10161 10158 ] final   20.90 input  -65.29 | X-H torsion
[ 10718 10713 10712 10709 ] final  -84.44 input   66.30 | X-H torsion
[ 10763 10752 10751 10750 ] final  -54.85 input  -60.55 | X-H torsion
[ 11005 11000 10999 10996 ] final  -64.69 input  -57.11 | X-H torsion

> <Gold.Protein.ActiveResidues>
 VAL166  LYS551  ARG553  GLY616  TRP617  ASP618  TYR619  PRO620  LYS621  CYS622 
 ASP623  PHE694  ASN695  SER759  ASP760  ASP761  ALA762  ILE779  LEU786  VAL792 
 PHE793  MET794  SER795  GLU796  ALA797  LYS798  CYS799  TRP800  GLU811  SER814 

> <Gold.Protein.RotatedAtoms>
  150.7020  134.1328  159.4075 H   0  0  0  0  0  0  0  0  0  0  0  0  # atno 6907 bound_to 6896
  151.9313  135.0252  160.0538 H   0  0  0  0  0  0  0  0  0  0  0  0  # atno 6908 bound_to 6896
  152.2173  133.4921  159.5179 H   0  0  0  0  0  0  0  0  0  0  0  0  # atno 6909 bound_to 6896
  145.6420  140.9308  143.1031 H   0  0  0  0  0  0  0  0  0  0  0  0  # atno 7974 bound_to 7965
  155.6139  140.3495  155.4631 H   0  0  0  0  0  0  0  0  0  0  0  0  # atno 8008 bound_to 7997
  156.0132  140.1238  157.0457 H   0  0  0  0  0  0  0  0  0  0  0  0  # atno 8009 bound_to 7997
  154.4288  140.1077  156.5845 H   0  0  0  0  0  0  0  0  0  0  0  0  # atno 8010 bound_to 7997
  140.5468  143.9580  150.6553 H   0  0  0  0  0  0  0  0  0  0  0  0  # atno 10167 bound_to 10162
  156.0006  130.4698  150.4410 H   0  0  0  0  0  0  0  0  0  0  0  0  # atno 10718 bound_to 10713
  154.1813  135.6443  153.5035 H   0  0  0  0  0  0  0  0  0  0  0  0  # atno 10763 bound_to 10752
  153.0058  135.5407  154.6511 H   0  0  0  0  0  0  0  0  0  0  0  0  # atno 10764 bound_to 10752
  154.5876  135.2931  155.0641 H   0  0  0  0  0  0  0  0  0  0  0  0  # atno 10765 bound_to 10752
  141.1432  133.6669  156.5871 H   0  0  0  0  0  0  0  0  0  0  0  0  # atno 11005 bound_to 11000
  144.7154  139.8217  143.7400 LP  0  0  0  0  0  0  0  0  0  0  0  0  # atno 17320 bound_to 7965
  146.1273  139.4302  143.0191 LP  0  0  0  0  0  0  0  0  0  0  0  0  # atno 17321 bound_to 7965
  140.2995  143.3270  152.0985 LP  0  0  0  0  0  0  0  0  0  0  0  0  # atno 17342 bound_to 10162
  139.5011  144.6705  151.6253 LP  0  0  0  0  0  0  0  0  0  0  0  0  # atno 17343 bound_to 10162
  157.2451  131.0534  151.2413 LP  0  0  0  0  0  0  0  0  0  0  0  0  # atno 17370 bound_to 10713
  157.3583  130.7118  149.6485 LP  0  0  0  0  0  0  0  0  0  0  0  0  # atno 17371 bound_to 10713
  140.3792  134.7538  157.4650 LP  0  0  0  0  0  0  0  0  0  0  0  0  # atno 17394 bound_to 11000
  140.0651  134.5941  155.8705 LP  0  0  0  0  0  0  0  0  0  0  0  0  # atno 17395 bound_to 11000

$$$$
