AV-unprocessed.smi:1374|AV-procd|sdf|5588|dock5
  -GOLD-   22720 5193D 1   1.00000     0.00000
 Structure written by MMmdl.
 42 43  0  0  0  0  0  0  0  0  2 V2000
  152.1672  144.5091  158.7931 C   0  0  0  0  0  0  0  0  0  0  0  0
  151.6176  143.8948  157.5014 C   0  0  0  0  0  0  0  0  0  0  0  0
  151.0462  142.4834  157.7158 C   0  0  0  0  0  0  0  0  0  0  0  0
  150.7132  141.7219  156.4139 C   0  0  0  0  0  0  0  0  0  0  0  0
  150.7300  140.2510  156.5860 N   0  0  0  0  0  0  0  0  0  0  0  0
  149.7434  139.6477  157.4117 C   0  0  0  0  0  0  0  0  0  0  0  0
  148.8084  140.4547  158.0443 N   0  0  0  0  0  0  0  0  0  0  0  0
  149.6958  138.2944  157.5388 C   0  0  0  0  0  0  0  0  0  0  0  0
  148.7267  137.6507  158.3393 N   0  0  0  0  0  0  0  0  0  0  0  0
  147.3254  137.8472  157.9517 C   0  0  0  0  0  0  0  0  0  0  0  0
  149.0078  136.9197  159.4581 C   0  0  0  0  0  0  0  0  0  0  0  0
  150.1640  136.5765  159.7168 O   0  0  0  0  0  0  0  0  0  0  0  0
  147.8861  136.6042  160.3486 C   0  0  0  0  0  0  0  0  0  0  0  0
  147.7876  135.3531  160.8532 C   0  0  0  0  0  0  0  0  0  0  0  0
  146.8105  134.9573  161.7327 O   0  0  0  0  0  0  0  0  0  0  0  0
  146.0303  136.0163  162.2758 C   0  0  0  0  0  0  0  0  0  0  0  0
  145.7334  137.0742  161.2037 C   0  0  0  0  0  0  0  0  0  0  0  0
  146.9531  137.5667  160.6639 O   0  0  0  0  0  0  0  0  0  0  0  0
  150.7183  137.4837  156.8629 C   0  0  0  0  0  0  0  0  0  0  0  0
  150.7330  136.2605  157.0023 O   0  0  0  0  0  0  0  0  0  0  0  0
  151.6333  138.1314  156.0957 N   0  5  0  0  0  0  0  0  0  0  0  0
  151.6599  139.4847  155.9352 C   0  0  0  0  0  0  0  0  0  0  0  0
  152.4958  140.0298  155.2132 O   0  0  0  0  0  0  0  0  0  0  0  0
  152.5559  145.5109  158.6104 H   0  0  0  0  0  0  0  0  0  0  0  0
  152.9779  143.9061  159.2026 H   0  0  0  0  0  0  0  0  0  0  0  0
  151.3890  144.5880  159.5528 H   0  0  0  0  0  0  0  0  0  0  0  0
  150.8446  144.5525  157.1036 H   0  0  0  0  0  0  0  0  0  0  0  0
  152.4096  143.8592  156.7529 H   0  0  0  0  0  0  0  0  0  0  0  0
  151.7662  141.8933  158.2836 H   0  0  0  0  0  0  0  0  0  0  0  0
  150.1581  142.5517  158.3440 H   0  0  0  0  0  0  0  0  0  0  0  0
  149.7572  142.0789  156.0287 H   0  0  0  0  0  0  0  0  0  0  0  0
  151.4189  142.0082  155.6336 H   0  0  0  0  0  0  0  0  0  0  0  0
  148.8121  141.4581  157.9323 H   0  0  0  0  0  0  0  0  0  0  0  0
  148.1652  140.0821  158.7277 H   0  0  0  0  0  0  0  0  0  0  0  0
  146.8376  136.8894  157.7659 H   0  0  0  0  0  0  0  0  0  0  0  0
  147.2317  138.4460  157.0447 H   0  0  0  0  0  0  0  0  0  0  0  0
  146.7761  138.3668  158.7382 H   0  0  0  0  0  0  0  0  0  0  0  0
  148.4783  134.5498  160.6399 H   0  0  0  0  0  0  0  0  0  0  0  0
  145.1023  135.6071  162.6753 H   0  0  0  0  0  0  0  0  0  0  0  0
  146.5699  136.4644  163.1112 H   0  0  0  0  0  0  0  0  0  0  0  0
  145.1282  136.6516  160.4003 H   0  0  0  0  0  0  0  0  0  0  0  0
  145.1695  137.9051  161.6279 H   0  0  0  0  0  0  0  0  0  0  0  0
  1  2  1  0  0  0  0
  1 24  1  0  0  0  0
  1 25  1  0  0  0  0
  1 26  1  0  0  0  0
  2  3  1  0  0  0  0
  2 27  1  0  0  0  0
  2 28  1  0  0  0  0
  3  4  1  0  0  0  0
  3 29  1  0  0  0  0
  3 30  1  0  0  0  0
  4  5  1  0  0  0  0
  4 31  1  0  0  0  0
  4 32  1  0  0  0  0
  5 22  1  0  0  0  0
  5  6  1  0  0  0  0
  6  7  1  0  0  0  0
  6  8  2  0  0  0  0
  7 33  1  0  0  0  0
  7 34  1  0  0  0  0
  8  9  1  0  0  0  0
  8 19  1  0  0  0  0
  9 10  1  0  0  0  0
  9 11  1  0  0  0  0
 10 35  1  0  0  0  0
 10 36  1  0  0  0  0
 10 37  1  0  0  0  0
 11 12  2  0  0  0  0
 11 13  1  0  0  0  0
 13 18  1  0  0  0  0
 13 14  2  0  0  0  0
 14 15  1  0  0  0  0
 14 38  1  0  0  0  0
 15 16  1  0  0  0  0
 16 17  1  0  0  0  0
 16 39  1  0  0  0  0
 16 40  1  0  0  0  0
 17 18  1  0  0  0  0
 17 41  1  0  0  0  0
 17 42  1  0  0  0  0
 19 20  2  0  0  0  0
 19 21  1  0  0  0  0
 21 22  1  0  0  0  0
 22 23  2  0  0  0  0
M  CHG  1  21  -1
M  END
> <s_m_source_file>
AV-unprocessed.smi

> <i_m_source_file_index>
1374

> <i_lp_mmshare_version>
43012

> <i_f3d_flags>
0

> <s_epik_input>
W0NIM11bQ0gyXVtDSDJdW0NIMl1uMWMoW05IMl0pYyhjKD1PKVtuSF1jMT1PKU4oW0NIM10pQyg9TylDMj1bQ0hdT1tDSDJdW0NIMl1PMg==

> <s_epik_cmdline>
J2VwaWtfcHl0aG9uJywgJy1waCcsICc3LjAnLCAnLXRuJywgJzgnLCAnLW1hJywgJzIwMCcsICctbWV0YWxfYmluZGluZycsICctaW1hZScsICc8aW5maWxlLm1hZT4nLCAnLW9tYWUnLCAnPG91dGZpbGUubWFlPic=

> <r_lp_tautomer_probability>
1

> <r_epik_Ionization_Penalty>
6.1831

> <r_epik_Ionization_Penalty_Charging>
0.183564

> <r_epik_Ionization_Penalty_Neutral>
5.99954

> <r_epik_State_Penalty>
5.99952

> <r_epik_Charging_Adjusted_Penalty>
6.18308

> <i_epik_Tot_Q>
-1

> <i_epik_Tot_abs_Q>
1

> <r_epik_Metal_State_Penalty>
1.93002

> <b_epik_Metal_Only>
1

> <s_epik_Chemistry_Notes>
This compound has an imine and may undergo hydrolysis.

> <s_lp_Force_Field>
OPLS_2005

> <r_lp_Energy>
38.087

> <b_lp_Chiralities_Consistent>
1

> <s_lp_Variant>
AV-unprocessed.smi:1374-2

> <Gold.Version>
5.8.1

> <Gold.Id.Protein>
6NUR|6NUR_protein|mol2

> <Gold.PLP.Fitness>
43.9236

> <Gold.PLP.PLP>
-34.2280

> <Gold.PLP.part.hbond>
-4.6108

> <Gold.PLP.part.metal>
0.0000

> <Gold.PLP.part.buried>
-3.6839

> <Gold.PLP.part.nonpolar>
-27.4920

> <Gold.PLP.part.repulsive>
0.2041

> <Gold.PLP.ligand.clash>
0.0000

> <Gold.PLP.ligand.torsion>
2.1693

> <Gold.PLP.Chemscore.Hbond>
3.5193

> <Gold.PLP.Chemscore.CHOScore>
0.0000

> <Gold.PLP.Chemscore.Metal>
0.0000

> <Gold.Chemscore.Hbonds>
donor molecule, donor type, donor heavy atom, donor atom, acceptor molecule, acceptor atom, score
      P1  H  6896  6908       L1    12  1.00
      P1  H  6934  6947       L1    18  0.91
      P1  H  7989  7998       L1    23  0.54
      P1  H  7997  8010       L1    23  0.88

> <Gold.PLP.Chemscore.Internal.Correction>
3.4763

> <Gold.Rescore>
     Score         DG    S(hbond)    S(metal)    S(lipo)     H(rot)  DE(clash)    DE(int)     intcor
     15.16     -20.13       3.15        0.00      67.39       1.47       0.02       4.94       ----

> <Gold.Chemscore.Fitness>
15.1624

> <Gold.Chemscore.DG>
-20.1287

> <Gold.Chemscore.ZeroCoef>
-5.4800

> <Gold.Chemscore.Hbond>
3.1532

> <Gold.Chemscore.Metal>
0.0000

> <Gold.Chemscore.Lipo>
67.3853

> <Gold.Chemscore.Internal_Hbond>
0.0000

> <Gold.Chemscore.DEClash>
0.0224

> <Gold.Chemscore.DEInternal>
4.9439

> <Gold.Chemscore.Rot>
1.4715

> <Gold.Chemscore.Internal.Correction>
   9.000000E+99

> <Gold.Chemscore.Hbonds>
donor molecule, donor type, donor heavy atom, donor atom, acceptor molecule, acceptor atom, score
      P1  H  6896  6908       L1    12  1.00
      P1  H  6934  6947       L1    18  0.74
      P1  H  7989  7998       L1    23  0.45
      P1  H  7997  8010       L1    23  0.83

> <Gold.Chemscore.Hbond.Weighted>
-10.5317

> <Gold.Chemscore.Metal.Weighted>
-0.0000

> <Gold.Chemscore.Lipo.Weighted>
-7.8841

> <Gold.Chemscore.Internal_Hbond.Weighted>
0.0000

> <Gold.Chemscore.DEClash.Weighted>
0.0224

> <Gold.Chemscore.DEInternal.Weighted>
4.9439

> <Gold.Chemscore.Rot.Weighted>
3.7671

> <Gold.Chemscore.Internal.Correction.Weighted>
   9.000000E+99

> <Gold.Protein.RotatedTorsions>
[ 6907 6896 6895 6894 ] final -164.18 input  -60.11 | X-H torsion
[ 7974 7965 7964 7962 ] final   35.54 input  175.53 | X-H torsion
[ 8008 7997 7996 7995 ] final  106.61 input   59.86 | X-H torsion
[ 10167 10162 10161 10158 ] final   20.19 input  -65.29 | X-H torsion
[ 10718 10713 10712 10709 ] final  139.57 input   66.30 | X-H torsion
[ 10763 10752 10751 10750 ] final   84.64 input  -60.55 | X-H torsion
[ 11005 11000 10999 10996 ] final    1.62 input  -57.11 | X-H torsion

> <Gold.Protein.ActiveResidues>
 VAL166  LYS551  ARG553  GLY616  TRP617  ASP618  TYR619  PRO620  LYS621  CYS622 
 ASP623  PHE694  ASN695  SER759  ASP760  ASP761  ALA762  ILE779  LEU786  VAL792 
 PHE793  MET794  SER795  GLU796  ALA797  LYS798  CYS799  TRP800  GLU811  SER814 

> <Gold.Protein.RotatedAtoms>
  151.4078  133.3737  159.2739 H   0  0  0  0  0  0  0  0  0  0  0  0  # atno 6907 bound_to 6896
  150.9386  134.8798  159.7608 H   0  0  0  0  0  0  0  0  0  0  0  0  # atno 6908 bound_to 6896
  152.5061  134.4027  159.9474 H   0  0  0  0  0  0  0  0  0  0  0  0  # atno 6909 bound_to 6896
  146.1276  139.6130  142.9248 H   0  0  0  0  0  0  0  0  0  0  0  0  # atno 7974 bound_to 7965
  156.1757  140.3109  155.9055 H   0  0  0  0  0  0  0  0  0  0  0  0  # atno 8008 bound_to 7997
  155.3492  140.0470  157.3063 H   0  0  0  0  0  0  0  0  0  0  0  0  # atno 8009 bound_to 7997
  154.5288  140.2223  155.8852 H   0  0  0  0  0  0  0  0  0  0  0  0  # atno 8010 bound_to 7997
  140.5522  143.9489  150.6585 H   0  0  0  0  0  0  0  0  0  0  0  0  # atno 10167 bound_to 10162
  157.4129  131.1030  151.0435 H   0  0  0  0  0  0  0  0  0  0  0  0  # atno 10718 bound_to 10713
  153.1400  135.4647  154.9481 H   0  0  0  0  0  0  0  0  0  0  0  0  # atno 10763 bound_to 10752
  154.7739  135.3167  154.8135 H   0  0  0  0  0  0  0  0  0  0  0  0  # atno 10764 bound_to 10752
  153.8660  135.6908  153.4832 H   0  0  0  0  0  0  0  0  0  0  0  0  # atno 10765 bound_to 10752
  140.6134  133.9727  155.8188 H   0  0  0  0  0  0  0  0  0  0  0  0  # atno 11005 bound_to 11000
  145.5331  141.0426  143.2372 LP  0  0  0  0  0  0  0  0  0  0  0  0  # atno 17320 bound_to 7965
  144.7658  139.6849  143.7215 LP  0  0  0  0  0  0  0  0  0  0  0  0  # atno 17321 bound_to 7965
  140.2917  143.3319  152.1056 LP  0  0  0  0  0  0  0  0  0  0  0  0  # atno 17342 bound_to 10162
  139.5032  144.6751  151.6149 LP  0  0  0  0  0  0  0  0  0  0  0  0  # atno 17343 bound_to 10162
  157.1393  130.6136  149.5551 LP  0  0  0  0  0  0  0  0  0  0  0  0  # atno 17370 bound_to 10713
  155.9856  130.4887  150.7040 LP  0  0  0  0  0  0  0  0  0  0  0  0  # atno 17371 bound_to 10713
  141.0792  134.0088  157.3411 LP  0  0  0  0  0  0  0  0  0  0  0  0  # atno 17394 bound_to 11000
  139.9183  135.0198  156.7966 LP  0  0  0  0  0  0  0  0  0  0  0  0  # atno 17395 bound_to 11000

$$$$
