AV-unprocessed.smi:3346|AV-procd|sdf|12908|dock3
  -GOLD-   2272019323D 1   1.00000     0.00000
 Structure written by MMmdl.
 48 49  0  0  0  0  0  0  0  0  2 V2000
  152.9095  143.4908  159.7706 C   0  0  0  0  0  0  0  0  0  0  0  0
  152.0197  144.5246  159.0636 C   0  0  0  0  0  0  0  0  0  0  0  0
  151.5709  145.6097  160.0571 C   0  0  0  0  0  0  0  0  0  0  0  0
  150.8294  143.8256  158.3683 C   0  0  0  0  0  0  0  0  0  0  0  0
  151.1861  142.6260  157.4572 C   0  0  1  0  0  0  0  0  0  0  0  0
  151.4521  141.3383  158.2528 C   0  0  0  0  0  0  0  0  0  0  0  0
  150.1053  142.3635  156.4807 N   0  3  0  0  0  0  0  0  0  0  0  0
  150.4186  141.3678  155.4338 C   0  0  0  0  0  0  0  0  0  0  0  0
  149.1407  140.8708  154.7761 C   0  0  0  0  0  0  0  0  0  0  0  0
  148.2720  141.7882  154.1473 C   0  0  0  0  0  0  0  0  0  0  0  0
  147.0848  141.3150  153.5595 C   0  0  0  0  0  0  0  0  0  0  0  0
  146.8102  139.9364  153.6248 C   0  0  0  0  0  0  0  0  0  0  0  0
  147.6300  139.0480  154.2247 N   0  0  0  0  0  0  0  0  0  0  0  0
  148.7751  139.4990  154.7907 C   0  0  0  0  0  0  0  0  0  0  0  0
  149.6126  138.5539  155.4075 N   0  0  0  0  0  0  0  0  0  0  0  0
  150.9149  138.3384  154.7875 C   0  0  0  0  0  0  0  0  0  0  0  0
  151.6084  137.1344  155.4479 C   0  0  0  0  0  0  0  0  0  0  0  0
  151.7031  137.3497  156.8537 O   0  0  0  0  0  0  0  0  0  0  0  0
  150.4245  137.5013  157.4648 C   0  0  0  0  0  0  0  0  0  0  0  0
  149.7000  138.7125  156.8529 C   0  0  0  0  0  0  0  0  0  0  0  0
  152.3620  142.9632  160.5524 H   0  0  0  0  0  0  0  0  0  0  0  0
  153.7739  143.9669  160.2347 H   0  0  0  0  0  0  0  0  0  0  0  0
  153.2859  142.7472  159.0674 H   0  0  0  0  0  0  0  0  0  0  0  0
  152.6400  145.0011  158.3050 H   0  0  0  0  0  0  0  0  0  0  0  0
  150.9066  145.2001  160.8186 H   0  0  0  0  0  0  0  0  0  0  0  0
  151.0472  146.4238  159.5568 H   0  0  0  0  0  0  0  0  0  0  0  0
  152.4278  146.0507  160.5678 H   0  0  0  0  0  0  0  0  0  0  0  0
  150.1260  143.4855  159.1300 H   0  0  0  0  0  0  0  0  0  0  0  0
  150.2941  144.5779  157.7890 H   0  0  0  0  0  0  0  0  0  0  0  0
  152.0866  142.8516  156.8857 H   0  0  0  0  0  0  0  0  0  0  0  0
  152.3282  141.4344  158.8939 H   0  0  0  0  0  0  0  0  0  0  0  0
  151.6404  140.4978  157.5836 H   0  0  0  0  0  0  0  0  0  0  0  0
  150.6017  141.0765  158.8833 H   0  0  0  0  0  0  0  0  0  0  0  0
  149.3217  141.9970  157.0023 H   0  0  0  0  0  0  0  0  0  0  0  0
  151.0735  141.8120  154.6839 H   0  0  0  0  0  0  0  0  0  0  0  0
  150.9598  140.5233  155.8608 H   0  0  0  0  0  0  0  0  0  0  0  0
  148.5078  142.8418  154.1163 H   0  0  0  0  0  0  0  0  0  0  0  0
  146.3997  141.9922  153.0712 H   0  0  0  0  0  0  0  0  0  0  0  0
  145.9083  139.5367  153.1854 H   0  0  0  0  0  0  0  0  0  0  0  0
  150.7927  138.1630  153.7180 H   0  0  0  0  0  0  0  0  0  0  0  0
  151.5333  139.2297  154.9030 H   0  0  0  0  0  0  0  0  0  0  0  0
  151.0603  136.2123  155.2474 H   0  0  0  0  0  0  0  0  0  0  0  0
  152.6106  137.0059  155.0392 H   0  0  0  0  0  0  0  0  0  0  0  0
  149.8373  136.5907  157.3336 H   0  0  0  0  0  0  0  0  0  0  0  0
  150.5570  137.6440  158.5374 H   0  0  0  0  0  0  0  0  0  0  0  0
  150.2454  139.6292  157.0825 H   0  0  0  0  0  0  0  0  0  0  0  0
  148.7058  138.8154  157.2883 H   0  0  0  0  0  0  0  0  0  0  0  0
  149.8219  143.2311  156.0485 H   0  0  0  0  0  0  0  0  0  0  0  0
  1  2  1  0  0  0  0
  1 21  1  0  0  0  0
  1 22  1  0  0  0  0
  1 23  1  0  0  0  0
  2  3  1  0  0  0  0
  2  4  1  0  0  0  0
  2 24  1  0  0  0  0
  3 25  1  0  0  0  0
  3 26  1  0  0  0  0
  3 27  1  0  0  0  0
  4  5  1  0  0  0  0
  4 28  1  0  0  0  0
  4 29  1  0  0  0  0
  5  6  1  0  0  0  0
  5  7  1  0  0  0  0
  5 30  1  0  0  0  0
  6 31  1  0  0  0  0
  6 32  1  0  0  0  0
  6 33  1  0  0  0  0
  7  8  1  0  0  0  0
  7 34  1  0  0  0  0
  7 48  1  0  0  0  0
  8  9  1  0  0  0  0
  8 35  1  0  0  0  0
  8 36  1  0  0  0  0
  9 14  1  0  0  0  0
  9 10  2  0  0  0  0
 10 11  1  0  0  0  0
 10 37  1  0  0  0  0
 11 12  2  0  0  0  0
 11 38  1  0  0  0  0
 12 13  1  0  0  0  0
 12 39  1  0  0  0  0
 13 14  2  0  0  0  0
 14 15  1  0  0  0  0
 15 20  1  0  0  0  0
 15 16  1  0  0  0  0
 16 17  1  0  0  0  0
 16 40  1  0  0  0  0
 16 41  1  0  0  0  0
 17 18  1  0  0  0  0
 17 42  1  0  0  0  0
 17 43  1  0  0  0  0
 18 19  1  0  0  0  0
 19 20  1  0  0  0  0
 19 44  1  0  0  0  0
 19 45  1  0  0  0  0
 20 46  1  0  0  0  0
 20 47  1  0  0  0  0
M  CHG  1   7   1
M  END
> <s_m_source_file>
AV-unprocessed.smi

> <i_m_source_file_index>
3346

> <i_lp_mmshare_version>
43012

> <i_f3d_flags>
0

> <s_epik_input>
W0NIM11bQ0hdKFtDSDNdKVtDSDJdW0NASF0oW0NIM10pW05IXVtDSDJdYzFbY0hdW2NIXVtjSF1uYzFOMltDSDJdW0NIMl1PW0NIMl1bQ0gyXTI=

> <s_epik_cmdline>
J2VwaWtfcHl0aG9uJywgJy1waCcsICc3LjAnLCAnLXRuJywgJzgnLCAnLW1hJywgJzIwMCcsICctbWV0YWxfYmluZGluZycsICctaW1hZScsICc8aW5maWxlLm1hZT4nLCAnLW9tYWUnLCAnPG91dGZpbGUubWFlPic=

> <r_lp_tautomer_probability>
1

> <r_epik_Ionization_Penalty>
0.0185938

> <r_epik_Ionization_Penalty_Charging>
0.0176519

> <r_epik_Ionization_Penalty_Neutral>
0.000941891

> <r_epik_State_Penalty>
0.0140027

> <r_epik_Charging_Adjusted_Penalty>
0.0316546

> <i_epik_Tot_Q>
1

> <i_epik_Tot_abs_Q>
1

> <r_epik_Metal_State_Penalty>
0.0141454

> <b_epik_Metal_Only>
0

> <s_lp_Force_Field>
OPLS_2005

> <r_lp_Energy>
23.7399

> <b_lp_Chiralities_Consistent>
1

> <s_lp_Variant>
AV-unprocessed.smi:3346-2

> <Gold.Version>
5.8.1

> <Gold.Id.Protein>
6NUR|6NUR_protein|mol2

> <Gold.PLP.Fitness>
46.9205

> <Gold.PLP.PLP>
-38.4972

> <Gold.PLP.part.hbond>
-1.0000

> <Gold.PLP.part.metal>
0.0000

> <Gold.PLP.part.buried>
-2.9807

> <Gold.PLP.part.nonpolar>
-34.4508

> <Gold.PLP.part.repulsive>
0.2715

> <Gold.PLP.ligand.clash>
0.0000

> <Gold.PLP.ligand.torsion>
0.4055

> <Gold.PLP.Chemscore.Hbond>
2.0000

> <Gold.PLP.Chemscore.CHOScore>
1.0000

> <Gold.PLP.Chemscore.Metal>
0.0000

> <Gold.Chemscore.Hbonds>
donor molecule, donor type, donor heavy atom, donor atom, acceptor molecule, acceptor atom, score
      L1  H     7    48       P1  8028  2.00
      L1  C    12    39       P1 10175  1.00

> <Gold.PLP.Chemscore.Internal.Correction>
0.2343

> <Gold.Rescore>
     Score         DG    S(hbond)    S(metal)    S(lipo)     H(rot)  DE(clash)    DE(int)     intcor
     17.06     -18.81       1.00        0.00     121.10       1.62       0.23       1.53       ----

> <Gold.Chemscore.Fitness>
17.0554

> <Gold.Chemscore.DG>
-18.8138

> <Gold.Chemscore.ZeroCoef>
-5.4800

> <Gold.Chemscore.Hbond>
0.9953

> <Gold.Chemscore.Metal>
0.0000

> <Gold.Chemscore.Lipo>
121.1027

> <Gold.Chemscore.Internal_Hbond>
0.0000

> <Gold.Chemscore.DEClash>
0.2292

> <Gold.Chemscore.DEInternal>
1.5292

> <Gold.Chemscore.Rot>
1.6248

> <Gold.Chemscore.Internal.Correction>
   9.000000E+99

> <Gold.Chemscore.Hbonds>
donor molecule, donor type, donor heavy atom, donor atom, acceptor molecule, acceptor atom, score
      L1  H     7    48       P1  8028  1.00

> <Gold.Chemscore.Hbond.Weighted>
-3.3244

> <Gold.Chemscore.Metal.Weighted>
-0.0000

> <Gold.Chemscore.Lipo.Weighted>
-14.1690

> <Gold.Chemscore.Internal_Hbond.Weighted>
0.0000

> <Gold.Chemscore.DEClash.Weighted>
0.2292

> <Gold.Chemscore.DEInternal.Weighted>
1.5292

> <Gold.Chemscore.Rot.Weighted>
4.1596

> <Gold.Chemscore.Internal.Correction.Weighted>
   9.000000E+99

> <Gold.Protein.RotatedTorsions>
[ 6907 6896 6895 6894 ] final  113.26 input  -60.11 | X-H torsion
[ 7974 7965 7964 7962 ] final   -8.23 input  175.53 | X-H torsion
[ 8008 7997 7996 7995 ] final    1.29 input   59.86 | X-H torsion
[ 10167 10162 10161 10158 ] final   89.83 input  -65.29 | X-H torsion
[ 10718 10713 10712 10709 ] final   21.39 input   66.30 | X-H torsion
[ 10763 10752 10751 10750 ] final  -23.26 input  -60.55 | X-H torsion
[ 11005 11000 10999 10996 ] final   60.06 input  -57.11 | X-H torsion

> <Gold.Protein.ActiveResidues>
 VAL166  LYS551  ARG553  GLY616  TRP617  ASP618  TYR619  PRO620  LYS621  CYS622 
 ASP623  PHE694  ASN695  SER759  ASP760  ASP761  ALA762  ILE779  LEU786  VAL792 
 PHE793  MET794  SER795  GLU796  ALA797  LYS798  CYS799  TRP800  GLU811  SER814 

> <Gold.Protein.RotatedAtoms>
  152.4871  133.8401  159.7147 H   0  0  0  0  0  0  0  0  0  0  0  0  # atno 6907 bound_to 6896
  150.8967  133.7163  159.2896 H   0  0  0  0  0  0  0  0  0  0  0  0  # atno 6908 bound_to 6896
  151.4618  135.1043  159.9779 H   0  0  0  0  0  0  0  0  0  0  0  0  # atno 6909 bound_to 6896
  146.2286  140.2437  142.8344 H   0  0  0  0  0  0  0  0  0  0  0  0  # atno 7974 bound_to 7965
  154.6780  140.2626  155.6937 H   0  0  0  0  0  0  0  0  0  0  0  0  # atno 8008 bound_to 7997
  156.2686  140.2816  156.1237 H   0  0  0  0  0  0  0  0  0  0  0  0  # atno 8009 bound_to 7997
  155.1072  140.0375  157.2704 H   0  0  0  0  0  0  0  0  0  0  0  0  # atno 8010 bound_to 7997
  139.8533  144.6582  150.9143 H   0  0  0  0  0  0  0  0  0  0  0  0  # atno 10167 bound_to 10162
  157.1378  130.6619  149.5971 H   0  0  0  0  0  0  0  0  0  0  0  0  # atno 10718 bound_to 10713
  153.6651  135.6974  153.5165 H   0  0  0  0  0  0  0  0  0  0  0  0  # atno 10763 bound_to 10752
  153.2601  135.4247  155.0885 H   0  0  0  0  0  0  0  0  0  0  0  0  # atno 10764 bound_to 10752
  154.8442  135.3553  154.6195 H   0  0  0  0  0  0  0  0  0  0  0  0  # atno 10765 bound_to 10752
  140.0258  134.6084  155.9574 H   0  0  0  0  0  0  0  0  0  0  0  0  # atno 11005 bound_to 11000
  144.9464  140.8133  143.5598 LP  0  0  0  0  0  0  0  0  0  0  0  0  # atno 17320 bound_to 7965
  145.2394  139.2079  143.5001 LP  0  0  0  0  0  0  0  0  0  0  0  0  # atno 17321 bound_to 7965
  140.7784  143.3807  151.1481 LP  0  0  0  0  0  0  0  0  0  0  0  0  # atno 17342 bound_to 10162
  139.7444  143.8875  152.3059 LP  0  0  0  0  0  0  0  0  0  0  0  0  # atno 17343 bound_to 10162
  155.9794  130.4788  150.6716 LP  0  0  0  0  0  0  0  0  0  0  0  0  # atno 17370 bound_to 10713
  157.4334  131.0852  151.1016 LP  0  0  0  0  0  0  0  0  0  0  0  0  # atno 17371 bound_to 10713
  141.1802  133.6545  156.4989 LP  0  0  0  0  0  0  0  0  0  0  0  0  # atno 17394 bound_to 11000
  140.4308  134.7103  157.4941 LP  0  0  0  0  0  0  0  0  0  0  0  0  # atno 17395 bound_to 11000

$$$$
