AV-unprocessed.smi:707|AV-procd|sdf|3454|dock7
  -GOLD-   22720 0443D 1   1.00000     0.00000
 Structure written by MMmdl.
 44 45  0  0  0  0  0  0  0  0  1 V2000
  151.3657  138.5415  157.5419 C   0  0  0  0  0  0  0  0  0  0  0  0
  151.0191  138.8059  156.1126 C   0  0  0  0  0  0  0  0  0  0  0  0
  151.4051  139.8987  155.4438 N   0  0  0  0  0  0  0  0  0  0  0  0
  150.8848  139.7584  154.1720 N   0  0  0  0  0  0  0  0  0  0  0  0
  150.2364  138.5946  154.2015 C   0  0  0  0  0  0  0  0  0  0  0  0
  150.2794  137.9507  155.3777 N   0  0  0  0  0  0  0  0  0  0  0  0
  149.6857  136.6751  155.7328 C   0  0  0  0  0  0  0  0  0  0  0  0
  150.2606  135.5317  154.8860 C   0  0  0  0  0  0  0  0  0  0  0  0
  149.1926  134.7997  154.2208 N   0  0  0  0  0  0  0  0  0  0  0  0
  148.8141  133.5542  154.5422 C   0  0  0  0  0  0  0  0  0  0  0  0
  149.3358  132.9009  155.4453 O   0  0  0  0  0  0  0  0  0  0  0  0
  147.6619  132.9590  153.7352 C   0  0  0  0  0  0  0  0  0  0  0  0
  148.0450  132.8858  152.3683 O   0  0  0  0  0  0  0  0  0  0  0  0
  146.9579  132.8813  151.4514 C   0  0  1  0  0  0  0  0  0  0  0  0
  146.0443  131.7030  151.8291 C   0  0  0  0  0  0  0  0  0  0  0  0
  144.7953  131.6554  150.9362 C   0  0  0  0  0  0  0  0  0  0  0  0
  144.0215  132.9817  150.9942 C   0  0  0  0  0  0  0  0  0  0  0  0
  144.9194  134.1767  150.6200 C   0  0  1  0  0  0  0  0  0  0  0  0
  144.1463  135.5017  150.6877 C   0  0  0  0  0  0  0  0  0  0  0  0
  146.1760  134.2111  151.5125 C   0  0  0  0  0  0  0  0  0  0  0  0
  152.0540  139.3009  157.9140 H   0  0  0  0  0  0  0  0  0  0  0  0
  151.8424  137.5666  157.6427 H   0  0  0  0  0  0  0  0  0  0  0  0
  150.4652  138.5593  158.1558 H   0  0  0  0  0  0  0  0  0  0  0  0
  149.7164  138.2007  153.3406 H   0  0  0  0  0  0  0  0  0  0  0  0
  149.8536  136.4916  156.7946 H   0  0  0  0  0  0  0  0  0  0  0  0
  148.6062  136.7456  155.5921 H   0  0  0  0  0  0  0  0  0  0  0  0
  150.9458  135.9264  154.1341 H   0  0  0  0  0  0  0  0  0  0  0  0
  150.8329  134.8491  155.5163 H   0  0  0  0  0  0  0  0  0  0  0  0
  148.7122  135.2643  153.4641 H   0  0  0  0  0  0  0  0  0  0  0  0
  147.4174  131.9728  154.1300 H   0  0  0  0  0  0  0  0  0  0  0  0
  146.7824  133.5938  153.8527 H   0  0  0  0  0  0  0  0  0  0  0  0
  147.3292  132.7160  150.4381 H   0  0  0  0  0  0  0  0  0  0  0  0
  146.5936  130.7647  151.7465 H   0  0  0  0  0  0  0  0  0  0  0  0
  145.7408  131.7924  152.8733 H   0  0  0  0  0  0  0  0  0  0  0  0
  145.0891  131.4469  149.9068 H   0  0  0  0  0  0  0  0  0  0  0  0
  144.1480  130.8344  151.2455 H   0  0  0  0  0  0  0  0  0  0  0  0
  143.1642  132.9335  150.3219 H   0  0  0  0  0  0  0  0  0  0  0  0
  143.6186  133.1224  151.9982 H   0  0  0  0  0  0  0  0  0  0  0  0
  145.2462  134.0404  149.5880 H   0  0  0  0  0  0  0  0  0  0  0  0
  143.7848  135.6992  151.6974 H   0  0  0  0  0  0  0  0  0  0  0  0
  143.2831  135.4874  150.0217 H   0  0  0  0  0  0  0  0  0  0  0  0
  144.7771  136.3399  150.3900 H   0  0  0  0  0  0  0  0  0  0  0  0
  145.8877  134.4154  152.5446 H   0  0  0  0  0  0  0  0  0  0  0  0
  146.8123  135.0393  151.2015 H   0  0  0  0  0  0  0  0  0  0  0  0
  1  2  1  0  0  0  0
  1 21  1  0  0  0  0
  1 22  1  0  0  0  0
  1 23  1  0  0  0  0
  2  6  1  0  0  0  0
  2  3  2  0  0  0  0
  3  4  1  0  0  0  0
  4  5  2  0  0  0  0
  5  6  1  0  0  0  0
  5 24  1  0  0  0  0
  6  7  1  0  0  0  0
  7  8  1  0  0  0  0
  7 25  1  0  0  0  0
  7 26  1  0  0  0  0
  8  9  1  0  0  0  0
  8 27  1  0  0  0  0
  8 28  1  0  0  0  0
  9 10  1  0  0  0  0
  9 29  1  0  0  0  0
 10 11  2  0  0  0  0
 10 12  1  0  0  0  0
 12 13  1  0  0  0  0
 12 30  1  0  0  0  0
 12 31  1  0  0  0  0
 13 14  1  0  0  0  0
 14 20  1  0  0  0  0
 14 15  1  0  0  0  0
 14 32  1  0  0  0  0
 15 16  1  0  0  0  0
 15 33  1  0  0  0  0
 15 34  1  0  0  0  0
 16 17  1  0  0  0  0
 16 35  1  0  0  0  0
 16 36  1  0  0  0  0
 17 18  1  0  0  0  0
 17 37  1  0  0  0  0
 17 38  1  0  0  0  0
 18 19  1  0  0  0  0
 18 20  1  0  0  0  0
 18 39  1  0  0  0  0
 19 40  1  0  0  0  0
 19 41  1  0  0  0  0
 19 42  1  0  0  0  0
 20 43  1  0  0  0  0
 20 44  1  0  0  0  0
M  END
> <s_m_source_file>
AV-unprocessed.smi

> <i_m_source_file_index>
707

> <i_lp_mmshare_version>
43012

> <i_f3d_flags>
0

> <s_epik_input>
W0NIM11jMW5uW2NIXW4xW0NIMl1bQ0gyXVtOSF1DKD1PKVtDSDJdT1tDQEBIXTJbQ0gyXVtDSDJdW0NIMl1bQ0BASF0oW0NIM10pW0NIMl0y

> <s_epik_cmdline>
J2VwaWtfcHl0aG9uJywgJy1waCcsICc3LjAnLCAnLXRuJywgJzgnLCAnLW1hJywgJzIwMCcsICctbWV0YWxfYmluZGluZycsICctaW1hZScsICc8aW5maWxlLm1hZT4nLCAnLW9tYWUnLCAnPG91dGZpbGUubWFlPic=

> <r_lp_tautomer_probability>
1

> <r_epik_Ionization_Penalty>
0.000271783

> <r_epik_Ionization_Penalty_Charging>
0

> <r_epik_Ionization_Penalty_Neutral>
0.000271783

> <r_epik_State_Penalty>
-0

> <r_epik_Charging_Adjusted_Penalty>
0

> <i_epik_Tot_Q>
0

> <i_epik_Tot_abs_Q>
0

> <r_epik_Metal_State_Penalty>
-0

> <b_epik_Metal_Only>
0

> <s_lp_Force_Field>
OPLS_2005

> <r_lp_Energy>
13.3019

> <b_lp_Chiralities_Consistent>
1

> <s_lp_Variant>
AV-unprocessed.smi:707-2

> <Gold.Version>
5.8.1

> <Gold.Id.Protein>
6NUR|6NUR_protein|mol2

> <Gold.PLP.Fitness>
38.9874

> <Gold.PLP.PLP>
-31.1142

> <Gold.PLP.part.hbond>
-2.5758

> <Gold.PLP.part.metal>
0.0000

> <Gold.PLP.part.buried>
-3.0659

> <Gold.PLP.part.nonpolar>
-26.8042

> <Gold.PLP.part.repulsive>
1.6883

> <Gold.PLP.ligand.clash>
0.0000

> <Gold.PLP.ligand.torsion>
0.5686

> <Gold.PLP.Chemscore.Hbond>
1.8480

> <Gold.PLP.Chemscore.CHOScore>
1.1313

> <Gold.PLP.Chemscore.Metal>
0.0000

> <Gold.Chemscore.Hbonds>
donor molecule, donor type, donor heavy atom, donor atom, acceptor molecule, acceptor atom, score
      L1  H     9    29       P1  7948  0.86
      P1  H  7989  7998       L1     4  0.86
      L1  C     5    24       P1  7948  0.98
      L1  C     5    24       P1  7957  0.16

> <Gold.PLP.Chemscore.Internal.Correction>
0.0722

> <Gold.Rescore>
     Score         DG    S(hbond)    S(metal)    S(lipo)     H(rot)  DE(clash)    DE(int)     intcor
     12.18     -12.79       1.76        0.00      65.11       2.42       0.10       0.51       ----

> <Gold.Chemscore.Fitness>
12.1755

> <Gold.Chemscore.DG>
-12.7887

> <Gold.Chemscore.ZeroCoef>
-5.4800

> <Gold.Chemscore.Hbond>
1.7616

> <Gold.Chemscore.Metal>
0.0000

> <Gold.Chemscore.Lipo>
65.1110

> <Gold.Chemscore.Internal_Hbond>
0.0000

> <Gold.Chemscore.DEClash>
0.1035

> <Gold.Chemscore.DEInternal>
0.5097

> <Gold.Chemscore.Rot>
2.4191

> <Gold.Chemscore.Internal.Correction>
   9.000000E+99

> <Gold.Chemscore.Hbonds>
donor molecule, donor type, donor heavy atom, donor atom, acceptor molecule, acceptor atom, score
      L1  H     9    29       P1  7948  0.70
      P1  H  7989  7998       L1     4  0.19

> <Gold.Chemscore.Hbond.Weighted>
-5.8836

> <Gold.Chemscore.Metal.Weighted>
-0.0000

> <Gold.Chemscore.Lipo.Weighted>
-7.6180

> <Gold.Chemscore.Internal_Hbond.Weighted>
0.0000

> <Gold.Chemscore.DEClash.Weighted>
0.1035

> <Gold.Chemscore.DEInternal.Weighted>
0.5097

> <Gold.Chemscore.Rot.Weighted>
6.1929

> <Gold.Chemscore.Internal.Correction.Weighted>
   9.000000E+99

> <Gold.Protein.RotatedTorsions>
[ 6907 6896 6895 6894 ] final  133.42 input  -60.11 | X-H torsion
[ 7974 7965 7964 7962 ] final  -45.72 input  175.53 | X-H torsion
[ 8008 7997 7996 7995 ] final -111.09 input   59.86 | X-H torsion
[ 10167 10162 10161 10158 ] final   48.24 input  -65.29 | X-H torsion
[ 10718 10713 10712 10709 ] final  -21.25 input   66.30 | X-H torsion
[ 10763 10752 10751 10750 ] final -101.34 input  -60.55 | X-H torsion
[ 11005 11000 10999 10996 ] final  160.93 input  -57.11 | X-H torsion

> <Gold.Protein.ActiveResidues>
 VAL166  LYS551  ARG553  GLY616  TRP617  ASP618  TYR619  PRO620  LYS621  CYS622 
 ASP623  PHE694  ASN695  SER759  ASP760  ASP761  ALA762  ILE779  LEU786  VAL792 
 PHE793  MET794  SER795  GLU796  ALA797  LYS798  CYS799  TRP800  GLU811  SER814 

> <Gold.Protein.RotatedAtoms>
  152.3221  133.5865  159.5751 H   0  0  0  0  0  0  0  0  0  0  0  0  # atno 6907 bound_to 6896
  150.7377  133.9995  159.3642 H   0  0  0  0  0  0  0  0  0  0  0  0  # atno 6908 bound_to 6896
  151.7879  135.0744  160.0434 H   0  0  0  0  0  0  0  0  0  0  0  0  # atno 6909 bound_to 6896
  145.9792  140.7302  142.9372 H   0  0  0  0  0  0  0  0  0  0  0  0  # atno 7974 bound_to 7965
  154.9845  140.0396  157.2292 H   0  0  0  0  0  0  0  0  0  0  0  0  # atno 8008 bound_to 7997
  154.7684  140.2797  155.6135 H   0  0  0  0  0  0  0  0  0  0  0  0  # atno 8009 bound_to 7997
  156.2916  140.2615  156.2480 H   0  0  0  0  0  0  0  0  0  0  0  0  # atno 8010 bound_to 7997
  140.2954  144.2997  150.6231 H   0  0  0  0  0  0  0  0  0  0  0  0  # atno 10167 bound_to 10162
  156.5207  130.4632  149.6598 H   0  0  0  0  0  0  0  0  0  0  0  0  # atno 10718 bound_to 10713
  154.7650  135.4901  153.9537 H   0  0  0  0  0  0  0  0  0  0  0  0  # atno 10763 bound_to 10752
  153.1297  135.6750  153.9207 H   0  0  0  0  0  0  0  0  0  0  0  0  # atno 10764 bound_to 10752
  153.8914  135.3120  155.3426 H   0  0  0  0  0  0  0  0  0  0  0  0  # atno 10765 bound_to 10752
  140.2108  134.8269  157.3118 H   0  0  0  0  0  0  0  0  0  0  0  0  # atno 11005 bound_to 11000
  144.6857  140.2879  143.7282 LP  0  0  0  0  0  0  0  0  0  0  0  0  # atno 17320 bound_to 7965
  145.7794  139.1886  143.2166 LP  0  0  0  0  0  0  0  0  0  0  0  0  # atno 17321 bound_to 7965
  140.5697  143.2182  151.7621 LP  0  0  0  0  0  0  0  0  0  0  0  0  # atno 17342 bound_to 10162
  139.4928  144.4234  151.9952 LP  0  0  0  0  0  0  0  0  0  0  0  0  # atno 17343 bound_to 10162
  156.3152  130.7250  151.2151 LP  0  0  0  0  0  0  0  0  0  0  0  0  # atno 17370 bound_to 10713
  157.7437  131.0470  150.4924 LP  0  0  0  0  0  0  0  0  0  0  0  0  # atno 17371 bound_to 10713
  140.1953  134.4321  155.7692 LP  0  0  0  0  0  0  0  0  0  0  0  0  # atno 17394 bound_to 11000
  141.2226  133.7046  156.8095 LP  0  0  0  0  0  0  0  0  0  0  0  0  # atno 17395 bound_to 11000

$$$$
