AV-unprocessed.smi:2087|AV-procd|sdf|8523|dock2
  -GOLD-   2272011243D 1   1.00000     0.00000
 Structure written by MMmdl.
 51 52  0  0  0  0  0  0  0  0  2 V2000
  144.2191  132.3298  150.8418 C   0  0  0  0  0  0  0  0  0  0  0  0
  145.2979  132.7422  151.8580 C   0  0  0  0  0  0  0  0  0  0  0  0
  144.9529  134.1030  152.4814 C   0  0  0  0  0  0  0  0  0  0  0  0
  146.7041  132.7775  151.2213 C   0  0  0  0  0  0  0  0  0  0  0  0
  147.7959  132.6246  152.2167 N   0  3  2  0  0  0  0  0  0  0  0  0
  147.7254  131.3608  152.9918 C   0  0  0  0  0  0  0  0  0  0  0  0
  148.9095  131.2626  153.9684 C   0  0  0  0  0  0  0  0  0  0  0  0
  148.9263  132.4065  154.8126 O   0  0  0  0  0  0  0  0  0  0  0  0
  149.1022  133.6137  154.0773 C   0  0  2  0  0  0  0  0  0  0  0  0
  149.2400  134.7800  155.0734 C   0  0  0  0  0  0  0  0  0  0  0  0
  149.9020  135.9233  154.4564 N   0  0  0  0  0  0  0  0  0  0  0  0
  150.9760  136.5508  154.9575 C   0  0  0  0  0  0  0  0  0  0  0  0
  151.5832  136.1600  155.9553 O   0  0  0  0  0  0  0  0  0  0  0  0
  151.4237  137.8202  154.2224 C   0  0  0  0  0  0  0  0  0  0  0  0
  151.0837  139.0443  154.9606 N   0  0  0  0  0  0  0  0  0  0  0  0
  150.0354  139.8369  154.5288 C   0  0  0  0  0  0  0  0  0  0  0  0
  149.6600  140.9776  155.1475 C   0  0  0  0  0  0  0  0  0  0  0  0
  150.3628  141.4509  156.3335 C   0  0  0  0  0  0  0  0  0  0  0  0
  150.0486  142.4749  156.9418 O   0  0  0  0  0  0  0  0  0  0  0  0
  151.4392  140.6316  156.7464 N   0  0  0  0  0  0  0  0  0  0  0  0
  152.1711  141.0499  157.9244 C   0  0  0  0  0  0  0  0  0  0  0  0
  151.8140  139.4268  156.1087 C   0  0  0  0  0  0  0  0  0  0  0  0
  152.7381  138.7223  156.5239 O   0  0  0  0  0  0  0  0  0  0  0  0
  147.9005  133.7871  153.1306 C   0  0  0  0  0  0  0  0  0  0  0  0
  144.1820  133.0223  150.0003 H   0  0  0  0  0  0  0  0  0  0  0  0
  143.2309  132.3153  151.3028 H   0  0  0  0  0  0  0  0  0  0  0  0
  144.4038  131.3318  150.4438 H   0  0  0  0  0  0  0  0  0  0  0  0
  145.2904  132.0148  152.6694 H   0  0  0  0  0  0  0  0  0  0  0  0
  144.9292  134.8904  151.7273 H   0  0  0  0  0  0  0  0  0  0  0  0
  145.6856  134.3880  153.2371 H   0  0  0  0  0  0  0  0  0  0  0  0
  143.9764  134.0775  152.9663 H   0  0  0  0  0  0  0  0  0  0  0  0
  146.7664  131.9713  150.4888 H   0  0  0  0  0  0  0  0  0  0  0  0
  146.8532  133.7044  150.6647 H   0  0  0  0  0  0  0  0  0  0  0  0
  146.7850  131.3218  153.5437 H   0  0  0  0  0  0  0  0  0  0  0  0
  147.7396  130.5003  152.3240 H   0  0  0  0  0  0  0  0  0  0  0  0
  148.8148  130.3694  154.5863 H   0  0  0  0  0  0  0  0  0  0  0  0
  149.8552  131.1776  153.4306 H   0  0  0  0  0  0  0  0  0  0  0  0
  150.0143  133.5431  153.4816 H   0  0  0  0  0  0  0  0  0  0  0  0
  148.2604  135.0806  155.4488 H   0  0  0  0  0  0  0  0  0  0  0  0
  149.8239  134.4690  155.9401 H   0  0  0  0  0  0  0  0  0  0  0  0
  149.4728  136.3060  153.6261 H   0  0  0  0  0  0  0  0  0  0  0  0
  152.5008  137.7576  154.0620 H   0  0  0  0  0  0  0  0  0  0  0  0
  150.9759  137.8590  153.2276 H   0  0  0  0  0  0  0  0  0  0  0  0
  149.4839  139.5315  153.6514 H   0  0  0  0  0  0  0  0  0  0  0  0
  148.8285  141.5478  154.7599 H   0  0  0  0  0  0  0  0  0  0  0  0
  153.1534  140.5780  157.9535 H   0  0  0  0  0  0  0  0  0  0  0  0
  151.5705  140.7642  158.7890 H   0  0  0  0  0  0  0  0  0  0  0  0
  152.3151  142.1308  157.8778 H   0  0  0  0  0  0  0  0  0  0  0  0
  148.0228  134.7018  152.5491 H   0  0  0  0  0  0  0  0  0  0  0  0
  146.9767  133.8894  153.7025 H   0  0  0  0  0  0  0  0  0  0  0  0
  148.6593  132.6029  151.6927 H   0  0  0  0  0  0  0  0  0  0  0  0
  1  2  1  0  0  0  0
  1 25  1  0  0  0  0
  1 26  1  0  0  0  0
  1 27  1  0  0  0  0
  2  3  1  0  0  0  0
  2  4  1  0  0  0  0
  2 28  1  0  0  0  0
  3 29  1  0  0  0  0
  3 30  1  0  0  0  0
  3 31  1  0  0  0  0
  4  5  1  0  0  0  0
  4 32  1  0  0  0  0
  4 33  1  0  0  0  0
  5 24  1  0  0  0  0
  5  6  1  0  0  0  0
  5 51  1  0  0  0  0
  6  7  1  0  0  0  0
  6 34  1  0  0  0  0
  6 35  1  0  0  0  0
  7  8  1  0  0  0  0
  7 36  1  0  0  0  0
  7 37  1  0  0  0  0
  8  9  1  0  0  0  0
  9 10  1  0  0  0  0
  9 24  1  0  0  0  0
  9 38  1  0  0  0  0
 10 11  1  0  0  0  0
 10 39  1  0  0  0  0
 10 40  1  0  0  0  0
 11 12  1  0  0  0  0
 11 41  1  0  0  0  0
 12 13  2  0  0  0  0
 12 14  1  0  0  0  0
 14 15  1  0  0  0  0
 14 42  1  0  0  0  0
 14 43  1  0  0  0  0
 15 22  1  0  0  0  0
 15 16  1  0  0  0  0
 16 17  2  0  0  0  0
 16 44  1  0  0  0  0
 17 18  1  0  0  0  0
 17 45  1  0  0  0  0
 18 19  2  0  0  0  0
 18 20  1  0  0  0  0
 20 21  1  0  0  0  0
 20 22  1  0  0  0  0
 21 46  1  0  0  0  0
 21 47  1  0  0  0  0
 21 48  1  0  0  0  0
 22 23  2  0  0  0  0
 24 49  1  0  0  0  0
 24 50  1  0  0  0  0
M  CHG  1   5   1
M  END
> <s_m_source_file>
AV-unprocessed.smi

> <i_m_source_file_index>
2087

> <i_lp_mmshare_version>
43012

> <i_f3d_flags>
0

> <s_epik_input>
W0NIM11bQ0hdKFtDSDNdKVtDSDJdTjFbQ0gyXVtDSDJdT1tDQEhdKFtDSDJdMSlbQ0gyXVtOSF1DKD1PKVtDSDJdbjJbY0hdW2NIXWMoPU8pbihbQ0gzXSljMj1P

> <s_epik_cmdline>
J2VwaWtfcHl0aG9uJywgJy1waCcsICc3LjAnLCAnLXRuJywgJzgnLCAnLW1hJywgJzIwMCcsICctbWV0YWxfYmluZGluZycsICctaW1hZScsICc8aW5maWxlLm1hZT4nLCAnLW9tYWUnLCAnPG91dGZpbGUubWFlPic=

> <r_lp_tautomer_probability>
1

> <r_epik_Ionization_Penalty>
0.097593

> <r_epik_Ionization_Penalty_Charging>
0.097593

> <r_epik_Ionization_Penalty_Neutral>
6.27044e-08

> <r_epik_State_Penalty>
0.0877056

> <r_epik_Charging_Adjusted_Penalty>
0.185299

> <i_epik_Tot_Q>
1

> <i_epik_Tot_abs_Q>
1

> <r_epik_Metal_State_Penalty>
0.0877109

> <b_epik_Metal_Only>
0

> <s_lp_Force_Field>
OPLS_2005

> <r_lp_Energy>
25.7141

> <b_lp_Chiralities_Consistent>
1

> <s_lp_Variant>
AV-unprocessed.smi:2087-4

> <Gold.Version>
5.8.1

> <Gold.Id.Protein>
6NUR|6NUR_protein|mol2

> <Gold.PLP.Fitness>
51.9666

> <Gold.PLP.PLP>
-40.9147

> <Gold.PLP.part.hbond>
-4.3340

> <Gold.PLP.part.metal>
0.0000

> <Gold.PLP.part.buried>
-0.2719

> <Gold.PLP.part.nonpolar>
-36.5965

> <Gold.PLP.part.repulsive>
2.5704

> <Gold.PLP.ligand.clash>
0.0000

> <Gold.PLP.ligand.torsion>
0.8132

> <Gold.PLP.Chemscore.Hbond>
3.1025

> <Gold.PLP.Chemscore.CHOScore>
0.9957

> <Gold.PLP.Chemscore.Metal>
0.0000

> <Gold.Chemscore.Hbonds>
donor molecule, donor type, donor heavy atom, donor atom, acceptor molecule, acceptor atom, score
      L1  H     5    51       P1 10747  0.16
      L1  H    11    41       P1  7948  1.00
      P1  H  7997  8010       L1    23  0.76
      P1  H 10752 10763       L1    13  0.90
      L1  C    16    44       P1  7957  0.97

> <Gold.PLP.Chemscore.Internal.Correction>
0.3839

> <Gold.Rescore>
     Score         DG    S(hbond)    S(metal)    S(lipo)     H(rot)  DE(clash)    DE(int)     intcor
     14.76     -18.48       2.78        0.00      80.34       2.22       1.57       2.15       ----

> <Gold.Chemscore.Fitness>
14.7580

> <Gold.Chemscore.DG>
-18.4808

> <Gold.Chemscore.ZeroCoef>
-5.4800

> <Gold.Chemscore.Hbond>
2.7836

> <Gold.Chemscore.Metal>
0.0000

> <Gold.Chemscore.Lipo>
80.3370

> <Gold.Chemscore.Internal_Hbond>
0.0000

> <Gold.Chemscore.DEClash>
1.5708

> <Gold.Chemscore.DEInternal>
2.1520

> <Gold.Chemscore.Rot>
2.2249

> <Gold.Chemscore.Internal.Correction>
   9.000000E+99

> <Gold.Chemscore.Hbonds>
donor molecule, donor type, donor heavy atom, donor atom, acceptor molecule, acceptor atom, score
      L1  H     5    51       P1 10747  0.17
      L1  H    11    41       P1  7948  0.67
      P1  H  7997  8010       L1    23  0.20
      P1  H 10752 10763       L1    13  0.18

> <Gold.Chemscore.Hbond.Weighted>
-9.2971

> <Gold.Chemscore.Metal.Weighted>
-0.0000

> <Gold.Chemscore.Lipo.Weighted>
-9.3994

> <Gold.Chemscore.Internal_Hbond.Weighted>
0.0000

> <Gold.Chemscore.DEClash.Weighted>
1.5708

> <Gold.Chemscore.DEInternal.Weighted>
2.1520

> <Gold.Chemscore.Rot.Weighted>
5.6957

> <Gold.Chemscore.Internal.Correction.Weighted>
   9.000000E+99

> <Gold.Protein.RotatedTorsions>
[ 6907 6896 6895 6894 ] final   38.45 input  -60.11 | X-H torsion
[ 7974 7965 7964 7962 ] final -159.98 input  175.53 | X-H torsion
[ 8008 7997 7996 7995 ] final   76.53 input   59.86 | X-H torsion
[ 10167 10162 10161 10158 ] final  -89.07 input  -65.29 | X-H torsion
[ 10718 10713 10712 10709 ] final   86.72 input   66.30 | X-H torsion
[ 10763 10752 10751 10750 ] final   90.09 input  -60.55 | X-H torsion
[ 11005 11000 10999 10996 ] final   67.74 input  -57.11 | X-H torsion

> <Gold.Protein.ActiveResidues>
 VAL166  LYS551  ARG553  GLY616  TRP617  ASP618  TYR619  PRO620  LYS621  CYS622 
 ASP623  PHE694  ASN695  SER759  ASP760  ASP761  ALA762  ILE779  LEU786  VAL792 
 PHE793  MET794  SER795  GLU796  ALA797  LYS798  CYS799  TRP800  GLU811  SER814 

> <Gold.Protein.RotatedAtoms>
  152.1566  134.8946  160.0544 H   0  0  0  0  0  0  0  0  0  0  0  0  # atno 6907 bound_to 6896
  151.9958  133.3802  159.4170 H   0  0  0  0  0  0  0  0  0  0  0  0  # atno 6908 bound_to 6896
  150.6882  134.3810  159.5078 H   0  0  0  0  0  0  0  0  0  0  0  0  # atno 6909 bound_to 6896
  144.7444  140.3608  143.6096 H   0  0  0  0  0  0  0  0  0  0  0  0  # atno 7974 bound_to 7965
  155.8286  140.3467  155.5558 H   0  0  0  0  0  0  0  0  0  0  0  0  # atno 8008 bound_to 7997
  155.8266  140.0921  157.1837 H   0  0  0  0  0  0  0  0  0  0  0  0  # atno 8009 bound_to 7997
  154.4004  140.1420  156.3551 H   0  0  0  0  0  0  0  0  0  0  0  0  # atno 8010 bound_to 7997
  140.3685  143.2806  151.9529 H   0  0  0  0  0  0  0  0  0  0  0  0  # atno 10167 bound_to 10162
  157.6932  131.0227  150.3016 H   0  0  0  0  0  0  0  0  0  0  0  0  # atno 10718 bound_to 10713
  153.1939  135.4446  155.0184 H   0  0  0  0  0  0  0  0  0  0  0  0  # atno 10763 bound_to 10752
  154.8107  135.3293  154.7315 H   0  0  0  0  0  0  0  0  0  0  0  0  # atno 10764 bound_to 10752
  153.7766  135.6980  153.4951 H   0  0  0  0  0  0  0  0  0  0  0  0  # atno 10765 bound_to 10752
  139.9753  134.6833  156.0367 H   0  0  0  0  0  0  0  0  0  0  0  0  # atno 11005 bound_to 11000
  145.7180  139.1702  143.2501 LP  0  0  0  0  0  0  0  0  0  0  0  0  # atno 17320 bound_to 7965
  146.1298  140.7200  142.9417 LP  0  0  0  0  0  0  0  0  0  0  0  0  # atno 17321 bound_to 7965
  139.4806  144.5929  151.7741 LP  0  0  0  0  0  0  0  0  0  0  0  0  # atno 17342 bound_to 10162
  140.5057  144.1102  150.5982 LP  0  0  0  0  0  0  0  0  0  0  0  0  # atno 17343 bound_to 10162
  156.3531  130.3834  149.7313 LP  0  0  0  0  0  0  0  0  0  0  0  0  # atno 17370 bound_to 10713
  156.4784  130.8029  151.3045 LP  0  0  0  0  0  0  0  0  0  0  0  0  # atno 17371 bound_to 10713
  141.1430  133.6561  156.3785 LP  0  0  0  0  0  0  0  0  0  0  0  0  # atno 17394 bound_to 11000
  140.5208  134.6305  157.5317 LP  0  0  0  0  0  0  0  0  0  0  0  0  # atno 17395 bound_to 11000

$$$$
