AV-unprocessed.smi:2510|AV-procd|sdf|9876|dock2
  -GOLD-   2272013513D 1   1.00000     0.00000
 Structure written by MMmdl.
 48 49  0  0  0  0  0  0  0  0  1 V2000
  146.6948  142.1361  153.2807 C   0  0  0  0  0  0  0  0  0  0  0  0
  147.1530  140.6657  153.2780 C   0  0  0  0  0  0  0  0  0  0  0  0
  147.8386  140.1373  154.5708 C   0  0  0  0  0  0  0  0  0  0  0  0
  147.0021  140.5569  155.7993 C   0  0  0  0  0  0  0  0  0  0  0  0
  145.5551  140.0369  155.8013 C   0  0  0  0  0  0  0  0  0  0  0  0
  148.3355  138.6638  154.5831 C   0  0  1  0  0  0  0  0  0  0  0  0
  147.6266  137.7491  153.6966 N   0  0  0  0  0  0  0  0  0  0  0  0
  146.4509  137.1708  153.9842 C   0  0  0  0  0  0  0  0  0  0  0  0
  145.8195  137.3939  155.0168 O   0  0  0  0  0  0  0  0  0  0  0  0
  145.9021  136.1921  152.9459 C   0  0  0  0  0  0  0  0  0  0  0  0
  144.4853  135.8157  153.2897 C   0  0  0  0  0  0  0  0  0  0  0  0
  143.2998  136.5895  153.1091 C   0  0  0  0  0  0  0  0  0  0  0  0
  142.2971  135.7882  153.5778 C   0  0  0  0  0  0  0  0  0  0  0  0
  140.8240  135.9991  153.6678 C   0  0  0  0  0  0  0  0  0  0  0  0
  142.9005  134.6274  154.0027 N   0  0  0  0  0  0  0  0  0  0  0  0
  144.2355  134.6330  153.8350 N   0  0  0  0  0  0  0  0  0  0  0  0
  149.6721  139.1245  153.9940 C   0  0  2  0  0  0  0  0  0  0  0  0
  150.9483  138.3663  154.3375 C   0  0  0  0  0  0  0  0  0  0  0  0
  149.3540  140.4850  154.6413 C   0  0  2  0  0  0  0  0  0  0  0  0
  149.8235  140.5723  155.9832 O   0  0  0  0  0  0  0  0  0  0  0  0
  151.2024  140.8873  156.0717 C   0  0  0  0  0  0  0  0  0  0  0  0
  142.4205  133.8340  154.4035 H   0  0  0  0  0  0  0  0  0  0  0  0
  146.1306  142.3565  152.3745 H   0  0  0  0  0  0  0  0  0  0  0  0
  147.5381  142.8257  153.3014 H   0  0  0  0  0  0  0  0  0  0  0  0
  146.0508  142.3685  154.1262 H   0  0  0  0  0  0  0  0  0  0  0  0
  146.2787  140.0587  153.0447 H   0  0  0  0  0  0  0  0  0  0  0  0
  147.8154  140.5193  152.4248 H   0  0  0  0  0  0  0  0  0  0  0  0
  147.4973  140.2645  156.7247 H   0  0  0  0  0  0  0  0  0  0  0  0
  146.9599  141.6448  155.8598 H   0  0  0  0  0  0  0  0  0  0  0  0
  145.0078  140.4310  156.6577 H   0  0  0  0  0  0  0  0  0  0  0  0
  145.5133  138.9501  155.8640 H   0  0  0  0  0  0  0  0  0  0  0  0
  145.0204  140.3425  154.9019 H   0  0  0  0  0  0  0  0  0  0  0  0
  148.4691  138.2770  155.5966 H   0  0  0  0  0  0  0  0  0  0  0  0
  148.0742  137.5158  152.8223 H   0  0  0  0  0  0  0  0  0  0  0  0
  145.9574  136.6497  151.9571 H   0  0  0  0  0  0  0  0  0  0  0  0
  146.5336  135.3036  152.9097 H   0  0  0  0  0  0  0  0  0  0  0  0
  143.2024  137.5811  152.6926 H   0  0  0  0  0  0  0  0  0  0  0  0
  140.5494  136.9921  153.3108 H   0  0  0  0  0  0  0  0  0  0  0  0
  140.4809  135.9052  154.6984 H   0  0  0  0  0  0  0  0  0  0  0  0
  140.2903  135.2645  153.0644 H   0  0  0  0  0  0  0  0  0  0  0  0
  149.5886  139.2259  152.9105 H   0  0  0  0  0  0  0  0  0  0  0  0
  151.0637  138.2382  155.4140 H   0  0  0  0  0  0  0  0  0  0  0  0
  151.8302  138.8887  153.9674 H   0  0  0  0  0  0  0  0  0  0  0  0
  150.9442  137.3726  153.8896 H   0  0  0  0  0  0  0  0  0  0  0  0
  149.6225  141.3487  154.0301 H   0  0  0  0  0  0  0  0  0  0  0  0
  151.5077  140.8996  157.1178 H   0  0  0  0  0  0  0  0  0  0  0  0
  151.4039  141.8734  155.6518 H   0  0  0  0  0  0  0  0  0  0  0  0
  151.8172  140.1541  155.5496 H   0  0  0  0  0  0  0  0  0  0  0  0
  1  2  1  0  0  0  0
  1 23  1  0  0  0  0
  1 24  1  0  0  0  0
  1 25  1  0  0  0  0
  2  3  1  0  0  0  0
  2 26  1  0  0  0  0
  2 27  1  0  0  0  0
  3 19  1  0  0  0  0
  3  4  1  0  0  0  0
  3  6  1  0  0  0  0
  4  5  1  0  0  0  0
  4 28  1  0  0  0  0
  4 29  1  0  0  0  0
  5 30  1  0  0  0  0
  5 31  1  0  0  0  0
  5 32  1  0  0  0  0
  6  7  1  0  0  0  0
  6 17  1  0  0  0  0
  6 33  1  0  0  0  0
  7  8  1  0  0  0  0
  7 34  1  0  0  0  0
  8  9  2  0  0  0  0
  8 10  1  0  0  0  0
 10 11  1  0  0  0  0
 10 35  1  0  0  0  0
 10 36  1  0  0  0  0
 11 16  2  0  0  0  0
 11 12  1  0  0  0  0
 12 13  2  0  0  0  0
 12 37  1  0  0  0  0
 13 14  1  0  0  0  0
 13 15  1  0  0  0  0
 14 38  1  0  0  0  0
 14 39  1  0  0  0  0
 14 40  1  0  0  0  0
 15 22  1  0  0  0  0
 15 16  1  0  0  0  0
 17 18  1  0  0  0  0
 17 19  1  0  0  0  0
 17 41  1  0  0  0  0
 18 42  1  0  0  0  0
 18 43  1  0  0  0  0
 18 44  1  0  0  0  0
 19 20  1  0  0  0  0
 19 45  1  0  0  0  0
 20 21  1  0  0  0  0
 21 46  1  0  0  0  0
 21 47  1  0  0  0  0
 21 48  1  0  0  0  0
M  END
> <s_m_source_file>
AV-unprocessed.smi

> <i_m_source_file_index>
2510

> <i_lp_mmshare_version>
43012

> <i_f3d_flags>
0

> <s_epik_input>
W0NIM11PW0NAQEhdMVtDQEhdKFtDSDNdKVtDQEBIXShDMShbQ0gyXVtDSDNdKVtDSDJdW0NIM10pW05IXUMoPU8pW0NIMl1jMltjSF1jKFtDSDNdKVtuSF1uMg==

> <s_epik_cmdline>
J2VwaWtfcHl0aG9uJywgJy1waCcsICc3LjAnLCAnLXRuJywgJzgnLCAnLW1hJywgJzIwMCcsICctbWV0YWxfYmluZGluZycsICctaW1hZScsICc8aW5maWxlLm1hZT4nLCAnLW9tYWUnLCAnPG91dGZpbGUubWFlPic=

> <r_lp_tautomer_probability>
0.5

> <r_epik_Ionization_Penalty>
9.73156e-05

> <r_epik_Ionization_Penalty_Charging>
0

> <r_epik_Ionization_Penalty_Neutral>
9.73156e-05

> <r_epik_State_Penalty>
0.41068

> <r_epik_Charging_Adjusted_Penalty>
0.41068

> <i_epik_Tot_Q>
0

> <i_epik_Tot_abs_Q>
0

> <r_epik_Metal_State_Penalty>
0.410699

> <b_epik_Metal_Only>
0

> <s_lp_Force_Field>
OPLS_2005

> <r_lp_Energy>
28.6218

> <b_lp_Chiralities_Consistent>
1

> <s_lp_Variant>
AV-unprocessed.smi:2510-7

> <Gold.Version>
5.8.1

> <Gold.Id.Protein>
6NUR|6NUR_protein|mol2

> <Gold.PLP.Fitness>
32.9607

> <Gold.PLP.PLP>
-28.4906

> <Gold.PLP.part.hbond>
-2.0000

> <Gold.PLP.part.metal>
0.0000

> <Gold.PLP.part.buried>
-4.8741

> <Gold.PLP.part.nonpolar>
-22.1922

> <Gold.PLP.part.repulsive>
0.1543

> <Gold.PLP.ligand.clash>
0.0000

> <Gold.PLP.ligand.torsion>
0.7976

> <Gold.PLP.Chemscore.Hbond>
1.7760

> <Gold.PLP.Chemscore.CHOScore>
0.0000

> <Gold.PLP.Chemscore.Metal>
0.0000

> <Gold.Chemscore.Hbonds>
donor molecule, donor type, donor heavy atom, donor atom, acceptor molecule, acceptor atom, score
      L1  H     7    34       P1  7948  0.94
      L1  H    15    22       P1 10957  0.69

> <Gold.PLP.Chemscore.Internal.Correction>
0.7373

> <Gold.Rescore>
     Score         DG    S(hbond)    S(metal)    S(lipo)     H(rot)  DE(clash)    DE(int)     intcor
     12.65     -15.22       1.89        0.00      68.83       1.81       0.23       2.35       ----

> <Gold.Chemscore.Fitness>
12.6491

> <Gold.Chemscore.DG>
-15.2245

> <Gold.Chemscore.ZeroCoef>
-5.4800

> <Gold.Chemscore.Hbond>
1.8939

> <Gold.Chemscore.Metal>
0.0000

> <Gold.Chemscore.Lipo>
68.8297

> <Gold.Chemscore.Internal_Hbond>
0.0000

> <Gold.Chemscore.DEClash>
0.2251

> <Gold.Chemscore.DEInternal>
2.3503

> <Gold.Chemscore.Rot>
1.8102

> <Gold.Chemscore.Internal.Correction>
   9.000000E+99

> <Gold.Chemscore.Hbonds>
donor molecule, donor type, donor heavy atom, donor atom, acceptor molecule, acceptor atom, score
      L1  H     7    34       P1  7948  0.91
      L1  H    15    22       P1 10957  0.67

> <Gold.Chemscore.Hbond.Weighted>
-6.3255

> <Gold.Chemscore.Metal.Weighted>
-0.0000

> <Gold.Chemscore.Lipo.Weighted>
-8.0531

> <Gold.Chemscore.Internal_Hbond.Weighted>
0.0000

> <Gold.Chemscore.DEClash.Weighted>
0.2251

> <Gold.Chemscore.DEInternal.Weighted>
2.3503

> <Gold.Chemscore.Rot.Weighted>
4.6341

> <Gold.Chemscore.Internal.Correction.Weighted>
   9.000000E+99

> <Gold.Protein.RotatedTorsions>
[ 6907 6896 6895 6894 ] final -120.15 input  -60.11 | X-H torsion
[ 7974 7965 7964 7962 ] final -177.69 input  175.53 | X-H torsion
[ 8008 7997 7996 7995 ] final  169.31 input   59.86 | X-H torsion
[ 10167 10162 10161 10158 ] final  150.54 input  -65.29 | X-H torsion
[ 10718 10713 10712 10709 ] final  -22.20 input   66.30 | X-H torsion
[ 10763 10752 10751 10750 ] final -114.07 input  -60.55 | X-H torsion
[ 11005 11000 10999 10996 ] final   -3.31 input  -57.11 | X-H torsion

> <Gold.Protein.ActiveResidues>
 VAL166  LYS551  ARG553  GLY616  TRP617  ASP618  TYR619  PRO620  LYS621  CYS622 
 ASP623  PHE694  ASN695  SER759  ASP760  ASP761  ALA762  ILE779  LEU786  VAL792 
 PHE793  MET794  SER795  GLU796  ALA797  LYS798  CYS799  TRP800  GLU811  SER814 

> <Gold.Protein.RotatedAtoms>
  150.8368  133.8001  159.3076 H   0  0  0  0  0  0  0  0  0  0  0  0  # atno 6907 bound_to 6896
  151.5714  135.1060  160.0005 H   0  0  0  0  0  0  0  0  0  0  0  0  # atno 6908 bound_to 6896
  152.4439  133.7457  159.6722 H   0  0  0  0  0  0  0  0  0  0  0  0  # atno 6909 bound_to 6896
  144.7128  140.0981  143.6418 H   0  0  0  0  0  0  0  0  0  0  0  0  # atno 7974 bound_to 7965
  156.1469  140.1567  156.8833 H   0  0  0  0  0  0  0  0  0  0  0  0  # atno 8008 bound_to 7997
  154.5036  140.0819  156.7886 H   0  0  0  0  0  0  0  0  0  0  0  0  # atno 8009 bound_to 7997
  155.3972  140.3412  155.4257 H   0  0  0  0  0  0  0  0  0  0  0  0  # atno 8010 bound_to 7997
  139.4849  144.5514  151.7394 H   0  0  0  0  0  0  0  0  0  0  0  0  # atno 10167 bound_to 10162
  156.5078  130.4603  149.6665 H   0  0  0  0  0  0  0  0  0  0  0  0  # atno 10718 bound_to 10713
  154.8424  135.4431  154.1448 H   0  0  0  0  0  0  0  0  0  0  0  0  # atno 10763 bound_to 10752
  153.2624  135.6937  153.7571 H   0  0  0  0  0  0  0  0  0  0  0  0  # atno 10764 bound_to 10752
  153.6842  135.3398  155.3161 H   0  0  0  0  0  0  0  0  0  0  0  0  # atno 10765 bound_to 10752
  140.6679  133.9262  155.8476 H   0  0  0  0  0  0  0  0  0  0  0  0  # atno 11005 bound_to 11000
  145.9561  139.2768  143.1183 LP  0  0  0  0  0  0  0  0  0  0  0  0  # atno 17320 bound_to 7965
  145.9270  140.9075  143.0375 LP  0  0  0  0  0  0  0  0  0  0  0  0  # atno 17321 bound_to 7965
  140.5068  144.1085  150.5985 LP  0  0  0  0  0  0  0  0  0  0  0  0  # atno 17342 bound_to 10162
  140.3997  143.2710  151.9962 LP  0  0  0  0  0  0  0  0  0  0  0  0  # atno 17343 bound_to 10162
  156.3270  130.7311  151.2233 LP  0  0  0  0  0  0  0  0  0  0  0  0  # atno 17370 bound_to 10713
  157.7454  131.0440  150.4772 LP  0  0  0  0  0  0  0  0  0  0  0  0  # atno 17371 bound_to 10713
  141.0414  134.0615  157.3897 LP  0  0  0  0  0  0  0  0  0  0  0  0  # atno 17394 bound_to 11000
  139.8991  135.0157  156.7180 LP  0  0  0  0  0  0  0  0  0  0  0  0  # atno 17395 bound_to 11000

$$$$
