AV-unprocessed.smi:1264|AV-procd|sdf|5314|dock9
  -GOLD-   22720 4443D 1   1.00000     0.00000
 Structure written by MMmdl.
 43 43  0  0  0  0  0  0  0  0  1 V2000
  146.1635  137.9350  152.5300 C   0  0  0  0  0  0  0  0  0  0  0  0
  146.4266  136.5084  152.4225 N   0  0  0  0  0  0  0  0  0  0  0  0
  145.4757  135.5750  152.2745 C   0  0  0  0  0  0  0  0  0  0  0  0
  144.2730  135.8413  152.2287 O   0  0  0  0  0  0  0  0  0  0  0  0
  145.9614  134.1181  152.1831 C   0  0  1  0  0  0  0  0  0  0  0  0
  145.8084  133.6596  150.7133 C   0  0  0  0  0  0  0  0  0  0  0  0
  145.8630  132.1308  150.4905 C   0  0  0  0  0  0  0  0  0  0  0  0
  145.9432  131.8082  148.9908 C   0  0  0  0  0  0  0  0  0  0  0  0
  144.6716  131.3996  151.1313 C   0  0  0  0  0  0  0  0  0  0  0  0
  147.3735  134.0430  152.5540 N   0  0  0  0  0  0  0  0  0  0  0  0
  147.9050  133.1768  153.4310 C   0  0  0  0  0  0  0  0  0  0  0  0
  147.2564  132.2993  154.0001 O   0  0  0  0  0  0  0  0  0  0  0  0
  149.3960  133.3390  153.7208 C   0  0  0  0  0  0  0  0  0  0  0  0
  149.5929  133.6160  155.1893 C   0  0  0  0  0  0  0  0  0  0  0  0
  150.2178  132.7820  156.1603 C   0  0  0  0  0  0  0  0  0  0  0  0
  150.8366  131.4274  155.9676 C   0  0  0  0  0  0  0  0  0  0  0  0
  150.2166  133.3349  157.3617 N   0  0  0  0  0  0  0  0  0  0  0  0
  149.5717  134.5668  157.2156 O   0  0  0  0  0  0  0  0  0  0  0  0
  149.2095  134.7104  155.9155 C   0  0  0  0  0  0  0  0  0  0  0  0
  148.4910  135.9675  155.5584 C   0  0  0  0  0  0  0  0  0  0  0  0
  147.1019  138.4788  152.6392 H   0  0  0  0  0  0  0  0  0  0  0  0
  145.5405  138.1504  153.3991 H   0  0  0  0  0  0  0  0  0  0  0  0
  145.6568  138.3046  151.6374 H   0  0  0  0  0  0  0  0  0  0  0  0
  147.3913  136.2115  152.4566 H   0  0  0  0  0  0  0  0  0  0  0  0
  145.3609  133.4915  152.8445 H   0  0  0  0  0  0  0  0  0  0  0  0
  144.8654  134.0345  150.3106 H   0  0  0  0  0  0  0  0  0  0  0  0
  146.5913  134.1271  150.1127 H   0  0  0  0  0  0  0  0  0  0  0  0
  146.7751  131.7434  150.9455 H   0  0  0  0  0  0  0  0  0  0  0  0
  145.0570  132.1608  148.4615 H   0  0  0  0  0  0  0  0  0  0  0  0
  146.0258  130.7341  148.8227 H   0  0  0  0  0  0  0  0  0  0  0  0
  146.8138  132.2781  148.5321 H   0  0  0  0  0  0  0  0  0  0  0  0
  143.7226  131.7746  150.7467 H   0  0  0  0  0  0  0  0  0  0  0  0
  144.6634  131.5137  152.2149 H   0  0  0  0  0  0  0  0  0  0  0  0
  144.7128  130.3298  150.9241 H   0  0  0  0  0  0  0  0  0  0  0  0
  147.9855  134.7331  152.1440 H   0  0  0  0  0  0  0  0  0  0  0  0
  149.9189  132.4332  153.4117 H   0  0  0  0  0  0  0  0  0  0  0  0
  149.7979  134.1440  153.1045 H   0  0  0  0  0  0  0  0  0  0  0  0
  150.2168  130.8032  155.3238 H   0  0  0  0  0  0  0  0  0  0  0  0
  150.9596  130.9016  156.9153 H   0  0  0  0  0  0  0  0  0  0  0  0
  151.8190  131.5109  155.5029 H   0  0  0  0  0  0  0  0  0  0  0  0
  148.6601  136.2304  154.5143 H   0  0  0  0  0  0  0  0  0  0  0  0
  148.8314  136.8002  156.1742 H   0  0  0  0  0  0  0  0  0  0  0  0
  147.4174  135.8515  155.7080 H   0  0  0  0  0  0  0  0  0  0  0  0
  1  2  1  0  0  0  0
  1 21  1  0  0  0  0
  1 22  1  0  0  0  0
  1 23  1  0  0  0  0
  2  3  1  0  0  0  0
  2 24  1  0  0  0  0
  3  4  2  0  0  0  0
  3  5  1  0  0  0  0
  5  6  1  0  0  0  0
  5 10  1  0  0  0  0
  5 25  1  0  0  0  0
  6  7  1  0  0  0  0
  6 26  1  0  0  0  0
  6 27  1  0  0  0  0
  7  8  1  0  0  0  0
  7  9  1  0  0  0  0
  7 28  1  0  0  0  0
  8 29  1  0  0  0  0
  8 30  1  0  0  0  0
  8 31  1  0  0  0  0
  9 32  1  0  0  0  0
  9 33  1  0  0  0  0
  9 34  1  0  0  0  0
 10 11  1  0  0  0  0
 10 35  1  0  0  0  0
 11 12  2  0  0  0  0
 11 13  1  0  0  0  0
 13 14  1  0  0  0  0
 13 36  1  0  0  0  0
 13 37  1  0  0  0  0
 14 19  2  0  0  0  0
 14 15  1  0  0  0  0
 15 16  1  0  0  0  0
 15 17  2  0  0  0  0
 16 38  1  0  0  0  0
 16 39  1  0  0  0  0
 16 40  1  0  0  0  0
 17 18  1  0  0  0  0
 18 19  1  0  0  0  0
 19 20  1  0  0  0  0
 20 41  1  0  0  0  0
 20 42  1  0  0  0  0
 20 43  1  0  0  0  0
M  END
> <s_m_source_file>
AV-unprocessed.smi

> <i_m_source_file_index>
1264

> <i_lp_mmshare_version>
43012

> <i_f3d_flags>
0

> <s_epik_input>
W0NIM11bTkhdQyg9TylbQ0BIXShbQ0gyXVtDSF0oW0NIM10pW0NIM10pW05IXUMoPU8pW0NIMl1jMWMoW0NIM10pbm9jMVtDSDNd

> <s_epik_cmdline>
J2VwaWtfcHl0aG9uJywgJy1waCcsICc3LjAnLCAnLXRuJywgJzgnLCAnLW1hJywgJzIwMCcsICctbWV0YWxfYmluZGluZycsICctaW1hZScsICc8aW5maWxlLm1hZT4nLCAnLW9tYWUnLCAnPG91dGZpbGUubWFlPic=

> <r_lp_tautomer_probability>
1

> <r_epik_Ionization_Penalty>
6.00781e-08

> <r_epik_Ionization_Penalty_Charging>
0

> <r_epik_Ionization_Penalty_Neutral>
6.00781e-08

> <r_epik_State_Penalty>
-0

> <r_epik_Charging_Adjusted_Penalty>
0

> <i_epik_Tot_Q>
0

> <i_epik_Tot_abs_Q>
0

> <r_epik_Metal_State_Penalty>
-0

> <b_epik_Metal_Only>
0

> <s_lp_Force_Field>
OPLS_2005

> <r_lp_Energy>
-0.987692

> <b_lp_Chiralities_Consistent>
1

> <s_lp_Variant>
AV-unprocessed.smi:1264-2

> <Gold.Version>
5.8.1

> <Gold.Id.Protein>
6NUR|6NUR_protein|mol2

> <Gold.PLP.Fitness>
41.4555

> <Gold.PLP.PLP>
-33.5829

> <Gold.PLP.part.hbond>
-3.1044

> <Gold.PLP.part.metal>
0.0000

> <Gold.PLP.part.buried>
-5.4193

> <Gold.PLP.part.nonpolar>
-26.0593

> <Gold.PLP.part.repulsive>
0.2203

> <Gold.PLP.ligand.clash>
0.0000

> <Gold.PLP.ligand.torsion>
0.5929

> <Gold.PLP.Chemscore.Hbond>
3.0000

> <Gold.PLP.Chemscore.CHOScore>
0.0000

> <Gold.PLP.Chemscore.Metal>
0.0000

> <Gold.Chemscore.Hbonds>
donor molecule, donor type, donor heavy atom, donor atom, acceptor molecule, acceptor atom, score
      L1  H     2    24       P1  7948  1.00
      L1  H    10    35       P1  7948  1.00
      P1  H  6896  6907       L1    17  0.99

> <Gold.PLP.Chemscore.Internal.Correction>
0.0584

> <Gold.Rescore>
     Score         DG    S(hbond)    S(metal)    S(lipo)     H(rot)  DE(clash)    DE(int)     intcor
     16.18     -16.82       2.34        0.00      76.08       2.09       0.01       0.63       ----

> <Gold.Chemscore.Fitness>
16.1817

> <Gold.Chemscore.DG>
-16.8228

> <Gold.Chemscore.ZeroCoef>
-5.4800

> <Gold.Chemscore.Hbond>
2.3354

> <Gold.Chemscore.Metal>
0.0000

> <Gold.Chemscore.Lipo>
76.0762

> <Gold.Chemscore.Internal_Hbond>
0.0000

> <Gold.Chemscore.DEClash>
0.0102

> <Gold.Chemscore.DEInternal>
0.6309

> <Gold.Chemscore.Rot>
2.0931

> <Gold.Chemscore.Internal.Correction>
   9.000000E+99

> <Gold.Chemscore.Hbonds>
donor molecule, donor type, donor heavy atom, donor atom, acceptor molecule, acceptor atom, score
      L1  H     2    24       P1  7948  0.95
      L1  H    10    35       P1  7948  0.40
      P1  H  6896  6907       L1    17  0.30

> <Gold.Chemscore.Hbond.Weighted>
-7.8003

> <Gold.Chemscore.Metal.Weighted>
-0.0000

> <Gold.Chemscore.Lipo.Weighted>
-8.9009

> <Gold.Chemscore.Internal_Hbond.Weighted>
0.0000

> <Gold.Chemscore.DEClash.Weighted>
0.0102

> <Gold.Chemscore.DEInternal.Weighted>
0.6309

> <Gold.Chemscore.Rot.Weighted>
5.3584

> <Gold.Chemscore.Internal.Correction.Weighted>
   9.000000E+99

> <Gold.Protein.RotatedTorsions>
[ 6907 6896 6895 6894 ] final -142.98 input  -60.11 | X-H torsion
[ 7974 7965 7964 7962 ] final -159.11 input  175.53 | X-H torsion
[ 8008 7997 7996 7995 ] final  -63.32 input   59.86 | X-H torsion
[ 10167 10162 10161 10158 ] final  110.99 input  -65.29 | X-H torsion
[ 10718 10713 10712 10709 ] final  110.86 input   66.30 | X-H torsion
[ 10763 10752 10751 10750 ] final  135.46 input  -60.55 | X-H torsion
[ 11005 11000 10999 10996 ] final   33.53 input  -57.11 | X-H torsion

> <Gold.Protein.ActiveResidues>
 VAL166  LYS551  ARG553  GLY616  TRP617  ASP618  TYR619  PRO620  LYS621  CYS622 
 ASP623  PHE694  ASN695  SER759  ASP760  ASP761  ALA762  ILE779  LEU786  VAL792 
 PHE793  MET794  SER795  GLU796  ALA797  LYS798  CYS799  TRP800  GLU811  SER814 

> <Gold.Protein.RotatedAtoms>
  151.0943  133.5291  159.2613 H   0  0  0  0  0  0  0  0  0  0  0  0  # atno 6907 bound_to 6896
  151.2146  135.0494  159.8935 H   0  0  0  0  0  0  0  0  0  0  0  0  # atno 6908 bound_to 6896
  152.5437  134.0754  159.8266 H   0  0  0  0  0  0  0  0  0  0  0  0  # atno 6909 bound_to 6896
  144.7478  140.3732  143.6071 H   0  0  0  0  0  0  0  0  0  0  0  0  # atno 7974 bound_to 7965
  154.4548  140.0977  156.6724 H   0  0  0  0  0  0  0  0  0  0  0  0  # atno 8008 bound_to 7997
  155.5173  140.3478  155.4381 H   0  0  0  0  0  0  0  0  0  0  0  0  # atno 8009 bound_to 7997
  156.0755  140.1360  156.9766 H   0  0  0  0  0  0  0  0  0  0  0  0  # atno 8010 bound_to 7997
  139.6646  144.7128  151.1802 H   0  0  0  0  0  0  0  0  0  0  0  0  # atno 10167 bound_to 10162
  157.6473  131.0940  150.6664 H   0  0  0  0  0  0  0  0  0  0  0  0  # atno 10718 bound_to 10713
  153.8403  135.3092  155.3425 H   0  0  0  0  0  0  0  0  0  0  0  0  # atno 10763 bound_to 10752
  154.7935  135.4769  154.0111 H   0  0  0  0  0  0  0  0  0  0  0  0  # atno 10764 bound_to 10752
  153.1580  135.6855  153.8876 H   0  0  0  0  0  0  0  0  0  0  0  0  # atno 10765 bound_to 10752
  140.2621  134.3180  155.7854 H   0  0  0  0  0  0  0  0  0  0  0  0  # atno 11005 bound_to 11000
  145.7056  139.1672  143.2568 LP  0  0  0  0  0  0  0  0  0  0  0  0  # atno 17320 bound_to 7965
  146.1384  140.7091  142.9379 LP  0  0  0  0  0  0  0  0  0  0  0  0  # atno 17321 bound_to 7965
  140.7594  143.5940  150.8767 LP  0  0  0  0  0  0  0  0  0  0  0  0  # atno 17342 bound_to 10162
  139.9601  143.6174  152.3005 LP  0  0  0  0  0  0  0  0  0  0  0  0  # atno 17343 bound_to 10162
  156.6980  130.4615  149.5581 LP  0  0  0  0  0  0  0  0  0  0  0  0  # atno 17370 bound_to 10713
  156.1815  130.6502  151.0957 LP  0  0  0  0  0  0  0  0  0  0  0  0  # atno 17371 bound_to 10713
  141.2189  133.7416  156.9203 LP  0  0  0  0  0  0  0  0  0  0  0  0  # atno 17394 bound_to 11000
  140.1454  134.9265  157.2523 LP  0  0  0  0  0  0  0  0  0  0  0  0  # atno 17395 bound_to 11000

$$$$
