AV-unprocessed.smi:3241|AV-procd|sdf|12388|dock3
  -GOLD-   2272018253D 1   1.00000     0.00000
 Structure written by MMmdl.
 44 45  0  0  0  0  0  0  0  0  2 V2000
  152.3722  140.2960  159.1984 C   0  0  0  0  0  0  0  0  0  0  0  0
  151.8561  141.7431  159.2618 C   0  0  1  0  0  0  0  0  0  0  0  0
  152.8655  142.6484  159.9964 C   0  0  0  0  0  0  0  0  0  0  0  0
  152.3801  144.1042  160.0671 C   0  0  0  0  0  0  0  0  0  0  0  0
  152.0841  144.6550  158.6654 C   0  0  0  0  0  0  0  0  0  0  0  0
  151.0702  143.7675  157.9289 C   0  0  0  0  0  0  0  0  0  0  0  0
  151.5471  142.3017  157.8543 C   0  0  2  0  0  0  0  0  0  0  0  0
  150.5212  141.5002  157.2814 O   0  0  0  0  0  0  0  0  0  0  0  0
  150.2833  141.7472  155.9038 C   0  0  0  0  0  0  0  0  0  0  0  0
  148.8819  141.2378  155.5529 C   0  0  0  0  0  0  0  0  0  0  0  0
  147.8458  142.1590  156.0580 N   0  3  0  0  0  0  0  0  0  0  0  0
  147.3536  141.8345  157.4118 C   0  0  0  0  0  0  0  0  0  0  0  0
  147.9566  142.7692  158.4725 C   0  0  0  0  0  0  0  0  0  0  0  0
  147.0193  143.0662  159.5407 N   0  0  0  0  0  0  0  0  0  0  0  0
  146.6738  144.2957  160.0606 C   0  0  0  0  0  0  0  0  0  0  0  0
  145.7509  144.0761  161.0428 C   0  0  0  0  0  0  0  0  0  0  0  0
  145.5953  142.6620  161.0513 C   0  0  0  0  0  0  0  0  0  0  0  0
  146.3534  142.0604  160.1485 N   0  0  0  0  0  0  0  0  0  0  0  0
  153.2888  140.2276  158.6119 H   0  0  0  0  0  0  0  0  0  0  0  0
  151.6372  139.6304  158.7454 H   0  0  0  0  0  0  0  0  0  0  0  0
  152.5872  139.9120  160.1962 H   0  0  0  0  0  0  0  0  0  0  0  0
  150.9297  141.7399  159.8382 H   0  0  0  0  0  0  0  0  0  0  0  0
  153.0364  142.2734  161.0061 H   0  0  0  0  0  0  0  0  0  0  0  0
  153.8301  142.6137  159.4878 H   0  0  0  0  0  0  0  0  0  0  0  0
  151.4805  144.1612  160.6812 H   0  0  0  0  0  0  0  0  0  0  0  0
  153.1308  144.7236  160.5590 H   0  0  0  0  0  0  0  0  0  0  0  0
  151.7023  145.6736  158.7396 H   0  0  0  0  0  0  0  0  0  0  0  0
  153.0091  144.7117  158.0898 H   0  0  0  0  0  0  0  0  0  0  0  0
  150.1098  143.8137  158.4437 H   0  0  0  0  0  0  0  0  0  0  0  0
  150.9031  144.1682  156.9294 H   0  0  0  0  0  0  0  0  0  0  0  0
  152.4571  142.2417  157.2536 H   0  0  0  0  0  0  0  0  0  0  0  0
  150.3463  142.8151  155.6940 H   0  0  0  0  0  0  0  0  0  0  0  0
  151.0324  141.2471  155.2878 H   0  0  0  0  0  0  0  0  0  0  0  0
  148.7811  141.1220  154.4730 H   0  0  0  0  0  0  0  0  0  0  0  0
  148.7289  140.2544  155.9994 H   0  0  0  0  0  0  0  0  0  0  0  0
  148.2245  143.0957  156.0736 H   0  0  0  0  0  0  0  0  0  0  0  0
  146.2668  141.9259  157.4222 H   0  0  0  0  0  0  0  0  0  0  0  0
  147.5895  140.7958  157.6484 H   0  0  0  0  0  0  0  0  0  0  0  0
  148.8617  142.3351  158.9005 H   0  0  0  0  0  0  0  0  0  0  0  0
  148.2523  143.7112  158.0095 H   0  0  0  0  0  0  0  0  0  0  0  0
  147.1075  145.2140  159.6924 H   0  0  0  0  0  0  0  0  0  0  0  0
  145.2624  144.8132  161.6627 H   0  0  0  0  0  0  0  0  0  0  0  0
  144.9574  142.0591  161.6807 H   0  0  0  0  0  0  0  0  0  0  0  0
  147.0639  142.1417  155.4185 H   0  0  0  0  0  0  0  0  0  0  0  0
  1  2  1  0  0  0  0
  1 19  1  0  0  0  0
  1 20  1  0  0  0  0
  1 21  1  0  0  0  0
  2  7  1  0  0  0  0
  2  3  1  0  0  0  0
  2 22  1  0  0  0  0
  3  4  1  0  0  0  0
  3 23  1  0  0  0  0
  3 24  1  0  0  0  0
  4  5  1  0  0  0  0
  4 25  1  0  0  0  0
  4 26  1  0  0  0  0
  5  6  1  0  0  0  0
  5 27  1  0  0  0  0
  5 28  1  0  0  0  0
  6  7  1  0  0  0  0
  6 29  1  0  0  0  0
  6 30  1  0  0  0  0
  7  8  1  0  0  0  0
  7 31  1  0  0  0  0
  8  9  1  0  0  0  0
  9 10  1  0  0  0  0
  9 32  1  0  0  0  0
  9 33  1  0  0  0  0
 10 11  1  0  0  0  0
 10 34  1  0  0  0  0
 10 35  1  0  0  0  0
 11 12  1  0  0  0  0
 11 36  1  0  0  0  0
 11 44  1  0  0  0  0
 12 13  1  0  0  0  0
 12 37  1  0  0  0  0
 12 38  1  0  0  0  0
 13 14  1  0  0  0  0
 13 39  1  0  0  0  0
 13 40  1  0  0  0  0
 14 18  1  0  0  0  0
 14 15  1  0  0  0  0
 15 16  2  0  0  0  0
 15 41  1  0  0  0  0
 16 17  1  0  0  0  0
 16 42  1  0  0  0  0
 17 18  2  0  0  0  0
 17 43  1  0  0  0  0
M  CHG  1  11   1
M  END
> <s_m_source_file>
AV-unprocessed.smi

> <i_m_source_file_index>
3241

> <i_lp_mmshare_version>
43012

> <i_f3d_flags>
0

> <s_epik_input>
W0NIM11bQ0BASF0xW0NIMl1bQ0gyXVtDSDJdW0NIMl1bQ0BIXTFPW0NIMl1bQ0gyXVtOSF1bQ0gyXVtDSDJdbjJbY0hdW2NIXVtjSF1uMg==

> <s_epik_cmdline>
J2VwaWtfcHl0aG9uJywgJy1waCcsICc3LjAnLCAnLXRuJywgJzgnLCAnLW1hJywgJzIwMCcsICctbWV0YWxfYmluZGluZycsICctaW1hZScsICc8aW5maWxlLm1hZT4nLCAnLW9tYWUnLCAnPG91dGZpbGUubWFlPic=

> <r_lp_tautomer_probability>
1

> <r_epik_Ionization_Penalty>
0.00924946

> <r_epik_Ionization_Penalty_Charging>
0.00924645

> <r_epik_Ionization_Penalty_Neutral>
3.00629e-06

> <r_epik_State_Penalty>
0.0070118

> <r_epik_Charging_Adjusted_Penalty>
0.0162583

> <i_epik_Tot_Q>
1

> <i_epik_Tot_abs_Q>
1

> <r_epik_Metal_State_Penalty>
0.00702523

> <b_epik_Metal_Only>
0

> <s_lp_Force_Field>
OPLS_2005

> <r_lp_Energy>
14.0519

> <b_lp_Chiralities_Consistent>
1

> <s_lp_Variant>
AV-unprocessed.smi:3241-4

> <Gold.Version>
5.8.1

> <Gold.Id.Protein>
6NUR|6NUR_protein|mol2

> <Gold.PLP.Fitness>
48.4578

> <Gold.PLP.PLP>
-38.4415

> <Gold.PLP.part.hbond>
-2.4003

> <Gold.PLP.part.metal>
0.0000

> <Gold.PLP.part.buried>
-5.3139

> <Gold.PLP.part.nonpolar>
-30.9876

> <Gold.PLP.part.repulsive>
0.0986

> <Gold.PLP.ligand.clash>
0.0000

> <Gold.PLP.ligand.torsion>
1.0499

> <Gold.PLP.Chemscore.Hbond>
3.0000

> <Gold.PLP.Chemscore.CHOScore>
0.9846

> <Gold.PLP.Chemscore.Metal>
0.0000

> <Gold.Chemscore.Hbonds>
donor molecule, donor type, donor heavy atom, donor atom, acceptor molecule, acceptor atom, score
      L1  H    11    36       P1  8028  2.00
      P1  H  6934  6946       L1    18  0.76
      L1  C    15    41       P1  8029  0.75

> <Gold.PLP.Chemscore.Internal.Correction>
0.1621

> <Gold.Rescore>
     Score         DG    S(hbond)    S(metal)    S(lipo)     H(rot)  DE(clash)    DE(int)     intcor
     18.16     -19.39       1.88        0.00     106.69       1.89       0.00       1.22       ----

> <Gold.Chemscore.Fitness>
18.1618

> <Gold.Chemscore.DG>
-19.3883

> <Gold.Chemscore.ZeroCoef>
-5.4800

> <Gold.Chemscore.Hbond>
1.8760

> <Gold.Chemscore.Metal>
0.0000

> <Gold.Chemscore.Lipo>
106.6869

> <Gold.Chemscore.Internal_Hbond>
0.0000

> <Gold.Chemscore.DEClash>
0.0034

> <Gold.Chemscore.DEInternal>
1.2231

> <Gold.Chemscore.Rot>
1.8906

> <Gold.Chemscore.Internal.Correction>
   9.000000E+99

> <Gold.Chemscore.Hbonds>
donor molecule, donor type, donor heavy atom, donor atom, acceptor molecule, acceptor atom, score
      L1  H    11    36       P1  8028  0.74
      P1  H  6934  6946       L1    18  0.54

> <Gold.Chemscore.Hbond.Weighted>
-6.2660

> <Gold.Chemscore.Metal.Weighted>
-0.0000

> <Gold.Chemscore.Lipo.Weighted>
-12.4824

> <Gold.Chemscore.Internal_Hbond.Weighted>
0.0000

> <Gold.Chemscore.DEClash.Weighted>
0.0034

> <Gold.Chemscore.DEInternal.Weighted>
1.2231

> <Gold.Chemscore.Rot.Weighted>
4.8400

> <Gold.Chemscore.Internal.Correction.Weighted>
   9.000000E+99

> <Gold.Protein.RotatedTorsions>
[ 6907 6896 6895 6894 ] final   -8.33 input  -60.11 | X-H torsion
[ 7974 7965 7964 7962 ] final -111.39 input  175.53 | X-H torsion
[ 8008 7997 7996 7995 ] final   90.35 input   59.86 | X-H torsion
[ 10167 10162 10161 10158 ] final -128.87 input  -65.29 | X-H torsion
[ 10718 10713 10712 10709 ] final  145.57 input   66.30 | X-H torsion
[ 10763 10752 10751 10750 ] final   90.76 input  -60.55 | X-H torsion
[ 11005 11000 10999 10996 ] final    8.23 input  -57.11 | X-H torsion

> <Gold.Protein.ActiveResidues>
 VAL166  LYS551  ARG553  GLY616  TRP617  ASP618  TYR619  PRO620  LYS621  CYS622 
 ASP623  PHE694  ASN695  SER759  ASP760  ASP761  ALA762  ILE779  LEU786  VAL792 
 PHE793  MET794  SER795  GLU796  ALA797  LYS798  CYS799  TRP800  GLU811  SER814 

> <Gold.Protein.RotatedAtoms>
  151.4353  135.1014  159.9654 H   0  0  0  0  0  0  0  0  0  0  0  0  # atno 6907 bound_to 6896
  152.4941  133.8579  159.7245 H   0  0  0  0  0  0  0  0  0  0  0  0  # atno 6908 bound_to 6896
  150.9126  133.6920  159.2879 H   0  0  0  0  0  0  0  0  0  0  0  0  # atno 6909 bound_to 6896
  145.1567  140.8857  143.3615 H   0  0  0  0  0  0  0  0  0  0  0  0  # atno 7974 bound_to 7965
  156.0109  140.3350  155.6940 H   0  0  0  0  0  0  0  0  0  0  0  0  # atno 8008 bound_to 7997
  155.6159  140.0670  157.2710 H   0  0  0  0  0  0  0  0  0  0  0  0  # atno 8009 bound_to 7997
  154.4281  140.1785  156.1308 H   0  0  0  0  0  0  0  0  0  0  0  0  # atno 8010 bound_to 7997
  139.9457  143.6112  152.2490 H   0  0  0  0  0  0  0  0  0  0  0  0  # atno 10167 bound_to 10162
  157.3437  131.0940  151.1060 H   0  0  0  0  0  0  0  0  0  0  0  0  # atno 10718 bound_to 10713
  153.2010  135.4422  155.0266 H   0  0  0  0  0  0  0  0  0  0  0  0  # atno 10763 bound_to 10752
  154.8147  135.3310  154.7212 H   0  0  0  0  0  0  0  0  0  0  0  0  # atno 10764 bound_to 10752
  153.7657  135.6988  153.4972 H   0  0  0  0  0  0  0  0  0  0  0  0  # atno 10765 bound_to 10752
  140.5393  134.0390  155.7899 H   0  0  0  0  0  0  0  0  0  0  0  0  # atno 11005 bound_to 11000
  145.0374  139.3289  143.5994 LP  0  0  0  0  0  0  0  0  0  0  0  0  # atno 17320 bound_to 7965
  146.3488  139.9735  142.8703 LP  0  0  0  0  0  0  0  0  0  0  0  0  # atno 17321 bound_to 7965
  139.6669  144.7662  151.1857 LP  0  0  0  0  0  0  0  0  0  0  0  0  # atno 17342 bound_to 10162
  140.7598  143.5925  150.8782 LP  0  0  0  0  0  0  0  0  0  0  0  0  # atno 17343 bound_to 10162
  157.2262  130.6504  149.5831 LP  0  0  0  0  0  0  0  0  0  0  0  0  # atno 17370 bound_to 10713
  155.9711  130.4613  150.6105 LP  0  0  0  0  0  0  0  0  0  0  0  0  # atno 17371 bound_to 10713
  141.1236  133.9420  157.2680 LP  0  0  0  0  0  0  0  0  0  0  0  0  # atno 17394 bound_to 11000
  139.9512  135.0175  156.9000 LP  0  0  0  0  0  0  0  0  0  0  0  0  # atno 17395 bound_to 11000

$$$$
