AV-unprocessed.smi:181|AV-procd|sdf|1454|dock9
  -GOLD-   2262019253D 1   1.00000     0.00000
 Structure written by MMmdl.
 50 53  0  0  0  0  0  0  0  0  1 V2000
  154.8410  140.0408  158.4824 C   0  0  0  0  0  0  0  0  0  0  0  0
  154.4876  141.1455  157.4793 C   0  0  0  0  0  0  0  0  0  0  0  0
  153.3035  141.9147  157.8690 N   0  0  0  0  0  0  0  0  0  0  0  0
  152.1032  141.2799  157.8004 C   0  0  0  0  0  0  0  0  0  0  0  0
  150.9700  141.9420  158.1493 N   0  0  0  0  0  0  0  0  0  0  0  0
  149.7834  141.3315  158.0883 C   0  0  0  0  0  0  0  0  0  0  0  0
  149.5063  140.0839  157.7060 N   0  0  0  0  0  0  0  0  0  0  0  0
  150.6376  139.4164  157.3406 C   0  0  0  0  0  0  0  0  0  0  0  0
  151.9642  139.9331  157.3603 C   0  0  0  0  0  0  0  0  0  0  0  0
  152.8548  138.9650  156.9110 N   0  0  0  0  0  0  0  0  0  0  0  0
  152.1000  137.9322  156.6539 C   0  0  0  0  0  0  0  0  0  0  0  0
  150.7537  138.1191  156.8727 N   0  0  0  0  0  0  0  0  0  0  0  0
  149.6942  137.1443  156.6620 C   0  0  0  0  0  0  0  0  0  0  0  0
  149.0570  136.6090  157.9692 C   0  0  0  0  0  0  0  0  0  0  0  0
  148.7945  135.2281  157.7902 O   0  0  0  0  0  0  0  0  0  0  0  0
  149.9822  136.7721  159.1956 C   0  0  0  0  0  0  0  0  0  0  0  0
  149.2620  136.4366  160.5140 C   0  0  0  0  0  0  0  0  0  0  0  0
  148.0815  137.2198  160.6413 O   0  0  0  0  0  0  0  0  0  0  0  0
  147.1318  136.9522  159.6170 C   0  0  0  0  0  0  0  0  0  0  0  0
  147.7197  137.3257  158.2447 C   0  0  0  0  0  0  0  0  0  0  0  0
  153.4545  143.2284  158.5192 C   0  0  1  0  0  0  0  0  0  0  0  0
  152.5385  144.3176  157.9264 C   0  0  0  0  0  0  0  0  0  0  0  0
  152.2459  145.2599  159.1034 C   0  0  0  0  0  0  0  0  0  0  0  0
  152.5032  144.4535  160.2822 N   0  0  0  0  0  0  0  0  0  0  0  0
  153.1422  143.3152  160.0131 C   0  0  0  0  0  0  0  0  0  0  0  0
  153.4531  142.4590  160.8383 O   0  0  0  0  0  0  0  0  0  0  0  0
  155.6820  139.4483  158.1222 H   0  0  0  0  0  0  0  0  0  0  0  0
  153.9998  139.3645  158.6369 H   0  0  0  0  0  0  0  0  0  0  0  0
  155.1268  140.4557  159.4485 H   0  0  0  0  0  0  0  0  0  0  0  0
  155.3302  141.8297  157.3754 H   0  0  0  0  0  0  0  0  0  0  0  0
  154.3588  140.6867  156.4993 H   0  0  0  0  0  0  0  0  0  0  0  0
  148.9349  141.9286  158.3874 H   0  0  0  0  0  0  0  0  0  0  0  0
  152.5063  137.0020  156.2847 H   0  0  0  0  0  0  0  0  0  0  0  0
  148.9296  137.6137  156.0416 H   0  0  0  0  0  0  0  0  0  0  0  0
  150.0979  136.3209  156.0711 H   0  0  0  0  0  0  0  0  0  0  0  0
  147.8689  135.0795  157.9094 H   0  0  0  0  0  0  0  0  0  0  0  0
  150.8714  136.1484  159.0990 H   0  0  0  0  0  0  0  0  0  0  0  0
  150.3339  137.8035  159.2456 H   0  0  0  0  0  0  0  0  0  0  0  0
  149.0151  135.3753  160.5679 H   0  0  0  0  0  0  0  0  0  0  0  0
  149.9164  136.6499  161.3592 H   0  0  0  0  0  0  0  0  0  0  0  0
  146.8328  135.9031  159.6459 H   0  0  0  0  0  0  0  0  0  0  0  0
  146.2345  137.5402  159.8097 H   0  0  0  0  0  0  0  0  0  0  0  0
  147.8775  138.4049  158.2216 H   0  0  0  0  0  0  0  0  0  0  0  0
  146.9982  137.1065  157.4563 H   0  0  0  0  0  0  0  0  0  0  0  0
  154.4905  143.5520  158.4074 H   0  0  0  0  0  0  0  0  0  0  0  0
  153.0065  144.8382  157.0904 H   0  0  0  0  0  0  0  0  0  0  0  0
  151.5958  143.9080  157.5624 H   0  0  0  0  0  0  0  0  0  0  0  0
  152.9225  146.1153  159.1011 H   0  0  0  0  0  0  0  0  0  0  0  0
  151.2203  145.6299  159.0893 H   0  0  0  0  0  0  0  0  0  0  0  0
  152.1957  144.7241  161.2050 H   0  0  0  0  0  0  0  0  0  0  0  0
  1  2  1  0  0  0  0
  1 27  1  0  0  0  0
  1 28  1  0  0  0  0
  1 29  1  0  0  0  0
  2  3  1  0  0  0  0
  2 30  1  0  0  0  0
  2 31  1  0  0  0  0
  3  4  1  0  0  0  0
  3 21  1  0  0  0  0
  4  9  1  0  0  0  0
  4  5  2  0  0  0  0
  5  6  1  0  0  0  0
  6  7  2  0  0  0  0
  6 32  1  0  0  0  0
  7  8  1  0  0  0  0
  8 12  1  0  0  0  0
  8  9  2  0  0  0  0
  9 10  1  0  0  0  0
 10 11  2  0  0  0  0
 11 12  1  0  0  0  0
 11 33  1  0  0  0  0
 12 13  1  0  0  0  0
 13 14  1  0  0  0  0
 13 34  1  0  0  0  0
 13 35  1  0  0  0  0
 14 20  1  0  0  0  0
 14 15  1  0  0  0  0
 14 16  1  0  0  0  0
 15 36  1  0  0  0  0
 16 17  1  0  0  0  0
 16 37  1  0  0  0  0
 16 38  1  0  0  0  0
 17 18  1  0  0  0  0
 17 39  1  0  0  0  0
 17 40  1  0  0  0  0
 18 19  1  0  0  0  0
 19 20  1  0  0  0  0
 19 41  1  0  0  0  0
 19 42  1  0  0  0  0
 20 43  1  0  0  0  0
 20 44  1  0  0  0  0
 21 25  1  0  0  0  0
 21 22  1  0  0  0  0
 21 45  1  0  0  0  0
 22 23  1  0  0  0  0
 22 46  1  0  0  0  0
 22 47  1  0  0  0  0
 23 24  1  0  0  0  0
 23 48  1  0  0  0  0
 23 49  1  0  0  0  0
 24 25  1  0  0  0  0
 24 50  1  0  0  0  0
 25 26  2  0  0  0  0
M  END
> <s_m_source_file>
AV-unprocessed.smi

> <i_m_source_file_index>
181

> <i_lp_mmshare_version>
43012

> <i_f3d_flags>
0

> <s_epik_input>
Tz1DMVtOSF1bQ0gyXVtDSDJdW0NASF0xTihbQ0gyXVtDSDNdKWMobltjSF1uMiljKGMyMyluW2NIXW4zW0NIMl1DNChbT0hdKVtDSDJdW0NIMl1PW0NIMl1bQ0gyXTQ=

> <s_epik_cmdline>
J2VwaWtfcHl0aG9uJywgJy1waCcsICc3LjAnLCAnLXRuJywgJzgnLCAnLW1hJywgJzIwMCcsICctbWV0YWxfYmluZGluZycsICctaW1hZScsICc8aW5maWxlLm1hZT4nLCAnLW9tYWUnLCAnPG91dGZpbGUubWFlPic=

> <r_lp_tautomer_probability>
1

> <r_epik_Ionization_Penalty>
0.000985257

> <r_epik_Ionization_Penalty_Charging>
0

> <r_epik_Ionization_Penalty_Neutral>
0.000985257

> <r_epik_State_Penalty>
0.000517047

> <r_epik_Charging_Adjusted_Penalty>
0.000517047

> <i_epik_Tot_Q>
0

> <i_epik_Tot_abs_Q>
0

> <r_epik_Metal_State_Penalty>
-0

> <b_epik_Metal_Only>
0

> <s_lp_Force_Field>
OPLS_2005

> <r_lp_Energy>
36.1044

> <b_lp_Chiralities_Consistent>
1

> <s_lp_Variant>
AV-unprocessed.smi:181-2

> <Gold.Version>
5.8.1

> <Gold.Id.Protein>
6NUR|6NUR_protein|mol2

> <Gold.PLP.Fitness>
49.4392

> <Gold.PLP.PLP>
-42.9794

> <Gold.PLP.part.hbond>
-4.0000

> <Gold.PLP.part.metal>
0.0000

> <Gold.PLP.part.buried>
-6.5945

> <Gold.PLP.part.nonpolar>
-36.3575

> <Gold.PLP.part.repulsive>
2.4670

> <Gold.PLP.ligand.clash>
0.0000

> <Gold.PLP.ligand.torsion>
1.2878

> <Gold.PLP.Chemscore.Hbond>
2.9199

> <Gold.PLP.Chemscore.CHOScore>
0.0000

> <Gold.PLP.Chemscore.Metal>
0.0000

> <Gold.Chemscore.Hbonds>
donor molecule, donor type, donor heavy atom, donor atom, acceptor molecule, acceptor atom, score
      P1  H  6931  6943       L1    18  0.28
      P1  H  6934  6947       L1    18  0.32
      P1  H  7997  8009       L1    10  0.20

> <Gold.PLP.Chemscore.Internal.Correction>
0.2757

> <Gold.Rescore>
     Score         DG    S(hbond)    S(metal)    S(lipo)     H(rot)  DE(clash)    DE(int)     intcor
      8.54     -13.30       1.28        0.00      84.72       2.49       0.04       4.72       ----

> <Gold.Chemscore.Fitness>
8.5356

> <Gold.Chemscore.DG>
-13.2978

> <Gold.Chemscore.ZeroCoef>
-5.4800

> <Gold.Chemscore.Hbond>
1.2813

> <Gold.Chemscore.Metal>
0.0000

> <Gold.Chemscore.Lipo>
84.7156

> <Gold.Chemscore.Internal_Hbond>
0.0000

> <Gold.Chemscore.DEClash>
0.0383

> <Gold.Chemscore.DEInternal>
4.7238

> <Gold.Chemscore.Rot>
2.4897

> <Gold.Chemscore.Internal.Correction>
   9.000000E+99

> <Gold.Chemscore.Hbonds>
donor molecule, donor type, donor heavy atom, donor atom, acceptor molecule, acceptor atom, score
      P1  H  6931  6943       L1    18  0.01
      P1  H  6934  6947       L1    18  0.01
      P1  H  7997  8009       L1    10  0.07

> <Gold.Chemscore.Hbond.Weighted>
-4.2795

> <Gold.Chemscore.Metal.Weighted>
-0.0000

> <Gold.Chemscore.Lipo.Weighted>
-9.9117

> <Gold.Chemscore.Internal_Hbond.Weighted>
0.0000

> <Gold.Chemscore.DEClash.Weighted>
0.0383

> <Gold.Chemscore.DEInternal.Weighted>
4.7238

> <Gold.Chemscore.Rot.Weighted>
6.3735

> <Gold.Chemscore.Internal.Correction.Weighted>
   9.000000E+99

> <Gold.Protein.RotatedTorsions>
[ 6907 6896 6895 6894 ] final  -89.80 input  -60.11 | X-H torsion
[ 7974 7965 7964 7962 ] final  117.80 input  175.53 | X-H torsion
[ 8008 7997 7996 7995 ] final  136.13 input   59.86 | X-H torsion
[ 10167 10162 10161 10158 ] final   96.59 input  -65.29 | X-H torsion
[ 10718 10713 10712 10709 ] final   90.29 input   66.30 | X-H torsion
[ 10763 10752 10751 10750 ] final  146.34 input  -60.55 | X-H torsion
[ 11005 11000 10999 10996 ] final  -70.30 input  -57.11 | X-H torsion

> <Gold.Protein.ActiveResidues>
 VAL166  LYS551  ARG553  GLY616  TRP617  ASP618  TYR619  PRO620  LYS621  CYS622 
 ASP623  PHE694  ASN695  SER759  ASP760  ASP761  ALA762  ILE779  LEU786  VAL792 
 PHE793  MET794  SER795  GLU796  ALA797  LYS798  CYS799  TRP800  GLU811  SER814 

> <Gold.Protein.RotatedAtoms>
  150.6876  134.2530  159.4518 H   0  0  0  0  0  0  0  0  0  0  0  0  # atno 6907 bound_to 6896
  152.0466  134.9677  160.0583 H   0  0  0  0  0  0  0  0  0  0  0  0  # atno 6908 bound_to 6896
  152.1157  133.4291  159.4689 H   0  0  0  0  0  0  0  0  0  0  0  0  # atno 6909 bound_to 6896
  145.1629  139.3144  143.4507 H   0  0  0  0  0  0  0  0  0  0  0  0  # atno 7974 bound_to 7965
  156.3004  140.2453  156.3695 H   0  0  0  0  0  0  0  0  0  0  0  0  # atno 8008 bound_to 7997
  154.8802  140.0413  157.1797 H   0  0  0  0  0  0  0  0  0  0  0  0  # atno 8009 bound_to 7997
  154.8704  140.2934  155.5489 H   0  0  0  0  0  0  0  0  0  0  0  0  # atno 8010 bound_to 7997
  139.7880  144.6863  150.9931 H   0  0  0  0  0  0  0  0  0  0  0  0  # atno 10167 bound_to 10162
  157.6958  131.0365  150.3555 H   0  0  0  0  0  0  0  0  0  0  0  0  # atno 10718 bound_to 10713
  154.0203  135.2906  155.3382 H   0  0  0  0  0  0  0  0  0  0  0  0  # atno 10763 bound_to 10752
  154.7050  135.5173  153.8585 H   0  0  0  0  0  0  0  0  0  0  0  0  # atno 10764 bound_to 10752
  153.0684  135.6639  154.0426 H   0  0  0  0  0  0  0  0  0  0  0  0  # atno 10765 bound_to 10752
  141.1571  133.6786  156.6732 H   0  0  0  0  0  0  0  0  0  0  0  0  # atno 11005 bound_to 11000
  146.3480  140.1746  142.8589 LP  0  0  0  0  0  0  0  0  0  0  0  0  # atno 17320 bound_to 7965
  145.0312  140.8872  143.5108 LP  0  0  0  0  0  0  0  0  0  0  0  0  # atno 17321 bound_to 7965
  140.7820  143.4411  151.0550 LP  0  0  0  0  0  0  0  0  0  0  0  0  # atno 17342 bound_to 10162
  139.8089  143.7979  152.3169 LP  0  0  0  0  0  0  0  0  0  0  0  0  # atno 17343 bound_to 10162
  156.3998  130.3913  149.6968 LP  0  0  0  0  0  0  0  0  0  0  0  0  # atno 17370 bound_to 10713
  156.4289  130.7805  151.2825 LP  0  0  0  0  0  0  0  0  0  0  0  0  # atno 17371 bound_to 10713
  140.3159  134.8048  157.4214 LP  0  0  0  0  0  0  0  0  0  0  0  0  # atno 17394 bound_to 11000
  140.1138  134.5310  155.8242 LP  0  0  0  0  0  0  0  0  0  0  0  0  # atno 17395 bound_to 11000

$$$$
