AV-unprocessed.smi:3165|AV-procd|sdf|12092|dock5
  -GOLD-   2272017523D 1   1.00000     0.00000
 Structure written by MMmdl.
 37 38  0  0  0  0  0  0  0  0  1 V2000
  147.4789  142.1366  154.6290 C   0  0  0  0  0  0  0  0  0  0  0  0
  148.5007  141.1071  155.1374 C   0  0  1  0  0  0  0  0  0  0  0  0
  148.9401  140.1145  154.0307 C   0  0  0  0  0  0  0  0  0  0  0  0
  150.0779  139.2862  154.3982 N   0  0  0  0  0  0  0  0  0  0  0  0
  150.1527  137.9101  154.4593 C   0  0  0  0  0  0  0  0  0  0  0  0
  151.4189  137.5877  154.8555 C   0  0  0  0  0  0  0  0  0  0  0  0
  152.0525  138.8509  155.0203 C   0  0  0  0  0  0  0  0  0  0  0  0
  151.2466  139.8649  154.7508 N   0  0  0  0  0  0  0  0  0  0  0  0
  149.6262  141.8109  155.7617 N   0  0  0  0  0  0  0  0  0  0  0  0
  150.2038  141.1644  156.9400 C   0  0  0  0  0  0  0  0  0  0  0  0
  151.4599  141.9072  157.4190 C   0  0  1  0  0  0  0  0  0  0  0  0
  151.2305  143.4253  157.5721 C   0  0  0  0  0  0  0  0  0  0  0  0
  152.4834  144.1050  158.1360 C   0  0  0  0  0  0  0  0  0  0  0  0
  152.9142  143.4043  159.4285 C   0  0  0  0  0  0  0  0  0  0  0  0
  153.0472  141.8908  159.1965 C   0  0  0  0  0  0  0  0  0  0  0  0
  151.8238  141.3672  158.6874 O   0  0  0  0  0  0  0  0  0  0  0  0
  146.6254  141.6446  154.1619 H   0  0  0  0  0  0  0  0  0  0  0  0
  147.9171  142.8133  153.8945 H   0  0  0  0  0  0  0  0  0  0  0  0
  147.0975  142.7457  155.4491 H   0  0  0  0  0  0  0  0  0  0  0  0
  147.9988  140.5216  155.9087 H   0  0  0  0  0  0  0  0  0  0  0  0
  148.1185  139.4701  153.7171 H   0  0  0  0  0  0  0  0  0  0  0  0
  149.2184  140.6781  153.1393 H   0  0  0  0  0  0  0  0  0  0  0  0
  149.3087  137.2821  154.2144 H   0  0  0  0  0  0  0  0  0  0  0  0
  151.8300  136.6005  155.0047 H   0  0  0  0  0  0  0  0  0  0  0  0
  153.0667  139.0601  155.3270 H   0  0  0  0  0  0  0  0  0  0  0  0
  149.3454  142.7570  155.9986 H   0  0  0  0  0  0  0  0  0  0  0  0
  149.4722  141.1129  157.7474 H   0  0  0  0  0  0  0  0  0  0  0  0
  150.4807  140.1378  156.7010 H   0  0  0  0  0  0  0  0  0  0  0  0
  152.2734  141.7193  156.7153 H   0  0  0  0  0  0  0  0  0  0  0  0
  150.9693  143.8718  156.6122 H   0  0  0  0  0  0  0  0  0  0  0  0
  150.3870  143.6050  158.2401 H   0  0  0  0  0  0  0  0  0  0  0  0
  153.2899  144.0530  157.4034 H   0  0  0  0  0  0  0  0  0  0  0  0
  152.2936  145.1625  158.3207 H   0  0  0  0  0  0  0  0  0  0  0  0
  153.8580  143.8171  159.7858 H   0  0  0  0  0  0  0  0  0  0  0  0
  152.1753  143.5890  160.2091 H   0  0  0  0  0  0  0  0  0  0  0  0
  153.8638  141.6727  158.5065 H   0  0  0  0  0  0  0  0  0  0  0  0
  153.2818  141.3877  160.1346 H   0  0  0  0  0  0  0  0  0  0  0  0
  1  2  1  0  0  0  0
  1 17  1  0  0  0  0
  1 18  1  0  0  0  0
  1 19  1  0  0  0  0
  2  3  1  0  0  0  0
  2  9  1  0  0  0  0
  2 20  1  0  0  0  0
  3  4  1  0  0  0  0
  3 21  1  0  0  0  0
  3 22  1  0  0  0  0
  4  8  1  0  0  0  0
  4  5  1  0  0  0  0
  5  6  2  0  0  0  0
  5 23  1  0  0  0  0
  6  7  1  0  0  0  0
  6 24  1  0  0  0  0
  7  8  2  0  0  0  0
  7 25  1  0  0  0  0
  9 10  1  0  0  0  0
  9 26  1  0  0  0  0
 10 11  1  0  0  0  0
 10 27  1  0  0  0  0
 10 28  1  0  0  0  0
 11 16  1  0  0  0  0
 11 12  1  0  0  0  0
 11 29  1  0  0  0  0
 12 13  1  0  0  0  0
 12 30  1  0  0  0  0
 12 31  1  0  0  0  0
 13 14  1  0  0  0  0
 13 32  1  0  0  0  0
 13 33  1  0  0  0  0
 14 15  1  0  0  0  0
 14 34  1  0  0  0  0
 14 35  1  0  0  0  0
 15 16  1  0  0  0  0
 15 36  1  0  0  0  0
 15 37  1  0  0  0  0
M  END
> <s_m_source_file>
AV-unprocessed.smi

> <i_m_source_file_index>
3165

> <i_lp_mmshare_version>
43012

> <i_f3d_flags>
0

> <s_epik_input>
bjFbY0hdW2NIXVtjSF1uMVtDSDJdW0NAQEhdKFtDSDNdKVtOSF1bQ0gyXVtDQEBIXTJbQ0gyXVtDSDJdW0NIMl1bQ0gyXU8y

> <s_epik_cmdline>
J2VwaWtfcHl0aG9uJywgJy1waCcsICc3LjAnLCAnLXRuJywgJzgnLCAnLW1hJywgJzIwMCcsICctbWV0YWxfYmluZGluZycsICctaW1hZScsICc8aW5maWxlLm1hZT4nLCAnLW9tYWUnLCAnPG91dGZpbGUubWFlPic=

> <r_lp_tautomer_probability>
1

> <r_epik_Ionization_Penalty>
2.51982

> <r_epik_Ionization_Penalty_Charging>
0

> <r_epik_Ionization_Penalty_Neutral>
2.51982

> <r_epik_State_Penalty>
2.68614

> <r_epik_Charging_Adjusted_Penalty>
2.68614

> <i_epik_Tot_Q>
0

> <i_epik_Tot_abs_Q>
0

> <r_epik_Metal_State_Penalty>
2.6861

> <b_epik_Metal_Only>
0

> <s_lp_Force_Field>
OPLS_2005

> <r_lp_Energy>
14.4807

> <b_lp_Chiralities_Consistent>
1

> <s_lp_Variant>
AV-unprocessed.smi:3165-8

> <Gold.Version>
5.8.1

> <Gold.Id.Protein>
6NUR|6NUR_protein|mol2

> <Gold.PLP.Fitness>
45.9126

> <Gold.PLP.PLP>
-38.0808

> <Gold.PLP.part.hbond>
-1.9707

> <Gold.PLP.part.metal>
0.0000

> <Gold.PLP.part.buried>
-0.4467

> <Gold.PLP.part.nonpolar>
-36.3633

> <Gold.PLP.part.repulsive>
0.0709

> <Gold.PLP.ligand.clash>
0.0000

> <Gold.PLP.ligand.torsion>
0.5909

> <Gold.PLP.Chemscore.Hbond>
2.0000

> <Gold.PLP.Chemscore.CHOScore>
0.9975

> <Gold.PLP.Chemscore.Metal>
0.0000

> <Gold.Chemscore.Hbonds>
donor molecule, donor type, donor heavy atom, donor atom, acceptor molecule, acceptor atom, score
      L1  H     9    26       P1  8028  0.96
      P1  H  7989  7998       L1     8  1.00
      L1  C     5    23       P1  7948  0.74

> <Gold.PLP.Chemscore.Internal.Correction>
0.0211

> <Gold.Rescore>
     Score         DG    S(hbond)    S(metal)    S(lipo)     H(rot)  DE(clash)    DE(int)     intcor
     18.79     -19.68       1.92        0.00     101.12       1.57       0.07       0.83       ----

> <Gold.Chemscore.Fitness>
18.7898

> <Gold.Chemscore.DG>
-19.6848

> <Gold.Chemscore.ZeroCoef>
-5.4800

> <Gold.Chemscore.Hbond>
1.9163

> <Gold.Chemscore.Metal>
0.0000

> <Gold.Chemscore.Lipo>
101.1240

> <Gold.Chemscore.Internal_Hbond>
0.0000

> <Gold.Chemscore.DEClash>
0.0662

> <Gold.Chemscore.DEInternal>
0.8288

> <Gold.Chemscore.Rot>
1.5731

> <Gold.Chemscore.Internal.Correction>
   9.000000E+99

> <Gold.Chemscore.Hbonds>
donor molecule, donor type, donor heavy atom, donor atom, acceptor molecule, acceptor atom, score
      L1  H     9    26       P1  8028  0.90
      P1  H  7989  7998       L1     8  0.53

> <Gold.Chemscore.Hbond.Weighted>
-6.4005

> <Gold.Chemscore.Metal.Weighted>
-0.0000

> <Gold.Chemscore.Lipo.Weighted>
-11.8315

> <Gold.Chemscore.Internal_Hbond.Weighted>
0.0000

> <Gold.Chemscore.DEClash.Weighted>
0.0662

> <Gold.Chemscore.DEInternal.Weighted>
0.8288

> <Gold.Chemscore.Rot.Weighted>
4.0273

> <Gold.Chemscore.Internal.Correction.Weighted>
   9.000000E+99

> <Gold.Protein.RotatedTorsions>
[ 6907 6896 6895 6894 ] final   27.49 input  -60.11 | X-H torsion
[ 7974 7965 7964 7962 ] final  -47.31 input  175.53 | X-H torsion
[ 8008 7997 7996 7995 ] final  -66.95 input   59.86 | X-H torsion
[ 10167 10162 10161 10158 ] final  125.15 input  -65.29 | X-H torsion
[ 10718 10713 10712 10709 ] final   51.71 input   66.30 | X-H torsion
[ 10763 10752 10751 10750 ] final  -93.14 input  -60.55 | X-H torsion
[ 11005 11000 10999 10996 ] final  177.81 input  -57.11 | X-H torsion

> <Gold.Protein.ActiveResidues>
 VAL166  LYS551  ARG553  GLY616  TRP617  ASP618  TYR619  PRO620  LYS621  CYS622 
 ASP623  PHE694  ASN695  SER759  ASP760  ASP761  ALA762  ILE779  LEU786  VAL792 
 PHE793  MET794  SER795  GLU796  ALA797  LYS798  CYS799  TRP800  GLU811  SER814 

> <Gold.Protein.RotatedAtoms>
  152.0031  134.9917  160.0565 H   0  0  0  0  0  0  0  0  0  0  0  0  # atno 6907 bound_to 6896
  152.1500  133.4511  159.4817 H   0  0  0  0  0  0  0  0  0  0  0  0  # atno 6908 bound_to 6896
  150.6874  134.2118  159.4405 H   0  0  0  0  0  0  0  0  0  0  0  0  # atno 6909 bound_to 6896
  145.9630  140.7460  142.9448 H   0  0  0  0  0  0  0  0  0  0  0  0  # atno 7974 bound_to 7965
  154.4768  140.0902  156.7280 H   0  0  0  0  0  0  0  0  0  0  0  0  # atno 8008 bound_to 7997
  155.4576  140.3460  155.4290 H   0  0  0  0  0  0  0  0  0  0  0  0  # atno 8009 bound_to 7997
  156.1128  140.1452  156.9302 H   0  0  0  0  0  0  0  0  0  0  0  0  # atno 8010 bound_to 7997
  139.5701  144.6934  151.3802 H   0  0  0  0  0  0  0  0  0  0  0  0  # atno 10167 bound_to 10162
  157.5006  130.8435  149.8312 H   0  0  0  0  0  0  0  0  0  0  0  0  # atno 10718 bound_to 10713
  154.6930  135.5205  153.8419 H   0  0  0  0  0  0  0  0  0  0  0  0  # atno 10763 bound_to 10752
  153.0646  135.6580  154.0393 H   0  0  0  0  0  0  0  0  0  0  0  0  # atno 10764 bound_to 10752
  154.0264  135.2989  155.3354 H   0  0  0  0  0  0  0  0  0  0  0  0  # atno 10765 bound_to 10752
  140.3882  134.6886  157.4492 H   0  0  0  0  0  0  0  0  0  0  0  0  # atno 11005 bound_to 11000
  144.6819  140.2622  143.7317 LP  0  0  0  0  0  0  0  0  0  0  0  0  # atno 17320 bound_to 7965
  145.8014  139.1966  143.2046 LP  0  0  0  0  0  0  0  0  0  0  0  0  # atno 17321 bound_to 7965
  140.6985  143.7689  150.7365 LP  0  0  0  0  0  0  0  0  0  0  0  0  # atno 17342 bound_to 10162
  140.1193  143.4627  152.2323 LP  0  0  0  0  0  0  0  0  0  0  0  0  # atno 17343 bound_to 10162
  156.0227  130.3790  150.1914 LP  0  0  0  0  0  0  0  0  0  0  0  0  # atno 17370 bound_to 10713
  157.0103  130.9949  151.3367 LP  0  0  0  0  0  0  0  0  0  0  0  0  # atno 17371 bound_to 10713
  140.0426  134.6245  155.8961 LP  0  0  0  0  0  0  0  0  0  0  0  0  # atno 17394 bound_to 11000
  141.1900  133.6567  156.5392 LP  0  0  0  0  0  0  0  0  0  0  0  0  # atno 17395 bound_to 11000

$$$$
