AV-unprocessed.smi:1762|AV-procd|sdf|7114|dock10
  -GOLD-   22720 8343D 1   1.00000     0.00000
 Structure written by MMmdl.
 53 54  0  0  0  0  0  0  0  0  2 V2000
  149.1416  141.5354  154.5941 C   0  0  0  0  0  0  0  0  0  0  0  0
  149.6280  140.1174  154.9120 C   0  0  1  0  0  0  0  0  0  0  0  0
  149.0069  139.0682  153.9637 C   0  0  0  0  0  0  0  0  0  0  0  0
  149.5547  137.7044  154.2198 N   0  3  2  0  0  0  0  0  0  0  0  0
  149.0008  137.0184  155.4412 C   0  0  1  0  0  0  0  0  0  0  0  0
  147.5369  136.5824  155.2172 C   0  0  0  0  0  0  0  0  0  0  0  0
  146.6574  136.9425  156.0004 O   0  0  0  0  0  0  0  0  0  0  0  0
  147.2944  135.8033  154.1507 N   0  0  0  0  0  0  0  0  0  0  0  0
  145.9860  135.2740  153.7838 C   0  0  0  0  0  0  0  0  0  0  0  0
  145.6360  135.5981  152.3214 C   0  0  0  0  0  0  0  0  0  0  0  0
  145.3284  134.3513  151.5134 C   0  0  0  0  0  0  0  0  0  0  0  0
  143.9970  133.9209  151.3288 C   0  0  0  0  0  0  0  0  0  0  0  0
  143.7679  132.7537  150.5744 C   0  0  0  0  0  0  0  0  0  0  0  0
  144.8728  132.0648  150.0376 C   0  0  0  0  0  0  0  0  0  0  0  0
  146.1633  132.5762  150.2798 C   0  0  0  0  0  0  0  0  0  0  0  0
  146.3939  133.6947  151.0013 N   0  0  0  0  0  0  0  0  0  0  0  0
  149.8663  135.8131  155.9415 C   0  0  0  0  0  0  0  0  0  0  0  0
  150.0104  134.6715  154.9134 C   0  0  0  0  0  0  0  0  0  0  0  0
  149.4002  135.2480  157.2980 C   0  0  0  0  0  0  0  0  0  0  0  0
  151.0382  137.7764  154.1132 C   0  0  0  0  0  0  0  0  0  0  0  0
  151.6184  138.8281  155.0801 C   0  0  1  0  0  0  0  0  0  0  0  0
  153.1400  138.9534  154.9484 C   0  0  0  0  0  0  0  0  0  0  0  0
  151.0450  140.0951  154.7736 O   0  0  0  0  0  0  0  0  0  0  0  0
  148.0596  141.6122  154.7032 H   0  0  0  0  0  0  0  0  0  0  0  0
  149.3961  141.8221  153.5733 H   0  0  0  0  0  0  0  0  0  0  0  0
  149.5950  142.2634  155.2672 H   0  0  0  0  0  0  0  0  0  0  0  0
  149.3660  139.8959  155.9473 H   0  0  0  0  0  0  0  0  0  0  0  0
  147.9196  139.0968  154.0248 H   0  0  0  0  0  0  0  0  0  0  0  0
  149.2420  139.3347  152.9322 H   0  0  0  0  0  0  0  0  0  0  0  0
  148.9970  137.7506  156.2491 H   0  0  0  0  0  0  0  0  0  0  0  0
  148.0694  135.5564  153.5522 H   0  0  0  0  0  0  0  0  0  0  0  0
  145.9566  134.1967  153.9567 H   0  0  0  0  0  0  0  0  0  0  0  0
  145.2431  135.7154  154.4487 H   0  0  0  0  0  0  0  0  0  0  0  0
  144.7780  136.2709  152.2844 H   0  0  0  0  0  0  0  0  0  0  0  0
  146.4607  136.1286  151.8433 H   0  0  0  0  0  0  0  0  0  0  0  0
  143.1695  134.4691  151.7548 H   0  0  0  0  0  0  0  0  0  0  0  0
  142.7630  132.3931  150.4111 H   0  0  0  0  0  0  0  0  0  0  0  0
  144.7350  131.1662  149.4546 H   0  0  0  0  0  0  0  0  0  0  0  0
  147.0333  132.0734  149.8842 H   0  0  0  0  0  0  0  0  0  0  0  0
  150.8664  136.1900  156.1504 H   0  0  0  0  0  0  0  0  0  0  0  0
  149.0612  134.1669  154.7332 H   0  0  0  0  0  0  0  0  0  0  0  0
  150.7135  133.9178  155.2686 H   0  0  0  0  0  0  0  0  0  0  0  0
  150.3812  135.0287  153.9531 H   0  0  0  0  0  0  0  0  0  0  0  0
  148.4420  134.7329  157.2215 H   0  0  0  0  0  0  0  0  0  0  0  0
  149.2977  136.0396  158.0406 H   0  0  0  0  0  0  0  0  0  0  0  0
  150.1211  134.5284  157.6873 H   0  0  0  0  0  0  0  0  0  0  0  0
  151.5174  136.8091  154.2453 H   0  0  0  0  0  0  0  0  0  0  0  0
  151.2840  138.0649  153.0899 H   0  0  0  0  0  0  0  0  0  0  0  0
  151.3845  138.5633  156.1123 H   0  0  0  0  0  0  0  0  0  0  0  0
  153.6333  138.0098  155.1833 H   0  0  0  0  0  0  0  0  0  0  0  0
  153.5287  139.7098  155.6307 H   0  0  0  0  0  0  0  0  0  0  0  0
  153.4275  139.2386  153.9361 H   0  0  0  0  0  0  0  0  0  0  0  0
  149.2491  137.1301  153.4466 H   0  0  0  0  0  0  0  0  0  0  0  0
  1  2  1  0  0  0  0
  1 24  1  0  0  0  0
  1 25  1  0  0  0  0
  1 26  1  0  0  0  0
  2 23  1  0  0  0  0
  2  3  1  0  0  0  0
  2 27  1  0  0  0  0
  3  4  1  0  0  0  0
  3 28  1  0  0  0  0
  3 29  1  0  0  0  0
  4  5  1  0  0  0  0
  4 20  1  0  0  0  0
  4 53  1  0  0  0  0
  5  6  1  0  0  0  0
  5 17  1  0  0  0  0
  5 30  1  0  0  0  0
  6  7  2  0  0  0  0
  6  8  1  0  0  0  0
  8  9  1  0  0  0  0
  8 31  1  0  0  0  0
  9 10  1  0  0  0  0
  9 32  1  0  0  0  0
  9 33  1  0  0  0  0
 10 11  1  0  0  0  0
 10 34  1  0  0  0  0
 10 35  1  0  0  0  0
 11 16  1  0  0  0  0
 11 12  2  0  0  0  0
 12 13  1  0  0  0  0
 12 36  1  0  0  0  0
 13 14  2  0  0  0  0
 13 37  1  0  0  0  0
 14 15  1  0  0  0  0
 14 38  1  0  0  0  0
 15 16  2  0  0  0  0
 15 39  1  0  0  0  0
 17 18  1  0  0  0  0
 17 19  1  0  0  0  0
 17 40  1  0  0  0  0
 18 41  1  0  0  0  0
 18 42  1  0  0  0  0
 18 43  1  0  0  0  0
 19 44  1  0  0  0  0
 19 45  1  0  0  0  0
 19 46  1  0  0  0  0
 20 21  1  0  0  0  0
 20 47  1  0  0  0  0
 20 48  1  0  0  0  0
 21 22  1  0  0  0  0
 21 23  1  0  0  0  0
 21 49  1  0  0  0  0
 22 50  1  0  0  0  0
 22 51  1  0  0  0  0
 22 52  1  0  0  0  0
M  CHG  1   4   1
M  END
> <s_m_source_file>
AV-unprocessed.smi

> <i_m_source_file_index>
1762

> <i_lp_mmshare_version>
43012

> <i_f3d_flags>
0

> <s_epik_input>
W0NIM11bQ0BASF0xW0NIMl1OKFtDSDJdW0NASF0oTzEpW0NIM10pW0NAQEhdKFtDSF0oW0NIM10pW0NIM10pQyg9TylbTkhdW0NIMl1bQ0gyXWMyW2NIXVtjSF1bY0hdW2NIXW4y

> <s_epik_cmdline>
J2VwaWtfcHl0aG9uJywgJy1waCcsICc3LjAnLCAnLXRuJywgJzgnLCAnLW1hJywgJzIwMCcsICctbWV0YWxfYmluZGluZycsICctaW1hZScsICc8aW5maWxlLm1hZT4nLCAnLW9tYWUnLCAnPG91dGZpbGUubWFlPic=

> <r_epik_Ionization_Penalty>
2.27005

> <r_epik_Ionization_Penalty_Charging>
2.24983

> <r_epik_Ionization_Penalty_Neutral>
0.0202209

> <r_epik_State_Penalty>
2.40228

> <r_epik_Charging_Adjusted_Penalty>
4.65211

> <i_epik_Tot_Q>
1

> <i_epik_Tot_abs_Q>
1

> <r_epik_Metal_State_Penalty>
2.40762

> <b_epik_Metal_Only>
0

> <s_lp_Force_Field>
OPLS_2005

> <r_lp_Energy>
25.1603

> <b_lp_Chiralities_Consistent>
1

> <s_lp_Variant>
AV-unprocessed.smi:1762-16

> <Gold.Version>
5.8.1

> <Gold.Id.Protein>
6NUR|6NUR_protein|mol2

> <Gold.PLP.Fitness>
51.8334

> <Gold.PLP.PLP>
-39.7182

> <Gold.PLP.part.hbond>
-3.0000

> <Gold.PLP.part.metal>
0.0000

> <Gold.PLP.part.buried>
-3.3742

> <Gold.PLP.part.nonpolar>
-34.4503

> <Gold.PLP.part.repulsive>
0.2997

> <Gold.PLP.ligand.clash>
0.0000

> <Gold.PLP.ligand.torsion>
1.2700

> <Gold.PLP.Chemscore.Hbond>
3.8160

> <Gold.PLP.Chemscore.CHOScore>
1.0000

> <Gold.PLP.Chemscore.Metal>
0.0000

> <Gold.Chemscore.Hbonds>
donor molecule, donor type, donor heavy atom, donor atom, acceptor molecule, acceptor atom, score
      L1  H     4    53       P1  7948  2.00
      L1  H     8    31       P1  7948  0.78
      P1  H  7989  7998       L1    23  1.00
      L1  C    15    39       P1 10747  1.00

> <Gold.PLP.Chemscore.Internal.Correction>
0.2071

> <Gold.Rescore>
     Score         DG    S(hbond)    S(metal)    S(lipo)     H(rot)  DE(clash)    DE(int)     intcor
     21.67     -23.24       2.79        0.00     108.61       1.66       0.50       1.07       ----

> <Gold.Chemscore.Fitness>
21.6728

> <Gold.Chemscore.DG>
-23.2394

> <Gold.Chemscore.ZeroCoef>
-5.4800

> <Gold.Chemscore.Hbond>
2.7875

> <Gold.Chemscore.Metal>
0.0000

> <Gold.Chemscore.Lipo>
108.6139

> <Gold.Chemscore.Internal_Hbond>
0.0000

> <Gold.Chemscore.DEClash>
0.4955

> <Gold.Chemscore.DEInternal>
1.0711

> <Gold.Chemscore.Rot>
1.6635

> <Gold.Chemscore.Internal.Correction>
   9.000000E+99

> <Gold.Chemscore.Hbonds>
donor molecule, donor type, donor heavy atom, donor atom, acceptor molecule, acceptor atom, score
      L1  H     4    53       P1  7948  0.98
      L1  H     8    31       P1  7948  0.76
      P1  H  7989  7998       L1    23  0.86

> <Gold.Chemscore.Hbond.Weighted>
-9.3102

> <Gold.Chemscore.Metal.Weighted>
-0.0000

> <Gold.Chemscore.Lipo.Weighted>
-12.7078

> <Gold.Chemscore.Internal_Hbond.Weighted>
0.0000

> <Gold.Chemscore.DEClash.Weighted>
0.4955

> <Gold.Chemscore.DEInternal.Weighted>
1.0711

> <Gold.Chemscore.Rot.Weighted>
4.2586

> <Gold.Chemscore.Internal.Correction.Weighted>
   9.000000E+99

> <Gold.Protein.RotatedTorsions>
[ 6907 6896 6895 6894 ] final -115.09 input  -60.11 | X-H torsion
[ 7974 7965 7964 7962 ] final -148.31 input  175.53 | X-H torsion
[ 8008 7997 7996 7995 ] final -144.55 input   59.86 | X-H torsion
[ 10167 10162 10161 10158 ] final  -13.57 input  -65.29 | X-H torsion
[ 10718 10713 10712 10709 ] final  -74.01 input   66.30 | X-H torsion
[ 10763 10752 10751 10750 ] final -121.07 input  -60.55 | X-H torsion
[ 11005 11000 10999 10996 ] final  150.59 input  -57.11 | X-H torsion

> <Gold.Protein.ActiveResidues>
 VAL166  LYS551  ARG553  GLY616  TRP617  ASP618  TYR619  PRO620  LYS621  CYS622 
 ASP623  PHE694  ASN695  SER759  ASP760  ASP761  ALA762  ILE779  LEU786  VAL792 
 PHE793  MET794  SER795  GLU796  ALA797  LYS798  CYS799  TRP800  GLU811  SER814 

> <Gold.Protein.RotatedAtoms>
  150.7951  133.8708  159.3257 H   0  0  0  0  0  0  0  0  0  0  0  0  # atno 6907 bound_to 6896
  151.6535  135.0997  160.0175 H   0  0  0  0  0  0  0  0  0  0  0  0  # atno 6908 bound_to 6896
  152.4032  133.6810  159.6369 H   0  0  0  0  0  0  0  0  0  0  0  0  # atno 6909 bound_to 6896
  144.8037  140.5213  143.5689 H   0  0  0  0  0  0  0  0  0  0  0  0  # atno 7974 bound_to 7965
  155.5287  140.0598  157.2893 H   0  0  0  0  0  0  0  0  0  0  0  0  # atno 8008 bound_to 7997
  154.4492  140.1939  156.0517 H   0  0  0  0  0  0  0  0  0  0  0  0  # atno 8009 bound_to 7997
  156.0667  140.3265  155.7531 H   0  0  0  0  0  0  0  0  0  0  0  0  # atno 8010 bound_to 7997
  140.7185  143.5412  150.9407 H   0  0  0  0  0  0  0  0  0  0  0  0  # atno 10167 bound_to 10162
  156.0258  130.4407  150.2828 H   0  0  0  0  0  0  0  0  0  0  0  0  # atno 10718 bound_to 10713
  154.8659  135.4181  154.2561 H   0  0  0  0  0  0  0  0  0  0  0  0  # atno 10763 bound_to 10752
  153.3498  135.6998  153.6804 H   0  0  0  0  0  0  0  0  0  0  0  0  # atno 10764 bound_to 10752
  153.5748  135.3584  155.2825 H   0  0  0  0  0  0  0  0  0  0  0  0  # atno 10765 bound_to 10752
  140.1145  134.8903  157.1984 H   0  0  0  0  0  0  0  0  0  0  0  0  # atno 11005 bound_to 11000
  145.5490  139.1476  143.3405 LP  0  0  0  0  0  0  0  0  0  0  0  0  # atno 17320 bound_to 7965
  146.2324  140.5628  142.8969 LP  0  0  0  0  0  0  0  0  0  0  0  0  # atno 17321 bound_to 7965
  139.9135  143.6691  152.3110 LP  0  0  0  0  0  0  0  0  0  0  0  0  # atno 17342 bound_to 10162
  139.7083  144.7624  151.1155 LP  0  0  0  0  0  0  0  0  0  0  0  0  # atno 17343 bound_to 10162
  157.0931  131.0175  151.3114 LP  0  0  0  0  0  0  0  0  0  0  0  0  # atno 17370 bound_to 10713
  157.4838  130.7781  149.7440 LP  0  0  0  0  0  0  0  0  0  0  0  0  # atno 17371 bound_to 10713
  140.3047  134.3092  155.7281 LP  0  0  0  0  0  0  0  0  0  0  0  0  # atno 17394 bound_to 11000
  141.2138  133.7613  156.9691 LP  0  0  0  0  0  0  0  0  0  0  0  0  # atno 17395 bound_to 11000

$$$$
