AV-unprocessed.smi:2089|AV-procd|sdf|8528|dock6
  -GOLD-   2272011243D 1   1.00000     0.00000
 Structure written by MMmdl.
 39 40  0  0  0  0  0  0  0  0  1 V2000
  152.9343  137.2283  157.7342 C   0  0  0  0  0  0  0  0  0  0  0  0
  151.4975  136.3144  157.0404 S   0  0  0  0  0  0  0  0  0  0  0  0
  151.9930  135.3950  156.0046 O   0  0  0  0  0  0  0  0  0  0  0  0
  150.6734  135.7991  158.1444 O   0  0  0  0  0  0  0  0  0  0  0  0
  150.5973  137.5606  156.2450 N   0  0  0  0  0  0  0  0  0  0  0  0
  149.2069  137.2866  155.8546 C   0  0  0  0  0  0  0  0  0  0  0  0
  148.9174  138.2109  154.6741 C   0  0  0  0  0  0  0  0  0  0  0  0
  150.2818  138.3634  154.0167 C   0  0  0  0  0  0  0  0  0  0  0  0
  151.2658  138.3536  155.1999 C   0  0  1  0  0  0  0  0  0  0  0  0
  151.6629  139.7556  155.6863 C   0  0  0  0  0  0  0  0  0  0  0  0
  152.8430  140.0478  155.8841 O   0  0  0  0  0  0  0  0  0  0  0  0
  150.6568  140.6229  155.8663 N   0  0  0  0  0  0  0  0  0  0  0  0
  150.8230  142.0006  156.3059 C   0  0  0  0  0  0  0  0  0  0  0  0
  150.2088  142.2021  157.6979 C   0  0  0  0  0  0  0  0  0  0  0  0
  150.8732  143.3335  158.4596 C   0  0  0  0  0  0  0  0  0  0  0  0
  151.9100  144.0873  157.8693 C   0  0  0  0  0  0  0  0  0  0  0  0
  152.4856  145.1351  158.6140 C   0  0  0  0  0  0  0  0  0  0  0  0
  152.0045  145.3881  159.9131 C   0  0  0  0  0  0  0  0  0  0  0  0
  150.9642  144.5786  160.4116 C   0  0  0  0  0  0  0  0  0  0  0  0
  150.4051  143.5719  159.7057 N   0  0  0  0  0  0  0  0  0  0  0  0
  153.6054  136.5257  158.2277 H   0  0  0  0  0  0  0  0  0  0  0  0
  152.5870  137.9639  158.4590 H   0  0  0  0  0  0  0  0  0  0  0  0
  153.4673  137.7336  156.9291 H   0  0  0  0  0  0  0  0  0  0  0  0
  149.1143  136.2454  155.5440 H   0  0  0  0  0  0  0  0  0  0  0  0
  148.5288  137.4546  156.6914 H   0  0  0  0  0  0  0  0  0  0  0  0
  148.1629  137.8091  153.9974 H   0  0  0  0  0  0  0  0  0  0  0  0
  148.5659  139.1783  155.0348 H   0  0  0  0  0  0  0  0  0  0  0  0
  150.4785  137.5061  153.3715 H   0  0  0  0  0  0  0  0  0  0  0  0
  150.3447  139.2562  153.3930 H   0  0  0  0  0  0  0  0  0  0  0  0
  152.1751  137.8406  154.8815 H   0  0  0  0  0  0  0  0  0  0  0  0
  149.7168  140.3113  155.6671 H   0  0  0  0  0  0  0  0  0  0  0  0
  151.8852  142.2496  156.3277 H   0  0  0  0  0  0  0  0  0  0  0  0
  150.3483  142.6675  155.5843 H   0  0  0  0  0  0  0  0  0  0  0  0
  149.1418  142.4132  157.6093 H   0  0  0  0  0  0  0  0  0  0  0  0
  150.2916  141.2826  158.2791 H   0  0  0  0  0  0  0  0  0  0  0  0
  152.2554  143.8719  156.8688 H   0  0  0  0  0  0  0  0  0  0  0  0
  153.2803  145.7349  158.1957 H   0  0  0  0  0  0  0  0  0  0  0  0
  152.4218  146.1836  160.5124 H   0  0  0  0  0  0  0  0  0  0  0  0
  150.5702  144.7448  161.4033 H   0  0  0  0  0  0  0  0  0  0  0  0
  1  2  1  0  0  0  0
  1 21  1  0  0  0  0
  1 22  1  0  0  0  0
  1 23  1  0  0  0  0
  2  3  2  0  0  0  0
  2  4  2  0  0  0  0
  2  5  1  0  0  0  0
  5  9  1  0  0  0  0
  5  6  1  0  0  0  0
  6  7  1  0  0  0  0
  6 24  1  0  0  0  0
  6 25  1  0  0  0  0
  7  8  1  0  0  0  0
  7 26  1  0  0  0  0
  7 27  1  0  0  0  0
  8  9  1  0  0  0  0
  8 28  1  0  0  0  0
  8 29  1  0  0  0  0
  9 10  1  0  0  0  0
  9 30  1  0  0  0  0
 10 11  2  0  0  0  0
 10 12  1  0  0  0  0
 12 13  1  0  0  0  0
 12 31  1  0  0  0  0
 13 14  1  0  0  0  0
 13 32  1  0  0  0  0
 13 33  1  0  0  0  0
 14 15  1  0  0  0  0
 14 34  1  0  0  0  0
 14 35  1  0  0  0  0
 15 20  1  0  0  0  0
 15 16  2  0  0  0  0
 16 17  1  0  0  0  0
 16 36  1  0  0  0  0
 17 18  2  0  0  0  0
 17 37  1  0  0  0  0
 18 19  1  0  0  0  0
 18 38  1  0  0  0  0
 19 20  2  0  0  0  0
 19 39  1  0  0  0  0
M  END
> <s_m_source_file>
AV-unprocessed.smi

> <i_m_source_file_index>
2089

> <i_lp_mmshare_version>
43012

> <i_f3d_flags>
0

> <s_epik_input>
W0NIM11TKD1PKSg9TylOMVtDSDJdW0NIMl1bQ0gyXVtDQEhdMUMoPU8pW05IXVtDSDJdW0NIMl1jMltjSF1bY0hdW2NIXVtjSF1uMg==

> <s_epik_cmdline>
J2VwaWtfcHl0aG9uJywgJy1waCcsICc3LjAnLCAnLXRuJywgJzgnLCAnLW1hJywgJzIwMCcsICctbWV0YWxfYmluZGluZycsICctaW1hZScsICc8aW5maWxlLm1hZT4nLCAnLW9tYWUnLCAnPG91dGZpbGUubWFlPic=

> <r_epik_Ionization_Penalty>
0.0244371

> <r_epik_Ionization_Penalty_Charging>
0

> <r_epik_Ionization_Penalty_Neutral>
0.0244371

> <r_epik_State_Penalty>
0.0198365

> <r_epik_Charging_Adjusted_Penalty>
0.0198365

> <i_epik_Tot_Q>
0

> <i_epik_Tot_abs_Q>
0

> <r_epik_Metal_State_Penalty>
0.0190441

> <b_epik_Metal_Only>
0

> <s_lp_Force_Field>
OPLS_2005

> <r_lp_Energy>
6.09758

> <b_lp_Chiralities_Consistent>
1

> <s_lp_Variant>
AV-unprocessed.smi:2089-1

> <Gold.Version>
5.8.1

> <Gold.Id.Protein>
6NUR|6NUR_protein|mol2

> <Gold.PLP.Fitness>
44.8727

> <Gold.PLP.PLP>
-37.0367

> <Gold.PLP.part.hbond>
-3.4004

> <Gold.PLP.part.metal>
0.0000

> <Gold.PLP.part.buried>
-3.8101

> <Gold.PLP.part.nonpolar>
-29.1147

> <Gold.PLP.part.repulsive>
0.2581

> <Gold.PLP.ligand.clash>
0.0000

> <Gold.PLP.ligand.torsion>
0.7709

> <Gold.PLP.Chemscore.Hbond>
2.9440

> <Gold.PLP.Chemscore.CHOScore>
0.0000

> <Gold.PLP.Chemscore.Metal>
0.0000

> <Gold.Chemscore.Hbonds>
donor molecule, donor type, donor heavy atom, donor atom, acceptor molecule, acceptor atom, score
      P1  H  6896  6909       L1     4  0.59
      P1  H  7997  8009       L1    11  0.82
      P1  H 10752 10764       L1     3  0.98

> <Gold.PLP.Chemscore.Internal.Correction>
0.5458

> <Gold.Rescore>
     Score         DG    S(hbond)    S(metal)    S(lipo)     H(rot)  DE(clash)    DE(int)     intcor
     20.38     -21.47       2.80        0.00      98.29       1.90       0.06       1.03       ----

> <Gold.Chemscore.Fitness>
20.3824

> <Gold.Chemscore.DG>
-21.4653

> <Gold.Chemscore.ZeroCoef>
-5.4800

> <Gold.Chemscore.Hbond>
2.7983

> <Gold.Chemscore.Metal>
0.0000

> <Gold.Chemscore.Lipo>
98.2941

> <Gold.Chemscore.Internal_Hbond>
0.0000

> <Gold.Chemscore.DEClash>
0.0579

> <Gold.Chemscore.DEInternal>
1.0250

> <Gold.Chemscore.Rot>
1.8990

> <Gold.Chemscore.Internal.Correction>
   9.000000E+99

> <Gold.Chemscore.Hbonds>
donor molecule, donor type, donor heavy atom, donor atom, acceptor molecule, acceptor atom, score
      P1  H  6896  6909       L1     4  0.60
      P1  H  7997  8009       L1    11  0.79
      P1  H 10752 10764       L1     3  0.88

> <Gold.Chemscore.Hbond.Weighted>
-9.3463

> <Gold.Chemscore.Metal.Weighted>
-0.0000

> <Gold.Chemscore.Lipo.Weighted>
-11.5004

> <Gold.Chemscore.Internal_Hbond.Weighted>
0.0000

> <Gold.Chemscore.DEClash.Weighted>
0.0579

> <Gold.Chemscore.DEInternal.Weighted>
1.0250

> <Gold.Chemscore.Rot.Weighted>
4.8613

> <Gold.Chemscore.Internal.Correction.Weighted>
   9.000000E+99

> <Gold.Protein.RotatedTorsions>
[ 6907 6896 6895 6894 ] final   58.89 input  -60.11 | X-H torsion
[ 7974 7965 7964 7962 ] final -179.87 input  175.53 | X-H torsion
[ 8008 7997 7996 7995 ] final -177.07 input   59.86 | X-H torsion
[ 10167 10162 10161 10158 ] final  -10.39 input  -65.29 | X-H torsion
[ 10718 10713 10712 10709 ] final -178.04 input   66.30 | X-H torsion
[ 10763 10752 10751 10750 ] final  -45.31 input  -60.55 | X-H torsion
[ 11005 11000 10999 10996 ] final  155.43 input  -57.11 | X-H torsion

> <Gold.Protein.ActiveResidues>
 VAL166  LYS551  ARG553  GLY616  TRP617  ASP618  TYR619  PRO620  LYS621  CYS622 
 ASP623  PHE694  ASN695  SER759  ASP760  ASP761  ALA762  ILE779  LEU786  VAL792 
 PHE793  MET794  SER795  GLU796  ALA797  LYS798  CYS799  TRP800  GLU811  SER814 

> <Gold.Protein.RotatedAtoms>
  152.3866  134.6508  160.0123 H   0  0  0  0  0  0  0  0  0  0  0  0  # atno 6907 bound_to 6896
  151.6755  133.3307  159.3215 H   0  0  0  0  0  0  0  0  0  0  0  0  # atno 6908 bound_to 6896
  150.7791  134.6762  159.6463 H   0  0  0  0  0  0  0  0  0  0  0  0  # atno 6909 bound_to 6896
  144.7140  140.0652  143.6431 H   0  0  0  0  0  0  0  0  0  0  0  0  # atno 7974 bound_to 7965
  156.0026  140.1223  157.0533 H   0  0  0  0  0  0  0  0  0  0  0  0  # atno 8008 bound_to 7997
  154.4247  140.1104  156.5786 H   0  0  0  0  0  0  0  0  0  0  0  0  # atno 8009 bound_to 7997
  155.6192  140.3472  155.4649 H   0  0  0  0  0  0  0  0  0  0  0  0  # atno 8010 bound_to 7997
  140.7112  143.5753  150.9049 H   0  0  0  0  0  0  0  0  0  0  0  0  # atno 10167 bound_to 10162
  156.8384  130.9677  151.3102 H   0  0  0  0  0  0  0  0  0  0  0  0  # atno 10718 bound_to 10713
  154.0264  135.6662  153.4777 H   0  0  0  0  0  0  0  0  0  0  0  0  # atno 10763 bound_to 10752
  153.0558  135.5057  154.7974 H   0  0  0  0  0  0  0  0  0  0  0  0  # atno 10764 bound_to 10752
  154.6905  135.3060  154.9450 H   0  0  0  0  0  0  0  0  0  0  0  0  # atno 10765 bound_to 10752
  140.1581  134.8629  157.2539 H   0  0  0  0  0  0  0  0  0  0  0  0  # atno 11005 bound_to 11000
  145.9830  139.2955  143.1030 LP  0  0  0  0  0  0  0  0  0  0  0  0  # atno 17320 bound_to 7965
  145.8989  140.9255  143.0513 LP  0  0  0  0  0  0  0  0  0  0  0  0  # atno 17321 bound_to 7965
  139.9479  143.6306  152.3037 LP  0  0  0  0  0  0  0  0  0  0  0  0  # atno 17342 bound_to 10162
  139.6814  144.7655  151.1601 LP  0  0  0  0  0  0  0  0  0  0  0  0  # atno 17343 bound_to 10162
  157.6369  130.8774  149.9375 LP  0  0  0  0  0  0  0  0  0  0  0  0  # atno 17370 bound_to 10713
  156.0894  130.3665  150.0423 LP  0  0  0  0  0  0  0  0  0  0  0  0  # atno 17371 bound_to 10713
  140.2523  134.3668  155.7437 LP  0  0  0  0  0  0  0  0  0  0  0  0  # atno 17394 bound_to 11000
  141.2206  133.7323  156.8954 LP  0  0  0  0  0  0  0  0  0  0  0  0  # atno 17395 bound_to 11000

$$$$
