AV-unprocessed.smi:1521|AV-procd|sdf|6130|dock8
  -GOLD-   22720 6273D 1   1.00000     0.00000
 Structure written by MMmdl.
 36 37  0  0  0  0  0  0  0  0  1 V2000
  149.8681  133.3933  155.4628 O   0  0  0  0  0  0  0  0  0  0  0  0
  149.4750  134.1991  154.6192 C   0  0  0  0  0  0  0  0  0  0  0  0
  149.8394  135.4887  154.6080 N   0  0  0  0  0  0  0  0  0  0  0  0
  150.7446  136.1146  155.5659 C   0  0  0  0  0  0  0  0  0  0  0  0
  150.4728  137.6225  155.7008 C   0  0  2  0  0  0  0  0  0  0  0  0
  151.1428  138.4325  154.5730 C   0  0  0  0  0  0  0  0  0  0  0  0
  150.8966  139.8177  154.7784 O   0  0  0  0  0  0  0  0  0  0  0  0
  151.4190  140.2562  156.0252 C   0  0  0  0  0  0  0  0  0  0  0  0
  150.7575  139.4520  157.1565 C   0  0  0  0  0  0  0  0  0  0  0  0
  151.0046  138.0683  156.9446 O   0  0  0  0  0  0  0  0  0  0  0  0
  148.6563  133.9226  153.5877 N   0  0  0  0  0  0  0  0  0  0  0  0
  148.0239  132.7119  153.2593 C   0  0  0  0  0  0  0  0  0  0  0  0
  148.4965  131.4797  153.5822 C   0  0  0  0  0  0  0  0  0  0  0  0
  147.7838  130.2632  153.2287 C   0  0  0  0  0  0  0  0  0  0  0  0
  148.3602  128.8872  153.5244 C   0  0  0  0  0  0  0  0  0  0  0  0
  148.5891  128.2069  152.4005 F   0  0  0  0  0  0  0  0  0  0  0  0
  149.5077  128.9832  154.1965 F   0  0  0  0  0  0  0  0  0  0  0  0
  147.5025  128.1873  154.2657 F   0  0  0  0  0  0  0  0  0  0  0  0
  146.6302  130.4187  152.5532 C   0  0  0  0  0  0  0  0  0  0  0  0
  146.1264  131.6824  152.2370 N   0  0  0  0  0  0  0  0  0  0  0  0
  146.7423  132.8453  152.5468 C   0  0  0  0  0  0  0  0  0  0  0  0
  146.2320  133.9206  152.2346 O   0  0  0  0  0  0  0  0  0  0  0  0
  145.2461  131.7155  151.7435 H   0  0  0  0  0  0  0  0  0  0  0  0
  149.4771  136.0797  153.8741 H   0  0  0  0  0  0  0  0  0  0  0  0
  150.6163  135.6234  156.5306 H   0  0  0  0  0  0  0  0  0  0  0  0
  151.7797  135.9406  155.2670 H   0  0  0  0  0  0  0  0  0  0  0  0
  149.3960  137.7999  155.6800 H   0  0  0  0  0  0  0  0  0  0  0  0
  152.2172  138.2440  154.5383 H   0  0  0  0  0  0  0  0  0  0  0  0
  150.7358  138.1437  153.6037 H   0  0  0  0  0  0  0  0  0  0  0  0
  152.5028  140.1339  156.0436 H   0  0  0  0  0  0  0  0  0  0  0  0
  151.2131  141.3200  156.1445 H   0  0  0  0  0  0  0  0  0  0  0  0
  151.1708  139.7444  158.1217 H   0  0  0  0  0  0  0  0  0  0  0  0
  149.6841  139.6431  157.1947 H   0  0  0  0  0  0  0  0  0  0  0  0
  148.4944  134.6721  152.9305 H   0  0  0  0  0  0  0  0  0  0  0  0
  149.4129  131.3672  154.1385 H   0  0  0  0  0  0  0  0  0  0  0  0
  146.0152  129.6023  152.2038 H   0  0  0  0  0  0  0  0  0  0  0  0
  1  2  2  0  0  0  0
  2  3  1  0  0  0  0
  2 11  1  0  0  0  0
  3  4  1  0  0  0  0
  3 24  1  0  0  0  0
  4  5  1  0  0  0  0
  4 25  1  0  0  0  0
  4 26  1  0  0  0  0
  5 10  1  0  0  0  0
  5  6  1  0  0  0  0
  5 27  1  0  0  0  0
  6  7  1  0  0  0  0
  6 28  1  0  0  0  0
  6 29  1  0  0  0  0
  7  8  1  0  0  0  0
  8  9  1  0  0  0  0
  8 30  1  0  0  0  0
  8 31  1  0  0  0  0
  9 10  1  0  0  0  0
  9 32  1  0  0  0  0
  9 33  1  0  0  0  0
 11 12  1  0  0  0  0
 11 34  1  0  0  0  0
 12 21  1  0  0  0  0
 12 13  2  0  0  0  0
 13 14  1  0  0  0  0
 13 35  1  0  0  0  0
 14 15  1  0  0  0  0
 14 19  2  0  0  0  0
 15 16  1  0  0  0  0
 15 17  1  0  0  0  0
 15 18  1  0  0  0  0
 19 20  1  0  0  0  0
 19 36  1  0  0  0  0
 20 23  1  0  0  0  0
 20 21  1  0  0  0  0
 21 22  2  0  0  0  0
M  END
> <s_m_source_file>
AV-unprocessed.smi

> <i_m_source_file_index>
1521

> <i_lp_mmshare_version>
43012

> <i_f3d_flags>
0

> <s_epik_input>
Tz1jMVtuSF1bY0hdYyhDKEYpKEYpRilbY0hdYzFbTkhdQyg9TylbTkhdW0NIMl1bQ0BASF0yW0NIMl1PW0NIMl1bQ0gyXU8y

> <s_epik_cmdline>
J2VwaWtfcHl0aG9uJywgJy1waCcsICc3LjAnLCAnLXRuJywgJzgnLCAnLW1hJywgJzIwMCcsICctbWV0YWxfYmluZGluZycsICctaW1hZScsICc8aW5maWxlLm1hZT4nLCAnLW9tYWUnLCAnPG91dGZpbGUubWFlPic=

> <r_lp_tautomer_probability>
1

> <r_epik_Ionization_Penalty>
0.00396636

> <r_epik_Ionization_Penalty_Charging>
0.00394789

> <r_epik_Ionization_Penalty_Neutral>
1.84676e-05

> <r_epik_State_Penalty>
-0

> <r_epik_Charging_Adjusted_Penalty>
0.00394789

> <i_epik_Tot_Q>
0

> <i_epik_Tot_abs_Q>
0

> <r_epik_Metal_State_Penalty>
0.372669

> <b_epik_Metal_Only>
0

> <s_lp_Force_Field>
OPLS_2005

> <r_lp_Energy>
18.8562

> <b_lp_Chiralities_Consistent>
1

> <s_lp_Variant>
AV-unprocessed.smi:1521-1

> <Gold.Version>
5.8.1

> <Gold.Id.Protein>
6NUR|6NUR_protein|mol2

> <Gold.PLP.Fitness>
41.3205

> <Gold.PLP.PLP>
-33.6412

> <Gold.PLP.part.hbond>
-3.2508

> <Gold.PLP.part.metal>
0.0000

> <Gold.PLP.part.buried>
-3.5642

> <Gold.PLP.part.nonpolar>
-26.3687

> <Gold.PLP.part.repulsive>
0.2795

> <Gold.PLP.ligand.clash>
0.0000

> <Gold.PLP.ligand.torsion>
0.5829

> <Gold.PLP.Chemscore.Hbond>
2.9280

> <Gold.PLP.Chemscore.CHOScore>
0.0000

> <Gold.PLP.Chemscore.Metal>
0.0000

> <Gold.Chemscore.Hbonds>
donor molecule, donor type, donor heavy atom, donor atom, acceptor molecule, acceptor atom, score
      L1  H     3    24       P1  7948  0.86
      L1  H    11    34       P1  7948  1.00
      P1  H  7989  7998       L1     7  1.00

> <Gold.PLP.Chemscore.Internal.Correction>
0.0611

> <Gold.Rescore>
     Score         DG    S(hbond)    S(metal)    S(lipo)     H(rot)  DE(clash)    DE(int)     intcor
     15.41     -16.81       2.58        0.00      53.13       1.37       0.00       1.40       ----

> <Gold.Chemscore.Fitness>
15.4107

> <Gold.Chemscore.DG>
-16.8065

> <Gold.Chemscore.ZeroCoef>
-5.4800

> <Gold.Chemscore.Hbond>
2.5827

> <Gold.Chemscore.Metal>
0.0000

> <Gold.Chemscore.Lipo>
53.1325

> <Gold.Chemscore.Internal_Hbond>
0.0000

> <Gold.Chemscore.DEClash>
0.0005

> <Gold.Chemscore.DEInternal>
1.3954

> <Gold.Chemscore.Rot>
1.3735

> <Gold.Chemscore.Internal.Correction>
   9.000000E+99

> <Gold.Chemscore.Hbonds>
donor molecule, donor type, donor heavy atom, donor atom, acceptor molecule, acceptor atom, score
      L1  H     3    24       P1  7948  0.53
      L1  H    11    34       P1  7948  0.34
      P1  H  7989  7998       L1     7  0.51

> <Gold.Chemscore.Hbond.Weighted>
-8.6262

> <Gold.Chemscore.Metal.Weighted>
-0.0000

> <Gold.Chemscore.Lipo.Weighted>
-6.2165

> <Gold.Chemscore.Internal_Hbond.Weighted>
0.0000

> <Gold.Chemscore.DEClash.Weighted>
0.0005

> <Gold.Chemscore.DEInternal.Weighted>
1.3954

> <Gold.Chemscore.Rot.Weighted>
3.5162

> <Gold.Chemscore.Internal.Correction.Weighted>
   9.000000E+99

> <Gold.Protein.RotatedTorsions>
[ 6907 6896 6895 6894 ] final  114.50 input  -60.11 | X-H torsion
[ 7974 7965 7964 7962 ] final   -4.65 input  175.53 | X-H torsion
[ 8008 7997 7996 7995 ] final  -25.90 input   59.86 | X-H torsion
[ 10167 10162 10161 10158 ] final  157.86 input  -65.29 | X-H torsion
[ 10718 10713 10712 10709 ] final    0.71 input   66.30 | X-H torsion
[ 10763 10752 10751 10750 ] final   28.15 input  -60.55 | X-H torsion
[ 11005 11000 10999 10996 ] final    7.95 input  -57.11 | X-H torsion

> <Gold.Protein.ActiveResidues>
 VAL166  LYS551  ARG553  GLY616  TRP617  ASP618  TYR619  PRO620  LYS621  CYS622 
 ASP623  PHE694  ASN695  SER759  ASP760  ASP761  ALA762  ILE779  LEU786  VAL792 
 PHE793  MET794  SER795  GLU796  ALA797  LYS798  CYS799  TRP800  GLU811  SER814 

> <Gold.Protein.RotatedAtoms>
  152.4799  133.8228  159.7061 H   0  0  0  0  0  0  0  0  0  0  0  0  # atno 6907 bound_to 6896
  150.8841  133.7323  159.2930 H   0  0  0  0  0  0  0  0  0  0  0  0  # atno 6908 bound_to 6896
  151.4817  135.1056  159.9831 H   0  0  0  0  0  0  0  0  0  0  0  0  # atno 6909 bound_to 6896
  146.2368  140.1904  142.8332 H   0  0  0  0  0  0  0  0  0  0  0  0  # atno 7974 bound_to 7965
  154.4452  140.1914  156.0692 H   0  0  0  0  0  0  0  0  0  0  0  0  # atno 8008 bound_to 7997
  156.0524  140.3307  155.7339 H   0  0  0  0  0  0  0  0  0  0  0  0  # atno 8009 bound_to 7997
  155.5537  140.0597  157.2835 H   0  0  0  0  0  0  0  0  0  0  0  0  # atno 8010 bound_to 7997
  139.4824  144.4878  151.8352 H   0  0  0  0  0  0  0  0  0  0  0  0  # atno 10167 bound_to 10162
  156.8374  130.5509  149.5681 H   0  0  0  0  0  0  0  0  0  0  0  0  # atno 10718 bound_to 10713
  153.0510  135.6520  154.0694 H   0  0  0  0  0  0  0  0  0  0  0  0  # atno 10763 bound_to 10752
  154.0382  135.2905  155.3360 H   0  0  0  0  0  0  0  0  0  0  0  0  # atno 10764 bound_to 10752
  154.6798  135.5324  153.8314 H   0  0  0  0  0  0  0  0  0  0  0  0  # atno 10765 bound_to 10752
  140.5424  134.0361  155.7908 H   0  0  0  0  0  0  0  0  0  0  0  0  # atno 11005 bound_to 11000
  144.9863  140.8506  143.5367 LP  0  0  0  0  0  0  0  0  0  0  0  0  # atno 17320 bound_to 7965
  145.1904  139.2304  143.5246 LP  0  0  0  0  0  0  0  0  0  0  0  0  # atno 17321 bound_to 7965
  140.4359  144.2052  150.5889 LP  0  0  0  0  0  0  0  0  0  0  0  0  # atno 17342 bound_to 10162
  140.4732  143.2405  151.9060 LP  0  0  0  0  0  0  0  0  0  0  0  0  # atno 17343 bound_to 10162
  156.0900  130.5888  150.9716 LP  0  0  0  0  0  0  0  0  0  0  0  0  # atno 17370 bound_to 10713
  157.6374  131.0914  150.8320 LP  0  0  0  0  0  0  0  0  0  0  0  0  # atno 17371 bound_to 10713
  141.1219  133.9447  157.2712 LP  0  0  0  0  0  0  0  0  0  0  0  0  # atno 17394 bound_to 11000
  139.9497  135.0178  156.8957 LP  0  0  0  0  0  0  0  0  0  0  0  0  # atno 17395 bound_to 11000

$$$$
