AV-unprocessed.smi:3232|AV-procd|sdf|12340|dock5
  -GOLD-   2272018203D 1   1.00000     0.00000
 Structure written by MMmdl.
 40 41  0  0  0  0  0  0  0  0  2 V2000
  151.9315  145.6462  160.0137 C   0  0  0  0  0  0  0  0  0  0  0  0
  151.4896  144.7723  158.8308 C   0  0  0  0  0  0  0  0  0  0  0  0
  152.2216  143.4789  158.7786 N   0  3  1  0  0  0  0  0  0  0  0  0
  152.6300  142.9568  160.1039 C   0  0  0  0  0  0  0  0  0  0  0  0
  152.7540  141.4472  159.9353 C   0  0  0  0  0  0  0  0  0  0  0  0
  151.6190  141.1389  158.9722 C   0  0  0  0  0  0  0  0  0  0  0  0
  151.5978  142.3490  158.0218 C   0  0  1  0  0  0  0  0  0  0  0  0
  150.2073  142.6230  157.3940 C   0  0  0  0  0  0  0  0  0  0  0  0
  150.0443  141.9058  156.1334 N   0  0  0  0  0  0  0  0  0  0  0  0
  148.9520  141.2183  155.7610 C   0  0  0  0  0  0  0  0  0  0  0  0
  147.9166  141.1893  156.4270 O   0  0  0  0  0  0  0  0  0  0  0  0
  149.0681  140.4240  154.4504 C   0  0  2  0  0  0  0  0  0  0  0  0
  147.7585  139.7091  154.0604 C   0  0  0  0  0  0  0  0  0  0  0  0
  150.1927  139.4991  154.5284 N   0  0  0  0  0  0  0  0  0  0  0  0
  150.2442  138.1881  154.2830 C   0  0  0  0  0  0  0  0  0  0  0  0
  151.4571  137.6659  154.3970 N   0  0  0  0  0  0  0  0  0  0  0  0
  152.1578  138.7881  154.7364 C   0  0  0  0  0  0  0  0  0  0  0  0
  151.4514  139.9154  154.8159 N   0  0  0  0  0  0  0  0  0  0  0  0
  151.4337  146.6157  159.9812 H   0  0  0  0  0  0  0  0  0  0  0  0
  153.0067  145.8267  159.9919 H   0  0  0  0  0  0  0  0  0  0  0  0
  151.6851  145.1880  160.9719 H   0  0  0  0  0  0  0  0  0  0  0  0
  150.4142  144.5962  158.8800 H   0  0  0  0  0  0  0  0  0  0  0  0
  151.6848  145.3367  157.9193 H   0  0  0  0  0  0  0  0  0  0  0  0
  153.5592  143.4114  160.4486 H   0  0  0  0  0  0  0  0  0  0  0  0
  151.8546  143.1743  160.8406 H   0  0  0  0  0  0  0  0  0  0  0  0
  153.7124  141.1951  159.4794 H   0  0  0  0  0  0  0  0  0  0  0  0
  152.6713  140.9057  160.8782 H   0  0  0  0  0  0  0  0  0  0  0  0
  151.7550  140.1912  158.4491 H   0  0  0  0  0  0  0  0  0  0  0  0
  150.6842  141.0793  159.5314 H   0  0  0  0  0  0  0  0  0  0  0  0
  152.2922  142.1374  157.2074 H   0  0  0  0  0  0  0  0  0  0  0  0
  149.4065  142.3665  158.0892 H   0  0  0  0  0  0  0  0  0  0  0  0
  150.0959  143.6824  157.1642 H   0  0  0  0  0  0  0  0  0  0  0  0
  150.8446  141.8836  155.5180 H   0  0  0  0  0  0  0  0  0  0  0  0
  149.2946  141.1403  153.6590 H   0  0  0  0  0  0  0  0  0  0  0  0
  146.9393  140.4205  153.9512 H   0  0  0  0  0  0  0  0  0  0  0  0
  147.4576  138.9699  154.8041 H   0  0  0  0  0  0  0  0  0  0  0  0
  147.8687  139.1907  153.1075 H   0  0  0  0  0  0  0  0  0  0  0  0
  149.3783  137.6048  154.0057 H   0  0  0  0  0  0  0  0  0  0  0  0
  153.2221  138.7759  154.9207 H   0  0  0  0  0  0  0  0  0  0  0  0
  153.0819  143.6708  158.2851 H   0  0  0  0  0  0  0  0  0  0  0  0
  1  2  1  0  0  0  0
  1 19  1  0  0  0  0
  1 20  1  0  0  0  0
  1 21  1  0  0  0  0
  2  3  1  0  0  0  0
  2 22  1  0  0  0  0
  2 23  1  0  0  0  0
  3  7  1  0  0  0  0
  3  4  1  0  0  0  0
  3 40  1  0  0  0  0
  4  5  1  0  0  0  0
  4 24  1  0  0  0  0
  4 25  1  0  0  0  0
  5  6  1  0  0  0  0
  5 26  1  0  0  0  0
  5 27  1  0  0  0  0
  6  7  1  0  0  0  0
  6 28  1  0  0  0  0
  6 29  1  0  0  0  0
  7  8  1  0  0  0  0
  7 30  1  0  0  0  0
  8  9  1  0  0  0  0
  8 31  1  0  0  0  0
  8 32  1  0  0  0  0
  9 10  1  0  0  0  0
  9 33  1  0  0  0  0
 10 11  2  0  0  0  0
 10 12  1  0  0  0  0
 12 13  1  0  0  0  0
 12 14  1  0  0  0  0
 12 34  1  0  0  0  0
 13 35  1  0  0  0  0
 13 36  1  0  0  0  0
 13 37  1  0  0  0  0
 14 18  1  0  0  0  0
 14 15  1  0  0  0  0
 15 16  2  0  0  0  0
 15 38  1  0  0  0  0
 16 17  1  0  0  0  0
 17 18  2  0  0  0  0
 17 39  1  0  0  0  0
M  CHG  1   3   1
M  END
> <s_m_source_file>
AV-unprocessed.smi

> <i_m_source_file_index>
3232

> <i_lp_mmshare_version>
43012

> <i_f3d_flags>
0

> <s_epik_input>
W0NIM11bQ0gyXU4xW0NIMl1bQ0gyXVtDSDJdW0NASF0xW0NIMl1bTkhdQyg9TylbQ0BIXShbQ0gzXSluMltjSF1uW2NIXW4y

> <s_epik_cmdline>
J2VwaWtfcHl0aG9uJywgJy1waCcsICc3LjAnLCAnLXRuJywgJzgnLCAnLW1hJywgJzIwMCcsICctbWV0YWxfYmluZGluZycsICctaW1hZScsICc8aW5maWxlLm1hZT4nLCAnLW9tYWUnLCAnPG91dGZpbGUubWFlPic=

> <r_lp_tautomer_probability>
1

> <r_epik_Ionization_Penalty>
0.00177695

> <r_epik_Ionization_Penalty_Charging>
0.00176881

> <r_epik_Ionization_Penalty_Neutral>
8.13528e-06

> <r_epik_State_Penalty>
0.00119827

> <r_epik_Charging_Adjusted_Penalty>
0.00296709

> <i_epik_Tot_Q>
1

> <i_epik_Tot_abs_Q>
1

> <r_epik_Metal_State_Penalty>
-0

> <b_epik_Metal_Only>
0

> <s_lp_Force_Field>
OPLS_2005

> <r_lp_Energy>
36.2264

> <b_lp_Chiralities_Consistent>
1

> <s_lp_Variant>
AV-unprocessed.smi:3232-2

> <Gold.Version>
5.8.1

> <Gold.Id.Protein>
6NUR|6NUR_protein|mol2

> <Gold.PLP.Fitness>
42.8710

> <Gold.PLP.PLP>
-38.8055

> <Gold.PLP.part.hbond>
-1.8224

> <Gold.PLP.part.metal>
0.0000

> <Gold.PLP.part.buried>
-5.5878

> <Gold.PLP.part.nonpolar>
-32.7633

> <Gold.PLP.part.repulsive>
0.4376

> <Gold.PLP.ligand.clash>
0.0000

> <Gold.PLP.ligand.torsion>
0.8604

> <Gold.PLP.Chemscore.Hbond>
0.9000

> <Gold.PLP.Chemscore.CHOScore>
0.9804

> <Gold.PLP.Chemscore.Metal>
0.0000

> <Gold.Chemscore.Hbonds>
donor molecule, donor type, donor heavy atom, donor atom, acceptor molecule, acceptor atom, score
      P1  H  7989  7998       L1    18  0.85
      L1  C    15    38       P1  7948  0.90

> <Gold.PLP.Chemscore.Internal.Correction>
0.1451

> <Gold.Rescore>
     Score         DG    S(hbond)    S(metal)    S(lipo)     H(rot)  DE(clash)    DE(int)     intcor
     10.05     -12.24       1.17        0.00      78.75       2.49       0.08       2.12       ----

> <Gold.Chemscore.Fitness>
10.0456

> <Gold.Chemscore.DG>
-12.2405

> <Gold.Chemscore.ZeroCoef>
-5.4800

> <Gold.Chemscore.Hbond>
1.1724

> <Gold.Chemscore.Metal>
0.0000

> <Gold.Chemscore.Lipo>
78.7543

> <Gold.Chemscore.Internal_Hbond>
0.0000

> <Gold.Chemscore.DEClash>
0.0782

> <Gold.Chemscore.DEInternal>
2.1167

> <Gold.Chemscore.Rot>
2.4882

> <Gold.Chemscore.Internal.Correction>
   9.000000E+99

> <Gold.Chemscore.Hbonds>
donor molecule, donor type, donor heavy atom, donor atom, acceptor molecule, acceptor atom, score
      P1  H  7989  7998       L1    18  0.12

> <Gold.Chemscore.Hbond.Weighted>
-3.9160

> <Gold.Chemscore.Metal.Weighted>
-0.0000

> <Gold.Chemscore.Lipo.Weighted>
-9.2142

> <Gold.Chemscore.Internal_Hbond.Weighted>
0.0000

> <Gold.Chemscore.DEClash.Weighted>
0.0782

> <Gold.Chemscore.DEInternal.Weighted>
2.1167

> <Gold.Chemscore.Rot.Weighted>
6.3697

> <Gold.Chemscore.Internal.Correction.Weighted>
   9.000000E+99

> <Gold.Protein.RotatedTorsions>
[ 6907 6896 6895 6894 ] final  -89.48 input  -60.11 | X-H torsion
[ 7974 7965 7964 7962 ] final  115.01 input  175.53 | X-H torsion
[ 8008 7997 7996 7995 ] final   30.34 input   59.86 | X-H torsion
[ 10167 10162 10161 10158 ] final  -57.37 input  -65.29 | X-H torsion
[ 10718 10713 10712 10709 ] final  -27.44 input   66.30 | X-H torsion
[ 10763 10752 10751 10750 ] final -169.05 input  -60.55 | X-H torsion
[ 11005 11000 10999 10996 ] final -147.35 input  -57.11 | X-H torsion

> <Gold.Protein.ActiveResidues>
 VAL166  LYS551  ARG553  GLY616  TRP617  ASP618  TYR619  PRO620  LYS621  CYS622 
 ASP623  PHE694  ASN695  SER759  ASP760  ASP761  ALA762  ILE779  LEU786  VAL792 
 PHE793  MET794  SER795  GLU796  ALA797  LYS798  CYS799  TRP800  GLU811  SER814 

> <Gold.Protein.RotatedAtoms>
  150.6874  134.2580  159.4537 H   0  0  0  0  0  0  0  0  0  0  0  0  # atno 6907 bound_to 6896
  152.0512  134.9650  160.0584 H   0  0  0  0  0  0  0  0  0  0  0  0  # atno 6908 bound_to 6896
  152.1113  133.4267  159.4669 H   0  0  0  0  0  0  0  0  0  0  0  0  # atno 6909 bound_to 6896
  145.1973  139.2970  143.4337 H   0  0  0  0  0  0  0  0  0  0  0  0  # atno 7974 bound_to 7965
  155.0889  140.3218  155.4579 H   0  0  0  0  0  0  0  0  0  0  0  0  # atno 8008 bound_to 7997
  156.2748  140.2081  156.5962 H   0  0  0  0  0  0  0  0  0  0  0  0  # atno 8009 bound_to 7997
  154.6919  140.0515  157.0359 H   0  0  0  0  0  0  0  0  0  0  0  0  # atno 8010 bound_to 7997
  140.6262  143.2439  151.5357 H   0  0  0  0  0  0  0  0  0  0  0  0  # atno 10167 bound_to 10162
  156.4381  130.4459  149.7071 H   0  0  0  0  0  0  0  0  0  0  0  0  # atno 10718 bound_to 10713
  154.6564  135.2918  154.9922 H   0  0  0  0  0  0  0  0  0  0  0  0  # atno 10763 bound_to 10752
  154.0997  135.6578  153.4870 H   0  0  0  0  0  0  0  0  0  0  0  0  # atno 10764 bound_to 10752
  153.0405  135.5239  154.7495 H   0  0  0  0  0  0  0  0  0  0  0  0  # atno 10765 bound_to 10752
  140.7725  134.3172  157.5070 H   0  0  0  0  0  0  0  0  0  0  0  0  # atno 11005 bound_to 11000
  146.3424  140.2206  142.8591 LP  0  0  0  0  0  0  0  0  0  0  0  0  # atno 17320 bound_to 7965
  144.9982  140.8608  143.5298 LP  0  0  0  0  0  0  0  0  0  0  0  0  # atno 17321 bound_to 7965
  139.5482  144.2464  152.1482 LP  0  0  0  0  0  0  0  0  0  0  0  0  # atno 17342 bound_to 10162
  140.1697  144.4948  150.6586 LP  0  0  0  0  0  0  0  0  0  0  0  0  # atno 17343 bound_to 10162
  156.3947  130.7644  151.2648 LP  0  0  0  0  0  0  0  0  0  0  0  0  # atno 17370 bound_to 10713
  157.7507  131.0257  150.3933 LP  0  0  0  0  0  0  0  0  0  0  0  0  # atno 17371 bound_to 10713
  139.8754  134.9269  156.3413 LP  0  0  0  0  0  0  0  0  0  0  0  0  # atno 17394 bound_to 11000
  140.9560  133.7420  156.0336 LP  0  0  0  0  0  0  0  0  0  0  0  0  # atno 17395 bound_to 11000

$$$$
