AV-unprocessed.smi:110|AV-procd|sdf|1078|dock8
  -GOLD-   2262018163D 1   1.00000     0.00000
 Structure written by MMmdl.
 46 50  0  0  0  0  0  0  0  0  1 V2000
  147.5661  138.1288  157.1801 O   0  0  0  0  0  0  0  0  0  0  0  0
  147.1624  137.0994  156.3028 C   0  0  0  0  0  0  0  0  0  0  0  0
  147.4687  137.4934  154.8496 C   0  0  2  0  0  0  0  0  0  0  0  0
  148.8657  137.7494  154.6877 O   0  0  0  0  0  0  0  0  0  0  0  0
  149.1042  138.9277  153.9720 C   0  0  2  0  0  0  0  0  0  0  0  0
  149.6098  139.9856  154.9197 N   0  0  0  0  0  0  0  0  0  0  0  0
  149.2164  141.3055  154.9873 C   0  0  0  0  0  0  0  0  0  0  0  0
  149.8306  142.0334  155.8777 N   0  0  0  0  0  0  0  0  0  0  0  0
  150.7566  141.1704  156.4490 C   0  0  0  0  0  0  0  0  0  0  0  0
  151.7560  141.3095  157.4581 C   0  0  0  0  0  0  0  0  0  0  0  0
  151.9731  142.4568  158.1553 N   0  0  0  0  0  0  0  0  0  0  0  0
  151.4756  143.7351  157.6225 C   0  0  0  0  0  0  0  0  0  0  0  0
  151.3957  144.7379  158.7859 C   0  0  0  0  0  0  0  0  0  0  0  0
  152.0040  143.9380  159.8892 C   0  0  0  0  0  0  0  0  0  0  0  0
  152.2691  144.3714  161.1998 C   0  0  0  0  0  0  0  0  0  0  0  0
  152.8650  143.4587  162.0947 C   0  0  0  0  0  0  0  0  0  0  0  0
  153.1878  142.1503  161.6681 C   0  0  0  0  0  0  0  0  0  0  0  0
  152.9143  141.7376  160.3451 C   0  0  0  0  0  0  0  0  0  0  0  0
  152.3026  142.6485  159.4558 C   0  0  0  0  0  0  0  0  0  0  0  0
  152.5062  140.2136  157.7396 N   0  0  0  0  0  0  0  0  0  0  0  0
  152.3119  139.0705  157.0794 C   0  0  0  0  0  0  0  0  0  0  0  0
  151.4237  138.8042  156.1226 N   0  0  0  0  0  0  0  0  0  0  0  0
  150.6452  139.8878  155.8352 C   0  0  0  0  0  0  0  0  0  0  0  0
  147.7517  139.3439  153.3776 C   0  0  1  0  0  0  0  0  0  0  0  0
  147.5728  138.7856  152.0891 O   0  0  0  0  0  0  0  0  0  0  0  0
  146.7900  138.7945  154.4188 C   0  0  1  0  0  0  0  0  0  0  0  0
  145.4828  138.6043  153.9120 O   0  0  0  0  0  0  0  0  0  0  0  0
  147.1861  136.6950  154.1607 H   0  0  0  0  0  0  0  0  0  0  0  0
  149.9094  138.8196  153.2443 H   0  0  0  0  0  0  0  0  0  0  0  0
  147.6611  140.4245  153.2774 H   0  0  0  0  0  0  0  0  0  0  0  0
  146.7473  139.4859  155.2622 H   0  0  0  0  0  0  0  0  0  0  0  0
  147.6095  137.7771  158.0561 H   0  0  0  0  0  0  0  0  0  0  0  0
  147.7238  136.2039  156.5723 H   0  0  0  0  0  0  0  0  0  0  0  0
  146.1061  136.8703  156.4418 H   0  0  0  0  0  0  0  0  0  0  0  0
  148.4509  141.7249  154.3511 H   0  0  0  0  0  0  0  0  0  0  0  0
  152.1733  144.1007  156.8684 H   0  0  0  0  0  0  0  0  0  0  0  0
  150.5014  143.6123  157.1472 H   0  0  0  0  0  0  0  0  0  0  0  0
  151.9658  145.6468  158.5909 H   0  0  0  0  0  0  0  0  0  0  0  0
  150.3657  144.9992  159.0300 H   0  0  0  0  0  0  0  0  0  0  0  0
  152.0265  145.3764  161.5123 H   0  0  0  0  0  0  0  0  0  0  0  0
  153.0811  143.7635  163.1082 H   0  0  0  0  0  0  0  0  0  0  0  0
  153.6521  141.4612  162.3579 H   0  0  0  0  0  0  0  0  0  0  0  0
  153.1846  140.7404  160.0327 H   0  0  0  0  0  0  0  0  0  0  0  0
  152.9585  138.2520  157.3589 H   0  0  0  0  0  0  0  0  0  0  0  0
  148.0100  137.9478  152.0644 H   0  0  0  0  0  0  0  0  0  0  0  0
  145.1839  139.4198  153.5395 H   0  0  0  0  0  0  0  0  0  0  0  0
  1  2  1  0  0  0  0
  1 32  1  0  0  0  0
  2  3  1  0  0  0  0
  2 33  1  0  0  0  0
  2 34  1  0  0  0  0
  3 28  1  0  0  0  0
  3 26  1  0  0  0  0
  3  4  1  0  0  0  0
  4  5  1  0  0  0  0
  5 29  1  0  0  0  0
  5  6  1  0  0  0  0
  5 24  1  0  0  0  0
  6 23  1  0  0  0  0
  6  7  1  0  0  0  0
  7  8  2  0  0  0  0
  7 35  1  0  0  0  0
  8  9  1  0  0  0  0
  9 23  2  0  0  0  0
  9 10  1  0  0  0  0
 10 11  1  0  0  0  0
 10 20  2  0  0  0  0
 11 19  1  0  0  0  0
 11 12  1  0  0  0  0
 12 13  1  0  0  0  0
 12 36  1  0  0  0  0
 12 37  1  0  0  0  0
 13 14  1  0  0  0  0
 13 38  1  0  0  0  0
 13 39  1  0  0  0  0
 14 19  2  0  0  0  0
 14 15  1  0  0  0  0
 15 16  2  0  0  0  0
 15 40  1  0  0  0  0
 16 17  1  0  0  0  0
 16 41  1  0  0  0  0
 17 18  2  0  0  0  0
 17 42  1  0  0  0  0
 18 19  1  0  0  0  0
 18 43  1  0  0  0  0
 20 21  1  0  0  0  0
 21 22  2  0  0  0  0
 21 44  1  0  0  0  0
 22 23  1  0  0  0  0
 24 30  1  0  0  0  0
 24 25  1  0  0  0  0
 24 26  1  0  0  0  0
 25 45  1  0  0  0  0
 26 31  1  0  0  0  0
 26 27  1  0  0  0  0
 27 46  1  0  0  0  0
M  END
> <s_m_source_file>
AV-unprocessed.smi

> <i_m_source_file_index>
110

> <i_lp_mmshare_version>
43012

> <i_f3d_flags>
0

> <s_epik_input>
W09IXVtDSDJdW0NASF0xT1tDQEhdKFtDQEhdKFtPSF0pW0NAQEhdMVtPSF0pbihbY0hdbjIpYyhjMjMpbltjSF1uYzNOKFtDSDJdW0NIMl00KWMoYzQ1KVtjSF1bY0hdW2NIXVtjSF01

> <s_epik_cmdline>
J2VwaWtfcHl0aG9uJywgJy1waCcsICc3LjAnLCAnLXRuJywgJzgnLCAnLW1hJywgJzIwMCcsICctbWV0YWxfYmluZGluZycsICctaW1hZScsICc8aW5maWxlLm1hZT4nLCAnLW9tYWUnLCAnPG91dGZpbGUubWFlPic=

> <r_lp_tautomer_probability>
1

> <r_epik_Ionization_Penalty>
0.00068475

> <r_epik_Ionization_Penalty_Charging>
0

> <r_epik_Ionization_Penalty_Neutral>
0.00068475

> <r_epik_State_Penalty>
0.000417442

> <r_epik_Charging_Adjusted_Penalty>
0.000417442

> <i_epik_Tot_Q>
0

> <i_epik_Tot_abs_Q>
0

> <r_epik_Metal_State_Penalty>
-0

> <b_epik_Metal_Only>
0

> <s_epik_Chemistry_Notes>
This compound contains an acetal/aminal-like group ( X-CH(R)-Y where X, Y are N, S, or O) that may be acid/base labile, releasing an aldehyde.

> <s_lp_Force_Field>
OPLS_2005

> <r_lp_Energy>
62.7544

> <b_lp_Chiralities_Consistent>
1

> <s_lp_Variant>
AV-unprocessed.smi:110-16

> <Gold.Version>
5.8.1

> <Gold.Id.Protein>
6NUR|6NUR_protein|mol2

> <Gold.PLP.Fitness>
54.6385

> <Gold.PLP.PLP>
-49.8850

> <Gold.PLP.part.hbond>
-3.5816

> <Gold.PLP.part.metal>
0.0000

> <Gold.PLP.part.buried>
-5.0498

> <Gold.PLP.part.nonpolar>
-43.2877

> <Gold.PLP.part.repulsive>
1.9936

> <Gold.PLP.ligand.clash>
0.0000

> <Gold.PLP.ligand.torsion>
0.6949

> <Gold.PLP.Chemscore.Hbond>
2.0032

> <Gold.PLP.Chemscore.CHOScore>
0.0000

> <Gold.PLP.Chemscore.Metal>
0.0000

> <Gold.Chemscore.Hbonds>
donor molecule, donor type, donor heavy atom, donor atom, acceptor molecule, acceptor atom, score
      L1  H    25    45       P1  7948  1.00
      L1  H    27    46       P1 10175  0.73
      P1  H  7997  8008       L1    20  0.12

> <Gold.PLP.Chemscore.Internal.Correction>
0.1337

> <Gold.Rescore>
     Score         DG    S(hbond)    S(metal)    S(lipo)     H(rot)  DE(clash)    DE(int)     intcor
     13.54     -15.80       1.91        0.00     107.82       3.38       0.54       1.73       ----

> <Gold.Chemscore.Fitness>
13.5365

> <Gold.Chemscore.DG>
-15.8000

> <Gold.Chemscore.ZeroCoef>
-5.4800

> <Gold.Chemscore.Hbond>
1.9062

> <Gold.Chemscore.Metal>
0.0000

> <Gold.Chemscore.Lipo>
107.8237

> <Gold.Chemscore.Internal_Hbond>
0.0000

> <Gold.Chemscore.DEClash>
0.5385

> <Gold.Chemscore.DEInternal>
1.7250

> <Gold.Chemscore.Rot>
3.3837

> <Gold.Chemscore.Internal.Correction>
   9.000000E+99

> <Gold.Chemscore.Hbonds>
donor molecule, donor type, donor heavy atom, donor atom, acceptor molecule, acceptor atom, score
      L1  H    25    45       P1  7948  0.99
      L1  H    27    46       P1 10175  0.71

> <Gold.Chemscore.Hbond.Weighted>
-6.3668

> <Gold.Chemscore.Metal.Weighted>
-0.0000

> <Gold.Chemscore.Lipo.Weighted>
-12.6154

> <Gold.Chemscore.Internal_Hbond.Weighted>
0.0000

> <Gold.Chemscore.DEClash.Weighted>
0.5385

> <Gold.Chemscore.DEInternal.Weighted>
1.7250

> <Gold.Chemscore.Rot.Weighted>
8.6622

> <Gold.Chemscore.Internal.Correction.Weighted>
   9.000000E+99

> <Gold.Protein.RotatedTorsions>
[ 6907 6896 6895 6894 ] final  177.61 input  -60.11 | X-H torsion
[ 7974 7965 7964 7962 ] final    2.53 input  175.53 | X-H torsion
[ 8008 7997 7996 7995 ] final  -81.96 input   59.86 | X-H torsion
[ 10167 10162 10161 10158 ] final   82.08 input  -65.29 | X-H torsion
[ 10718 10713 10712 10709 ] final -170.02 input   66.30 | X-H torsion
[ 10763 10752 10751 10750 ] final   81.76 input  -60.55 | X-H torsion
[ 11005 11000 10999 10996 ] final  162.27 input  -57.11 | X-H torsion

> <Gold.Protein.ActiveResidues>
 VAL166  LYS551  ARG553  GLY616  TRP617  ASP618  TYR619  PRO620  LYS621  CYS622 
 ASP623  PHE694  ASN695  SER759  ASP760  ASP761  ALA762  ILE779  LEU786  VAL792 
 PHE793  MET794  SER795  GLU796  ALA797  LYS798  CYS799  TRP800  GLU811  SER814 

> <Gold.Protein.RotatedAtoms>
  151.7012  133.3311  159.3266 H   0  0  0  0  0  0  0  0  0  0  0  0  # atno 6907 bound_to 6896
  150.7735  134.6613  159.6351 H   0  0  0  0  0  0  0  0  0  0  0  0  # atno 6908 bound_to 6896
  152.3768  134.6654  160.0209 H   0  0  0  0  0  0  0  0  0  0  0  0  # atno 6909 bound_to 6896
  146.2444  140.0822  142.8356 H   0  0  0  0  0  0  0  0  0  0  0  0  # atno 7974 bound_to 7965
  154.6037  140.0640  156.9402 H   0  0  0  0  0  0  0  0  0  0  0  0  # atno 8008 bound_to 7997
  155.2089  140.3321  155.4313 H   0  0  0  0  0  0  0  0  0  0  0  0  # atno 8009 bound_to 7997
  156.2334  140.1851  156.7167 H   0  0  0  0  0  0  0  0  0  0  0  0  # atno 8010 bound_to 7997
  139.9325  144.6142  150.8331 H   0  0  0  0  0  0  0  0  0  0  0  0  # atno 10167 bound_to 10162
  156.7201  130.9267  151.3097 H   0  0  0  0  0  0  0  0  0  0  0  0  # atno 10718 bound_to 10713
  153.1145  135.4753  154.9091 H   0  0  0  0  0  0  0  0  0  0  0  0  # atno 10763 bound_to 10752
  154.7514  135.3107  154.8553 H   0  0  0  0  0  0  0  0  0  0  0  0  # atno 10764 bound_to 10752
  153.9133  135.6863  153.4804 H   0  0  0  0  0  0  0  0  0  0  0  0  # atno 10765 bound_to 10752
  140.2241  134.8174  157.3250 H   0  0  0  0  0  0  0  0  0  0  0  0  # atno 11005 bound_to 11000
  145.0723  140.9164  143.4875 LP  0  0  0  0  0  0  0  0  0  0  0  0  # atno 17320 bound_to 7965
  145.0959  139.2857  143.5711 LP  0  0  0  0  0  0  0  0  0  0  0  0  # atno 17321 bound_to 7965
  140.7633  143.3220  151.2600 LP  0  0  0  0  0  0  0  0  0  0  0  0  # atno 17342 bound_to 10162
  139.6770  143.9920  152.2787 LP  0  0  0  0  0  0  0  0  0  0  0  0  # atno 17343 bound_to 10162
  157.6901  130.9225  150.0491 LP  0  0  0  0  0  0  0  0  0  0  0  0  # atno 17370 bound_to 10713
  156.1600  130.3644  149.9313 LP  0  0  0  0  0  0  0  0  0  0  0  0  # atno 17371 bound_to 10713
  140.1819  134.4479  155.7767 LP  0  0  0  0  0  0  0  0  0  0  0  0  # atno 17394 bound_to 11000
  141.2221  133.6987  156.7882 LP  0  0  0  0  0  0  0  0  0  0  0  0  # atno 17395 bound_to 11000

$$$$
