AV-unprocessed.smi:2061|AV-procd|sdf|8363|dock4
  -GOLD-   2272011 33D 1   1.00000     0.00000
 Structure written by MMmdl.
 45 46  0  0  0  0  0  0  0  0  1 V2000
  151.5550  140.3880  156.4858 C   0  0  0  0  0  0  0  0  0  0  0  0
  151.2448  138.9787  156.1142 C   0  0  0  0  0  0  0  0  0  0  0  0
  150.3434  138.4215  155.2513 C   0  0  0  0  0  0  0  0  0  0  0  0
  150.5857  137.0291  155.3912 C   0  0  0  0  0  0  0  0  0  0  0  0
  149.8366  136.0823  154.6471 N   0  0  0  0  0  0  0  0  0  0  0  0
  149.5050  134.8315  155.0101 C   0  0  0  0  0  0  0  0  0  0  0  0
  149.8176  134.2972  156.0744 O   0  0  0  0  0  0  0  0  0  0  0  0
  148.7852  134.2247  154.0549 N   0  0  0  0  0  0  0  0  0  0  0  0
  148.2607  132.8621  154.1185 C   0  0  0  0  0  0  0  0  0  0  0  0
  146.7276  132.8153  154.3761 C   0  0  1  0  0  0  0  0  0  0  0  0
  146.3811  133.7897  155.5310 C   0  0  0  0  0  0  0  0  0  0  0  0
  145.9233  133.0641  153.1557 N   0  0  0  0  0  0  0  0  0  0  0  0
  146.4113  132.3154  151.9934 C   0  0  0  0  0  0  0  0  0  0  0  0
  145.5627  132.5501  150.7308 C   0  0  2  0  0  0  0  0  0  0  0  0
  146.1344  131.8223  149.5094 C   0  0  0  0  0  0  0  0  0  0  0  0
  145.5252  133.9420  150.4358 O   0  0  0  0  0  0  0  0  0  0  0  0
  145.0658  134.7654  151.5050 C   0  0  1  0  0  0  0  0  0  0  0  0
  143.5447  134.6515  151.7051 C   0  0  0  0  0  0  0  0  0  0  0  0
  145.8737  134.4840  152.7877 C   0  0  0  0  0  0  0  0  0  0  0  0
  151.5476  136.7605  156.2609 N   0  0  0  0  0  0  0  0  0  0  0  0
  151.9743  138.0087  156.7293 O   0  0  0  0  0  0  0  0  0  0  0  0
  151.1039  141.0846  155.7787 H   0  0  0  0  0  0  0  0  0  0  0  0
  152.6315  140.5604  156.4899 H   0  0  0  0  0  0  0  0  0  0  0  0
  151.1710  140.6182  157.4796 H   0  0  0  0  0  0  0  0  0  0  0  0
  149.6277  138.9310  154.6229 H   0  0  0  0  0  0  0  0  0  0  0  0
  149.5182  136.3914  153.7406 H   0  0  0  0  0  0  0  0  0  0  0  0
  148.5817  134.7452  153.2143 H   0  0  0  0  0  0  0  0  0  0  0  0
  148.5039  132.2942  153.2188 H   0  0  0  0  0  0  0  0  0  0  0  0
  148.8145  132.3982  154.9321 H   0  0  0  0  0  0  0  0  0  0  0  0
  146.4960  131.8096  154.7305 H   0  0  0  0  0  0  0  0  0  0  0  0
  147.0053  133.6351  156.4100 H   0  0  0  0  0  0  0  0  0  0  0  0
  145.3607  133.6626  155.8891 H   0  0  0  0  0  0  0  0  0  0  0  0
  146.5053  134.8278  155.2209 H   0  0  0  0  0  0  0  0  0  0  0  0
  147.4506  132.5808  151.7930 H   0  0  0  0  0  0  0  0  0  0  0  0
  146.3906  131.2453  152.1896 H   0  0  0  0  0  0  0  0  0  0  0  0
  144.5492  132.1858  150.9011 H   0  0  0  0  0  0  0  0  0  0  0  0
  146.1795  130.7461  149.6783 H   0  0  0  0  0  0  0  0  0  0  0  0
  147.1427  132.1683  149.2804 H   0  0  0  0  0  0  0  0  0  0  0  0
  145.5153  131.9941  148.6287 H   0  0  0  0  0  0  0  0  0  0  0  0
  145.2680  135.7938  151.2043 H   0  0  0  0  0  0  0  0  0  0  0  0
  143.1962  135.3770  152.4405 H   0  0  0  0  0  0  0  0  0  0  0  0
  143.2490  133.6641  152.0588 H   0  0  0  0  0  0  0  0  0  0  0  0
  143.0143  134.8464  150.7729 H   0  0  0  0  0  0  0  0  0  0  0  0
  145.4266  135.0786  153.5816 H   0  0  0  0  0  0  0  0  0  0  0  0
  146.8904  134.8564  152.6529 H   0  0  0  0  0  0  0  0  0  0  0  0
  1  2  1  0  0  0  0
  1 22  1  0  0  0  0
  1 23  1  0  0  0  0
  1 24  1  0  0  0  0
  2 21  1  0  0  0  0
  2  3  2  0  0  0  0
  3  4  1  0  0  0  0
  3 25  1  0  0  0  0
  4  5  1  0  0  0  0
  4 20  2  0  0  0  0
  5  6  1  0  0  0  0
  5 26  1  0  0  0  0
  6  7  2  0  0  0  0
  6  8  1  0  0  0  0
  8  9  1  0  0  0  0
  8 27  1  0  0  0  0
  9 10  1  0  0  0  0
  9 28  1  0  0  0  0
  9 29  1  0  0  0  0
 10 11  1  0  0  0  0
 10 12  1  0  0  0  0
 10 30  1  0  0  0  0
 11 31  1  0  0  0  0
 11 32  1  0  0  0  0
 11 33  1  0  0  0  0
 12 19  1  0  0  0  0
 12 13  1  0  0  0  0
 13 14  1  0  0  0  0
 13 34  1  0  0  0  0
 13 35  1  0  0  0  0
 14 15  1  0  0  0  0
 14 16  1  0  0  0  0
 14 36  1  0  0  0  0
 15 37  1  0  0  0  0
 15 38  1  0  0  0  0
 15 39  1  0  0  0  0
 16 17  1  0  0  0  0
 17 18  1  0  0  0  0
 17 19  1  0  0  0  0
 17 40  1  0  0  0  0
 18 41  1  0  0  0  0
 18 42  1  0  0  0  0
 18 43  1  0  0  0  0
 19 44  1  0  0  0  0
 19 45  1  0  0  0  0
 20 21  1  0  0  0  0
M  END
> <s_m_source_file>
AV-unprocessed.smi

> <i_m_source_file_index>
2061

> <i_lp_mmshare_version>
43012

> <i_f3d_flags>
0

> <s_epik_input>
W0NIM11jMVtjSF1jKG5vMSlbTkhdQyg9TylbTkhdW0NIMl1bQ0BIXShbQ0gzXSlOMltDSDJdW0NAQEhdKFtDSDNdKU9bQ0BASF0oW0NIM10pW0NIMl0y

> <s_epik_cmdline>
J2VwaWtfcHl0aG9uJywgJy1waCcsICc3LjAnLCAnLXRuJywgJzgnLCAnLW1hJywgJzIwMCcsICctbWV0YWxfYmluZGluZycsICctaW1hZScsICc8aW5maWxlLm1hZT4nLCAnLW9tYWUnLCAnPG91dGZpbGUubWFlPic=

> <r_epik_Ionization_Penalty>
0.214073

> <r_epik_Ionization_Penalty_Charging>
0

> <r_epik_Ionization_Penalty_Neutral>
0.214073

> <r_epik_State_Penalty>
0.204211

> <r_epik_Charging_Adjusted_Penalty>
0.204211

> <i_epik_Tot_Q>
0

> <i_epik_Tot_abs_Q>
0

> <r_epik_Metal_State_Penalty>
0.217067

> <b_epik_Metal_Only>
0

> <s_lp_Force_Field>
OPLS_2005

> <r_lp_Energy>
29.4213

> <b_lp_Chiralities_Consistent>
1

> <s_lp_Variant>
AV-unprocessed.smi:2061-4

> <Gold.Version>
5.8.1

> <Gold.Id.Protein>
6NUR|6NUR_protein|mol2

> <Gold.PLP.Fitness>
39.8061

> <Gold.PLP.PLP>
-32.1338

> <Gold.PLP.part.hbond>
-4.0000

> <Gold.PLP.part.metal>
0.0000

> <Gold.PLP.part.buried>
-4.0833

> <Gold.PLP.part.nonpolar>
-24.7399

> <Gold.PLP.part.repulsive>
0.6910

> <Gold.PLP.ligand.clash>
0.0000

> <Gold.PLP.ligand.torsion>
0.6170

> <Gold.PLP.Chemscore.Hbond>
2.9600

> <Gold.PLP.Chemscore.CHOScore>
0.0000

> <Gold.PLP.Chemscore.Metal>
0.0000

> <Gold.Chemscore.Hbonds>
donor molecule, donor type, donor heavy atom, donor atom, acceptor molecule, acceptor atom, score
      L1  H     5    26       P1  7948  1.00
      L1  H     8    27       P1  7948  1.00
      P1  H 10752 10765       L1    20  0.15

> <Gold.PLP.Chemscore.Internal.Correction>
0.0264

> <Gold.Rescore>
     Score         DG    S(hbond)    S(metal)    S(lipo)     H(rot)  DE(clash)    DE(int)     intcor
     15.46     -16.30       2.15        0.00      65.02       1.55       0.08       0.76       ----

> <Gold.Chemscore.Fitness>
15.4620

> <Gold.Chemscore.DG>
-16.3009

> <Gold.Chemscore.ZeroCoef>
-5.4800

> <Gold.Chemscore.Hbond>
2.1481

> <Gold.Chemscore.Metal>
0.0000

> <Gold.Chemscore.Lipo>
65.0219

> <Gold.Chemscore.Internal_Hbond>
0.0000

> <Gold.Chemscore.DEClash>
0.0829

> <Gold.Chemscore.DEInternal>
0.7560

> <Gold.Chemscore.Rot>
1.5474

> <Gold.Chemscore.Internal.Correction>
   9.000000E+99

> <Gold.Chemscore.Hbonds>
donor molecule, donor type, donor heavy atom, donor atom, acceptor molecule, acceptor atom, score
      L1  H     5    26       P1  7948  0.69
      L1  H     8    27       P1  7948  0.41
      P1  H 10752 10765       L1    20  0.04

> <Gold.Chemscore.Hbond.Weighted>
-7.1746

> <Gold.Chemscore.Metal.Weighted>
-0.0000

> <Gold.Chemscore.Lipo.Weighted>
-7.6076

> <Gold.Chemscore.Internal_Hbond.Weighted>
0.0000

> <Gold.Chemscore.DEClash.Weighted>
0.0829

> <Gold.Chemscore.DEInternal.Weighted>
0.7560

> <Gold.Chemscore.Rot.Weighted>
3.9612

> <Gold.Chemscore.Internal.Correction.Weighted>
   9.000000E+99

> <Gold.Protein.RotatedTorsions>
[ 6907 6896 6895 6894 ] final  -51.31 input  -60.11 | X-H torsion
[ 7974 7965 7964 7962 ] final   -1.89 input  175.53 | X-H torsion
[ 8008 7997 7996 7995 ] final -162.23 input   59.86 | X-H torsion
[ 10167 10162 10161 10158 ] final  122.77 input  -65.29 | X-H torsion
[ 10718 10713 10712 10709 ] final   19.63 input   66.30 | X-H torsion
[ 10763 10752 10751 10750 ] final -163.01 input  -60.55 | X-H torsion
[ 11005 11000 10999 10996 ] final   44.42 input  -57.11 | X-H torsion

> <Gold.Protein.ActiveResidues>
 VAL166  LYS551  ARG553  GLY616  TRP617  ASP618  TYR619  PRO620  LYS621  CYS622 
 ASP623  PHE694  ASN695  SER759  ASP760  ASP761  ALA762  ILE779  LEU786  VAL792 
 PHE793  MET794  SER795  GLU796  ALA797  LYS798  CYS799  TRP800  GLU811  SER814 

> <Gold.Protein.RotatedAtoms>
  150.8623  134.7978  159.7091 H   0  0  0  0  0  0  0  0  0  0  0  0  # atno 6907 bound_to 6896
  152.4656  134.5080  159.9755 H   0  0  0  0  0  0  0  0  0  0  0  0  # atno 6908 bound_to 6896
  151.5182  133.3433  159.2932 H   0  0  0  0  0  0  0  0  0  0  0  0  # atno 6909 bound_to 6896
  146.2411  140.1489  142.8334 H   0  0  0  0  0  0  0  0  0  0  0  0  # atno 7974 bound_to 7965
  155.8038  140.0895  157.1942 H   0  0  0  0  0  0  0  0  0  0  0  0  # atno 8008 bound_to 7997
  154.3981  140.1467  156.3365 H   0  0  0  0  0  0  0  0  0  0  0  0  # atno 8009 bound_to 7997
  155.8435  140.3438  155.5649 H   0  0  0  0  0  0  0  0  0  0  0  0  # atno 8010 bound_to 7997
  139.5839  144.6998  151.3459 H   0  0  0  0  0  0  0  0  0  0  0  0  # atno 10167 bound_to 10162
  157.1131  130.6517  149.5903 H   0  0  0  0  0  0  0  0  0  0  0  0  # atno 10718 bound_to 10713
  154.7161  135.3016  154.9121 H   0  0  0  0  0  0  0  0  0  0  0  0  # atno 10763 bound_to 10752
  154.0007  135.6707  153.4763 H   0  0  0  0  0  0  0  0  0  0  0  0  # atno 10764 bound_to 10752
  153.0795  135.5016  154.8389 H   0  0  0  0  0  0  0  0  0  0  0  0  # atno 10765 bound_to 10752
  140.1553  134.4410  155.8354 H   0  0  0  0  0  0  0  0  0  0  0  0  # atno 11005 bound_to 11000
  145.0184  140.8773  143.5181 LP  0  0  0  0  0  0  0  0  0  0  0  0  # atno 17320 bound_to 7965
  145.1533  139.2501  143.5429 LP  0  0  0  0  0  0  0  0  0  0  0  0  # atno 17321 bound_to 7965
  140.7113  143.7382  150.7572 LP  0  0  0  0  0  0  0  0  0  0  0  0  # atno 17342 bound_to 10162
  140.0922  143.4867  152.2472 LP  0  0  0  0  0  0  0  0  0  0  0  0  # atno 17343 bound_to 10162
  155.9846  130.4871  150.6989 LP  0  0  0  0  0  0  0  0  0  0  0  0  # atno 17370 bound_to 10713
  157.4542  131.0876  151.0814 LP  0  0  0  0  0  0  0  0  0  0  0  0  # atno 17371 bound_to 10713
  141.2203  133.6890  156.7496 LP  0  0  0  0  0  0  0  0  0  0  0  0  # atno 17394 bound_to 11000
  140.2555  134.8507  157.3708 LP  0  0  0  0  0  0  0  0  0  0  0  0  # atno 17395 bound_to 11000

$$$$
