AV-unprocessed.smi:1952|AV-procd|sdf|7888|dock6
  -GOLD-   2272010 43D 1   1.00000     0.00000
 Structure written by MMmdl.
 38 39  0  0  0  0  0  0  0  0  2 V2000
  144.2680  143.8018  162.5832 C   0  0  0  0  0  0  0  0  0  0  0  0
  145.0611  143.3249  161.4147 C   0  0  0  0  0  0  0  0  0  0  0  0
  145.7616  143.9778  160.4406 C   0  0  0  0  0  0  0  0  0  0  0  0
  146.2823  142.9179  159.6488 C   0  0  0  0  0  0  0  0  0  0  0  0
  147.0398  143.0533  158.5496 N   0  5  0  0  0  0  0  0  0  0  0  0
  147.3640  141.9687  157.8080 C   0  0  0  0  0  0  0  0  0  0  0  0
  146.9511  140.8188  157.9766 O   0  0  0  0  0  0  0  0  0  0  0  0
  148.2199  142.2341  156.8101 N   0  0  0  0  0  0  0  0  0  0  0  0
  148.7654  141.2676  155.8580 C   0  0  1  0  0  0  0  0  0  0  0  0
  148.4260  141.6976  154.4228 C   0  0  0  0  0  0  0  0  0  0  0  0
  150.2895  141.1346  156.0571 C   0  0  0  0  0  0  0  0  0  0  0  0
  150.9559  140.1370  155.2175 N   0  0  0  0  0  0  0  0  0  0  0  0
  152.2183  139.6686  155.7848 C   0  0  0  0  0  0  0  0  0  0  0  0
  152.8876  138.6074  154.8941 C   0  0  0  0  0  0  0  0  0  0  0  0
  151.9898  137.5227  154.6823 O   0  0  0  0  0  0  0  0  0  0  0  0
  150.7655  137.9352  154.0839 C   0  0  0  0  0  0  0  0  0  0  0  0
  150.0878  138.9905  154.9745 C   0  0  0  0  0  0  0  0  0  0  0  0
  145.9150  141.7276  160.0930 N   0  0  0  0  0  0  0  0  0  0  0  0
  145.1376  141.9793  161.2297 O   0  0  0  0  0  0  0  0  0  0  0  0
  143.4761  144.4777  162.2611 H   0  0  0  0  0  0  0  0  0  0  0  0
  144.9045  144.3371  163.2877 H   0  0  0  0  0  0  0  0  0  0  0  0
  143.8056  142.9680  163.1122 H   0  0  0  0  0  0  0  0  0  0  0  0
  145.8868  145.0429  160.3156 H   0  0  0  0  0  0  0  0  0  0  0  0
  148.5336  143.1889  156.7146 H   0  0  0  0  0  0  0  0  0  0  0  0
  148.3075  140.2918  156.0235 H   0  0  0  0  0  0  0  0  0  0  0  0
  148.8172  140.9840  153.6974 H   0  0  0  0  0  0  0  0  0  0  0  0
  148.8492  142.6753  154.1905 H   0  0  0  0  0  0  0  0  0  0  0  0
  147.3471  141.7577  154.2747 H   0  0  0  0  0  0  0  0  0  0  0  0
  150.7573  142.1084  155.9043 H   0  0  0  0  0  0  0  0  0  0  0  0
  150.4668  140.8822  157.1036 H   0  0  0  0  0  0  0  0  0  0  0  0
  152.9105  140.5009  155.9075 H   0  0  0  0  0  0  0  0  0  0  0  0
  152.0464  139.2524  156.7784 H   0  0  0  0  0  0  0  0  0  0  0  0
  153.1795  139.0388  153.9353 H   0  0  0  0  0  0  0  0  0  0  0  0
  153.7957  138.2332  155.3665 H   0  0  0  0  0  0  0  0  0  0  0  0
  150.9554  138.3353  153.0866 H   0  0  0  0  0  0  0  0  0  0  0  0
  150.1173  137.0672  153.9631 H   0  0  0  0  0  0  0  0  0  0  0  0
  149.8053  138.5331  155.9240 H   0  0  0  0  0  0  0  0  0  0  0  0
  149.1630  139.3203  154.5001 H   0  0  0  0  0  0  0  0  0  0  0  0
  1  2  1  0  0  0  0
  1 20  1  0  0  0  0
  1 21  1  0  0  0  0
  1 22  1  0  0  0  0
  2 19  1  0  0  0  0
  2  3  2  0  0  0  0
  3  4  1  0  0  0  0
  3 23  1  0  0  0  0
  4  5  1  0  0  0  0
  4 18  2  0  0  0  0
  5  6  1  0  0  0  0
  6  7  2  0  0  0  0
  6  8  1  0  0  0  0
  8  9  1  0  0  0  0
  8 24  1  0  0  0  0
  9 10  1  0  0  0  0
  9 11  1  0  0  0  0
  9 25  1  0  0  0  0
 10 26  1  0  0  0  0
 10 27  1  0  0  0  0
 10 28  1  0  0  0  0
 11 12  1  0  0  0  0
 11 29  1  0  0  0  0
 11 30  1  0  0  0  0
 12 17  1  0  0  0  0
 12 13  1  0  0  0  0
 13 14  1  0  0  0  0
 13 31  1  0  0  0  0
 13 32  1  0  0  0  0
 14 15  1  0  0  0  0
 14 33  1  0  0  0  0
 14 34  1  0  0  0  0
 15 16  1  0  0  0  0
 16 17  1  0  0  0  0
 16 35  1  0  0  0  0
 16 36  1  0  0  0  0
 17 37  1  0  0  0  0
 17 38  1  0  0  0  0
 18 19  1  0  0  0  0
M  CHG  1   5  -1
M  END
> <s_m_source_file>
AV-unprocessed.smi

> <i_m_source_file_index>
1952

> <i_lp_mmshare_version>
43012

> <i_f3d_flags>
0

> <s_epik_input>
W0NIM11jMVtjSF1jKG5vMSlbTkhdQyg9TylbTkhdW0NASF0oW0NIM10pW0NIMl1OMltDSDJdW0NIMl1PW0NIMl1bQ0gyXTI=

> <s_epik_cmdline>
J2VwaWtfcHl0aG9uJywgJy1waCcsICc3LjAnLCAnLXRuJywgJzgnLCAnLW1hJywgJzIwMCcsICctbWV0YWxfYmluZGluZycsICctaW1hZScsICc8aW5maWxlLm1hZT4nLCAnLW9tYWUnLCAnPG91dGZpbGUubWFlPic=

> <r_epik_Ionization_Penalty>
6.81701

> <r_epik_Ionization_Penalty_Charging>
6.50532

> <r_epik_Ionization_Penalty_Neutral>
0.311686

> <r_epik_State_Penalty>
6.70952

> <r_epik_Charging_Adjusted_Penalty>
13.2148

> <i_epik_Tot_Q>
-1

> <i_epik_Tot_abs_Q>
1

> <r_epik_Metal_State_Penalty>
2.64135

> <b_epik_Metal_Only>
1

> <s_lp_Force_Field>
OPLS_2005

> <r_lp_Energy>
19.0911

> <b_lp_Chiralities_Consistent>
1

> <s_lp_Variant>
AV-unprocessed.smi:1952-6

> <Gold.Version>
5.8.1

> <Gold.Id.Protein>
6NUR|6NUR_protein|mol2

> <Gold.PLP.Fitness>
45.8013

> <Gold.PLP.PLP>
-35.5567

> <Gold.PLP.part.hbond>
-5.2302

> <Gold.PLP.part.metal>
0.0000

> <Gold.PLP.part.buried>
-5.0380

> <Gold.PLP.part.nonpolar>
-26.3276

> <Gold.PLP.part.repulsive>
0.3089

> <Gold.PLP.ligand.clash>
0.0000

> <Gold.PLP.ligand.torsion>
0.3089

> <Gold.PLP.Chemscore.Hbond>
3.5941

> <Gold.PLP.Chemscore.CHOScore>
0.0000

> <Gold.PLP.Chemscore.Metal>
0.0000

> <Gold.Chemscore.Hbonds>
donor molecule, donor type, donor heavy atom, donor atom, acceptor molecule, acceptor atom, score
      L1  H     8    24       P1  8028  1.00
      P1  H  6934  6946       L1    18  0.73
      P1  H  7989  7998       L1    12  0.95
      P1  H 10752 10765       L1    15  0.68

> <Gold.PLP.Chemscore.Internal.Correction>
0.0800

> <Gold.Rescore>
     Score         DG    S(hbond)    S(metal)    S(lipo)     H(rot)  DE(clash)    DE(int)     intcor
     14.34     -16.38       2.17        0.00      64.72       1.53       0.03       2.01       ----

> <Gold.Chemscore.Fitness>
14.3372

> <Gold.Chemscore.DG>
-16.3785

> <Gold.Chemscore.ZeroCoef>
-5.4800

> <Gold.Chemscore.Hbond>
2.1699

> <Gold.Chemscore.Metal>
0.0000

> <Gold.Chemscore.Lipo>
64.7184

> <Gold.Chemscore.Internal_Hbond>
0.0000

> <Gold.Chemscore.DEClash>
0.0320

> <Gold.Chemscore.DEInternal>
2.0092

> <Gold.Chemscore.Rot>
1.5317

> <Gold.Chemscore.Internal.Correction>
   9.000000E+99

> <Gold.Chemscore.Hbonds>
donor molecule, donor type, donor heavy atom, donor atom, acceptor molecule, acceptor atom, score
      L1  H     8    24       P1  8028  0.58
      P1  H  6934  6946       L1    18  0.14
      P1  H  7989  7998       L1    12  0.14
      P1  H 10752 10765       L1    15  0.59

> <Gold.Chemscore.Hbond.Weighted>
-7.2476

> <Gold.Chemscore.Metal.Weighted>
-0.0000

> <Gold.Chemscore.Lipo.Weighted>
-7.5721

> <Gold.Chemscore.Internal_Hbond.Weighted>
0.0000

> <Gold.Chemscore.DEClash.Weighted>
0.0320

> <Gold.Chemscore.DEInternal.Weighted>
2.0092

> <Gold.Chemscore.Rot.Weighted>
3.9211

> <Gold.Chemscore.Internal.Correction.Weighted>
   9.000000E+99

> <Gold.Protein.RotatedTorsions>
[ 6907 6896 6895 6894 ] final    7.93 input  -60.11 | X-H torsion
[ 7974 7965 7964 7962 ] final  -44.56 input  175.53 | X-H torsion
[ 8008 7997 7996 7995 ] final -148.82 input   59.86 | X-H torsion
[ 10167 10162 10161 10158 ] final  174.78 input  -65.29 | X-H torsion
[ 10718 10713 10712 10709 ] final -179.30 input   66.30 | X-H torsion
[ 10763 10752 10751 10750 ] final  171.52 input  -60.55 | X-H torsion
[ 11005 11000 10999 10996 ] final -102.27 input  -57.11 | X-H torsion

> <Gold.Protein.ActiveResidues>
 VAL166  LYS551  ARG553  GLY616  TRP617  ASP618  TYR619  PRO620  LYS621  CYS622 
 ASP623  PHE694  ASN695  SER759  ASP760  ASP761  ALA762  ILE779  LEU786  VAL792 
 PHE793  MET794  SER795  GLU796  ALA797  LYS798  CYS799  TRP800  GLU811  SER814 

> <Gold.Protein.RotatedAtoms>
  151.6979  135.0935  160.0245 H   0  0  0  0  0  0  0  0  0  0  0  0  # atno 6907 bound_to 6896
  152.3738  133.6450  159.6116 H   0  0  0  0  0  0  0  0  0  0  0  0  # atno 6908 bound_to 6896
  150.7694  133.9142  159.3420 H   0  0  0  0  0  0  0  0  0  0  0  0  # atno 6909 bound_to 6896
  145.9908  140.7183  142.9318 H   0  0  0  0  0  0  0  0  0  0  0  0  # atno 7974 bound_to 7965
  155.5978  140.0659  157.2741 H   0  0  0  0  0  0  0  0  0  0  0  0  # atno 8008 bound_to 7997
  154.4287  140.1824  156.1189 H   0  0  0  0  0  0  0  0  0  0  0  0  # atno 8009 bound_to 7997
  156.0183  140.3319  155.7015 H   0  0  0  0  0  0  0  0  0  0  0  0  # atno 8010 bound_to 7997
  139.5154  144.3108  152.0293 H   0  0  0  0  0  0  0  0  0  0  0  0  # atno 10167 bound_to 10162
  156.8571  130.9739  151.3087 H   0  0  0  0  0  0  0  0  0  0  0  0  # atno 10718 bound_to 10713
  154.4130  135.2756  155.2024 H   0  0  0  0  0  0  0  0  0  0  0  0  # atno 10763 bound_to 10752
  154.4002  135.6046  153.5896 H   0  0  0  0  0  0  0  0  0  0  0  0  # atno 10764 bound_to 10752
  152.9831  135.5924  154.4415 H   0  0  0  0  0  0  0  0  0  0  0  0  # atno 10765 bound_to 10752
  141.1196  133.8545  157.1338 H   0  0  0  0  0  0  0  0  0  0  0  0  # atno 11005 bound_to 11000
  144.6888  140.3066  143.7255 LP  0  0  0  0  0  0  0  0  0  0  0  0  # atno 17320 bound_to 7965
  145.7633  139.1832  143.2254 LP  0  0  0  0  0  0  0  0  0  0  0  0  # atno 17321 bound_to 7965
  140.2552  144.4126  150.6206 LP  0  0  0  0  0  0  0  0  0  0  0  0  # atno 17342 bound_to 10162
  140.6196  143.2175  151.6721 LP  0  0  0  0  0  0  0  0  0  0  0  0  # atno 17343 bound_to 10162
  157.6271  130.8700  149.9208 LP  0  0  0  0  0  0  0  0  0  0  0  0  # atno 17370 bound_to 10713
  156.0797  130.3674  150.0606 LP  0  0  0  0  0  0  0  0  0  0  0  0  # atno 17371 bound_to 10713
  140.0143  134.9974  157.0461 LP  0  0  0  0  0  0  0  0  0  0  0  0  # atno 17394 bound_to 11000
  140.4546  134.1547  155.7185 LP  0  0  0  0  0  0  0  0  0  0  0  0  # atno 17395 bound_to 11000

$$$$
