AV-unprocessed.smi:1|AV-procd|sdf|10|dock3
  -GOLD-   2262015103D 1   1.00000     0.00000
 Structure written by MMmdl.
 57 62  0  0  0  0  0  0  0  0  1 V2000
  153.6833  140.8485  159.5069 O   0  0  0  0  0  0  0  0  0  0  0  0
  152.8498  141.4073  158.7887 C   0  0  0  0  0  0  0  0  0  0  0  0
  152.2050  140.9184  157.6605 N   0  0  0  0  0  0  0  0  0  0  0  0
  151.3908  139.9118  157.7598 C   0  0  0  0  0  0  0  0  0  0  0  0
  150.9846  139.1247  158.8449 N   0  0  0  0  0  0  0  0  0  0  0  0
  150.0786  138.0543  158.7917 C   0  0  0  0  0  0  0  0  0  0  0  0
  149.4752  137.6394  157.7100 N   0  0  0  0  0  0  0  0  0  0  0  0
  149.8315  138.3991  156.6047 C   0  0  0  0  0  0  0  0  0  0  0  0
  150.7067  139.4605  156.5297 C   0  0  0  0  0  0  0  0  0  0  0  0
  150.7652  139.9603  155.2352 N   0  0  0  0  0  0  0  0  0  0  0  0
  149.9109  139.1774  154.5829 C   0  0  0  0  0  0  0  0  0  0  0  0
  149.3156  138.2180  155.3246 N   0  0  0  0  0  0  0  0  0  0  0  0
  148.3153  137.1701  154.9193 C   0  0  1  0  0  0  0  0  0  0  0  0
  147.8958  136.5319  156.0897 O   0  0  0  0  0  0  0  0  0  0  0  0
  146.6004  136.9832  156.4846 C   0  0  1  0  0  0  0  0  0  0  0  0
  146.5341  137.3582  157.9741 C   0  0  0  0  0  0  0  0  0  0  0  0
  146.4290  136.2151  158.8143 O   0  0  0  0  0  0  0  0  0  0  0  0
  146.6692  136.3097  160.1421 C   0  0  0  0  0  0  0  0  0  0  0  0
  146.5400  137.3499  160.7902 O   0  0  0  0  0  0  0  0  0  0  0  0
  147.1022  135.0192  160.7488 C   0  0  0  0  0  0  0  0  0  0  0  0
  147.3892  133.9206  159.9056 C   0  0  0  0  0  0  0  0  0  0  0  0
  147.8152  132.6926  160.4473 C   0  0  0  0  0  0  0  0  0  0  0  0
  147.9636  132.5503  161.8392 C   0  0  0  0  0  0  0  0  0  0  0  0
  147.6808  133.6356  162.6885 C   0  0  0  0  0  0  0  0  0  0  0  0
  147.2490  134.8628  162.1488 C   0  0  0  0  0  0  0  0  0  0  0  0
  146.1798  138.0834  155.5008 C   0  0  2  0  0  0  0  0  0  0  0  0
  144.8256  137.9515  155.0981 O   0  0  0  0  0  0  0  0  0  0  0  0
  144.7626  136.9696  153.7443 S   0  0  0  0  0  0  0  0  0  0  0  0
  144.2307  135.6580  154.1447 O   0  0  0  0  0  0  0  0  0  0  0  0
  144.1924  137.7518  152.6369 O   0  0  0  0  0  0  0  0  0  0  0  0
  146.4050  136.8126  153.4852 O   0  0  0  0  0  0  0  0  0  0  0  0
  147.0613  137.7779  154.2852 C   0  0  2  0  0  0  0  0  0  0  0  0
  152.4267  142.7923  159.1544 C   0  0  0  0  0  0  0  0  0  0  0  0
  152.6355  143.2731  160.4644 C   0  0  0  0  0  0  0  0  0  0  0  0
  152.2460  144.5831  160.8058 C   0  0  0  0  0  0  0  0  0  0  0  0
  151.6516  145.4168  159.8385 C   0  0  0  0  0  0  0  0  0  0  0  0
  151.4440  144.9400  158.5295 C   0  0  0  0  0  0  0  0  0  0  0  0
  151.8302  143.6292  158.1876 C   0  0  0  0  0  0  0  0  0  0  0  0
  149.9064  137.5712  159.7544 H   0  0  0  0  0  0  0  0  0  0  0  0
  149.7201  139.3259  153.5314 H   0  0  0  0  0  0  0  0  0  0  0  0
  148.8740  136.5071  154.2579 H   0  0  0  0  0  0  0  0  0  0  0  0
  145.9460  136.1237  156.3367 H   0  0  0  0  0  0  0  0  0  0  0  0
  147.4468  137.8876  158.2473 H   0  0  0  0  0  0  0  0  0  0  0  0
  145.7177  138.0596  158.1516 H   0  0  0  0  0  0  0  0  0  0  0  0
  147.2920  134.0094  158.8332 H   0  0  0  0  0  0  0  0  0  0  0  0
  148.0367  131.8622  159.7933 H   0  0  0  0  0  0  0  0  0  0  0  0
  148.2964  131.6107  162.2551 H   0  0  0  0  0  0  0  0  0  0  0  0
  147.7979  133.5281  163.7569 H   0  0  0  0  0  0  0  0  0  0  0  0
  147.0477  135.6780  162.8279 H   0  0  0  0  0  0  0  0  0  0  0  0
  146.3840  139.0796  155.8937 H   0  0  0  0  0  0  0  0  0  0  0  0
  147.2805  138.6419  153.6584 H   0  0  0  0  0  0  0  0  0  0  0  0
  153.0945  142.6408  161.2108 H   0  0  0  0  0  0  0  0  0  0  0  0
  152.4050  144.9490  161.8094 H   0  0  0  0  0  0  0  0  0  0  0  0
  151.3551  146.4217  160.1009 H   0  0  0  0  0  0  0  0  0  0  0  0
  150.9887  145.5795  157.7877 H   0  0  0  0  0  0  0  0  0  0  0  0
  151.6682  143.2710  157.1815 H   0  0  0  0  0  0  0  0  0  0  0  0
  151.3819  139.3473  159.7461 H   0  0  0  0  0  0  0  0  0  0  0  0
  1  2  2  0  0  0  0
  2  3  1  0  0  0  0
  2 33  1  0  0  0  0
  3  4  2  0  0  0  0
  4  9  1  0  0  0  0
  4  5  1  0  0  0  0
  5  6  1  0  0  0  0
  5 57  1  0  0  0  0
  6  7  2  0  0  0  0
  6 39  1  0  0  0  0
  7  8  1  0  0  0  0
  8 12  1  0  0  0  0
  8  9  2  0  0  0  0
  9 10  1  0  0  0  0
 10 11  2  0  0  0  0
 11 12  1  0  0  0  0
 11 40  1  0  0  0  0
 12 13  1  0  0  0  0
 13 32  1  0  0  0  0
 13 14  1  0  0  0  0
 13 41  1  0  0  0  0
 14 15  1  0  0  0  0
 15 16  1  0  0  0  0
 15 26  1  0  0  0  0
 15 42  1  0  0  0  0
 16 17  1  0  0  0  0
 16 43  1  0  0  0  0
 16 44  1  0  0  0  0
 17 18  1  0  0  0  0
 18 19  2  0  0  0  0
 18 20  1  0  0  0  0
 20 25  1  0  0  0  0
 20 21  2  0  0  0  0
 21 22  1  0  0  0  0
 21 45  1  0  0  0  0
 22 23  2  0  0  0  0
 22 46  1  0  0  0  0
 23 24  1  0  0  0  0
 23 47  1  0  0  0  0
 24 25  2  0  0  0  0
 24 48  1  0  0  0  0
 25 49  1  0  0  0  0
 26 32  1  0  0  0  0
 26 27  1  0  0  0  0
 26 50  1  0  0  0  0
 27 28  1  0  0  0  0
 28 29  2  0  0  0  0
 28 30  2  0  0  0  0
 28 31  1  0  0  0  0
 31 32  1  0  0  0  0
 32 51  1  0  0  0  0
 33 38  1  0  0  0  0
 33 34  2  0  0  0  0
 34 35  1  0  0  0  0
 34 52  1  0  0  0  0
 35 36  2  0  0  0  0
 35 53  1  0  0  0  0
 36 37  1  0  0  0  0
 36 54  1  0  0  0  0
 37 38  2  0  0  0  0
 37 55  1  0  0  0  0
 38 56  1  0  0  0  0
M  END
> <s_m_source_file>
AV-unprocessed.smi

> <i_m_source_file_index>
1

> <i_lp_mmshare_version>
43012

> <i_f3d_flags>
0

> <s_epik_input>
W2NIXTFbY0hdW2NIXVtjSF1bY0hdYzFDKD1PKVtOSF1jKG5bY0hdbjIpYyhjMjMpbltjSF1uM1tDQEBIXShbQ0BIXShbQ0BIXTQ1KU9TKE81KSg9Tyk9TylPW0NASF00W0NIMl1PQyg9TyljNltjSF1bY0hdW2NIXVtjSF1bY0hdNg==

> <s_epik_cmdline>
J2VwaWtfcHl0aG9uJywgJy1waCcsICc3LjAnLCAnLXRuJywgJzgnLCAnLW1hJywgJzIwMCcsICctbWV0YWxfYmluZGluZycsICctaW1hZScsICc8aW5maWxlLm1hZT4nLCAnLW9tYWUnLCAnPG91dGZpbGUubWFlPic=

> <r_epik_Ionization_Penalty>
0.122545

> <r_epik_Ionization_Penalty_Charging>
0.122545

> <r_epik_Ionization_Penalty_Neutral>
7.8935e-16

> <r_epik_State_Penalty>
2.69178

> <r_epik_Charging_Adjusted_Penalty>
2.81433

> <i_epik_Tot_Q>
0

> <i_epik_Tot_abs_Q>
0

> <r_epik_Metal_State_Penalty>
3.02665

> <b_epik_Metal_Only>
0

> <s_epik_Chemistry_Notes>
This compound has an ester and may undergo hydrolysis at high or low pH. This compound contains an acetal/aminal-like group ( X-CH(R)-Y where X, Y are N, S, or O) that may be acid/base labile, releasing an aldehyde.

> <s_lp_Force_Field>
OPLS_2005

> <r_lp_Energy>
55.0636

> <b_lp_Chiralities_Consistent>
1

> <s_lp_Variant>
AV-unprocessed.smi:1-10

> <Gold.Version>
5.8.1

> <Gold.Id.Protein>
6NUR|6NUR_protein|mol2

> <Gold.PLP.Fitness>
52.1642

> <Gold.PLP.PLP>
-46.7640

> <Gold.PLP.part.hbond>
-1.7073

> <Gold.PLP.part.metal>
0.0000

> <Gold.PLP.part.buried>
-7.8573

> <Gold.PLP.part.nonpolar>
-38.7107

> <Gold.PLP.part.repulsive>
3.5955

> <Gold.PLP.ligand.clash>
0.0000

> <Gold.PLP.ligand.torsion>
1.4989

> <Gold.PLP.Chemscore.Hbond>
1.6728

> <Gold.PLP.Chemscore.CHOScore>
1.0000

> <Gold.PLP.Chemscore.Metal>
0.0000

> <Gold.Chemscore.Hbonds>
donor molecule, donor type, donor heavy atom, donor atom, acceptor molecule, acceptor atom, score
      P1  H  6934  6947       L1    19  1.00
      P1  H  7989  7998       L1    10  0.61
      L1  C    11    40       P1  7957  1.00

> <Gold.PLP.Chemscore.Internal.Correction>
0.3798

> <Gold.Rescore>
     Score         DG    S(hbond)    S(metal)    S(lipo)     H(rot)  DE(clash)    DE(int)     intcor
     15.05     -19.15       1.38        0.00     124.01       2.13       0.78       3.31       ----

> <Gold.Chemscore.Fitness>
15.0529

> <Gold.Chemscore.DG>
-19.1482

> <Gold.Chemscore.ZeroCoef>
-5.4800

> <Gold.Chemscore.Hbond>
1.3834

> <Gold.Chemscore.Metal>
0.0000

> <Gold.Chemscore.Lipo>
124.0097

> <Gold.Chemscore.Internal_Hbond>
0.0000

> <Gold.Chemscore.DEClash>
0.7813

> <Gold.Chemscore.DEInternal>
3.3139

> <Gold.Chemscore.Rot>
2.1333

> <Gold.Chemscore.Internal.Correction>
   9.000000E+99

> <Gold.Chemscore.Hbonds>
donor molecule, donor type, donor heavy atom, donor atom, acceptor molecule, acceptor atom, score
      P1  H  6934  6947       L1    19  1.00
      P1  H  7989  7998       L1    10  0.10

> <Gold.Chemscore.Hbond.Weighted>
-4.6204

> <Gold.Chemscore.Metal.Weighted>
-0.0000

> <Gold.Chemscore.Lipo.Weighted>
-14.5091

> <Gold.Chemscore.Internal_Hbond.Weighted>
0.0000

> <Gold.Chemscore.DEClash.Weighted>
0.7813

> <Gold.Chemscore.DEInternal.Weighted>
3.3139

> <Gold.Chemscore.Rot.Weighted>
5.4614

> <Gold.Chemscore.Internal.Correction.Weighted>
   9.000000E+99

> <Gold.Protein.RotatedTorsions>
[ 6907 6896 6895 6894 ] final   30.94 input  -60.11 | X-H torsion
[ 7974 7965 7964 7962 ] final -164.45 input  175.53 | X-H torsion
[ 8008 7997 7996 7995 ] final  -98.91 input   59.86 | X-H torsion
[ 10167 10162 10161 10158 ] final  136.03 input  -65.29 | X-H torsion
[ 10718 10713 10712 10709 ] final -172.46 input   66.30 | X-H torsion
[ 10763 10752 10751 10750 ] final -132.50 input  -60.55 | X-H torsion
[ 11005 11000 10999 10996 ] final -127.68 input  -57.11 | X-H torsion

> <Gold.Protein.ActiveResidues>
 VAL166  LYS551  ARG553  GLY616  TRP617  ASP618  TYR619  PRO620  LYS621  CYS622 
 ASP623  PHE694  ASN695  SER759  ASP760  ASP761  ALA762  ILE779  LEU786  VAL792 
 PHE793  MET794  SER795  GLU796  ALA797  LYS798  CYS799  TRP800  GLU811  SER814 

> <Gold.Protein.RotatedAtoms>
  152.0531  134.9641  160.0574 H   0  0  0  0  0  0  0  0  0  0  0  0  # atno 6907 bound_to 6896
  152.1034  133.4257  159.4606 H   0  0  0  0  0  0  0  0  0  0  0  0  # atno 6908 bound_to 6896
  150.6840  134.2653  159.4609 H   0  0  0  0  0  0  0  0  0  0  0  0  # atno 6909 bound_to 6896
  144.7296  140.2958  143.6213 H   0  0  0  0  0  0  0  0  0  0  0  0  # atno 7974 bound_to 7965
  154.8076  140.0451  157.1319 H   0  0  0  0  0  0  0  0  0  0  0  0  # atno 8008 bound_to 7997
  154.9406  140.3052  155.5103 H   0  0  0  0  0  0  0  0  0  0  0  0  # atno 8009 bound_to 7997
  156.2968  140.2306  156.4475 H   0  0  0  0  0  0  0  0  0  0  0  0  # atno 8010 bound_to 7997
  139.5195  144.6486  151.5368 H   0  0  0  0  0  0  0  0  0  0  0  0  # atno 10167 bound_to 10162
  156.7559  130.9395  151.3116 H   0  0  0  0  0  0  0  0  0  0  0  0  # atno 10718 bound_to 10713
  154.8742  135.3796  154.4419 H   0  0  0  0  0  0  0  0  0  0  0  0  # atno 10763 bound_to 10752
  153.5103  135.7029  153.5789 H   0  0  0  0  0  0  0  0  0  0  0  0  # atno 10764 bound_to 10752
  153.4082  135.3931  155.1999 H   0  0  0  0  0  0  0  0  0  0  0  0  # atno 10765 bound_to 10752
  140.9579  134.0976  157.3998 H   0  0  0  0  0  0  0  0  0  0  0  0  # atno 11005 bound_to 11000
  145.7809  139.1891  143.2158 LP  0  0  0  0  0  0  0  0  0  0  0  0  # atno 17320 bound_to 7965
  146.0834  140.7738  142.9630 LP  0  0  0  0  0  0  0  0  0  0  0  0  # atno 17321 bound_to 7965
  140.6281  143.9129  150.6582 LP  0  0  0  0  0  0  0  0  0  0  0  0  # atno 17342 bound_to 10162
  140.2424  143.3654  152.1475 LP  0  0  0  0  0  0  0  0  0  0  0  0  # atno 17343 bound_to 10162
  157.6756  130.9092  150.0143 LP  0  0  0  0  0  0  0  0  0  0  0  0  # atno 17370 bound_to 10713
  156.1371  130.3642  149.9640 LP  0  0  0  0  0  0  0  0  0  0  0  0  # atno 17371 bound_to 10713
  139.8868  135.0084  156.6522 LP  0  0  0  0  0  0  0  0  0  0  0  0  # atno 17394 bound_to 11000
  140.7510  133.8898  155.8347 LP  0  0  0  0  0  0  0  0  0  0  0  0  # atno 17395 bound_to 11000

$$$$
