AV-unprocessed.smi:265|AV-procd|sdf|2017|dock9
  -GOLD-   2262021223D 1   1.00000     0.00000
 Structure written by MMmdl.
 52 56  0  0  0  0  0  0  0  0  1 V2000
  146.5854  129.7031  152.8103 C   0  0  0  0  0  0  0  0  0  0  0  0
  145.9042  131.0678  152.6238 C   0  0  2  0  0  0  0  0  0  0  0  0
  145.3827  131.2085  151.3030 O   0  0  0  0  0  0  0  0  0  0  0  0
  145.7434  132.4724  150.7585 C   0  0  0  0  0  0  0  0  0  0  0  0
  146.1252  133.3299  151.9600 C   0  0  0  0  0  0  0  0  0  0  0  0
  146.7738  132.3175  152.8947 C   0  0  2  0  0  0  0  0  0  0  0  0
  148.1054  132.0950  152.4612 O   0  0  0  0  0  0  0  0  0  0  0  0
  146.8739  132.7511  154.3806 C   0  0  0  0  0  0  0  0  0  0  0  0
  147.5791  134.0026  154.6102 N   0  0  0  0  0  0  0  0  0  0  0  0
  147.0908  135.2748  154.4070 C   0  0  0  0  0  0  0  0  0  0  0  0
  147.9197  136.2431  154.6882 N   0  0  0  0  0  0  0  0  0  0  0  0
  149.0581  135.5879  155.1382 C   0  0  0  0  0  0  0  0  0  0  0  0
  150.3262  136.0216  155.6026 C   0  0  0  0  0  0  0  0  0  0  0  0
  150.6512  137.3294  155.6740 N   0  0  0  0  0  0  0  0  0  0  0  0
  149.9093  138.1682  154.7322 C   0  0  0  0  0  0  0  0  0  0  0  0
  150.4648  139.6050  154.7135 C   0  0  0  0  0  0  0  0  0  0  0  0
  150.4882  140.1720  156.1396 C   0  0  2  0  0  0  0  0  0  0  0  0
  151.0915  141.4557  156.1952 O   0  0  0  0  0  0  0  0  0  0  0  0
  150.9801  142.0791  157.4795 C   0  0  0  0  0  0  0  0  0  0  0  0
  151.3466  141.1300  158.6412 C   0  0  0  0  0  0  0  0  0  0  0  0
  151.5236  141.5841  159.7694 O   0  0  0  0  0  0  0  0  0  0  0  0
  151.4202  139.8130  158.3861 N   0  0  0  0  0  0  0  0  0  0  0  0
  151.3267  139.2543  157.0440 C   0  0  1  0  0  0  0  0  0  0  0  0
  150.7327  137.8368  157.0435 C   0  0  0  0  0  0  0  0  0  0  0  0
  151.2269  135.0768  155.9800 N   0  0  0  0  0  0  0  0  0  0  0  0
  150.9023  133.7820  155.9055 C   0  0  0  0  0  0  0  0  0  0  0  0
  149.7606  133.2293  155.4879 N   0  0  0  0  0  0  0  0  0  0  0  0
  148.8588  134.1799  155.1073 C   0  0  0  0  0  0  0  0  0  0  0  0
  149.4613  140.2388  156.5056 H   0  0  0  0  0  0  0  0  0  0  0  0
  152.3447  139.2035  156.6532 H   0  0  0  0  0  0  0  0  0  0  0  0
  146.9874  129.6009  153.8184 H   0  0  0  0  0  0  0  0  0  0  0  0
  147.4030  129.5601  152.1034 H   0  0  0  0  0  0  0  0  0  0  0  0
  145.8729  128.8933  152.6535 H   0  0  0  0  0  0  0  0  0  0  0  0
  145.0255  131.0949  153.2661 H   0  0  0  0  0  0  0  0  0  0  0  0
  146.5988  132.3380  150.0954 H   0  0  0  0  0  0  0  0  0  0  0  0
  144.9286  132.9036  150.1767 H   0  0  0  0  0  0  0  0  0  0  0  0
  146.7731  134.1684  151.7018 H   0  0  0  0  0  0  0  0  0  0  0  0
  145.2123  133.7358  152.3941 H   0  0  0  0  0  0  0  0  0  0  0  0
  148.0793  131.6775  151.6139 H   0  0  0  0  0  0  0  0  0  0  0  0
  145.8742  132.8465  154.8066 H   0  0  0  0  0  0  0  0  0  0  0  0
  147.3747  131.9752  154.9613 H   0  0  0  0  0  0  0  0  0  0  0  0
  146.0952  135.4626  154.0316 H   0  0  0  0  0  0  0  0  0  0  0  0
  149.9645  137.7374  153.7314 H   0  0  0  0  0  0  0  0  0  0  0  0
  148.8555  138.1847  155.0145 H   0  0  0  0  0  0  0  0  0  0  0  0
  151.4726  139.6058  154.2960 H   0  0  0  0  0  0  0  0  0  0  0  0
  149.8561  140.2357  154.0653 H   0  0  0  0  0  0  0  0  0  0  0  0
  151.6238  142.9587  157.5044 H   0  0  0  0  0  0  0  0  0  0  0  0
  149.9556  142.4255  157.6212 H   0  0  0  0  0  0  0  0  0  0  0  0
  151.6272  139.1807  159.1455 H   0  0  0  0  0  0  0  0  0  0  0  0
  149.7381  137.8458  157.4921 H   0  0  0  0  0  0  0  0  0  0  0  0
  151.3530  137.1710  157.6454 H   0  0  0  0  0  0  0  0  0  0  0  0
  151.6669  133.0894  156.2255 H   0  0  0  0  0  0  0  0  0  0  0  0
  1  2  1  0  0  0  0
  1 31  1  0  0  0  0
  1 32  1  0  0  0  0
  1 33  1  0  0  0  0
  2  6  1  0  0  0  0
  2  3  1  0  0  0  0
  2 34  1  0  0  0  0
  3  4  1  0  0  0  0
  4  5  1  0  0  0  0
  4 35  1  0  0  0  0
  4 36  1  0  0  0  0
  5  6  1  0  0  0  0
  5 37  1  0  0  0  0
  5 38  1  0  0  0  0
  6  7  1  0  0  0  0
  6  8  1  0  0  0  0
  7 39  1  0  0  0  0
  8  9  1  0  0  0  0
  8 40  1  0  0  0  0
  8 41  1  0  0  0  0
  9 28  1  0  0  0  0
  9 10  1  0  0  0  0
 10 11  2  0  0  0  0
 10 42  1  0  0  0  0
 11 12  1  0  0  0  0
 12 28  2  0  0  0  0
 12 13  1  0  0  0  0
 13 14  1  0  0  0  0
 13 25  2  0  0  0  0
 14 24  1  0  0  0  0
 14 15  1  0  0  0  0
 15 16  1  0  0  0  0
 15 43  1  0  0  0  0
 15 44  1  0  0  0  0
 16 17  1  0  0  0  0
 16 45  1  0  0  0  0
 16 46  1  0  0  0  0
 17 29  1  0  0  0  0
 17 23  1  0  0  0  0
 17 18  1  0  0  0  0
 18 19  1  0  0  0  0
 19 20  1  0  0  0  0
 19 47  1  0  0  0  0
 19 48  1  0  0  0  0
 20 21  2  0  0  0  0
 20 22  1  0  0  0  0
 22 23  1  0  0  0  0
 22 49  1  0  0  0  0
 23 30  1  0  0  0  0
 23 24  1  0  0  0  0
 24 50  1  0  0  0  0
 24 51  1  0  0  0  0
 25 26  1  0  0  0  0
 26 27  2  0  0  0  0
 26 52  1  0  0  0  0
 27 28  1  0  0  0  0
M  END
> <s_m_source_file>
AV-unprocessed.smi

> <i_m_source_file_index>
265

> <i_lp_mmshare_version>
43012

> <i_f3d_flags>
0

> <s_epik_input>
W0NIMl0xW0NIMl1PW0NAQEhdKFtDSDNdKVtDQEBdMShbT0hdKVtDSDJdbihbY0hdbjIpYyhjMjMpbltjSF1uYzNOKFtDSDJdW0NIMl00KVtDSDJdW0NAQEhdKFtDQEhdNDUpW05IXUMoPU8pW0NIMl1PNQ==

> <s_epik_cmdline>
J2VwaWtfcHl0aG9uJywgJy1waCcsICc3LjAnLCAnLXRuJywgJzgnLCAnLW1hJywgJzIwMCcsICctbWV0YWxfYmluZGluZycsICctaW1hZScsICc8aW5maWxlLm1hZT4nLCAnLW9tYWUnLCAnPG91dGZpbGUubWFlPic=

> <r_lp_tautomer_probability>
1

> <r_epik_Ionization_Penalty>
0.00221504

> <r_epik_Ionization_Penalty_Charging>
0

> <r_epik_Ionization_Penalty_Neutral>
0.00221504

> <r_epik_State_Penalty>
-0

> <r_epik_Charging_Adjusted_Penalty>
0

> <i_epik_Tot_Q>
0

> <i_epik_Tot_abs_Q>
0

> <r_epik_Metal_State_Penalty>
-0

> <b_epik_Metal_Only>
0

> <s_lp_Force_Field>
OPLS_2005

> <r_lp_Energy>
49.4841

> <b_lp_Chiralities_Consistent>
1

> <s_lp_Variant>
AV-unprocessed.smi:265-3

> <Gold.Version>
5.8.1

> <Gold.Id.Protein>
6NUR|6NUR_protein|mol2

> <Gold.PLP.Fitness>
38.0812

> <Gold.PLP.PLP>
-33.3973

> <Gold.PLP.part.hbond>
-2.7791

> <Gold.PLP.part.metal>
0.0000

> <Gold.PLP.part.buried>
-6.6567

> <Gold.PLP.part.nonpolar>
-25.1311

> <Gold.PLP.part.repulsive>
1.4907

> <Gold.PLP.ligand.clash>
0.1027

> <Gold.PLP.ligand.torsion>
0.7039

> <Gold.PLP.Chemscore.Hbond>
1.9913

> <Gold.PLP.Chemscore.CHOScore>
0.0000

> <Gold.PLP.Chemscore.Metal>
0.0000

> <Gold.Chemscore.Hbonds>
donor molecule, donor type, donor heavy atom, donor atom, acceptor molecule, acceptor atom, score
      L1  H     7    39       P1 10747  0.94
      P1  H 10752 10763       L1    25  0.73

> <Gold.PLP.Chemscore.Internal.Correction>
0.2206

> <Gold.Rescore>
     Score         DG    S(hbond)    S(metal)    S(lipo)     H(rot)  DE(clash)    DE(int)     intcor
     10.83     -13.01       1.46        0.00      71.75       2.25       0.20       1.98       ----

> <Gold.Chemscore.Fitness>
10.8264

> <Gold.Chemscore.DG>
-13.0101

> <Gold.Chemscore.ZeroCoef>
-5.4800

> <Gold.Chemscore.Hbond>
1.4620

> <Gold.Chemscore.Metal>
0.0000

> <Gold.Chemscore.Lipo>
71.7507

> <Gold.Chemscore.Internal_Hbond>
0.0000

> <Gold.Chemscore.DEClash>
0.2042

> <Gold.Chemscore.DEInternal>
1.9795

> <Gold.Chemscore.Rot>
2.2453

> <Gold.Chemscore.Internal.Correction>
   9.000000E+99

> <Gold.Chemscore.Hbonds>
donor molecule, donor type, donor heavy atom, donor atom, acceptor molecule, acceptor atom, score
      L1  H     7    39       P1 10747  0.91
      P1  H 10752 10763       L1    25  0.38

> <Gold.Chemscore.Hbond.Weighted>
-4.8832

> <Gold.Chemscore.Metal.Weighted>
-0.0000

> <Gold.Chemscore.Lipo.Weighted>
-8.3948

> <Gold.Chemscore.Internal_Hbond.Weighted>
0.0000

> <Gold.Chemscore.DEClash.Weighted>
0.2042

> <Gold.Chemscore.DEInternal.Weighted>
1.9795

> <Gold.Chemscore.Rot.Weighted>
5.7479

> <Gold.Chemscore.Internal.Correction.Weighted>
   9.000000E+99

> <Gold.Protein.RotatedTorsions>
[ 6907 6896 6895 6894 ] final  -92.45 input  -60.11 | X-H torsion
[ 7974 7965 7964 7962 ] final  106.45 input  175.53 | X-H torsion
[ 8008 7997 7996 7995 ] final   62.78 input   59.86 | X-H torsion
[ 10167 10162 10161 10158 ] final   12.12 input  -65.29 | X-H torsion
[ 10718 10713 10712 10709 ] final   74.73 input   66.30 | X-H torsion
[ 10763 10752 10751 10750 ] final   84.45 input  -60.55 | X-H torsion
[ 11005 11000 10999 10996 ] final   11.40 input  -57.11 | X-H torsion

> <Gold.Protein.ActiveResidues>
 VAL166  LYS551  ARG553  GLY616  TRP617  ASP618  TYR619  PRO620  LYS621  CYS622 
 ASP623  PHE694  ASN695  SER759  ASP760  ASP761  ALA762  ILE779  LEU786  VAL792 
 PHE793  MET794  SER795  GLU796  ALA797  LYS798  CYS799  TRP800  GLU811  SER814 

> <Gold.Protein.RotatedAtoms>
  150.6906  134.2120  159.4362 H   0  0  0  0  0  0  0  0  0  0  0  0  # atno 6907 bound_to 6896
  152.0082  134.9889  160.0576 H   0  0  0  0  0  0  0  0  0  0  0  0  # atno 6908 bound_to 6896
  152.1514  133.4489  159.4852 H   0  0  0  0  0  0  0  0  0  0  0  0  # atno 6909 bound_to 6896
  145.3064  139.2553  143.3786 H   0  0  0  0  0  0  0  0  0  0  0  0  # atno 7974 bound_to 7965
  155.6197  140.3495  155.4648 H   0  0  0  0  0  0  0  0  0  0  0  0  # atno 8008 bound_to 7997
  156.0089  140.1229  157.0498 H   0  0  0  0  0  0  0  0  0  0  0  0  # atno 8009 bound_to 7997
  154.4274  140.1085  156.5787 H   0  0  0  0  0  0  0  0  0  0  0  0  # atno 8010 bound_to 7997
  140.6088  143.8451  150.7043 H   0  0  0  0  0  0  0  0  0  0  0  0  # atno 10167 bound_to 10162
  157.6605  130.9692  150.1253 H   0  0  0  0  0  0  0  0  0  0  0  0  # atno 10718 bound_to 10713
  153.1383  135.4654  154.9456 H   0  0  0  0  0  0  0  0  0  0  0  0  # atno 10763 bound_to 10752
  154.7725  135.3163  154.8162 H   0  0  0  0  0  0  0  0  0  0  0  0  # atno 10764 bound_to 10752
  153.8690  135.6905  153.4830 H   0  0  0  0  0  0  0  0  0  0  0  0  # atno 10765 bound_to 10752
  140.5036  134.0721  155.7800 H   0  0  0  0  0  0  0  0  0  0  0  0  # atno 11005 bound_to 11000
  146.3133  140.3590  142.8663 LP  0  0  0  0  0  0  0  0  0  0  0  0  # atno 17320 bound_to 7965
  144.9051  140.7690  143.5842 LP  0  0  0  0  0  0  0  0  0  0  0  0  # atno 17321 bound_to 7965
  140.2014  143.3956  152.1788 LP  0  0  0  0  0  0  0  0  0  0  0  0  # atno 17342 bound_to 10162
  139.5345  144.7195  151.4939 LP  0  0  0  0  0  0  0  0  0  0  0  0  # atno 17343 bound_to 10162
  156.2114  130.3667  149.8666 LP  0  0  0  0  0  0  0  0  0  0  0  0  # atno 17370 bound_to 10713
  156.6544  130.8756  151.3537 LP  0  0  0  0  0  0  0  0  0  0  0  0  # atno 17371 bound_to 10713
  141.1422  133.9117  157.2298 LP  0  0  0  0  0  0  0  0  0  0  0  0  # atno 17394 bound_to 11000
  139.9699  135.0131  156.9485 LP  0  0  0  0  0  0  0  0  0  0  0  0  # atno 17395 bound_to 11000

$$$$
