AV-unprocessed.smi:1803|AV-procd|sdf|7293|dock2
  -GOLD-   22720 8553D 1   1.00000     0.00000
 Structure written by MMmdl.
 35 37  0  0  0  0  0  0  0  0  3 V2000
  148.8740  135.2489  158.4186 O   0  0  0  0  0  0  0  0  0  0  0  0
  147.6594  135.1748  158.2371 C   0  0  0  0  0  0  0  0  0  0  0  0
  146.7533  135.1534  159.2484 N   0  5  0  0  0  0  0  0  0  0  0  0
  147.0226  135.6389  160.4746 C   0  0  0  0  0  0  0  0  0  0  0  0
  147.6306  136.8213  160.6637 N   0  0  0  0  0  0  0  0  0  0  0  0
  147.8195  137.1293  162.0038 N   0  0  0  0  0  0  0  0  0  0  0  0
  147.3344  136.1733  162.7955 C   0  0  0  0  0  0  0  0  0  0  0  0
  146.6109  134.8058  161.9752 S   0  0  0  0  0  0  0  0  0  0  0  0
  147.1951  135.0983  156.9751 N   0  0  0  0  0  0  0  0  0  0  0  0
  148.0139  135.0436  155.7685 C   0  0  2  0  0  0  0  0  0  0  0  0
  149.2462  134.1608  155.9146 C   0  0  0  0  0  0  0  0  0  0  0  0
  150.1504  134.6409  154.7745 C   0  0  0  0  0  0  0  0  0  0  0  0
  149.7814  136.0513  154.4974 N   0  3  2  0  0  0  0  0  0  0  0  0
  150.9236  137.0017  154.5676 C   0  0  0  0  0  0  0  0  0  0  0  0
  150.4272  138.4506  154.6834 C   0  0  0  0  0  0  0  0  0  0  0  0
  149.6166  138.6653  155.9755 C   0  0  0  0  0  0  0  0  0  0  0  0
  148.9853  137.3607  156.4984 C   0  0  0  0  0  0  0  0  0  0  0  0
  148.6053  136.4005  155.3434 C   0  0  2  0  0  0  0  0  0  0  0  0
  147.4035  136.2733  163.8684 H   0  0  0  0  0  0  0  0  0  0  0  0
  146.1947  135.0401  156.8513 H   0  0  0  0  0  0  0  0  0  0  0  0
  147.4152  134.6440  154.9472 H   0  0  0  0  0  0  0  0  0  0  0  0
  149.7320  134.3440  156.8743 H   0  0  0  0  0  0  0  0  0  0  0  0
  149.0167  133.0965  155.8520 H   0  0  0  0  0  0  0  0  0  0  0  0
  151.2056  134.5116  155.0189 H   0  0  0  0  0  0  0  0  0  0  0  0
  149.9535  134.0613  153.8721 H   0  0  0  0  0  0  0  0  0  0  0  0
  151.5537  136.7711  155.4284 H   0  0  0  0  0  0  0  0  0  0  0  0
  151.5439  136.8769  153.6795 H   0  0  0  0  0  0  0  0  0  0  0  0
  151.2656  139.1470  154.6490 H   0  0  0  0  0  0  0  0  0  0  0  0
  149.8032  138.6820  153.8189 H   0  0  0  0  0  0  0  0  0  0  0  0
  150.2551  139.0847  156.7539 H   0  0  0  0  0  0  0  0  0  0  0  0
  148.8400  139.4077  155.7884 H   0  0  0  0  0  0  0  0  0  0  0  0
  149.6889  136.8607  157.1654 H   0  0  0  0  0  0  0  0  0  0  0  0
  148.1167  137.6090  157.1089 H   0  0  0  0  0  0  0  0  0  0  0  0
  147.8791  136.9172  154.7139 H   0  0  0  0  0  0  0  0  0  0  0  0
  149.4452  136.0725  153.5454 H   0  0  0  0  0  0  0  0  0  0  0  0
  1  2  2  0  0  0  0
  2  3  1  0  0  0  0
  2  9  1  0  0  0  0
  3  4  1  0  0  0  0
  4  8  1  0  0  0  0
  4  5  2  0  0  0  0
  5  6  1  0  0  0  0
  6  7  2  0  0  0  0
  7  8  1  0  0  0  0
  7 19  1  0  0  0  0
  9 10  1  0  0  0  0
  9 20  1  0  0  0  0
 10 18  1  0  0  0  0
 10 11  1  0  0  0  0
 10 21  1  0  0  0  0
 11 12  1  0  0  0  0
 11 22  1  0  0  0  0
 11 23  1  0  0  0  0
 12 13  1  0  0  0  0
 12 24  1  0  0  0  0
 12 25  1  0  0  0  0
 13 18  1  0  0  0  0
 13 14  1  0  0  0  0
 13 35  1  0  0  0  0
 14 15  1  0  0  0  0
 14 26  1  0  0  0  0
 14 27  1  0  0  0  0
 15 16  1  0  0  0  0
 15 28  1  0  0  0  0
 15 29  1  0  0  0  0
 16 17  1  0  0  0  0
 16 30  1  0  0  0  0
 16 31  1  0  0  0  0
 17 18  1  0  0  0  0
 17 32  1  0  0  0  0
 17 33  1  0  0  0  0
 18 34  1  0  0  0  0
M  CHG  1   3  -1
M  CHG  1  13   1
M  END
> <s_m_source_file>
AV-unprocessed.smi

> <i_m_source_file_index>
1803

> <i_lp_mmshare_version>
43012

> <i_f3d_flags>
0

> <s_epik_input>
czFbY0hdbm5jMVtOSF1DKD1PKVtOSF1bQ0BIXShbQ0gyXVtDSDJdMilbQ0BASF0oTjIzKVtDSDJdW0NIMl1bQ0gyXVtDSDJdMw==

> <s_epik_cmdline>
J2VwaWtfcHl0aG9uJywgJy1waCcsICc3LjAnLCAnLXRuJywgJzgnLCAnLW1hJywgJzIwMCcsICctbWV0YWxfYmluZGluZycsICctaW1hZScsICc8aW5maWxlLm1hZT4nLCAnLW9tYWUnLCAnPG91dGZpbGUubWFlPic=

> <r_lp_tautomer_probability>
1

> <r_epik_Ionization_Penalty>
3.78828

> <r_epik_Ionization_Penalty_Charging>
3.7591

> <r_epik_Ionization_Penalty_Neutral>
0.0291838

> <r_epik_State_Penalty>
3.757

> <r_epik_Charging_Adjusted_Penalty>
7.51609

> <i_epik_Tot_Q>
0

> <i_epik_Tot_abs_Q>
2

> <r_epik_Metal_State_Penalty>
0.558016

> <b_epik_Metal_Only>
1

> <s_lp_Force_Field>
OPLS_2005

> <r_lp_Energy>
34.1757

> <b_lp_Chiralities_Consistent>
1

> <s_lp_Variant>
AV-unprocessed.smi:1803-15

> <Gold.Version>
5.8.1

> <Gold.Id.Protein>
6NUR|6NUR_protein|mol2

> <Gold.PLP.Fitness>
36.5937

> <Gold.PLP.PLP>
-26.0506

> <Gold.PLP.part.hbond>
-5.0850

> <Gold.PLP.part.metal>
0.0000

> <Gold.PLP.part.buried>
-3.7194

> <Gold.PLP.part.nonpolar>
-17.9946

> <Gold.PLP.part.repulsive>
0.0469

> <Gold.PLP.ligand.clash>
0.0000

> <Gold.PLP.ligand.torsion>
0.7329

> <Gold.PLP.Chemscore.Hbond>
4.0000

> <Gold.PLP.Chemscore.CHOScore>
0.0000

> <Gold.PLP.Chemscore.Metal>
0.0000

> <Gold.Chemscore.Hbonds>
donor molecule, donor type, donor heavy atom, donor atom, acceptor molecule, acceptor atom, score
      L1  H    13    35       P1  7948  2.00
      P1  H  6896  6909       L1     1  0.54
      P1  H  6931  6943       L1     6  1.00

> <Gold.PLP.Chemscore.Internal.Correction>
0.0089

> <Gold.Rescore>
     Score         DG    S(hbond)    S(metal)    S(lipo)     H(rot)  DE(clash)    DE(int)     intcor
     13.11     -16.78       2.33        0.00      51.93       1.00       0.05       3.62       ----

> <Gold.Chemscore.Fitness>
13.1125

> <Gold.Chemscore.DG>
-16.7819

> <Gold.Chemscore.ZeroCoef>
-5.4800

> <Gold.Chemscore.Hbond>
2.3313

> <Gold.Chemscore.Metal>
0.0000

> <Gold.Chemscore.Lipo>
51.9255

> <Gold.Chemscore.Internal_Hbond>
0.0000

> <Gold.Chemscore.DEClash>
0.0510

> <Gold.Chemscore.DEInternal>
3.6183

> <Gold.Chemscore.Rot>
1.0000

> <Gold.Chemscore.Internal.Correction>
   9.000000E+99

> <Gold.Chemscore.Hbonds>
donor molecule, donor type, donor heavy atom, donor atom, acceptor molecule, acceptor atom, score
      L1  H    13    35       P1  7948  0.55
      P1  H  6896  6909       L1     1  0.54
      P1  H  6931  6943       L1     6  0.34

> <Gold.Chemscore.Hbond.Weighted>
-7.7866

> <Gold.Chemscore.Metal.Weighted>
-0.0000

> <Gold.Chemscore.Lipo.Weighted>
-6.0753

> <Gold.Chemscore.Internal_Hbond.Weighted>
0.0000

> <Gold.Chemscore.DEClash.Weighted>
0.0510

> <Gold.Chemscore.DEInternal.Weighted>
3.6183

> <Gold.Chemscore.Rot.Weighted>
2.5600

> <Gold.Chemscore.Internal.Correction.Weighted>
   9.000000E+99

> <Gold.Protein.RotatedTorsions>
[ 6907 6896 6895 6894 ] final   44.54 input  -60.11 | X-H torsion
[ 7974 7965 7964 7962 ] final   55.58 input  175.53 | X-H torsion
[ 8008 7997 7996 7995 ] final  133.08 input   59.86 | X-H torsion
[ 10167 10162 10161 10158 ] final  -97.80 input  -65.29 | X-H torsion
[ 10718 10713 10712 10709 ] final  -79.06 input   66.30 | X-H torsion
[ 10763 10752 10751 10750 ] final   -5.77 input  -60.55 | X-H torsion
[ 11005 11000 10999 10996 ] final  -68.06 input  -57.11 | X-H torsion

> <Gold.Protein.ActiveResidues>
 VAL166  LYS551  ARG553  GLY616  TRP617  ASP618  TYR619  PRO620  LYS621  CYS622 
 ASP623  PHE694  ASN695  SER759  ASP760  ASP761  ALA762  ILE779  LEU786  VAL792 
 PHE793  MET794  SER795  GLU796  ALA797  LYS798  CYS799  TRP800  GLU811  SER814 

> <Gold.Protein.RotatedAtoms>
  152.2337  134.8297  160.0469 H   0  0  0  0  0  0  0  0  0  0  0  0  # atno 6907 bound_to 6896
  151.9037  133.3539  159.3847 H   0  0  0  0  0  0  0  0  0  0  0  0  # atno 6908 bound_to 6896
  150.7033  134.4728  159.5478 H   0  0  0  0  0  0  0  0  0  0  0  0  # atno 6909 bound_to 6896
  145.9489  139.3954  143.0318 H   0  0  0  0  0  0  0  0  0  0  0  0  # atno 7974 bound_to 7965
  156.2989  140.2530  156.3195 H   0  0  0  0  0  0  0  0  0  0  0  0  # atno 8008 bound_to 7997
  154.9249  140.0400  157.2036 H   0  0  0  0  0  0  0  0  0  0  0  0  # atno 8009 bound_to 7997
  154.8275  140.2870  155.5749 H   0  0  0  0  0  0  0  0  0  0  0  0  # atno 8010 bound_to 7997
  140.2796  143.3290  152.0454 H   0  0  0  0  0  0  0  0  0  0  0  0  # atno 10167 bound_to 10162
  156.0102  130.4535  150.3590 H   0  0  0  0  0  0  0  0  0  0  0  0  # atno 10718 bound_to 10713
  153.4031  135.7005  153.6412 H   0  0  0  0  0  0  0  0  0  0  0  0  # atno 10763 bound_to 10752
  153.4937  135.3667  155.2505 H   0  0  0  0  0  0  0  0  0  0  0  0  # atno 10764 bound_to 10752
  154.8712  135.4095  154.3369 H   0  0  0  0  0  0  0  0  0  0  0  0  # atno 10765 bound_to 10752
  141.1523  133.6732  156.6388 H   0  0  0  0  0  0  0  0  0  0  0  0  # atno 11005 bound_to 11000
  145.8199  140.9684  143.0904 LP  0  0  0  0  0  0  0  0  0  0  0  0  # atno 17320 bound_to 7965
  144.6792  140.0027  143.7484 LP  0  0  0  0  0  0  0  0  0  0  0  0  # atno 17321 bound_to 7965
  139.4966  144.6601  151.6485 LP  0  0  0  0  0  0  0  0  0  0  0  0  # atno 17342 bound_to 10162
  140.5823  143.9925  150.6275 LP  0  0  0  0  0  0  0  0  0  0  0  0  # atno 17343 bound_to 10162
  157.1680  131.0361  151.2809 LP  0  0  0  0  0  0  0  0  0  0  0  0  # atno 17370 bound_to 10713
  157.4254  130.7461  149.6947 LP  0  0  0  0  0  0  0  0  0  0  0  0  # atno 17371 bound_to 10713
  140.3409  134.7850  157.4397 LP  0  0  0  0  0  0  0  0  0  0  0  0  # atno 17394 bound_to 11000
  140.0939  134.5564  155.8418 LP  0  0  0  0  0  0  0  0  0  0  0  0  # atno 17395 bound_to 11000

$$$$
