AV-unprocessed.smi:2775|AV-procd|sdf|10697|dock7
  -GOLD-   2272015133D 1   1.00000     0.00000
 Structure written by MMmdl.
 43 46  0  0  0  0  0  0  0  0  2 V2000
  150.4069  141.8376  155.2742 C   0  0  0  0  0  0  0  0  0  0  0  0
  149.1334  141.3201  154.6334 C   0  0  0  0  0  0  0  0  0  0  0  0
  148.1288  142.2005  154.4304 N   0  3  0  0  0  0  0  0  0  0  0  0
  146.9542  141.8573  153.8628 C   0  0  0  0  0  0  0  0  0  0  0  0
  146.7312  140.5271  153.4569 C   0  0  0  0  0  0  0  0  0  0  0  0
  147.7460  139.5575  153.6596 C   0  0  0  0  0  0  0  0  0  0  0  0
  147.6212  138.1946  153.2712 N   0  0  0  0  0  0  0  0  0  0  0  0
  146.5538  137.3758  153.3355 C   0  0  0  0  0  0  0  0  0  0  0  0
  145.4541  137.6869  153.7866 O   0  0  0  0  0  0  0  0  0  0  0  0
  146.7919  136.1384  152.8677 N   0  0  0  0  0  0  0  0  0  0  0  0
  145.8512  135.0200  152.7977 C   0  0  1  0  0  0  0  0  0  0  0  0
  145.5942  134.5595  151.3617 C   0  0  2  0  0  0  0  0  0  0  0  0
  144.4298  134.6436  150.4420 C   0  0  0  0  0  0  0  0  0  0  0  0
  144.4854  133.1916  149.9024 C   0  0  0  0  0  0  0  0  0  0  0  0
  145.4566  132.5015  150.7261 O   0  0  0  0  0  0  0  0  0  0  0  0
  145.4063  133.1773  151.9679 C   0  0  1  0  0  0  0  0  0  0  0  0
  146.5131  133.6070  152.9396 C   0  0  0  0  0  0  0  0  0  0  0  0
  146.6836  132.9313  154.3053 C   0  0  0  0  0  0  0  0  0  0  0  0
  148.1967  133.1361  154.1723 C   0  0  0  0  0  0  0  0  0  0  0  0
  148.0015  133.3227  152.6640 C   0  0  0  0  0  0  0  0  0  0  0  0
  148.9685  139.9692  154.2466 C   0  0  0  0  0  0  0  0  0  0  0  0
  150.2520  138.8324  154.4940 Cl  0  0  0  0  0  0  0  0  0  0  0  0
  150.6101  141.3018  156.2018 H   0  0  0  0  0  0  0  0  0  0  0  0
  150.3335  142.9006  155.5067 H   0  0  0  0  0  0  0  0  0  0  0  0
  151.2536  141.6963  154.6023 H   0  0  0  0  0  0  0  0  0  0  0  0
  146.2335  142.6534  153.7460 H   0  0  0  0  0  0  0  0  0  0  0  0
  145.7903  140.2851  152.9882 H   0  0  0  0  0  0  0  0  0  0  0  0
  148.4735  137.7673  152.9385 H   0  0  0  0  0  0  0  0  0  0  0  0
  147.7251  135.9517  152.5294 H   0  0  0  0  0  0  0  0  0  0  0  0
  144.9327  135.1507  153.3767 H   0  0  0  0  0  0  0  0  0  0  0  0
  146.5219  134.6291  150.7814 H   0  0  0  0  0  0  0  0  0  0  0  0
  143.5010  134.8456  150.9771 H   0  0  0  0  0  0  0  0  0  0  0  0
  144.5615  135.3890  149.6573 H   0  0  0  0  0  0  0  0  0  0  0  0
  143.5095  132.7112  149.9817 H   0  0  0  0  0  0  0  0  0  0  0  0
  144.7980  133.1546  148.8585 H   0  0  0  0  0  0  0  0  0  0  0  0
  144.4414  133.0378  152.4671 H   0  0  0  0  0  0  0  0  0  0  0  0
  146.2245  133.4598  155.1407 H   0  0  0  0  0  0  0  0  0  0  0  0
  146.3997  131.8781  154.2904 H   0  0  0  0  0  0  0  0  0  0  0  0
  148.5464  134.0426  154.6679 H   0  0  0  0  0  0  0  0  0  0  0  0
  148.7977  132.2691  154.4482 H   0  0  0  0  0  0  0  0  0  0  0  0
  148.1527  132.3984  152.1046 H   0  0  0  0  0  0  0  0  0  0  0  0
  148.5676  134.1481  152.2319 H   0  0  0  0  0  0  0  0  0  0  0  0
  148.2666  143.1707  154.7150 H   0  0  0  0  0  0  0  0  0  0  0  0
  1  2  1  0  0  0  0
  1 23  1  0  0  0  0
  1 24  1  0  0  0  0
  1 25  1  0  0  0  0
  2 21  1  0  0  0  0
  2  3  2  0  0  0  0
  3  4  1  0  0  0  0
  3 43  1  0  0  0  0
  4  5  2  0  0  0  0
  4 26  1  0  0  0  0
  5  6  1  0  0  0  0
  5 27  1  0  0  0  0
  6  7  1  0  0  0  0
  6 21  2  0  0  0  0
  7  8  1  0  0  0  0
  7 28  1  0  0  0  0
  8  9  2  0  0  0  0
  8 10  1  0  0  0  0
 10 11  1  0  0  0  0
 10 29  1  0  0  0  0
 11 17  1  0  0  0  0
 11 12  1  0  0  0  0
 11 30  1  0  0  0  0
 12 16  1  0  0  0  0
 12 13  1  0  0  0  0
 12 31  1  0  0  0  0
 13 14  1  0  0  0  0
 13 32  1  0  0  0  0
 13 33  1  0  0  0  0
 14 15  1  0  0  0  0
 14 34  1  0  0  0  0
 14 35  1  0  0  0  0
 15 16  1  0  0  0  0
 16 17  1  0  0  0  0
 16 36  1  0  0  0  0
 17 20  1  0  0  0  0
 17 18  1  0  0  0  0
 18 19  1  0  0  0  0
 18 37  1  0  0  0  0
 18 38  1  0  0  0  0
 19 20  1  0  0  0  0
 19 39  1  0  0  0  0
 19 40  1  0  0  0  0
 20 41  1  0  0  0  0
 20 42  1  0  0  0  0
 21 22  1  0  0  0  0
M  CHG  1   3   1
M  END
> <s_m_source_file>
AV-unprocessed.smi

> <i_m_source_file_index>
2775

> <i_lp_mmshare_version>
43012

> <i_f3d_flags>
0

> <s_epik_input>
W0NIM11jMW5bY0hdW2NIXWMoYzFDbClbTkhdQyg9TylbTkhdW0NAQEhdMltDQEhdKFtDSDJdW0NIMl1PMylbQ0BASF0zQzI0W0NIMl1bQ0gyXVtDSDJdNA==

> <s_epik_cmdline>
J2VwaWtfcHl0aG9uJywgJy1waCcsICc3LjAnLCAnLXRuJywgJzgnLCAnLW1hJywgJzIwMCcsICctbWV0YWxfYmluZGluZycsICctaW1hZScsICc8aW5maWxlLm1hZT4nLCAnLW9tYWUnLCAnPG91dGZpbGUubWFlPic=

> <r_epik_Ionization_Penalty>
2.4104

> <r_epik_Ionization_Penalty_Charging>
2.41038

> <r_epik_Ionization_Penalty_Neutral>
1.9872e-05

> <r_epik_State_Penalty>
2.56896

> <r_epik_Charging_Adjusted_Penalty>
4.97934

> <i_epik_Tot_Q>
1

> <i_epik_Tot_abs_Q>
1

> <r_epik_Metal_State_Penalty>
2.57906

> <b_epik_Metal_Only>
0

> <s_lp_Force_Field>
OPLS_2005

> <r_lp_Energy>
84.4101

> <b_lp_Chiralities_Consistent>
1

> <s_lp_Variant>
AV-unprocessed.smi:2775-10

> <Gold.Version>
5.8.1

> <Gold.Id.Protein>
6NUR|6NUR_protein|mol2

> <Gold.PLP.Fitness>
46.0263

> <Gold.PLP.PLP>
-35.4980

> <Gold.PLP.part.hbond>
-2.7563

> <Gold.PLP.part.metal>
0.0000

> <Gold.PLP.part.buried>
-4.4137

> <Gold.PLP.part.nonpolar>
-28.9502

> <Gold.PLP.part.repulsive>
0.4681

> <Gold.PLP.ligand.clash>
0.0000

> <Gold.PLP.ligand.torsion>
0.4750

> <Gold.PLP.Chemscore.Hbond>
3.7200

> <Gold.PLP.Chemscore.CHOScore>
0.0000

> <Gold.PLP.Chemscore.Metal>
0.0000

> <Gold.Chemscore.Hbonds>
donor molecule, donor type, donor heavy atom, donor atom, acceptor molecule, acceptor atom, score
      L1  H     3    43       P1  8028  2.00
      L1  H     7    28       P1  7948  0.75
      L1  H    10    29       P1  7948  0.71

> <Gold.PLP.Chemscore.Internal.Correction>
0.3183

> <Gold.Rescore>
     Score         DG    S(hbond)    S(metal)    S(lipo)     H(rot)  DE(clash)    DE(int)     intcor
     21.73     -22.44       2.81        0.00      86.62       1.00       0.26       0.45       ----

> <Gold.Chemscore.Fitness>
21.7287

> <Gold.Chemscore.DG>
-22.4442

> <Gold.Chemscore.ZeroCoef>
-5.4800

> <Gold.Chemscore.Hbond>
2.8113

> <Gold.Chemscore.Metal>
0.0000

> <Gold.Chemscore.Lipo>
86.6188

> <Gold.Chemscore.Internal_Hbond>
0.0000

> <Gold.Chemscore.DEClash>
0.2609

> <Gold.Chemscore.DEInternal>
0.4546

> <Gold.Chemscore.Rot>
1.0000

> <Gold.Chemscore.Internal.Correction>
   9.000000E+99

> <Gold.Chemscore.Hbonds>
donor molecule, donor type, donor heavy atom, donor atom, acceptor molecule, acceptor atom, score
      L1  H     3    43       P1  8028  0.99
      L1  H     7    28       P1  7948  0.76
      L1  H    10    29       P1  7948  0.70

> <Gold.Chemscore.Hbond.Weighted>
-9.3898

> <Gold.Chemscore.Metal.Weighted>
-0.0000

> <Gold.Chemscore.Lipo.Weighted>
-10.1344

> <Gold.Chemscore.Internal_Hbond.Weighted>
0.0000

> <Gold.Chemscore.DEClash.Weighted>
0.2609

> <Gold.Chemscore.DEInternal.Weighted>
0.4546

> <Gold.Chemscore.Rot.Weighted>
2.5600

> <Gold.Chemscore.Internal.Correction.Weighted>
   9.000000E+99

> <Gold.Protein.RotatedTorsions>
[ 6907 6896 6895 6894 ] final  -99.40 input  -60.11 | X-H torsion
[ 7974 7965 7964 7962 ] final   -8.86 input  175.53 | X-H torsion
[ 8008 7997 7996 7995 ] final -144.51 input   59.86 | X-H torsion
[ 10167 10162 10161 10158 ] final  -75.80 input  -65.29 | X-H torsion
[ 10718 10713 10712 10709 ] final  161.32 input   66.30 | X-H torsion
[ 10763 10752 10751 10750 ] final   29.79 input  -60.55 | X-H torsion
[ 11005 11000 10999 10996 ] final  -11.69 input  -57.11 | X-H torsion

> <Gold.Protein.ActiveResidues>
 VAL166  LYS551  ARG553  GLY616  TRP617  ASP618  TYR619  PRO620  LYS621  CYS622 
 ASP623  PHE694  ASN695  SER759  ASP760  ASP761  ALA762  ILE779  LEU786  VAL792 
 PHE793  MET794  SER795  GLU796  ALA797  LYS798  CYS799  TRP800  GLU811  SER814 

> <Gold.Protein.RotatedAtoms>
  150.7079  134.1046  159.3977 H   0  0  0  0  0  0  0  0  0  0  0  0  # atno 6907 bound_to 6896
  151.9032  135.0367  160.0517 H   0  0  0  0  0  0  0  0  0  0  0  0  # atno 6908 bound_to 6896
  152.2397  133.5090  159.5299 H   0  0  0  0  0  0  0  0  0  0  0  0  # atno 6909 bound_to 6896
  146.2268  140.2531  142.8348 H   0  0  0  0  0  0  0  0  0  0  0  0  # atno 7974 bound_to 7965
  155.5281  140.0597  157.2894 H   0  0  0  0  0  0  0  0  0  0  0  0  # atno 8008 bound_to 7997
  154.4494  140.1940  156.0512 H   0  0  0  0  0  0  0  0  0  0  0  0  # atno 8009 bound_to 7997
  156.0671  140.3265  155.7535 H   0  0  0  0  0  0  0  0  0  0  0  0  # atno 8010 bound_to 7997
  140.4912  143.2380  151.7904 H   0  0  0  0  0  0  0  0  0  0  0  0  # atno 10167 bound_to 10162
  157.1381  131.0533  151.2340 H   0  0  0  0  0  0  0  0  0  0  0  0  # atno 10718 bound_to 10713
  153.0409  135.6480  154.0945 H   0  0  0  0  0  0  0  0  0  0  0  0  # atno 10763 bound_to 10752
  154.0651  135.2885  155.3319 H   0  0  0  0  0  0  0  0  0  0  0  0  # atno 10764 bound_to 10752
  154.6632  135.5384  153.8108 H   0  0  0  0  0  0  0  0  0  0  0  0  # atno 10765 bound_to 10752
  140.7579  133.8538  155.9100 H   0  0  0  0  0  0  0  0  0  0  0  0  # atno 11005 bound_to 11000
  144.9396  140.8064  143.5639 LP  0  0  0  0  0  0  0  0  0  0  0  0  # atno 17320 bound_to 7965
  145.2482  139.2043  143.4956 LP  0  0  0  0  0  0  0  0  0  0  0  0  # atno 17321 bound_to 7965
  139.4851  144.4647  151.9499 LP  0  0  0  0  0  0  0  0  0  0  0  0  # atno 17342 bound_to 10162
  140.3734  144.2827  150.5917 LP  0  0  0  0  0  0  0  0  0  0  0  0  # atno 17343 bound_to 10162
  157.4332  130.7502  149.7007 LP  0  0  0  0  0  0  0  0  0  0  0  0  # atno 17370 bound_to 10713
  155.9794  130.4040  150.3589 LP  0  0  0  0  0  0  0  0  0  0  0  0  # atno 17371 bound_to 10713
  140.9690  134.1556  157.4592 LP  0  0  0  0  0  0  0  0  0  0  0  0  # atno 17394 bound_to 11000
  139.8776  134.9972  156.5833 LP  0  0  0  0  0  0  0  0  0  0  0  0  # atno 17395 bound_to 11000

$$$$
