AV-unprocessed.smi:1801|AV-procd|sdf|7270|dock2
  -GOLD-   22720 8523D 1   1.00000     0.00000
 Structure written by MMmdl.
 37 38  0  0  0  0  0  0  0  0  3 V2000
  149.1428  132.5635  153.6212 C   0  0  0  0  0  0  0  0  0  0  0  0
  147.8809  133.3397  154.0334 C   0  0  1  0  0  0  0  0  0  0  0  0
  148.2634  134.5492  154.9160 C   0  0  0  0  0  0  0  0  0  0  0  0
  149.3788  135.3181  154.3698 N   0  0  0  0  0  0  0  0  0  0  0  0
  150.4933  135.6688  155.0271 C   0  0  0  0  0  0  0  0  0  0  0  0
  150.6639  135.3001  156.1911 O   0  0  0  0  0  0  0  0  0  0  0  0
  151.3333  136.4368  154.2980 N   0  5  0  0  0  0  0  0  0  0  0  0
  151.6298  137.6817  154.7065 C   0  0  0  0  0  0  0  0  0  0  0  0
  152.7879  138.2837  154.3925 N   0  0  0  0  0  0  0  0  0  0  0  0
  152.8930  139.5684  154.9081 N   0  0  0  0  0  0  0  0  0  0  0  0
  151.8021  139.9068  155.5951 C   0  0  0  0  0  0  0  0  0  0  0  0
  150.5469  138.6880  155.6728 S   0  0  0  0  0  0  0  0  0  0  0  0
  147.0491  133.7577  152.7977 C   0  0  0  0  0  0  0  0  0  0  0  0
  146.0283  132.7461  152.4365 N   0  3  0  0  0  0  0  0  0  0  0  0
  145.2017  133.0832  151.2509 C   0  0  0  0  0  0  0  0  0  0  0  0
  145.1203  131.8170  150.3888 C   0  0  0  0  0  0  0  0  0  0  0  0
  145.5639  130.6934  151.3196 C   0  0  0  0  0  0  0  0  0  0  0  0
  146.5723  131.3888  152.2278 C   0  0  0  0  0  0  0  0  0  0  0  0
  149.8010  133.1749  153.0031 H   0  0  0  0  0  0  0  0  0  0  0  0
  148.8930  131.6658  153.0555 H   0  0  0  0  0  0  0  0  0  0  0  0
  149.7106  132.2472  154.4968 H   0  0  0  0  0  0  0  0  0  0  0  0
  147.2798  132.6690  154.6477 H   0  0  0  0  0  0  0  0  0  0  0  0
  147.4054  135.2100  155.0509 H   0  0  0  0  0  0  0  0  0  0  0  0
  148.5481  134.2083  155.9118 H   0  0  0  0  0  0  0  0  0  0  0  0
  149.2923  135.6296  153.4134 H   0  0  0  0  0  0  0  0  0  0  0  0
  151.7351  140.8803  156.0568 H   0  0  0  0  0  0  0  0  0  0  0  0
  146.5388  134.7079  152.9608 H   0  0  0  0  0  0  0  0  0  0  0  0
  147.7186  133.9137  151.9505 H   0  0  0  0  0  0  0  0  0  0  0  0
  144.2120  133.3864  151.5937 H   0  0  0  0  0  0  0  0  0  0  0  0
  145.6185  133.9113  150.6750 H   0  0  0  0  0  0  0  0  0  0  0  0
  144.1257  131.6528  149.9731 H   0  0  0  0  0  0  0  0  0  0  0  0
  145.8196  131.8971  149.5553 H   0  0  0  0  0  0  0  0  0  0  0  0
  144.7158  130.3380  151.9068 H   0  0  0  0  0  0  0  0  0  0  0  0
  145.9880  129.8418  150.7866 H   0  0  0  0  0  0  0  0  0  0  0  0
  147.5370  131.4514  151.7210 H   0  0  0  0  0  0  0  0  0  0  0  0
  146.7199  130.8649  153.1724 H   0  0  0  0  0  0  0  0  0  0  0  0
  145.3902  132.6738  153.2161 H   0  0  0  0  0  0  0  0  0  0  0  0
  1  2  1  0  0  0  0
  1 19  1  0  0  0  0
  1 20  1  0  0  0  0
  1 21  1  0  0  0  0
  2  3  1  0  0  0  0
  2 13  1  0  0  0  0
  2 22  1  0  0  0  0
  3  4  1  0  0  0  0
  3 23  1  0  0  0  0
  3 24  1  0  0  0  0
  4  5  1  0  0  0  0
  4 25  1  0  0  0  0
  5  6  2  0  0  0  0
  5  7  1  0  0  0  0
  7  8  1  0  0  0  0
  8 12  1  0  0  0  0
  8  9  2  0  0  0  0
  9 10  1  0  0  0  0
 10 11  2  0  0  0  0
 11 12  1  0  0  0  0
 11 26  1  0  0  0  0
 13 14  1  0  0  0  0
 13 27  1  0  0  0  0
 13 28  1  0  0  0  0
 14 18  1  0  0  0  0
 14 15  1  0  0  0  0
 14 37  1  0  0  0  0
 15 16  1  0  0  0  0
 15 29  1  0  0  0  0
 15 30  1  0  0  0  0
 16 17  1  0  0  0  0
 16 31  1  0  0  0  0
 16 32  1  0  0  0  0
 17 18  1  0  0  0  0
 17 33  1  0  0  0  0
 17 34  1  0  0  0  0
 18 35  1  0  0  0  0
 18 36  1  0  0  0  0
M  CHG  1   7  -1
M  CHG  1  14   1
M  END
> <s_m_source_file>
AV-unprocessed.smi

> <i_m_source_file_index>
1801

> <i_lp_mmshare_version>
43012

> <i_f3d_flags>
0

> <s_epik_input>
W0NIMl0xW0NIMl1bQ0gyXVtDSDJdTjFbQ0gyXVtDQEhdKFtDSDNdKVtDSDJdW05IXUMoPU8pW05IXWMybm5bY0hdczI=

> <s_epik_cmdline>
J2VwaWtfcHl0aG9uJywgJy1waCcsICc3LjAnLCAnLXRuJywgJzgnLCAnLW1hJywgJzIwMCcsICctbWV0YWxfYmluZGluZycsICctaW1hZScsICc8aW5maWxlLm1hZT4nLCAnLW9tYWUnLCAnPG91dGZpbGUubWFlPic=

> <r_lp_tautomer_probability>
1

> <r_epik_Ionization_Penalty>
3.29721

> <r_epik_Ionization_Penalty_Charging>
3.25987

> <r_epik_Ionization_Penalty_Neutral>
0.0373399

> <r_epik_State_Penalty>
3.2571

> <r_epik_Charging_Adjusted_Penalty>
6.51697

> <i_epik_Tot_Q>
0

> <i_epik_Tot_abs_Q>
2

> <r_epik_Metal_State_Penalty>
0.477553

> <b_epik_Metal_Only>
1

> <s_lp_Force_Field>
OPLS_2005

> <r_lp_Energy>
22.4804

> <b_lp_Chiralities_Consistent>
1

> <s_lp_Variant>
AV-unprocessed.smi:1801-4

> <Gold.Version>
5.8.1

> <Gold.Id.Protein>
6NUR|6NUR_protein|mol2

> <Gold.PLP.Fitness>
40.3014

> <Gold.PLP.PLP>
-30.6536

> <Gold.PLP.part.hbond>
-4.5369

> <Gold.PLP.part.metal>
0.0000

> <Gold.PLP.part.buried>
-5.1351

> <Gold.PLP.part.nonpolar>
-22.3042

> <Gold.PLP.part.repulsive>
1.4575

> <Gold.PLP.ligand.clash>
0.0000

> <Gold.PLP.ligand.torsion>
1.3431

> <Gold.PLP.Chemscore.Hbond>
4.0000

> <Gold.PLP.Chemscore.CHOScore>
0.0000

> <Gold.PLP.Chemscore.Metal>
0.0000

> <Gold.Chemscore.Hbonds>
donor molecule, donor type, donor heavy atom, donor atom, acceptor molecule, acceptor atom, score
      L1  H     4    25       P1  7948  1.00
      P1  H  7997  8009       L1    10  1.00
      P1  H 10752 10763       L1     7  2.00

> <Gold.PLP.Chemscore.Internal.Correction>
0.3339

> <Gold.Rescore>
     Score         DG    S(hbond)    S(metal)    S(lipo)     H(rot)  DE(clash)    DE(int)     intcor
     14.05     -15.43       2.37        0.00      59.59       1.93       0.10       1.28       ----

> <Gold.Chemscore.Fitness>
14.0509

> <Gold.Chemscore.DG>
-15.4317

> <Gold.Chemscore.ZeroCoef>
-5.4800

> <Gold.Chemscore.Hbond>
2.3686

> <Gold.Chemscore.Metal>
0.0000

> <Gold.Chemscore.Lipo>
59.5944

> <Gold.Chemscore.Internal_Hbond>
0.0000

> <Gold.Chemscore.DEClash>
0.1019

> <Gold.Chemscore.DEInternal>
1.2788

> <Gold.Chemscore.Rot>
1.9266

> <Gold.Chemscore.Internal.Correction>
   9.000000E+99

> <Gold.Chemscore.Hbonds>
donor molecule, donor type, donor heavy atom, donor atom, acceptor molecule, acceptor atom, score
      L1  H     4    25       P1  7948  0.40
      P1  H  7997  8009       L1    10  0.59
      P1  H 10752 10763       L1     7  0.21

> <Gold.Chemscore.Hbond.Weighted>
-7.9112

> <Gold.Chemscore.Metal.Weighted>
-0.0000

> <Gold.Chemscore.Lipo.Weighted>
-6.9725

> <Gold.Chemscore.Internal_Hbond.Weighted>
0.0000

> <Gold.Chemscore.DEClash.Weighted>
0.1019

> <Gold.Chemscore.DEInternal.Weighted>
1.2788

> <Gold.Chemscore.Rot.Weighted>
4.9321

> <Gold.Chemscore.Internal.Correction.Weighted>
   9.000000E+99

> <Gold.Protein.RotatedTorsions>
[ 6907 6896 6895 6894 ] final -142.57 input  -60.11 | X-H torsion
[ 7974 7965 7964 7962 ] final   97.24 input  175.53 | X-H torsion
[ 8008 7997 7996 7995 ] final -140.18 input   59.86 | X-H torsion
[ 10167 10162 10161 10158 ] final -170.49 input  -65.29 | X-H torsion
[ 10718 10713 10712 10709 ] final  -92.44 input   66.30 | X-H torsion
[ 10763 10752 10751 10750 ] final   43.56 input  -60.55 | X-H torsion
[ 11005 11000 10999 10996 ] final  114.96 input  -57.11 | X-H torsion

> <Gold.Protein.ActiveResidues>
 VAL166  LYS551  ARG553  GLY616  TRP617  ASP618  TYR619  PRO620  LYS621  CYS622 
 ASP623  PHE694  ASN695  SER759  ASP760  ASP761  ALA762  ILE779  LEU786  VAL792 
 PHE793  MET794  SER795  GLU796  ALA797  LYS798  CYS799  TRP800  GLU811  SER814 

> <Gold.Protein.RotatedAtoms>
  151.0889  133.5331  159.2615 H   0  0  0  0  0  0  0  0  0  0  0  0  # atno 6907 bound_to 6896
  151.2206  135.0516  159.8958 H   0  0  0  0  0  0  0  0  0  0  0  0  # atno 6908 bound_to 6896
  152.5432  134.0692  159.8240 H   0  0  0  0  0  0  0  0  0  0  0  0  # atno 6909 bound_to 6896
  145.4281  139.2313  143.3159 H   0  0  0  0  0  0  0  0  0  0  0  0  # atno 7974 bound_to 7965
  155.4571  140.0543  157.2995 H   0  0  0  0  0  0  0  0  0  0  0  0  # atno 8008 bound_to 7997
  154.4753  140.2058  155.9849 H   0  0  0  0  0  0  0  0  0  0  0  0  # atno 8009 bound_to 7997
  156.1121  140.3202  155.8092 H   0  0  0  0  0  0  0  0  0  0  0  0  # atno 8010 bound_to 7997
  139.5859  144.1320  152.1574 H   0  0  0  0  0  0  0  0  0  0  0  0  # atno 10167 bound_to 10162
  156.0002  130.4987  150.5626 H   0  0  0  0  0  0  0  0  0  0  0  0  # atno 10718 bound_to 10713
  152.9858  135.6098  154.3131 H   0  0  0  0  0  0  0  0  0  0  0  0  # atno 10763 bound_to 10752
  154.2845  135.2776  155.2684 H   0  0  0  0  0  0  0  0  0  0  0  0  # atno 10764 bound_to 10752
  154.5008  135.5867  153.6586 H   0  0  0  0  0  0  0  0  0  0  0  0  # atno 10765 bound_to 10752
  139.8996  134.9576  156.6973 H   0  0  0  0  0  0  0  0  0  0  0  0  # atno 11005 bound_to 11000
  146.2621  140.5014  142.8849 LP  0  0  0  0  0  0  0  0  0  0  0  0  # atno 17320 bound_to 7965
  144.8201  140.6535  143.6359 LP  0  0  0  0  0  0  0  0  0  0  0  0  # atno 17321 bound_to 7965
  140.0884  144.5642  150.7072 LP  0  0  0  0  0  0  0  0  0  0  0  0  # atno 17342 bound_to 10162
  140.7130  143.2521  151.4521 LP  0  0  0  0  0  0  0  0  0  0  0  0  # atno 17343 bound_to 10162
  157.3533  131.0737  151.1695 LP  0  0  0  0  0  0  0  0  0  0  0  0  # atno 17370 bound_to 10713
  157.2504  130.6611  149.5929 LP  0  0  0  0  0  0  0  0  0  0  0  0  # atno 17371 bound_to 10713
  140.7178  133.9167  155.8127 LP  0  0  0  0  0  0  0  0  0  0  0  0  # atno 17394 bound_to 11000
  141.0251  134.0835  157.4078 LP  0  0  0  0  0  0  0  0  0  0  0  0  # atno 17395 bound_to 11000

$$$$
