AV-unprocessed.smi:2547|AV-procd|sdf|10003|dock4
  -GOLD-   2272014 53D 1   1.00000     0.00000
 Structure written by MMmdl.
 45 46  0  0  0  0  0  0  0  0  3 V2000
  146.0752  136.6241  150.7608 C   0  0  0  0  0  0  0  0  0  0  0  0
  146.5837  137.5966  151.7517 N   0  3  2  0  0  0  0  0  0  0  0  0
  145.7769  137.6080  152.9973 C   0  0  0  0  0  0  0  0  0  0  0  0
  146.4022  138.5351  154.0535 C   0  0  0  0  0  0  0  0  0  0  0  0
  146.5789  139.9609  153.5056 C   0  0  1  0  0  0  0  0  0  0  0  0
  147.2472  140.7964  154.4995 N   0  0  0  0  0  0  0  0  0  0  0  0
  148.3965  140.4877  155.1176 C   0  0  0  0  0  0  0  0  0  0  0  0
  149.0174  139.4449  154.9132 O   0  0  0  0  0  0  0  0  0  0  0  0
  148.7557  141.4458  155.9896 N   0  0  0  0  0  0  0  0  0  0  0  0
  149.9020  141.4809  156.8270 C   0  0  0  0  0  0  0  0  0  0  0  0
  150.6128  140.3323  157.2498 C   0  0  0  0  0  0  0  0  0  0  0  0
  151.7491  140.4858  158.0671 C   0  0  0  0  0  0  0  0  0  0  0  0
  152.1640  141.7782  158.4438 C   0  0  0  0  0  0  0  0  0  0  0  0
  151.4386  142.9068  157.9910 C   0  0  0  0  0  0  0  0  0  0  0  0
  151.7909  144.2339  158.3192 N   0  0  0  0  0  0  0  0  0  0  0  0
  153.1334  144.7204  158.0281 C   0  0  0  0  0  0  0  0  0  0  0  0
  150.7851  145.1347  158.8712 C   0  0  0  0  0  0  0  0  0  0  0  0
  150.3530  142.6983  157.2050 N   0  3  0  0  0  0  0  0  0  0  0  0
  147.3869  139.9136  152.1951 C   0  0  0  0  0  0  0  0  0  0  0  0
  146.7410  138.9567  151.1790 C   0  0  0  0  0  0  0  0  0  0  0  0
  145.0694  136.8892  150.4324 H   0  0  0  0  0  0  0  0  0  0  0  0
  146.0428  135.6212  151.1879 H   0  0  0  0  0  0  0  0  0  0  0  0
  146.7241  136.5909  149.8850 H   0  0  0  0  0  0  0  0  0  0  0  0
  144.7588  137.9292  152.7714 H   0  0  0  0  0  0  0  0  0  0  0  0
  145.7080  136.5956  153.3975 H   0  0  0  0  0  0  0  0  0  0  0  0
  145.7749  138.5518  154.9456 H   0  0  0  0  0  0  0  0  0  0  0  0
  147.3684  138.1324  154.3620 H   0  0  0  0  0  0  0  0  0  0  0  0
  145.5886  140.3724  153.2993 H   0  0  0  0  0  0  0  0  0  0  0  0
  146.8026  141.6730  154.7310 H   0  0  0  0  0  0  0  0  0  0  0  0
  148.1002  142.2032  156.1146 H   0  0  0  0  0  0  0  0  0  0  0  0
  150.3146  139.3380  156.9527 H   0  0  0  0  0  0  0  0  0  0  0  0
  152.3006  139.6186  158.3993 H   0  0  0  0  0  0  0  0  0  0  0  0
  153.0362  141.8809  159.0722 H   0  0  0  0  0  0  0  0  0  0  0  0
  153.3477  144.6390  156.9621 H   0  0  0  0  0  0  0  0  0  0  0  0
  153.8779  144.1451  158.5792 H   0  0  0  0  0  0  0  0  0  0  0  0
  153.2461  145.7669  158.3116 H   0  0  0  0  0  0  0  0  0  0  0  0
  150.3828  144.7364  159.8033 H   0  0  0  0  0  0  0  0  0  0  0  0
  149.9632  145.2691  158.1674 H   0  0  0  0  0  0  0  0  0  0  0  0
  151.2061  146.1175  159.0843 H   0  0  0  0  0  0  0  0  0  0  0  0
  147.4621  140.9112  151.7603 H   0  0  0  0  0  0  0  0  0  0  0  0
  148.4083  139.5887  152.4001 H   0  0  0  0  0  0  0  0  0  0  0  0
  147.3607  138.9071  150.2829 H   0  0  0  0  0  0  0  0  0  0  0  0
  145.7665  139.3388  150.8706 H   0  0  0  0  0  0  0  0  0  0  0  0
  147.5091  137.2842  152.0095 H   0  0  0  0  0  0  0  0  0  0  0  0
  149.8376  143.5175  156.8833 H   0  0  0  0  0  0  0  0  0  0  0  0
  1  2  1  0  0  0  0
  1 21  1  0  0  0  0
  1 22  1  0  0  0  0
  1 23  1  0  0  0  0
  2 20  1  0  0  0  0
  2  3  1  0  0  0  0
  2 44  1  0  0  0  0
  3  4  1  0  0  0  0
  3 24  1  0  0  0  0
  3 25  1  0  0  0  0
  4  5  1  0  0  0  0
  4 26  1  0  0  0  0
  4 27  1  0  0  0  0
  5  6  1  0  0  0  0
  5 19  1  0  0  0  0
  5 28  1  0  0  0  0
  6  7  1  0  0  0  0
  6 29  1  0  0  0  0
  7  8  2  0  0  0  0
  7  9  1  0  0  0  0
  9 10  1  0  0  0  0
  9 30  1  0  0  0  0
 10 18  1  0  0  0  0
 10 11  2  0  0  0  0
 11 12  1  0  0  0  0
 11 31  1  0  0  0  0
 12 13  2  0  0  0  0
 12 32  1  0  0  0  0
 13 14  1  0  0  0  0
 13 33  1  0  0  0  0
 14 15  1  0  0  0  0
 14 18  2  0  0  0  0
 15 16  1  0  0  0  0
 15 17  1  0  0  0  0
 16 34  1  0  0  0  0
 16 35  1  0  0  0  0
 16 36  1  0  0  0  0
 17 37  1  0  0  0  0
 17 38  1  0  0  0  0
 17 39  1  0  0  0  0
 18 45  1  0  0  0  0
 19 20  1  0  0  0  0
 19 40  1  0  0  0  0
 19 41  1  0  0  0  0
 20 42  1  0  0  0  0
 20 43  1  0  0  0  0
M  CHG  1   2   1
M  CHG  1  18   1
M  END
> <s_m_source_file>
AV-unprocessed.smi

> <i_m_source_file_index>
2547

> <i_lp_mmshare_version>
43012

> <i_f3d_flags>
0

> <s_epik_input>
W0NIM11OMVtDSDJdW0NIMl1bQ0hdKFtDSDJdW0NIMl0xKVtOSF1DKD1PKVtOSF1jMltjSF1bY0hdW2NIXWMobjIpTihbQ0gzXSlbQ0gzXQ==

> <s_epik_cmdline>
J2VwaWtfcHl0aG9uJywgJy1waCcsICc3LjAnLCAnLXRuJywgJzgnLCAnLW1hJywgJzIwMCcsICctbWV0YWxfYmluZGluZycsICctaW1hZScsICc8aW5maWxlLm1hZT4nLCAnLW9tYWUnLCAnPG91dGZpbGUubWFlPic=

> <r_lp_tautomer_probability>
0.999994

> <r_epik_Ionization_Penalty>
2.17028

> <r_epik_Ionization_Penalty_Charging>
2.10368

> <r_epik_Ionization_Penalty_Neutral>
0.0666017

> <r_epik_State_Penalty>
2.2357

> <r_epik_Charging_Adjusted_Penalty>
4.33938

> <i_epik_Tot_Q>
2

> <i_epik_Tot_abs_Q>
2

> <r_epik_Metal_State_Penalty>
2.25749

> <b_epik_Metal_Only>
0

> <s_lp_Force_Field>
OPLS_2005

> <r_lp_Energy>
26.2357

> <b_lp_Chiralities_Consistent>
1

> <s_lp_Variant>
AV-unprocessed.smi:2547-3

> <Gold.Version>
5.8.1

> <Gold.Id.Protein>
6NUR|6NUR_protein|mol2

> <Gold.PLP.Fitness>
40.9001

> <Gold.PLP.PLP>
-31.2318

> <Gold.PLP.part.hbond>
-2.0000

> <Gold.PLP.part.metal>
0.0000

> <Gold.PLP.part.buried>
0.2253

> <Gold.PLP.part.nonpolar>
-30.2514

> <Gold.PLP.part.repulsive>
0.1767

> <Gold.PLP.ligand.clash>
0.0000

> <Gold.PLP.ligand.torsion>
1.1683

> <Gold.PLP.Chemscore.Hbond>
4.0000

> <Gold.PLP.Chemscore.CHOScore>
0.0000

> <Gold.PLP.Chemscore.Metal>
0.0000

> <Gold.Chemscore.Hbonds>
donor molecule, donor type, donor heavy atom, donor atom, acceptor molecule, acceptor atom, score
      L1  H     2    44       P1  7948  2.00
      L1  H    18    45       P1  8028  2.00

> <Gold.PLP.Chemscore.Internal.Correction>
0.0049

> <Gold.Rescore>
     Score         DG    S(hbond)    S(metal)    S(lipo)     H(rot)  DE(clash)    DE(int)     intcor
     14.19     -19.06       1.96        0.00      82.12       1.00       1.17       3.70       ----

> <Gold.Chemscore.Fitness>
14.1925

> <Gold.Chemscore.DG>
-19.0582

> <Gold.Chemscore.ZeroCoef>
-5.4800

> <Gold.Chemscore.Hbond>
1.9551

> <Gold.Chemscore.Metal>
0.0000

> <Gold.Chemscore.Lipo>
82.1215

> <Gold.Chemscore.Internal_Hbond>
0.0000

> <Gold.Chemscore.DEClash>
1.1671

> <Gold.Chemscore.DEInternal>
3.6986

> <Gold.Chemscore.Rot>
1.0000

> <Gold.Chemscore.Internal.Correction>
   9.000000E+99

> <Gold.Chemscore.Hbonds>
donor molecule, donor type, donor heavy atom, donor atom, acceptor molecule, acceptor atom, score
      L1  H     2    44       P1  7948  0.97
      L1  H    18    45       P1  8028  0.98

> <Gold.Chemscore.Hbond.Weighted>
-6.5300

> <Gold.Chemscore.Metal.Weighted>
-0.0000

> <Gold.Chemscore.Lipo.Weighted>
-9.6082

> <Gold.Chemscore.Internal_Hbond.Weighted>
0.0000

> <Gold.Chemscore.DEClash.Weighted>
1.1671

> <Gold.Chemscore.DEInternal.Weighted>
3.6986

> <Gold.Chemscore.Rot.Weighted>
2.5600

> <Gold.Chemscore.Internal.Correction.Weighted>
   9.000000E+99

> <Gold.Protein.RotatedTorsions>
[ 6907 6896 6895 6894 ] final -178.26 input  -60.11 | X-H torsion
[ 7974 7965 7964 7962 ] final -143.03 input  175.53 | X-H torsion
[ 8008 7997 7996 7995 ] final   13.44 input   59.86 | X-H torsion
[ 10167 10162 10161 10158 ] final  -70.65 input  -65.29 | X-H torsion
[ 10718 10713 10712 10709 ] final -153.30 input   66.30 | X-H torsion
[ 10763 10752 10751 10750 ] final  -82.56 input  -60.55 | X-H torsion
[ 11005 11000 10999 10996 ] final   58.92 input  -57.11 | X-H torsion

> <Gold.Protein.ActiveResidues>
 VAL166  LYS551  ARG553  GLY616  TRP617  ASP618  TYR619  PRO620  LYS621  CYS622 
 ASP623  PHE694  ASN695  SER759  ASP760  ASP761  ALA762  ILE779  LEU786  VAL792 
 PHE793  MET794  SER795  GLU796  ALA797  LYS798  CYS799  TRP800  GLU811  SER814 

> <Gold.Protein.RotatedAtoms>
  151.6344  133.3330  159.3115 H   0  0  0  0  0  0  0  0  0  0  0  0  # atno 6907 bound_to 6896
  150.8040  134.7156  159.6638 H   0  0  0  0  0  0  0  0  0  0  0  0  # atno 6908 bound_to 6896
  152.4134  134.6089  160.0071 H   0  0  0  0  0  0  0  0  0  0  0  0  # atno 6909 bound_to 6896
  144.8400  140.5885  143.5459 H   0  0  0  0  0  0  0  0  0  0  0  0  # atno 7974 bound_to 7965
  154.8346  140.2905  155.5700 H   0  0  0  0  0  0  0  0  0  0  0  0  # atno 8008 bound_to 7997
  156.3008  140.2525  156.3208 H   0  0  0  0  0  0  0  0  0  0  0  0  # atno 8009 bound_to 7997
  154.9193  140.0386  157.1978 H   0  0  0  0  0  0  0  0  0  0  0  0  # atno 8010 bound_to 7997
  140.5335  143.2319  151.7219 H   0  0  0  0  0  0  0  0  0  0  0  0  # atno 10167 bound_to 10162
  156.4840  130.8316  151.2542 H   0  0  0  0  0  0  0  0  0  0  0  0  # atno 10718 bound_to 10713
  154.5773  135.5587  153.7151 H   0  0  0  0  0  0  0  0  0  0  0  0  # atno 10763 bound_to 10752
  153.0069  135.6311  154.2032 H   0  0  0  0  0  0  0  0  0  0  0  0  # atno 10764 bound_to 10752
  154.1972  135.2879  155.2982 H   0  0  0  0  0  0  0  0  0  0  0  0  # atno 10765 bound_to 10752
  140.0342  134.5968  155.9466 H   0  0  0  0  0  0  0  0  0  0  0  0  # atno 11005 bound_to 11000
  145.4715  139.1503  143.3812 LP  0  0  0  0  0  0  0  0  0  0  0  0  # atno 17320 bound_to 7965
  146.2693  140.4848  142.8821 LP  0  0  0  0  0  0  0  0  0  0  0  0  # atno 17321 bound_to 7965
  139.4962  144.4078  152.0113 LP  0  0  0  0  0  0  0  0  0  0  0  0  # atno 17342 bound_to 10162
  140.3181  144.3459  150.6016 LP  0  0  0  0  0  0  0  0  0  0  0  0  # atno 17343 bound_to 10162
  157.7480  131.0035  150.3042 LP  0  0  0  0  0  0  0  0  0  0  0  0  # atno 17370 bound_to 10713
  156.3493  130.3828  149.7343 LP  0  0  0  0  0  0  0  0  0  0  0  0  # atno 17371 bound_to 10713
  141.1848  133.6553  156.5171 LP  0  0  0  0  0  0  0  0  0  0  0  0  # atno 17394 bound_to 11000
  140.4175  134.7217  157.4871 LP  0  0  0  0  0  0  0  0  0  0  0  0  # atno 17395 bound_to 11000

$$$$
