AV-unprocessed.smi:137|AV-procd|sdf|1178|dock7
  -GOLD-   2262018323D 1   1.00000     0.00000
 Structure written by MMmdl.
 51 54  0  0  0  0  0  0  0  0  1 V2000
  151.5258  137.8944  154.2210 C   0  0  0  0  0  0  0  0  0  0  0  0
  152.1838  138.4518  155.4932 C   0  0  1  0  0  0  0  0  0  0  0  0
  152.0717  139.9948  155.5619 C   0  0  0  0  0  0  0  0  0  0  0  0
  150.9539  140.4914  156.3702 N   0  0  0  0  0  0  0  0  0  0  0  0
  149.7027  140.6153  155.8361 C   0  0  0  0  0  0  0  0  0  0  0  0
  149.4736  140.0670  154.6126 N   0  0  0  0  0  0  0  0  0  0  0  0
  148.2750  140.1488  154.0317 C   0  0  0  0  0  0  0  0  0  0  0  0
  147.1693  140.7350  154.4868 N   0  0  0  0  0  0  0  0  0  0  0  0
  147.3787  141.2972  155.7103 C   0  0  0  0  0  0  0  0  0  0  0  0
  148.5970  141.2818  156.4537 C   0  0  0  0  0  0  0  0  0  0  0  0
  148.3976  141.9390  157.6642 N   0  0  0  0  0  0  0  0  0  0  0  0
  147.1498  142.3156  157.6372 C   0  0  0  0  0  0  0  0  0  0  0  0
  146.4709  141.9989  156.4849 N   0  0  0  0  0  0  0  0  0  0  0  0
  145.0885  142.2584  156.2057 C   0  0  0  0  0  0  0  0  0  0  0  0
  144.6320  142.6863  154.8076 C   0  0  0  0  0  0  0  0  0  0  0  0
  143.5803  143.6348  155.4253 C   0  0  0  0  0  0  0  0  0  0  0  0
  143.5434  145.0358  154.7952 C   0  0  0  0  0  0  0  0  0  0  0  0
  143.1272  144.9841  153.4454 O   0  0  0  0  0  0  0  0  0  0  0  0
  142.1267  143.1130  155.4604 C   0  0  0  0  0  0  0  0  0  0  0  0
  141.4706  143.2046  154.2122 O   0  0  0  0  0  0  0  0  0  0  0  0
  144.4008  143.5232  156.7293 C   0  0  0  0  0  0  0  0  0  0  0  0
  151.2281  140.8019  157.7733 C   0  0  0  0  0  0  0  0  0  0  0  0
  151.1359  139.5860  158.7146 C   0  0  0  0  0  0  0  0  0  0  0  0
  152.4345  138.3192  158.3052 S   0  0  2  0  0  0  0  0  0  0  0  0
  153.7310  139.0562  157.9626 O   0  0  0  0  0  0  0  0  0  0  0  0
  151.6760  137.6802  156.7318 C   0  0  0  0  0  0  0  0  0  0  0  0
  150.4429  138.0156  154.2454 H   0  0  0  0  0  0  0  0  0  0  0  0
  151.7331  136.8298  154.1084 H   0  0  0  0  0  0  0  0  0  0  0  0
  151.8996  138.3960  153.3279 H   0  0  0  0  0  0  0  0  0  0  0  0
  153.2480  138.2336  155.3943 H   0  0  0  0  0  0  0  0  0  0  0  0
  152.9905  140.3836  156.0003 H   0  0  0  0  0  0  0  0  0  0  0  0
  152.0647  140.4277  154.5615 H   0  0  0  0  0  0  0  0  0  0  0  0
  148.1913  139.6794  153.0628 H   0  0  0  0  0  0  0  0  0  0  0  0
  146.6917  142.8435  158.4610 H   0  0  0  0  0  0  0  0  0  0  0  0
  144.5498  141.3671  156.5290 H   0  0  0  0  0  0  0  0  0  0  0  0
  145.4161  143.2146  154.2627 H   0  0  0  0  0  0  0  0  0  0  0  0
  144.2221  141.8758  154.2038 H   0  0  0  0  0  0  0  0  0  0  0  0
  142.8503  145.6849  155.3310 H   0  0  0  0  0  0  0  0  0  0  0  0
  144.5196  145.5187  154.8464 H   0  0  0  0  0  0  0  0  0  0  0  0
  142.9718  144.0815  153.2129 H   0  0  0  0  0  0  0  0  0  0  0  0
  142.0935  142.0677  155.7677 H   0  0  0  0  0  0  0  0  0  0  0  0
  141.5345  143.6705  156.1868 H   0  0  0  0  0  0  0  0  0  0  0  0
  142.0972  143.0190  153.5296 H   0  0  0  0  0  0  0  0  0  0  0  0
  143.8069  143.3706  157.6311 H   0  0  0  0  0  0  0  0  0  0  0  0
  145.0973  144.3533  156.8587 H   0  0  0  0  0  0  0  0  0  0  0  0
  152.2267  141.2329  157.8488 H   0  0  0  0  0  0  0  0  0  0  0  0
  150.5662  141.5962  158.1156 H   0  0  0  0  0  0  0  0  0  0  0  0
  151.3003  139.9156  159.7404 H   0  0  0  0  0  0  0  0  0  0  0  0
  150.1517  139.1200  158.6863 H   0  0  0  0  0  0  0  0  0  0  0  0
  150.5884  137.7058  156.8074 H   0  0  0  0  0  0  0  0  0  0  0  0
  151.9548  136.6308  156.6340 H   0  0  0  0  0  0  0  0  0  0  0  0
  1  2  1  0  0  0  0
  1 27  1  0  0  0  0
  1 28  1  0  0  0  0
  1 29  1  0  0  0  0
  2 26  1  0  0  0  0
  2  3  1  0  0  0  0
  2 30  1  0  0  0  0
  3  4  1  0  0  0  0
  3 31  1  0  0  0  0
  3 32  1  0  0  0  0
  4  5  1  0  0  0  0
  4 22  1  0  0  0  0
  5 10  1  0  0  0  0
  5  6  2  0  0  0  0
  6  7  1  0  0  0  0
  7  8  2  0  0  0  0
  7 33  1  0  0  0  0
  8  9  1  0  0  0  0
  9 13  1  0  0  0  0
  9 10  2  0  0  0  0
 10 11  1  0  0  0  0
 11 12  2  0  0  0  0
 12 13  1  0  0  0  0
 12 34  1  0  0  0  0
 13 14  1  0  0  0  0
 14 21  1  0  0  0  0
 14 15  1  0  0  0  0
 14 35  1  0  0  0  0
 15 16  1  0  0  0  0
 15 36  1  0  0  0  0
 15 37  1  0  0  0  0
 16 17  1  0  0  0  0
 16 19  1  0  0  0  0
 16 21  1  0  0  0  0
 17 18  1  0  0  0  0
 17 38  1  0  0  0  0
 17 39  1  0  0  0  0
 18 40  1  0  0  0  0
 19 20  1  0  0  0  0
 19 41  1  0  0  0  0
 19 42  1  0  0  0  0
 20 43  1  0  0  0  0
 21 44  1  0  0  0  0
 21 45  1  0  0  0  0
 22 23  1  0  0  0  0
 22 46  1  0  0  0  0
 22 47  1  0  0  0  0
 23 24  1  0  0  0  0
 23 48  1  0  0  0  0
 23 49  1  0  0  0  0
 24 25  2  0  0  0  0
 24 26  1  0  0  0  0
 26 50  1  0  0  0  0
 26 51  1  0  0  0  0
M  END
> <s_m_source_file>
AV-unprocessed.smi

> <i_m_source_file_index>
137

> <i_lp_mmshare_version>
43012

> <i_f3d_flags>
0

> <s_epik_input>
Tz1bU0BAXShbQ0gyXTEpW0NIMl1bQ0gyXU4oW0NIMl1bQ0BIXTFbQ0gzXSljKG5bY0hdbjIpYyhjMjMpbltjSF1uM1tDSF0oW0NIMl00KVtDSDJdQzQoW0NIMl1bT0hdKVtDSDJdW09IXQ==

> <s_epik_cmdline>
J2VwaWtfcHl0aG9uJywgJy1waCcsICc3LjAnLCAnLXRuJywgJzgnLCAnLW1hJywgJzIwMCcsICctbWV0YWxfYmluZGluZycsICctaW1hZScsICc8aW5maWxlLm1hZT4nLCAnLW9tYWUnLCAnPG91dGZpbGUubWFlPic=

> <r_lp_tautomer_probability>
1

> <r_epik_Ionization_Penalty>
0.000811024

> <r_epik_Ionization_Penalty_Charging>
0

> <r_epik_Ionization_Penalty_Neutral>
0.000811024

> <r_epik_State_Penalty>
0.000429598

> <r_epik_Charging_Adjusted_Penalty>
0.000429598

> <i_epik_Tot_Q>
0

> <i_epik_Tot_abs_Q>
0

> <r_epik_Metal_State_Penalty>
-0

> <b_epik_Metal_Only>
0

> <s_lp_Force_Field>
OPLS_2005

> <r_lp_Energy>
44.8713

> <b_lp_Chiralities_Consistent>
1

> <s_lp_Variant>
AV-unprocessed.smi:137-4

> <Gold.Version>
5.8.1

> <Gold.Id.Protein>
6NUR|6NUR_protein|mol2

> <Gold.PLP.Fitness>
47.0920

> <Gold.PLP.PLP>
-36.7655

> <Gold.PLP.part.hbond>
-3.8947

> <Gold.PLP.part.metal>
0.0000

> <Gold.PLP.part.buried>
-5.7180

> <Gold.PLP.part.nonpolar>
-28.2860

> <Gold.PLP.part.repulsive>
0.3759

> <Gold.PLP.ligand.clash>
0.0000

> <Gold.PLP.ligand.torsion>
0.8728

> <Gold.PLP.Chemscore.Hbond>
3.0000

> <Gold.PLP.Chemscore.CHOScore>
0.8804

> <Gold.PLP.Chemscore.Metal>
0.0000

> <Gold.Chemscore.Hbonds>
donor molecule, donor type, donor heavy atom, donor atom, acceptor molecule, acceptor atom, score
      L1  H    18    40       P1 10174  1.00
      L1  H    20    43       P1 10174  1.00
      P1  H  7997  8008       L1    25  1.00
      L1  C     7    33       P1  7957  0.95

> <Gold.PLP.Chemscore.Internal.Correction>
0.4312

> <Gold.Rescore>
     Score         DG    S(hbond)    S(metal)    S(lipo)     H(rot)  DE(clash)    DE(int)     intcor
     11.84     -15.21       2.96        0.00      61.62       2.87       1.62       1.75       ----

> <Gold.Chemscore.Fitness>
11.8365

> <Gold.Chemscore.DG>
-15.2133

> <Gold.Chemscore.ZeroCoef>
-5.4800

> <Gold.Chemscore.Hbond>
2.9574

> <Gold.Chemscore.Metal>
0.0000

> <Gold.Chemscore.Lipo>
61.6154

> <Gold.Chemscore.Internal_Hbond>
0.0000

> <Gold.Chemscore.DEClash>
1.6233

> <Gold.Chemscore.DEInternal>
1.7535

> <Gold.Chemscore.Rot>
2.8725

> <Gold.Chemscore.Internal.Correction>
   9.000000E+99

> <Gold.Chemscore.Hbonds>
donor molecule, donor type, donor heavy atom, donor atom, acceptor molecule, acceptor atom, score
      L1  H    18    40       P1 10174  0.99
      L1  H    20    43       P1 10174  0.97
      P1  H  7997  8008       L1    25  0.97

> <Gold.Chemscore.Hbond.Weighted>
-9.8778

> <Gold.Chemscore.Metal.Weighted>
-0.0000

> <Gold.Chemscore.Lipo.Weighted>
-7.2090

> <Gold.Chemscore.Internal_Hbond.Weighted>
0.0000

> <Gold.Chemscore.DEClash.Weighted>
1.6233

> <Gold.Chemscore.DEInternal.Weighted>
1.7535

> <Gold.Chemscore.Rot.Weighted>
7.3535

> <Gold.Chemscore.Internal.Correction.Weighted>
   9.000000E+99

> <Gold.Protein.RotatedTorsions>
[ 6907 6896 6895 6894 ] final  -92.67 input  -60.11 | X-H torsion
[ 7974 7965 7964 7962 ] final -161.58 input  175.53 | X-H torsion
[ 8008 7997 7996 7995 ] final -106.72 input   59.86 | X-H torsion
[ 10167 10162 10161 10158 ] final -135.99 input  -65.29 | X-H torsion
[ 10718 10713 10712 10709 ] final  171.09 input   66.30 | X-H torsion
[ 10763 10752 10751 10750 ] final  -23.55 input  -60.55 | X-H torsion
[ 11005 11000 10999 10996 ] final -123.44 input  -57.11 | X-H torsion

> <Gold.Protein.ActiveResidues>
 VAL166  LYS551  ARG553  GLY616  TRP617  ASP618  TYR619  PRO620  LYS621  CYS622 
 ASP623  PHE694  ASN695  SER759  ASP760  ASP761  ALA762  ILE779  LEU786  VAL792 
 PHE793  MET794  SER795  GLU796  ALA797  LYS798  CYS799  TRP800  GLU811  SER814 

> <Gold.Protein.RotatedAtoms>
  150.6910  134.2087  159.4350 H   0  0  0  0  0  0  0  0  0  0  0  0  # atno 6907 bound_to 6896
  152.0049  134.9905  160.0575 H   0  0  0  0  0  0  0  0  0  0  0  0  # atno 6908 bound_to 6896
  152.1543  133.4506  159.4866 H   0  0  0  0  0  0  0  0  0  0  0  0  # atno 6909 bound_to 6896
  144.7386  140.3376  143.6141 H   0  0  0  0  0  0  0  0  0  0  0  0  # atno 7974 bound_to 7965
  154.9187  140.0408  157.1986 H   0  0  0  0  0  0  0  0  0  0  0  0  # atno 8008 bound_to 7997
  154.8275  140.2894  155.5723 H   0  0  0  0  0  0  0  0  0  0  0  0  # atno 8009 bound_to 7997
  156.2984  140.2507  156.3194 H   0  0  0  0  0  0  0  0  0  0  0  0  # atno 8010 bound_to 7997
  139.8723  143.6942  152.2638 H   0  0  0  0  0  0  0  0  0  0  0  0  # atno 10167 bound_to 10162
  156.9986  131.0169  151.2837 H   0  0  0  0  0  0  0  0  0  0  0  0  # atno 10718 bound_to 10713
  153.6696  135.6972  153.5151 H   0  0  0  0  0  0  0  0  0  0  0  0  # atno 10763 bound_to 10752
  153.2568  135.4257  155.0853 H   0  0  0  0  0  0  0  0  0  0  0  0  # atno 10764 bound_to 10752
  154.8430  135.3545  154.6240 H   0  0  0  0  0  0  0  0  0  0  0  0  # atno 10765 bound_to 10752
  140.9918  134.0527  157.3645 H   0  0  0  0  0  0  0  0  0  0  0  0  # atno 11005 bound_to 11000
  145.7407  139.1763  143.2377 LP  0  0  0  0  0  0  0  0  0  0  0  0  # atno 17320 bound_to 7965
  146.1136  140.7398  142.9491 LP  0  0  0  0  0  0  0  0  0  0  0  0  # atno 17321 bound_to 7965
  139.7272  144.7590  151.0859 LP  0  0  0  0  0  0  0  0  0  0  0  0  # atno 17342 bound_to 10162
  140.7758  143.5133  150.9626 LP  0  0  0  0  0  0  0  0  0  0  0  0  # atno 17343 bound_to 10162
  157.5407  130.8118  149.8025 LP  0  0  0  0  0  0  0  0  0  0  0  0  # atno 17370 bound_to 10713
  156.0180  130.3806  150.2051 LP  0  0  0  0  0  0  0  0  0  0  0  0  # atno 17371 bound_to 10713
  139.8996  135.0159  156.7203 LP  0  0  0  0  0  0  0  0  0  0  0  0  # atno 17394 bound_to 11000
  140.7027  133.9292  155.8034 LP  0  0  0  0  0  0  0  0  0  0  0  0  # atno 17395 bound_to 11000

$$$$
