AV-unprocessed.smi:1007|AV-procd|sdf|4398|dock9
  -GOLD-   22720 2333D 1   1.00000     0.00000
 Structure written by MMmdl.
 56 58  0  0  0  0  0  0  0  0  2 V2000
  148.1185  134.2266  160.3593 C   0  0  0  0  0  0  0  0  0  0  0  0
  149.0725  134.5740  159.3676 O   0  0  0  0  0  0  0  0  0  0  0  0
  148.6784  134.2450  158.0431 C   0  0  0  0  0  0  0  0  0  0  0  0
  149.7054  134.7437  157.0093 C   0  0  0  0  0  0  0  0  0  0  0  0
  149.2388  134.7241  155.6194 N   0  0  0  0  0  0  0  0  0  0  0  0
  148.2217  135.7399  155.3498 C   0  0  0  0  0  0  0  0  0  0  0  0
  148.7841  137.1763  155.3243 C   0  0  0  0  0  0  0  0  0  0  0  0
  149.8791  137.2877  154.3232 N   0  3  0  0  0  0  0  0  0  0  0  0
  150.4428  138.6565  154.2096 C   0  0  0  0  0  0  0  0  0  0  0  0
  149.5113  139.7362  154.8046 C   0  0  2  0  0  0  0  0  0  0  0  0
  148.5285  140.0704  153.8453 O   0  0  0  0  0  0  0  0  0  0  0  0
  150.2437  141.0336  155.1988 C   0  0  0  0  0  0  0  0  0  0  0  0
  151.1571  140.8392  156.3100 N   0  0  0  0  0  0  0  0  0  0  0  0
  152.0339  139.8291  156.4689 C   0  0  0  0  0  0  0  0  0  0  0  0
  152.7911  139.8470  157.5616 N   0  0  0  0  0  0  0  0  0  0  0  0
  152.3496  140.9990  158.1892 C   0  0  0  0  0  0  0  0  0  0  0  0
  152.7548  141.5945  159.4036 C   0  0  0  0  0  0  0  0  0  0  0  0
  152.1611  142.7944  159.8559 C   0  0  0  0  0  0  0  0  0  0  0  0
  152.6291  143.4004  161.1674 C   0  0  0  0  0  0  0  0  0  0  0  0
  151.1448  143.4180  159.0882 C   0  0  0  0  0  0  0  0  0  0  0  0
  150.4928  144.7078  159.5542 C   0  0  0  0  0  0  0  0  0  0  0  0
  150.7270  142.8358  157.8733 C   0  0  0  0  0  0  0  0  0  0  0  0
  151.3258  141.6419  157.4336 C   0  0  0  0  0  0  0  0  0  0  0  0
  150.9263  136.2648  154.5763 C   0  0  0  0  0  0  0  0  0  0  0  0
  150.3019  134.8556  154.6205 C   0  0  0  0  0  0  0  0  0  0  0  0
  148.4712  134.5640  161.3339 H   0  0  0  0  0  0  0  0  0  0  0  0
  147.9678  133.1489  160.4189 H   0  0  0  0  0  0  0  0  0  0  0  0
  147.1572  134.7054  160.1693 H   0  0  0  0  0  0  0  0  0  0  0  0
  148.5026  133.1720  157.9599 H   0  0  0  0  0  0  0  0  0  0  0  0
  147.7210  134.7337  157.8587 H   0  0  0  0  0  0  0  0  0  0  0  0
  149.9585  135.7713  157.2738 H   0  0  0  0  0  0  0  0  0  0  0  0
  150.6303  134.1778  157.1062 H   0  0  0  0  0  0  0  0  0  0  0  0
  147.7549  135.5274  154.3869 H   0  0  0  0  0  0  0  0  0  0  0  0
  147.4221  135.6683  156.0881 H   0  0  0  0  0  0  0  0  0  0  0  0
  147.9761  137.8636  155.0776 H   0  0  0  0  0  0  0  0  0  0  0  0
  149.1482  137.4671  156.3106 H   0  0  0  0  0  0  0  0  0  0  0  0
  151.4198  138.6667  154.6942 H   0  0  0  0  0  0  0  0  0  0  0  0
  150.6237  138.8962  153.1605 H   0  0  0  0  0  0  0  0  0  0  0  0
  149.0001  139.3529  155.6870 H   0  0  0  0  0  0  0  0  0  0  0  0
  148.8833  139.9218  152.9816 H   0  0  0  0  0  0  0  0  0  0  0  0
  150.8046  141.4306  154.3516 H   0  0  0  0  0  0  0  0  0  0  0  0
  149.5241  141.8032  155.4822 H   0  0  0  0  0  0  0  0  0  0  0  0
  152.1254  139.0391  155.7375 H   0  0  0  0  0  0  0  0  0  0  0  0
  153.5293  141.1200  159.9882 H   0  0  0  0  0  0  0  0  0  0  0  0
  151.7885  143.5446  161.8461 H   0  0  0  0  0  0  0  0  0  0  0  0
  153.1031  144.3664  160.9924 H   0  0  0  0  0  0  0  0  0  0  0  0
  153.3533  142.7569  161.6676 H   0  0  0  0  0  0  0  0  0  0  0  0
  149.7840  145.0847  158.8165 H   0  0  0  0  0  0  0  0  0  0  0  0
  151.2441  145.4799  159.7196 H   0  0  0  0  0  0  0  0  0  0  0  0
  149.9516  144.5455  160.4865 H   0  0  0  0  0  0  0  0  0  0  0  0
  149.9534  143.3009  157.2805 H   0  0  0  0  0  0  0  0  0  0  0  0
  151.6690  136.3007  153.7786 H   0  0  0  0  0  0  0  0  0  0  0  0
  151.4528  136.4897  155.5047 H   0  0  0  0  0  0  0  0  0  0  0  0
  151.0772  134.1087  154.7863 H   0  0  0  0  0  0  0  0  0  0  0  0
  149.8888  134.6274  153.6369 H   0  0  0  0  0  0  0  0  0  0  0  0
  149.4798  137.0652  153.4223 H   0  0  0  0  0  0  0  0  0  0  0  0
  1  2  1  0  0  0  0
  1 26  1  0  0  0  0
  1 27  1  0  0  0  0
  1 28  1  0  0  0  0
  2  3  1  0  0  0  0
  3  4  1  0  0  0  0
  3 29  1  0  0  0  0
  3 30  1  0  0  0  0
  4  5  1  0  0  0  0
  4 31  1  0  0  0  0
  4 32  1  0  0  0  0
  5 25  1  0  0  0  0
  5  6  1  0  0  0  0
  6  7  1  0  0  0  0
  6 33  1  0  0  0  0
  6 34  1  0  0  0  0
  7  8  1  0  0  0  0
  7 35  1  0  0  0  0
  7 36  1  0  0  0  0
  8  9  1  0  0  0  0
  8 24  1  0  0  0  0
  8 56  1  0  0  0  0
  9 10  1  0  0  0  0
  9 37  1  0  0  0  0
  9 38  1  0  0  0  0
 10 11  1  0  0  0  0
 10 12  1  0  0  0  0
 10 39  1  0  0  0  0
 11 40  1  0  0  0  0
 12 13  1  0  0  0  0
 12 41  1  0  0  0  0
 12 42  1  0  0  0  0
 13 23  1  0  0  0  0
 13 14  1  0  0  0  0
 14 15  2  0  0  0  0
 14 43  1  0  0  0  0
 15 16  1  0  0  0  0
 16 23  2  0  0  0  0
 16 17  1  0  0  0  0
 17 18  2  0  0  0  0
 17 44  1  0  0  0  0
 18 19  1  0  0  0  0
 18 20  1  0  0  0  0
 19 45  1  0  0  0  0
 19 46  1  0  0  0  0
 19 47  1  0  0  0  0
 20 21  1  0  0  0  0
 20 22  2  0  0  0  0
 21 48  1  0  0  0  0
 21 49  1  0  0  0  0
 21 50  1  0  0  0  0
 22 23  1  0  0  0  0
 22 51  1  0  0  0  0
 24 25  1  0  0  0  0
 24 52  1  0  0  0  0
 24 53  1  0  0  0  0
 25 54  1  0  0  0  0
 25 55  1  0  0  0  0
M  CHG  1   8   1
M  END
> <s_m_source_file>
AV-unprocessed.smi

> <i_m_source_file_index>
1007

> <i_lp_mmshare_version>
43012

> <i_f3d_flags>
0

> <s_epik_input>
W0NIM11PW0NIMl1bQ0gyXU4xW0NIMl1bQ0gyXU4oW0NIMl1bQ0gyXTEpW0NIMl1bQ0BIXShbT0hdKVtDSDJdbihbY0hdbjIpYyhjMjMpW2NIXWMoW0NIM10pYyhbY0hdMylbQ0gzXQ==

> <s_epik_cmdline>
J2VwaWtfcHl0aG9uJywgJy1waCcsICc3LjAnLCAnLXRuJywgJzgnLCAnLW1hJywgJzIwMCcsICctbWV0YWxfYmluZGluZycsICctaW1hZScsICc8aW5maWxlLm1hZT4nLCAnLW9tYWUnLCAnPG91dGZpbGUubWFlPic=

> <r_epik_Ionization_Penalty>
0.102698

> <r_epik_Ionization_Penalty_Charging>
0.00226046

> <r_epik_Ionization_Penalty_Neutral>
0.100438

> <r_epik_State_Penalty>
0.191223

> <r_epik_Charging_Adjusted_Penalty>
0.193484

> <i_epik_Tot_Q>
1

> <i_epik_Tot_abs_Q>
1

> <r_epik_Metal_State_Penalty>
0.102154

> <b_epik_Metal_Only>
0

> <s_lp_Force_Field>
OPLS_2005

> <r_lp_Energy>
34.1063

> <b_lp_Chiralities_Consistent>
1

> <s_lp_Variant>
AV-unprocessed.smi:1007-1

> <Gold.Version>
5.8.1

> <Gold.Id.Protein>
6NUR|6NUR_protein|mol2

> <Gold.PLP.Fitness>
55.6576

> <Gold.PLP.PLP>
-44.2188

> <Gold.PLP.part.hbond>
-4.0000

> <Gold.PLP.part.metal>
0.0000

> <Gold.PLP.part.buried>
-4.3125

> <Gold.PLP.part.nonpolar>
-36.0767

> <Gold.PLP.part.repulsive>
0.0628

> <Gold.PLP.ligand.clash>
1.3940

> <Gold.PLP.ligand.torsion>
1.1188

> <Gold.PLP.Chemscore.Hbond>
4.9913

> <Gold.PLP.Chemscore.CHOScore>
0.0000

> <Gold.PLP.Chemscore.Metal>
0.0000

> <Gold.Chemscore.Hbonds>
donor molecule, donor type, donor heavy atom, donor atom, acceptor molecule, acceptor atom, score
      L1  H     8    56       P1  7948  2.00
      L1  H    11    40       P1  7957  1.00
      P1  H  6896  6907       L1     2  1.00
      P1  H  7997  8008       L1    15  1.00

> <Gold.PLP.Chemscore.Internal.Correction>
0.0967

> <Gold.Rescore>
     Score         DG    S(hbond)    S(metal)    S(lipo)     H(rot)  DE(clash)    DE(int)     intcor
     22.46     -24.61       3.50        0.00     119.53       2.56       0.16       1.99       ----

> <Gold.Chemscore.Fitness>
22.4593

> <Gold.Chemscore.DG>
-24.6115

> <Gold.Chemscore.ZeroCoef>
-5.4800

> <Gold.Chemscore.Hbond>
3.5027

> <Gold.Chemscore.Metal>
0.0000

> <Gold.Chemscore.Lipo>
119.5275

> <Gold.Chemscore.Internal_Hbond>
0.0000

> <Gold.Chemscore.DEClash>
0.1574

> <Gold.Chemscore.DEInternal>
1.9948

> <Gold.Chemscore.Rot>
2.5594

> <Gold.Chemscore.Internal.Correction>
   9.000000E+99

> <Gold.Chemscore.Hbonds>
donor molecule, donor type, donor heavy atom, donor atom, acceptor molecule, acceptor atom, score
      L1  H     8    56       P1  7948  0.88
      L1  H    11    40       P1  7957  0.99
      P1  H  6896  6907       L1     2  0.66
      P1  H  7997  8008       L1    15  0.27

> <Gold.Chemscore.Hbond.Weighted>
-11.6989

> <Gold.Chemscore.Metal.Weighted>
-0.0000

> <Gold.Chemscore.Lipo.Weighted>
-13.9847

> <Gold.Chemscore.Internal_Hbond.Weighted>
0.0000

> <Gold.Chemscore.DEClash.Weighted>
0.1574

> <Gold.Chemscore.DEInternal.Weighted>
1.9948

> <Gold.Chemscore.Rot.Weighted>
6.5522

> <Gold.Chemscore.Internal.Correction.Weighted>
   9.000000E+99

> <Gold.Protein.RotatedTorsions>
[ 6907 6896 6895 6894 ] final  -82.04 input  -60.11 | X-H torsion
[ 7974 7965 7964 7962 ] final   35.34 input  175.53 | X-H torsion
[ 8008 7997 7996 7995 ] final  -74.69 input   59.86 | X-H torsion
[ 10167 10162 10161 10158 ] final -143.73 input  -65.29 | X-H torsion
[ 10718 10713 10712 10709 ] final  -11.74 input   66.30 | X-H torsion
[ 10763 10752 10751 10750 ] final -110.86 input  -60.55 | X-H torsion
[ 11005 11000 10999 10996 ] final  -50.38 input  -57.11 | X-H torsion

> <Gold.Protein.ActiveResidues>
 VAL166  LYS551  ARG553  GLY616  TRP617  ASP618  TYR619  PRO620  LYS621  CYS622 
 ASP623  PHE694  ASN695  SER759  ASP760  ASP761  ALA762  ILE779  LEU786  VAL792 
 PHE793  MET794  SER795  GLU796  ALA797  LYS798  CYS799  TRP800  GLU811  SER814 

> <Gold.Protein.RotatedAtoms>
  150.6903  134.3725  159.4998 H   0  0  0  0  0  0  0  0  0  0  0  0  # atno 6907 bound_to 6896
  152.1539  134.8963  160.0555 H   0  0  0  0  0  0  0  0  0  0  0  0  # atno 6908 bound_to 6896
  152.0051  133.3805  159.4234 H   0  0  0  0  0  0  0  0  0  0  0  0  # atno 6909 bound_to 6896
  146.1290  139.6155  142.9239 H   0  0  0  0  0  0  0  0  0  0  0  0  # atno 7974 bound_to 7965
  154.5352  140.0757  156.8416 H   0  0  0  0  0  0  0  0  0  0  0  0  # atno 8008 bound_to 7997
  155.3292  140.3401  155.4221 H   0  0  0  0  0  0  0  0  0  0  0  0  # atno 8009 bound_to 7997
  156.1821  140.1656  156.8240 H   0  0  0  0  0  0  0  0  0  0  0  0  # atno 8010 bound_to 7997
  139.7966  143.7892  152.2655 H   0  0  0  0  0  0  0  0  0  0  0  0  # atno 10167 bound_to 10162
  156.6547  130.4965  149.6050 H   0  0  0  0  0  0  0  0  0  0  0  0  # atno 10718 bound_to 10713
  154.8270  135.4548  154.0950 H   0  0  0  0  0  0  0  0  0  0  0  0  # atno 10763 bound_to 10752
  153.2256  135.6899  153.7956 H   0  0  0  0  0  0  0  0  0  0  0  0  # atno 10764 bound_to 10752
  153.7357  135.3320  155.3271 H   0  0  0  0  0  0  0  0  0  0  0  0  # atno 10765 bound_to 10752
  141.0813  133.6653  156.3723 H   0  0  0  0  0  0  0  0  0  0  0  0  # atno 11005 bound_to 11000
  145.5302  141.0427  143.2387 LP  0  0  0  0  0  0  0  0  0  0  0  0  # atno 17320 bound_to 7965
  144.7671  139.6820  143.7210 LP  0  0  0  0  0  0  0  0  0  0  0  0  # atno 17321 bound_to 7965
  139.7999  144.7378  150.9839 LP  0  0  0  0  0  0  0  0  0  0  0  0  # atno 17342 bound_to 10162
  140.7820  143.4356  151.0629 LP  0  0  0  0  0  0  0  0  0  0  0  0  # atno 17343 bound_to 10162
  156.2057  130.6647  151.1216 LP  0  0  0  0  0  0  0  0  0  0  0  0  # atno 17370 bound_to 10713
  157.7129  131.0725  150.6434 LP  0  0  0  0  0  0  0  0  0  0  0  0  # atno 17371 bound_to 10713
  140.5462  134.6072  157.5394 LP  0  0  0  0  0  0  0  0  0  0  0  0  # atno 17394 bound_to 11000
  139.9627  134.7425  156.0203 LP  0  0  0  0  0  0  0  0  0  0  0  0  # atno 17395 bound_to 11000

$$$$
