AV-unprocessed.smi:1047|AV-procd|sdf|4588|dock3
  -GOLD-   22720 3 63D 1   1.00000     0.00000
 Structure written by MMmdl.
 57 59  0  0  0  0  0  0  0  0  3 V2000
  144.6786  132.9451  151.1261 C   0  0  0  0  0  0  0  0  0  0  0  0
  145.2746  134.0735  151.9799 C   0  0  0  0  0  0  0  0  0  0  0  0
  146.3215  133.6563  152.9115 N   0  0  0  0  0  0  0  0  0  0  0  0
  147.4405  133.0000  152.2402 C   0  0  0  0  0  0  0  0  0  0  0  0
  148.5466  132.5990  153.2304 C   0  0  0  0  0  0  0  0  0  0  0  0
  148.9777  133.7449  153.9577 O   0  0  0  0  0  0  0  0  0  0  0  0
  147.9224  134.3808  154.6751 C   0  0  1  0  0  0  0  0  0  0  0  0
  148.5110  135.5916  155.4117 C   0  0  0  0  0  0  0  0  0  0  0  0
  149.3986  136.3731  154.5280 N   0  3  0  0  0  0  0  0  0  0  0  0
  149.6208  137.7610  154.9802 C   0  0  0  0  0  0  0  0  0  0  0  0
  150.9823  138.3055  154.5050 C   0  0  2  0  0  0  0  0  0  0  0  0
  151.7731  137.2319  154.0361 O   0  0  0  0  0  0  0  0  0  0  0  0
  151.7899  139.0172  155.6099 C   0  0  0  0  0  0  0  0  0  0  0  0
  151.2791  140.3587  155.9279 N   0  0  0  0  0  0  0  0  0  0  0  0
  150.3635  141.1152  155.2631 C   0  0  0  0  0  0  0  0  0  0  0  0
  150.2286  142.2884  155.9409 N   0  3  0  0  0  0  0  0  0  0  0  0
  151.0741  142.2850  157.0520 C   0  0  0  0  0  0  0  0  0  0  0  0
  151.2882  143.2451  158.0339 C   0  0  0  0  0  0  0  0  0  0  0  0
  152.2241  142.9350  159.0462 C   0  0  0  0  0  0  0  0  0  0  0  0
  152.4794  143.9615  160.1371 C   0  0  0  0  0  0  0  0  0  0  0  0
  152.9119  141.6941  159.0486 C   0  0  0  0  0  0  0  0  0  0  0  0
  153.9157  141.3706  160.1422 C   0  0  0  0  0  0  0  0  0  0  0  0
  152.6803  140.7308  158.0405 C   0  0  0  0  0  0  0  0  0  0  0  0
  151.7543  141.0510  157.0498 C   0  0  0  0  0  0  0  0  0  0  0  0
  146.8265  134.7938  153.6723 C   0  0  0  0  0  0  0  0  0  0  0  0
  143.8318  133.3118  150.5458 H   0  0  0  0  0  0  0  0  0  0  0  0
  144.3214  132.1254  151.7500 H   0  0  0  0  0  0  0  0  0  0  0  0
  145.4035  132.5427  150.4187 H   0  0  0  0  0  0  0  0  0  0  0  0
  145.6502  134.8629  151.3270 H   0  0  0  0  0  0  0  0  0  0  0  0
  144.4568  134.5186  152.5479 H   0  0  0  0  0  0  0  0  0  0  0  0
  147.0984  132.1056  151.7203 H   0  0  0  0  0  0  0  0  0  0  0  0
  147.8578  133.6635  151.4810 H   0  0  0  0  0  0  0  0  0  0  0  0
  148.1875  131.8348  153.9214 H   0  0  0  0  0  0  0  0  0  0  0  0
  149.3968  132.1747  152.6967 H   0  0  0  0  0  0  0  0  0  0  0  0
  147.5033  133.6821  155.4018 H   0  0  0  0  0  0  0  0  0  0  0  0
  147.7087  136.2283  155.7875 H   0  0  0  0  0  0  0  0  0  0  0  0
  149.0879  135.2572  156.2751 H   0  0  0  0  0  0  0  0  0  0  0  0
  150.2911  135.9037  154.4711 H   0  0  0  0  0  0  0  0  0  0  0  0
  148.8126  138.3692  154.5738 H   0  0  0  0  0  0  0  0  0  0  0  0
  149.5449  137.8146  156.0673 H   0  0  0  0  0  0  0  0  0  0  0  0
  150.8295  139.0018  153.6791 H   0  0  0  0  0  0  0  0  0  0  0  0
  151.5196  137.0244  153.1498 H   0  0  0  0  0  0  0  0  0  0  0  0
  151.8289  138.4181  156.5197 H   0  0  0  0  0  0  0  0  0  0  0  0
  152.8249  139.1430  155.2882 H   0  0  0  0  0  0  0  0  0  0  0  0
  149.8399  140.8369  154.3595 H   0  0  0  0  0  0  0  0  0  0  0  0
  150.7617  144.1884  158.0251 H   0  0  0  0  0  0  0  0  0  0  0  0
  152.2730  143.5365  161.1197 H   0  0  0  0  0  0  0  0  0  0  0  0
  151.8445  144.8400  160.0157 H   0  0  0  0  0  0  0  0  0  0  0  0
  153.5174  144.2942  160.1137 H   0  0  0  0  0  0  0  0  0  0  0  0
  154.3919  140.4041  159.9743 H   0  0  0  0  0  0  0  0  0  0  0  0
  153.4228  141.3356  161.1142 H   0  0  0  0  0  0  0  0  0  0  0  0
  154.7017  142.1254  160.1788 H   0  0  0  0  0  0  0  0  0  0  0  0
  153.2044  139.7867  158.0493 H   0  0  0  0  0  0  0  0  0  0  0  0
  147.2243  135.5462  152.9888 H   0  0  0  0  0  0  0  0  0  0  0  0
  146.0056  135.2678  154.2116 H   0  0  0  0  0  0  0  0  0  0  0  0
  148.9865  136.3967  153.6059 H   0  0  0  0  0  0  0  0  0  0  0  0
  149.6078  143.0373  155.6611 H   0  0  0  0  0  0  0  0  0  0  0  0
  1  2  1  0  0  0  0
  1 26  1  0  0  0  0
  1 27  1  0  0  0  0
  1 28  1  0  0  0  0
  2  3  1  0  0  0  0
  2 29  1  0  0  0  0
  2 30  1  0  0  0  0
  3 25  1  0  0  0  0
  3  4  1  0  0  0  0
  4  5  1  0  0  0  0
  4 31  1  0  0  0  0
  4 32  1  0  0  0  0
  5  6  1  0  0  0  0
  5 33  1  0  0  0  0
  5 34  1  0  0  0  0
  6  7  1  0  0  0  0
  7  8  1  0  0  0  0
  7 25  1  0  0  0  0
  7 35  1  0  0  0  0
  8  9  1  0  0  0  0
  8 36  1  0  0  0  0
  8 37  1  0  0  0  0
  9 10  1  0  0  0  0
  9 38  1  0  0  0  0
  9 56  1  0  0  0  0
 10 11  1  0  0  0  0
 10 39  1  0  0  0  0
 10 40  1  0  0  0  0
 11 12  1  0  0  0  0
 11 13  1  0  0  0  0
 11 41  1  0  0  0  0
 12 42  1  0  0  0  0
 13 14  1  0  0  0  0
 13 43  1  0  0  0  0
 13 44  1  0  0  0  0
 14 24  1  0  0  0  0
 14 15  1  0  0  0  0
 15 16  2  0  0  0  0
 15 45  1  0  0  0  0
 16 17  1  0  0  0  0
 16 57  1  0  0  0  0
 17 24  2  0  0  0  0
 17 18  1  0  0  0  0
 18 19  2  0  0  0  0
 18 46  1  0  0  0  0
 19 20  1  0  0  0  0
 19 21  1  0  0  0  0
 20 47  1  0  0  0  0
 20 48  1  0  0  0  0
 20 49  1  0  0  0  0
 21 22  1  0  0  0  0
 21 23  2  0  0  0  0
 22 50  1  0  0  0  0
 22 51  1  0  0  0  0
 22 52  1  0  0  0  0
 23 24  1  0  0  0  0
 23 53  1  0  0  0  0
 25 54  1  0  0  0  0
 25 55  1  0  0  0  0
M  CHG  1   9   1
M  CHG  1  16   1
M  END
> <s_m_source_file>
AV-unprocessed.smi

> <i_m_source_file_index>
1047

> <i_lp_mmshare_version>
43012

> <i_f3d_flags>
0

> <s_epik_input>
W0NIM11bQ0gyXU4xW0NIMl1bQ0gyXU9bQ0BIXShbQ0gyXTEpW0NIMl1bTkhdW0NIMl1bQ0BIXShbT0hdKVtDSDJdbihbY0hdbjIpYyhjMjMpW2NIXWMoW0NIM10pYyhbY0hdMylbQ0gzXQ==

> <s_epik_cmdline>
J2VwaWtfcHl0aG9uJywgJy1waCcsICc3LjAnLCAnLXRuJywgJzgnLCAnLW1hJywgJzIwMCcsICctbWV0YWxfYmluZGluZycsICctaW1hZScsICc8aW5maWxlLm1hZT4nLCAnLW9tYWUnLCAnPG91dGZpbGUubWFlPic=

> <r_epik_Ionization_Penalty>
1.75732

> <r_epik_Ionization_Penalty_Charging>
1.18089

> <r_epik_Ionization_Penalty_Neutral>
0.576429

> <r_epik_State_Penalty>
1.69377

> <r_epik_Charging_Adjusted_Penalty>
2.87466

> <i_epik_Tot_Q>
2

> <i_epik_Tot_abs_Q>
2

> <r_epik_Metal_State_Penalty>
5.70174

> <b_epik_Metal_Only>
0

> <s_lp_Force_Field>
OPLS_2005

> <r_lp_Energy>
42.0789

> <b_lp_Chiralities_Consistent>
1

> <s_lp_Variant>
AV-unprocessed.smi:1047-29

> <Gold.Version>
5.8.1

> <Gold.Id.Protein>
6NUR|6NUR_protein|mol2

> <Gold.PLP.Fitness>
64.1646

> <Gold.PLP.PLP>
-48.8442

> <Gold.PLP.part.hbond>
-4.0000

> <Gold.PLP.part.metal>
0.0000

> <Gold.PLP.part.buried>
-5.2153

> <Gold.PLP.part.nonpolar>
-39.7592

> <Gold.PLP.part.repulsive>
0.4069

> <Gold.PLP.ligand.clash>
0.0000

> <Gold.PLP.ligand.torsion>
1.2542

> <Gold.PLP.Chemscore.Hbond>
5.9000

> <Gold.PLP.Chemscore.CHOScore>
0.0000

> <Gold.PLP.Chemscore.Metal>
0.0000

> <Gold.Chemscore.Hbonds>
donor molecule, donor type, donor heavy atom, donor atom, acceptor molecule, acceptor atom, score
      L1  H     9    56       P1  7948  2.00
      L1  H    12    42       P1  7949  1.00
      L1  H    16    57       P1  8028  2.00
      P1  H 10752 10765       L1    12  0.91

> <Gold.PLP.Chemscore.Internal.Correction>
0.1288

> <Gold.Rescore>
     Score         DG    S(hbond)    S(metal)    S(lipo)     H(rot)  DE(clash)    DE(int)     intcor
     22.72     -24.26       3.27        0.00     126.22       2.69       0.25       1.30       ----

> <Gold.Chemscore.Fitness>
22.7154

> <Gold.Chemscore.DG>
-24.2648

> <Gold.Chemscore.ZeroCoef>
-5.4800

> <Gold.Chemscore.Hbond>
3.2659

> <Gold.Chemscore.Metal>
0.0000

> <Gold.Chemscore.Lipo>
126.2161

> <Gold.Chemscore.Internal_Hbond>
0.0000

> <Gold.Chemscore.DEClash>
0.2463

> <Gold.Chemscore.DEInternal>
1.3031

> <Gold.Chemscore.Rot>
2.6917

> <Gold.Chemscore.Internal.Correction>
   9.000000E+99

> <Gold.Chemscore.Hbonds>
donor molecule, donor type, donor heavy atom, donor atom, acceptor molecule, acceptor atom, score
      L1  H     9    56       P1  7948  0.98
      L1  H    12    42       P1  7949  0.88
      L1  H    16    57       P1  8028  0.99
      P1  H 10752 10765       L1    12  0.19

> <Gold.Chemscore.Hbond.Weighted>
-10.9082

> <Gold.Chemscore.Metal.Weighted>
-0.0000

> <Gold.Chemscore.Lipo.Weighted>
-14.7673

> <Gold.Chemscore.Internal_Hbond.Weighted>
0.0000

> <Gold.Chemscore.DEClash.Weighted>
0.2463

> <Gold.Chemscore.DEInternal.Weighted>
1.3031

> <Gold.Chemscore.Rot.Weighted>
6.8907

> <Gold.Chemscore.Internal.Correction.Weighted>
   9.000000E+99

> <Gold.Protein.RotatedTorsions>
[ 6907 6896 6895 6894 ] final   72.51 input  -60.11 | X-H torsion
[ 7974 7965 7964 7962 ] final   25.66 input  175.53 | X-H torsion
[ 8008 7997 7996 7995 ] final -112.97 input   59.86 | X-H torsion
[ 10167 10162 10161 10158 ] final   61.94 input  -65.29 | X-H torsion
[ 10718 10713 10712 10709 ] final  115.87 input   66.30 | X-H torsion
[ 10763 10752 10751 10750 ] final  170.55 input  -60.55 | X-H torsion
[ 11005 11000 10999 10996 ] final   92.79 input  -57.11 | X-H torsion

> <Gold.Protein.ActiveResidues>
 VAL166  LYS551  ARG553  GLY616  TRP617  ASP618  TYR619  PRO620  LYS621  CYS622 
 ASP623  PHE694  ASN695  SER759  ASP760  ASP761  ALA762  ILE779  LEU786  VAL792 
 PHE793  MET794  SER795  GLU796  ALA797  LYS798  CYS799  TRP800  GLU811  SER814 

> <Gold.Protein.RotatedAtoms>
  152.4872  134.4560  159.9589 H   0  0  0  0  0  0  0  0  0  0  0  0  # atno 6907 bound_to 6896
  151.4554  133.3600  159.2809 H   0  0  0  0  0  0  0  0  0  0  0  0  # atno 6908 bound_to 6896
  150.8993  134.8428  159.7409 H   0  0  0  0  0  0  0  0  0  0  0  0  # atno 6909 bound_to 6896
  146.1877  139.7435  142.8854 H   0  0  0  0  0  0  0  0  0  0  0  0  # atno 7974 bound_to 7965
  155.0134  140.0393  157.2408 H   0  0  0  0  0  0  0  0  0  0  0  0  # atno 8008 bound_to 7997
  154.7440  140.2754  155.6325 H   0  0  0  0  0  0  0  0  0  0  0  0  # atno 8009 bound_to 7997
  156.2870  140.2660  156.2175 H   0  0  0  0  0  0  0  0  0  0  0  0  # atno 8010 bound_to 7997
  140.1493  144.4478  150.6768 H   0  0  0  0  0  0  0  0  0  0  0  0  # atno 10167 bound_to 10162
  157.6195  131.1018  150.7392 H   0  0  0  0  0  0  0  0  0  0  0  0  # atno 10718 bound_to 10713
  154.3992  135.2755  155.2107 H   0  0  0  0  0  0  0  0  0  0  0  0  # atno 10763 bound_to 10752
  154.4140  135.6015  153.5973 H   0  0  0  0  0  0  0  0  0  0  0  0  # atno 10764 bound_to 10752
  152.9831  135.5956  154.4257 H   0  0  0  0  0  0  0  0  0  0  0  0  # atno 10765 bound_to 10752
  139.8818  134.8753  156.3623 H   0  0  0  0  0  0  0  0  0  0  0  0  # atno 11005 bound_to 11000
  145.3888  141.0369  143.3135 LP  0  0  0  0  0  0  0  0  0  0  0  0  # atno 17320 bound_to 7965
  144.8428  139.5445  143.6892 LP  0  0  0  0  0  0  0  0  0  0  0  0  # atno 17321 bound_to 7965
  140.6712  143.2286  151.5620 LP  0  0  0  0  0  0  0  0  0  0  0  0  # atno 17342 bound_to 10162
  139.5433  144.2588  152.1394 LP  0  0  0  0  0  0  0  0  0  0  0  0  # atno 17343 bound_to 10162
  156.7752  130.4841  149.5411 LP  0  0  0  0  0  0  0  0  0  0  0  0  # atno 17370 bound_to 10713
  156.1334  130.6194  151.0365 LP  0  0  0  0  0  0  0  0  0  0  0  0  # atno 17371 bound_to 10713
  140.9521  133.7444  156.0286 LP  0  0  0  0  0  0  0  0  0  0  0  0  # atno 17394 bound_to 11000
  140.8093  134.3418  157.5416 LP  0  0  0  0  0  0  0  0  0  0  0  0  # atno 17395 bound_to 11000

$$$$
