AV-unprocessed.smi:1378|AV-procd|sdf|5597|dock1
  -GOLD-   22720 5203D 1   1.00000     0.00000
 Structure written by MMmdl.
 47 49  0  0  0  0  0  0  0  0  2 V2000
  153.8005  138.5848  154.3997 C   0  0  0  0  0  0  0  0  0  0  0  0
  153.1750  139.3064  155.4470 O   0  0  0  0  0  0  0  0  0  0  0  0
  151.9412  138.7310  155.8369 C   0  0  0  0  0  0  0  0  0  0  0  0
  151.4798  139.3840  157.1484 C   0  0  0  0  0  0  0  0  0  0  0  0
  151.0940  140.7918  156.9749 N   0  0  0  0  0  0  0  0  0  0  0  0
  150.2152  141.3815  156.1143 C   0  0  0  0  0  0  0  0  0  0  0  0
  149.2560  140.5970  154.8586 S   0  0  0  0  0  0  0  0  0  0  0  0
  148.2483  141.9115  154.1140 C   0  0  0  0  0  0  0  0  0  0  0  0
  146.8392  141.9819  154.7016 C   0  0  0  0  0  0  0  0  0  0  0  0
  146.4789  141.1662  155.5487 O   0  0  0  0  0  0  0  0  0  0  0  0
  146.0645  142.9807  154.2545 N   0  0  0  0  0  0  0  0  0  0  0  0
  144.7100  143.2837  154.7011 C   0  0  0  0  0  0  0  0  0  0  0  0
  144.2841  144.7011  154.2658 C   0  0  0  0  0  0  0  0  0  0  0  0
  143.9361  145.4620  155.5493 C   0  0  0  0  0  0  0  0  0  0  0  0
  144.7080  144.7438  156.6527 C   0  0  0  0  0  0  0  0  0  0  0  0
  144.6559  143.2753  156.2376 C   0  0  0  0  0  0  0  0  0  0  0  0
  150.2145  142.7174  156.3726 N   0  3  0  0  0  0  0  0  0  0  0  0
  151.1026  142.9917  157.4130 C   0  0  0  0  0  0  0  0  0  0  0  0
  151.4486  144.1938  158.0220 C   0  0  0  0  0  0  0  0  0  0  0  0
  152.3934  144.1248  159.0667 C   0  0  0  0  0  0  0  0  0  0  0  0
  152.9537  142.8954  159.4702 C   0  0  0  0  0  0  0  0  0  0  0  0
  152.5954  141.6829  158.8453 C   0  0  0  0  0  0  0  0  0  0  0  0
  151.6640  141.7597  157.8105 C   0  0  0  0  0  0  0  0  0  0  0  0
  154.7410  139.0669  154.1332 H   0  0  0  0  0  0  0  0  0  0  0  0
  153.1718  138.5577  153.5088 H   0  0  0  0  0  0  0  0  0  0  0  0
  154.0213  137.5605  154.7032 H   0  0  0  0  0  0  0  0  0  0  0  0
  151.2010  138.8778  155.0495 H   0  0  0  0  0  0  0  0  0  0  0  0
  152.0663  137.6578  155.9716 H   0  0  0  0  0  0  0  0  0  0  0  0
  150.6242  138.8456  157.5567 H   0  0  0  0  0  0  0  0  0  0  0  0
  152.2657  139.3368  157.9032 H   0  0  0  0  0  0  0  0  0  0  0  0
  148.7565  142.8667  154.2470 H   0  0  0  0  0  0  0  0  0  0  0  0
  148.1847  141.7385  153.0395 H   0  0  0  0  0  0  0  0  0  0  0  0
  146.4518  143.5931  153.5515 H   0  0  0  0  0  0  0  0  0  0  0  0
  144.0160  142.5354  154.3140 H   0  0  0  0  0  0  0  0  0  0  0  0
  145.0972  145.2124  153.7478 H   0  0  0  0  0  0  0  0  0  0  0  0
  143.4375  144.6751  153.5792 H   0  0  0  0  0  0  0  0  0  0  0  0
  144.1827  146.5223  155.4872 H   0  0  0  0  0  0  0  0  0  0  0  0
  142.8657  145.3819  155.7429 H   0  0  0  0  0  0  0  0  0  0  0  0
  145.7434  145.0873  156.6640 H   0  0  0  0  0  0  0  0  0  0  0  0
  144.2859  144.9170  157.6429 H   0  0  0  0  0  0  0  0  0  0  0  0
  143.7071  142.8458  156.5620 H   0  0  0  0  0  0  0  0  0  0  0  0
  145.4490  142.6853  156.6982 H   0  0  0  0  0  0  0  0  0  0  0  0
  151.0193  145.1368  157.7165 H   0  0  0  0  0  0  0  0  0  0  0  0
  152.6931  145.0328  159.5697 H   0  0  0  0  0  0  0  0  0  0  0  0
  153.6737  142.8816  160.2758 H   0  0  0  0  0  0  0  0  0  0  0  0
  153.0316  140.7466  159.1610 H   0  0  0  0  0  0  0  0  0  0  0  0
  149.6506  143.3895  155.8682 H   0  0  0  0  0  0  0  0  0  0  0  0
  1  2  1  0  0  0  0
  1 24  1  0  0  0  0
  1 25  1  0  0  0  0
  1 26  1  0  0  0  0
  2  3  1  0  0  0  0
  3  4  1  0  0  0  0
  3 27  1  0  0  0  0
  3 28  1  0  0  0  0
  4  5  1  0  0  0  0
  4 29  1  0  0  0  0
  4 30  1  0  0  0  0
  5 23  1  0  0  0  0
  5  6  1  0  0  0  0
  6  7  1  0  0  0  0
  6 17  2  0  0  0  0
  7  8  1  0  0  0  0
  8  9  1  0  0  0  0
  8 31  1  0  0  0  0
  8 32  1  0  0  0  0
  9 10  2  0  0  0  0
  9 11  1  0  0  0  0
 11 12  1  0  0  0  0
 11 33  1  0  0  0  0
 12 16  1  0  0  0  0
 12 13  1  0  0  0  0
 12 34  1  0  0  0  0
 13 14  1  0  0  0  0
 13 35  1  0  0  0  0
 13 36  1  0  0  0  0
 14 15  1  0  0  0  0
 14 37  1  0  0  0  0
 14 38  1  0  0  0  0
 15 16  1  0  0  0  0
 15 39  1  0  0  0  0
 15 40  1  0  0  0  0
 16 41  1  0  0  0  0
 16 42  1  0  0  0  0
 17 18  1  0  0  0  0
 17 47  1  0  0  0  0
 18 23  2  0  0  0  0
 18 19  1  0  0  0  0
 19 20  2  0  0  0  0
 19 43  1  0  0  0  0
 20 21  1  0  0  0  0
 20 44  1  0  0  0  0
 21 22  2  0  0  0  0
 21 45  1  0  0  0  0
 22 23  1  0  0  0  0
 22 46  1  0  0  0  0
M  CHG  1  17   1
M  END
> <s_m_source_file>
AV-unprocessed.smi

> <i_m_source_file_index>
1378

> <i_lp_mmshare_version>
43012

> <i_f3d_flags>
0

> <s_epik_input>
W2NIXTFbY0hdW2NIXVtjSF1jKGMxMiluKFtDSDJdW0NIMl1PW0NIM10pYyhuMilTW0NIMl1DKD1PKVtOSF1bQ0hdM1tDSDJdW0NIMl1bQ0gyXVtDSDJdMw==

> <s_epik_cmdline>
J2VwaWtfcHl0aG9uJywgJy1waCcsICc3LjAnLCAnLXRuJywgJzgnLCAnLW1hJywgJzIwMCcsICctbWV0YWxfYmluZGluZycsICctaW1hZScsICc8aW5maWxlLm1hZT4nLCAnLW9tYWUnLCAnPG91dGZpbGUubWFlPic=

> <r_epik_Ionization_Penalty>
1.66257

> <r_epik_Ionization_Penalty_Charging>
1.66257

> <r_epik_Ionization_Penalty_Neutral>
9.72138e-08

> <r_epik_State_Penalty>
1.76557

> <r_epik_Charging_Adjusted_Penalty>
3.42813

> <i_epik_Tot_Q>
1

> <i_epik_Tot_abs_Q>
1

> <r_epik_Metal_State_Penalty>
1.80074

> <b_epik_Metal_Only>
0

> <s_lp_Force_Field>
OPLS_2005

> <r_lp_Energy>
23.1428

> <b_lp_Chiralities_Consistent>
1

> <s_lp_Variant>
AV-unprocessed.smi:1378-2

> <Gold.Version>
5.8.1

> <Gold.Id.Protein>
6NUR|6NUR_protein|mol2

> <Gold.PLP.Fitness>
55.3327

> <Gold.PLP.PLP>
-47.2088

> <Gold.PLP.part.hbond>
-1.9162

> <Gold.PLP.part.metal>
0.0000

> <Gold.PLP.part.buried>
-5.3585

> <Gold.PLP.part.nonpolar>
-41.0564

> <Gold.PLP.part.repulsive>
0.2617

> <Gold.PLP.ligand.clash>
0.0000

> <Gold.PLP.ligand.torsion>
0.5493

> <Gold.PLP.Chemscore.Hbond>
3.0000

> <Gold.PLP.Chemscore.CHOScore>
0.0000

> <Gold.PLP.Chemscore.Metal>
0.0000

> <Gold.Chemscore.Hbonds>
donor molecule, donor type, donor heavy atom, donor atom, acceptor molecule, acceptor atom, score
      L1  H    17    47       P1  8028  2.00
      P1  H  7997  8009       L1     2  1.00

> <Gold.PLP.Chemscore.Internal.Correction>
0.2226

> <Gold.Rescore>
     Score         DG    S(hbond)    S(metal)    S(lipo)     H(rot)  DE(clash)    DE(int)     intcor
     20.12     -20.55       1.81        0.00     122.17       2.06       0.06       0.37       ----

> <Gold.Chemscore.Fitness>
20.1195

> <Gold.Chemscore.DG>
-20.5464

> <Gold.Chemscore.ZeroCoef>
-5.4800

> <Gold.Chemscore.Hbond>
1.8077

> <Gold.Chemscore.Metal>
0.0000

> <Gold.Chemscore.Lipo>
122.1686

> <Gold.Chemscore.Internal_Hbond>
0.0000

> <Gold.Chemscore.DEClash>
0.0578

> <Gold.Chemscore.DEInternal>
0.3691

> <Gold.Chemscore.Rot>
2.0567

> <Gold.Chemscore.Internal.Correction>
   9.000000E+99

> <Gold.Chemscore.Hbonds>
donor molecule, donor type, donor heavy atom, donor atom, acceptor molecule, acceptor atom, score
      L1  H    17    47       P1  8028  0.94
      P1  H  7997  8009       L1     2  0.25

> <Gold.Chemscore.Hbond.Weighted>
-6.0379

> <Gold.Chemscore.Metal.Weighted>
-0.0000

> <Gold.Chemscore.Lipo.Weighted>
-14.2937

> <Gold.Chemscore.Internal_Hbond.Weighted>
0.0000

> <Gold.Chemscore.DEClash.Weighted>
0.0578

> <Gold.Chemscore.DEInternal.Weighted>
0.3691

> <Gold.Chemscore.Rot.Weighted>
5.2652

> <Gold.Chemscore.Internal.Correction.Weighted>
   9.000000E+99

> <Gold.Protein.RotatedTorsions>
[ 6907 6896 6895 6894 ] final  143.60 input  -60.11 | X-H torsion
[ 7974 7965 7964 7962 ] final  118.33 input  175.53 | X-H torsion
[ 8008 7997 7996 7995 ] final -141.31 input   59.86 | X-H torsion
[ 10167 10162 10161 10158 ] final -133.75 input  -65.29 | X-H torsion
[ 10718 10713 10712 10709 ] final  -35.39 input   66.30 | X-H torsion
[ 10763 10752 10751 10750 ] final   89.02 input  -60.55 | X-H torsion
[ 11005 11000 10999 10996 ] final  -59.91 input  -57.11 | X-H torsion

> <Gold.Protein.ActiveResidues>
 VAL166  LYS551  ARG553  GLY616  TRP617  ASP618  TYR619  PRO620  LYS621  CYS622 
 ASP623  PHE694  ASN695  SER759  ASP760  ASP761  ALA762  ILE779  LEU786  VAL792 
 PHE793  MET794  SER795  GLU796  ALA797  LYS798  CYS799  TRP800  GLU811  SER814 

> <Gold.Protein.RotatedAtoms>
  152.2042  133.4863  159.5074 H   0  0  0  0  0  0  0  0  0  0  0  0  # atno 6907 bound_to 6896
  150.6976  134.1551  159.4164 H   0  0  0  0  0  0  0  0  0  0  0  0  # atno 6908 bound_to 6896
  151.9469  135.0187  160.0590 H   0  0  0  0  0  0  0  0  0  0  0  0  # atno 6909 bound_to 6896
  145.1566  139.3179  143.4539 H   0  0  0  0  0  0  0  0  0  0  0  0  # atno 7974 bound_to 7965
  155.4758  140.0556  157.2974 H   0  0  0  0  0  0  0  0  0  0  0  0  # atno 8008 bound_to 7997
  154.4680  140.2027  156.0021 H   0  0  0  0  0  0  0  0  0  0  0  0  # atno 8009 bound_to 7997
  156.1008  140.3219  155.7943 H   0  0  0  0  0  0  0  0  0  0  0  0  # atno 8010 bound_to 7997
  139.8951  143.6675  152.2605 H   0  0  0  0  0  0  0  0  0  0  0  0  # atno 10167 bound_to 10162
  156.3392  130.4291  149.7802 H   0  0  0  0  0  0  0  0  0  0  0  0  # atno 10718 bound_to 10713
  153.1828  135.4485  155.0050 H   0  0  0  0  0  0  0  0  0  0  0  0  # atno 10763 bound_to 10752
  154.8041  135.3267  154.7478 H   0  0  0  0  0  0  0  0  0  0  0  0  # atno 10764 bound_to 10752
  153.7940  135.6968  153.4921 H   0  0  0  0  0  0  0  0  0  0  0  0  # atno 10765 bound_to 10752
  141.1267  133.6619  156.5144 H   0  0  0  0  0  0  0  0  0  0  0  0  # atno 11005 bound_to 11000
  146.3488  140.1660  142.8590 LP  0  0  0  0  0  0  0  0  0  0  0  0  # atno 17320 bound_to 7965
  145.0375  140.8919  143.5072 LP  0  0  0  0  0  0  0  0  0  0  0  0  # atno 17321 bound_to 7965
  139.7075  144.7625  151.1168 LP  0  0  0  0  0  0  0  0  0  0  0  0  # atno 17342 bound_to 10162
  140.7718  143.5375  150.9351 LP  0  0  0  0  0  0  0  0  0  0  0  0  # atno 17343 bound_to 10162
  156.5045  130.8144  151.3145 LP  0  0  0  0  0  0  0  0  0  0  0  0  # atno 17370 bound_to 10713
  157.7444  130.9934  150.2670 LP  0  0  0  0  0  0  0  0  0  0  0  0  # atno 17371 bound_to 10713
  140.4343  134.7073  157.4958 LP  0  0  0  0  0  0  0  0  0  0  0  0  # atno 17394 bound_to 11000
  140.0272  134.6459  155.9156 LP  0  0  0  0  0  0  0  0  0  0  0  0  # atno 17395 bound_to 11000

$$$$
