AV-unprocessed.smi:2541|AV-procd|sdf|9990|dock10
  -GOLD-   2272014 43D 1   1.00000     0.00000
 Structure written by MMmdl.
 38 39  0  0  0  0  0  0  0  0  1 V2000
  150.0689  140.0676  154.4952 O   0  0  0  0  0  0  0  0  0  0  0  0
  149.4311  141.0689  154.8209 C   0  0  0  0  0  0  0  0  0  0  0  0
  148.2246  141.5117  153.9914 C   0  0  0  0  0  0  0  0  0  0  0  0
  147.0114  141.6575  154.8719 C   0  0  0  0  0  0  0  0  0  0  0  0
  145.7400  142.2052  154.5424 C   0  0  0  0  0  0  0  0  0  0  0  0
  145.0339  142.0955  155.7054 C   0  0  0  0  0  0  0  0  0  0  0  0
  145.7964  141.5260  156.6724 O   0  0  0  0  0  0  0  0  0  0  0  0
  147.0562  141.2474  156.1307 N   0  0  0  0  0  0  0  0  0  0  0  0
  149.7371  141.8254  155.8869 N   0  0  0  0  0  0  0  0  0  0  0  0
  150.8777  141.6156  156.7716 C   0  0  0  0  0  0  0  0  0  0  0  0
  151.1406  142.8464  157.6660 C   0  0  1  0  0  0  0  0  0  0  0  0
  149.9166  143.5273  157.8699 O   0  0  0  0  0  0  0  0  0  0  0  0
  151.7680  142.4819  159.0347 C   0  0  0  0  0  0  0  0  0  0  0  0
  151.9628  143.6938  159.9771 C   0  0  0  0  0  0  0  0  0  0  0  0
  152.5579  143.2719  161.3305 C   0  0  0  0  0  0  0  0  0  0  0  0
  153.8766  142.5060  161.1469 C   0  0  0  0  0  0  0  0  0  0  0  0
  153.6835  141.2906  160.2280 C   0  0  0  0  0  0  0  0  0  0  0  0
  153.0946  141.7072  158.8705 C   0  0  0  0  0  0  0  0  0  0  0  0
  148.4492  142.4594  153.5009 H   0  0  0  0  0  0  0  0  0  0  0  0
  148.0499  140.7854  153.1961 H   0  0  0  0  0  0  0  0  0  0  0  0
  145.4029  142.6174  153.6031 H   0  0  0  0  0  0  0  0  0  0  0  0
  144.0275  142.3635  155.9910 H   0  0  0  0  0  0  0  0  0  0  0  0
  149.1597  142.6321  156.0762 H   0  0  0  0  0  0  0  0  0  0  0  0
  150.6938  140.7266  157.3756 H   0  0  0  0  0  0  0  0  0  0  0  0
  151.7573  141.3951  156.1642 H   0  0  0  0  0  0  0  0  0  0  0  0
  151.8227  143.5253  157.1522 H   0  0  0  0  0  0  0  0  0  0  0  0
  149.5628  143.7660  157.0268 H   0  0  0  0  0  0  0  0  0  0  0  0
  151.0706  141.8020  159.5265 H   0  0  0  0  0  0  0  0  0  0  0  0
  152.6204  144.4292  159.5122 H   0  0  0  0  0  0  0  0  0  0  0  0
  151.0120  144.1972  160.1512 H   0  0  0  0  0  0  0  0  0  0  0  0
  152.7231  144.1514  161.9533 H   0  0  0  0  0  0  0  0  0  0  0  0
  151.8427  142.6456  161.8649 H   0  0  0  0  0  0  0  0  0  0  0  0
  154.6303  143.1706  160.7225 H   0  0  0  0  0  0  0  0  0  0  0  0
  154.2578  142.1835  162.1161 H   0  0  0  0  0  0  0  0  0  0  0  0
  154.6367  140.7825  160.0791 H   0  0  0  0  0  0  0  0  0  0  0  0
  153.0211  140.5697  160.7089 H   0  0  0  0  0  0  0  0  0  0  0  0
  152.9349  140.8193  158.2578 H   0  0  0  0  0  0  0  0  0  0  0  0
  153.8228  142.3207  158.3387 H   0  0  0  0  0  0  0  0  0  0  0  0
  1  2  2  0  0  0  0
  2  3  1  0  0  0  0
  2  9  1  0  0  0  0
  3  4  1  0  0  0  0
  3 19  1  0  0  0  0
  3 20  1  0  0  0  0
  4  8  2  0  0  0  0
  4  5  1  0  0  0  0
  5  6  2  0  0  0  0
  5 21  1  0  0  0  0
  6  7  1  0  0  0  0
  6 22  1  0  0  0  0
  7  8  1  0  0  0  0
  9 10  1  0  0  0  0
  9 23  1  0  0  0  0
 10 11  1  0  0  0  0
 10 24  1  0  0  0  0
 10 25  1  0  0  0  0
 11 12  1  0  0  0  0
 11 13  1  0  0  0  0
 11 26  1  0  0  0  0
 12 27  1  0  0  0  0
 13 18  1  0  0  0  0
 13 14  1  0  0  0  0
 13 28  1  0  0  0  0
 14 15  1  0  0  0  0
 14 29  1  0  0  0  0
 14 30  1  0  0  0  0
 15 16  1  0  0  0  0
 15 31  1  0  0  0  0
 15 32  1  0  0  0  0
 16 17  1  0  0  0  0
 16 33  1  0  0  0  0
 16 34  1  0  0  0  0
 17 18  1  0  0  0  0
 17 35  1  0  0  0  0
 17 36  1  0  0  0  0
 18 37  1  0  0  0  0
 18 38  1  0  0  0  0
M  END
> <s_m_source_file>
AV-unprocessed.smi

> <i_m_source_file_index>
2541

> <i_lp_mmshare_version>
43012

> <i_f3d_flags>
0

> <s_epik_input>
bjFvW2NIXVtjSF1jMVtDSDJdQyg9TylbTkhdW0NIMl1bQ0BIXShbT0hdKVtDSF0yW0NIMl1bQ0gyXVtDSDJdW0NIMl1bQ0gyXTI=

> <s_epik_cmdline>
J2VwaWtfcHl0aG9uJywgJy1waCcsICc3LjAnLCAnLXRuJywgJzgnLCAnLW1hJywgJzIwMCcsICctbWV0YWxfYmluZGluZycsICctaW1hZScsICc8aW5maWxlLm1hZT4nLCAnLW9tYWUnLCAnPG91dGZpbGUubWFlPic=

> <r_lp_tautomer_probability>
1

> <r_epik_Ionization_Penalty>
2.3322e-07

> <r_epik_Ionization_Penalty_Charging>
0

> <r_epik_Ionization_Penalty_Neutral>
2.3322e-07

> <r_epik_State_Penalty>
-0

> <r_epik_Charging_Adjusted_Penalty>
0

> <i_epik_Tot_Q>
0

> <i_epik_Tot_abs_Q>
0

> <r_epik_Metal_State_Penalty>
-0

> <b_epik_Metal_Only>
0

> <s_lp_Force_Field>
OPLS_2005

> <r_lp_Energy>
13.2063

> <b_lp_Chiralities_Consistent>
1

> <s_lp_Variant>
AV-unprocessed.smi:2541-2

> <Gold.Version>
5.8.1

> <Gold.Id.Protein>
6NUR|6NUR_protein|mol2

> <Gold.PLP.Fitness>
48.4205

> <Gold.PLP.PLP>
-40.5701

> <Gold.PLP.part.hbond>
-3.8434

> <Gold.PLP.part.metal>
0.0000

> <Gold.PLP.part.buried>
-2.4844

> <Gold.PLP.part.nonpolar>
-34.4687

> <Gold.PLP.part.repulsive>
0.4100

> <Gold.PLP.ligand.clash>
0.0000

> <Gold.PLP.ligand.torsion>
0.5948

> <Gold.PLP.Chemscore.Hbond>
3.0000

> <Gold.PLP.Chemscore.CHOScore>
0.0000

> <Gold.PLP.Chemscore.Metal>
0.0000

> <Gold.Chemscore.Hbonds>
donor molecule, donor type, donor heavy atom, donor atom, acceptor molecule, acceptor atom, score
      L1  H     9    23       P1  8028  0.64
      L1  H    12    27       P1  8028  1.00
      P1  H  7989  7998       L1     1  1.00

> <Gold.PLP.Chemscore.Internal.Correction>
0.0400

> <Gold.Rescore>
     Score         DG    S(hbond)    S(metal)    S(lipo)     H(rot)  DE(clash)    DE(int)     intcor
     17.50     -18.59       2.21        0.00     101.75       2.42       0.06       1.03       ----

> <Gold.Chemscore.Fitness>
17.4971

> <Gold.Chemscore.DG>
-18.5906

> <Gold.Chemscore.ZeroCoef>
-5.4800

> <Gold.Chemscore.Hbond>
2.2136

> <Gold.Chemscore.Metal>
0.0000

> <Gold.Chemscore.Lipo>
101.7550

> <Gold.Chemscore.Internal_Hbond>
0.0000

> <Gold.Chemscore.DEClash>
0.0633

> <Gold.Chemscore.DEInternal>
1.0303

> <Gold.Chemscore.Rot>
2.4172

> <Gold.Chemscore.Internal.Correction>
   9.000000E+99

> <Gold.Chemscore.Hbonds>
donor molecule, donor type, donor heavy atom, donor atom, acceptor molecule, acceptor atom, score
      L1  H     9    23       P1  8028  0.62
      L1  H    12    27       P1  8028  0.85
      P1  H  7989  7998       L1     1  0.32

> <Gold.Chemscore.Hbond.Weighted>
-7.3933

> <Gold.Chemscore.Metal.Weighted>
-0.0000

> <Gold.Chemscore.Lipo.Weighted>
-11.9053

> <Gold.Chemscore.Internal_Hbond.Weighted>
0.0000

> <Gold.Chemscore.DEClash.Weighted>
0.0633

> <Gold.Chemscore.DEInternal.Weighted>
1.0303

> <Gold.Chemscore.Rot.Weighted>
6.1880

> <Gold.Chemscore.Internal.Correction.Weighted>
   9.000000E+99

> <Gold.Protein.RotatedTorsions>
[ 6907 6896 6895 6894 ] final -137.42 input  -60.11 | X-H torsion
[ 7974 7965 7964 7962 ] final   63.34 input  175.53 | X-H torsion
[ 8008 7997 7996 7995 ] final -116.49 input   59.86 | X-H torsion
[ 10167 10162 10161 10158 ] final -121.46 input  -65.29 | X-H torsion
[ 10718 10713 10712 10709 ] final -108.50 input   66.30 | X-H torsion
[ 10763 10752 10751 10750 ] final  158.60 input  -60.55 | X-H torsion
[ 11005 11000 10999 10996 ] final  -68.98 input  -57.11 | X-H torsion

> <Gold.Protein.ActiveResidues>
 VAL166  LYS551  ARG553  GLY616  TRP617  ASP618  TYR619  PRO620  LYS621  CYS622 
 ASP623  PHE694  ASN695  SER759  ASP760  ASP761  ALA762  ILE779  LEU786  VAL792 
 PHE793  MET794  SER795  GLU796  ALA797  LYS798  CYS799  TRP800  GLU811  SER814 

> <Gold.Protein.RotatedAtoms>
  151.0222  133.5866  159.2669 H   0  0  0  0  0  0  0  0  0  0  0  0  # atno 6907 bound_to 6896
  151.2979  135.0759  159.9237 H   0  0  0  0  0  0  0  0  0  0  0  0  # atno 6908 bound_to 6896
  152.5326  133.9909  159.7904 H   0  0  0  0  0  0  0  0  0  0  0  0  # atno 6909 bound_to 6896
  145.8629  139.3327  143.0808 H   0  0  0  0  0  0  0  0  0  0  0  0  # atno 7974 bound_to 7965
  155.0687  140.0393  157.2601 H   0  0  0  0  0  0  0  0  0  0  0  0  # atno 8008 bound_to 7997
  154.7001  140.2671  155.6704 H   0  0  0  0  0  0  0  0  0  0  0  0  # atno 8009 bound_to 7997
  156.2757  140.2742  156.1608 H   0  0  0  0  0  0  0  0  0  0  0  0  # atno 8010 bound_to 7997
  140.0248  143.5308  152.2204 H   0  0  0  0  0  0  0  0  0  0  0  0  # atno 10167 bound_to 10162
  156.0489  130.5716  150.7969 H   0  0  0  0  0  0  0  0  0  0  0  0  # atno 10718 bound_to 10713
  154.2186  135.2783  155.2933 H   0  0  0  0  0  0  0  0  0  0  0  0  # atno 10763 bound_to 10752
  154.5720  135.5615  153.7107 H   0  0  0  0  0  0  0  0  0  0  0  0  # atno 10764 bound_to 10752
  153.0047  135.6323  154.2326 H   0  0  0  0  0  0  0  0  0  0  0  0  # atno 10765 bound_to 10752
  141.1544  133.6753  156.6529 H   0  0  0  0  0  0  0  0  0  0  0  0  # atno 11005 bound_to 11000
  145.9227  140.9104  143.0397 LP  0  0  0  0  0  0  0  0  0  0  0  0  # atno 17320 bound_to 7965
  144.6726  140.1311  143.7443 LP  0  0  0  0  0  0  0  0  0  0  0  0  # atno 17321 bound_to 7965
  139.6115  144.7610  151.2940 LP  0  0  0  0  0  0  0  0  0  0  0  0  # atno 17342 bound_to 10162
  140.7327  143.6815  150.7997 LP  0  0  0  0  0  0  0  0  0  0  0  0  # atno 17343 bound_to 10162
  157.5394  131.0940  150.9848 LP  0  0  0  0  0  0  0  0  0  0  0  0  # atno 17370 bound_to 10713
  157.0135  130.5646  149.5323 LP  0  0  0  0  0  0  0  0  0  0  0  0  # atno 17371 bound_to 10713
  140.3307  134.7931  157.4324 LP  0  0  0  0  0  0  0  0  0  0  0  0  # atno 17394 bound_to 11000
  140.1019  134.5461  155.8345 LP  0  0  0  0  0  0  0  0  0  0  0  0  # atno 17395 bound_to 11000

$$$$
