AV-unprocessed.smi:386|AV-procd|sdf|2473|dock5
  -GOLD-   2262022413D 1   1.00000     0.00000
 Structure written by MMmdl.
 27 28  0  0  0  0  0  0  0  0  1 V2000
  151.8208  137.0392  159.5753 N   0  0  0  0  0  0  0  0  0  0  0  0
  151.8285  138.1431  159.2275 C   0  0  0  0  0  0  0  0  0  0  0  0
  151.8308  139.4933  158.7707 C   0  0  0  0  0  0  0  0  0  0  0  0
  152.6354  140.4276  159.3175 C   0  0  0  0  0  0  0  0  0  0  0  0
  152.6561  141.7349  158.8827 N   0  0  0  0  0  0  0  0  0  0  0  0
  153.4001  142.7446  159.5820 C   0  0  0  0  0  0  0  0  0  0  0  0
  153.2128  142.9396  161.0741 C   0  0  0  0  0  0  0  0  0  0  0  0
  152.6711  143.9626  160.1057 C   0  0  0  0  0  0  0  0  0  0  0  0
  151.7582  142.1635  157.8807 C   0  0  0  0  0  0  0  0  0  0  0  0
  151.6921  143.3495  157.5477 O   0  0  0  0  0  0  0  0  0  0  0  0
  150.9244  141.1907  157.2777 N   0  0  0  0  0  0  0  0  0  0  0  0
  149.9900  141.6192  156.2133 C   0  0  0  0  0  0  0  0  0  0  0  0
  150.1872  140.8723  154.8845 C   0  0  0  0  0  0  0  0  0  0  0  0
  149.2763  141.0984  153.9354 N   0  0  0  0  0  0  0  0  0  0  0  0
  151.1345  140.1070  154.7098 O   0  0  0  0  0  0  0  0  0  0  0  0
  150.9161  139.8312  157.6826 C   0  0  0  0  0  0  0  0  0  0  0  0
  150.1684  139.0127  157.1444 O   0  0  0  0  0  0  0  0  0  0  0  0
  153.2940  140.1417  160.1251 H   0  0  0  0  0  0  0  0  0  0  0  0
  154.4065  142.9210  159.2062 H   0  0  0  0  0  0  0  0  0  0  0  0
  152.4882  142.3120  161.5896 H   0  0  0  0  0  0  0  0  0  0  0  0
  154.0901  143.2120  161.6570 H   0  0  0  0  0  0  0  0  0  0  0  0
  153.1854  144.9195  160.0463 H   0  0  0  0  0  0  0  0  0  0  0  0
  151.5907  144.0065  159.9817 H   0  0  0  0  0  0  0  0  0  0  0  0
  148.9537  141.4918  156.5303 H   0  0  0  0  0  0  0  0  0  0  0  0
  150.0778  142.6906  156.0261 H   0  0  0  0  0  0  0  0  0  0  0  0
  149.3522  140.6352  153.0415 H   0  0  0  0  0  0  0  0  0  0  0  0
  148.5118  141.7328  154.1165 H   0  0  0  0  0  0  0  0  0  0  0  0
  1  2  3  0  0  0  0
  2  3  1  0  0  0  0
  3 16  1  0  0  0  0
  3  4  2  0  0  0  0
  4  5  1  0  0  0  0
  4 18  1  0  0  0  0
  5  6  1  0  0  0  0
  5  9  1  0  0  0  0
  6  8  1  0  0  0  0
  6  7  1  0  0  0  0
  6 19  1  0  0  0  0
  7  8  1  0  0  0  0
  7 20  1  0  0  0  0
  7 21  1  0  0  0  0
  8 22  1  0  0  0  0
  8 23  1  0  0  0  0
  9 10  2  0  0  0  0
  9 11  1  0  0  0  0
 11 12  1  0  0  0  0
 11 16  1  0  0  0  0
 12 13  1  0  0  0  0
 12 24  1  0  0  0  0
 12 25  1  0  0  0  0
 13 14  1  0  0  0  0
 13 15  2  0  0  0  0
 14 26  1  0  0  0  0
 14 27  1  0  0  0  0
 16 17  2  0  0  0  0
M  END
> <s_m_source_file>
AV-unprocessed.smi

> <i_m_source_file_index>
386

> <i_lp_mmshare_version>
43012

> <i_f3d_flags>
0

> <s_epik_input>
TiNDYzFbY0hdbihbQ0hdMltDSDJdW0NIMl0yKWMoPU8pbihjMT1PKVtDSDJdQyg9TylbTkgyXQ==

> <s_epik_cmdline>
J2VwaWtfcHl0aG9uJywgJy1waCcsICc3LjAnLCAnLXRuJywgJzgnLCAnLW1hJywgJzIwMCcsICctbWV0YWxfYmluZGluZycsICctaW1hZScsICc8aW5maWxlLm1hZT4nLCAnLW9tYWUnLCAnPG91dGZpbGUubWFlPic=

> <r_lp_tautomer_probability>
1

> <r_epik_Ionization_Penalty>
3.46323e-08

> <r_epik_Ionization_Penalty_Charging>
7.2855e-11

> <r_epik_Ionization_Penalty_Neutral>
3.45594e-08

> <r_epik_State_Penalty>
-0

> <r_epik_Charging_Adjusted_Penalty>
7.2855e-11

> <i_epik_Tot_Q>
0

> <i_epik_Tot_abs_Q>
0

> <r_epik_Metal_State_Penalty>
-0

> <b_epik_Metal_Only>
0

> <s_lp_Force_Field>
OPLS_2005

> <r_lp_Energy>
26.3068

> <b_lp_Chiralities_Consistent>
1

> <s_lp_Variant>
AV-unprocessed.smi:386-1

> <Gold.Version>
5.8.1

> <Gold.Id.Protein>
6NUR|6NUR_protein|mol2

> <Gold.PLP.Fitness>
42.0535

> <Gold.PLP.PLP>
-33.1909

> <Gold.PLP.part.hbond>
-3.0000

> <Gold.PLP.part.metal>
0.0000

> <Gold.PLP.part.buried>
-5.1551

> <Gold.PLP.part.nonpolar>
-25.6075

> <Gold.PLP.part.repulsive>
0.3841

> <Gold.PLP.ligand.clash>
0.0000

> <Gold.PLP.ligand.torsion>
0.1733

> <Gold.PLP.Chemscore.Hbond>
3.0000

> <Gold.PLP.Chemscore.CHOScore>
0.0000

> <Gold.PLP.Chemscore.Metal>
0.0000

> <Gold.Chemscore.Hbonds>
donor molecule, donor type, donor heavy atom, donor atom, acceptor molecule, acceptor atom, score
      L1  H    14    26       P1  7957  1.00
      P1  H  6896  6908       L1     1  1.00
      P1  H  7989  7998       L1    15  0.62

> <Gold.PLP.Chemscore.Internal.Correction>
0.2091

> <Gold.Rescore>
     Score         DG    S(hbond)    S(metal)    S(lipo)     H(rot)  DE(clash)    DE(int)     intcor
     14.39     -15.83       2.88        0.00      50.78       2.03       0.00       1.43       ----

> <Gold.Chemscore.Fitness>
14.3928

> <Gold.Chemscore.DG>
-15.8274

> <Gold.Chemscore.ZeroCoef>
-5.4800

> <Gold.Chemscore.Hbond>
2.8762

> <Gold.Chemscore.Metal>
0.0000

> <Gold.Chemscore.Lipo>
50.7775

> <Gold.Chemscore.Internal_Hbond>
0.0000

> <Gold.Chemscore.DEClash>
0.0029

> <Gold.Chemscore.DEInternal>
1.4318

> <Gold.Chemscore.Rot>
2.0313

> <Gold.Chemscore.Internal.Correction>
   9.000000E+99

> <Gold.Chemscore.Hbonds>
donor molecule, donor type, donor heavy atom, donor atom, acceptor molecule, acceptor atom, score
      L1  H    14    26       P1  7957  0.97
      P1  H  6896  6908       L1     1  0.99
      P1  H  7989  7998       L1    15  0.05

> <Gold.Chemscore.Hbond.Weighted>
-9.6066

> <Gold.Chemscore.Metal.Weighted>
-0.0000

> <Gold.Chemscore.Lipo.Weighted>
-5.9410

> <Gold.Chemscore.Internal_Hbond.Weighted>
0.0000

> <Gold.Chemscore.DEClash.Weighted>
0.0029

> <Gold.Chemscore.DEInternal.Weighted>
1.4318

> <Gold.Chemscore.Rot.Weighted>
5.2001

> <Gold.Chemscore.Internal.Correction.Weighted>
   9.000000E+99

> <Gold.Protein.RotatedTorsions>
[ 6907 6896 6895 6894 ] final -116.81 input  -60.11 | X-H torsion
[ 7974 7965 7964 7962 ] final  157.52 input  175.53 | X-H torsion
[ 8008 7997 7996 7995 ] final  114.31 input   59.86 | X-H torsion
[ 10167 10162 10161 10158 ] final   84.40 input  -65.29 | X-H torsion
[ 10718 10713 10712 10709 ] final   81.63 input   66.30 | X-H torsion
[ 10763 10752 10751 10750 ] final -160.92 input  -60.55 | X-H torsion
[ 11005 11000 10999 10996 ] final  -74.38 input  -57.11 | X-H torsion

> <Gold.Protein.ActiveResidues>
 VAL166  LYS551  ARG553  GLY616  TRP617  ASP618  TYR619  PRO620  LYS621  CYS622 
 ASP623  PHE694  ASN695  SER759  ASP760  ASP761  ALA762  ILE779  LEU786  VAL792 
 PHE793  MET794  SER795  GLU796  ALA797  LYS798  CYS799  TRP800  GLU811  SER814 

> <Gold.Protein.RotatedAtoms>
  150.8086  133.8464  159.3193 H   0  0  0  0  0  0  0  0  0  0  0  0  # atno 6907 bound_to 6896
  151.6256  135.1026  160.0120 H   0  0  0  0  0  0  0  0  0  0  0  0  # atno 6908 bound_to 6896
  152.4177  133.7025  159.6489 H   0  0  0  0  0  0  0  0  0  0  0  0  # atno 6909 bound_to 6896
  144.7898  139.7352  143.6226 H   0  0  0  0  0  0  0  0  0  0  0  0  # atno 7974 bound_to 7965
  156.2313  140.2962  156.0195 H   0  0  0  0  0  0  0  0  0  0  0  0  # atno 8008 bound_to 7997
  155.2217  140.0416  157.2966 H   0  0  0  0  0  0  0  0  0  0  0  0  # atno 8009 bound_to 7997
  154.6000  140.2424  155.7812 H   0  0  0  0  0  0  0  0  0  0  0  0  # atno 8010 bound_to 7997
  139.9084  144.6287  150.8563 H   0  0  0  0  0  0  0  0  0  0  0  0  # atno 10167 bound_to 10162
  157.6838  131.0012  150.2256 H   0  0  0  0  0  0  0  0  0  0  0  0  # atno 10718 bound_to 10713
  154.7348  135.3055  154.8830 H   0  0  0  0  0  0  0  0  0  0  0  0  # atno 10763 bound_to 10752
  153.9662  135.6747  153.4750 H   0  0  0  0  0  0  0  0  0  0  0  0  # atno 10764 bound_to 10752
  153.0952  135.4939  154.8688 H   0  0  0  0  0  0  0  0  0  0  0  0  # atno 10765 bound_to 10752
  141.1634  133.6909  156.7355 H   0  0  0  0  0  0  0  0  0  0  0  0  # atno 11005 bound_to 11000
  146.2146  139.5526  142.9659 LP  0  0  0  0  0  0  0  0  0  0  0  0  # atno 17320 bound_to 7965
  145.5824  141.0381  143.2115 LP  0  0  0  0  0  0  0  0  0  0  0  0  # atno 17321 bound_to 7965
  140.7691  143.3384  151.2260 LP  0  0  0  0  0  0  0  0  0  0  0  0  # atno 17342 bound_to 10162
  139.6964  143.9606  152.2884 LP  0  0  0  0  0  0  0  0  0  0  0  0  # atno 17343 bound_to 10162
  156.2898  130.3744  149.7852 LP  0  0  0  0  0  0  0  0  0  0  0  0  # atno 17370 bound_to 10713
  156.5515  130.8344  151.3301 LP  0  0  0  0  0  0  0  0  0  0  0  0  # atno 17371 bound_to 10713
  140.2713  134.8390  157.3849 LP  0  0  0  0  0  0  0  0  0  0  0  0  # atno 17394 bound_to 11000
  140.1519  134.4839  155.7955 LP  0  0  0  0  0  0  0  0  0  0  0  0  # atno 17395 bound_to 11000

$$$$
