AV-unprocessed.smi:1381|AV-procd|sdf|5610|dock2
  -GOLD-   22720 5223D 1   1.00000     0.00000
 Structure written by MMmdl.
 41 42  0  0  0  0  0  0  0  0  2 V2000
  146.1309  136.2208  161.8697 C   0  0  0  0  0  0  0  0  0  0  0  0
  147.1987  136.4571  160.8577 C   0  0  0  0  0  0  0  0  0  0  0  0
  148.1803  135.6617  160.3384 C   0  0  0  0  0  0  0  0  0  0  0  0
  148.8404  136.5199  159.4171 C   0  0  0  0  0  0  0  0  0  0  0  0
  149.8984  136.1951  158.6580 N   0  5  0  0  0  0  0  0  0  0  0  0
  150.6106  137.1612  158.0332 C   0  0  0  0  0  0  0  0  0  0  0  0
  150.6560  137.3654  156.8177 O   0  0  0  0  0  0  0  0  0  0  0  0
  151.3192  137.9344  158.8685 N   0  0  0  0  0  0  0  0  0  0  0  0
  152.1898  139.0384  158.4805 C   0  0  0  0  0  0  0  0  0  0  0  0
  151.3741  140.3020  158.1471 C   0  0  0  0  0  0  0  0  0  0  0  0
  151.9217  141.5490  158.6787 N   0  0  0  0  0  0  0  0  0  0  0  0
  152.1634  141.4413  160.1115 C   0  0  0  0  0  0  0  0  0  0  0  0
  152.7843  142.7259  160.6884 C   0  0  2  0  0  0  0  0  0  0  0  0
  152.9683  142.6450  162.2073 C   0  0  0  0  0  0  0  0  0  0  0  0
  151.9318  143.8328  160.4016 O   0  0  0  0  0  0  0  0  0  0  0  0
  151.6046  144.0067  159.0217 C   0  0  1  0  0  0  0  0  0  0  0  0
  152.7869  144.5821  158.2238 C   0  0  0  0  0  0  0  0  0  0  0  0
  151.0499  142.6949  158.4299 C   0  0  0  0  0  0  0  0  0  0  0  0
  148.3165  137.7340  159.3923 N   0  0  0  0  0  0  0  0  0  0  0  0
  147.2587  137.7001  160.3091 O   0  0  0  0  0  0  0  0  0  0  0  0
  146.3517  136.7541  162.7942 H   0  0  0  0  0  0  0  0  0  0  0  0
  146.0447  135.1595  162.1033 H   0  0  0  0  0  0  0  0  0  0  0  0
  145.1644  136.5650  161.5011 H   0  0  0  0  0  0  0  0  0  0  0  0
  148.3918  134.6302  160.5762 H   0  0  0  0  0  0  0  0  0  0  0  0
  151.2509  137.7329  159.8553 H   0  0  0  0  0  0  0  0  0  0  0  0
  152.9111  139.2445  159.2730 H   0  0  0  0  0  0  0  0  0  0  0  0
  152.7623  138.7059  157.6156 H   0  0  0  0  0  0  0  0  0  0  0  0
  151.2528  140.3834  157.0657 H   0  0  0  0  0  0  0  0  0  0  0  0
  150.3695  140.1655  158.5494 H   0  0  0  0  0  0  0  0  0  0  0  0
  151.2275  141.2225  160.6283 H   0  0  0  0  0  0  0  0  0  0  0  0
  152.8312  140.6018  160.3096 H   0  0  0  0  0  0  0  0  0  0  0  0
  153.7614  142.8933  160.2343 H   0  0  0  0  0  0  0  0  0  0  0  0
  153.6245  141.8180  162.4791 H   0  0  0  0  0  0  0  0  0  0  0  0
  152.0143  142.4963  162.7136 H   0  0  0  0  0  0  0  0  0  0  0  0
  153.4119  143.5622  162.5953 H   0  0  0  0  0  0  0  0  0  0  0  0
  150.8085  144.7509  158.9882 H   0  0  0  0  0  0  0  0  0  0  0  0
  152.4871  144.8126  157.2013 H   0  0  0  0  0  0  0  0  0  0  0  0
  153.6220  143.8843  158.1680 H   0  0  0  0  0  0  0  0  0  0  0  0
  153.1508  145.5041  158.6774 H   0  0  0  0  0  0  0  0  0  0  0  0
  150.8917  142.8307  157.3606 H   0  0  0  0  0  0  0  0  0  0  0  0
  150.0676  142.5014  158.8639 H   0  0  0  0  0  0  0  0  0  0  0  0
  1  2  1  0  0  0  0
  1 21  1  0  0  0  0
  1 22  1  0  0  0  0
  1 23  1  0  0  0  0
  2 20  1  0  0  0  0
  2  3  2  0  0  0  0
  3  4  1  0  0  0  0
  3 24  1  0  0  0  0
  4  5  1  0  0  0  0
  4 19  2  0  0  0  0
  5  6  1  0  0  0  0
  6  7  2  0  0  0  0
  6  8  1  0  0  0  0
  8  9  1  0  0  0  0
  8 25  1  0  0  0  0
  9 10  1  0  0  0  0
  9 26  1  0  0  0  0
  9 27  1  0  0  0  0
 10 11  1  0  0  0  0
 10 28  1  0  0  0  0
 10 29  1  0  0  0  0
 11 18  1  0  0  0  0
 11 12  1  0  0  0  0
 12 13  1  0  0  0  0
 12 30  1  0  0  0  0
 12 31  1  0  0  0  0
 13 14  1  0  0  0  0
 13 15  1  0  0  0  0
 13 32  1  0  0  0  0
 14 33  1  0  0  0  0
 14 34  1  0  0  0  0
 14 35  1  0  0  0  0
 15 16  1  0  0  0  0
 16 17  1  0  0  0  0
 16 18  1  0  0  0  0
 16 36  1  0  0  0  0
 17 37  1  0  0  0  0
 17 38  1  0  0  0  0
 17 39  1  0  0  0  0
 18 40  1  0  0  0  0
 18 41  1  0  0  0  0
 19 20  1  0  0  0  0
M  CHG  1   5  -1
M  END
> <s_m_source_file>
AV-unprocessed.smi

> <i_m_source_file_index>
1381

> <i_lp_mmshare_version>
43012

> <i_f3d_flags>
0

> <s_epik_input>
W0NIM11jMVtjSF1jKG5vMSlbTkhdQyg9TylbTkhdW0NIMl1bQ0gyXU4yW0NIMl1bQ0BASF0oW0NIM10pT1tDQEBIXShbQ0gzXSlbQ0gyXTI=

> <s_epik_cmdline>
J2VwaWtfcHl0aG9uJywgJy1waCcsICc3LjAnLCAnLXRuJywgJzgnLCAnLW1hJywgJzIwMCcsICctbWV0YWxfYmluZGluZycsICctaW1hZScsICc8aW5maWxlLm1hZT4nLCAnLW9tYWUnLCAnPG91dGZpbGUubWFlPic=

> <r_epik_Ionization_Penalty>
6.88366

> <r_epik_Ionization_Penalty_Charging>
6.57198

> <r_epik_Ionization_Penalty_Neutral>
0.311678

> <r_epik_State_Penalty>
6.77619

> <r_epik_Charging_Adjusted_Penalty>
13.3482

> <i_epik_Tot_Q>
-1

> <i_epik_Tot_abs_Q>
1

> <r_epik_Metal_State_Penalty>
2.70524

> <b_epik_Metal_Only>
1

> <s_lp_Force_Field>
OPLS_2005

> <r_lp_Energy>
15.7401

> <b_lp_Chiralities_Consistent>
1

> <s_lp_Variant>
AV-unprocessed.smi:1381-9

> <Gold.Version>
5.8.1

> <Gold.Id.Protein>
6NUR|6NUR_protein|mol2

> <Gold.PLP.Fitness>
45.7336

> <Gold.PLP.PLP>
-38.8833

> <Gold.PLP.part.hbond>
-4.5462

> <Gold.PLP.part.metal>
0.0000

> <Gold.PLP.part.buried>
-5.3217

> <Gold.PLP.part.nonpolar>
-30.4452

> <Gold.PLP.part.repulsive>
0.1900

> <Gold.PLP.ligand.clash>
0.0000

> <Gold.PLP.ligand.torsion>
1.1438

> <Gold.PLP.Chemscore.Hbond>
3.0305

> <Gold.PLP.Chemscore.CHOScore>
0.0000

> <Gold.PLP.Chemscore.Metal>
0.0000

> <Gold.Chemscore.Hbonds>
donor molecule, donor type, donor heavy atom, donor atom, acceptor molecule, acceptor atom, score
      P1  H  6896  6907       L1     5  2.00
      P1  H  6934  6947       L1    20  0.81

> <Gold.PLP.Chemscore.Internal.Correction>
0.0465

> <Gold.Rescore>
     Score         DG    S(hbond)    S(metal)    S(lipo)     H(rot)  DE(clash)    DE(int)     intcor
     16.63     -17.91       1.46        0.00      98.23       1.54       0.04       1.24       ----

> <Gold.Chemscore.Fitness>
16.6341

> <Gold.Chemscore.DG>
-17.9136

> <Gold.Chemscore.ZeroCoef>
-5.4800

> <Gold.Chemscore.Hbond>
1.4628

> <Gold.Chemscore.Metal>
0.0000

> <Gold.Chemscore.Lipo>
98.2265

> <Gold.Chemscore.Internal_Hbond>
0.0000

> <Gold.Chemscore.DEClash>
0.0376

> <Gold.Chemscore.DEInternal>
1.2419

> <Gold.Chemscore.Rot>
1.5409

> <Gold.Chemscore.Internal.Correction>
   9.000000E+99

> <Gold.Chemscore.Hbonds>
donor molecule, donor type, donor heavy atom, donor atom, acceptor molecule, acceptor atom, score
      P1  H  6896  6907       L1     5  0.48
      P1  H  6934  6947       L1    20  0.43

> <Gold.Chemscore.Hbond.Weighted>
-4.8857

> <Gold.Chemscore.Metal.Weighted>
-0.0000

> <Gold.Chemscore.Lipo.Weighted>
-11.4925

> <Gold.Chemscore.Internal_Hbond.Weighted>
0.0000

> <Gold.Chemscore.DEClash.Weighted>
0.0376

> <Gold.Chemscore.DEInternal.Weighted>
1.2419

> <Gold.Chemscore.Rot.Weighted>
3.9446

> <Gold.Chemscore.Internal.Correction.Weighted>
   9.000000E+99

> <Gold.Protein.RotatedTorsions>
[ 6907 6896 6895 6894 ] final  -62.01 input  -60.11 | X-H torsion
[ 7974 7965 7964 7962 ] final   74.69 input  175.53 | X-H torsion
[ 8008 7997 7996 7995 ] final -107.44 input   59.86 | X-H torsion
[ 10167 10162 10161 10158 ] final  150.19 input  -65.29 | X-H torsion
[ 10718 10713 10712 10709 ] final  148.55 input   66.30 | X-H torsion
[ 10763 10752 10751 10750 ] final -173.90 input  -60.55 | X-H torsion
[ 11005 11000 10999 10996 ] final  130.39 input  -57.11 | X-H torsion

> <Gold.Protein.ActiveResidues>
 VAL166  LYS551  ARG553  GLY616  TRP617  ASP618  TYR619  PRO620  LYS621  CYS622 
 ASP623  PHE694  ASN695  SER759  ASP760  ASP761  ALA762  ILE779  LEU786  VAL792 
 PHE793  MET794  SER795  GLU796  ALA797  LYS798  CYS799  TRP800  GLU811  SER814 

> <Gold.Protein.RotatedAtoms>
  150.7745  134.6628  159.6348 H   0  0  0  0  0  0  0  0  0  0  0  0  # atno 6907 bound_to 6896
  152.3809  134.6588  160.0152 H   0  0  0  0  0  0  0  0  0  0  0  0  # atno 6908 bound_to 6896
  151.6918  133.3274  159.3281 H   0  0  0  0  0  0  0  0  0  0  0  0  # atno 6909 bound_to 6896
  145.7251  139.2662  143.1573 H   0  0  0  0  0  0  0  0  0  0  0  0  # atno 7974 bound_to 7965
  154.9294  140.0405  157.2040 H   0  0  0  0  0  0  0  0  0  0  0  0  # atno 8008 bound_to 7997
  154.8176  140.2878  155.5788 H   0  0  0  0  0  0  0  0  0  0  0  0  # atno 8009 bound_to 7997
  156.2977  140.2525  156.3077 H   0  0  0  0  0  0  0  0  0  0  0  0  # atno 8010 bound_to 7997
  139.4853  144.5542  151.7347 H   0  0  0  0  0  0  0  0  0  0  0  0  # atno 10167 bound_to 10162
  157.3072  131.0881  151.1344 H   0  0  0  0  0  0  0  0  0  0  0  0  # atno 10718 bound_to 10713
  154.6025  135.2856  155.0520 H   0  0  0  0  0  0  0  0  0  0  0  0  # atno 10763 bound_to 10752
  154.1780  135.6461  153.5030 H   0  0  0  0  0  0  0  0  0  0  0  0  # atno 10764 bound_to 10752
  153.0162  135.5417  154.6749 H   0  0  0  0  0  0  0  0  0  0  0  0  # atno 10765 bound_to 10752
  139.9669  134.9588  156.9287 H   0  0  0  0  0  0  0  0  0  0  0  0  # atno 11005 bound_to 11000
  146.0590  140.7991  142.9744 LP  0  0  0  0  0  0  0  0  0  0  0  0  # atno 17320 bound_to 7965
  144.6907  140.3167  143.7239 LP  0  0  0  0  0  0  0  0  0  0  0  0  # atno 17321 bound_to 7965
  140.5101  144.1038  150.5993 LP  0  0  0  0  0  0  0  0  0  0  0  0  # atno 17342 bound_to 10162
  140.3961  143.2727  152.0003 LP  0  0  0  0  0  0  0  0  0  0  0  0  # atno 17343 bound_to 10162
  157.2680  130.6691  149.6006 LP  0  0  0  0  0  0  0  0  0  0  0  0  # atno 17370 bound_to 10713
  155.9675  130.4488  150.5633 LP  0  0  0  0  0  0  0  0  0  0  0  0  # atno 17371 bound_to 10713
  140.5376  134.0751  155.7332 LP  0  0  0  0  0  0  0  0  0  0  0  0  # atno 17394 bound_to 11000
  141.1349  133.9238  157.2455 LP  0  0  0  0  0  0  0  0  0  0  0  0  # atno 17395 bound_to 11000

$$$$
