AV-unprocessed.smi:1724|AV-procd|sdf|6952|dock5
  -GOLD-   22720 8163D 1   1.00000     0.00000
 Structure written by MMmdl.
 37 38  0  0  0  0  0  0  0  0  2 V2000
  150.7517  134.3912  155.5710 O   0  0  0  0  0  0  0  0  0  0  0  0
  150.2179  134.9530  154.6151 C   0  0  0  0  0  0  0  0  0  0  0  0
  150.4075  136.2487  154.3262 N   0  0  0  0  0  0  0  0  0  0  0  0
  151.2569  137.1725  155.0727 C   0  0  0  0  0  0  0  0  0  0  0  0
  150.8650  138.6468  154.8445 C   0  0  1  0  0  0  0  0  0  0  0  0
  149.3415  138.8639  154.7702 C   0  0  0  0  0  0  0  0  0  0  0  0
  149.0234  140.3575  154.6392 C   0  0  0  0  0  0  0  0  0  0  0  0
  149.7175  141.1541  155.7537 C   0  0  0  0  0  0  0  0  0  0  0  0
  151.1190  140.9115  155.7148 O   0  0  0  0  0  0  0  0  0  0  0  0
  151.4545  139.5476  155.9488 C   0  0  0  0  0  0  0  0  0  0  0  0
  149.3842  134.3867  153.7234 N   0  0  0  0  0  0  0  0  0  0  0  0
  148.9073  133.0662  153.6389 C   0  0  0  0  0  0  0  0  0  0  0  0
  149.6446  131.9463  153.8810 C   0  0  0  0  0  0  0  0  0  0  0  0
  149.0814  130.6055  153.7765 C   0  0  0  0  0  0  0  0  0  0  0  0
  149.8582  129.3274  154.0343 C   0  0  0  0  0  0  0  0  0  0  0  0
  149.7907  128.5250  152.9725 F   0  0  0  0  0  0  0  0  0  0  0  0
  151.1416  129.6066  154.2588 F   0  0  0  0  0  0  0  0  0  0  0  0
  149.3798  128.6692  155.0904 F   0  0  0  0  0  0  0  0  0  0  0  0
  147.7482  130.6207  153.4195 C   0  0  0  0  0  0  0  0  0  0  0  0
  146.9475  131.6786  153.1669 N   0  5  0  0  0  0  0  0  0  0  0  0
  147.4837  132.9278  153.2646 C   0  0  0  0  0  0  0  0  0  0  0  0
  146.8088  133.9353  153.0489 O   0  0  0  0  0  0  0  0  0  0  0  0
  149.9297  136.6255  153.5206 H   0  0  0  0  0  0  0  0  0  0  0  0
  151.2526  136.9387  156.1387 H   0  0  0  0  0  0  0  0  0  0  0  0
  152.2810  137.0122  154.7347 H   0  0  0  0  0  0  0  0  0  0  0  0
  151.2973  138.9657  153.8946 H   0  0  0  0  0  0  0  0  0  0  0  0
  148.9121  138.3261  153.9246 H   0  0  0  0  0  0  0  0  0  0  0  0
  148.8669  138.4654  155.6679 H   0  0  0  0  0  0  0  0  0  0  0  0
  149.3618  140.7205  153.6678 H   0  0  0  0  0  0  0  0  0  0  0  0
  147.9457  140.5182  154.6755 H   0  0  0  0  0  0  0  0  0  0  0  0
  149.5409  142.2212  155.6188 H   0  0  0  0  0  0  0  0  0  0  0  0
  149.3169  140.8859  156.7325 H   0  0  0  0  0  0  0  0  0  0  0  0
  151.1003  139.2411  156.9344 H   0  0  0  0  0  0  0  0  0  0  0  0
  152.5413  139.4608  155.9632 H   0  0  0  0  0  0  0  0  0  0  0  0
  149.0517  134.9881  152.9839 H   0  0  0  0  0  0  0  0  0  0  0  0
  150.6798  132.0136  154.1679 H   0  0  0  0  0  0  0  0  0  0  0  0
  147.2521  129.6313  153.3227 H   0  0  0  0  0  0  0  0  0  0  0  0
  1  2  2  0  0  0  0
  2  3  1  0  0  0  0
  2 11  1  0  0  0  0
  3  4  1  0  0  0  0
  3 23  1  0  0  0  0
  4  5  1  0  0  0  0
  4 24  1  0  0  0  0
  4 25  1  0  0  0  0
  5 10  1  0  0  0  0
  5  6  1  0  0  0  0
  5 26  1  0  0  0  0
  6  7  1  0  0  0  0
  6 27  1  0  0  0  0
  6 28  1  0  0  0  0
  7  8  1  0  0  0  0
  7 29  1  0  0  0  0
  7 30  1  0  0  0  0
  8  9  1  0  0  0  0
  8 31  1  0  0  0  0
  8 32  1  0  0  0  0
  9 10  1  0  0  0  0
 10 33  1  0  0  0  0
 10 34  1  0  0  0  0
 11 12  1  0  0  0  0
 11 35  1  0  0  0  0
 12 21  1  0  0  0  0
 12 13  2  0  0  0  0
 13 14  1  0  0  0  0
 13 36  1  0  0  0  0
 14 15  1  0  0  0  0
 14 19  2  0  0  0  0
 15 16  1  0  0  0  0
 15 17  1  0  0  0  0
 15 18  1  0  0  0  0
 19 20  1  0  0  0  0
 19 37  1  0  0  0  0
 20 21  1  0  0  0  0
 21 22  2  0  0  0  0
M  CHG  1  20  -1
M  END
> <s_m_source_file>
AV-unprocessed.smi

> <i_m_source_file_index>
1724

> <i_lp_mmshare_version>
43012

> <i_f3d_flags>
0

> <s_epik_input>
Tz1jMVtuSF1bY0hdYyhDKEYpKEYpRilbY0hdYzFbTkhdQyg9TylbTkhdW0NIMl1bQ0BASF0yW0NIMl1bQ0gyXVtDSDJdT1tDSDJdMg==

> <s_epik_cmdline>
J2VwaWtfcHl0aG9uJywgJy1waCcsICc3LjAnLCAnLXRuJywgJzgnLCAnLW1hJywgJzIwMCcsICctbWV0YWxfYmluZGluZycsICctaW1hZScsICc8aW5maWxlLm1hZT4nLCAnLW9tYWUnLCAnPG91dGZpbGUubWFlPic=

> <r_lp_tautomer_probability>
1

> <r_epik_Ionization_Penalty>
3.16025

> <r_epik_Ionization_Penalty_Charging>
0.171172

> <r_epik_Ionization_Penalty_Neutral>
2.98908

> <r_epik_State_Penalty>
2.98521

> <r_epik_Charging_Adjusted_Penalty>
3.15638

> <i_epik_Tot_Q>
-1

> <i_epik_Tot_abs_Q>
1

> <r_epik_Metal_State_Penalty>
0.452642

> <b_epik_Metal_Only>
1

> <s_lp_Force_Field>
OPLS_2005

> <r_lp_Energy>
24.0618

> <b_lp_Chiralities_Consistent>
1

> <s_lp_Variant>
AV-unprocessed.smi:1724-4

> <Gold.Version>
5.8.1

> <Gold.Id.Protein>
6NUR|6NUR_protein|mol2

> <Gold.PLP.Fitness>
42.5758

> <Gold.PLP.PLP>
-36.3824

> <Gold.PLP.part.hbond>
-4.0000

> <Gold.PLP.part.metal>
0.0000

> <Gold.PLP.part.buried>
-1.5437

> <Gold.PLP.part.nonpolar>
-32.0419

> <Gold.PLP.part.repulsive>
0.3921

> <Gold.PLP.ligand.clash>
0.0000

> <Gold.PLP.ligand.torsion>
0.7070

> <Gold.PLP.Chemscore.Hbond>
2.5320

> <Gold.PLP.Chemscore.CHOScore>
0.0000

> <Gold.PLP.Chemscore.Metal>
0.0000

> <Gold.Chemscore.Hbonds>
donor molecule, donor type, donor heavy atom, donor atom, acceptor molecule, acceptor atom, score
      L1  H     3    23       P1  7948  0.88
      L1  H    11    35       P1  7948  0.70
      P1  H  7989  7998       L1     9  0.24

> <Gold.PLP.Chemscore.Internal.Correction>
0.0114

> <Gold.Rescore>
     Score         DG    S(hbond)    S(metal)    S(lipo)     H(rot)  DE(clash)    DE(int)     intcor
     12.94     -13.54       1.38        0.00      58.48       1.32       0.05       0.54       ----

> <Gold.Chemscore.Fitness>
12.9368

> <Gold.Chemscore.DG>
-13.5362

> <Gold.Chemscore.ZeroCoef>
-5.4800

> <Gold.Chemscore.Hbond>
1.3789

> <Gold.Chemscore.Metal>
0.0000

> <Gold.Chemscore.Lipo>
58.4812

> <Gold.Chemscore.Internal_Hbond>
0.0000

> <Gold.Chemscore.DEClash>
0.0549

> <Gold.Chemscore.DEInternal>
0.5445

> <Gold.Chemscore.Rot>
1.3248

> <Gold.Chemscore.Internal.Correction>
   9.000000E+99

> <Gold.Chemscore.Hbonds>
donor molecule, donor type, donor heavy atom, donor atom, acceptor molecule, acceptor atom, score
      L1  H     3    23       P1  7948  0.19
      L1  H    11    35       P1  7948  0.07
      P1  H  7989  7998       L1     9  0.02

> <Gold.Chemscore.Hbond.Weighted>
-4.6054

> <Gold.Chemscore.Metal.Weighted>
-0.0000

> <Gold.Chemscore.Lipo.Weighted>
-6.8423

> <Gold.Chemscore.Internal_Hbond.Weighted>
0.0000

> <Gold.Chemscore.DEClash.Weighted>
0.0549

> <Gold.Chemscore.DEInternal.Weighted>
0.5445

> <Gold.Chemscore.Rot.Weighted>
3.3915

> <Gold.Chemscore.Internal.Correction.Weighted>
   9.000000E+99

> <Gold.Protein.RotatedTorsions>
[ 6907 6896 6895 6894 ] final   55.91 input  -60.11 | X-H torsion
[ 7974 7965 7964 7962 ] final  153.26 input  175.53 | X-H torsion
[ 8008 7997 7996 7995 ] final -105.45 input   59.86 | X-H torsion
[ 10167 10162 10161 10158 ] final  112.26 input  -65.29 | X-H torsion
[ 10718 10713 10712 10709 ] final  -44.90 input   66.30 | X-H torsion
[ 10763 10752 10751 10750 ] final   91.26 input  -60.55 | X-H torsion
[ 11005 11000 10999 10996 ] final   85.70 input  -57.11 | X-H torsion

> <Gold.Protein.ActiveResidues>
 VAL166  LYS551  ARG553  GLY616  TRP617  ASP618  TYR619  PRO620  LYS621  CYS622 
 ASP623  PHE694  ASN695  SER759  ASP760  ASP761  ALA762  ILE779  LEU786  VAL792 
 PHE793  MET794  SER795  GLU796  ALA797  LYS798  CYS799  TRP800  GLU811  SER814 

> <Gold.Protein.RotatedAtoms>
  152.3585  134.6906  160.0214 H   0  0  0  0  0  0  0  0  0  0  0  0  # atno 6907 bound_to 6896
  151.7237  133.3310  159.3330 H   0  0  0  0  0  0  0  0  0  0  0  0  # atno 6908 bound_to 6896
  150.7588  134.6359  159.6255 H   0  0  0  0  0  0  0  0  0  0  0  0  # atno 6909 bound_to 6896
  144.8166  139.6777  143.6118 H   0  0  0  0  0  0  0  0  0  0  0  0  # atno 7974 bound_to 7965
  154.9000  140.0413  157.1888 H   0  0  0  0  0  0  0  0  0  0  0  0  # atno 8008 bound_to 7997
  154.8453  140.2921  155.5612 H   0  0  0  0  0  0  0  0  0  0  0  0  # atno 8009 bound_to 7997
  156.2994  140.2475  156.3403 H   0  0  0  0  0  0  0  0  0  0  0  0  # atno 8010 bound_to 7997
  139.6549  144.7129  151.1976 H   0  0  0  0  0  0  0  0  0  0  0  0  # atno 10167 bound_to 10162
  156.2339  130.4174  149.8842 H   0  0  0  0  0  0  0  0  0  0  0  0  # atno 10718 bound_to 10713
  153.2064  135.4404  155.0328 H   0  0  0  0  0  0  0  0  0  0  0  0  # atno 10763 bound_to 10752
  154.8176  135.3322  154.7135 H   0  0  0  0  0  0  0  0  0  0  0  0  # atno 10764 bound_to 10752
  153.7576  135.6994  153.4988 H   0  0  0  0  0  0  0  0  0  0  0  0  # atno 10765 bound_to 10752
  139.8964  134.8304  156.2618 H   0  0  0  0  0  0  0  0  0  0  0  0  # atno 11005 bound_to 11000
  146.2470  139.6118  142.9453 LP  0  0  0  0  0  0  0  0  0  0  0  0  # atno 17320 bound_to 7965
  145.5200  141.0432  143.2440 LP  0  0  0  0  0  0  0  0  0  0  0  0  # atno 17321 bound_to 7965
  140.7554  143.6089  150.8625 LP  0  0  0  0  0  0  0  0  0  0  0  0  # atno 17342 bound_to 10162
  139.9741  143.6024  152.2964 LP  0  0  0  0  0  0  0  0  0  0  0  0  # atno 17343 bound_to 10162
  156.6447  130.8719  151.3520 LP  0  0  0  0  0  0  0  0  0  0  0  0  # atno 17370 bound_to 10713
  157.7145  130.9481  150.1207 LP  0  0  0  0  0  0  0  0  0  0  0  0  # atno 17371 bound_to 10713
  141.0158  133.7069  156.1185 LP  0  0  0  0  0  0  0  0  0  0  0  0  # atno 17394 bound_to 11000
  140.7304  134.4261  157.5566 LP  0  0  0  0  0  0  0  0  0  0  0  0  # atno 17395 bound_to 11000

$$$$
