AV-unprocessed.smi:54|AV-procd|sdf|535|dock3
  -GOLD-   2262016413D 1   1.00000     0.00000
 Structure written by MMmdl.
 44 46  0  0  0  0  0  0  0  0  1 V2000
  153.2762  141.6922  161.5403 C   0  0  0  0  0  0  0  0  0  0  0  0
  153.1920  142.5339  160.2566 C   0  0  0  0  0  0  0  0  0  0  0  0
  152.4163  143.8396  160.4941 C   0  0  0  0  0  0  0  0  0  0  0  0
  152.5520  141.7243  159.1238 C   0  0  0  0  0  0  0  0  0  0  0  0
  151.6351  142.1717  158.4345 O   0  0  0  0  0  0  0  0  0  0  0  0
  153.1053  140.4028  158.9050 N   0  0  0  0  0  0  0  0  0  0  0  0
  152.6828  139.5132  157.9808 C   0  0  0  0  0  0  0  0  0  0  0  0
  151.6078  139.7251  157.2364 N   0  0  0  0  0  0  0  0  0  0  0  0
  151.3074  138.7204  156.3567 C   0  0  0  0  0  0  0  0  0  0  0  0
  152.0168  137.5447  156.2010 C   0  0  0  0  0  0  0  0  0  0  0  0
  151.4411  136.7598  155.2115 N   0  0  0  0  0  0  0  0  0  0  0  0
  150.4212  137.4617  154.8094 C   0  0  0  0  0  0  0  0  0  0  0  0
  150.2457  138.6573  155.4651 N   0  0  0  0  0  0  0  0  0  0  0  0
  149.1535  139.6569  155.1934 C   0  0  2  0  0  0  0  0  0  0  0  0
  147.9409  139.1271  155.6261 O   0  0  0  0  0  0  0  0  0  0  0  0
  147.2364  138.5580  154.5318 C   0  0  1  0  0  0  0  0  0  0  0  0
  145.7297  138.5493  154.8311 C   0  0  0  0  0  0  0  0  0  0  0  0
  145.0002  138.2790  153.6533 O   0  0  0  0  0  0  0  0  0  0  0  0
  147.6136  139.4722  153.3552 C   0  0  2  0  0  0  0  0  0  0  0  0
  147.6504  138.7337  152.1511 O   0  0  0  0  0  0  0  0  0  0  0  0
  149.0041  140.0093  153.7038 C   0  0  1  0  0  0  0  0  0  0  0  0
  149.0460  141.4081  153.5038 O   0  0  0  0  0  0  0  0  0  0  0  0
  153.1713  137.2927  157.0152 C   0  0  0  0  0  0  0  0  0  0  0  0
  153.9025  136.3045  157.0148 O   0  0  0  0  0  0  0  0  0  0  0  0
  153.4361  138.3450  157.8985 N   0  0  0  0  0  0  0  0  0  0  0  0
  149.4256  140.5128  155.8128 H   0  0  0  0  0  0  0  0  0  0  0  0
  147.5921  137.5425  154.3636 H   0  0  0  0  0  0  0  0  0  0  0  0
  146.8937  140.2877  153.2664 H   0  0  0  0  0  0  0  0  0  0  0  0
  149.8022  139.5546  153.1172 H   0  0  0  0  0  0  0  0  0  0  0  0
  153.8120  140.7577  161.3687 H   0  0  0  0  0  0  0  0  0  0  0  0
  152.2854  141.4419  161.9220 H   0  0  0  0  0  0  0  0  0  0  0  0
  153.8050  142.2323  162.3259 H   0  0  0  0  0  0  0  0  0  0  0  0
  154.2085  142.7931  159.9568 H   0  0  0  0  0  0  0  0  0  0  0  0
  152.3517  144.4348  159.5825 H   0  0  0  0  0  0  0  0  0  0  0  0
  152.9089  144.4525  161.2492 H   0  0  0  0  0  0  0  0  0  0  0  0
  151.3995  143.6458  160.8384 H   0  0  0  0  0  0  0  0  0  0  0  0
  153.9219  140.1588  159.4459 H   0  0  0  0  0  0  0  0  0  0  0  0
  149.7606  137.1191  154.0261 H   0  0  0  0  0  0  0  0  0  0  0  0
  145.4822  137.8249  155.6078 H   0  0  0  0  0  0  0  0  0  0  0  0
  145.4154  139.5299  155.1897 H   0  0  0  0  0  0  0  0  0  0  0  0
  144.8752  139.0899  153.1844 H   0  0  0  0  0  0  0  0  0  0  0  0
  148.4204  138.9919  151.6663 H   0  0  0  0  0  0  0  0  0  0  0  0
  148.2742  141.7897  153.8932 H   0  0  0  0  0  0  0  0  0  0  0  0
  154.2379  138.2387  158.5024 H   0  0  0  0  0  0  0  0  0  0  0  0
  1  2  1  0  0  0  0
  1 30  1  0  0  0  0
  1 31  1  0  0  0  0
  1 32  1  0  0  0  0
  2  3  1  0  0  0  0
  2  4  1  0  0  0  0
  2 33  1  0  0  0  0
  3 34  1  0  0  0  0
  3 35  1  0  0  0  0
  3 36  1  0  0  0  0
  4  5  2  0  0  0  0
  4  6  1  0  0  0  0
  6 37  1  0  0  0  0
  6  7  1  0  0  0  0
  7 25  1  0  0  0  0
  7  8  2  0  0  0  0
  8  9  1  0  0  0  0
  9 13  1  0  0  0  0
  9 10  2  0  0  0  0
 10 11  1  0  0  0  0
 10 23  1  0  0  0  0
 11 12  2  0  0  0  0
 12 13  1  0  0  0  0
 12 38  1  0  0  0  0
 13 14  1  0  0  0  0
 14 26  1  0  0  0  0
 14 21  1  0  0  0  0
 14 15  1  0  0  0  0
 15 16  1  0  0  0  0
 16 27  1  0  0  0  0
 16 17  1  0  0  0  0
 16 19  1  0  0  0  0
 17 18  1  0  0  0  0
 17 39  1  0  0  0  0
 17 40  1  0  0  0  0
 18 41  1  0  0  0  0
 19 28  1  0  0  0  0
 19 20  1  0  0  0  0
 19 21  1  0  0  0  0
 20 42  1  0  0  0  0
 21 29  1  0  0  0  0
 21 22  1  0  0  0  0
 22 43  1  0  0  0  0
 23 24  2  0  0  0  0
 23 25  1  0  0  0  0
 25 44  1  0  0  0  0
M  END
> <s_m_source_file>
AV-unprocessed.smi

> <i_m_source_file_index>
54

> <i_lp_mmshare_version>
43012

> <i_f3d_flags>
0

> <s_epik_input>
W0NIM11bQ0hdKFtDSDNdKUMoPU8pW05IXWMobjEpW25IXWMoPU8pYyhjMTIpbltjSF1uMltDQEBIXTNPW0NASF0oW0NIMl1bT0hdKVtDQEBIXShbT0hdKVtDQEhdM1tPSF0=

> <s_epik_cmdline>
J2VwaWtfcHl0aG9uJywgJy1waCcsICc3LjAnLCAnLXRuJywgJzgnLCAnLW1hJywgJzIwMCcsICctbWV0YWxfYmluZGluZycsICctaW1hZScsICc8aW5maWxlLm1hZT4nLCAnLW9tYWUnLCAnPG91dGZpbGUubWFlPic=

> <r_lp_tautomer_probability>
0.85571

> <r_epik_Ionization_Penalty>
0.0316551

> <r_epik_Ionization_Penalty_Charging>
0.0316043

> <r_epik_Ionization_Penalty_Neutral>
5.07097e-05

> <r_epik_State_Penalty>
3.15494e-07

> <r_epik_Charging_Adjusted_Penalty>
0.0316047

> <i_epik_Tot_Q>
0

> <i_epik_Tot_abs_Q>
0

> <r_epik_Metal_State_Penalty>
0.421206

> <b_epik_Metal_Only>
0

> <s_epik_Chemistry_Notes>
This compound contains an acetal/aminal-like group ( X-CH(R)-Y where X, Y are N, S, or O) that may be acid/base labile, releasing an aldehyde.

> <s_lp_Force_Field>
OPLS_2005

> <r_lp_Energy>
37.5812

> <b_lp_Chiralities_Consistent>
1

> <s_lp_Variant>
AV-unprocessed.smi:54-7

> <Gold.Version>
5.8.1

> <Gold.Id.Protein>
6NUR|6NUR_protein|mol2

> <Gold.PLP.Fitness>
49.1717

> <Gold.PLP.PLP>
-32.7535

> <Gold.PLP.part.hbond>
-7.9408

> <Gold.PLP.part.metal>
0.0000

> <Gold.PLP.part.buried>
-0.0518

> <Gold.PLP.part.nonpolar>
-25.2975

> <Gold.PLP.part.repulsive>
0.7381

> <Gold.PLP.ligand.clash>
0.0000

> <Gold.PLP.ligand.torsion>
0.3773

> <Gold.PLP.Chemscore.Hbond>
4.7113

> <Gold.PLP.Chemscore.CHOScore>
1.0000

> <Gold.PLP.Chemscore.Metal>
0.0000

> <Gold.Chemscore.Hbonds>
donor molecule, donor type, donor heavy atom, donor atom, acceptor molecule, acceptor atom, score
      L1  H    18    41       P1 10175  0.99
      L1  H    20    42       P1  7957  1.00
      P1  H  8011  8017       L1    22  0.88
      P1  H 10752 10763       L1    24  0.82
      P1  H 10752 10765       L1    11  0.90
      L1  C    12    38       P1  7948  1.00

> <Gold.PLP.Chemscore.Internal.Correction>
0.0390

> <Gold.Rescore>
     Score         DG    S(hbond)    S(metal)    S(lipo)     H(rot)  DE(clash)    DE(int)     intcor
     11.99     -14.80       3.92        0.00      56.35       4.05       1.13       1.68       ----

> <Gold.Chemscore.Fitness>
11.9869

> <Gold.Chemscore.DG>
-14.7953

> <Gold.Chemscore.ZeroCoef>
-5.4800

> <Gold.Chemscore.Hbond>
3.9188

> <Gold.Chemscore.Metal>
0.0000

> <Gold.Chemscore.Lipo>
56.3471

> <Gold.Chemscore.Internal_Hbond>
0.0000

> <Gold.Chemscore.DEClash>
1.1274

> <Gold.Chemscore.DEInternal>
1.6810

> <Gold.Chemscore.Rot>
4.0493

> <Gold.Chemscore.Internal.Correction>
   9.000000E+99

> <Gold.Chemscore.Hbonds>
donor molecule, donor type, donor heavy atom, donor atom, acceptor molecule, acceptor atom, score
      L1  H    18    41       P1 10175  0.92
      L1  H    20    42       P1  7957  0.81
      P1  H  8011  8017       L1    22  0.74
      P1  H 10752 10763       L1    24  0.76
      P1  H 10752 10765       L1    11  0.53

> <Gold.Chemscore.Hbond.Weighted>
-13.0889

> <Gold.Chemscore.Metal.Weighted>
-0.0000

> <Gold.Chemscore.Lipo.Weighted>
-6.5926

> <Gold.Chemscore.Internal_Hbond.Weighted>
0.0000

> <Gold.Chemscore.DEClash.Weighted>
1.1274

> <Gold.Chemscore.DEInternal.Weighted>
1.6810

> <Gold.Chemscore.Rot.Weighted>
10.3662

> <Gold.Chemscore.Internal.Correction.Weighted>
   9.000000E+99

> <Gold.Protein.RotatedTorsions>
[ 6907 6896 6895 6894 ] final    8.65 input  -60.11 | X-H torsion
[ 7974 7965 7964 7962 ] final  -91.72 input  175.53 | X-H torsion
[ 8008 7997 7996 7995 ] final   39.66 input   59.86 | X-H torsion
[ 10167 10162 10161 10158 ] final   40.31 input  -65.29 | X-H torsion
[ 10718 10713 10712 10709 ] final   68.72 input   66.30 | X-H torsion
[ 10763 10752 10751 10750 ] final  161.69 input  -60.55 | X-H torsion
[ 11005 11000 10999 10996 ] final  111.08 input  -57.11 | X-H torsion

> <Gold.Protein.ActiveResidues>
 VAL166  LYS551  ARG553  GLY616  TRP617  ASP618  TYR619  PRO620  LYS621  CYS622 
 ASP623  PHE694  ASN695  SER759  ASP760  ASP761  ALA762  ILE779  LEU786  VAL792 
 PHE793  MET794  SER795  GLU796  ALA797  LYS798  CYS799  TRP800  GLU811  SER814 

> <Gold.Protein.RotatedAtoms>
  151.7095  135.0915  160.0264 H   0  0  0  0  0  0  0  0  0  0  0  0  # atno 6907 bound_to 6896
  152.3671  133.6366  159.6067 H   0  0  0  0  0  0  0  0  0  0  0  0  # atno 6908 bound_to 6896
  150.7645  133.9247  159.3450 H   0  0  0  0  0  0  0  0  0  0  0  0  # atno 6909 bound_to 6896
  145.4094  140.9544  143.2242 H   0  0  0  0  0  0  0  0  0  0  0  0  # atno 7974 bound_to 7965
  155.2403  140.3345  155.4293 H   0  0  0  0  0  0  0  0  0  0  0  0  # atno 8008 bound_to 7997
  156.2258  140.1829  156.7410 H   0  0  0  0  0  0  0  0  0  0  0  0  # atno 8009 bound_to 7997
  154.5897  140.0640  156.9207 H   0  0  0  0  0  0  0  0  0  0  0  0  # atno 8010 bound_to 7997
  140.3754  144.2049  150.6132 H   0  0  0  0  0  0  0  0  0  0  0  0  # atno 10167 bound_to 10162
  157.6305  130.9388  150.0416 H   0  0  0  0  0  0  0  0  0  0  0  0  # atno 10718 bound_to 10713
  154.2668  135.2767  155.2755 H   0  0  0  0  0  0  0  0  0  0  0  0  # atno 10763 bound_to 10752
  154.5336  135.5722  153.6783 H   0  0  0  0  0  0  0  0  0  0  0  0  # atno 10764 bound_to 10752
  152.9952  135.6234  154.2821 H   0  0  0  0  0  0  0  0  0  0  0  0  # atno 10765 bound_to 10752
  139.8896  134.9499  156.6378 H   0  0  0  0  0  0  0  0  0  0  0  0  # atno 11005 bound_to 11000
  144.8319  139.5614  143.6940 LP  0  0  0  0  0  0  0  0  0  0  0  0  # atno 17320 bound_to 7965
  146.2712  139.6641  142.9294 LP  0  0  0  0  0  0  0  0  0  0  0  0  # atno 17321 bound_to 7965
  140.4991  143.2323  151.8705 LP  0  0  0  0  0  0  0  0  0  0  0  0  # atno 17342 bound_to 10162
  139.4800  144.5080  151.8971 LP  0  0  0  0  0  0  0  0  0  0  0  0  # atno 17343 bound_to 10162
  156.1506  130.3642  149.9444 LP  0  0  0  0  0  0  0  0  0  0  0  0  # atno 17370 bound_to 10713
  156.7465  130.9099  151.3635 LP  0  0  0  0  0  0  0  0  0  0  0  0  # atno 17371 bound_to 10713
  140.7617  133.8812  155.8423 LP  0  0  0  0  0  0  0  0  0  0  0  0  # atno 17394 bound_to 11000
  140.9916  134.1270  157.4402 LP  0  0  0  0  0  0  0  0  0  0  0  0  # atno 17395 bound_to 11000

$$$$
