AV-unprocessed.smi:3255|AV-procd|sdf|12460|dock1
  -GOLD-   2272018353D 1   1.00000     0.00000
 Structure written by MMmdl.
 39 40  0  0  0  0  0  0  0  0  2 V2000
  148.1877  141.6226  154.1767 C   0  0  0  0  0  0  0  0  0  0  0  0
  148.6326  140.1620  154.3686 C   0  0  1  0  0  0  0  0  0  0  0  0
  147.9999  139.3176  153.3587 N   0  0  0  0  0  0  0  0  0  0  0  0
  146.9115  138.5610  153.5535 C   0  0  0  0  0  0  0  0  0  0  0  0
  146.2880  138.5044  154.6138 O   0  0  0  0  0  0  0  0  0  0  0  0
  146.5833  137.8682  152.4542 N   0  0  0  0  0  0  0  0  0  0  0  0
  145.4487  136.9584  152.3551 C   0  0  0  0  0  0  0  0  0  0  0  0
  145.5858  136.0134  151.1495 C   0  0  0  0  0  0  0  0  0  0  0  0
  144.9716  134.7114  151.4103 N   0  0  0  0  0  0  0  0  0  0  0  0
  144.9251  133.6329  150.5652 C   0  0  0  0  0  0  0  0  0  0  0  0
  144.2579  132.6404  151.2360 C   0  0  0  0  0  0  0  0  0  0  0  0
  143.9273  133.1549  152.4614 N   0  3  0  0  0  0  0  0  0  0  0  0
  144.3622  134.4152  152.5651 C   0  0  0  0  0  0  0  0  0  0  0  0
  150.1614  140.0010  154.2715 C   0  0  1  0  0  0  0  0  0  0  0  0
  150.9434  140.5659  155.4592 C   0  0  0  0  0  0  0  0  0  0  0  0
  152.2174  139.7345  155.4855 C   0  0  0  0  0  0  0  0  0  0  0  0
  151.9226  138.5666  154.5412 C   0  0  0  0  0  0  0  0  0  0  0  0
  150.5233  138.6286  154.3088 O   0  0  0  0  0  0  0  0  0  0  0  0
  148.6197  142.2727  154.9375 H   0  0  0  0  0  0  0  0  0  0  0  0
  147.1039  141.7184  154.2497 H   0  0  0  0  0  0  0  0  0  0  0  0
  148.4905  142.0047  153.2012 H   0  0  0  0  0  0  0  0  0  0  0  0
  148.3168  139.8282  155.3589 H   0  0  0  0  0  0  0  0  0  0  0  0
  148.4417  139.2916  152.4514 H   0  0  0  0  0  0  0  0  0  0  0  0
  147.1568  137.9792  151.6307 H   0  0  0  0  0  0  0  0  0  0  0  0
  145.3503  136.3875  153.2803 H   0  0  0  0  0  0  0  0  0  0  0  0
  144.5413  137.5554  152.2605 H   0  0  0  0  0  0  0  0  0  0  0  0
  145.1187  136.4428  150.2618 H   0  0  0  0  0  0  0  0  0  0  0  0
  146.6350  135.8388  150.9071 H   0  0  0  0  0  0  0  0  0  0  0  0
  145.3594  133.6521  149.5757 H   0  0  0  0  0  0  0  0  0  0  0  0
  144.0016  131.6333  150.9409 H   0  0  0  0  0  0  0  0  0  0  0  0
  144.2453  135.0641  153.4149 H   0  0  0  0  0  0  0  0  0  0  0  0
  150.5333  140.4368  153.3417 H   0  0  0  0  0  0  0  0  0  0  0  0
  151.1388  141.6343  155.3630 H   0  0  0  0  0  0  0  0  0  0  0  0
  150.3893  140.4086  156.3858 H   0  0  0  0  0  0  0  0  0  0  0  0
  153.0790  140.3051  155.1372 H   0  0  0  0  0  0  0  0  0  0  0  0
  152.4305  139.3879  156.4972 H   0  0  0  0  0  0  0  0  0  0  0  0
  152.4486  138.6968  153.5944 H   0  0  0  0  0  0  0  0  0  0  0  0
  152.2112  137.6028  154.9612 H   0  0  0  0  0  0  0  0  0  0  0  0
  143.4271  132.6559  153.1863 H   0  0  0  0  0  0  0  0  0  0  0  0
  1  2  1  0  0  0  0
  1 19  1  0  0  0  0
  1 20  1  0  0  0  0
  1 21  1  0  0  0  0
  2  3  1  0  0  0  0
  2 14  1  0  0  0  0
  2 22  1  0  0  0  0
  3  4  1  0  0  0  0
  3 23  1  0  0  0  0
  4  5  2  0  0  0  0
  4  6  1  0  0  0  0
  6  7  1  0  0  0  0
  6 24  1  0  0  0  0
  7  8  1  0  0  0  0
  7 25  1  0  0  0  0
  7 26  1  0  0  0  0
  8  9  1  0  0  0  0
  8 27  1  0  0  0  0
  8 28  1  0  0  0  0
  9 13  1  0  0  0  0
  9 10  1  0  0  0  0
 10 11  2  0  0  0  0
 10 29  1  0  0  0  0
 11 12  1  0  0  0  0
 11 30  1  0  0  0  0
 12 13  2  0  0  0  0
 12 39  1  0  0  0  0
 13 31  1  0  0  0  0
 14 18  1  0  0  0  0
 14 15  1  0  0  0  0
 14 32  1  0  0  0  0
 15 16  1  0  0  0  0
 15 33  1  0  0  0  0
 15 34  1  0  0  0  0
 16 17  1  0  0  0  0
 16 35  1  0  0  0  0
 16 36  1  0  0  0  0
 17 18  1  0  0  0  0
 17 37  1  0  0  0  0
 17 38  1  0  0  0  0
M  CHG  1  12   1
M  END
> <s_m_source_file>
AV-unprocessed.smi

> <i_m_source_file_index>
3255

> <i_lp_mmshare_version>
43012

> <i_f3d_flags>
0

> <s_epik_input>
TzFbQ0gyXVtDSDJdW0NIMl1bQ0BIXTFbQ0BIXShbQ0gzXSlbTkhdQyg9TylbTkhdW0NIMl1bQ0gyXW4yW2NIXVtjSF1uW2NIXTI=

> <s_epik_cmdline>
J2VwaWtfcHl0aG9uJywgJy1waCcsICc3LjAnLCAnLXRuJywgJzgnLCAnLW1hJywgJzIwMCcsICctbWV0YWxfYmluZGluZycsICctaW1hZScsICc8aW5maWxlLm1hZT4nLCAnLW9tYWUnLCAnPG91dGZpbGUubWFlPic=

> <r_lp_tautomer_probability>
1

> <r_epik_Ionization_Penalty>
0.256241

> <r_epik_Ionization_Penalty_Charging>
0

> <r_epik_Ionization_Penalty_Neutral>
0.256241

> <r_epik_State_Penalty>
0.247735

> <r_epik_Charging_Adjusted_Penalty>
0.247735

> <i_epik_Tot_Q>
1

> <i_epik_Tot_abs_Q>
1

> <r_epik_Metal_State_Penalty>
0.537184

> <b_epik_Metal_Only>
0

> <s_lp_Force_Field>
OPLS_2005

> <r_lp_Energy>
17.8763

> <b_lp_Chiralities_Consistent>
1

> <s_lp_Variant>
AV-unprocessed.smi:3255-4

> <Gold.Version>
5.8.1

> <Gold.Id.Protein>
6NUR|6NUR_protein|mol2

> <Gold.PLP.Fitness>
46.2831

> <Gold.PLP.PLP>
-35.5484

> <Gold.PLP.part.hbond>
-3.0000

> <Gold.PLP.part.metal>
0.0000

> <Gold.PLP.part.buried>
-3.4975

> <Gold.PLP.part.nonpolar>
-30.0739

> <Gold.PLP.part.repulsive>
0.3730

> <Gold.PLP.ligand.clash>
0.0000

> <Gold.PLP.ligand.torsion>
0.6916

> <Gold.PLP.Chemscore.Hbond>
2.9920

> <Gold.PLP.Chemscore.CHOScore>
1.0000

> <Gold.PLP.Chemscore.Metal>
0.0000

> <Gold.Chemscore.Hbonds>
donor molecule, donor type, donor heavy atom, donor atom, acceptor molecule, acceptor atom, score
      L1  H     3    23       P1  7957  1.00
      L1  H    12    39       P1 10957  2.00
      L1  C    10    29       P1  7921  1.00

> <Gold.PLP.Chemscore.Internal.Correction>
0.1419

> <Gold.Rescore>
     Score         DG    S(hbond)    S(metal)    S(lipo)     H(rot)  DE(clash)    DE(int)     intcor
     12.94     -13.92       1.89        0.00      67.75       2.26       0.29       0.69       ----

> <Gold.Chemscore.Fitness>
12.9418

> <Gold.Chemscore.DG>
-13.9208

> <Gold.Chemscore.ZeroCoef>
-5.4800

> <Gold.Chemscore.Hbond>
1.8890

> <Gold.Chemscore.Metal>
0.0000

> <Gold.Chemscore.Lipo>
67.7546

> <Gold.Chemscore.Internal_Hbond>
0.0000

> <Gold.Chemscore.DEClash>
0.2859

> <Gold.Chemscore.DEInternal>
0.6931

> <Gold.Chemscore.Rot>
2.2640

> <Gold.Chemscore.Internal.Correction>
   9.000000E+99

> <Gold.Chemscore.Hbonds>
donor molecule, donor type, donor heavy atom, donor atom, acceptor molecule, acceptor atom, score
      L1  H     3    23       P1  7957  0.96
      L1  H    12    39       P1 10957  0.29

> <Gold.Chemscore.Hbond.Weighted>
-6.3093

> <Gold.Chemscore.Metal.Weighted>
-0.0000

> <Gold.Chemscore.Lipo.Weighted>
-7.9273

> <Gold.Chemscore.Internal_Hbond.Weighted>
0.0000

> <Gold.Chemscore.DEClash.Weighted>
0.2859

> <Gold.Chemscore.DEInternal.Weighted>
0.6931

> <Gold.Chemscore.Rot.Weighted>
5.7958

> <Gold.Chemscore.Internal.Correction.Weighted>
   9.000000E+99

> <Gold.Protein.RotatedTorsions>
[ 6907 6896 6895 6894 ] final -123.63 input  -60.11 | X-H torsion
[ 7974 7965 7964 7962 ] final  -67.31 input  175.53 | X-H torsion
[ 8008 7997 7996 7995 ] final  -38.07 input   59.86 | X-H torsion
[ 10167 10162 10161 10158 ] final -114.78 input  -65.29 | X-H torsion
[ 10718 10713 10712 10709 ] final  174.73 input   66.30 | X-H torsion
[ 10763 10752 10751 10750 ] final  -23.08 input  -60.55 | X-H torsion
[ 11005 11000 10999 10996 ] final  -27.77 input  -57.11 | X-H torsion

> <Gold.Protein.ActiveResidues>
 VAL166  LYS551  ARG553  GLY616  TRP617  ASP618  TYR619  PRO620  LYS621  CYS622 
 ASP623  PHE694  ASN695  SER759  ASP760  ASP761  ALA762  ILE779  LEU786  VAL792 
 PHE793  MET794  SER795  GLU796  ALA797  LYS798  CYS799  TRP800  GLU811  SER814 

> <Gold.Protein.RotatedAtoms>
  150.8689  133.7534  159.2967 H   0  0  0  0  0  0  0  0  0  0  0  0  # atno 6907 bound_to 6896
  151.5152  135.1064  159.9874 H   0  0  0  0  0  0  0  0  0  0  0  0  # atno 6908 bound_to 6896
  152.4681  133.7923  159.6964 H   0  0  0  0  0  0  0  0  0  0  0  0  # atno 6909 bound_to 6896
  145.7308  140.8997  143.0581 H   0  0  0  0  0  0  0  0  0  0  0  0  # atno 7974 bound_to 7965
  154.4043  140.1587  156.2640 H   0  0  0  0  0  0  0  0  0  0  0  0  # atno 8008 bound_to 7997
  155.9012  140.3433  155.6005 H   0  0  0  0  0  0  0  0  0  0  0  0  # atno 8009 bound_to 7997
  155.7446  140.0797  157.2220 H   0  0  0  0  0  0  0  0  0  0  0  0  # atno 8010 bound_to 7997
  140.0973  143.4645  152.1834 H   0  0  0  0  0  0  0  0  0  0  0  0  # atno 10167 bound_to 10162
  156.9453  131.0014  151.2960 H   0  0  0  0  0  0  0  0  0  0  0  0  # atno 10718 bound_to 10713
  153.6622  135.6976  153.5174 H   0  0  0  0  0  0  0  0  0  0  0  0  # atno 10763 bound_to 10752
  153.2623  135.4241  155.0905 H   0  0  0  0  0  0  0  0  0  0  0  0  # atno 10764 bound_to 10752
  154.8449  135.3558  154.6167 H   0  0  0  0  0  0  0  0  0  0  0  0  # atno 10765 bound_to 10752
  140.9149  133.7436  156.0721 H   0  0  0  0  0  0  0  0  0  0  0  0  # atno 11005 bound_to 11000
  144.6893  139.9329  143.7472 LP  0  0  0  0  0  0  0  0  0  0  0  0  # atno 17320 bound_to 7965
  146.0539  139.3537  143.0623 LP  0  0  0  0  0  0  0  0  0  0  0  0  # atno 17321 bound_to 7965
  139.5691  144.7452  151.3940 LP  0  0  0  0  0  0  0  0  0  0  0  0  # atno 17342 bound_to 10162
  140.6997  143.7663  150.7383 LP  0  0  0  0  0  0  0  0  0  0  0  0  # atno 17343 bound_to 10162
  157.5758  130.8342  149.8453 LP  0  0  0  0  0  0  0  0  0  0  0  0  # atno 17370 bound_to 10713
  156.0386  130.3744  150.1494 LP  0  0  0  0  0  0  0  0  0  0  0  0  # atno 17371 bound_to 10713
  140.8063  134.3451  157.5425 LP  0  0  0  0  0  0  0  0  0  0  0  0  # atno 17394 bound_to 11000
  139.8764  134.9227  156.3308 LP  0  0  0  0  0  0  0  0  0  0  0  0  # atno 17395 bound_to 11000

$$$$
