AV-unprocessed.smi:2932|AV-procd|sdf|11251|dock4
  -GOLD-   2272016143D 1   1.00000     0.00000
 Structure written by MMmdl.
 30 30  0  0  0  0  0  0  0  0  2 V2000
  139.9448  134.1571  165.3960 C   0  0  0  0  0  0  0  0  0  0  0  0
  140.5907  134.7928  164.1994 C   0  0  0  0  0  0  0  0  0  0  0  0
  141.5826  134.1752  163.5766 N   0  0  0  0  0  0  0  0  0  0  0  0
  141.9462  135.0040  162.5646 N   0  0  0  0  0  0  0  0  0  0  0  0
  143.0416  134.6094  161.6903 C   0  0  0  0  0  0  0  0  0  0  0  0
  144.3682  134.5245  162.4494 C   0  0  0  0  0  0  0  0  0  0  0  0
  144.5112  133.6873  163.3405 O   0  0  0  0  0  0  0  0  0  0  0  0
  145.3265  135.3906  162.0842 N   0  0  0  0  0  0  0  0  0  0  0  0
  146.6674  135.4755  162.6544 C   0  0  1  0  0  0  0  0  0  0  0  0
  147.4256  134.1509  162.4651 C   0  0  0  0  0  0  0  0  0  0  0  0
  147.4051  136.6919  162.0880 C   0  0  0  0  0  0  0  0  0  0  0  0
  146.8017  137.3871  161.2417 O   0  0  0  0  0  0  0  0  0  0  0  0
  148.5630  136.9078  162.5106 O   0  5  0  0  0  0  0  0  0  0  0  0
  141.1769  136.1570  162.5311 C   0  0  0  0  0  0  0  0  0  0  0  0
  141.3630  137.2411  161.5193 C   0  0  0  0  0  0  0  0  0  0  0  0
  140.3081  136.0352  163.5748 C   0  0  0  0  0  0  0  0  0  0  0  0
  139.1010  137.1742  164.0491 Cl  0  0  0  0  0  0  0  0  0  0  0  0
  146.5663  135.6450  163.7284 H   0  0  0  0  0  0  0  0  0  0  0  0
  138.9683  134.5969  165.5990 H   0  0  0  0  0  0  0  0  0  0  0  0
  140.5602  134.2883  166.2862 H   0  0  0  0  0  0  0  0  0  0  0  0
  139.7993  133.0871  165.2456 H   0  0  0  0  0  0  0  0  0  0  0  0
  142.8209  133.6417  161.2371 H   0  0  0  0  0  0  0  0  0  0  0  0
  143.1191  135.3316  160.8768 H   0  0  0  0  0  0  0  0  0  0  0  0
  145.1159  136.0473  161.3458 H   0  0  0  0  0  0  0  0  0  0  0  0
  148.4312  134.2117  162.8827 H   0  0  0  0  0  0  0  0  0  0  0  0
  147.5187  133.8938  161.4092 H   0  0  0  0  0  0  0  0  0  0  0  0
  146.9137  133.3272  162.9632 H   0  0  0  0  0  0  0  0  0  0  0  0
  140.5758  137.9909  161.5973 H   0  0  0  0  0  0  0  0  0  0  0  0
  141.3406  136.8381  160.5068 H   0  0  0  0  0  0  0  0  0  0  0  0
  142.3191  137.7444  161.6633 H   0  0  0  0  0  0  0  0  0  0  0  0
  1  2  1  0  0  0  0
  1 19  1  0  0  0  0
  1 20  1  0  0  0  0
  1 21  1  0  0  0  0
  2 16  1  0  0  0  0
  2  3  2  0  0  0  0
  3  4  1  0  0  0  0
  4  5  1  0  0  0  0
  4 14  1  0  0  0  0
  5  6  1  0  0  0  0
  5 22  1  0  0  0  0
  5 23  1  0  0  0  0
  6  7  2  0  0  0  0
  6  8  1  0  0  0  0
  8  9  1  0  0  0  0
  8 24  1  0  0  0  0
  9 18  1  0  0  0  0
  9 10  1  0  0  0  0
  9 11  1  0  0  0  0
 10 25  1  0  0  0  0
 10 26  1  0  0  0  0
 10 27  1  0  0  0  0
 11 12  2  0  0  0  0
 11 13  1  0  0  0  0
 14 15  1  0  0  0  0
 14 16  2  0  0  0  0
 15 28  1  0  0  0  0
 15 29  1  0  0  0  0
 15 30  1  0  0  0  0
 16 17  1  0  0  0  0
M  CHG  1  13  -1
M  END
> <s_m_source_file>
AV-unprocessed.smi

> <i_m_source_file_index>
2932

> <i_lp_mmshare_version>
43012

> <i_f3d_flags>
0

> <s_epik_input>
W0NIM11jMW5uKGMoW0NIM10pYzFDbClbQ0gyXUMoPU8pW05IXVtDQEhdKFtDSDNdKUMoPU8pW09IXQ==

> <s_epik_cmdline>
J2VwaWtfcHl0aG9uJywgJy1waCcsICc3LjAnLCAnLXRuJywgJzgnLCAnLW1hJywgJzIwMCcsICctbWV0YWxfYmluZGluZycsICctaW1hZScsICc8aW5maWxlLm1hZT4nLCAnLW9tYWUnLCAnPG91dGZpbGUubWFlPic=

> <r_lp_tautomer_probability>
1

> <r_epik_Ionization_Penalty>
0.000148999

> <r_epik_Ionization_Penalty_Charging>
0.000144005

> <r_epik_Ionization_Penalty_Neutral>
4.99331e-06

> <r_epik_State_Penalty>
-0

> <r_epik_Charging_Adjusted_Penalty>
0.000144005

> <i_epik_Tot_Q>
-1

> <i_epik_Tot_abs_Q>
1

> <r_epik_Metal_State_Penalty>
-0

> <b_epik_Metal_Only>
0

> <s_lp_Force_Field>
OPLS_2005

> <r_lp_Energy>
1.5608

> <b_lp_Chiralities_Consistent>
1

> <s_lp_Variant>
AV-unprocessed.smi:2932-2

> <Gold.Version>
5.8.1

> <Gold.Id.Protein>
6NUR|6NUR_protein|mol2

> <Gold.PLP.Fitness>
39.3278

> <Gold.PLP.PLP>
-27.4187

> <Gold.PLP.part.hbond>
-2.7649

> <Gold.PLP.part.metal>
0.0000

> <Gold.PLP.part.buried>
-2.8776

> <Gold.PLP.part.nonpolar>
-23.2335

> <Gold.PLP.part.repulsive>
0.2838

> <Gold.PLP.ligand.clash>
0.0000

> <Gold.PLP.ligand.torsion>
0.0776

> <Gold.PLP.Chemscore.Hbond>
4.0000

> <Gold.PLP.Chemscore.CHOScore>
0.0000

> <Gold.PLP.Chemscore.Metal>
0.0000

> <Gold.Chemscore.Hbonds>
donor molecule, donor type, donor heavy atom, donor atom, acceptor molecule, acceptor atom, score
      P1  H  6931  6943       L1    13  1.98
      P1  H  6934  6947       L1    12  2.00

> <Gold.PLP.Chemscore.Internal.Correction>
0.0643

> <Gold.Rescore>
     Score         DG    S(hbond)    S(metal)    S(lipo)     H(rot)  DE(clash)    DE(int)     intcor
     11.84     -12.83       1.89        0.00      55.94       2.15       0.10       0.89       ----

> <Gold.Chemscore.Fitness>
11.8401

> <Gold.Chemscore.DG>
-12.8303

> <Gold.Chemscore.ZeroCoef>
-5.4800

> <Gold.Chemscore.Hbond>
1.8922

> <Gold.Chemscore.Metal>
0.0000

> <Gold.Chemscore.Lipo>
55.9415

> <Gold.Chemscore.Internal_Hbond>
0.0000

> <Gold.Chemscore.DEClash>
0.0998

> <Gold.Chemscore.DEInternal>
0.8904

> <Gold.Chemscore.Rot>
2.1542

> <Gold.Chemscore.Internal.Correction>
   9.000000E+99

> <Gold.Chemscore.Hbonds>
donor molecule, donor type, donor heavy atom, donor atom, acceptor molecule, acceptor atom, score
      P1  H  6931  6943       L1    13  0.63
      P1  H  6934  6947       L1    12  0.99

> <Gold.Chemscore.Hbond.Weighted>
-6.3198

> <Gold.Chemscore.Metal.Weighted>
-0.0000

> <Gold.Chemscore.Lipo.Weighted>
-6.5452

> <Gold.Chemscore.Internal_Hbond.Weighted>
0.0000

> <Gold.Chemscore.DEClash.Weighted>
0.0998

> <Gold.Chemscore.DEInternal.Weighted>
0.8904

> <Gold.Chemscore.Rot.Weighted>
5.5146

> <Gold.Chemscore.Internal.Correction.Weighted>
   9.000000E+99

> <Gold.Protein.RotatedTorsions>
[ 6907 6896 6895 6894 ] final  152.07 input  -60.11 | X-H torsion
[ 7974 7965 7964 7962 ] final  117.93 input  175.53 | X-H torsion
[ 8008 7997 7996 7995 ] final   43.04 input   59.86 | X-H torsion
[ 10167 10162 10161 10158 ] final  119.31 input  -65.29 | X-H torsion
[ 10718 10713 10712 10709 ] final  -86.35 input   66.30 | X-H torsion
[ 10763 10752 10751 10750 ] final  -19.47 input  -60.55 | X-H torsion
[ 11005 11000 10999 10996 ] final  110.56 input  -57.11 | X-H torsion

> <Gold.Protein.ActiveResidues>
 VAL166  LYS551  ARG553  GLY616  TRP617  ASP618  TYR619  PRO620  LYS621  CYS622 
 ASP623  PHE694  ASN695  SER759  ASP760  ASP761  ALA762  ILE779  LEU786  VAL792 
 PHE793  MET794  SER795  GLU796  ALA797  LYS798  CYS799  TRP800  GLU811  SER814 

> <Gold.Protein.RotatedAtoms>
  152.0918  133.4204  159.4547 H   0  0  0  0  0  0  0  0  0  0  0  0  # atno 6907 bound_to 6896
  150.6862  134.2862  159.4657 H   0  0  0  0  0  0  0  0  0  0  0  0  # atno 6908 bound_to 6896
  152.0714  134.9530  160.0625 H   0  0  0  0  0  0  0  0  0  0  0  0  # atno 6909 bound_to 6896
  145.1614  139.3153  143.4515 H   0  0  0  0  0  0  0  0  0  0  0  0  # atno 7974 bound_to 7965
  155.2962  140.3382  155.4250 H   0  0  0  0  0  0  0  0  0  0  0  0  # atno 8008 bound_to 7997
  156.2023  140.1737  156.7913 H   0  0  0  0  0  0  0  0  0  0  0  0  # atno 8009 bound_to 7997
  154.5575  140.0694  156.8750 H   0  0  0  0  0  0  0  0  0  0  0  0  # atno 8010 bound_to 7997
  139.6054  144.7068  151.2965 H   0  0  0  0  0  0  0  0  0  0  0  0  # atno 10167 bound_to 10162
  155.9990  130.4762  150.4701 H   0  0  0  0  0  0  0  0  0  0  0  0  # atno 10718 bound_to 10713
  153.6053  135.6998  153.5368 H   0  0  0  0  0  0  0  0  0  0  0  0  # atno 10763 bound_to 10752
  153.3062  135.4114  155.1296 H   0  0  0  0  0  0  0  0  0  0  0  0  # atno 10764 bound_to 10752
  154.8574  135.3661  154.5590 H   0  0  0  0  0  0  0  0  0  0  0  0  # atno 10765 bound_to 10752
  139.8884  134.9487  156.6297 H   0  0  0  0  0  0  0  0  0  0  0  0  # atno 11005 bound_to 11000
  146.3482  140.1725  142.8589 LP  0  0  0  0  0  0  0  0  0  0  0  0  # atno 17320 bound_to 7965
  145.0327  140.8884  143.5099 LP  0  0  0  0  0  0  0  0  0  0  0  0  # atno 17321 bound_to 7965
  140.7281  143.6945  150.7895 LP  0  0  0  0  0  0  0  0  0  0  0  0  # atno 17342 bound_to 10162
  140.0530  143.5231  152.2665 LP  0  0  0  0  0  0  0  0  0  0  0  0  # atno 17343 bound_to 10162
  157.2717  131.0588  151.2255 LP  0  0  0  0  0  0  0  0  0  0  0  0  # atno 17370 bound_to 10713
  157.3333  130.6996  149.6337 LP  0  0  0  0  0  0  0  0  0  0  0  0  # atno 17371 bound_to 10713
  140.7676  133.8765  155.8466 LP  0  0  0  0  0  0  0  0  0  0  0  0  # atno 17394 bound_to 11000
  140.9869  134.1330  157.4443 LP  0  0  0  0  0  0  0  0  0  0  0  0  # atno 17395 bound_to 11000

$$$$
