AV-unprocessed.smi:3284|AV-procd|sdf|12573|dock6
  -GOLD-   2272018493D 1   1.00000     0.00000
 Structure written by MMmdl.
 44 45  0  0  0  0  0  0  0  0  2 V2000
  153.0317  142.9040  162.8083 C   0  0  0  0  0  0  0  0  0  0  0  0
  152.6090  143.1757  161.3741 C   0  0  0  0  0  0  0  0  0  0  0  0
  152.2388  144.4187  161.0111 C   0  0  0  0  0  0  0  0  0  0  0  0
  151.7278  144.7894  159.6382 C   0  0  0  0  0  0  0  0  0  0  0  0
  151.2105  143.5565  158.8936 C   0  0  0  0  0  0  0  0  0  0  0  0
  152.2302  142.4067  158.9327 C   0  0  2  0  0  0  0  0  0  0  0  0
  151.7013  141.2256  158.0958 C   0  0  0  0  0  0  0  0  0  0  0  0
  152.5997  141.9878  160.3900 C   0  0  1  0  0  0  0  0  0  0  0  0
  153.9342  141.1958  160.3910 C   0  0  0  0  0  0  0  0  0  0  0  0
  153.8099  139.8499  159.7944 N   0  3  0  0  0  0  0  0  0  0  0  0
  154.7709  138.8660  160.3286 C   0  0  0  0  0  0  0  0  0  0  0  0
  154.3745  138.4137  161.7397 C   0  0  0  0  0  0  0  0  0  0  0  0
  154.5576  136.9407  161.9346 C   0  0  0  0  0  0  0  0  0  0  0  0
  154.8913  136.1076  160.9540 N   0  0  0  0  0  0  0  0  0  0  0  0
  154.9295  134.8522  161.5518 C   0  0  0  0  0  0  0  0  0  0  0  0
  154.6071  134.9716  162.8821 C   0  0  0  0  0  0  0  0  0  0  0  0
  154.3638  136.3190  163.1142 N   0  0  0  0  0  0  0  0  0  0  0  0
  153.9800  136.9078  164.3826 C   0  0  0  0  0  0  0  0  0  0  0  0
  152.4853  142.0519  163.2132 H   0  0  0  0  0  0  0  0  0  0  0  0
  152.8265  143.7614  163.4506 H   0  0  0  0  0  0  0  0  0  0  0  0
  154.1012  142.7031  162.8686 H   0  0  0  0  0  0  0  0  0  0  0  0
  152.2835  145.2258  161.7281 H   0  0  0  0  0  0  0  0  0  0  0  0
  150.9256  145.5205  159.7407 H   0  0  0  0  0  0  0  0  0  0  0  0
  152.5329  145.2712  159.0825 H   0  0  0  0  0  0  0  0  0  0  0  0
  150.2720  143.2274  159.3425 H   0  0  0  0  0  0  0  0  0  0  0  0
  150.9804  143.8282  157.8628 H   0  0  0  0  0  0  0  0  0  0  0  0
  153.1361  142.7752  158.4482 H   0  0  0  0  0  0  0  0  0  0  0  0
  150.7985  140.8019  158.5370 H   0  0  0  0  0  0  0  0  0  0  0  0
  152.4302  140.4222  157.9994 H   0  0  0  0  0  0  0  0  0  0  0  0
  151.4511  141.5464  157.0841 H   0  0  0  0  0  0  0  0  0  0  0  0
  151.8088  141.3249  160.7441 H   0  0  0  0  0  0  0  0  0  0  0  0
  154.7017  141.7221  159.8260 H   0  0  0  0  0  0  0  0  0  0  0  0
  154.3112  141.1105  161.4113 H   0  0  0  0  0  0  0  0  0  0  0  0
  152.8745  139.5110  159.9688 H   0  0  0  0  0  0  0  0  0  0  0  0
  154.8144  138.0061  159.6588 H   0  0  0  0  0  0  0  0  0  0  0  0
  155.7665  139.3115  160.3477 H   0  0  0  0  0  0  0  0  0  0  0  0
  154.9837  138.9349  162.4793 H   0  0  0  0  0  0  0  0  0  0  0  0
  153.3404  138.6867  161.9519 H   0  0  0  0  0  0  0  0  0  0  0  0
  155.1811  133.9688  160.9837 H   0  0  0  0  0  0  0  0  0  0  0  0
  154.5297  134.2271  163.6609 H   0  0  0  0  0  0  0  0  0  0  0  0
  153.7622  136.1247  165.1095 H   0  0  0  0  0  0  0  0  0  0  0  0
  153.0894  137.5233  164.2540 H   0  0  0  0  0  0  0  0  0  0  0  0
  154.7939  137.5255  164.7627 H   0  0  0  0  0  0  0  0  0  0  0  0
  153.9450  139.9266  158.7964 H   0  0  0  0  0  0  0  0  0  0  0  0
  1  2  1  0  0  0  0
  1 19  1  0  0  0  0
  1 20  1  0  0  0  0
  1 21  1  0  0  0  0
  2  8  1  0  0  0  0
  2  3  2  0  0  0  0
  3  4  1  0  0  0  0
  3 22  1  0  0  0  0
  4  5  1  0  0  0  0
  4 23  1  0  0  0  0
  4 24  1  0  0  0  0
  5  6  1  0  0  0  0
  5 25  1  0  0  0  0
  5 26  1  0  0  0  0
  6  7  1  0  0  0  0
  6  8  1  0  0  0  0
  6 27  1  0  0  0  0
  7 28  1  0  0  0  0
  7 29  1  0  0  0  0
  7 30  1  0  0  0  0
  8  9  1  0  0  0  0
  8 31  1  0  0  0  0
  9 10  1  0  0  0  0
  9 32  1  0  0  0  0
  9 33  1  0  0  0  0
 10 11  1  0  0  0  0
 10 34  1  0  0  0  0
 10 44  1  0  0  0  0
 11 12  1  0  0  0  0
 11 35  1  0  0  0  0
 11 36  1  0  0  0  0
 12 13  1  0  0  0  0
 12 37  1  0  0  0  0
 12 38  1  0  0  0  0
 13 17  1  0  0  0  0
 13 14  2  0  0  0  0
 14 15  1  0  0  0  0
 15 16  2  0  0  0  0
 15 39  1  0  0  0  0
 16 17  1  0  0  0  0
 16 40  1  0  0  0  0
 17 18  1  0  0  0  0
 18 41  1  0  0  0  0
 18 42  1  0  0  0  0
 18 43  1  0  0  0  0
M  CHG  1  10   1
M  END
> <s_m_source_file>
AV-unprocessed.smi

> <i_m_source_file_index>
3284

> <i_lp_mmshare_version>
43012

> <i_f3d_flags>
0

> <s_epik_input>
W0NIM11DMT1bQ0hdW0NIMl1bQ0gyXVtDQEBIXShbQ0gzXSlbQ0BIXTFbQ0gyXVtOSF1bQ0gyXVtDSDJdYzJuW2NIXVtjSF1uMltDSDNd

> <s_epik_cmdline>
J2VwaWtfcHl0aG9uJywgJy1waCcsICc3LjAnLCAnLXRuJywgJzgnLCAnLW1hJywgJzIwMCcsICctbWV0YWxfYmluZGluZycsICctaW1hZScsICc8aW5maWxlLm1hZT4nLCAnLW9tYWUnLCAnPG91dGZpbGUubWFlPic=

> <r_lp_tautomer_probability>
1

> <r_epik_Ionization_Penalty>
0.150779

> <r_epik_Ionization_Penalty_Charging>
0.150779

> <r_epik_Ionization_Penalty_Neutral>
1.39452e-13

> <r_epik_State_Penalty>
0.349447

> <r_epik_Charging_Adjusted_Penalty>
0.500226

> <i_epik_Tot_Q>
1

> <i_epik_Tot_abs_Q>
1

> <r_epik_Metal_State_Penalty>
0.000470967

> <b_epik_Metal_Only>
0

> <s_lp_Force_Field>
OPLS_2005

> <r_lp_Energy>
12.7039

> <b_lp_Chiralities_Consistent>
1

> <s_lp_Variant>
AV-unprocessed.smi:3284-2

> <Gold.Version>
5.8.1

> <Gold.Id.Protein>
6NUR|6NUR_protein|mol2

> <Gold.PLP.Fitness>
45.0262

> <Gold.PLP.PLP>
-46.2677

> <Gold.PLP.part.hbond>
0.0000

> <Gold.PLP.part.metal>
0.0000

> <Gold.PLP.part.buried>
-5.4288

> <Gold.PLP.part.nonpolar>
-40.8116

> <Gold.PLP.part.repulsive>
0.0724

> <Gold.PLP.ligand.clash>
0.0000

> <Gold.PLP.ligand.torsion>
0.6486

> <Gold.PLP.Chemscore.Hbond>
0.0000

> <Gold.PLP.Chemscore.CHOScore>
0.0000

> <Gold.PLP.Chemscore.Metal>
0.0000

> <Gold.PLP.Chemscore.Internal.Correction>
0.0557

> <Gold.Rescore>
     Score         DG    S(hbond)    S(metal)    S(lipo)     H(rot)  DE(clash)    DE(int)     intcor
     16.01     -16.66       0.00        0.00     130.77       1.61       0.00       0.64       ----

> <Gold.Chemscore.Fitness>
16.0135

> <Gold.Chemscore.DG>
-16.6574

> <Gold.Chemscore.ZeroCoef>
-5.4800

> <Gold.Chemscore.Hbond>
0.0000

> <Gold.Chemscore.Metal>
0.0000

> <Gold.Chemscore.Lipo>
130.7730

> <Gold.Chemscore.Internal_Hbond>
0.0000

> <Gold.Chemscore.DEClash>
0.0000

> <Gold.Chemscore.DEInternal>
0.6440

> <Gold.Chemscore.Rot>
1.6105

> <Gold.Chemscore.Internal.Correction>
   9.000000E+99

> <Gold.Chemscore.Hbond.Weighted>
-0.0000

> <Gold.Chemscore.Metal.Weighted>
-0.0000

> <Gold.Chemscore.Lipo.Weighted>
-15.3004

> <Gold.Chemscore.Internal_Hbond.Weighted>
0.0000

> <Gold.Chemscore.DEClash.Weighted>
0.0000

> <Gold.Chemscore.DEInternal.Weighted>
0.6440

> <Gold.Chemscore.Rot.Weighted>
4.1230

> <Gold.Chemscore.Internal.Correction.Weighted>
   9.000000E+99

> <Gold.Protein.RotatedTorsions>
[ 6907 6896 6895 6894 ] final -101.30 input  -60.11 | X-H torsion
[ 7974 7965 7964 7962 ] final  176.54 input  175.53 | X-H torsion
[ 8008 7997 7996 7995 ] final  -97.42 input   59.86 | X-H torsion
[ 10167 10162 10161 10158 ] final  149.05 input  -65.29 | X-H torsion
[ 10718 10713 10712 10709 ] final  -89.06 input   66.30 | X-H torsion
[ 10763 10752 10751 10750 ] final -145.77 input  -60.55 | X-H torsion
[ 11005 11000 10999 10996 ] final  134.48 input  -57.11 | X-H torsion

> <Gold.Protein.ActiveResidues>
 VAL166  LYS551  ARG553  GLY616  TRP617  ASP618  TYR619  PRO620  LYS621  CYS622 
 ASP623  PHE694  ASN695  SER759  ASP760  ASP761  ALA762  ILE779  LEU786  VAL792 
 PHE793  MET794  SER795  GLU796  ALA797  LYS798  CYS799  TRP800  GLU811  SER814 

> <Gold.Protein.RotatedAtoms>
  150.7149  134.0755  159.3879 H   0  0  0  0  0  0  0  0  0  0  0  0  # atno 6907 bound_to 6896
  151.8738  135.0477  160.0491 H   0  0  0  0  0  0  0  0  0  0  0  0  # atno 6908 bound_to 6896
  152.2622  133.5272  159.5425 H   0  0  0  0  0  0  0  0  0  0  0  0  # atno 6909 bound_to 6896
  144.7182  140.0112  143.6440 H   0  0  0  0  0  0  0  0  0  0  0  0  # atno 7974 bound_to 7965
  154.7875  140.0463  157.1175 H   0  0  0  0  0  0  0  0  0  0  0  0  # atno 8008 bound_to 7997
  154.9631  140.3080  155.5002 H   0  0  0  0  0  0  0  0  0  0  0  0  # atno 8009 bound_to 7997
  156.2945  140.2267  156.4718 H   0  0  0  0  0  0  0  0  0  0  0  0  # atno 8010 bound_to 7997
  139.4866  144.5632  151.7193 H   0  0  0  0  0  0  0  0  0  0  0  0  # atno 10167 bound_to 10162
  155.9984  130.4858  150.5113 H   0  0  0  0  0  0  0  0  0  0  0  0  # atno 10718 bound_to 10713
  154.8367  135.3404  154.6557 H   0  0  0  0  0  0  0  0  0  0  0  0  # atno 10763 bound_to 10752
  153.7171  135.6960  153.5027 H   0  0  0  0  0  0  0  0  0  0  0  0  # atno 10764 bound_to 10752
  153.2408  135.4385  155.0649 H   0  0  0  0  0  0  0  0  0  0  0  0  # atno 10765 bound_to 10752
  139.9918  134.9512  156.9873 H   0  0  0  0  0  0  0  0  0  0  0  0  # atno 11005 bound_to 11000
  146.0257  139.3290  143.0786 LP  0  0  0  0  0  0  0  0  0  0  0  0  # atno 17320 bound_to 7965
  145.8514  140.9526  143.0747 LP  0  0  0  0  0  0  0  0  0  0  0  0  # atno 17321 bound_to 7965
  140.5205  144.0886  150.6021 LP  0  0  0  0  0  0  0  0  0  0  0  0  # atno 17342 bound_to 10162
  140.3843  143.2786  152.0135 LP  0  0  0  0  0  0  0  0  0  0  0  0  # atno 17343 bound_to 10162
  157.3086  131.0659  151.2017 LP  0  0  0  0  0  0  0  0  0  0  0  0  # atno 17370 bound_to 10713
  157.2971  130.6824  149.6144 LP  0  0  0  0  0  0  0  0  0  0  0  0  # atno 17371 bound_to 10713
  140.4894  134.1208  155.7230 LP  0  0  0  0  0  0  0  0  0  0  0  0  # atno 17394 bound_to 11000
  141.1572  133.8861  157.1946 LP  0  0  0  0  0  0  0  0  0  0  0  0  # atno 17395 bound_to 11000

$$$$
