AV-unprocessed.smi:2184|AV-procd|sdf|8869|dock4
  -GOLD-   2272012 63D 1   1.00000     0.00000
 Structure written by MMmdl.
 47 48  0  0  0  0  0  0  0  0  1 V2000
  148.7381  132.4876  154.5465 C   0  0  0  0  0  0  0  0  0  0  0  0
  149.6760  133.8917  153.8849 S   0  0  0  0  0  0  0  0  0  0  0  0
  149.7164  134.9969  155.3284 C   0  0  2  0  0  0  0  0  0  0  0  0
  148.2952  135.4691  155.6731 C   0  0  0  0  0  0  0  0  0  0  0  0
  150.6532  136.1914  155.1112 C   0  0  0  0  0  0  0  0  0  0  0  0
  151.6974  136.2878  155.7570 O   0  0  0  0  0  0  0  0  0  0  0  0
  150.2618  137.1041  154.2080 N   0  0  0  0  0  0  0  0  0  0  0  0
  150.9938  138.3238  153.8858 C   0  0  0  0  0  0  0  0  0  0  0  0
  151.2212  139.2219  155.0904 C   0  0  0  0  0  0  0  0  0  0  0  0
  152.2745  138.9691  155.9904 C   0  0  0  0  0  0  0  0  0  0  0  0
  152.4455  139.8223  157.0972 C   0  0  0  0  0  0  0  0  0  0  0  0
  151.5586  140.9111  157.2743 C   0  0  0  0  0  0  0  0  0  0  0  0
  151.7110  141.7768  158.3786 N   0  0  0  0  0  0  0  0  0  0  0  0
  151.7984  143.2118  158.1178 C   0  0  0  0  0  0  0  0  0  0  0  0
  151.6585  144.0063  159.4294 C   0  0  2  0  0  0  0  0  0  0  0  0
  151.8621  145.5098  159.2156 C   0  0  0  0  0  0  0  0  0  0  0  0
  152.6374  143.5493  160.3585 O   0  0  0  0  0  0  0  0  0  0  0  0
  152.4740  142.1725  160.6885 C   0  0  2  0  0  0  0  0  0  0  0  0
  153.5102  141.8083  161.7570 C   0  0  0  0  0  0  0  0  0  0  0  0
  152.6344  141.3219  159.4141 C   0  0  0  0  0  0  0  0  0  0  0  0
  150.5458  141.1500  156.4044 N   0  0  0  0  0  0  0  0  0  0  0  0
  150.3883  140.3305  155.3443 C   0  0  0  0  0  0  0  0  0  0  0  0
  148.5631  131.7524  153.7614 H   0  0  0  0  0  0  0  0  0  0  0  0
  147.7735  132.8182  154.9318 H   0  0  0  0  0  0  0  0  0  0  0  0
  149.2893  132.0018  155.3508 H   0  0  0  0  0  0  0  0  0  0  0  0
  150.0840  134.4109  156.1722 H   0  0  0  0  0  0  0  0  0  0  0  0
  148.2968  136.1417  156.5318 H   0  0  0  0  0  0  0  0  0  0  0  0
  147.6552  134.6226  155.9229 H   0  0  0  0  0  0  0  0  0  0  0  0
  147.8331  135.9956  154.8368 H   0  0  0  0  0  0  0  0  0  0  0  0
  149.3915  136.9490  153.7198 H   0  0  0  0  0  0  0  0  0  0  0  0
  151.9455  138.0740  153.4132 H   0  0  0  0  0  0  0  0  0  0  0  0
  150.4194  138.8815  153.1458 H   0  0  0  0  0  0  0  0  0  0  0  0
  152.9385  138.1300  155.8434 H   0  0  0  0  0  0  0  0  0  0  0  0
  153.2387  139.6227  157.8022 H   0  0  0  0  0  0  0  0  0  0  0  0
  152.7556  143.4332  157.6434 H   0  0  0  0  0  0  0  0  0  0  0  0
  151.0122  143.5154  157.4250 H   0  0  0  0  0  0  0  0  0  0  0  0
  150.6640  143.8475  159.8505 H   0  0  0  0  0  0  0  0  0  0  0  0
  151.1270  145.9098  158.5167 H   0  0  0  0  0  0  0  0  0  0  0  0
  152.8544  145.7204  158.8157 H   0  0  0  0  0  0  0  0  0  0  0  0
  151.7588  146.0541  160.1545 H   0  0  0  0  0  0  0  0  0  0  0  0
  151.4775  142.0211  161.1073 H   0  0  0  0  0  0  0  0  0  0  0  0
  153.4182  140.7629  162.0522 H   0  0  0  0  0  0  0  0  0  0  0  0
  153.3792  142.4189  162.6506 H   0  0  0  0  0  0  0  0  0  0  0  0
  154.5257  141.9654  161.3920 H   0  0  0  0  0  0  0  0  0  0  0  0
  152.4737  140.2741  159.6637 H   0  0  0  0  0  0  0  0  0  0  0  0
  153.6532  141.4039  159.0331 H   0  0  0  0  0  0  0  0  0  0  0  0
  149.5699  140.5676  154.6807 H   0  0  0  0  0  0  0  0  0  0  0  0
  1  2  1  0  0  0  0
  1 23  1  0  0  0  0
  1 24  1  0  0  0  0
  1 25  1  0  0  0  0
  2  3  1  0  0  0  0
  3  4  1  0  0  0  0
  3  5  1  0  0  0  0
  3 26  1  0  0  0  0
  4 27  1  0  0  0  0
  4 28  1  0  0  0  0
  4 29  1  0  0  0  0
  5  6  2  0  0  0  0
  5  7  1  0  0  0  0
  7  8  1  0  0  0  0
  7 30  1  0  0  0  0
  8  9  1  0  0  0  0
  8 31  1  0  0  0  0
  8 32  1  0  0  0  0
  9 22  1  0  0  0  0
  9 10  2  0  0  0  0
 10 11  1  0  0  0  0
 10 33  1  0  0  0  0
 11 12  2  0  0  0  0
 11 34  1  0  0  0  0
 12 13  1  0  0  0  0
 12 21  1  0  0  0  0
 13 20  1  0  0  0  0
 13 14  1  0  0  0  0
 14 15  1  0  0  0  0
 14 35  1  0  0  0  0
 14 36  1  0  0  0  0
 15 16  1  0  0  0  0
 15 17  1  0  0  0  0
 15 37  1  0  0  0  0
 16 38  1  0  0  0  0
 16 39  1  0  0  0  0
 16 40  1  0  0  0  0
 17 18  1  0  0  0  0
 18 19  1  0  0  0  0
 18 20  1  0  0  0  0
 18 41  1  0  0  0  0
 19 42  1  0  0  0  0
 19 43  1  0  0  0  0
 19 44  1  0  0  0  0
 20 45  1  0  0  0  0
 20 46  1  0  0  0  0
 21 22  2  0  0  0  0
 22 47  1  0  0  0  0
M  END
> <s_m_source_file>
AV-unprocessed.smi

> <i_m_source_file_index>
2184

> <i_lp_mmshare_version>
43012

> <i_f3d_flags>
0

> <s_epik_input>
W0NIM11TW0NASF0oW0NIM10pQyg9TylbTkhdW0NIMl1jMVtjSF1bY0hdYyhuW2NIXTEpTjJbQ0gyXVtDQEBIXShbQ0gzXSlPW0NAQEhdKFtDSDNdKVtDSDJdMg==

> <s_epik_cmdline>
J2VwaWtfcHl0aG9uJywgJy1waCcsICc3LjAnLCAnLXRuJywgJzgnLCAnLW1hJywgJzIwMCcsICctbWV0YWxfYmluZGluZycsICctaW1hZScsICc8aW5maWxlLm1hZT4nLCAnLW9tYWUnLCAnPG91dGZpbGUubWFlPic=

> <r_lp_tautomer_probability>
1

> <r_epik_Ionization_Penalty>
0.00551702

> <r_epik_Ionization_Penalty_Charging>
0

> <r_epik_Ionization_Penalty_Neutral>
0.00551702

> <r_epik_State_Penalty>
0.00403758

> <r_epik_Charging_Adjusted_Penalty>
0.00403758

> <i_epik_Tot_Q>
0

> <i_epik_Tot_abs_Q>
0

> <r_epik_Metal_State_Penalty>
-0

> <b_epik_Metal_Only>
0

> <s_lp_Force_Field>
OPLS_2005

> <r_lp_Energy>
14.0724

> <b_lp_Chiralities_Consistent>
1

> <s_lp_Variant>
AV-unprocessed.smi:2184-1

> <Gold.Version>
5.8.1

> <Gold.Id.Protein>
6NUR|6NUR_protein|mol2

> <Gold.PLP.Fitness>
47.6781

> <Gold.PLP.PLP>
-43.7162

> <Gold.PLP.part.hbond>
-2.8274

> <Gold.PLP.part.metal>
0.0000

> <Gold.PLP.part.buried>
-2.3398

> <Gold.PLP.part.nonpolar>
-37.4270

> <Gold.PLP.part.repulsive>
0.1685

> <Gold.PLP.ligand.clash>
0.0000

> <Gold.PLP.ligand.torsion>
0.6086

> <Gold.PLP.Chemscore.Hbond>
1.6084

> <Gold.PLP.Chemscore.CHOScore>
0.0000

> <Gold.PLP.Chemscore.Metal>
0.0000

> <Gold.Chemscore.Hbonds>
donor molecule, donor type, donor heavy atom, donor atom, acceptor molecule, acceptor atom, score
      L1  H     7    30       P1  7948  0.62
      P1  H 10752 10763       L1     6  1.00

> <Gold.PLP.Chemscore.Internal.Correction>
0.3538

> <Gold.Rescore>
     Score         DG    S(hbond)    S(metal)    S(lipo)     H(rot)  DE(clash)    DE(int)     intcor
     17.33     -19.43       1.24        0.00     118.60       1.59       0.14       1.96       ----

> <Gold.Chemscore.Fitness>
17.3256

> <Gold.Chemscore.DG>
-19.4251

> <Gold.Chemscore.ZeroCoef>
-5.4800

> <Gold.Chemscore.Hbond>
1.2431

> <Gold.Chemscore.Metal>
0.0000

> <Gold.Chemscore.Lipo>
118.5953

> <Gold.Chemscore.Internal_Hbond>
0.0000

> <Gold.Chemscore.DEClash>
0.1382

> <Gold.Chemscore.DEInternal>
1.9613

> <Gold.Chemscore.Rot>
1.5947

> <Gold.Chemscore.Internal.Correction>
   9.000000E+99

> <Gold.Chemscore.Hbonds>
donor molecule, donor type, donor heavy atom, donor atom, acceptor molecule, acceptor atom, score
      L1  H     7    30       P1  7948  0.55
      P1  H 10752 10763       L1     6  0.33

> <Gold.Chemscore.Hbond.Weighted>
-4.1519

> <Gold.Chemscore.Metal.Weighted>
-0.0000

> <Gold.Chemscore.Lipo.Weighted>
-13.8757

> <Gold.Chemscore.Internal_Hbond.Weighted>
0.0000

> <Gold.Chemscore.DEClash.Weighted>
0.1382

> <Gold.Chemscore.DEInternal.Weighted>
1.9613

> <Gold.Chemscore.Rot.Weighted>
4.0824

> <Gold.Chemscore.Internal.Correction.Weighted>
   9.000000E+99

> <Gold.Protein.RotatedTorsions>
[ 6907 6896 6895 6894 ] final  153.54 input  -60.11 | X-H torsion
[ 7974 7965 7964 7962 ] final -151.84 input  175.53 | X-H torsion
[ 8008 7997 7996 7995 ] final  -14.61 input   59.86 | X-H torsion
[ 10167 10162 10161 10158 ] final  -84.68 input  -65.29 | X-H torsion
[ 10718 10713 10712 10709 ] final  -38.02 input   66.30 | X-H torsion
[ 10763 10752 10751 10750 ] final   57.29 input  -60.55 | X-H torsion
[ 11005 11000 10999 10996 ] final -165.48 input  -57.11 | X-H torsion

> <Gold.Protein.ActiveResidues>
 VAL166  LYS551  ARG553  GLY616  TRP617  ASP618  TYR619  PRO620  LYS621  CYS622 
 ASP623  PHE694  ASN695  SER759  ASP760  ASP761  ALA762  ILE779  LEU786  VAL792 
 PHE793  MET794  SER795  GLU796  ALA797  LYS798  CYS799  TRP800  GLU811  SER814 

> <Gold.Protein.RotatedAtoms>
  152.0712  133.4107  159.4459 H   0  0  0  0  0  0  0  0  0  0  0  0  # atno 6907 bound_to 6896
  150.6863  134.3089  159.4747 H   0  0  0  0  0  0  0  0  0  0  0  0  # atno 6908 bound_to 6896
  152.0921  134.9399  160.0622 H   0  0  0  0  0  0  0  0  0  0  0  0  # atno 6909 bound_to 6896
  144.7827  140.4743  143.5828 H   0  0  0  0  0  0  0  0  0  0  0  0  # atno 7974 bound_to 7965
  154.5196  140.2218  155.9001 H   0  0  0  0  0  0  0  0  0  0  0  0  # atno 8008 bound_to 7997
  156.1647  140.3135  155.8833 H   0  0  0  0  0  0  0  0  0  0  0  0  # atno 8009 bound_to 7997
  155.3681  140.0465  157.3036 H   0  0  0  0  0  0  0  0  0  0  0  0  # atno 8010 bound_to 7997
  140.4109  143.2623  151.9019 H   0  0  0  0  0  0  0  0  0  0  0  0  # atno 10167 bound_to 10162
  156.3086  130.4249  149.8073 H   0  0  0  0  0  0  0  0  0  0  0  0  # atno 10718 bound_to 10713
  152.9847  135.5647  154.5366 H   0  0  0  0  0  0  0  0  0  0  0  0  # atno 10763 bound_to 10752
  154.4828  135.2789  155.1559 H   0  0  0  0  0  0  0  0  0  0  0  0  # atno 10764 bound_to 10752
  154.3061  135.6298  153.5498 H   0  0  0  0  0  0  0  0  0  0  0  0  # atno 10765 bound_to 10752
  140.5752  134.5197  157.5169 H   0  0  0  0  0  0  0  0  0  0  0  0  # atno 11005 bound_to 11000
  145.6005  139.1503  143.3131 LP  0  0  0  0  0  0  0  0  0  0  0  0  # atno 17320 bound_to 7965
  146.2044  140.6127  142.9088 LP  0  0  0  0  0  0  0  0  0  0  0  0  # atno 17321 bound_to 7965
  139.4782  144.5538  151.8346 LP  0  0  0  0  0  0  0  0  0  0  0  0  # atno 17342 bound_to 10162
  140.4639  144.1683  150.5909 LP  0  0  0  0  0  0  0  0  0  0  0  0  # atno 17343 bound_to 10162
  156.5424  130.8306  151.3273 LP  0  0  0  0  0  0  0  0  0  0  0  0  # atno 17370 bound_to 10713
  157.7385  130.9815  150.2259 LP  0  0  0  0  0  0  0  0  0  0  0  0  # atno 17371 bound_to 10713
  139.9343  134.7905  156.0846 LP  0  0  0  0  0  0  0  0  0  0  0  0  # atno 17394 bound_to 11000
  141.1031  133.6670  156.2800 LP  0  0  0  0  0  0  0  0  0  0  0  0  # atno 17395 bound_to 11000

$$$$
