AV-unprocessed.smi:2044|AV-procd|sdf|8303|dock3
  -GOLD-   2272010573D 1   1.00000     0.00000
 Structure written by MMmdl.
 38 39  0  0  0  0  0  0  0  0  2 V2000
  142.6909  144.0037  161.8451 C   0  0  0  0  0  0  0  0  0  0  0  0
  143.9238  143.7316  161.0531 C   0  0  0  0  0  0  0  0  0  0  0  0
  145.0818  143.0653  161.3382 C   0  0  0  0  0  0  0  0  0  0  0  0
  145.8332  143.1914  160.1378 C   0  0  0  0  0  0  0  0  0  0  0  0
  147.0548  142.6826  159.9141 N   0  5  0  0  0  0  0  0  0  0  0  0
  147.6765  142.8961  158.7315 C   0  0  0  0  0  0  0  0  0  0  0  0
  147.1308  143.1082  157.6460 O   0  0  0  0  0  0  0  0  0  0  0  0
  149.0145  142.8681  158.8130 N   0  0  0  0  0  0  0  0  0  0  0  0
  149.9453  143.0912  157.7090 C   0  0  0  0  0  0  0  0  0  0  0  0
  151.4195  143.2883  158.1698 C   0  0  1  0  0  0  0  0  0  0  0  0
  151.5260  144.6245  158.9486 C   0  0  0  0  0  0  0  0  0  0  0  0
  151.9557  142.1374  158.9341 N   0  0  0  0  0  0  0  0  0  0  0  0
  153.2738  142.4174  159.5157 C   0  0  0  0  0  0  0  0  0  0  0  0
  153.8537  141.2205  160.2886 C   0  0  0  0  0  0  0  0  0  0  0  0
  153.9314  140.0896  159.4321 O   0  0  0  0  0  0  0  0  0  0  0  0
  152.6612  139.7338  158.9042 C   0  0  0  0  0  0  0  0  0  0  0  0
  152.0702  140.9202  158.1224 C   0  0  0  0  0  0  0  0  0  0  0  0
  145.1821  143.8611  159.2017 N   0  0  0  0  0  0  0  0  0  0  0  0
  143.9589  144.2163  159.7828 O   0  0  0  0  0  0  0  0  0  0  0  0
  142.1250  143.0858  162.0033 H   0  0  0  0  0  0  0  0  0  0  0  0
  142.0439  144.7161  161.3326 H   0  0  0  0  0  0  0  0  0  0  0  0
  142.9426  144.4187  162.8212 H   0  0  0  0  0  0  0  0  0  0  0  0
  145.3515  142.5698  162.2586 H   0  0  0  0  0  0  0  0  0  0  0  0
  149.4189  142.6880  159.7202 H   0  0  0  0  0  0  0  0  0  0  0  0
  149.8789  142.2370  157.0346 H   0  0  0  0  0  0  0  0  0  0  0  0
  149.5703  143.9505  157.1547 H   0  0  0  0  0  0  0  0  0  0  0  0
  152.0246  143.3989  157.2689 H   0  0  0  0  0  0  0  0  0  0  0  0
  151.0876  145.4598  158.4038 H   0  0  0  0  0  0  0  0  0  0  0  0
  152.5589  144.9179  159.1286 H   0  0  0  0  0  0  0  0  0  0  0  0
  151.0189  144.5603  159.9117 H   0  0  0  0  0  0  0  0  0  0  0  0
  153.9701  142.7109  158.7287 H   0  0  0  0  0  0  0  0  0  0  0  0
  153.2168  143.2500  160.2144 H   0  0  0  0  0  0  0  0  0  0  0  0
  154.8520  141.4563  160.6571 H   0  0  0  0  0  0  0  0  0  0  0  0
  153.2382  140.9876  161.1589 H   0  0  0  0  0  0  0  0  0  0  0  0
  152.7775  138.8700  158.2498 H   0  0  0  0  0  0  0  0  0  0  0  0
  151.9933  139.4344  159.7136 H   0  0  0  0  0  0  0  0  0  0  0  0
  151.0933  140.6031  157.7635 H   0  0  0  0  0  0  0  0  0  0  0  0
  152.6845  141.1180  157.2425 H   0  0  0  0  0  0  0  0  0  0  0  0
  1  2  1  0  0  0  0
  1 20  1  0  0  0  0
  1 21  1  0  0  0  0
  1 22  1  0  0  0  0
  2 19  1  0  0  0  0
  2  3  2  0  0  0  0
  3  4  1  0  0  0  0
  3 23  1  0  0  0  0
  4  5  1  0  0  0  0
  4 18  2  0  0  0  0
  5  6  1  0  0  0  0
  6  7  2  0  0  0  0
  6  8  1  0  0  0  0
  8  9  1  0  0  0  0
  8 24  1  0  0  0  0
  9 10  1  0  0  0  0
  9 25  1  0  0  0  0
  9 26  1  0  0  0  0
 10 11  1  0  0  0  0
 10 12  1  0  0  0  0
 10 27  1  0  0  0  0
 11 28  1  0  0  0  0
 11 29  1  0  0  0  0
 11 30  1  0  0  0  0
 12 17  1  0  0  0  0
 12 13  1  0  0  0  0
 13 14  1  0  0  0  0
 13 31  1  0  0  0  0
 13 32  1  0  0  0  0
 14 15  1  0  0  0  0
 14 33  1  0  0  0  0
 14 34  1  0  0  0  0
 15 16  1  0  0  0  0
 16 17  1  0  0  0  0
 16 35  1  0  0  0  0
 16 36  1  0  0  0  0
 17 37  1  0  0  0  0
 17 38  1  0  0  0  0
 18 19  1  0  0  0  0
M  CHG  1   5  -1
M  END
> <s_m_source_file>
AV-unprocessed.smi

> <i_m_source_file_index>
2044

> <i_lp_mmshare_version>
43012

> <i_f3d_flags>
0

> <s_epik_input>
W0NIM11jMVtjSF1jKG5vMSlbTkhdQyg9TylbTkhdW0NIMl1bQ0BIXShbQ0gzXSlOMltDSDJdW0NIMl1PW0NIMl1bQ0gyXTI=

> <s_epik_cmdline>
J2VwaWtfcHl0aG9uJywgJy1waCcsICc3LjAnLCAnLXRuJywgJzgnLCAnLW1hJywgJzIwMCcsICctbWV0YWxfYmluZGluZycsICctaW1hZScsICc8aW5maWxlLm1hZT4nLCAnLW9tYWUnLCAnPG91dGZpbGUubWFlPic=

> <r_epik_Ionization_Penalty>
6.88367

> <r_epik_Ionization_Penalty_Charging>
6.57198

> <r_epik_Ionization_Penalty_Neutral>
0.311681

> <r_epik_State_Penalty>
6.77619

> <r_epik_Charging_Adjusted_Penalty>
13.3482

> <i_epik_Tot_Q>
-1

> <i_epik_Tot_abs_Q>
1

> <r_epik_Metal_State_Penalty>
2.70533

> <b_epik_Metal_Only>
1

> <s_lp_Force_Field>
OPLS_2005

> <r_lp_Energy>
21.654

> <b_lp_Chiralities_Consistent>
1

> <s_lp_Variant>
AV-unprocessed.smi:2044-6

> <Gold.Version>
5.8.1

> <Gold.Id.Protein>
6NUR|6NUR_protein|mol2

> <Gold.PLP.Fitness>
37.9954

> <Gold.PLP.PLP>
-28.7396

> <Gold.PLP.part.hbond>
-2.0000

> <Gold.PLP.part.metal>
0.0000

> <Gold.PLP.part.buried>
-2.7952

> <Gold.PLP.part.nonpolar>
-25.9439

> <Gold.PLP.part.repulsive>
0.7999

> <Gold.PLP.ligand.clash>
0.0000

> <Gold.PLP.ligand.torsion>
0.3193

> <Gold.PLP.Chemscore.Hbond>
3.2820

> <Gold.PLP.Chemscore.CHOScore>
0.0000

> <Gold.PLP.Chemscore.Metal>
0.0000

> <Gold.Chemscore.Hbonds>
donor molecule, donor type, donor heavy atom, donor atom, acceptor molecule, acceptor atom, score
      P1  H  6933  6944       L1     5  1.20
      P1  H  6934  6946       L1     5  1.70

> <Gold.PLP.Chemscore.Internal.Correction>
0.0485

> <Gold.Rescore>
     Score         DG    S(hbond)    S(metal)    S(lipo)     H(rot)  DE(clash)    DE(int)     intcor
     11.79     -13.89       0.81        0.00      82.77       1.55       0.27       1.83       ----

> <Gold.Chemscore.Fitness>
11.7937

> <Gold.Chemscore.DG>
-13.8947

> <Gold.Chemscore.ZeroCoef>
-5.4800

> <Gold.Chemscore.Hbond>
0.8055

> <Gold.Chemscore.Metal>
0.0000

> <Gold.Chemscore.Lipo>
82.7734

> <Gold.Chemscore.Internal_Hbond>
0.0000

> <Gold.Chemscore.DEClash>
0.2675

> <Gold.Chemscore.DEInternal>
1.8334

> <Gold.Chemscore.Rot>
1.5470

> <Gold.Chemscore.Internal.Correction>
   9.000000E+99

> <Gold.Chemscore.Hbonds>
donor molecule, donor type, donor heavy atom, donor atom, acceptor molecule, acceptor atom, score
      P1  H  6933  6944       L1     5  0.43
      P1  H  6934  6946       L1     5  0.32

> <Gold.Chemscore.Hbond.Weighted>
-2.6904

> <Gold.Chemscore.Metal.Weighted>
-0.0000

> <Gold.Chemscore.Lipo.Weighted>
-9.6845

> <Gold.Chemscore.Internal_Hbond.Weighted>
0.0000

> <Gold.Chemscore.DEClash.Weighted>
0.2675

> <Gold.Chemscore.DEInternal.Weighted>
1.8334

> <Gold.Chemscore.Rot.Weighted>
3.9603

> <Gold.Chemscore.Internal.Correction.Weighted>
   9.000000E+99

> <Gold.Protein.RotatedTorsions>
[ 6907 6896 6895 6894 ] final  165.68 input  -60.11 | X-H torsion
[ 7974 7965 7964 7962 ] final   35.96 input  175.53 | X-H torsion
[ 8008 7997 7996 7995 ] final -169.64 input   59.86 | X-H torsion
[ 10167 10162 10161 10158 ] final  108.62 input  -65.29 | X-H torsion
[ 10718 10713 10712 10709 ] final -111.79 input   66.30 | X-H torsion
[ 10763 10752 10751 10750 ] final  -51.42 input  -60.55 | X-H torsion
[ 11005 11000 10999 10996 ] final -142.20 input  -57.11 | X-H torsion

> <Gold.Protein.ActiveResidues>
 VAL166  LYS551  ARG553  GLY616  TRP617  ASP618  TYR619  PRO620  LYS621  CYS622 
 ASP623  PHE694  ASN695  SER759  ASP760  ASP761  ALA762  ILE779  LEU786  VAL792 
 PHE793  MET794  SER795  GLU796  ALA797  LYS798  CYS799  TRP800  GLU811  SER814 

> <Gold.Protein.RotatedAtoms>
  151.8907  133.3515  159.3797 H   0  0  0  0  0  0  0  0  0  0  0  0  # atno 6907 bound_to 6896
  150.7104  134.4926  159.5532 H   0  0  0  0  0  0  0  0  0  0  0  0  # atno 6908 bound_to 6896
  152.2496  134.8147  160.0499 H   0  0  0  0  0  0  0  0  0  0  0  0  # atno 6909 bound_to 6896
  146.1245  139.6076  142.9267 H   0  0  0  0  0  0  0  0  0  0  0  0  # atno 7974 bound_to 7965
  155.9077  140.1052  157.1303 H   0  0  0  0  0  0  0  0  0  0  0  0  # atno 8008 bound_to 7997
  154.4035  140.1280  156.4581 H   0  0  0  0  0  0  0  0  0  0  0  0  # atno 8009 bound_to 7997
  155.7348  140.3468  155.5078 H   0  0  0  0  0  0  0  0  0  0  0  0  # atno 8010 bound_to 7997
  139.6832  144.7116  151.1479 H   0  0  0  0  0  0  0  0  0  0  0  0  # atno 10167 bound_to 10162
  156.0667  130.5886  150.8421 H   0  0  0  0  0  0  0  0  0  0  0  0  # atno 10718 bound_to 10713
  154.1262  135.6527  153.4913 H   0  0  0  0  0  0  0  0  0  0  0  0  # atno 10763 bound_to 10752
  153.0209  135.5282  154.7047 H   0  0  0  0  0  0  0  0  0  0  0  0  # atno 10764 bound_to 10752
  154.6269  135.2971  155.0232 H   0  0  0  0  0  0  0  0  0  0  0  0  # atno 10765 bound_to 10752
  140.8249  134.2587  157.4883 H   0  0  0  0  0  0  0  0  0  0  0  0  # atno 11005 bound_to 11000
  145.5394  141.0422  143.2339 LP  0  0  0  0  0  0  0  0  0  0  0  0  # atno 17320 bound_to 7965
  144.7629  139.6913  143.7227 LP  0  0  0  0  0  0  0  0  0  0  0  0  # atno 17321 bound_to 7965
  140.7659  143.5668  150.9038 LP  0  0  0  0  0  0  0  0  0  0  0  0  # atno 17342 bound_to 10162
  139.9342  143.6458  152.3069 LP  0  0  0  0  0  0  0  0  0  0  0  0  # atno 17343 bound_to 10162
  157.5714  131.0946  150.9412 LP  0  0  0  0  0  0  0  0  0  0  0  0  # atno 17370 bound_to 10713
  156.9628  130.5461  149.5286 LP  0  0  0  0  0  0  0  0  0  0  0  0  # atno 17371 bound_to 10713
  139.8707  134.9555  156.4209 LP  0  0  0  0  0  0  0  0  0  0  0  0  # atno 17394 bound_to 11000
  140.9060  133.7746  155.9735 LP  0  0  0  0  0  0  0  0  0  0  0  0  # atno 17395 bound_to 11000

$$$$
