AV-unprocessed.smi:3149|AV-procd|sdf|12004|dock10
  -GOLD-   2272017413D 1   1.00000     0.00000
 Structure written by MMmdl.
 37 38  0  0  0  0  0  0  0  0  1 V2000
  150.0556  140.0500  154.6242 C   0  0  0  0  0  0  0  0  0  0  0  0
  148.9868  140.9449  155.2891 C   0  0  1  0  0  0  0  0  0  0  0  0
  149.6188  142.1706  155.7704 N   0  0  0  0  0  0  0  0  0  0  0  0
  150.9076  141.9376  156.4337 C   0  0  0  0  0  0  0  0  0  0  0  0
  150.8149  142.2127  157.9366 C   0  0  0  0  0  0  0  0  0  0  0  0
  150.6481  141.2823  158.7252 O   0  0  0  0  0  0  0  0  0  0  0  0
  151.0173  143.5242  158.3750 N   0  0  0  0  0  0  0  0  0  0  0  0
  151.5130  143.8009  159.7145 C   0  0  0  0  0  0  0  0  0  0  0  0
  152.1255  145.0673  159.1070 C   0  0  0  0  0  0  0  0  0  0  0  0
  151.9761  144.4097  157.7310 C   0  0  0  0  0  0  0  0  0  0  0  0
  147.8354  141.3419  154.3244 C   0  0  2  0  0  0  0  0  0  0  0  0
  146.7726  142.2282  155.0041 C   0  0  0  0  0  0  0  0  0  0  0  0
  147.1995  140.1788  153.7167 N   0  0  0  0  0  0  0  0  0  0  0  0
  147.1705  139.8224  152.3840 C   0  0  0  0  0  0  0  0  0  0  0  0
  146.4651  138.6572  152.2874 C   0  0  0  0  0  0  0  0  0  0  0  0
  146.0954  138.3734  153.6314 C   0  0  0  0  0  0  0  0  0  0  0  0
  146.5348  139.2844  154.4840 N   0  0  0  0  0  0  0  0  0  0  0  0
  149.6335  139.1037  154.2860 H   0  0  0  0  0  0  0  0  0  0  0  0
  150.8622  139.7955  155.3108 H   0  0  0  0  0  0  0  0  0  0  0  0
  150.4995  140.5414  153.7578 H   0  0  0  0  0  0  0  0  0  0  0  0
  148.5503  140.4039  156.1305 H   0  0  0  0  0  0  0  0  0  0  0  0
  149.7008  142.8341  155.0131 H   0  0  0  0  0  0  0  0  0  0  0  0
  151.2414  140.9127  156.2648 H   0  0  0  0  0  0  0  0  0  0  0  0
  151.6707  142.5925  156.0141 H   0  0  0  0  0  0  0  0  0  0  0  0
  150.7280  143.9808  160.4495 H   0  0  0  0  0  0  0  0  0  0  0  0
  152.2613  143.0849  160.0608 H   0  0  0  0  0  0  0  0  0  0  0  0
  151.5008  145.9534  159.2332 H   0  0  0  0  0  0  0  0  0  0  0  0
  153.1577  145.2532  159.4050 H   0  0  0  0  0  0  0  0  0  0  0  0
  152.8850  143.9053  157.3982 H   0  0  0  0  0  0  0  0  0  0  0  0
  151.5442  145.0528  156.9638 H   0  0  0  0  0  0  0  0  0  0  0  0
  148.2659  141.9187  153.5035 H   0  0  0  0  0  0  0  0  0  0  0  0
  147.1960  143.1750  155.3389 H   0  0  0  0  0  0  0  0  0  0  0  0
  146.3370  141.7358  155.8741 H   0  0  0  0  0  0  0  0  0  0  0  0
  145.9612  142.4640  154.3146 H   0  0  0  0  0  0  0  0  0  0  0  0
  147.6504  140.4203  151.6233 H   0  0  0  0  0  0  0  0  0  0  0  0
  146.2466  138.0934  151.3927 H   0  0  0  0  0  0  0  0  0  0  0  0
  145.5248  137.5381  154.0103 H   0  0  0  0  0  0  0  0  0  0  0  0
  1  2  1  0  0  0  0
  1 18  1  0  0  0  0
  1 19  1  0  0  0  0
  1 20  1  0  0  0  0
  2  3  1  0  0  0  0
  2 11  1  0  0  0  0
  2 21  1  0  0  0  0
  3  4  1  0  0  0  0
  3 22  1  0  0  0  0
  4  5  1  0  0  0  0
  4 23  1  0  0  0  0
  4 24  1  0  0  0  0
  5  6  2  0  0  0  0
  5  7  1  0  0  0  0
  7 10  1  0  0  0  0
  7  8  1  0  0  0  0
  8  9  1  0  0  0  0
  8 25  1  0  0  0  0
  8 26  1  0  0  0  0
  9 10  1  0  0  0  0
  9 27  1  0  0  0  0
  9 28  1  0  0  0  0
 10 29  1  0  0  0  0
 10 30  1  0  0  0  0
 11 12  1  0  0  0  0
 11 13  1  0  0  0  0
 11 31  1  0  0  0  0
 12 32  1  0  0  0  0
 12 33  1  0  0  0  0
 12 34  1  0  0  0  0
 13 17  1  0  0  0  0
 13 14  1  0  0  0  0
 14 15  2  0  0  0  0
 14 35  1  0  0  0  0
 15 16  1  0  0  0  0
 15 36  1  0  0  0  0
 16 17  2  0  0  0  0
 16 37  1  0  0  0  0
M  END
> <s_m_source_file>
AV-unprocessed.smi

> <i_m_source_file_index>
3149

> <i_lp_mmshare_version>
43012

> <i_f3d_flags>
0

> <s_epik_input>
bjFbY0hdW2NIXVtjSF1uMVtDQEBIXShbQ0gzXSlbQ0BIXShbQ0gzXSlbTkhdW0NIMl1DKD1PKU4yW0NIMl1bQ0gyXVtDSDJdMg==

> <s_epik_cmdline>
J2VwaWtfcHl0aG9uJywgJy1waCcsICc3LjAnLCAnLXRuJywgJzgnLCAnLW1hJywgJzIwMCcsICctbWV0YWxfYmluZGluZycsICctaW1hZScsICc8aW5maWxlLm1hZT4nLCAnLW9tYWUnLCAnPG91dGZpbGUubWFlPic=

> <r_lp_tautomer_probability>
1

> <r_epik_Ionization_Penalty>
0.918674

> <r_epik_Ionization_Penalty_Charging>
0

> <r_epik_Ionization_Penalty_Neutral>
0.918674

> <r_epik_State_Penalty>
0.958258

> <r_epik_Charging_Adjusted_Penalty>
0.958258

> <i_epik_Tot_Q>
0

> <i_epik_Tot_abs_Q>
0

> <r_epik_Metal_State_Penalty>
0.956881

> <b_epik_Metal_Only>
0

> <s_lp_Force_Field>
OPLS_2005

> <r_lp_Energy>
23.4298

> <b_lp_Chiralities_Consistent>
1

> <s_lp_Variant>
AV-unprocessed.smi:3149-6

> <Gold.Version>
5.8.1

> <Gold.Id.Protein>
6NUR|6NUR_protein|mol2

> <Gold.PLP.Fitness>
38.8933

> <Gold.PLP.PLP>
-37.7128

> <Gold.PLP.part.hbond>
-1.0000

> <Gold.PLP.part.metal>
0.0000

> <Gold.PLP.part.buried>
-1.6355

> <Gold.PLP.part.nonpolar>
-35.4174

> <Gold.PLP.part.repulsive>
0.1013

> <Gold.PLP.ligand.clash>
0.0000

> <Gold.PLP.ligand.torsion>
1.2502

> <Gold.PLP.Chemscore.Hbond>
0.0746

> <Gold.PLP.Chemscore.CHOScore>
0.8510

> <Gold.PLP.Chemscore.Metal>
0.0000

> <Gold.Chemscore.Hbonds>
donor molecule, donor type, donor heavy atom, donor atom, acceptor molecule, acceptor atom, score
      L1  H     3    22       P1  8028  0.14
      L1  C    14    35       P1  7957  0.76

> <Gold.PLP.Chemscore.Internal.Correction>
0.9041

> <Gold.Rescore>
     Score         DG    S(hbond)    S(metal)    S(lipo)     H(rot)  DE(clash)    DE(int)     intcor
     11.84     -13.68       0.66        0.00      90.39       1.79       0.35       1.49       ----

> <Gold.Chemscore.Fitness>
11.8417

> <Gold.Chemscore.DG>
-13.6834

> <Gold.Chemscore.ZeroCoef>
-5.4800

> <Gold.Chemscore.Hbond>
0.6598

> <Gold.Chemscore.Metal>
0.0000

> <Gold.Chemscore.Lipo>
90.3882

> <Gold.Chemscore.Internal_Hbond>
0.0000

> <Gold.Chemscore.DEClash>
0.3532

> <Gold.Chemscore.DEInternal>
1.4886

> <Gold.Chemscore.Rot>
1.7874

> <Gold.Chemscore.Internal.Correction>
   9.000000E+99

> <Gold.Chemscore.Hbonds>
donor molecule, donor type, donor heavy atom, donor atom, acceptor molecule, acceptor atom, score
      L1  H     3    22       P1  8028  0.14

> <Gold.Chemscore.Hbond.Weighted>
-2.2039

> <Gold.Chemscore.Metal.Weighted>
-0.0000

> <Gold.Chemscore.Lipo.Weighted>
-10.5754

> <Gold.Chemscore.Internal_Hbond.Weighted>
0.0000

> <Gold.Chemscore.DEClash.Weighted>
0.3532

> <Gold.Chemscore.DEInternal.Weighted>
1.4886

> <Gold.Chemscore.Rot.Weighted>
4.5758

> <Gold.Chemscore.Internal.Correction.Weighted>
   9.000000E+99

> <Gold.Protein.RotatedTorsions>
[ 6907 6896 6895 6894 ] final   91.57 input  -60.11 | X-H torsion
[ 7974 7965 7964 7962 ] final  113.06 input  175.53 | X-H torsion
[ 8008 7997 7996 7995 ] final  -77.44 input   59.86 | X-H torsion
[ 10167 10162 10161 10158 ] final  -29.93 input  -65.29 | X-H torsion
[ 10718 10713 10712 10709 ] final   57.75 input   66.30 | X-H torsion
[ 10763 10752 10751 10750 ] final  141.25 input  -60.55 | X-H torsion
[ 11005 11000 10999 10996 ] final -173.79 input  -57.11 | X-H torsion

> <Gold.Protein.ActiveResidues>
 VAL166  LYS551  ARG553  GLY616  TRP617  ASP618  TYR619  PRO620  LYS621  CYS622 
 ASP623  PHE694  ASN695  SER759  ASP760  ASP761  ALA762  ILE779  LEU786  VAL792 
 PHE793  MET794  SER795  GLU796  ALA797  LYS798  CYS799  TRP800  GLU811  SER814 

> <Gold.Protein.RotatedAtoms>
  152.5450  134.1636  159.8567 H   0  0  0  0  0  0  0  0  0  0  0  0  # atno 6907 bound_to 6896
  151.1652  133.4812  159.2601 H   0  0  0  0  0  0  0  0  0  0  0  0  # atno 6908 bound_to 6896
  151.1331  135.0152  159.8647 H   0  0  0  0  0  0  0  0  0  0  0  0  # atno 6909 bound_to 6896
  145.2217  139.2859  143.4215 H   0  0  0  0  0  0  0  0  0  0  0  0  # atno 7974 bound_to 7965
  154.5596  140.0710  156.8798 H   0  0  0  0  0  0  0  0  0  0  0  0  # atno 8008 bound_to 7997
  155.2837  140.3373  155.4238 H   0  0  0  0  0  0  0  0  0  0  0  0  # atno 8009 bound_to 7997
  156.2031  140.1729  156.7843 H   0  0  0  0  0  0  0  0  0  0  0  0  # atno 8010 bound_to 7997
  140.7255  143.3889  151.1465 H   0  0  0  0  0  0  0  0  0  0  0  0  # atno 10167 bound_to 10162
  157.5540  130.8787  149.9007 H   0  0  0  0  0  0  0  0  0  0  0  0  # atno 10718 bound_to 10713
  153.9361  135.2985  155.3444 H   0  0  0  0  0  0  0  0  0  0  0  0  # atno 10763 bound_to 10752
  154.7501  135.4984  153.9277 H   0  0  0  0  0  0  0  0  0  0  0  0  # atno 10764 bound_to 10752
  153.1066  135.6748  153.9681 H   0  0  0  0  0  0  0  0  0  0  0  0  # atno 10765 bound_to 10752
  140.4818  134.6068  157.4922 H   0  0  0  0  0  0  0  0  0  0  0  0  # atno 11005 bound_to 11000
  146.3374  140.2525  142.8599 LP  0  0  0  0  0  0  0  0  0  0  0  0  # atno 17320 bound_to 7965
  144.9759  140.8413  143.5426 LP  0  0  0  0  0  0  0  0  0  0  0  0  # atno 17321 bound_to 7965
  139.7491  143.8806  152.3072 LP  0  0  0  0  0  0  0  0  0  0  0  0  # atno 17342 bound_to 10162
  139.8654  144.7096  150.9050 LP  0  0  0  0  0  0  0  0  0  0  0  0  # atno 17343 bound_to 10162
  156.0602  130.3701  150.0999 LP  0  0  0  0  0  0  0  0  0  0  0  0  # atno 17370 bound_to 10713
  156.9170  130.9670  151.3554 LP  0  0  0  0  0  0  0  0  0  0  0  0  # atno 17371 bound_to 10713
  139.9822  134.7119  155.9839 LP  0  0  0  0  0  0  0  0  0  0  0  0  # atno 17394 bound_to 11000
  141.1528  133.6546  156.4065 LP  0  0  0  0  0  0  0  0  0  0  0  0  # atno 17395 bound_to 11000

$$$$
