AV-unprocessed.smi:1385|AV-procd|sdf|5633|dock4
  -GOLD-   22720 5253D 1   1.00000     0.00000
 Structure written by MMmdl.
 38 39  0  0  0  0  0  0  0  0  3 V2000
  154.2598  141.0557  160.1064 C   0  0  0  0  0  0  0  0  0  0  0  0
  153.2093  141.1651  159.0551 C   0  0  0  0  0  0  0  0  0  0  0  0
  153.0151  140.2266  158.1254 N   0  0  0  0  0  0  0  0  0  0  0  0
  151.9796  140.5529  157.2620 N   0  0  0  0  0  0  0  0  0  0  0  0
  151.3993  141.7249  157.5561 C   0  0  0  0  0  0  0  0  0  0  0  0
  150.3785  142.2217  156.8377 N   0  5  0  0  0  0  0  0  0  0  0  0
  149.8492  141.4976  155.8262 C   0  0  0  0  0  0  0  0  0  0  0  0
  150.1875  140.3631  155.4815 O   0  0  0  0  0  0  0  0  0  0  0  0
  148.8684  142.1333  155.1700 N   0  0  0  0  0  0  0  0  0  0  0  0
  148.1188  141.6206  154.0238 C   0  0  2  0  0  0  0  0  0  0  0  0
  147.0337  142.6136  153.5614 C   0  0  0  0  0  0  0  0  0  0  0  0
  145.8929  142.7324  154.5869 C   0  0  0  0  0  0  0  0  0  0  0  0
  145.2939  141.4022  154.8772 N   0  3  2  0  0  0  0  0  0  0  0  0
  144.1010  141.4808  155.7594 C   0  0  0  0  0  0  0  0  0  0  0  0
  143.4330  140.1208  155.9878 C   0  0  0  0  0  0  0  0  0  0  0  0
  142.9677  139.4889  154.9077 N   0  0  0  0  0  0  0  0  0  0  0  0
  143.3208  139.6531  157.1196 O   0  0  0  0  0  0  0  0  0  0  0  0
  146.3086  140.4414  155.3801 C   0  0  0  0  0  0  0  0  0  0  0  0
  147.4648  140.2739  154.3766 C   0  0  0  0  0  0  0  0  0  0  0  0
  152.1223  142.5389  158.9433 S   0  0  0  0  0  0  0  0  0  0  0  0
  153.8515  140.5643  160.9894 H   0  0  0  0  0  0  0  0  0  0  0  0
  154.6145  142.0472  160.3884 H   0  0  0  0  0  0  0  0  0  0  0  0
  155.1064  140.4745  159.7399 H   0  0  0  0  0  0  0  0  0  0  0  0
  148.6252  143.0561  155.4990 H   0  0  0  0  0  0  0  0  0  0  0  0
  148.8220  141.4546  153.2059 H   0  0  0  0  0  0  0  0  0  0  0  0
  147.4666  143.5962  153.3701 H   0  0  0  0  0  0  0  0  0  0  0  0
  146.6225  142.2767  152.6089 H   0  0  0  0  0  0  0  0  0  0  0  0
  146.2613  143.1790  155.5119 H   0  0  0  0  0  0  0  0  0  0  0  0
  145.1325  143.4081  154.1949 H   0  0  0  0  0  0  0  0  0  0  0  0
  144.3951  141.8499  156.7428 H   0  0  0  0  0  0  0  0  0  0  0  0
  143.3844  142.1992  155.3573 H   0  0  0  0  0  0  0  0  0  0  0  0
  142.5201  138.5882  154.9993 H   0  0  0  0  0  0  0  0  0  0  0  0
  143.0672  139.9147  153.9970 H   0  0  0  0  0  0  0  0  0  0  0  0
  146.6864  140.7818  156.3455 H   0  0  0  0  0  0  0  0  0  0  0  0
  145.8428  139.4698  155.5489 H   0  0  0  0  0  0  0  0  0  0  0  0
  147.0822  139.8119  153.4656 H   0  0  0  0  0  0  0  0  0  0  0  0
  148.2102  139.5843  154.7749 H   0  0  0  0  0  0  0  0  0  0  0  0
  144.9658  141.0309  153.9968 H   0  0  0  0  0  0  0  0  0  0  0  0
  1  2  1  0  0  0  0
  1 21  1  0  0  0  0
  1 22  1  0  0  0  0
  1 23  1  0  0  0  0
  2 20  1  0  0  0  0
  2  3  2  0  0  0  0
  3  4  1  0  0  0  0
  4  5  2  0  0  0  0
  5  6  1  0  0  0  0
  5 20  1  0  0  0  0
  6  7  1  0  0  0  0
  7  8  2  0  0  0  0
  7  9  1  0  0  0  0
  9 10  1  0  0  0  0
  9 24  1  0  0  0  0
 10 19  1  0  0  0  0
 10 11  1  0  0  0  0
 10 25  1  0  0  0  0
 11 12  1  0  0  0  0
 11 26  1  0  0  0  0
 11 27  1  0  0  0  0
 12 13  1  0  0  0  0
 12 28  1  0  0  0  0
 12 29  1  0  0  0  0
 13 14  1  0  0  0  0
 13 18  1  0  0  0  0
 13 38  1  0  0  0  0
 14 15  1  0  0  0  0
 14 30  1  0  0  0  0
 14 31  1  0  0  0  0
 15 16  1  0  0  0  0
 15 17  2  0  0  0  0
 16 32  1  0  0  0  0
 16 33  1  0  0  0  0
 18 19  1  0  0  0  0
 18 34  1  0  0  0  0
 18 35  1  0  0  0  0
 19 36  1  0  0  0  0
 19 37  1  0  0  0  0
M  CHG  1   6  -1
M  CHG  1  13   1
M  END
> <s_m_source_file>
AV-unprocessed.smi

> <i_m_source_file_index>
1385

> <i_lp_mmshare_version>
43012

> <i_f3d_flags>
0

> <s_epik_input>
W0NIM11jMW5uYyhzMSlbTkhdQyg9TylbTkhdW0NIXTJbQ0gyXVtDSDJdTihbQ0gyXVtDSDJdMilbQ0gyXUMoPU8pW05IMl0=

> <s_epik_cmdline>
J2VwaWtfcHl0aG9uJywgJy1waCcsICc3LjAnLCAnLXRuJywgJzgnLCAnLW1hJywgJzIwMCcsICctbWV0YWxfYmluZGluZycsICctaW1hZScsICc8aW5maWxlLm1hZT4nLCAnLW9tYWUnLCAnPG91dGZpbGUubWFlPic=

> <r_lp_tautomer_probability>
1

> <r_epik_Ionization_Penalty>
3.90109

> <r_epik_Ionization_Penalty_Charging>
3.79141

> <r_epik_Ionization_Penalty_Neutral>
0.109679

> <r_epik_State_Penalty>
3.87237

> <r_epik_Charging_Adjusted_Penalty>
7.66378

> <i_epik_Tot_Q>
0

> <i_epik_Tot_abs_Q>
2

> <r_epik_Metal_State_Penalty>
1.33354

> <b_epik_Metal_Only>
1

> <s_lp_Force_Field>
OPLS_2005

> <r_lp_Energy>
6.54798

> <b_lp_Chiralities_Consistent>
1

> <s_lp_Variant>
AV-unprocessed.smi:1385-6

> <Gold.Version>
5.8.1

> <Gold.Id.Protein>
6NUR|6NUR_protein|mol2

> <Gold.PLP.Fitness>
42.9172

> <Gold.PLP.PLP>
-27.9587

> <Gold.PLP.part.hbond>
-4.0000

> <Gold.PLP.part.metal>
0.0000

> <Gold.PLP.part.buried>
-5.6396

> <Gold.PLP.part.nonpolar>
-18.7301

> <Gold.PLP.part.repulsive>
0.3607

> <Gold.PLP.ligand.clash>
0.0000

> <Gold.PLP.ligand.torsion>
0.0204

> <Gold.PLP.Chemscore.Hbond>
4.9920

> <Gold.PLP.Chemscore.CHOScore>
0.0000

> <Gold.PLP.Chemscore.Metal>
0.0000

> <Gold.Chemscore.Hbonds>
donor molecule, donor type, donor heavy atom, donor atom, acceptor molecule, acceptor atom, score
      L1  H     9    24       P1  8028  1.00
      L1  H    13    38       P1 10175  1.89
      L1  H    16    33       P1 10175  1.00
      P1  H  7997  8008       L1     3  0.96

> <Gold.PLP.Chemscore.Internal.Correction>
0.0234

> <Gold.Rescore>
     Score         DG    S(hbond)    S(metal)    S(lipo)     H(rot)  DE(clash)    DE(int)     intcor
     13.66     -18.31       3.31        0.00      59.73       2.04       1.81       2.84       ----

> <Gold.Chemscore.Fitness>
13.6580

> <Gold.Chemscore.DG>
-18.3097

> <Gold.Chemscore.ZeroCoef>
-5.4800

> <Gold.Chemscore.Hbond>
3.3135

> <Gold.Chemscore.Metal>
0.0000

> <Gold.Chemscore.Lipo>
59.7325

> <Gold.Chemscore.Internal_Hbond>
0.0000

> <Gold.Chemscore.DEClash>
1.8146

> <Gold.Chemscore.DEInternal>
2.8370

> <Gold.Chemscore.Rot>
2.0415

> <Gold.Chemscore.Internal.Correction>
   9.000000E+99

> <Gold.Chemscore.Hbonds>
donor molecule, donor type, donor heavy atom, donor atom, acceptor molecule, acceptor atom, score
      L1  H     9    24       P1  8028  0.97
      L1  H    13    38       P1 10175  0.73
      L1  H    16    33       P1 10175  1.00
      P1  H  7997  8008       L1     3  0.32

> <Gold.Chemscore.Hbond.Weighted>
-11.0672

> <Gold.Chemscore.Metal.Weighted>
-0.0000

> <Gold.Chemscore.Lipo.Weighted>
-6.9887

> <Gold.Chemscore.Internal_Hbond.Weighted>
0.0000

> <Gold.Chemscore.DEClash.Weighted>
1.8146

> <Gold.Chemscore.DEInternal.Weighted>
2.8370

> <Gold.Chemscore.Rot.Weighted>
5.2262

> <Gold.Chemscore.Internal.Correction.Weighted>
   9.000000E+99

> <Gold.Protein.RotatedTorsions>
[ 6907 6896 6895 6894 ] final -120.19 input  -60.11 | X-H torsion
[ 7974 7965 7964 7962 ] final   89.14 input  175.53 | X-H torsion
[ 8008 7997 7996 7995 ] final  -80.68 input   59.86 | X-H torsion
[ 10167 10162 10161 10158 ] final -173.06 input  -65.29 | X-H torsion
[ 10718 10713 10712 10709 ] final  -45.76 input   66.30 | X-H torsion
[ 10763 10752 10751 10750 ] final  -47.60 input  -60.55 | X-H torsion
[ 11005 11000 10999 10996 ] final  113.24 input  -57.11 | X-H torsion

> <Gold.Protein.ActiveResidues>
 VAL166  LYS551  ARG553  GLY616  TRP617  ASP618  TYR619  PRO620  LYS621  CYS622 
 ASP623  PHE694  ASN695  SER759  ASP760  ASP761  ALA762  ILE779  LEU786  VAL792 
 PHE793  MET794  SER795  GLU796  ALA797  LYS798  CYS799  TRP800  GLU811  SER814 

> <Gold.Protein.RotatedAtoms>
  150.8371  133.7996  159.3075 H   0  0  0  0  0  0  0  0  0  0  0  0  # atno 6907 bound_to 6896
  151.5709  135.1061  160.0004 H   0  0  0  0  0  0  0  0  0  0  0  0  # atno 6908 bound_to 6896
  152.4441  133.7462  159.6724 H   0  0  0  0  0  0  0  0  0  0  0  0  # atno 6909 bound_to 6896
  145.5363  139.2286  143.2590 H   0  0  0  0  0  0  0  0  0  0  0  0  # atno 7974 bound_to 7965
  154.5907  140.0659  156.9235 H   0  0  0  0  0  0  0  0  0  0  0  0  # atno 8008 bound_to 7997
  155.2300  140.3337  155.4286 H   0  0  0  0  0  0  0  0  0  0  0  0  # atno 8009 bound_to 7997
  156.2254  140.1817  156.7360 H   0  0  0  0  0  0  0  0  0  0  0  0  # atno 8010 bound_to 7997
  139.5709  144.1643  152.1383 H   0  0  0  0  0  0  0  0  0  0  0  0  # atno 10167 bound_to 10162
  156.2251  130.4168  149.8944 H   0  0  0  0  0  0  0  0  0  0  0  0  # atno 10718 bound_to 10713
  154.0641  135.6614  153.4815 H   0  0  0  0  0  0  0  0  0  0  0  0  # atno 10763 bound_to 10752
  153.0415  135.5141  154.7631 H   0  0  0  0  0  0  0  0  0  0  0  0  # atno 10764 bound_to 10752
  154.6676  135.3024  154.9752 H   0  0  0  0  0  0  0  0  0  0  0  0  # atno 10765 bound_to 10752
  139.8948  134.9546  156.6709 H   0  0  0  0  0  0  0  0  0  0  0  0  # atno 11005 bound_to 11000
  146.2011  140.6182  142.9102 LP  0  0  0  0  0  0  0  0  0  0  0  0  # atno 17320 bound_to 7965
  144.7600  140.5398  143.6742 LP  0  0  0  0  0  0  0  0  0  0  0  0  # atno 17321 bound_to 7965
  140.1176  144.5402  150.6884 LP  0  0  0  0  0  0  0  0  0  0  0  0  # atno 17342 bound_to 10162
  140.6994  143.2424  151.4909 LP  0  0  0  0  0  0  0  0  0  0  0  0  # atno 17343 bound_to 10162
  156.6577  130.8769  151.3542 LP  0  0  0  0  0  0  0  0  0  0  0  0  # atno 17370 bound_to 10713
  157.7106  130.9436  150.1078 LP  0  0  0  0  0  0  0  0  0  0  0  0  # atno 17371 bound_to 10713
  140.7374  133.9007  155.8254 LP  0  0  0  0  0  0  0  0  0  0  0  0  # atno 17394 bound_to 11000
  141.0105  134.1027  157.4226 LP  0  0  0  0  0  0  0  0  0  0  0  0  # atno 17395 bound_to 11000

$$$$
