AV-unprocessed.smi:2746|AV-procd|sdf|10571|dock3
  -GOLD-   2272015 23D 1   1.00000     0.00000
 Structure written by MMmdl.
 38 39  0  0  0  0  0  0  0  0  1 V2000
  153.2053  142.3652  161.0097 C   0  0  0  0  0  0  0  0  0  0  0  0
  152.3485  142.2285  159.9829 C   0  0  0  0  0  0  0  0  0  0  0  0
  152.3512  143.0194  158.6811 C   0  0  2  0  0  0  0  0  0  0  0  0
  152.1135  144.5123  158.9444 C   0  0  0  0  0  0  0  0  0  0  0  0
  151.3559  142.5274  157.7286 N   0  0  0  0  0  0  0  0  0  0  0  0
  151.3915  141.3544  157.0724 C   0  0  0  0  0  0  0  0  0  0  0  0
  152.3137  140.5446  157.1781 O   0  0  0  0  0  0  0  0  0  0  0  0
  150.2304  141.0870  156.1514 C   0  0  0  0  0  0  0  0  0  0  0  0
  148.9617  141.6439  156.4371 C   0  0  0  0  0  0  0  0  0  0  0  0
  147.8890  141.4029  155.5555 C   0  0  0  0  0  0  0  0  0  0  0  0
  146.6303  141.9530  155.8349 N   0  0  0  0  0  0  0  0  0  0  0  0
  145.6338  140.9544  156.1993 C   0  0  0  0  0  0  0  0  0  0  0  0
  144.3230  141.6464  156.6132 C   0  0  0  0  0  0  0  0  0  0  0  0
  143.8792  142.4988  155.5610 O   0  0  0  0  0  0  0  0  0  0  0  0
  144.8294  143.5179  155.2612 C   0  0  0  0  0  0  0  0  0  0  0  0
  146.1509  142.8718  154.8099 C   0  0  0  0  0  0  0  0  0  0  0  0
  148.1243  140.6072  154.4133 C   0  0  0  0  0  0  0  0  0  0  0  0
  149.4196  140.0965  154.2080 C   0  0  0  0  0  0  0  0  0  0  0  0
  150.4493  140.3288  155.0485 N   0  0  0  0  0  0  0  0  0  0  0  0
  154.0100  143.0854  160.9966 H   0  0  0  0  0  0  0  0  0  0  0  0
  153.1083  141.7472  161.8901 H   0  0  0  0  0  0  0  0  0  0  0  0
  151.5672  141.4875  160.0688 H   0  0  0  0  0  0  0  0  0  0  0  0
  153.3535  142.9124  158.2639 H   0  0  0  0  0  0  0  0  0  0  0  0
  152.8668  144.9168  159.6213 H   0  0  0  0  0  0  0  0  0  0  0  0
  151.1352  144.6854  159.3942 H   0  0  0  0  0  0  0  0  0  0  0  0
  152.1616  145.0875  158.0191 H   0  0  0  0  0  0  0  0  0  0  0  0
  150.5571  143.1224  157.5611 H   0  0  0  0  0  0  0  0  0  0  0  0
  148.8076  142.2500  157.3185 H   0  0  0  0  0  0  0  0  0  0  0  0
  145.4501  140.2907  155.3533 H   0  0  0  0  0  0  0  0  0  0  0  0
  146.0077  140.3387  157.0184 H   0  0  0  0  0  0  0  0  0  0  0  0
  143.5528  140.9025  156.8174 H   0  0  0  0  0  0  0  0  0  0  0  0
  144.4599  142.2237  157.5291 H   0  0  0  0  0  0  0  0  0  0  0  0
  144.4317  144.1542  154.4705 H   0  0  0  0  0  0  0  0  0  0  0  0
  144.9846  144.1532  156.1348 H   0  0  0  0  0  0  0  0  0  0  0  0
  146.9005  143.6416  154.6223 H   0  0  0  0  0  0  0  0  0  0  0  0
  145.9955  142.3355  153.8728 H   0  0  0  0  0  0  0  0  0  0  0  0
  147.3354  140.3898  153.7085 H   0  0  0  0  0  0  0  0  0  0  0  0
  149.6351  139.4853  153.3442 H   0  0  0  0  0  0  0  0  0  0  0  0
  1  2  2  0  0  0  0
  1 20  1  0  0  0  0
  1 21  1  0  0  0  0
  2  3  1  0  0  0  0
  2 22  1  0  0  0  0
  3  4  1  0  0  0  0
  3  5  1  0  0  0  0
  3 23  1  0  0  0  0
  4 24  1  0  0  0  0
  4 25  1  0  0  0  0
  4 26  1  0  0  0  0
  5  6  1  0  0  0  0
  5 27  1  0  0  0  0
  6  7  2  0  0  0  0
  6  8  1  0  0  0  0
  8 19  1  0  0  0  0
  8  9  2  0  0  0  0
  9 10  1  0  0  0  0
  9 28  1  0  0  0  0
 10 11  1  0  0  0  0
 10 17  2  0  0  0  0
 11 16  1  0  0  0  0
 11 12  1  0  0  0  0
 12 13  1  0  0  0  0
 12 29  1  0  0  0  0
 12 30  1  0  0  0  0
 13 14  1  0  0  0  0
 13 31  1  0  0  0  0
 13 32  1  0  0  0  0
 14 15  1  0  0  0  0
 15 16  1  0  0  0  0
 15 33  1  0  0  0  0
 15 34  1  0  0  0  0
 16 35  1  0  0  0  0
 16 36  1  0  0  0  0
 17 18  1  0  0  0  0
 17 37  1  0  0  0  0
 18 19  2  0  0  0  0
 18 38  1  0  0  0  0
M  END
> <s_m_source_file>
AV-unprocessed.smi

> <i_m_source_file_index>
2746

> <i_lp_mmshare_version>
43012

> <i_f3d_flags>
0

> <s_epik_input>
W0NIMl09W0NIXVtDQEhdKFtDSDNdKVtOSF1DKD1PKWMxW2NIXWMoW2NIXVtjSF1uMSlOMltDSDJdW0NIMl1PW0NIMl1bQ0gyXTI=

> <s_epik_cmdline>
J2VwaWtfcHl0aG9uJywgJy1waCcsICc3LjAnLCAnLXRuJywgJzgnLCAnLW1hJywgJzIwMCcsICctbWV0YWxfYmluZGluZycsICctaW1hZScsICc8aW5maWxlLm1hZT4nLCAnLW9tYWUnLCAnPG91dGZpbGUubWFlPic=

> <r_lp_tautomer_probability>
1

> <r_epik_Ionization_Penalty>
0.373275

> <r_epik_Ionization_Penalty_Charging>
0

> <r_epik_Ionization_Penalty_Neutral>
0.373275

> <r_epik_State_Penalty>
0.370855

> <r_epik_Charging_Adjusted_Penalty>
0.370855

> <i_epik_Tot_Q>
0

> <i_epik_Tot_abs_Q>
0

> <r_epik_Metal_State_Penalty>
0.225885

> <b_epik_Metal_Only>
0

> <s_lp_Force_Field>
OPLS_2005

> <r_lp_Energy>
24.2376

> <b_lp_Chiralities_Consistent>
1

> <s_lp_Variant>
AV-unprocessed.smi:2746-1

> <Gold.Version>
5.8.1

> <Gold.Id.Protein>
6NUR|6NUR_protein|mol2

> <Gold.PLP.Fitness>
38.6126

> <Gold.PLP.PLP>
-32.0993

> <Gold.PLP.part.hbond>
-2.0000

> <Gold.PLP.part.metal>
0.0000

> <Gold.PLP.part.buried>
-0.9682

> <Gold.PLP.part.nonpolar>
-28.5798

> <Gold.PLP.part.repulsive>
0.3480

> <Gold.PLP.ligand.clash>
0.0000

> <Gold.PLP.ligand.torsion>
0.5695

> <Gold.PLP.Chemscore.Hbond>
1.5096

> <Gold.PLP.Chemscore.CHOScore>
1.0000

> <Gold.PLP.Chemscore.Metal>
0.0000

> <Gold.Chemscore.Hbonds>
donor molecule, donor type, donor heavy atom, donor atom, acceptor molecule, acceptor atom, score
      P1  H  7989  7998       L1    19  0.55
      P1  H  7997  8008       L1     7  0.57
      L1  C    18    38       P1  7957  1.00

> <Gold.PLP.Chemscore.Internal.Correction>
0.1235

> <Gold.Rescore>
     Score         DG    S(hbond)    S(metal)    S(lipo)     H(rot)  DE(clash)    DE(int)     intcor
     14.57     -15.35       0.92        0.00      85.89       1.27       0.09       0.68       ----

> <Gold.Chemscore.Fitness>
14.5729

> <Gold.Chemscore.DG>
-15.3454

> <Gold.Chemscore.ZeroCoef>
-5.4800

> <Gold.Chemscore.Hbond>
0.9215

> <Gold.Chemscore.Metal>
0.0000

> <Gold.Chemscore.Lipo>
85.8929

> <Gold.Chemscore.Internal_Hbond>
0.0000

> <Gold.Chemscore.DEClash>
0.0880

> <Gold.Chemscore.DEInternal>
0.6845

> <Gold.Chemscore.Rot>
1.2742

> <Gold.Chemscore.Internal.Correction>
   9.000000E+99

> <Gold.Chemscore.Hbonds>
donor molecule, donor type, donor heavy atom, donor atom, acceptor molecule, acceptor atom, score
      P1  H  7989  7998       L1    19  0.03
      P1  H  7997  8008       L1     7  0.56

> <Gold.Chemscore.Hbond.Weighted>
-3.0779

> <Gold.Chemscore.Metal.Weighted>
-0.0000

> <Gold.Chemscore.Lipo.Weighted>
-10.0495

> <Gold.Chemscore.Internal_Hbond.Weighted>
0.0000

> <Gold.Chemscore.DEClash.Weighted>
0.0880

> <Gold.Chemscore.DEInternal.Weighted>
0.6845

> <Gold.Chemscore.Rot.Weighted>
3.2619

> <Gold.Chemscore.Internal.Correction.Weighted>
   9.000000E+99

> <Gold.Protein.RotatedTorsions>
[ 6907 6896 6895 6894 ] final  -30.92 input  -60.11 | X-H torsion
[ 7974 7965 7964 7962 ] final  -95.25 input  175.53 | X-H torsion
[ 8008 7997 7996 7995 ] final  -55.28 input   59.86 | X-H torsion
[ 10167 10162 10161 10158 ] final -116.75 input  -65.29 | X-H torsion
[ 10718 10713 10712 10709 ] final -167.57 input   66.30 | X-H torsion
[ 10763 10752 10751 10750 ] final  -82.98 input  -60.55 | X-H torsion
[ 11005 11000 10999 10996 ] final -149.92 input  -57.11 | X-H torsion

> <Gold.Protein.ActiveResidues>
 VAL166  LYS551  ARG553  GLY616  TRP617  ASP618  TYR619  PRO620  LYS621  CYS622 
 ASP623  PHE694  ASN695  SER759  ASP760  ASP761  ALA762  ILE779  LEU786  VAL792 
 PHE793  MET794  SER795  GLU796  ALA797  LYS798  CYS799  TRP800  GLU811  SER814 

> <Gold.Protein.RotatedAtoms>
  151.0990  134.9961  159.8439 H   0  0  0  0  0  0  0  0  0  0  0  0  # atno 6907 bound_to 6896
  152.5435  134.1973  159.8708 H   0  0  0  0  0  0  0  0  0  0  0  0  # atno 6908 bound_to 6896
  151.2015  133.4564  159.2629 H   0  0  0  0  0  0  0  0  0  0  0  0  # atno 6909 bound_to 6896
  145.3625  140.9494  143.2493 H   0  0  0  0  0  0  0  0  0  0  0  0  # atno 7974 bound_to 7965
  154.4189  140.1156  156.5450 H   0  0  0  0  0  0  0  0  0  0  0  0  # atno 8008 bound_to 7997
  155.6468  140.3496  155.4715 H   0  0  0  0  0  0  0  0  0  0  0  0  # atno 8009 bound_to 7997
  155.9825  140.1163  157.0703 H   0  0  0  0  0  0  0  0  0  0  0  0  # atno 8010 bound_to 7997
  140.0758  143.4834  152.1954 H   0  0  0  0  0  0  0  0  0  0  0  0  # atno 10167 bound_to 10162
  156.6844  130.9134  151.3061 H   0  0  0  0  0  0  0  0  0  0  0  0  # atno 10718 bound_to 10713
  154.5823  135.5572  153.7197 H   0  0  0  0  0  0  0  0  0  0  0  0  # atno 10763 bound_to 10752
  153.0086  135.6323  154.1965 H   0  0  0  0  0  0  0  0  0  0  0  0  # atno 10764 bound_to 10752
  154.1906  135.2882  155.3003 H   0  0  0  0  0  0  0  0  0  0  0  0  # atno 10765 bound_to 10752
  140.7457  134.3464  157.5137 H   0  0  0  0  0  0  0  0  0  0  0  0  # atno 11005 bound_to 11000
  144.8636  139.5141  143.6801 LP  0  0  0  0  0  0  0  0  0  0  0  0  # atno 17320 bound_to 7965
  146.2921  139.7170  142.9153 LP  0  0  0  0  0  0  0  0  0  0  0  0  # atno 17321 bound_to 7965
  139.5809  144.7510  151.3643 LP  0  0  0  0  0  0  0  0  0  0  0  0  # atno 17342 bound_to 10162
  140.7103  143.7408  150.7554 LP  0  0  0  0  0  0  0  0  0  0  0  0  # atno 17343 bound_to 10162
  157.7032  130.9356  150.0849 LP  0  0  0  0  0  0  0  0  0  0  0  0  # atno 17370 bound_to 10713
  156.1844  130.3651  149.8993 LP  0  0  0  0  0  0  0  0  0  0  0  0  # atno 17371 bound_to 10713
  139.8797  134.9109  156.3025 LP  0  0  0  0  0  0  0  0  0  0  0  0  # atno 17394 bound_to 11000
  140.9797  133.7275  156.0653 LP  0  0  0  0  0  0  0  0  0  0  0  0  # atno 17395 bound_to 11000

$$$$
