AV-unprocessed.smi:290|AV-procd|sdf|2239|dock9
  -GOLD-   2262022113D 1   1.00000     0.00000
 Structure written by MMmdl.
 59 62  0  0  0  0  0  0  0  0  2 V2000
  152.0901  144.7576  157.9137 C   0  0  0  0  0  0  0  0  0  0  0  0
  151.7478  143.5028  158.7252 C   0  0  2  0  0  0  0  0  0  0  0  0
  152.9545  142.9645  159.2509 O   0  0  0  0  0  0  0  0  0  0  0  0
  152.7012  141.6207  159.6108 C   0  0  0  0  0  0  0  0  0  0  0  0
  151.9143  141.1189  158.4101 C   0  0  0  0  0  0  0  0  0  0  0  0
  151.0450  142.3125  158.0028 C   0  0  1  0  0  0  0  0  0  0  0  0
  149.7771  142.1338  158.6085 O   0  0  0  0  0  0  0  0  0  0  0  0
  150.8941  142.3596  156.4524 C   0  0  0  0  0  0  0  0  0  0  0  0
  150.1639  141.2537  155.8430 N   0  0  0  0  0  0  0  0  0  0  0  0
  150.4792  139.9163  155.9126 C   0  0  0  0  0  0  0  0  0  0  0  0
  149.6571  139.1165  155.2925 N   0  0  0  0  0  0  0  0  0  0  0  0
  148.6644  139.9536  154.7951 C   0  0  0  0  0  0  0  0  0  0  0  0
  147.4661  139.7570  154.0427 C   0  0  0  0  0  0  0  0  0  0  0  0
  146.9938  138.5578  153.6080 N   0  0  0  0  0  0  0  0  0  0  0  0
  147.1493  137.3541  154.4058 C   0  0  0  0  0  0  0  0  0  0  0  0
  145.9056  136.5303  154.1018 C   0  0  0  0  0  0  0  0  0  0  0  0
  145.5517  136.8976  152.6512 C   0  0  1  0  0  0  0  0  0  0  0  0
  144.1092  136.6391  152.3426 N   0  3  2  0  0  0  0  0  0  0  0  0
  143.2179  137.2078  153.3876 C   0  0  0  0  0  0  0  0  0  0  0  0
  143.7833  135.2159  152.0367 C   0  0  0  0  0  0  0  0  0  0  0  0
  144.3477  134.7156  150.6933 C   0  0  0  0  0  0  0  0  0  0  0  0
  143.6714  133.5445  150.2863 O   0  0  0  0  0  0  0  0  0  0  0  0
  146.0104  138.3773  152.5438 C   0  0  2  0  0  0  0  0  0  0  0  0
  146.6455  138.7062  151.1743 C   0  0  0  0  0  0  0  0  0  0  0  0
  146.7353  140.8628  153.7428 N   0  0  0  0  0  0  0  0  0  0  0  0
  147.1293  142.0716  154.1504 C   0  0  0  0  0  0  0  0  0  0  0  0
  148.2126  142.4005  154.8535 N   0  0  0  0  0  0  0  0  0  0  0  0
  148.9658  141.3022  155.1473 C   0  0  0  0  0  0  0  0  0  0  0  0
  146.1687  136.2907  151.9857 H   0  0  0  0  0  0  0  0  0  0  0  0
  145.1632  139.0293  152.7529 H   0  0  0  0  0  0  0  0  0  0  0  0
  151.1874  145.2800  157.6023 H   0  0  0  0  0  0  0  0  0  0  0  0
  152.6890  144.5249  157.0337 H   0  0  0  0  0  0  0  0  0  0  0  0
  152.6647  145.4574  158.5207 H   0  0  0  0  0  0  0  0  0  0  0  0
  151.1547  143.8163  159.5871 H   0  0  0  0  0  0  0  0  0  0  0  0
  153.6244  141.0649  159.7741 H   0  0  0  0  0  0  0  0  0  0  0  0
  152.1029  141.5822  160.5227 H   0  0  0  0  0  0  0  0  0  0  0  0
  152.6215  140.8796  157.6145 H   0  0  0  0  0  0  0  0  0  0  0  0
  151.3483  140.2108  158.6236 H   0  0  0  0  0  0  0  0  0  0  0  0
  149.8586  141.4877  159.2936 H   0  0  0  0  0  0  0  0  0  0  0  0
  150.4364  143.2986  156.1400 H   0  0  0  0  0  0  0  0  0  0  0  0
  151.8874  142.3598  156.0011 H   0  0  0  0  0  0  0  0  0  0  0  0
  151.3474  139.5454  156.4373 H   0  0  0  0  0  0  0  0  0  0  0  0
  148.0520  136.8316  154.0875 H   0  0  0  0  0  0  0  0  0  0  0  0
  147.2292  137.5617  155.4737 H   0  0  0  0  0  0  0  0  0  0  0  0
  146.0822  135.4648  154.2498 H   0  0  0  0  0  0  0  0  0  0  0  0
  145.1006  136.8355  154.7722 H   0  0  0  0  0  0  0  0  0  0  0  0
  143.3102  136.6525  154.3218 H   0  0  0  0  0  0  0  0  0  0  0  0
  142.1735  137.1925  153.0810 H   0  0  0  0  0  0  0  0  0  0  0  0
  143.4466  138.2522  153.5946 H   0  0  0  0  0  0  0  0  0  0  0  0
  144.1993  134.5613  152.7996 H   0  0  0  0  0  0  0  0  0  0  0  0
  142.7010  135.0814  152.0590 H   0  0  0  0  0  0  0  0  0  0  0  0
  144.1914  135.4777  149.9293 H   0  0  0  0  0  0  0  0  0  0  0  0
  145.4216  134.5378  150.7272 H   0  0  0  0  0  0  0  0  0  0  0  0
  142.8395  133.7910  149.9101 H   0  0  0  0  0  0  0  0  0  0  0  0
  145.9579  138.5510  150.3454 H   0  0  0  0  0  0  0  0  0  0  0  0
  147.5182  138.0789  150.9896 H   0  0  0  0  0  0  0  0  0  0  0  0
  146.9795  139.7417  151.1206 H   0  0  0  0  0  0  0  0  0  0  0  0
  146.4840  142.8924  153.8737 H   0  0  0  0  0  0  0  0  0  0  0  0
  143.9158  137.1480  151.4914 H   0  0  0  0  0  0  0  0  0  0  0  0
  1  2  1  0  0  0  0
  1 31  1  0  0  0  0
  1 32  1  0  0  0  0
  1 33  1  0  0  0  0
  2  6  1  0  0  0  0
  2  3  1  0  0  0  0
  2 34  1  0  0  0  0
  3  4  1  0  0  0  0
  4  5  1  0  0  0  0
  4 35  1  0  0  0  0
  4 36  1  0  0  0  0
  5  6  1  0  0  0  0
  5 37  1  0  0  0  0
  5 38  1  0  0  0  0
  6  7  1  0  0  0  0
  6  8  1  0  0  0  0
  7 39  1  0  0  0  0
  8  9  1  0  0  0  0
  8 40  1  0  0  0  0
  8 41  1  0  0  0  0
  9 28  1  0  0  0  0
  9 10  1  0  0  0  0
 10 11  2  0  0  0  0
 10 42  1  0  0  0  0
 11 12  1  0  0  0  0
 12 28  2  0  0  0  0
 12 13  1  0  0  0  0
 13 14  1  0  0  0  0
 13 25  2  0  0  0  0
 14 23  1  0  0  0  0
 14 15  1  0  0  0  0
 15 16  1  0  0  0  0
 15 43  1  0  0  0  0
 15 44  1  0  0  0  0
 16 17  1  0  0  0  0
 16 45  1  0  0  0  0
 16 46  1  0  0  0  0
 17 29  1  0  0  0  0
 17 18  1  0  0  0  0
 17 23  1  0  0  0  0
 18 19  1  0  0  0  0
 18 20  1  0  0  0  0
 18 59  1  0  0  0  0
 19 47  1  0  0  0  0
 19 48  1  0  0  0  0
 19 49  1  0  0  0  0
 20 21  1  0  0  0  0
 20 50  1  0  0  0  0
 20 51  1  0  0  0  0
 21 22  1  0  0  0  0
 21 52  1  0  0  0  0
 21 53  1  0  0  0  0
 22 54  1  0  0  0  0
 23 30  1  0  0  0  0
 23 24  1  0  0  0  0
 24 55  1  0  0  0  0
 24 56  1  0  0  0  0
 24 57  1  0  0  0  0
 25 26  1  0  0  0  0
 26 27  2  0  0  0  0
 26 58  1  0  0  0  0
 27 28  1  0  0  0  0
M  CHG  1  18   1
M  END
> <s_m_source_file>
AV-unprocessed.smi

> <i_m_source_file_index>
290

> <i_lp_mmshare_version>
43012

> <i_f3d_flags>
0

> <s_epik_input>
W0NIMl0xW0NIMl1PW0NAQEhdKFtDSDNdKVtDQEBdMShbT0hdKVtDSDJdbihbY0hdbjIpYyhjMjMpbltjSF1uYzNONFtDSDJdW0NIMl1bQ0BIXShbQ0BIXTRbQ0gzXSlOKFtDSDNdKVtDSDJdW0NIMl1bT0hd

> <s_epik_cmdline>
J2VwaWtfcHl0aG9uJywgJy1waCcsICc3LjAnLCAnLXRuJywgJzgnLCAnLW1hJywgJzIwMCcsICctbWV0YWxfYmluZGluZycsICctaW1hZScsICc8aW5maWxlLm1hZT4nLCAnLW9tYWUnLCAnPG91dGZpbGUubWFlPic=

> <r_lp_tautomer_probability>
1

> <r_epik_Ionization_Penalty>
0.0036983

> <r_epik_Ionization_Penalty_Charging>
0.0032725

> <r_epik_Ionization_Penalty_Neutral>
0.000425798

> <r_epik_State_Penalty>
-0

> <r_epik_Charging_Adjusted_Penalty>
0.0032725

> <i_epik_Tot_Q>
1

> <i_epik_Tot_abs_Q>
1

> <r_epik_Metal_State_Penalty>
-0

> <b_epik_Metal_Only>
0

> <s_lp_Force_Field>
OPLS_2005

> <r_lp_Energy>
66.2506

> <b_lp_Chiralities_Consistent>
1

> <s_lp_Variant>
AV-unprocessed.smi:290-25

> <Gold.Version>
5.8.1

> <Gold.Id.Protein>
6NUR|6NUR_protein|mol2

> <Gold.PLP.Fitness>
49.6884

> <Gold.PLP.PLP>
-45.0528

> <Gold.PLP.part.hbond>
-2.3464

> <Gold.PLP.part.metal>
0.0000

> <Gold.PLP.part.buried>
-4.0678

> <Gold.PLP.part.nonpolar>
-43.1903

> <Gold.PLP.part.repulsive>
4.1475

> <Gold.PLP.ligand.clash>
0.0000

> <Gold.PLP.ligand.torsion>
0.7786

> <Gold.PLP.Chemscore.Hbond>
2.0000

> <Gold.PLP.Chemscore.CHOScore>
0.0000

> <Gold.PLP.Chemscore.Metal>
0.0000

> <Gold.Chemscore.Hbonds>
donor molecule, donor type, donor heavy atom, donor atom, acceptor molecule, acceptor atom, score
      L1  H    18    59       P1 10171  0.57
      L1  H    22    54       P1 10186  1.00

> <Gold.PLP.Chemscore.Internal.Correction>
0.1929

> <Gold.Rescore>
     Score         DG    S(hbond)    S(metal)    S(lipo)     H(rot)  DE(clash)    DE(int)     intcor
     12.76     -15.74       1.96        0.00     104.93       3.35       2.31       0.67       ----

> <Gold.Chemscore.Fitness>
12.7577

> <Gold.Chemscore.DG>
-15.7361

> <Gold.Chemscore.ZeroCoef>
-5.4800

> <Gold.Chemscore.Hbond>
1.9640

> <Gold.Chemscore.Metal>
0.0000

> <Gold.Chemscore.Lipo>
104.9319

> <Gold.Chemscore.Internal_Hbond>
0.0000

> <Gold.Chemscore.DEClash>
2.3121

> <Gold.Chemscore.DEInternal>
0.6663

> <Gold.Chemscore.Rot>
3.3518

> <Gold.Chemscore.Internal.Correction>
   9.000000E+99

> <Gold.Chemscore.Hbonds>
donor molecule, donor type, donor heavy atom, donor atom, acceptor molecule, acceptor atom, score
      L1  H    18    59       P1 10171  0.56
      L1  H    22    54       P1 10186  0.98

> <Gold.Chemscore.Hbond.Weighted>
-6.5596

> <Gold.Chemscore.Metal.Weighted>
-0.0000

> <Gold.Chemscore.Lipo.Weighted>
-12.2770

> <Gold.Chemscore.Internal_Hbond.Weighted>
0.0000

> <Gold.Chemscore.DEClash.Weighted>
2.3121

> <Gold.Chemscore.DEInternal.Weighted>
0.6663

> <Gold.Chemscore.Rot.Weighted>
8.5806

> <Gold.Chemscore.Internal.Correction.Weighted>
   9.000000E+99

> <Gold.Protein.RotatedTorsions>
[ 6907 6896 6895 6894 ] final  -93.36 input  -60.11 | X-H torsion
[ 7974 7965 7964 7962 ] final  101.06 input  175.53 | X-H torsion
[ 8008 7997 7996 7995 ] final  110.76 input   59.86 | X-H torsion
[ 10167 10162 10161 10158 ] final   74.99 input  -65.29 | X-H torsion
[ 10718 10713 10712 10709 ] final  -61.33 input   66.30 | X-H torsion
[ 10763 10752 10751 10750 ] final  -63.36 input  -60.55 | X-H torsion
[ 11005 11000 10999 10996 ] final   -7.36 input  -57.11 | X-H torsion

> <Gold.Protein.ActiveResidues>
 VAL166  LYS551  ARG553  GLY616  TRP617  ASP618  TYR619  PRO620  LYS621  CYS622 
 ASP623  PHE694  ASN695  SER759  ASP760  ASP761  ALA762  ILE779  LEU786  VAL792 
 PHE793  MET794  SER795  GLU796  ALA797  LYS798  CYS799  TRP800  GLU811  SER814 

> <Gold.Protein.RotatedAtoms>
  150.6921  134.1979  159.4310 H   0  0  0  0  0  0  0  0  0  0  0  0  # atno 6907 bound_to 6896
  151.9947  134.9958  160.0572 H   0  0  0  0  0  0  0  0  0  0  0  0  # atno 6908 bound_to 6896
  152.1635  133.4562  159.4910 H   0  0  0  0  0  0  0  0  0  0  0  0  # atno 6909 bound_to 6896
  145.3774  139.2386  143.3422 H   0  0  0  0  0  0  0  0  0  0  0  0  # atno 7974 bound_to 7965
  156.2076  140.3032  155.9661 H   0  0  0  0  0  0  0  0  0  0  0  0  # atno 8008 bound_to 7997
  155.2804  140.0437  157.3032 H   0  0  0  0  0  0  0  0  0  0  0  0  # atno 8009 bound_to 7997
  154.5654  140.2332  155.8280 H   0  0  0  0  0  0  0  0  0  0  0  0  # atno 8010 bound_to 7997
  140.0078  144.5637  150.7684 H   0  0  0  0  0  0  0  0  0  0  0  0  # atno 10167 bound_to 10162
  156.0929  130.4197  150.0979 H   0  0  0  0  0  0  0  0  0  0  0  0  # atno 10718 bound_to 10713
  154.3138  135.6210  153.5477 H   0  0  0  0  0  0  0  0  0  0  0  0  # atno 10763 bound_to 10752
  152.9827  135.5707  154.5147 H   0  0  0  0  0  0  0  0  0  0  0  0  # atno 10764 bound_to 10752
  154.4802  135.2863  155.1553 H   0  0  0  0  0  0  0  0  0  0  0  0  # atno 10765 bound_to 10752
  140.7120  133.8901  155.8757 H   0  0  0  0  0  0  0  0  0  0  0  0  # atno 11005 bound_to 11000
  146.2858  140.4435  142.8758 LP  0  0  0  0  0  0  0  0  0  0  0  0  # atno 17320 bound_to 7965
  144.8532  140.7033  143.6154 LP  0  0  0  0  0  0  0  0  0  0  0  0  # atno 17321 bound_to 7965
  140.7393  143.2790  151.3655 LP  0  0  0  0  0  0  0  0  0  0  0  0  # atno 17342 bound_to 10162
  139.6226  144.0876  152.2405 LP  0  0  0  0  0  0  0  0  0  0  0  0  # atno 17343 bound_to 10162
  156.8984  130.9612  151.3579 LP  0  0  0  0  0  0  0  0  0  0  0  0  # atno 17370 bound_to 10713
  157.6083  130.8564  149.8910 LP  0  0  0  0  0  0  0  0  0  0  0  0  # atno 17371 bound_to 10713
  141.0076  134.1064  157.4254 LP  0  0  0  0  0  0  0  0  0  0  0  0  # atno 17394 bound_to 11000
  139.8869  135.0085  156.6529 LP  0  0  0  0  0  0  0  0  0  0  0  0  # atno 17395 bound_to 11000

$$$$
