AV-unprocessed.smi:1197|AV-procd|sdf|5009|dock4
  -GOLD-   22720 4 23D 1   1.00000     0.00000
 Structure written by MMmdl.
 41 42  0  0  0  0  0  0  0  0  2 V2000
  152.7438  140.0696  158.9305 C   0  0  0  0  0  0  0  0  0  0  0  0
  153.1951  139.5451  157.6867 O   0  0  0  0  0  0  0  0  0  0  0  0
  152.2598  139.2906  156.7049 C   0  0  0  0  0  0  0  0  0  0  0  0
  151.0618  140.0323  156.7067 C   0  0  0  0  0  0  0  0  0  0  0  0
  150.1016  139.7785  155.7088 C   0  0  0  0  0  0  0  0  0  0  0  0
  150.3682  138.7809  154.7410 C   0  0  0  0  0  0  0  0  0  0  0  0
  149.4898  138.4495  153.6744 N   0  0  0  0  0  0  0  0  0  0  0  0
  148.2650  138.9416  153.4216 C   0  0  0  0  0  0  0  0  0  0  0  0
  147.6705  139.7598  154.1232 O   0  0  0  0  0  0  0  0  0  0  0  0
  147.7495  138.4090  152.3043 N   0  0  0  0  0  0  0  0  0  0  0  0
  146.4330  138.7110  151.7521 C   0  0  0  0  0  0  0  0  0  0  0  0
  145.9185  137.5318  150.9103 C   0  0  0  0  0  0  0  0  0  0  0  0
  146.0666  136.2326  151.6134 N   0  3  0  0  0  0  0  0  0  0  0  0
  145.4132  136.2277  152.9441 C   0  0  0  0  0  0  0  0  0  0  0  0
  145.6413  134.8809  153.6518 C   0  0  0  0  0  0  0  0  0  0  0  0
  145.1565  133.8230  152.8347 O   0  0  0  0  0  0  0  0  0  0  0  0
  145.8343  133.7609  151.5861 C   0  0  0  0  0  0  0  0  0  0  0  0
  145.6102  135.0703  150.8112 C   0  0  0  0  0  0  0  0  0  0  0  0
  151.6040  138.1059  154.8176 C   0  0  0  0  0  0  0  0  0  0  0  0
  152.5280  138.3431  155.7724 N   0  0  0  0  0  0  0  0  0  0  0  0
  153.5965  140.2036  159.5957 H   0  0  0  0  0  0  0  0  0  0  0  0
  152.0457  139.3900  159.4212 H   0  0  0  0  0  0  0  0  0  0  0  0
  152.2675  141.0428  158.8033 H   0  0  0  0  0  0  0  0  0  0  0  0
  150.8840  140.7876  157.4579 H   0  0  0  0  0  0  0  0  0  0  0  0
  149.1933  140.3608  155.6970 H   0  0  0  0  0  0  0  0  0  0  0  0
  149.8112  137.7137  153.0623 H   0  0  0  0  0  0  0  0  0  0  0  0
  148.3138  137.7444  151.7952 H   0  0  0  0  0  0  0  0  0  0  0  0
  145.7250  138.9491  152.5460 H   0  0  0  0  0  0  0  0  0  0  0  0
  146.5185  139.6043  151.1327 H   0  0  0  0  0  0  0  0  0  0  0  0
  144.8627  137.7047  150.6956 H   0  0  0  0  0  0  0  0  0  0  0  0
  146.4262  137.4907  149.9451 H   0  0  0  0  0  0  0  0  0  0  0  0
  145.8151  137.0345  153.5580 H   0  0  0  0  0  0  0  0  0  0  0  0
  144.3442  136.4137  152.8285 H   0  0  0  0  0  0  0  0  0  0  0  0
  146.6990  134.7306  153.8738 H   0  0  0  0  0  0  0  0  0  0  0  0
  145.1108  134.8624  154.6041 H   0  0  0  0  0  0  0  0  0  0  0  0
  146.8986  133.5783  151.7431 H   0  0  0  0  0  0  0  0  0  0  0  0
  145.4474  132.9163  151.0156 H   0  0  0  0  0  0  0  0  0  0  0  0
  144.5513  135.1824  150.5726 H   0  0  0  0  0  0  0  0  0  0  0  0
  146.1462  135.0228  149.8640 H   0  0  0  0  0  0  0  0  0  0  0  0
  151.8597  137.3473  154.0923 H   0  0  0  0  0  0  0  0  0  0  0  0
  147.0542  136.1067  151.7843 H   0  0  0  0  0  0  0  0  0  0  0  0
  1  2  1  0  0  0  0
  1 21  1  0  0  0  0
  1 22  1  0  0  0  0
  1 23  1  0  0  0  0
  2  3  1  0  0  0  0
  3 20  1  0  0  0  0
  3  4  2  0  0  0  0
  4  5  1  0  0  0  0
  4 24  1  0  0  0  0
  5  6  2  0  0  0  0
  5 25  1  0  0  0  0
  6  7  1  0  0  0  0
  6 19  1  0  0  0  0
  7  8  1  0  0  0  0
  7 26  1  0  0  0  0
  8  9  2  0  0  0  0
  8 10  1  0  0  0  0
 10 11  1  0  0  0  0
 10 27  1  0  0  0  0
 11 12  1  0  0  0  0
 11 28  1  0  0  0  0
 11 29  1  0  0  0  0
 12 13  1  0  0  0  0
 12 30  1  0  0  0  0
 12 31  1  0  0  0  0
 13 18  1  0  0  0  0
 13 14  1  0  0  0  0
 13 41  1  0  0  0  0
 14 15  1  0  0  0  0
 14 32  1  0  0  0  0
 14 33  1  0  0  0  0
 15 16  1  0  0  0  0
 15 34  1  0  0  0  0
 15 35  1  0  0  0  0
 16 17  1  0  0  0  0
 17 18  1  0  0  0  0
 17 36  1  0  0  0  0
 17 37  1  0  0  0  0
 18 38  1  0  0  0  0
 18 39  1  0  0  0  0
 19 20  2  0  0  0  0
 19 40  1  0  0  0  0
M  CHG  1  13   1
M  END
> <s_m_source_file>
AV-unprocessed.smi

> <i_m_source_file_index>
1197

> <i_lp_mmshare_version>
43012

> <i_f3d_flags>
0

> <s_epik_input>
W0NIM11PYzFbY0hdW2NIXWMoW2NIXW4xKVtOSF1DKD1PKVtOSF1bQ0gyXVtDSDJdTjJbQ0gyXVtDSDJdT1tDSDJdW0NIMl0y

> <s_epik_cmdline>
J2VwaWtfcHl0aG9uJywgJy1waCcsICc3LjAnLCAnLXRuJywgJzgnLCAnLW1hJywgJzIwMCcsICctbWV0YWxfYmluZGluZycsICctaW1hZScsICc8aW5maWxlLm1hZT4nLCAnLW9tYWUnLCAnPG91dGZpbGUubWFlPic=

> <r_lp_tautomer_probability>
1

> <r_epik_Ionization_Penalty>
0.602607

> <r_epik_Ionization_Penalty_Charging>
0.602531

> <r_epik_Ionization_Penalty_Neutral>
7.65795e-05

> <r_epik_State_Penalty>
0.617039

> <r_epik_Charging_Adjusted_Penalty>
1.21957

> <i_epik_Tot_Q>
1

> <i_epik_Tot_abs_Q>
1

> <r_epik_Metal_State_Penalty>
0.617043

> <b_epik_Metal_Only>
0

> <s_lp_Force_Field>
OPLS_2005

> <r_lp_Energy>
19.492

> <b_lp_Chiralities_Consistent>
1

> <s_lp_Variant>
AV-unprocessed.smi:1197-2

> <Gold.Version>
5.8.1

> <Gold.Id.Protein>
6NUR|6NUR_protein|mol2

> <Gold.PLP.Fitness>
41.2974

> <Gold.PLP.PLP>
-28.3687

> <Gold.PLP.part.hbond>
-5.8834

> <Gold.PLP.part.metal>
0.0000

> <Gold.PLP.part.buried>
2.9579

> <Gold.PLP.part.nonpolar>
-27.3319

> <Gold.PLP.part.repulsive>
0.4384

> <Gold.PLP.ligand.clash>
0.0000

> <Gold.PLP.ligand.torsion>
0.5864

> <Gold.PLP.Chemscore.Hbond>
4.6891

> <Gold.PLP.Chemscore.CHOScore>
0.0000

> <Gold.PLP.Chemscore.Metal>
0.0000

> <Gold.Chemscore.Hbonds>
donor molecule, donor type, donor heavy atom, donor atom, acceptor molecule, acceptor atom, score
      L1  H     7    26       P1  7948  0.74
      L1  H    10    27       P1  7948  0.91
      L1  H    13    41       P1  7948  2.00
      P1  H  7997  8010       L1     2  1.00

> <Gold.PLP.Chemscore.Internal.Correction>
0.0341

> <Gold.Rescore>
     Score         DG    S(hbond)    S(metal)    S(lipo)     H(rot)  DE(clash)    DE(int)     intcor
     15.47     -19.05       3.12        0.00      66.76       1.83       1.73       1.85       ----

> <Gold.Chemscore.Fitness>
15.4704

> <Gold.Chemscore.DG>
-19.0528

> <Gold.Chemscore.ZeroCoef>
-5.4800

> <Gold.Chemscore.Hbond>
3.1245

> <Gold.Chemscore.Metal>
0.0000

> <Gold.Chemscore.Lipo>
66.7628

> <Gold.Chemscore.Internal_Hbond>
0.0000

> <Gold.Chemscore.DEClash>
1.7274

> <Gold.Chemscore.DEInternal>
1.8550

> <Gold.Chemscore.Rot>
1.8260

> <Gold.Chemscore.Internal.Correction>
   9.000000E+99

> <Gold.Chemscore.Hbonds>
donor molecule, donor type, donor heavy atom, donor atom, acceptor molecule, acceptor atom, score
      L1  H     7    26       P1  7948  0.35
      L1  H    10    27       P1  7948  0.88
      L1  H    13    41       P1  7948  1.00
      P1  H  7997  8010       L1     2  0.82

> <Gold.Chemscore.Hbond.Weighted>
-10.4360

> <Gold.Chemscore.Metal.Weighted>
-0.0000

> <Gold.Chemscore.Lipo.Weighted>
-7.8112

> <Gold.Chemscore.Internal_Hbond.Weighted>
0.0000

> <Gold.Chemscore.DEClash.Weighted>
1.7274

> <Gold.Chemscore.DEInternal.Weighted>
1.8550

> <Gold.Chemscore.Rot.Weighted>
4.6744

> <Gold.Chemscore.Internal.Correction.Weighted>
   9.000000E+99

> <Gold.Protein.RotatedTorsions>
[ 6907 6896 6895 6894 ] final   -4.15 input  -60.11 | X-H torsion
[ 7974 7965 7964 7962 ] final   35.30 input  175.53 | X-H torsion
[ 8008 7997 7996 7995 ] final   28.74 input   59.86 | X-H torsion
[ 10167 10162 10161 10158 ] final   30.72 input  -65.29 | X-H torsion
[ 10718 10713 10712 10709 ] final   73.50 input   66.30 | X-H torsion
[ 10763 10752 10751 10750 ] final  112.60 input  -60.55 | X-H torsion
[ 11005 11000 10999 10996 ] final   19.06 input  -57.11 | X-H torsion

> <Gold.Protein.ActiveResidues>
 VAL166  LYS551  ARG553  GLY616  TRP617  ASP618  TYR619  PRO620  LYS621  CYS622 
 ASP623  PHE694  ASN695  SER759  ASP760  ASP761  ALA762  ILE779  LEU786  VAL792 
 PHE793  MET794  SER795  GLU796  ALA797  LYS798  CYS799  TRP800  GLU811  SER814 

> <Gold.Protein.RotatedAtoms>
  151.5023  135.1062  159.9831 H   0  0  0  0  0  0  0  0  0  0  0  0  # atno 6907 bound_to 6896
  152.4696  133.7997  159.6956 H   0  0  0  0  0  0  0  0  0  0  0  0  # atno 6908 bound_to 6896
  150.8699  133.7458  159.2990 H   0  0  0  0  0  0  0  0  0  0  0  0  # atno 6909 bound_to 6896
  146.1293  139.6160  142.9237 H   0  0  0  0  0  0  0  0  0  0  0  0  # atno 7974 bound_to 7965
  155.0635  140.3192  155.4653 H   0  0  0  0  0  0  0  0  0  0  0  0  # atno 8008 bound_to 7997
  156.2807  140.2124  156.5707 H   0  0  0  0  0  0  0  0  0  0  0  0  # atno 8009 bound_to 7997
  154.7113  140.0498  157.0540 H   0  0  0  0  0  0  0  0  0  0  0  0  # atno 8010 bound_to 7997
  140.4653  144.0845  150.6223 H   0  0  0  0  0  0  0  0  0  0  0  0  # atno 10167 bound_to 10162
  157.6550  130.9631  150.1078 H   0  0  0  0  0  0  0  0  0  0  0  0  # atno 10718 bound_to 10713
  153.4802  135.3681  155.2438 H   0  0  0  0  0  0  0  0  0  0  0  0  # atno 10763 bound_to 10752
  154.8755  135.3952  154.3709 H   0  0  0  0  0  0  0  0  0  0  0  0  # atno 10764 bound_to 10752
  153.4311  135.7082  153.6295 H   0  0  0  0  0  0  0  0  0  0  0  0  # atno 10765 bound_to 10752
  140.4179  134.1549  155.7671 H   0  0  0  0  0  0  0  0  0  0  0  0  # atno 11005 bound_to 11000
  145.5297  141.0428  143.2390 LP  0  0  0  0  0  0  0  0  0  0  0  0  # atno 17320 bound_to 7965
  144.7674  139.6814  143.7209 LP  0  0  0  0  0  0  0  0  0  0  0  0  # atno 17321 bound_to 7965
  140.4044  143.2688  151.9909 LP  0  0  0  0  0  0  0  0  0  0  0  0  # atno 17342 bound_to 10162
  139.4811  144.5970  151.7673 LP  0  0  0  0  0  0  0  0  0  0  0  0  # atno 17343 bound_to 10162
  156.1983  130.3658  149.8821 LP  0  0  0  0  0  0  0  0  0  0  0  0  # atno 17370 bound_to 10713
  156.6732  130.8828  151.3565 LP  0  0  0  0  0  0  0  0  0  0  0  0  # atno 17371 bound_to 10713
  141.1796  133.8443  157.1305 LP  0  0  0  0  0  0  0  0  0  0  0  0  # atno 17394 bound_to 11000
  140.0221  134.9941  157.0612 LP  0  0  0  0  0  0  0  0  0  0  0  0  # atno 17395 bound_to 11000

$$$$
