AV-unprocessed.smi:530|AV-procd|sdf|2844|dock2
  -GOLD-   2262023333D 1   1.00000     0.00000
 Structure written by MMmdl.
 36 38  0  0  0  0  0  0  0  0  2 V2000
  151.7868  138.1551  154.9759 C   0  0  0  0  0  0  0  0  0  0  0  0
  150.5600  138.9129  154.5935 C   0  0  0  0  0  0  0  0  0  0  0  0
  149.5750  138.4758  153.7586 N   0  3  0  0  0  0  0  0  0  0  0  0
  148.5875  139.4549  153.6395 C   0  0  0  0  0  0  0  0  0  0  0  0
  147.4018  139.4714  152.9113 C   0  0  0  0  0  0  0  0  0  0  0  0
  146.6135  140.6368  153.0122 C   0  0  0  0  0  0  0  0  0  0  0  0
  147.0139  141.7276  153.8115 C   0  0  0  0  0  0  0  0  0  0  0  0
  148.2187  141.6997  154.5445 C   0  0  0  0  0  0  0  0  0  0  0  0
  148.9904  140.5428  154.4404 C   0  0  0  0  0  0  0  0  0  0  0  0
  150.2109  140.1639  155.0090 N   0  0  0  0  0  0  0  0  0  0  0  0
  150.9002  141.0959  155.9137 C   0  0  0  0  0  0  0  0  0  0  0  0
  151.1598  140.4984  157.3111 C   0  0  2  0  0  0  0  0  0  0  0  0
  149.9962  139.8408  157.7740 O   0  0  0  0  0  0  0  0  0  0  0  0
  151.6439  141.5623  158.2830 C   0  0  0  0  0  0  0  0  0  0  0  0
  151.5906  142.9258  157.9207 C   0  0  0  0  0  0  0  0  0  0  0  0
  152.0265  143.9170  158.8213 C   0  0  0  0  0  0  0  0  0  0  0  0
  152.5160  143.5511  160.0898 C   0  0  0  0  0  0  0  0  0  0  0  0
  152.5693  142.1930  160.4576 C   0  0  0  0  0  0  0  0  0  0  0  0
  152.1344  141.2011  159.5572 C   0  0  0  0  0  0  0  0  0  0  0  0
  151.8114  137.1874  154.4748 H   0  0  0  0  0  0  0  0  0  0  0  0
  151.8054  137.9887  156.0531 H   0  0  0  0  0  0  0  0  0  0  0  0
  152.6788  138.7143  154.6938 H   0  0  0  0  0  0  0  0  0  0  0  0
  147.0934  138.6373  152.2981 H   0  0  0  0  0  0  0  0  0  0  0  0
  145.6834  140.6952  152.4655 H   0  0  0  0  0  0  0  0  0  0  0  0
  146.3841  142.6038  153.8644 H   0  0  0  0  0  0  0  0  0  0  0  0
  148.5179  142.5399  155.1536 H   0  0  0  0  0  0  0  0  0  0  0  0
  151.8354  141.4006  155.4421 H   0  0  0  0  0  0  0  0  0  0  0  0
  150.2905  141.9971  155.9907 H   0  0  0  0  0  0  0  0  0  0  0  0
  151.9340  139.7345  157.2314 H   0  0  0  0  0  0  0  0  0  0  0  0
  149.5826  139.4129  157.0396 H   0  0  0  0  0  0  0  0  0  0  0  0
  151.2141  143.2175  156.9512 H   0  0  0  0  0  0  0  0  0  0  0  0
  151.9840  144.9590  158.5395 H   0  0  0  0  0  0  0  0  0  0  0  0
  152.8488  144.3116  160.7806 H   0  0  0  0  0  0  0  0  0  0  0  0
  152.9423  141.9118  161.4314 H   0  0  0  0  0  0  0  0  0  0  0  0
  152.1752  140.1618  159.8491 H   0  0  0  0  0  0  0  0  0  0  0  0
  149.5804  137.5715  153.3046 H   0  0  0  0  0  0  0  0  0  0  0  0
  1  2  1  0  0  0  0
  1 20  1  0  0  0  0
  1 21  1  0  0  0  0
  1 22  1  0  0  0  0
  2 10  1  0  0  0  0
  2  3  2  0  0  0  0
  3  4  1  0  0  0  0
  3 36  1  0  0  0  0
  4  9  2  0  0  0  0
  4  5  1  0  0  0  0
  5  6  2  0  0  0  0
  5 23  1  0  0  0  0
  6  7  1  0  0  0  0
  6 24  1  0  0  0  0
  7  8  2  0  0  0  0
  7 25  1  0  0  0  0
  8  9  1  0  0  0  0
  8 26  1  0  0  0  0
  9 10  1  0  0  0  0
 10 11  1  0  0  0  0
 11 12  1  0  0  0  0
 11 27  1  0  0  0  0
 11 28  1  0  0  0  0
 12 13  1  0  0  0  0
 12 14  1  0  0  0  0
 12 29  1  0  0  0  0
 13 30  1  0  0  0  0
 14 19  1  0  0  0  0
 14 15  2  0  0  0  0
 15 16  1  0  0  0  0
 15 31  1  0  0  0  0
 16 17  2  0  0  0  0
 16 32  1  0  0  0  0
 17 18  1  0  0  0  0
 17 33  1  0  0  0  0
 18 19  2  0  0  0  0
 18 34  1  0  0  0  0
 19 35  1  0  0  0  0
M  CHG  1   3   1
M  END
> <s_m_source_file>
AV-unprocessed.smi

> <i_m_source_file_index>
530

> <i_lp_mmshare_version>
43012

> <i_f3d_flags>
0

> <s_epik_input>
W2NIXTFbY0hdW2NIXVtjSF1jKGMxMiluKGMobjIpW0NIM10pW0NIMl1bQ0BIXShbT0hdKWMzW2NIXVtjSF1bY0hdW2NIXVtjSF0z

> <s_epik_cmdline>
J2VwaWtfcHl0aG9uJywgJy1waCcsICc3LjAnLCAnLXRuJywgJzgnLCAnLW1hJywgJzIwMCcsICctbWV0YWxfYmluZGluZycsICctaW1hZScsICc8aW5maWxlLm1hZT4nLCAnLW9tYWUnLCAnPG91dGZpbGUubWFlPic=

> <r_epik_Ionization_Penalty>
0.963869

> <r_epik_Ionization_Penalty_Charging>
0.963868

> <r_epik_Ionization_Penalty_Neutral>
1.34362e-06

> <r_epik_State_Penalty>
1.00924

> <r_epik_Charging_Adjusted_Penalty>
1.9731

> <i_epik_Tot_Q>
1

> <i_epik_Tot_abs_Q>
1

> <r_epik_Metal_State_Penalty>
4.98304

> <b_epik_Metal_Only>
0

> <s_lp_Force_Field>
OPLS_2005

> <r_lp_Energy>
14.7025

> <b_lp_Chiralities_Consistent>
1

> <s_lp_Variant>
AV-unprocessed.smi:530-3

> <Gold.Version>
5.8.1

> <Gold.Id.Protein>
6NUR|6NUR_protein|mol2

> <Gold.PLP.Fitness>
49.7101

> <Gold.PLP.PLP>
-44.1278

> <Gold.PLP.part.hbond>
-2.0000

> <Gold.PLP.part.metal>
0.0000

> <Gold.PLP.part.buried>
2.4469

> <Gold.PLP.part.nonpolar>
-45.4294

> <Gold.PLP.part.repulsive>
0.0613

> <Gold.PLP.ligand.clash>
0.0000

> <Gold.PLP.ligand.torsion>
0.2232

> <Gold.PLP.Chemscore.Hbond>
2.0000

> <Gold.PLP.Chemscore.CHOScore>
0.0000

> <Gold.PLP.Chemscore.Metal>
0.0000

> <Gold.Chemscore.Hbonds>
donor molecule, donor type, donor heavy atom, donor atom, acceptor molecule, acceptor atom, score
      L1  H     3    36       P1  7948  1.98

> <Gold.PLP.Chemscore.Internal.Correction>
0.0286

> <Gold.Rescore>
     Score         DG    S(hbond)    S(metal)    S(lipo)     H(rot)  DE(clash)    DE(int)     intcor
     16.75     -17.33       0.63        0.00     121.74       1.76       0.38       0.20       ----

> <Gold.Chemscore.Fitness>
16.7471

> <Gold.Chemscore.DG>
-17.3303

> <Gold.Chemscore.ZeroCoef>
-5.4800

> <Gold.Chemscore.Hbond>
0.6290

> <Gold.Chemscore.Metal>
0.0000

> <Gold.Chemscore.Lipo>
121.7390

> <Gold.Chemscore.Internal_Hbond>
0.0000

> <Gold.Chemscore.DEClash>
0.3790

> <Gold.Chemscore.DEInternal>
0.2042

> <Gold.Chemscore.Rot>
1.7555

> <Gold.Chemscore.Internal.Correction>
   9.000000E+99

> <Gold.Chemscore.Hbonds>
donor molecule, donor type, donor heavy atom, donor atom, acceptor molecule, acceptor atom, score
      L1  H     3    36       P1  7948  0.76

> <Gold.Chemscore.Hbond.Weighted>
-2.1010

> <Gold.Chemscore.Metal.Weighted>
-0.0000

> <Gold.Chemscore.Lipo.Weighted>
-14.2435

> <Gold.Chemscore.Internal_Hbond.Weighted>
0.0000

> <Gold.Chemscore.DEClash.Weighted>
0.3790

> <Gold.Chemscore.DEInternal.Weighted>
0.2042

> <Gold.Chemscore.Rot.Weighted>
4.4942

> <Gold.Chemscore.Internal.Correction.Weighted>
   9.000000E+99

> <Gold.Protein.RotatedTorsions>
[ 6907 6896 6895 6894 ] final  -57.71 input  -60.11 | X-H torsion
[ 7974 7965 7964 7962 ] final  112.05 input  175.53 | X-H torsion
[ 8008 7997 7996 7995 ] final    4.63 input   59.86 | X-H torsion
[ 10167 10162 10161 10158 ] final -102.42 input  -65.29 | X-H torsion
[ 10718 10713 10712 10709 ] final -167.86 input   66.30 | X-H torsion
[ 10763 10752 10751 10750 ] final -128.92 input  -60.55 | X-H torsion
[ 11005 11000 10999 10996 ] final -146.69 input  -57.11 | X-H torsion

> <Gold.Protein.ActiveResidues>
 VAL166  LYS551  ARG553  GLY616  TRP617  ASP618  TYR619  PRO620  LYS621  CYS622 
 ASP623  PHE694  ASN695  SER759  ASP760  ASP761  ALA762  ILE779  LEU786  VAL792 
 PHE793  MET794  SER795  GLU796  ALA797  LYS798  CYS799  TRP800  GLU811  SER814 

> <Gold.Protein.RotatedAtoms>
  150.8065  134.7192  159.6648 H   0  0  0  0  0  0  0  0  0  0  0  0  # atno 6907 bound_to 6896
  152.4184  134.5997  160.0006 H   0  0  0  0  0  0  0  0  0  0  0  0  # atno 6908 bound_to 6896
  151.6219  133.3301  159.3126 H   0  0  0  0  0  0  0  0  0  0  0  0  # atno 6909 bound_to 6896
  145.2344  139.2805  143.4151 H   0  0  0  0  0  0  0  0  0  0  0  0  # atno 7974 bound_to 7965
  154.7183  140.2706  155.6565 H   0  0  0  0  0  0  0  0  0  0  0  0  # atno 8008 bound_to 7997
  156.2816  140.2739  156.1771 H   0  0  0  0  0  0  0  0  0  0  0  0  # atno 8009 bound_to 7997
  155.0541  140.0371  157.2544 H   0  0  0  0  0  0  0  0  0  0  0  0  # atno 8010 bound_to 7997
  140.2309  143.3607  152.0887 H   0  0  0  0  0  0  0  0  0  0  0  0  # atno 10167 bound_to 10162
  156.6885  130.9150  151.3066 H   0  0  0  0  0  0  0  0  0  0  0  0  # atno 10718 bound_to 10713
  154.8757  135.3912  154.3835 H   0  0  0  0  0  0  0  0  0  0  0  0  # atno 10763 bound_to 10752
  153.4579  135.7029  153.6073 H   0  0  0  0  0  0  0  0  0  0  0  0  # atno 10764 bound_to 10752
  153.4585  135.3817  155.2293 H   0  0  0  0  0  0  0  0  0  0  0  0  # atno 10765 bound_to 10752
  140.7794  134.3097  157.5050 H   0  0  0  0  0  0  0  0  0  0  0  0  # atno 11005 bound_to 11000
  146.3345  140.2689  142.8605 LP  0  0  0  0  0  0  0  0  0  0  0  0  # atno 17320 bound_to 7965
  144.9647  140.8309  143.5492 LP  0  0  0  0  0  0  0  0  0  0  0  0  # atno 17321 bound_to 7965
  139.5110  144.6894  151.5801 LP  0  0  0  0  0  0  0  0  0  0  0  0  # atno 17342 bound_to 10162
  140.6186  143.9302  150.6508 LP  0  0  0  0  0  0  0  0  0  0  0  0  # atno 17343 bound_to 10162
  157.7017  130.9341  150.0807 LP  0  0  0  0  0  0  0  0  0  0  0  0  # atno 17370 bound_to 10713
  156.1815  130.3650  149.9030 LP  0  0  0  0  0  0  0  0  0  0  0  0  # atno 17371 bound_to 10713
  139.8744  134.9309  156.3514 LP  0  0  0  0  0  0  0  0  0  0  0  0  # atno 17394 bound_to 11000
  140.9497  133.7459  156.0256 LP  0  0  0  0  0  0  0  0  0  0  0  0  # atno 17395 bound_to 11000

$$$$
