AV-unprocessed.smi:999|AV-procd|sdf|4353|dock5
  -GOLD-   22720 2253D 1   1.00000     0.00000
 Structure written by MMmdl.
 37 38  0  0  0  0  0  0  0  0  2 V2000
  154.0177  141.9522  160.3156 C   0  0  0  0  0  0  0  0  0  0  0  0
  152.4957  141.9515  160.0636 C   0  0  2  0  0  0  0  0  0  0  0  0
  152.0512  140.8151  159.1298 C   0  0  0  0  0  0  0  0  0  0  0  0
  152.6218  139.7236  159.1501 O   0  0  0  0  0  0  0  0  0  0  0  0
  151.0224  141.0917  158.3132 N   0  0  0  0  0  0  0  0  0  0  0  0
  150.4342  140.1725  157.3450 C   0  0  2  0  0  0  0  0  0  0  0  0
  149.6560  139.0751  158.0957 C   0  0  0  0  0  0  0  0  0  0  0  0
  149.0902  138.0188  157.1280 C   0  0  0  0  0  0  0  0  0  0  0  0
  150.1893  137.3849  156.2409 C   0  0  2  0  0  0  0  0  0  0  0  0
  151.1293  136.4484  157.0365 C   0  0  0  0  0  0  0  0  0  0  0  0
  150.9106  136.3004  158.2593 O   0  0  0  0  0  0  0  0  0  0  0  0
  152.0768  135.9119  156.4202 O   0  5  0  0  0  0  0  0  0  0  0  0
  150.9534  138.5030  155.4896 C   0  0  0  0  0  0  0  0  0  0  0  0
  151.5303  139.5651  156.4446 C   0  0  0  0  0  0  0  0  0  0  0  0
  152.0113  143.2332  159.5637 N   0  0  0  0  0  0  0  0  0  0  0  0
  152.7584  144.3093  159.1283 C   0  0  0  0  0  0  0  0  0  0  0  0
  151.8880  145.3066  158.7936 C   0  0  0  0  0  0  0  0  0  0  0  0
  150.6108  144.7484  159.0763 C   0  0  0  0  0  0  0  0  0  0  0  0
  150.6875  143.5145  159.5459 N   0  0  0  0  0  0  0  0  0  0  0  0
  154.3458  140.9989  160.7312 H   0  0  0  0  0  0  0  0  0  0  0  0
  154.2925  142.7299  161.0283 H   0  0  0  0  0  0  0  0  0  0  0  0
  154.5868  142.1255  159.4016 H   0  0  0  0  0  0  0  0  0  0  0  0
  152.0149  141.7848  161.0292 H   0  0  0  0  0  0  0  0  0  0  0  0
  150.6111  142.0121  158.3669 H   0  0  0  0  0  0  0  0  0  0  0  0
  149.7259  140.7167  156.7172 H   0  0  0  0  0  0  0  0  0  0  0  0
  150.3061  138.5931  158.8272 H   0  0  0  0  0  0  0  0  0  0  0  0
  148.8394  139.5224  158.6633 H   0  0  0  0  0  0  0  0  0  0  0  0
  148.5455  137.2561  157.6857 H   0  0  0  0  0  0  0  0  0  0  0  0
  148.3472  138.4910  156.4847 H   0  0  0  0  0  0  0  0  0  0  0  0
  149.7020  136.7514  155.4991 H   0  0  0  0  0  0  0  0  0  0  0  0
  151.7479  138.0879  154.8683 H   0  0  0  0  0  0  0  0  0  0  0  0
  150.2689  138.9904  154.7944 H   0  0  0  0  0  0  0  0  0  0  0  0
  152.0136  140.3502  155.8622 H   0  0  0  0  0  0  0  0  0  0  0  0
  152.3120  139.1198  157.0614 H   0  0  0  0  0  0  0  0  0  0  0  0
  153.8375  144.2758  159.0933 H   0  0  0  0  0  0  0  0  0  0  0  0
  152.1272  146.2878  158.4114 H   0  0  0  0  0  0  0  0  0  0  0  0
  149.6374  145.2017  158.9604 H   0  0  0  0  0  0  0  0  0  0  0  0
  1  2  1  0  0  0  0
  1 20  1  0  0  0  0
  1 21  1  0  0  0  0
  1 22  1  0  0  0  0
  2  3  1  0  0  0  0
  2 15  1  0  0  0  0
  2 23  1  0  0  0  0
  3  4  2  0  0  0  0
  3  5  1  0  0  0  0
  5  6  1  0  0  0  0
  5 24  1  0  0  0  0
  6 14  1  0  0  0  0
  6  7  1  0  0  0  0
  6 25  1  0  0  0  0
  7  8  1  0  0  0  0
  7 26  1  0  0  0  0
  7 27  1  0  0  0  0
  8  9  1  0  0  0  0
  8 28  1  0  0  0  0
  8 29  1  0  0  0  0
  9 10  1  0  0  0  0
  9 13  1  0  0  0  0
  9 30  1  0  0  0  0
 10 11  2  0  0  0  0
 10 12  1  0  0  0  0
 13 14  1  0  0  0  0
 13 31  1  0  0  0  0
 13 32  1  0  0  0  0
 14 33  1  0  0  0  0
 14 34  1  0  0  0  0
 15 19  1  0  0  0  0
 15 16  1  0  0  0  0
 16 17  2  0  0  0  0
 16 35  1  0  0  0  0
 17 18  1  0  0  0  0
 17 36  1  0  0  0  0
 18 19  2  0  0  0  0
 18 37  1  0  0  0  0
M  CHG  1  12  -1
M  END
> <s_m_source_file>
AV-unprocessed.smi

> <i_m_source_file_index>
999

> <i_lp_mmshare_version>
43012

> <i_f3d_flags>
0

> <s_epik_input>
bjFbY0hdW2NIXVtjSF1uMVtDQEhdKFtDSDNdKUMoPU8pW05IXVtDQEBIXTJbQ0gyXVtDSDJdW0NAQEhdKEMoPU8pW09IXSlbQ0gyXVtDSDJdMg==

> <s_epik_cmdline>
J2VwaWtfcHl0aG9uJywgJy1waCcsICc3LjAnLCAnLXRuJywgJzgnLCAnLW1hJywgJzIwMCcsICctbWV0YWxfYmluZGluZycsICctaW1hZScsICc8aW5maWxlLm1hZT4nLCAnLW9tYWUnLCAnPG91dGZpbGUubWFlPic=

> <r_lp_tautomer_probability>
1

> <r_epik_Ionization_Penalty>
0.00221712

> <r_epik_Ionization_Penalty_Charging>
0.00217268

> <r_epik_Ionization_Penalty_Neutral>
4.44343e-05

> <r_epik_State_Penalty>
0.0014925

> <r_epik_Charging_Adjusted_Penalty>
0.00366518

> <i_epik_Tot_Q>
-1

> <i_epik_Tot_abs_Q>
1

> <r_epik_Metal_State_Penalty>
-0

> <b_epik_Metal_Only>
0

> <s_lp_Force_Field>
OPLS_2005

> <r_lp_Energy>
7.42219

> <b_lp_Chiralities_Consistent>
1

> <s_lp_Variant>
AV-unprocessed.smi:999-3

> <Gold.Version>
5.8.1

> <Gold.Id.Protein>
6NUR|6NUR_protein|mol2

> <Gold.PLP.Fitness>
45.1532

> <Gold.PLP.PLP>
-33.6189

> <Gold.PLP.part.hbond>
-2.0332

> <Gold.PLP.part.metal>
0.0000

> <Gold.PLP.part.buried>
-5.7967

> <Gold.PLP.part.nonpolar>
-25.8325

> <Gold.PLP.part.repulsive>
0.1975

> <Gold.PLP.ligand.clash>
0.0000

> <Gold.PLP.ligand.torsion>
0.9104

> <Gold.PLP.Chemscore.Hbond>
3.4080

> <Gold.PLP.Chemscore.CHOScore>
1.0000

> <Gold.PLP.Chemscore.Metal>
0.0000

> <Gold.Chemscore.Hbonds>
donor molecule, donor type, donor heavy atom, donor atom, acceptor molecule, acceptor atom, score
      P1  H  6896  6909       L1    11  1.34
      P1  H 10752 10763       L1    12  2.00
      L1  C    18    37       P1  8029  1.00

> <Gold.PLP.Chemscore.Internal.Correction>
0.1312

> <Gold.Rescore>
     Score         DG    S(hbond)    S(metal)    S(lipo)     H(rot)  DE(clash)    DE(int)     intcor
     11.94     -15.43       1.74        0.00      78.54       1.98       0.00       3.49       ----

> <Gold.Chemscore.Fitness>
11.9376

> <Gold.Chemscore.DG>
-15.4265

> <Gold.Chemscore.ZeroCoef>
-5.4800

> <Gold.Chemscore.Hbond>
1.7425

> <Gold.Chemscore.Metal>
0.0000

> <Gold.Chemscore.Lipo>
78.5362

> <Gold.Chemscore.Internal_Hbond>
0.0000

> <Gold.Chemscore.DEClash>
0.0038

> <Gold.Chemscore.DEInternal>
3.4851

> <Gold.Chemscore.Rot>
1.9774

> <Gold.Chemscore.Internal.Correction>
   9.000000E+99

> <Gold.Chemscore.Hbonds>
donor molecule, donor type, donor heavy atom, donor atom, acceptor molecule, acceptor atom, score
      P1  H  6896  6909       L1    11  0.66
      P1  H 10752 10763       L1    12  1.00

> <Gold.Chemscore.Hbond.Weighted>
-5.8198

> <Gold.Chemscore.Metal.Weighted>
-0.0000

> <Gold.Chemscore.Lipo.Weighted>
-9.1887

> <Gold.Chemscore.Internal_Hbond.Weighted>
0.0000

> <Gold.Chemscore.DEClash.Weighted>
0.0038

> <Gold.Chemscore.DEInternal.Weighted>
3.4851

> <Gold.Chemscore.Rot.Weighted>
5.0620

> <Gold.Chemscore.Internal.Correction.Weighted>
   9.000000E+99

> <Gold.Protein.RotatedTorsions>
[ 6907 6896 6895 6894 ] final   77.91 input  -60.11 | X-H torsion
[ 7974 7965 7964 7962 ] final -166.52 input  175.53 | X-H torsion
[ 8008 7997 7996 7995 ] final  -83.77 input   59.86 | X-H torsion
[ 10167 10162 10161 10158 ] final  -31.21 input  -65.29 | X-H torsion
[ 10718 10713 10712 10709 ] final -166.46 input   66.30 | X-H torsion
[ 10763 10752 10751 10750 ] final   84.82 input  -60.55 | X-H torsion
[ 11005 11000 10999 10996 ] final  152.78 input  -57.11 | X-H torsion

> <Gold.Protein.ActiveResidues>
 VAL166  LYS551  ARG553  GLY616  TRP617  ASP618  TYR619  PRO620  LYS621  CYS622 
 ASP623  PHE694  ASN695  SER759  ASP760  ASP761  ALA762  ILE779  LEU786  VAL792 
 PHE793  MET794  SER795  GLU796  ALA797  LYS798  CYS799  TRP800  GLU811  SER814 

> <Gold.Protein.RotatedAtoms>
  152.5137  134.3745  159.9329 H   0  0  0  0  0  0  0  0  0  0  0  0  # atno 6907 bound_to 6896
  151.3701  133.3852  159.2706 H   0  0  0  0  0  0  0  0  0  0  0  0  # atno 6908 bound_to 6896
  150.9585  134.8995  159.7774 H   0  0  0  0  0  0  0  0  0  0  0  0  # atno 6909 bound_to 6896
  144.7243  140.2654  143.6258 H   0  0  0  0  0  0  0  0  0  0  0  0  # atno 7974 bound_to 7965
  154.6226  140.0614  156.9634 H   0  0  0  0  0  0  0  0  0  0  0  0  # atno 8008 bound_to 7997
  155.1793  140.3298  155.4359 H   0  0  0  0  0  0  0  0  0  0  0  0  # atno 8009 bound_to 7997
  156.2440  140.1900  156.6890 H   0  0  0  0  0  0  0  0  0  0  0  0  # atno 8010 bound_to 7997
  140.7239  143.3788  151.1639 H   0  0  0  0  0  0  0  0  0  0  0  0  # atno 10167 bound_to 10162
  156.6682  130.9073  151.3039 H   0  0  0  0  0  0  0  0  0  0  0  0  # atno 10718 bound_to 10713
  153.1417  135.4640  154.9506 H   0  0  0  0  0  0  0  0  0  0  0  0  # atno 10763 bound_to 10752
  154.7753  135.3171  154.8108 H   0  0  0  0  0  0  0  0  0  0  0  0  # atno 10764 bound_to 10752
  153.8629  135.6911  153.4835 H   0  0  0  0  0  0  0  0  0  0  0  0  # atno 10765 bound_to 10752
  140.1339  134.8784  157.2240 H   0  0  0  0  0  0  0  0  0  0  0  0  # atno 11005 bound_to 11000
  145.8095  139.1997  143.2001 LP  0  0  0  0  0  0  0  0  0  0  0  0  # atno 17320 bound_to 7965
  146.0608  140.7973  142.9736 LP  0  0  0  0  0  0  0  0  0  0  0  0  # atno 17321 bound_to 7965
  139.7373  143.8979  152.3039 LP  0  0  0  0  0  0  0  0  0  0  0  0  # atno 17342 bound_to 10162
  139.8788  144.7029  150.8902 LP  0  0  0  0  0  0  0  0  0  0  0  0  # atno 17343 bound_to 10162
  157.7086  130.9414  150.1014 LP  0  0  0  0  0  0  0  0  0  0  0  0  # atno 17370 bound_to 10713
  156.1959  130.3657  149.8850 LP  0  0  0  0  0  0  0  0  0  0  0  0  # atno 17371 bound_to 10713
  140.2807  134.3353  155.7344 LP  0  0  0  0  0  0  0  0  0  0  0  0  # atno 17394 bound_to 11000
  141.2175  133.7477  156.9360 LP  0  0  0  0  0  0  0  0  0  0  0  0  # atno 17395 bound_to 11000

$$$$
