AV-unprocessed.smi:895|AV-procd|sdf|4075|dock7
  -GOLD-   22720 1563D 1   1.00000     0.00000
 Structure written by MMmdl.
 44 45  0  0  0  0  0  0  0  0  1 V2000
  151.0834  134.0766  156.1278 C   0  0  0  0  0  0  0  0  0  0  0  0
  150.3649  135.3581  155.6638 C   0  0  0  0  0  0  0  0  0  0  0  0
  150.7047  136.5280  156.6024 C   0  0  0  0  0  0  0  0  0  0  0  0
  150.8706  135.7134  154.3917 O   0  0  0  0  0  0  0  0  0  0  0  0
  148.8291  135.2076  155.5418 C   0  0  0  0  0  0  0  0  0  0  0  0
  148.3830  134.9086  154.1820 N   0  0  0  0  0  0  0  0  0  0  0  0
  147.6386  133.8549  153.8194 C   0  0  0  0  0  0  0  0  0  0  0  0
  147.2423  132.9863  154.5968 O   0  0  0  0  0  0  0  0  0  0  0  0
  147.3743  133.8637  152.5059 N   0  0  0  0  0  0  0  0  0  0  0  0
  146.5657  132.8706  151.8008 C   0  0  2  0  0  0  0  0  0  0  0  0
  146.7435  133.0349  150.2780 C   0  0  0  0  0  0  0  0  0  0  0  0
  145.9070  132.0042  149.5044 C   0  0  0  0  0  0  0  0  0  0  0  0
  144.4203  132.0879  149.8811 C   0  0  0  0  0  0  0  0  0  0  0  0
  144.2146  131.9393  151.4002 C   0  0  0  0  0  0  0  0  0  0  0  0
  145.0750  132.9079  152.2455 C   0  0  2  0  0  0  0  0  0  0  0  0
  144.5081  134.2563  152.3152 N   0  0  0  0  0  0  0  0  0  0  0  0
  143.3394  134.6393  152.9434 C   0  0  0  0  0  0  0  0  0  0  0  0
  143.1986  135.9865  152.7741 C   0  0  0  0  0  0  0  0  0  0  0  0
  144.3467  136.3513  152.0191 C   0  0  0  0  0  0  0  0  0  0  0  0
  145.1260  135.3180  151.7491 N   0  0  0  0  0  0  0  0  0  0  0  0
  150.6973  133.7380  157.0897 H   0  0  0  0  0  0  0  0  0  0  0  0
  152.1546  134.2440  156.2443 H   0  0  0  0  0  0  0  0  0  0  0  0
  150.9631  133.2592  155.4161 H   0  0  0  0  0  0  0  0  0  0  0  0
  150.3513  136.3347  157.6158 H   0  0  0  0  0  0  0  0  0  0  0  0
  150.2430  137.4569  156.2650 H   0  0  0  0  0  0  0  0  0  0  0  0
  151.7810  136.6970  156.6572 H   0  0  0  0  0  0  0  0  0  0  0  0
  150.1438  135.9542  153.8380 H   0  0  0  0  0  0  0  0  0  0  0  0
  148.4825  134.4291  156.2240 H   0  0  0  0  0  0  0  0  0  0  0  0
  148.3338  136.1229  155.8680 H   0  0  0  0  0  0  0  0  0  0  0  0
  148.6530  135.5656  153.4646 H   0  0  0  0  0  0  0  0  0  0  0  0
  147.7420  134.6232  151.9516 H   0  0  0  0  0  0  0  0  0  0  0  0
  146.9589  131.8838  152.0538 H   0  0  0  0  0  0  0  0  0  0  0  0
  146.4703  134.0417  149.9626 H   0  0  0  0  0  0  0  0  0  0  0  0
  147.7951  132.9144  150.0154 H   0  0  0  0  0  0  0  0  0  0  0  0
  146.0273  132.1587  148.4317 H   0  0  0  0  0  0  0  0  0  0  0  0
  146.2800  131.0013  149.7152 H   0  0  0  0  0  0  0  0  0  0  0  0
  144.0034  133.0308  149.5292 H   0  0  0  0  0  0  0  0  0  0  0  0
  143.8669  131.3058  149.3606 H   0  0  0  0  0  0  0  0  0  0  0  0
  143.1593  132.0584  151.6485 H   0  0  0  0  0  0  0  0  0  0  0  0
  144.4724  130.9171  151.6801 H   0  0  0  0  0  0  0  0  0  0  0  0
  145.0404  132.5267  153.2673 H   0  0  0  0  0  0  0  0  0  0  0  0
  142.7105  133.9271  153.4576 H   0  0  0  0  0  0  0  0  0  0  0  0
  142.3985  136.6150  153.1358 H   0  0  0  0  0  0  0  0  0  0  0  0
  144.6363  137.3289  151.6630 H   0  0  0  0  0  0  0  0  0  0  0  0
  1  2  1  0  0  0  0
  1 21  1  0  0  0  0
  1 22  1  0  0  0  0
  1 23  1  0  0  0  0
  2  3  1  0  0  0  0
  2  4  1  0  0  0  0
  2  5  1  0  0  0  0
  3 24  1  0  0  0  0
  3 25  1  0  0  0  0
  3 26  1  0  0  0  0
  4 27  1  0  0  0  0
  5  6  1  0  0  0  0
  5 28  1  0  0  0  0
  5 29  1  0  0  0  0
  6  7  1  0  0  0  0
  6 30  1  0  0  0  0
  7  8  2  0  0  0  0
  7  9  1  0  0  0  0
  9 10  1  0  0  0  0
  9 31  1  0  0  0  0
 10 15  1  0  0  0  0
 10 11  1  0  0  0  0
 10 32  1  0  0  0  0
 11 12  1  0  0  0  0
 11 33  1  0  0  0  0
 11 34  1  0  0  0  0
 12 13  1  0  0  0  0
 12 35  1  0  0  0  0
 12 36  1  0  0  0  0
 13 14  1  0  0  0  0
 13 37  1  0  0  0  0
 13 38  1  0  0  0  0
 14 15  1  0  0  0  0
 14 39  1  0  0  0  0
 14 40  1  0  0  0  0
 15 16  1  0  0  0  0
 15 41  1  0  0  0  0
 16 20  1  0  0  0  0
 16 17  1  0  0  0  0
 17 18  2  0  0  0  0
 17 42  1  0  0  0  0
 18 19  1  0  0  0  0
 18 43  1  0  0  0  0
 19 20  2  0  0  0  0
 19 44  1  0  0  0  0
M  END
> <s_m_source_file>
AV-unprocessed.smi

> <i_m_source_file_index>
895

> <i_lp_mmshare_version>
43012

> <i_f3d_flags>
0

> <s_epik_input>
W0NIM11DKFtDSDNdKShbT0hdKVtDSDJdW05IXUMoPU8pW05IXVtDQEBIXTFbQ0gyXVtDSDJdW0NIMl1bQ0gyXVtDQEhdMW4yW2NIXVtjSF1bY0hdbjI=

> <s_epik_cmdline>
J2VwaWtfcHl0aG9uJywgJy1waCcsICc3LjAnLCAnLXRuJywgJzgnLCAnLW1hJywgJzIwMCcsICctbWV0YWxfYmluZGluZycsICctaW1hZScsICc8aW5maWxlLm1hZT4nLCAnLW9tYWUnLCAnPG91dGZpbGUubWFlPic=

> <r_lp_tautomer_probability>
1

> <r_epik_Ionization_Penalty>
0.000440451

> <r_epik_Ionization_Penalty_Charging>
0

> <r_epik_Ionization_Penalty_Neutral>
0.000440451

> <r_epik_State_Penalty>
-0

> <r_epik_Charging_Adjusted_Penalty>
0

> <i_epik_Tot_Q>
0

> <i_epik_Tot_abs_Q>
0

> <r_epik_Metal_State_Penalty>
-0

> <b_epik_Metal_Only>
0

> <s_lp_Force_Field>
OPLS_2005

> <r_lp_Energy>
14.0773

> <b_lp_Chiralities_Consistent>
1

> <s_lp_Variant>
AV-unprocessed.smi:895-3

> <Gold.Version>
5.8.1

> <Gold.Id.Protein>
6NUR|6NUR_protein|mol2

> <Gold.PLP.Fitness>
45.1499

> <Gold.PLP.PLP>
-31.7077

> <Gold.PLP.part.hbond>
-4.5629

> <Gold.PLP.part.metal>
0.0000

> <Gold.PLP.part.buried>
-2.3376

> <Gold.PLP.part.nonpolar>
-24.1725

> <Gold.PLP.part.repulsive>
0.2018

> <Gold.PLP.ligand.clash>
0.0000

> <Gold.PLP.ligand.torsion>
1.1054

> <Gold.PLP.Chemscore.Hbond>
3.1850

> <Gold.PLP.Chemscore.CHOScore>
2.0000

> <Gold.PLP.Chemscore.Metal>
0.0000

> <Gold.Chemscore.Hbonds>
donor molecule, donor type, donor heavy atom, donor atom, acceptor molecule, acceptor atom, score
      L1  H     4    27       P1  7948  0.23
      L1  H     6    30       P1  7948  1.00
      L1  H     9    31       P1  7948  0.98
      P1  H 10752 10763       L1     4  0.96
      L1  C    17    42       P1 10957  1.00
      L1  C    19    44       P1 10171  1.00

> <Gold.PLP.Chemscore.Internal.Correction>
0.0981

> <Gold.Rescore>
     Score         DG    S(hbond)    S(metal)    S(lipo)     H(rot)  DE(clash)    DE(int)     intcor
     15.06     -17.34       2.59        0.00      75.27       2.19       0.00       2.28       ----

> <Gold.Chemscore.Fitness>
15.0592

> <Gold.Chemscore.DG>
-17.3366

> <Gold.Chemscore.ZeroCoef>
-5.4800

> <Gold.Chemscore.Hbond>
2.5931

> <Gold.Chemscore.Metal>
0.0000

> <Gold.Chemscore.Lipo>
75.2716

> <Gold.Chemscore.Internal_Hbond>
0.0000

> <Gold.Chemscore.DEClash>
0.0015

> <Gold.Chemscore.DEInternal>
2.2759

> <Gold.Chemscore.Rot>
2.1919

> <Gold.Chemscore.Internal.Correction>
   9.000000E+99

> <Gold.Chemscore.Hbonds>
donor molecule, donor type, donor heavy atom, donor atom, acceptor molecule, acceptor atom, score
      L1  H     4    27       P1  7948  0.02
      L1  H     6    30       P1  7948  0.96
      L1  H     9    31       P1  7948  0.37
      P1  H 10752 10763       L1     4  0.71

> <Gold.Chemscore.Hbond.Weighted>
-8.6611

> <Gold.Chemscore.Metal.Weighted>
-0.0000

> <Gold.Chemscore.Lipo.Weighted>
-8.8068

> <Gold.Chemscore.Internal_Hbond.Weighted>
0.0000

> <Gold.Chemscore.DEClash.Weighted>
0.0015

> <Gold.Chemscore.DEInternal.Weighted>
2.2759

> <Gold.Chemscore.Rot.Weighted>
5.6113

> <Gold.Chemscore.Internal.Correction.Weighted>
   9.000000E+99

> <Gold.Protein.RotatedTorsions>
[ 6907 6896 6895 6894 ] final -131.43 input  -60.11 | X-H torsion
[ 7974 7965 7964 7962 ] final  165.89 input  175.53 | X-H torsion
[ 8008 7997 7996 7995 ] final  -74.67 input   59.86 | X-H torsion
[ 10167 10162 10161 10158 ] final -106.11 input  -65.29 | X-H torsion
[ 10718 10713 10712 10709 ] final -141.11 input   66.30 | X-H torsion
[ 10763 10752 10751 10750 ] final   46.51 input  -60.55 | X-H torsion
[ 11005 11000 10999 10996 ] final  -52.79 input  -57.11 | X-H torsion

> <Gold.Protein.ActiveResidues>
 VAL166  LYS551  ARG553  GLY616  TRP617  ASP618  TYR619  PRO620  LYS621  CYS622 
 ASP623  PHE694  ASN695  SER759  ASP760  ASP761  ALA762  ILE779  LEU786  VAL792 
 PHE793  MET794  SER795  GLU796  ALA797  LYS798  CYS799  TRP800  GLU811  SER814 

> <Gold.Protein.RotatedAtoms>
  150.9509  133.6550  159.2771 H   0  0  0  0  0  0  0  0  0  0  0  0  # atno 6907 bound_to 6896
  151.3906  135.0954  159.9535 H   0  0  0  0  0  0  0  0  0  0  0  0  # atno 6908 bound_to 6896
  152.5109  133.9024  159.7502 H   0  0  0  0  0  0  0  0  0  0  0  0  # atno 6909 bound_to 6896
  144.7484  139.8536  143.6374 H   0  0  0  0  0  0  0  0  0  0  0  0  # atno 7974 bound_to 7965
  154.5351  140.0757  156.8412 H   0  0  0  0  0  0  0  0  0  0  0  0  # atno 8008 bound_to 7997
  155.3296  140.3401  155.4221 H   0  0  0  0  0  0  0  0  0  0  0  0  # atno 8009 bound_to 7997
  156.1819  140.1655  156.8244 H   0  0  0  0  0  0  0  0  0  0  0  0  # atno 8010 bound_to 7997
  140.1913  143.3889  152.1204 H   0  0  0  0  0  0  0  0  0  0  0  0  # atno 10167 bound_to 10162
  156.3302  130.7582  151.1698 H   0  0  0  0  0  0  0  0  0  0  0  0  # atno 10718 bound_to 10713
  152.9810  135.6005  154.3612 H   0  0  0  0  0  0  0  0  0  0  0  0  # atno 10763 bound_to 10752
  154.3293  135.2769  155.2481 H   0  0  0  0  0  0  0  0  0  0  0  0  # atno 10764 bound_to 10752
  154.4612  135.5965  153.6313 H   0  0  0  0  0  0  0  0  0  0  0  0  # atno 10765 bound_to 10752
  141.0942  133.6627  156.4076 H   0  0  0  0  0  0  0  0  0  0  0  0  # atno 11005 bound_to 11000
  146.1398  139.4453  143.0116 LP  0  0  0  0  0  0  0  0  0  0  0  0  # atno 17320 bound_to 7965
  145.7035  141.0128  143.1491 LP  0  0  0  0  0  0  0  0  0  0  0  0  # atno 17321 bound_to 7965
  139.5254  144.7096  151.5248 LP  0  0  0  0  0  0  0  0  0  0  0  0  # atno 17342 bound_to 10162
  140.6453  143.8806  150.6731 LP  0  0  0  0  0  0  0  0  0  0  0  0  # atno 17343 bound_to 10162
  157.7429  131.0483  150.4989 LP  0  0  0  0  0  0  0  0  0  0  0  0  # atno 17370 bound_to 10713
  156.5154  130.4149  149.6278 LP  0  0  0  0  0  0  0  0  0  0  0  0  # atno 17371 bound_to 10713
  140.5179  134.6332  157.5308 LP  0  0  0  0  0  0  0  0  0  0  0  0  # atno 17394 bound_to 11000
  139.9775  134.7191  155.9922 LP  0  0  0  0  0  0  0  0  0  0  0  0  # atno 17395 bound_to 11000

$$$$
