AV-unprocessed.smi:2605|AV-procd|sdf|10196|dock3
  -GOLD-   2272014203D 1   1.00000     0.00000
 Structure written by MMmdl.
 26 27  0  0  0  0  0  0  0  0  2 V2000
  152.3650  144.9654  158.5092 C   0  0  0  0  0  0  0  0  0  0  0  0
  152.0984  144.2172  157.3449 C   0  0  0  0  0  0  0  0  0  0  0  0
  151.2781  143.0738  157.4488 C   0  0  0  0  0  0  0  0  0  0  0  0
  150.9537  142.2448  156.2160 C   0  0  1  0  0  0  0  0  0  0  0  0
  151.4481  140.7834  156.3233 C   0  0  0  0  0  0  0  0  0  0  0  0
  151.1288  140.0568  155.0976 N   0  0  0  0  0  0  0  0  0  0  0  0
  149.6792  140.0290  154.9289 C   0  0  0  0  0  0  0  0  0  0  0  0
  149.1441  141.4652  154.7758 C   0  0  0  0  0  0  0  0  0  0  0  0
  149.4974  142.2683  155.9638 N   0  3  0  0  0  0  0  0  0  0  0  0
  150.7554  142.7385  158.7174 C   0  0  0  0  0  0  0  0  0  0  0  0
  151.0834  143.5542  159.8190 C   0  0  0  0  0  0  0  0  0  0  0  0
  151.8706  144.6465  159.7241 N   0  0  0  0  0  0  0  0  0  0  0  0
  152.9907  145.8443  158.4620 H   0  0  0  0  0  0  0  0  0  0  0  0
  152.5193  144.5193  156.3970 H   0  0  0  0  0  0  0  0  0  0  0  0
  151.4441  142.7116  155.3594 H   0  0  0  0  0  0  0  0  0  0  0  0
  152.5287  140.7641  156.4683 H   0  0  0  0  0  0  0  0  0  0  0  0
  151.0014  140.2704  157.1756 H   0  0  0  0  0  0  0  0  0  0  0  0
  151.4796  139.1110  155.1642 H   0  0  0  0  0  0  0  0  0  0  0  0
  149.4381  139.4439  154.0411 H   0  0  0  0  0  0  0  0  0  0  0  0
  149.2134  139.5279  155.7787 H   0  0  0  0  0  0  0  0  0  0  0  0
  149.5562  141.9354  153.8817 H   0  0  0  0  0  0  0  0  0  0  0  0
  148.0601  141.4567  154.6618 H   0  0  0  0  0  0  0  0  0  0  0  0
  149.0265  141.8827  156.7697 H   0  0  0  0  0  0  0  0  0  0  0  0
  150.1145  141.8799  158.8525 H   0  0  0  0  0  0  0  0  0  0  0  0
  150.6997  143.3244  160.8020 H   0  0  0  0  0  0  0  0  0  0  0  0
  149.1960  143.2226  155.8289 H   0  0  0  0  0  0  0  0  0  0  0  0
  1 12  1  0  0  0  0
  1  2  2  0  0  0  0
  1 13  1  0  0  0  0
  2  3  1  0  0  0  0
  2 14  1  0  0  0  0
  3  4  1  0  0  0  0
  3 10  2  0  0  0  0
  4  9  1  0  0  0  0
  4  5  1  0  0  0  0
  4 15  1  0  0  0  0
  5  6  1  0  0  0  0
  5 16  1  0  0  0  0
  5 17  1  0  0  0  0
  6  7  1  0  0  0  0
  6 18  1  0  0  0  0
  7  8  1  0  0  0  0
  7 19  1  0  0  0  0
  7 20  1  0  0  0  0
  8  9  1  0  0  0  0
  8 21  1  0  0  0  0
  8 22  1  0  0  0  0
  9 23  1  0  0  0  0
  9 26  1  0  0  0  0
 10 11  1  0  0  0  0
 10 24  1  0  0  0  0
 11 12  2  0  0  0  0
 11 25  1  0  0  0  0
M  CHG  1   9   1
M  END
> <s_m_source_file>
AV-unprocessed.smi

> <i_m_source_file_index>
2605

> <i_lp_mmshare_version>
43012

> <i_f3d_flags>
0

> <s_epik_input>
W2NIXTFbY0hdbltjSF1bY0hdYzFbQ0BASF0yW0NIMl1bTkhdW0NIMl1bQ0gyXVtOSF0y

> <s_epik_cmdline>
J2VwaWtfcHl0aG9uJywgJy1waCcsICc3LjAnLCAnLXRuJywgJzgnLCAnLW1hJywgJzIwMCcsICctbWV0YWxfYmluZGluZycsICctaW1hZScsICc8aW5maWxlLm1hZT4nLCAnLW9tYWUnLCAnPG91dGZpbGUubWFlPic=

> <r_epik_Ionization_Penalty>
0.0246915

> <r_epik_Ionization_Penalty_Charging>
0.015072

> <r_epik_Ionization_Penalty_Neutral>
0.00961942

> <r_epik_State_Penalty>
0.518662

> <r_epik_Charging_Adjusted_Penalty>
0.533734

> <i_epik_Tot_Q>
1

> <i_epik_Tot_abs_Q>
1

> <r_epik_Metal_State_Penalty>
0.520249

> <b_epik_Metal_Only>
0

> <s_lp_Force_Field>
OPLS_2005

> <r_lp_Energy>
7.08803

> <b_lp_Chiralities_Consistent>
1

> <s_lp_Variant>
AV-unprocessed.smi:2605-4

> <Gold.Version>
5.8.1

> <Gold.Id.Protein>
6NUR|6NUR_protein|mol2

> <Gold.PLP.Fitness>
36.6412

> <Gold.PLP.PLP>
-27.6417

> <Gold.PLP.part.hbond>
-2.0000

> <Gold.PLP.part.metal>
0.0000

> <Gold.PLP.part.buried>
-5.6055

> <Gold.PLP.part.nonpolar>
-19.5400

> <Gold.PLP.part.repulsive>
0.1658

> <Gold.PLP.ligand.clash>
0.0000

> <Gold.PLP.ligand.torsion>
0.0062

> <Gold.PLP.Chemscore.Hbond>
3.0000

> <Gold.PLP.Chemscore.CHOScore>
0.0000

> <Gold.PLP.Chemscore.Metal>
0.0000

> <Gold.Chemscore.Hbonds>
donor molecule, donor type, donor heavy atom, donor atom, acceptor molecule, acceptor atom, score
      L1  H     9    26       P1  8028  2.00
      P1  H  7989  7998       L1     6  1.00

> <Gold.PLP.Chemscore.Internal.Correction>
0.0118

> <Gold.Rescore>
     Score         DG    S(hbond)    S(metal)    S(lipo)     H(rot)  DE(clash)    DE(int)     intcor
     17.15     -17.36       1.38        0.00      83.97       1.00       0.21       0.01       ----

> <Gold.Chemscore.Fitness>
17.1463

> <Gold.Chemscore.DG>
-17.3629

> <Gold.Chemscore.ZeroCoef>
-5.4800

> <Gold.Chemscore.Hbond>
1.3828

> <Gold.Chemscore.Metal>
0.0000

> <Gold.Chemscore.Lipo>
83.9700

> <Gold.Chemscore.Internal_Hbond>
0.0000

> <Gold.Chemscore.DEClash>
0.2107

> <Gold.Chemscore.DEInternal>
0.0060

> <Gold.Chemscore.Rot>
1.0000

> <Gold.Chemscore.Internal.Correction>
   9.000000E+99

> <Gold.Chemscore.Hbonds>
donor molecule, donor type, donor heavy atom, donor atom, acceptor molecule, acceptor atom, score
      L1  H     9    26       P1  8028  0.93
      P1  H  7989  7998       L1     6  0.23

> <Gold.Chemscore.Hbond.Weighted>
-4.6185

> <Gold.Chemscore.Metal.Weighted>
-0.0000

> <Gold.Chemscore.Lipo.Weighted>
-9.8245

> <Gold.Chemscore.Internal_Hbond.Weighted>
0.0000

> <Gold.Chemscore.DEClash.Weighted>
0.2107

> <Gold.Chemscore.DEInternal.Weighted>
0.0060

> <Gold.Chemscore.Rot.Weighted>
2.5600

> <Gold.Chemscore.Internal.Correction.Weighted>
   9.000000E+99

> <Gold.Protein.RotatedTorsions>
[ 6907 6896 6895 6894 ] final  171.12 input  -60.11 | X-H torsion
[ 7974 7965 7964 7962 ] final -178.52 input  175.53 | X-H torsion
[ 8008 7997 7996 7995 ] final -137.52 input   59.86 | X-H torsion
[ 10167 10162 10161 10158 ] final  -14.03 input  -65.29 | X-H torsion
[ 10718 10713 10712 10709 ] final -153.48 input   66.30 | X-H torsion
[ 10763 10752 10751 10750 ] final -178.26 input  -60.55 | X-H torsion
[ 11005 11000 10999 10996 ] final -108.84 input  -57.11 | X-H torsion

> <Gold.Protein.ActiveResidues>
 VAL166  LYS551  ARG553  GLY616  TRP617  ASP618  TYR619  PRO620  LYS621  CYS622 
 ASP623  PHE694  ASN695  SER759  ASP760  ASP761  ALA762  ILE779  LEU786  VAL792 
 PHE793  MET794  SER795  GLU796  ALA797  LYS798  CYS799  TRP800  GLU811  SER814 

> <Gold.Protein.RotatedAtoms>
  151.8052  133.3375  159.3538 H   0  0  0  0  0  0  0  0  0  0  0  0  # atno 6907 bound_to 6896
  150.7345  134.5716  159.5902 H   0  0  0  0  0  0  0  0  0  0  0  0  # atno 6908 bound_to 6896
  152.3114  134.7493  160.0387 H   0  0  0  0  0  0  0  0  0  0  0  0  # atno 6909 bound_to 6896
  144.7131  140.0855  143.6423 H   0  0  0  0  0  0  0  0  0  0  0  0  # atno 7974 bound_to 7965
  155.4132  140.0513  157.3030 H   0  0  0  0  0  0  0  0  0  0  0  0  # atno 8008 bound_to 7997
  154.4936  140.2130  155.9454 H   0  0  0  0  0  0  0  0  0  0  0  0  # atno 8009 bound_to 7997
  156.1376  140.3160  155.8450 H   0  0  0  0  0  0  0  0  0  0  0  0  # atno 8010 bound_to 7997
  140.7193  143.5364  150.9459 H   0  0  0  0  0  0  0  0  0  0  0  0  # atno 10167 bound_to 10162
  156.4864  130.8327  151.2552 H   0  0  0  0  0  0  0  0  0  0  0  0  # atno 10718 bound_to 10713
  154.5499  135.2812  155.1018 H   0  0  0  0  0  0  0  0  0  0  0  0  # atno 10763 bound_to 10752
  154.2468  135.6347  153.5230 H   0  0  0  0  0  0  0  0  0  0  0  0  # atno 10764 bound_to 10752
  153.0000  135.5573  154.6062 H   0  0  0  0  0  0  0  0  0  0  0  0  # atno 10765 bound_to 10752
  141.0880  133.9105  157.2142 H   0  0  0  0  0  0  0  0  0  0  0  0  # atno 11005 bound_to 11000
  145.9665  139.2838  143.1124 LP  0  0  0  0  0  0  0  0  0  0  0  0  # atno 17320 bound_to 7965
  145.9163  140.9145  143.0428 LP  0  0  0  0  0  0  0  0  0  0  0  0  # atno 17321 bound_to 7965
  139.9086  143.6748  152.3119 LP  0  0  0  0  0  0  0  0  0  0  0  0  # atno 17342 bound_to 10162
  139.7123  144.7618  151.1092 LP  0  0  0  0  0  0  0  0  0  0  0  0  # atno 17343 bound_to 10162
  157.7478  131.0028  150.3014 LP  0  0  0  0  0  0  0  0  0  0  0  0  # atno 17370 bound_to 10713
  156.3470  130.3824  149.7361 LP  0  0  0  0  0  0  0  0  0  0  0  0  # atno 17371 bound_to 10713
  139.9701  135.0131  156.9489 LP  0  0  0  0  0  0  0  0  0  0  0  0  # atno 17394 bound_to 11000
  140.5319  134.0805  155.7318 LP  0  0  0  0  0  0  0  0  0  0  0  0  # atno 17395 bound_to 11000

$$$$
