AV-unprocessed.smi:11|AV-procd|sdf|59|dock7
  -GOLD-   2262015173D 1   1.00000     0.00000
 Structure written by MMmdl.
 33 35  0  0  0  0  0  0  0  0  1 V2000
  150.2064  137.4954  155.6148 C   0  0  0  0  0  0  0  0  0  0  0  0
  149.6284  138.8539  156.0466 C   0  0  0  0  0  0  0  0  0  0  0  0
  150.3837  140.0949  155.5083 C   0  0  1  0  0  0  0  0  0  0  0  0
  150.4085  140.0326  154.0953 O   0  0  0  0  0  0  0  0  0  0  0  0
  149.7142  141.4008  155.9557 C   0  0  0  0  0  0  0  0  0  0  0  0
  150.3519  141.6705  157.3163 C   0  0  0  0  0  0  0  0  0  0  0  0
  151.7131  141.1643  157.1997 N   0  0  0  0  0  0  0  0  0  0  0  0
  152.5061  140.9724  158.3513 C   0  0  0  0  0  0  0  0  0  0  0  0
  153.2519  139.8408  158.4371 N   0  0  0  0  0  0  0  0  0  0  0  0
  154.0163  139.6670  159.5448 C   0  0  0  0  0  0  0  0  0  0  0  0
  154.1350  140.4924  160.6134 N   0  0  0  0  0  0  0  0  0  0  0  0
  153.3812  141.6300  160.5579 C   0  0  0  0  0  0  0  0  0  0  0  0
  153.2946  142.5940  161.4686 N   0  0  0  0  0  0  0  0  0  0  0  0
  152.4181  143.4903  160.9858 C   0  0  0  0  0  0  0  0  0  0  0  0
  151.8813  143.1264  159.6921 C   0  0  0  0  0  0  0  0  0  0  0  0
  152.5561  141.8922  159.4366 C   0  0  0  0  0  0  0  0  0  0  0  0
  151.8086  140.2398  156.0763 C   0  0  0  0  0  0  0  0  0  0  0  0
  149.6010  136.6809  156.0123 H   0  0  0  0  0  0  0  0  0  0  0  0
  151.2231  137.3495  155.9775 H   0  0  0  0  0  0  0  0  0  0  0  0
  150.2183  137.3918  154.5297 H   0  0  0  0  0  0  0  0  0  0  0  0
  148.5886  138.9007  155.7204 H   0  0  0  0  0  0  0  0  0  0  0  0
  149.5987  138.8865  157.1365 H   0  0  0  0  0  0  0  0  0  0  0  0
  150.1215  139.1726  153.8285 H   0  0  0  0  0  0  0  0  0  0  0  0
  149.9740  142.2138  155.2754 H   0  0  0  0  0  0  0  0  0  0  0  0
  148.6260  141.3430  156.0002 H   0  0  0  0  0  0  0  0  0  0  0  0
  150.3404  142.7320  157.5647 H   0  0  0  0  0  0  0  0  0  0  0  0
  149.8128  141.1300  158.0954 H   0  0  0  0  0  0  0  0  0  0  0  0
  154.6008  138.7596  159.5787 H   0  0  0  0  0  0  0  0  0  0  0  0
  152.1622  144.3817  161.5453 H   0  0  0  0  0  0  0  0  0  0  0  0
  151.1576  143.6592  159.0891 H   0  0  0  0  0  0  0  0  0  0  0  0
  152.2347  139.2810  156.3689 H   0  0  0  0  0  0  0  0  0  0  0  0
  152.4711  140.6870  155.3343 H   0  0  0  0  0  0  0  0  0  0  0  0
  154.7448  140.2348  161.3760 H   0  0  0  0  0  0  0  0  0  0  0  0
  1  2  1  0  0  0  0
  1 18  1  0  0  0  0
  1 19  1  0  0  0  0
  1 20  1  0  0  0  0
  2  3  1  0  0  0  0
  2 21  1  0  0  0  0
  2 22  1  0  0  0  0
  3 17  1  0  0  0  0
  3  4  1  0  0  0  0
  3  5  1  0  0  0  0
  4 23  1  0  0  0  0
  5  6  1  0  0  0  0
  5 24  1  0  0  0  0
  5 25  1  0  0  0  0
  6  7  1  0  0  0  0
  6 26  1  0  0  0  0
  6 27  1  0  0  0  0
  7  8  1  0  0  0  0
  7 17  1  0  0  0  0
  8 16  2  0  0  0  0
  8  9  1  0  0  0  0
  9 10  2  0  0  0  0
 10 11  1  0  0  0  0
 10 28  1  0  0  0  0
 11 12  1  0  0  0  0
 11 33  1  0  0  0  0
 12 16  1  0  0  0  0
 12 13  2  0  0  0  0
 13 14  1  0  0  0  0
 14 15  2  0  0  0  0
 14 29  1  0  0  0  0
 15 16  1  0  0  0  0
 15 30  1  0  0  0  0
 17 31  1  0  0  0  0
 17 32  1  0  0  0  0
M  END
> <s_m_source_file>
AV-unprocessed.smi

> <i_m_source_file_index>
11

> <i_lp_mmshare_version>
43012

> <i_f3d_flags>
0

> <s_epik_input>
W0NIM11bQ0gyXVtDQEBdMShbT0hdKVtDSDJdW0NIMl1OKFtDSDJdMSljKG5bY0hdbjIpYyhjMjMpW2NIXVtjSF1bbkhdMw==

> <s_epik_cmdline>
J2VwaWtfcHl0aG9uJywgJy1waCcsICc3LjAnLCAnLXRuJywgJzgnLCAnLW1hJywgJzIwMCcsICctbWV0YWxfYmluZGluZycsICctaW1hZScsICc8aW5maWxlLm1hZT4nLCAnLW9tYWUnLCAnPG91dGZpbGUubWFlPic=

> <r_lp_tautomer_probability>
1.75997e-05

> <r_epik_Ionization_Penalty>
5.31594

> <r_epik_Ionization_Penalty_Charging>
0

> <r_epik_Ionization_Penalty_Neutral>
5.31594

> <r_epik_State_Penalty>
7.79803

> <r_epik_Charging_Adjusted_Penalty>
7.79803

> <i_epik_Tot_Q>
0

> <i_epik_Tot_abs_Q>
0

> <r_epik_Metal_State_Penalty>
4.83511

> <b_epik_Metal_Only>
1

> <s_lp_Force_Field>
OPLS_2005

> <r_lp_Energy>
41.5281

> <b_lp_Chiralities_Consistent>
1

> <s_lp_Variant>
AV-unprocessed.smi:11-5

> <Gold.Version>
5.8.1

> <Gold.Id.Protein>
6NUR|6NUR_protein|mol2

> <Gold.PLP.Fitness>
37.7956

> <Gold.PLP.PLP>
-32.2064

> <Gold.PLP.part.hbond>
-3.0000

> <Gold.PLP.part.metal>
0.0000

> <Gold.PLP.part.buried>
-5.2651

> <Gold.PLP.part.nonpolar>
-24.0455

> <Gold.PLP.part.repulsive>
0.0645

> <Gold.PLP.ligand.clash>
0.0000

> <Gold.PLP.ligand.torsion>
0.3620

> <Gold.PLP.Chemscore.Hbond>
2.0000

> <Gold.PLP.Chemscore.CHOScore>
0.0000

> <Gold.PLP.Chemscore.Metal>
0.0000

> <Gold.Chemscore.Hbonds>
donor molecule, donor type, donor heavy atom, donor atom, acceptor molecule, acceptor atom, score
      P1  H  7989  7998       L1     4  1.00
      P1  H  7997  8009       L1     9  1.00

> <Gold.PLP.Chemscore.Internal.Correction>
0.3132

> <Gold.Rescore>
     Score         DG    S(hbond)    S(metal)    S(lipo)     H(rot)  DE(clash)    DE(int)     intcor
     13.70     -14.02       1.45        0.00      63.01       1.43       0.02       0.30       ----

> <Gold.Chemscore.Fitness>
13.7038

> <Gold.Chemscore.DG>
-14.0230

> <Gold.Chemscore.ZeroCoef>
-5.4800

> <Gold.Chemscore.Hbond>
1.4454

> <Gold.Chemscore.Metal>
0.0000

> <Gold.Chemscore.Lipo>
63.0076

> <Gold.Chemscore.Internal_Hbond>
0.0000

> <Gold.Chemscore.DEClash>
0.0174

> <Gold.Chemscore.DEInternal>
0.3018

> <Gold.Chemscore.Rot>
1.4283

> <Gold.Chemscore.Internal.Correction>
   9.000000E+99

> <Gold.Chemscore.Hbonds>
donor molecule, donor type, donor heavy atom, donor atom, acceptor molecule, acceptor atom, score
      P1  H  7989  7998       L1     4  0.79
      P1  H  7997  8009       L1     9  0.18

> <Gold.Chemscore.Hbond.Weighted>
-4.8277

> <Gold.Chemscore.Metal.Weighted>
-0.0000

> <Gold.Chemscore.Lipo.Weighted>
-7.3719

> <Gold.Chemscore.Internal_Hbond.Weighted>
0.0000

> <Gold.Chemscore.DEClash.Weighted>
0.0174

> <Gold.Chemscore.DEInternal.Weighted>
0.3018

> <Gold.Chemscore.Rot.Weighted>
3.6566

> <Gold.Chemscore.Internal.Correction.Weighted>
   9.000000E+99

> <Gold.Protein.RotatedTorsions>
[ 6907 6896 6895 6894 ] final -108.13 input  -60.11 | X-H torsion
[ 7974 7965 7964 7962 ] final  -70.63 input  175.53 | X-H torsion
[ 8008 7997 7996 7995 ] final  161.83 input   59.86 | X-H torsion
[ 10167 10162 10161 10158 ] final  135.12 input  -65.29 | X-H torsion
[ 10718 10713 10712 10709 ] final  178.96 input   66.30 | X-H torsion
[ 10763 10752 10751 10750 ] final  -55.26 input  -60.55 | X-H torsion
[ 11005 11000 10999 10996 ] final -163.35 input  -57.11 | X-H torsion

> <Gold.Protein.ActiveResidues>
 VAL166  LYS551  ARG553  GLY616  TRP617  ASP618  TYR619  PRO620  LYS621  CYS622 
 ASP623  PHE694  ASN695  SER759  ASP760  ASP761  ALA762  ILE779  LEU786  VAL792 
 PHE793  MET794  SER795  GLU796  ALA797  LYS798  CYS799  TRP800  GLU811  SER814 

> <Gold.Protein.RotatedAtoms>
  150.7484  133.9723  159.3549 H   0  0  0  0  0  0  0  0  0  0  0  0  # atno 6907 bound_to 6896
  151.7658  135.0797  160.0362 H   0  0  0  0  0  0  0  0  0  0  0  0  # atno 6908 bound_to 6896
  152.3372  133.5989  159.5887 H   0  0  0  0  0  0  0  0  0  0  0  0  # atno 6909 bound_to 6896
  145.6885  140.9162  143.0794 H   0  0  0  0  0  0  0  0  0  0  0  0  # atno 7974 bound_to 7965
  156.2075  140.1766  156.7768 H   0  0  0  0  0  0  0  0  0  0  0  0  # atno 8008 bound_to 7997
  154.5675  140.0688  156.8944 H   0  0  0  0  0  0  0  0  0  0  0  0  # atno 8009 bound_to 7997
  155.2734  140.3344  155.4266 H   0  0  0  0  0  0  0  0  0  0  0  0  # atno 8010 bound_to 7997
  139.5229  144.6533  151.5237 H   0  0  0  0  0  0  0  0  0  0  0  0  # atno 10167 bound_to 10162
  156.8828  130.9821  151.3060 H   0  0  0  0  0  0  0  0  0  0  0  0  # atno 10718 bound_to 10713
  154.1879  135.6432  153.5052 H   0  0  0  0  0  0  0  0  0  0  0  0  # atno 10763 bound_to 10752
  153.0042  135.5421  154.6446 H   0  0  0  0  0  0  0  0  0  0  0  0  # atno 10764 bound_to 10752
  154.5827  135.2926  155.0689 H   0  0  0  0  0  0  0  0  0  0  0  0  # atno 10765 bound_to 10752
  140.5991  134.4965  157.5203 H   0  0  0  0  0  0  0  0  0  0  0  0  # atno 11005 bound_to 11000
  144.7004  139.8790  143.7446 LP  0  0  0  0  0  0  0  0  0  0  0  0  # atno 17320 bound_to 7965
  146.0902  139.3892  143.0410 LP  0  0  0  0  0  0  0  0  0  0  0  0  # atno 17321 bound_to 7965
  140.6347  143.9006  150.6637 LP  0  0  0  0  0  0  0  0  0  0  0  0  # atno 17342 bound_to 10162
  140.2322  143.3727  152.1556 LP  0  0  0  0  0  0  0  0  0  0  0  0  # atno 17343 bound_to 10162
  157.6130  130.8597  149.8982 LP  0  0  0  0  0  0  0  0  0  0  0  0  # atno 17370 bound_to 10713
  156.0668  130.3691  150.0860 LP  0  0  0  0  0  0  0  0  0  0  0  0  # atno 17371 bound_to 10713
  139.9240  134.8092  156.1124 LP  0  0  0  0  0  0  0  0  0  0  0  0  # atno 17394 bound_to 11000
  141.0884  133.6724  156.2486 LP  0  0  0  0  0  0  0  0  0  0  0  0  # atno 17395 bound_to 11000

$$$$
