AV-unprocessed.smi:2346|AV-procd|sdf|9366|dock7
  -GOLD-   2272012593D 1   1.00000     0.00000
 Structure written by MMmdl.
 44 46  0  0  0  0  0  0  0  0  1 V2000
  154.8842  134.6931  161.1578 C   0  0  0  0  0  0  0  0  0  0  0  0
  154.0936  135.7573  160.6507 O   0  0  0  0  0  0  0  0  0  0  0  0
  154.2534  137.0139  161.1983 C   0  0  0  0  0  0  0  0  0  0  0  0
  154.6380  137.2437  162.5436 C   0  0  0  0  0  0  0  0  0  0  0  0
  154.7788  138.5575  163.0325 C   0  0  0  0  0  0  0  0  0  0  0  0
  155.1735  138.7833  164.4129 C   0  0  0  0  0  0  0  0  0  0  0  0
  155.4875  138.9631  165.5118 N   0  0  0  0  0  0  0  0  0  0  0  0
  154.5364  139.6517  162.1813 C   0  0  0  0  0  0  0  0  0  0  0  0
  154.1529  139.4335  160.8456 C   0  0  0  0  0  0  0  0  0  0  0  0
  154.0081  138.1152  160.3470 C   0  0  0  0  0  0  0  0  0  0  0  0
  153.6383  137.8247  159.0523 O   0  0  0  0  0  0  0  0  0  0  0  0
  153.2538  138.8873  158.1916 C   0  0  0  0  0  0  0  0  0  0  0  0
  151.9782  139.5325  158.7529 C   0  0  0  0  0  0  0  0  0  0  0  0
  151.6921  140.8123  158.1182 N   0  0  0  0  0  0  0  0  0  0  0  0
  151.2556  141.0506  156.8547 C   0  0  0  0  0  0  0  0  0  0  0  0
  150.9745  139.9426  155.8773 C   0  0  1  0  0  0  0  0  0  0  0  0
  149.8848  138.9912  156.3888 C   0  0  0  0  0  0  0  0  0  0  0  0
  150.5790  140.4334  154.6122 O   0  0  0  0  0  0  0  0  0  0  0  0
  151.0606  142.3349  156.5448 N   0  0  0  0  0  0  0  0  0  0  0  0
  151.4330  142.9899  157.7016 C   0  0  0  0  0  0  0  0  0  0  0  0
  151.4693  144.3698  158.0049 C   0  0  0  0  0  0  0  0  0  0  0  0
  151.9007  144.8108  159.2730 C   0  0  0  0  0  0  0  0  0  0  0  0
  152.2981  143.8805  160.2551 C   0  0  0  0  0  0  0  0  0  0  0  0
  152.2634  142.5013  159.9752 C   0  0  0  0  0  0  0  0  0  0  0  0
  151.8347  142.0660  158.7066 C   0  0  0  0  0  0  0  0  0  0  0  0
  154.6281  133.7745  160.6301 H   0  0  0  0  0  0  0  0  0  0  0  0
  154.6958  134.5267  162.2192 H   0  0  0  0  0  0  0  0  0  0  0  0
  155.9479  134.8777  161.0025 H   0  0  0  0  0  0  0  0  0  0  0  0
  154.8293  136.4213  163.2173 H   0  0  0  0  0  0  0  0  0  0  0  0
  154.6433  140.6636  162.5460 H   0  0  0  0  0  0  0  0  0  0  0  0
  153.9784  140.2955  160.2200 H   0  0  0  0  0  0  0  0  0  0  0  0
  154.0478  139.6333  158.1308 H   0  0  0  0  0  0  0  0  0  0  0  0
  153.0645  138.5101  157.1860 H   0  0  0  0  0  0  0  0  0  0  0  0
  151.1233  138.8666  158.6387 H   0  0  0  0  0  0  0  0  0  0  0  0
  152.0890  139.6979  159.8250 H   0  0  0  0  0  0  0  0  0  0  0  0
  151.8878  139.3756  155.7024 H   0  0  0  0  0  0  0  0  0  0  0  0
  150.1718  138.5447  157.3413 H   0  0  0  0  0  0  0  0  0  0  0  0
  149.7089  138.1779  155.6840 H   0  0  0  0  0  0  0  0  0  0  0  0
  148.9395  139.5138  156.5393 H   0  0  0  0  0  0  0  0  0  0  0  0
  149.7884  139.9841  154.3542 H   0  0  0  0  0  0  0  0  0  0  0  0
  151.1684  145.0902  157.2587 H   0  0  0  0  0  0  0  0  0  0  0  0
  151.9280  145.8679  159.4931 H   0  0  0  0  0  0  0  0  0  0  0  0
  152.6299  144.2260  161.2231 H   0  0  0  0  0  0  0  0  0  0  0  0
  152.5714  141.7866  160.7239 H   0  0  0  0  0  0  0  0  0  0  0  0
  1  2  1  0  0  0  0
  1 26  1  0  0  0  0
  1 27  1  0  0  0  0
  1 28  1  0  0  0  0
  2  3  1  0  0  0  0
  3 10  1  0  0  0  0
  3  4  2  0  0  0  0
  4  5  1  0  0  0  0
  4 29  1  0  0  0  0
  5  6  1  0  0  0  0
  5  8  2  0  0  0  0
  6  7  3  0  0  0  0
  8  9  1  0  0  0  0
  8 30  1  0  0  0  0
  9 10  2  0  0  0  0
  9 31  1  0  0  0  0
 10 11  1  0  0  0  0
 11 12  1  0  0  0  0
 12 13  1  0  0  0  0
 12 32  1  0  0  0  0
 12 33  1  0  0  0  0
 13 14  1  0  0  0  0
 13 34  1  0  0  0  0
 13 35  1  0  0  0  0
 14 25  1  0  0  0  0
 14 15  1  0  0  0  0
 15 16  1  0  0  0  0
 15 19  2  0  0  0  0
 16 17  1  0  0  0  0
 16 18  1  0  0  0  0
 16 36  1  0  0  0  0
 17 37  1  0  0  0  0
 17 38  1  0  0  0  0
 17 39  1  0  0  0  0
 18 40  1  0  0  0  0
 19 20  1  0  0  0  0
 20 25  2  0  0  0  0
 20 21  1  0  0  0  0
 21 22  2  0  0  0  0
 21 41  1  0  0  0  0
 22 23  1  0  0  0  0
 22 42  1  0  0  0  0
 23 24  2  0  0  0  0
 23 43  1  0  0  0  0
 24 25  1  0  0  0  0
 24 44  1  0  0  0  0
M  END
> <s_m_source_file>
AV-unprocessed.smi

> <i_m_source_file_index>
2346

> <i_lp_mmshare_version>
43012

> <i_f3d_flags>
0

> <s_epik_input>
W0NIM11PYzFbY0hdYyhDI04pW2NIXVtjSF1jMU9bQ0gyXVtDSDJdbihjKG4yKVtDQEhdKFtDSDNdKVtPSF0pYyhjMjMpW2NIXVtjSF1bY0hdW2NIXTM=

> <s_epik_cmdline>
J2VwaWtfcHl0aG9uJywgJy1waCcsICc3LjAnLCAnLXRuJywgJzgnLCAnLW1hJywgJzIwMCcsICctbWV0YWxfYmluZGluZycsICctaW1hZScsICc8aW5maWxlLm1hZT4nLCAnLW9tYWUnLCAnPG91dGZpbGUubWFlPic=

> <r_epik_Ionization_Penalty>
0.0419826

> <r_epik_Ionization_Penalty_Charging>
0

> <r_epik_Ionization_Penalty_Neutral>
0.0419826

> <r_epik_State_Penalty>
0.0354317

> <r_epik_Charging_Adjusted_Penalty>
0.0354317

> <i_epik_Tot_Q>
0

> <i_epik_Tot_abs_Q>
0

> <r_epik_Metal_State_Penalty>
3.65115e-05

> <b_epik_Metal_Only>
0

> <s_lp_Force_Field>
OPLS_2005

> <r_lp_Energy>
17.2355

> <b_lp_Chiralities_Consistent>
1

> <s_lp_Variant>
AV-unprocessed.smi:2346-2

> <Gold.Version>
5.8.1

> <Gold.Id.Protein>
6NUR|6NUR_protein|mol2

> <Gold.PLP.Fitness>
50.7565

> <Gold.PLP.PLP>
-45.8440

> <Gold.PLP.part.hbond>
-2.0000

> <Gold.PLP.part.metal>
0.0000

> <Gold.PLP.part.buried>
-5.2282

> <Gold.PLP.part.nonpolar>
-38.3900

> <Gold.PLP.part.repulsive>
0.1377

> <Gold.PLP.ligand.clash>
0.0000

> <Gold.PLP.ligand.torsion>
0.5955

> <Gold.PLP.Chemscore.Hbond>
2.0000

> <Gold.PLP.Chemscore.CHOScore>
0.0000

> <Gold.PLP.Chemscore.Metal>
0.0000

> <Gold.Chemscore.Hbonds>
donor molecule, donor type, donor heavy atom, donor atom, acceptor molecule, acceptor atom, score
      P1  H  6896  6907       L1     2  0.89
      P1  H  7989  7998       L1    18  1.00

> <Gold.PLP.Chemscore.Internal.Correction>
0.1036

> <Gold.Rescore>
     Score         DG    S(hbond)    S(metal)    S(lipo)     H(rot)  DE(clash)    DE(int)     intcor
     18.02     -18.65       1.63        0.00     122.18       2.57       0.00       0.63       ----

> <Gold.Chemscore.Fitness>
18.0220

> <Gold.Chemscore.DG>
-18.6520

> <Gold.Chemscore.ZeroCoef>
-5.4800

> <Gold.Chemscore.Hbond>
1.6320

> <Gold.Chemscore.Metal>
0.0000

> <Gold.Chemscore.Lipo>
122.1836

> <Gold.Chemscore.Internal_Hbond>
0.0000

> <Gold.Chemscore.DEClash>
0.0000

> <Gold.Chemscore.DEInternal>
0.6301

> <Gold.Chemscore.Rot>
2.5681

> <Gold.Chemscore.Internal.Correction>
   9.000000E+99

> <Gold.Chemscore.Hbonds>
donor molecule, donor type, donor heavy atom, donor atom, acceptor molecule, acceptor atom, score
      P1  H  6896  6907       L1     2  0.34
      P1  H  7989  7998       L1    18  0.92

> <Gold.Chemscore.Hbond.Weighted>
-5.4508

> <Gold.Chemscore.Metal.Weighted>
-0.0000

> <Gold.Chemscore.Lipo.Weighted>
-14.2955

> <Gold.Chemscore.Internal_Hbond.Weighted>
0.0000

> <Gold.Chemscore.DEClash.Weighted>
0.0000

> <Gold.Chemscore.DEInternal.Weighted>
0.6301

> <Gold.Chemscore.Rot.Weighted>
6.5743

> <Gold.Chemscore.Internal.Correction.Weighted>
   9.000000E+99

> <Gold.Protein.RotatedTorsions>
[ 6907 6896 6895 6894 ] final   49.81 input  -60.11 | X-H torsion
[ 7974 7965 7964 7962 ] final -105.33 input  175.53 | X-H torsion
[ 8008 7997 7996 7995 ] final  -70.18 input   59.86 | X-H torsion
[ 10167 10162 10161 10158 ] final -131.07 input  -65.29 | X-H torsion
[ 10718 10713 10712 10709 ] final   70.54 input   66.30 | X-H torsion
[ 10763 10752 10751 10750 ] final  112.95 input  -60.55 | X-H torsion
[ 11005 11000 10999 10996 ] final  139.67 input  -57.11 | X-H torsion

> <Gold.Protein.ActiveResidues>
 VAL166  LYS551  ARG553  GLY616  TRP617  ASP618  TYR619  PRO620  LYS621  CYS622 
 ASP623  PHE694  ASN695  SER759  ASP760  ASP761  ALA762  ILE779  LEU786  VAL792 
 PHE793  MET794  SER795  GLU796  ALA797  LYS798  CYS799  TRP800  GLU811  SER814 

> <Gold.Protein.RotatedAtoms>
  152.2949  134.7679  160.0369 H   0  0  0  0  0  0  0  0  0  0  0  0  # atno 6907 bound_to 6896
  151.8212  133.3389  159.3593 H   0  0  0  0  0  0  0  0  0  0  0  0  # atno 6908 bound_to 6896
  150.7247  134.5501  159.5834 H   0  0  0  0  0  0  0  0  0  0  0  0  # atno 6909 bound_to 6896
  145.2318  140.9173  143.3200 H   0  0  0  0  0  0  0  0  0  0  0  0  # atno 7974 bound_to 7965
  154.4993  140.0839  156.7764 H   0  0  0  0  0  0  0  0  0  0  0  0  # atno 8008 bound_to 7997
  155.4041  140.3438  155.4241 H   0  0  0  0  0  0  0  0  0  0  0  0  # atno 8009 bound_to 7997
  156.1435  140.1536  156.8870 H   0  0  0  0  0  0  0  0  0  0  0  0  # atno 8010 bound_to 7997
  139.9227  143.6363  152.2549 H   0  0  0  0  0  0  0  0  0  0  0  0  # atno 10167 bound_to 10162
  157.6405  130.9482  150.0664 H   0  0  0  0  0  0  0  0  0  0  0  0  # atno 10718 bound_to 10713
  153.4853  135.3670  155.2463 H   0  0  0  0  0  0  0  0  0  0  0  0  # atno 10763 bound_to 10752
  154.8754  135.3964  154.3652 H   0  0  0  0  0  0  0  0  0  0  0  0  # atno 10764 bound_to 10752
  153.4263  135.7081  153.6326 H   0  0  0  0  0  0  0  0  0  0  0  0  # atno 10765 bound_to 10752
  140.0271  134.9369  157.0590 H   0  0  0  0  0  0  0  0  0  0  0  0  # atno 11005 bound_to 11000
  144.9669  139.3921  143.6328 LP  0  0  0  0  0  0  0  0  0  0  0  0  # atno 17320 bound_to 7965
  146.3351  139.8749  142.8834 LP  0  0  0  0  0  0  0  0  0  0  0  0  # atno 17321 bound_to 7965
  139.6848  144.7652  151.1544 LP  0  0  0  0  0  0  0  0  0  0  0  0  # atno 17342 bound_to 10162
  140.7658  143.5673  150.9034 LP  0  0  0  0  0  0  0  0  0  0  0  0  # atno 17343 bound_to 10162
  156.1682  130.3645  149.9203 LP  0  0  0  0  0  0  0  0  0  0  0  0  # atno 17370 bound_to 10713
  156.7185  130.8997  151.3616 LP  0  0  0  0  0  0  0  0  0  0  0  0  # atno 17371 bound_to 10713
  140.4287  134.1803  155.7167 LP  0  0  0  0  0  0  0  0  0  0  0  0  # atno 17394 bound_to 11000
  141.1809  133.8415  157.1260 LP  0  0  0  0  0  0  0  0  0  0  0  0  # atno 17395 bound_to 11000

$$$$
