AV-unprocessed.smi:218|AV-procd|sdf|1663|dock3
  -GOLD-   2262020 63D 1   1.00000     0.00000
 Structure written by MMmdl.
 54 57  0  0  0  0  0  0  0  0  1 V2000
  152.7633  143.8053  158.3732 C   0  0  0  0  0  0  0  0  0  0  0  0
  152.1456  142.7856  159.3377 C   0  0  0  0  0  0  0  0  0  0  0  0
  152.4760  143.1321  160.7999 C   0  0  0  0  0  0  0  0  0  0  0  0
  152.6860  141.5079  158.9944 O   0  0  0  0  0  0  0  0  0  0  0  0
  152.2358  140.8432  157.8698 C   0  0  0  0  0  0  0  0  0  0  0  0
  151.2786  141.4815  157.0546 C   0  0  0  0  0  0  0  0  0  0  0  0
  150.8042  140.8110  155.9090 C   0  0  0  0  0  0  0  0  0  0  0  0
  149.7798  141.4610  155.0045 C   0  0  0  0  0  0  0  0  0  0  0  0
  148.5655  141.8437  155.7111 N   0  0  0  0  0  0  0  0  0  0  0  0
  147.5077  141.0048  155.7350 C   0  0  0  0  0  0  0  0  0  0  0  0
  146.5685  141.0935  156.7127 N   0  0  0  0  0  0  0  0  0  0  0  0
  145.5301  140.2530  156.7185 C   0  0  0  0  0  0  0  0  0  0  0  0
  145.2478  139.2717  155.8597 N   0  0  0  0  0  0  0  0  0  0  0  0
  146.1873  139.1763  154.8747 C   0  0  0  0  0  0  0  0  0  0  0  0
  147.3382  140.0032  154.7439 C   0  0  0  0  0  0  0  0  0  0  0  0
  148.0663  139.6233  153.6245 N   0  0  0  0  0  0  0  0  0  0  0  0
  147.3820  138.6294  153.1257 C   0  0  0  0  0  0  0  0  0  0  0  0
  146.2363  138.2935  153.8125 N   0  0  0  0  0  0  0  0  0  0  0  0
  145.2651  137.2015  153.4724 C   0  0  1  0  0  0  0  0  0  0  0  0
  145.3662  136.8960  152.1120 O   0  0  0  0  0  0  0  0  0  0  0  0
  145.7111  135.5233  151.9321 C   0  0  2  0  0  0  0  0  0  0  0  0
  145.0873  135.0137  150.6233 C   0  0  0  0  0  0  0  0  0  0  0  0
  145.3278  135.9220  149.5699 O   0  0  0  0  0  0  0  0  0  0  0  0
  145.1875  134.8556  153.2067 C   0  0  1  0  0  0  0  0  0  0  0  0
  145.7838  133.6023  153.4814 O   0  0  0  0  0  0  0  0  0  0  0  0
  145.5018  135.9021  154.2671 C   0  0  1  0  0  0  0  0  0  0  0  0
  146.8202  135.7814  154.7804 O   0  0  0  0  0  0  0  0  0  0  0  0
  151.3106  139.5292  155.6171 C   0  0  0  0  0  0  0  0  0  0  0  0
  152.2646  138.9726  156.4905 C   0  0  0  0  0  0  0  0  0  0  0  0
  152.7190  139.6066  157.5920 N   0  0  0  0  0  0  0  0  0  0  0  0
  144.2831  137.6371  153.6607 H   0  0  0  0  0  0  0  0  0  0  0  0
  146.7988  135.4517  151.8875 H   0  0  0  0  0  0  0  0  0  0  0  0
  144.1064  134.7267  153.1367 H   0  0  0  0  0  0  0  0  0  0  0  0
  144.8038  135.8534  155.1035 H   0  0  0  0  0  0  0  0  0  0  0  0
  152.3908  144.8107  158.5717 H   0  0  0  0  0  0  0  0  0  0  0  0
  152.5194  143.5607  157.3391 H   0  0  0  0  0  0  0  0  0  0  0  0
  153.8498  143.8274  158.4629 H   0  0  0  0  0  0  0  0  0  0  0  0
  151.0656  142.8102  159.1836 H   0  0  0  0  0  0  0  0  0  0  0  0
  152.0978  144.1206  161.0608 H   0  0  0  0  0  0  0  0  0  0  0  0
  153.5530  143.1320  160.9703 H   0  0  0  0  0  0  0  0  0  0  0  0
  152.0321  142.4205  161.4955 H   0  0  0  0  0  0  0  0  0  0  0  0
  150.9150  142.4671  157.3066 H   0  0  0  0  0  0  0  0  0  0  0  0
  150.2232  142.3419  154.5379 H   0  0  0  0  0  0  0  0  0  0  0  0
  149.5302  140.7647  154.2026 H   0  0  0  0  0  0  0  0  0  0  0  0
  148.5693  142.7546  156.1472 H   0  0  0  0  0  0  0  0  0  0  0  0
  144.8253  140.3851  157.5259 H   0  0  0  0  0  0  0  0  0  0  0  0
  147.6969  138.1091  152.2326 H   0  0  0  0  0  0  0  0  0  0  0  0
  145.4747  134.0296  150.3591 H   0  0  0  0  0  0  0  0  0  0  0  0
  144.0081  134.9140  150.7409 H   0  0  0  0  0  0  0  0  0  0  0  0
  145.4405  135.4323  148.7696 H   0  0  0  0  0  0  0  0  0  0  0  0
  146.1786  133.6455  154.3395 H   0  0  0  0  0  0  0  0  0  0  0  0
  147.4157  136.1979  154.1762 H   0  0  0  0  0  0  0  0  0  0  0  0
  150.9778  138.9833  154.7464 H   0  0  0  0  0  0  0  0  0  0  0  0
  152.6739  137.9916  156.2997 H   0  0  0  0  0  0  0  0  0  0  0  0
  1  2  1  0  0  0  0
  1 35  1  0  0  0  0
  1 36  1  0  0  0  0
  1 37  1  0  0  0  0
  2  3  1  0  0  0  0
  2  4  1  0  0  0  0
  2 38  1  0  0  0  0
  3 39  1  0  0  0  0
  3 40  1  0  0  0  0
  3 41  1  0  0  0  0
  4  5  1  0  0  0  0
  5 30  1  0  0  0  0
  5  6  2  0  0  0  0
  6  7  1  0  0  0  0
  6 42  1  0  0  0  0
  7  8  1  0  0  0  0
  7 28  2  0  0  0  0
  8  9  1  0  0  0  0
  8 43  1  0  0  0  0
  8 44  1  0  0  0  0
  9 10  1  0  0  0  0
  9 45  1  0  0  0  0
 10 15  1  0  0  0  0
 10 11  2  0  0  0  0
 11 12  1  0  0  0  0
 12 13  2  0  0  0  0
 12 46  1  0  0  0  0
 13 14  1  0  0  0  0
 14 18  1  0  0  0  0
 14 15  2  0  0  0  0
 15 16  1  0  0  0  0
 16 17  2  0  0  0  0
 17 18  1  0  0  0  0
 17 47  1  0  0  0  0
 18 19  1  0  0  0  0
 19 31  1  0  0  0  0
 19 26  1  0  0  0  0
 19 20  1  0  0  0  0
 20 21  1  0  0  0  0
 21 32  1  0  0  0  0
 21 22  1  0  0  0  0
 21 24  1  0  0  0  0
 22 23  1  0  0  0  0
 22 48  1  0  0  0  0
 22 49  1  0  0  0  0
 23 50  1  0  0  0  0
 24 33  1  0  0  0  0
 24 25  1  0  0  0  0
 24 26  1  0  0  0  0
 25 51  1  0  0  0  0
 26 34  1  0  0  0  0
 26 27  1  0  0  0  0
 27 52  1  0  0  0  0
 28 29  1  0  0  0  0
 28 53  1  0  0  0  0
 29 30  2  0  0  0  0
 29 54  1  0  0  0  0
M  END
> <s_m_source_file>
AV-unprocessed.smi

> <i_m_source_file_index>
218

> <i_lp_mmshare_version>
43012

> <i_f3d_flags>
0

> <s_epik_input>
W0NIM11bQ0hdKFtDSDNdKU9jMVtjSF1jKFtjSF1bY0hdbjEpW0NIMl1bTkhdYyhuW2NIXW4yKWMoYzIzKW5bY0hdbjNbQ0BASF00T1tDQEhdKFtDSDJdW09IXSlbQ0BASF0oW09IXSlbQ0BIXTRbT0hd

> <s_epik_cmdline>
J2VwaWtfcHl0aG9uJywgJy1waCcsICc3LjAnLCAnLXRuJywgJzgnLCAnLW1hJywgJzIwMCcsICctbWV0YWxfYmluZGluZycsICctaW1hZScsICc8aW5maWxlLm1hZT4nLCAnLW9tYWUnLCAnPG91dGZpbGUubWFlPic=

> <r_lp_tautomer_probability>
1

> <r_epik_Ionization_Penalty>
0.00457014

> <r_epik_Ionization_Penalty_Charging>
0

> <r_epik_Ionization_Penalty_Neutral>
0.00457014

> <r_epik_State_Penalty>
-0

> <r_epik_Charging_Adjusted_Penalty>
0

> <i_epik_Tot_Q>
0

> <i_epik_Tot_abs_Q>
0

> <r_epik_Metal_State_Penalty>
-0

> <b_epik_Metal_Only>
0

> <s_epik_Chemistry_Notes>
This compound contains an acetal/aminal-like group ( X-CH(R)-Y where X, Y are N, S, or O) that may be acid/base labile, releasing an aldehyde.

> <s_lp_Force_Field>
OPLS_2005

> <r_lp_Energy>
45.6959

> <b_lp_Chiralities_Consistent>
1

> <s_lp_Variant>
AV-unprocessed.smi:218-2

> <Gold.Version>
5.8.1

> <Gold.Id.Protein>
6NUR|6NUR_protein|mol2

> <Gold.PLP.Fitness>
50.3455

> <Gold.PLP.PLP>
-41.4828

> <Gold.PLP.part.hbond>
-3.9470

> <Gold.PLP.part.metal>
0.0000

> <Gold.PLP.part.buried>
-6.5611

> <Gold.PLP.part.nonpolar>
-32.7484

> <Gold.PLP.part.repulsive>
1.4630

> <Gold.PLP.ligand.clash>
0.0000

> <Gold.PLP.ligand.torsion>
1.1898

> <Gold.PLP.Chemscore.Hbond>
2.6720

> <Gold.PLP.Chemscore.CHOScore>
0.9929

> <Gold.PLP.Chemscore.Metal>
0.0000

> <Gold.Chemscore.Hbonds>
donor molecule, donor type, donor heavy atom, donor atom, acceptor molecule, acceptor atom, score
      L1  H     9    45       P1  8028  0.78
      L1  H    23    50       P1  7921  0.81
      P1  H  7997  8009       L1    30  0.90
      L1  C    17    47       P1  7948  1.00
      L1  C    17    47       P1  7957  0.05

> <Gold.PLP.Chemscore.Internal.Correction>
0.2477

> <Gold.Rescore>
     Score         DG    S(hbond)    S(metal)    S(lipo)     H(rot)  DE(clash)    DE(int)     intcor
      7.26      -9.79       1.94        0.00      88.62       4.90       0.07       2.46       ----

> <Gold.Chemscore.Fitness>
7.2570

> <Gold.Chemscore.DG>
-9.7868

> <Gold.Chemscore.ZeroCoef>
-5.4800

> <Gold.Chemscore.Hbond>
1.9432

> <Gold.Chemscore.Metal>
0.0000

> <Gold.Chemscore.Lipo>
88.6172

> <Gold.Chemscore.Internal_Hbond>
0.0000

> <Gold.Chemscore.DEClash>
0.0680

> <Gold.Chemscore.DEInternal>
2.4618

> <Gold.Chemscore.Rot>
4.9029

> <Gold.Chemscore.Internal.Correction>
   9.000000E+99

> <Gold.Chemscore.Hbonds>
donor molecule, donor type, donor heavy atom, donor atom, acceptor molecule, acceptor atom, score
      L1  H     9    45       P1  8028  0.71
      L1  H    23    50       P1  7921  0.80
      P1  H  7997  8009       L1    30  0.05

> <Gold.Chemscore.Hbond.Weighted>
-6.4902

> <Gold.Chemscore.Metal.Weighted>
-0.0000

> <Gold.Chemscore.Lipo.Weighted>
-10.3682

> <Gold.Chemscore.Internal_Hbond.Weighted>
0.0000

> <Gold.Chemscore.DEClash.Weighted>
0.0680

> <Gold.Chemscore.DEInternal.Weighted>
2.4618

> <Gold.Chemscore.Rot.Weighted>
12.5515

> <Gold.Chemscore.Internal.Correction.Weighted>
   9.000000E+99

> <Gold.Protein.RotatedTorsions>
[ 6907 6896 6895 6894 ] final -162.73 input  -60.11 | X-H torsion
[ 7974 7965 7964 7962 ] final  -99.70 input  175.53 | X-H torsion
[ 8008 7997 7996 7995 ] final  159.78 input   59.86 | X-H torsion
[ 10167 10162 10161 10158 ] final   11.23 input  -65.29 | X-H torsion
[ 10718 10713 10712 10709 ] final  143.62 input   66.30 | X-H torsion
[ 10763 10752 10751 10750 ] final  172.36 input  -60.55 | X-H torsion
[ 11005 11000 10999 10996 ] final  -52.43 input  -57.11 | X-H torsion

> <Gold.Protein.ActiveResidues>
 VAL166  LYS551  ARG553  GLY616  TRP617  ASP618  TYR619  PRO620  LYS621  CYS622 
 ASP623  PHE694  ASN695  SER759  ASP760  ASP761  ALA762  ILE779  LEU786  VAL792 
 PHE793  MET794  SER795  GLU796  ALA797  LYS798  CYS799  TRP800  GLU811  SER814 

> <Gold.Protein.RotatedAtoms>
  151.3849  133.3808  159.2713 H   0  0  0  0  0  0  0  0  0  0  0  0  # atno 6907 bound_to 6896
  150.9549  134.8946  159.7705 H   0  0  0  0  0  0  0  0  0  0  0  0  # atno 6908 bound_to 6896
  152.5127  134.3806  159.9402 H   0  0  0  0  0  0  0  0  0  0  0  0  # atno 6909 bound_to 6896
  145.3041  140.9384  143.2807 H   0  0  0  0  0  0  0  0  0  0  0  0  # atno 7974 bound_to 7965
  156.2216  140.1822  156.7462 H   0  0  0  0  0  0  0  0  0  0  0  0  # atno 8008 bound_to 7997
  154.5875  140.0656  156.9220 H   0  0  0  0  0  0  0  0  0  0  0  0  # atno 8009 bound_to 7997
  155.2394  140.3321  155.4296 H   0  0  0  0  0  0  0  0  0  0  0  0  # atno 8010 bound_to 7997
  140.6144  143.8338  150.7102 H   0  0  0  0  0  0  0  0  0  0  0  0  # atno 10167 bound_to 10162
  157.3668  131.0973  151.0865 H   0  0  0  0  0  0  0  0  0  0  0  0  # atno 10718 bound_to 10713
  154.4249  135.2758  155.1951 H   0  0  0  0  0  0  0  0  0  0  0  0  # atno 10763 bound_to 10752
  154.3881  135.6072  153.5831 H   0  0  0  0  0  0  0  0  0  0  0  0  # atno 10764 bound_to 10752
  152.9834  135.5896  154.4551 H   0  0  0  0  0  0  0  0  0  0  0  0  # atno 10765 bound_to 10752
  141.0924  133.6630  156.4024 H   0  0  0  0  0  0  0  0  0  0  0  0  # atno 11005 bound_to 11000
  144.9069  139.4577  143.6605 LP  0  0  0  0  0  0  0  0  0  0  0  0  # atno 17320 bound_to 7965
  146.3141  139.7855  142.8997 LP  0  0  0  0  0  0  0  0  0  0  0  0  # atno 17321 bound_to 7965
  140.1914  143.4033  152.1860 LP  0  0  0  0  0  0  0  0  0  0  0  0  # atno 17342 bound_to 10162
  139.5387  144.7235  151.4806 LP  0  0  0  0  0  0  0  0  0  0  0  0  # atno 17343 bound_to 10162
  157.1984  130.6383  149.5729 LP  0  0  0  0  0  0  0  0  0  0  0  0  # atno 17370 bound_to 10713
  155.9747  130.4699  150.6411 LP  0  0  0  0  0  0  0  0  0  0  0  0  # atno 17371 bound_to 10713
  140.5220  134.6294  157.5321 LP  0  0  0  0  0  0  0  0  0  0  0  0  # atno 17394 bound_to 11000
  139.9753  134.7226  155.9962 LP  0  0  0  0  0  0  0  0  0  0  0  0  # atno 17395 bound_to 11000

$$$$
