AV-unprocessed.smi:1550|AV-procd|sdf|6231|dock6
  -GOLD-   22720 6413D 1   1.00000     0.00000
 Structure written by MMmdl.
 42 43  0  0  0  0  0  0  0  0  2 V2000
  151.3772  137.5795  154.0750 C   0  0  0  0  0  0  0  0  0  0  0  0
  151.1842  137.6793  155.5954 C   0  0  1  0  0  0  0  0  0  0  0  0
  151.9732  136.6561  156.1962 O   0  0  0  0  0  0  0  0  0  0  0  0
  151.2414  135.6349  156.8655 C   0  0  0  0  0  0  0  0  0  0  0  0
  150.9528  134.5007  155.8737 C   0  0  1  0  0  0  0  0  0  0  0  0
  150.7173  133.1521  156.5828 C   0  0  0  0  0  0  0  0  0  0  0  0
  150.3438  132.0661  155.5680 C   0  0  0  0  0  0  0  0  0  0  0  0
  149.1669  132.5440  154.7114 C   0  0  0  0  0  0  0  0  0  0  0  0
  149.4794  133.9164  154.0940 C   0  0  0  0  0  0  0  0  0  0  0  0
  149.7929  134.8519  155.1217 O   0  0  0  0  0  0  0  0  0  0  0  0
  151.6118  139.0587  156.1226 C   0  0  0  0  0  0  0  0  0  0  0  0
  151.7624  139.9873  155.3288 O   0  0  0  0  0  0  0  0  0  0  0  0
  151.8230  139.1260  157.4517 N   0  0  0  0  0  0  0  0  0  0  0  0
  152.2140  140.2168  158.2472 C   0  0  0  0  0  0  0  0  0  0  0  0
  151.7114  141.4787  158.1456 C   0  0  0  0  0  0  0  0  0  0  0  0
  152.1525  142.5666  159.0099 C   0  0  0  0  0  0  0  0  0  0  0  0
  151.6907  144.0050  158.8568 C   0  0  0  0  0  0  0  0  0  0  0  0
  152.2036  144.7525  159.8332 F   0  0  0  0  0  0  0  0  0  0  0  0
  152.0880  144.5150  157.6906 F   0  0  0  0  0  0  0  0  0  0  0  0
  150.3620  144.0900  158.9222 F   0  0  0  0  0  0  0  0  0  0  0  0
  153.1202  142.1621  159.9088 C   0  0  0  0  0  0  0  0  0  0  0  0
  153.6485  140.9327  160.0943 N   0  5  0  0  0  0  0  0  0  0  0  0
  153.2288  139.9233  159.2805 C   0  0  0  0  0  0  0  0  0  0  0  0
  153.6745  138.7804  159.3902 O   0  0  0  0  0  0  0  0  0  0  0  0
  150.8090  138.3500  153.5524 H   0  0  0  0  0  0  0  0  0  0  0  0
  151.0359  136.6122  153.7057 H   0  0  0  0  0  0  0  0  0  0  0  0
  152.4258  137.6868  153.7947 H   0  0  0  0  0  0  0  0  0  0  0  0
  150.1299  137.5028  155.8188 H   0  0  0  0  0  0  0  0  0  0  0  0
  151.7805  135.2456  157.7301 H   0  0  0  0  0  0  0  0  0  0  0  0
  150.3019  136.0525  157.2301 H   0  0  0  0  0  0  0  0  0  0  0  0
  151.7966  134.4161  155.1866 H   0  0  0  0  0  0  0  0  0  0  0  0
  151.6080  132.8534  157.1365 H   0  0  0  0  0  0  0  0  0  0  0  0
  149.9155  133.2569  157.3150 H   0  0  0  0  0  0  0  0  0  0  0  0
  151.2004  131.8505  154.9285 H   0  0  0  0  0  0  0  0  0  0  0  0
  150.0910  131.1372  156.0798 H   0  0  0  0  0  0  0  0  0  0  0  0
  148.9496  131.8169  153.9286 H   0  0  0  0  0  0  0  0  0  0  0  0
  148.2704  132.6180  155.3285 H   0  0  0  0  0  0  0  0  0  0  0  0
  150.3073  133.8457  153.3867 H   0  0  0  0  0  0  0  0  0  0  0  0
  148.6167  134.2819  153.5368 H   0  0  0  0  0  0  0  0  0  0  0  0
  151.7204  138.2604  157.9617 H   0  0  0  0  0  0  0  0  0  0  0  0
  150.9469  141.7158  157.4250 H   0  0  0  0  0  0  0  0  0  0  0  0
  153.5369  142.9462  160.5764 H   0  0  0  0  0  0  0  0  0  0  0  0
  1  2  1  0  0  0  0
  1 25  1  0  0  0  0
  1 26  1  0  0  0  0
  1 27  1  0  0  0  0
  2  3  1  0  0  0  0
  2 11  1  0  0  0  0
  2 28  1  0  0  0  0
  3  4  1  0  0  0  0
  4  5  1  0  0  0  0
  4 29  1  0  0  0  0
  4 30  1  0  0  0  0
  5 10  1  0  0  0  0
  5  6  1  0  0  0  0
  5 31  1  0  0  0  0
  6  7  1  0  0  0  0
  6 32  1  0  0  0  0
  6 33  1  0  0  0  0
  7  8  1  0  0  0  0
  7 34  1  0  0  0  0
  7 35  1  0  0  0  0
  8  9  1  0  0  0  0
  8 36  1  0  0  0  0
  8 37  1  0  0  0  0
  9 10  1  0  0  0  0
  9 38  1  0  0  0  0
  9 39  1  0  0  0  0
 11 12  2  0  0  0  0
 11 13  1  0  0  0  0
 13 14  1  0  0  0  0
 13 40  1  0  0  0  0
 14 23  1  0  0  0  0
 14 15  2  0  0  0  0
 15 16  1  0  0  0  0
 15 41  1  0  0  0  0
 16 17  1  0  0  0  0
 16 21  2  0  0  0  0
 17 18  1  0  0  0  0
 17 19  1  0  0  0  0
 17 20  1  0  0  0  0
 21 22  1  0  0  0  0
 21 42  1  0  0  0  0
 22 23  1  0  0  0  0
 23 24  2  0  0  0  0
M  CHG  1  22  -1
M  END
> <s_m_source_file>
AV-unprocessed.smi

> <i_m_source_file_index>
1550

> <i_lp_mmshare_version>
43012

> <i_f3d_flags>
0

> <s_epik_input>
TzFbQ0gyXVtDSDJdW0NIMl1bQ0gyXVtDQEhdMVtDSDJdT1tDQEBIXShbQ0gzXSlDKD1PKVtOSF1jMltjSF1jKEMoRikoRilGKVtjSF1bbkhdYzI9Tw==

> <s_epik_cmdline>
J2VwaWtfcHl0aG9uJywgJy1waCcsICc3LjAnLCAnLXRuJywgJzgnLCAnLW1hJywgJzIwMCcsICctbWV0YWxfYmluZGluZycsICctaW1hZScsICc8aW5maWxlLm1hZT4nLCAnLW9tYWUnLCAnPG91dGZpbGUubWFlPic=

> <r_epik_Ionization_Penalty>
2.54933

> <r_epik_Ionization_Penalty_Charging>
0.0583423

> <r_epik_Ionization_Penalty_Neutral>
2.49099

> <r_epik_State_Penalty>
2.65532

> <r_epik_Charging_Adjusted_Penalty>
2.71366

> <i_epik_Tot_Q>
-1

> <i_epik_Tot_abs_Q>
1

> <r_epik_Metal_State_Penalty>
0.516364

> <b_epik_Metal_Only>
0

> <s_lp_Force_Field>
OPLS_2005

> <r_lp_Energy>
27.8976

> <b_lp_Chiralities_Consistent>
1

> <s_lp_Variant>
AV-unprocessed.smi:1550-8

> <Gold.Version>
5.8.1

> <Gold.Id.Protein>
6NUR|6NUR_protein|mol2

> <Gold.PLP.Fitness>
47.5420

> <Gold.PLP.PLP>
-45.9232

> <Gold.PLP.part.hbond>
-2.0000

> <Gold.PLP.part.metal>
0.0000

> <Gold.PLP.part.buried>
-5.5553

> <Gold.PLP.part.nonpolar>
-39.3565

> <Gold.PLP.part.repulsive>
0.2044

> <Gold.PLP.ligand.clash>
0.0440

> <Gold.PLP.ligand.torsion>
2.0855

> <Gold.PLP.Chemscore.Hbond>
1.8940

> <Gold.PLP.Chemscore.CHOScore>
0.0000

> <Gold.PLP.Chemscore.Metal>
0.0000

> <Gold.Chemscore.Hbonds>
donor molecule, donor type, donor heavy atom, donor atom, acceptor molecule, acceptor atom, score
      P1  H  7989  7998       L1    12  0.94
      P1  H 10752 10763       L1     3  0.95

> <Gold.PLP.Chemscore.Internal.Correction>
0.1517

> <Gold.Rescore>
     Score         DG    S(hbond)    S(metal)    S(lipo)     H(rot)  DE(clash)    DE(int)     intcor
     12.77     -14.59       0.93        0.00      91.21       1.82       0.02       1.81       ----

> <Gold.Chemscore.Fitness>
12.7683

> <Gold.Chemscore.DG>
-14.5933

> <Gold.Chemscore.ZeroCoef>
-5.4800

> <Gold.Chemscore.Hbond>
0.9312

> <Gold.Chemscore.Metal>
0.0000

> <Gold.Chemscore.Lipo>
91.2087

> <Gold.Chemscore.Internal_Hbond>
0.0000

> <Gold.Chemscore.DEClash>
0.0156

> <Gold.Chemscore.DEInternal>
1.8093

> <Gold.Chemscore.Rot>
1.8236

> <Gold.Chemscore.Internal.Correction>
   9.000000E+99

> <Gold.Chemscore.Hbonds>
donor molecule, donor type, donor heavy atom, donor atom, acceptor molecule, acceptor atom, score
      P1  H  7989  7998       L1    12  0.85
      P1  H 10752 10763       L1     3  0.20

> <Gold.Chemscore.Hbond.Weighted>
-3.1103

> <Gold.Chemscore.Metal.Weighted>
-0.0000

> <Gold.Chemscore.Lipo.Weighted>
-10.6714

> <Gold.Chemscore.Internal_Hbond.Weighted>
0.0000

> <Gold.Chemscore.DEClash.Weighted>
0.0156

> <Gold.Chemscore.DEInternal.Weighted>
1.8093

> <Gold.Chemscore.Rot.Weighted>
4.6684

> <Gold.Chemscore.Internal.Correction.Weighted>
   9.000000E+99

> <Gold.Protein.RotatedTorsions>
[ 6907 6896 6895 6894 ] final   14.42 input  -60.11 | X-H torsion
[ 7974 7965 7964 7962 ] final -163.26 input  175.53 | X-H torsion
[ 8008 7997 7996 7995 ] final  143.13 input   59.86 | X-H torsion
[ 10167 10162 10161 10158 ] final   -8.32 input  -65.29 | X-H torsion
[ 10718 10713 10712 10709 ] final   82.87 input   66.30 | X-H torsion
[ 10763 10752 10751 10750 ] final   89.97 input  -60.55 | X-H torsion
[ 11005 11000 10999 10996 ] final   55.80 input  -57.11 | X-H torsion

> <Gold.Protein.ActiveResidues>
 VAL166  LYS551  ARG553  GLY616  TRP617  ASP618  TYR619  PRO620  LYS621  CYS622 
 ASP623  PHE694  ASN695  SER759  ASP760  ASP761  ALA762  ILE779  LEU786  VAL792 
 PHE793  MET794  SER795  GLU796  ALA797  LYS798  CYS799  TRP800  GLU811  SER814 

> <Gold.Protein.RotatedAtoms>
  151.8019  135.0706  160.0401 H   0  0  0  0  0  0  0  0  0  0  0  0  # atno 6907 bound_to 6896
  152.3083  133.5721  159.5672 H   0  0  0  0  0  0  0  0  0  0  0  0  # atno 6908 bound_to 6896
  150.7307  134.0107  159.3710 H   0  0  0  0  0  0  0  0  0  0  0  0  # atno 6909 bound_to 6896
  144.7331  140.3132  143.6184 H   0  0  0  0  0  0  0  0  0  0  0  0  # atno 7974 bound_to 7965
  156.2936  140.2270  156.4841 H   0  0  0  0  0  0  0  0  0  0  0  0  # atno 8008 bound_to 7997
  154.7828  140.0459  157.1161 H   0  0  0  0  0  0  0  0  0  0  0  0  # atno 8009 bound_to 7997
  154.9739  140.3070  155.4979 H   0  0  0  0  0  0  0  0  0  0  0  0  # atno 8010 bound_to 7997
  140.7055  143.5981  150.8825 H   0  0  0  0  0  0  0  0  0  0  0  0  # atno 10167 bound_to 10162
  157.6867  131.0066  150.2439 H   0  0  0  0  0  0  0  0  0  0  0  0  # atno 10718 bound_to 10713
  153.1926  135.4451  155.0168 H   0  0  0  0  0  0  0  0  0  0  0  0  # atno 10763 bound_to 10752
  154.8100  135.3290  154.7334 H   0  0  0  0  0  0  0  0  0  0  0  0  # atno 10764 bound_to 10752
  153.7786  135.6979  153.4948 H   0  0  0  0  0  0  0  0  0  0  0  0  # atno 10765 bound_to 10752
  140.0579  134.5644  155.9186 H   0  0  0  0  0  0  0  0  0  0  0  0  # atno 11005 bound_to 11000
  145.7643  139.1835  143.2249 LP  0  0  0  0  0  0  0  0  0  0  0  0  # atno 17320 bound_to 7965
  146.0961  140.7599  142.9571 LP  0  0  0  0  0  0  0  0  0  0  0  0  # atno 17321 bound_to 7965
  139.9706  143.6061  152.2975 LP  0  0  0  0  0  0  0  0  0  0  0  0  # atno 17342 bound_to 10162
  139.6646  144.7662  151.1897 LP  0  0  0  0  0  0  0  0  0  0  0  0  # atno 17343 bound_to 10162
  156.3048  130.3763  149.7716 LP  0  0  0  0  0  0  0  0  0  0  0  0  # atno 17370 bound_to 10713
  156.5335  130.8268  151.3245 LP  0  0  0  0  0  0  0  0  0  0  0  0  # atno 17371 bound_to 10713
  141.1960  133.6589  156.5670 LP  0  0  0  0  0  0  0  0  0  0  0  0  # atno 17394 bound_to 11000
  140.3816  134.7518  157.4665 LP  0  0  0  0  0  0  0  0  0  0  0  0  # atno 17395 bound_to 11000

$$$$
