AV-unprocessed.smi:653|AV-procd|sdf|3207|dock2
  -GOLD-   22720 0143D 1   1.00000     0.00000
 Structure written by MMmdl.
 44 45  0  0  0  0  0  0  0  0  1 V2000
  144.0181  131.7934  150.8683 C   0  0  0  0  0  0  0  0  0  0  0  0
  144.6134  133.1766  151.0306 C   0  0  0  0  0  0  0  0  0  0  0  0
  145.8062  133.3689  151.7591 C   0  0  0  0  0  0  0  0  0  0  0  0
  146.3160  134.6761  151.8781 C   0  0  0  0  0  0  0  0  0  0  0  0
  145.6164  135.7373  151.2671 C   0  0  0  0  0  0  0  0  0  0  0  0
  146.1193  137.1660  151.3742 C   0  0  0  0  0  0  0  0  0  0  0  0
  146.0529  137.6499  152.8233 C   0  0  0  0  0  0  0  0  0  0  0  0
  144.9638  137.7644  153.3850 O   0  0  0  0  0  0  0  0  0  0  0  0
  147.2243  137.9282  153.4166 N   0  0  0  0  0  0  0  0  0  0  0  0
  147.3789  138.4117  154.7838 C   0  0  0  0  0  0  0  0  0  0  0  0
  148.8481  138.7318  155.1229 C   0  0  1  0  0  0  0  0  0  0  0  0
  149.8147  137.5936  154.8578 C   0  0  0  0  0  0  0  0  0  0  0  0
  151.1494  138.3279  154.8165 C   0  0  0  0  0  0  0  0  0  0  0  0
  150.8659  139.5978  154.2391 O   0  0  0  0  0  0  0  0  0  0  0  0
  149.4606  139.8456  154.2602 C   0  0  2  0  0  0  0  0  0  0  0  0
  149.1531  141.2949  154.7014 C   0  0  0  0  0  0  0  0  0  0  0  0
  149.6077  141.5329  156.1500 C   0  0  0  0  0  0  0  0  0  0  0  0
  147.6746  141.6878  154.5273 C   0  0  0  0  0  0  0  0  0  0  0  0
  144.4343  135.4362  150.5575 C   0  0  0  0  0  0  0  0  0  0  0  0
  143.9378  134.1863  150.4389 N   0  0  0  0  0  0  0  0  0  0  0  0
  144.4553  131.0912  151.5785 H   0  0  0  0  0  0  0  0  0  0  0  0
  144.2020  131.4205  149.8605 H   0  0  0  0  0  0  0  0  0  0  0  0
  142.9407  131.8162  151.0358 H   0  0  0  0  0  0  0  0  0  0  0  0
  146.3197  132.5369  152.2181 H   0  0  0  0  0  0  0  0  0  0  0  0
  147.2247  134.8604  152.4325 H   0  0  0  0  0  0  0  0  0  0  0  0
  147.1463  137.2210  151.0102 H   0  0  0  0  0  0  0  0  0  0  0  0
  145.5238  137.8236  150.7395 H   0  0  0  0  0  0  0  0  0  0  0  0
  148.0697  137.8057  152.8778 H   0  0  0  0  0  0  0  0  0  0  0  0
  146.7628  139.3043  154.8963 H   0  0  0  0  0  0  0  0  0  0  0  0
  146.9797  137.6742  155.4820 H   0  0  0  0  0  0  0  0  0  0  0  0
  148.9265  138.9944  156.1774 H   0  0  0  0  0  0  0  0  0  0  0  0
  149.7837  136.8155  155.6211 H   0  0  0  0  0  0  0  0  0  0  0  0
  149.6099  137.1339  153.8899 H   0  0  0  0  0  0  0  0  0  0  0  0
  151.5281  138.4840  155.8273 H   0  0  0  0  0  0  0  0  0  0  0  0
  151.9080  137.7891  154.2485 H   0  0  0  0  0  0  0  0  0  0  0  0
  149.1114  139.7054  153.2355 H   0  0  0  0  0  0  0  0  0  0  0  0
  149.7440  141.9631  154.0739 H   0  0  0  0  0  0  0  0  0  0  0  0
  149.0572  140.9006  156.8474 H   0  0  0  0  0  0  0  0  0  0  0  0
  149.4502  142.5703  156.4465 H   0  0  0  0  0  0  0  0  0  0  0  0
  150.6694  141.3162  156.2715 H   0  0  0  0  0  0  0  0  0  0  0  0
  147.0183  141.0357  155.1045 H   0  0  0  0  0  0  0  0  0  0  0  0
  147.3588  141.6430  153.4859 H   0  0  0  0  0  0  0  0  0  0  0  0
  147.5022  142.7094  154.8666 H   0  0  0  0  0  0  0  0  0  0  0  0
  143.8674  136.2196  150.0763 H   0  0  0  0  0  0  0  0  0  0  0  0
  1  2  1  0  0  0  0
  1 21  1  0  0  0  0
  1 22  1  0  0  0  0
  1 23  1  0  0  0  0
  2 20  1  0  0  0  0
  2  3  2  0  0  0  0
  3  4  1  0  0  0  0
  3 24  1  0  0  0  0
  4  5  2  0  0  0  0
  4 25  1  0  0  0  0
  5  6  1  0  0  0  0
  5 19  1  0  0  0  0
  6  7  1  0  0  0  0
  6 26  1  0  0  0  0
  6 27  1  0  0  0  0
  7  8  2  0  0  0  0
  7  9  1  0  0  0  0
  9 10  1  0  0  0  0
  9 28  1  0  0  0  0
 10 11  1  0  0  0  0
 10 29  1  0  0  0  0
 10 30  1  0  0  0  0
 11 15  1  0  0  0  0
 11 12  1  0  0  0  0
 11 31  1  0  0  0  0
 12 13  1  0  0  0  0
 12 32  1  0  0  0  0
 12 33  1  0  0  0  0
 13 14  1  0  0  0  0
 13 34  1  0  0  0  0
 13 35  1  0  0  0  0
 14 15  1  0  0  0  0
 15 16  1  0  0  0  0
 15 36  1  0  0  0  0
 16 17  1  0  0  0  0
 16 18  1  0  0  0  0
 16 37  1  0  0  0  0
 17 38  1  0  0  0  0
 17 39  1  0  0  0  0
 17 40  1  0  0  0  0
 18 41  1  0  0  0  0
 18 42  1  0  0  0  0
 18 43  1  0  0  0  0
 19 20  2  0  0  0  0
 19 44  1  0  0  0  0
M  END
> <s_m_source_file>
AV-unprocessed.smi

> <i_m_source_file_index>
653

> <i_lp_mmshare_version>
43012

> <i_f3d_flags>
0

> <s_epik_input>
W0NIM11jMVtjSF1bY0hdYyhbY0hdbjEpW0NIMl1DKD1PKVtOSF1bQ0gyXVtDQEBIXTJbQ0gyXVtDSDJdT1tDQEhdMltDSF0oW0NIM10pW0NIM10=

> <s_epik_cmdline>
J2VwaWtfcHl0aG9uJywgJy1waCcsICc3LjAnLCAnLXRuJywgJzgnLCAnLW1hJywgJzIwMCcsICctbWV0YWxfYmluZGluZycsICctaW1hZScsICc8aW5maWxlLm1hZT4nLCAnLW9tYWUnLCAnPG91dGZpbGUubWFlPic=

> <r_epik_Ionization_Penalty>
0.0166429

> <r_epik_Ionization_Penalty_Charging>
0

> <r_epik_Ionization_Penalty_Neutral>
0.0166429

> <r_epik_State_Penalty>
0.0131478

> <r_epik_Charging_Adjusted_Penalty>
0.0131478

> <i_epik_Tot_Q>
0

> <i_epik_Tot_abs_Q>
0

> <r_epik_Metal_State_Penalty>
0.012786

> <b_epik_Metal_Only>
0

> <s_lp_Force_Field>
OPLS_2005

> <r_lp_Energy>
17.7281

> <b_lp_Chiralities_Consistent>
1

> <s_lp_Variant>
AV-unprocessed.smi:653-4

> <Gold.Version>
5.8.1

> <Gold.Id.Protein>
6NUR|6NUR_protein|mol2

> <Gold.PLP.Fitness>
40.6667

> <Gold.PLP.PLP>
-32.7101

> <Gold.PLP.part.hbond>
-2.0000

> <Gold.PLP.part.metal>
0.0000

> <Gold.PLP.part.buried>
1.0279

> <Gold.PLP.part.nonpolar>
-33.0656

> <Gold.PLP.part.repulsive>
1.0685

> <Gold.PLP.ligand.clash>
0.0000

> <Gold.PLP.ligand.torsion>
0.1188

> <Gold.PLP.Chemscore.Hbond>
1.7200

> <Gold.PLP.Chemscore.CHOScore>
1.0000

> <Gold.PLP.Chemscore.Metal>
0.0000

> <Gold.Chemscore.Hbonds>
donor molecule, donor type, donor heavy atom, donor atom, acceptor molecule, acceptor atom, score
      L1  H     9    28       P1  7948  0.67
      P1  H  7989  7998       L1    14  1.00
      L1  C    19    44       P1 10171  1.00

> <Gold.PLP.Chemscore.Internal.Correction>
0.0342

> <Gold.Rescore>
     Score         DG    S(hbond)    S(metal)    S(lipo)     H(rot)  DE(clash)    DE(int)     intcor
     16.47     -18.23       1.72        0.00      92.48       1.48       1.45       0.32       ----

> <Gold.Chemscore.Fitness>
16.4652

> <Gold.Chemscore.DG>
-18.2321

> <Gold.Chemscore.ZeroCoef>
-5.4800

> <Gold.Chemscore.Hbond>
1.7164

> <Gold.Chemscore.Metal>
0.0000

> <Gold.Chemscore.Lipo>
92.4847

> <Gold.Chemscore.Internal_Hbond>
0.0000

> <Gold.Chemscore.DEClash>
1.4464

> <Gold.Chemscore.DEInternal>
0.3204

> <Gold.Chemscore.Rot>
1.4850

> <Gold.Chemscore.Internal.Correction>
   9.000000E+99

> <Gold.Chemscore.Hbonds>
donor molecule, donor type, donor heavy atom, donor atom, acceptor molecule, acceptor atom, score
      L1  H     9    28       P1  7948  0.64
      P1  H  7989  7998       L1    14  0.70

> <Gold.Chemscore.Hbond.Weighted>
-5.7329

> <Gold.Chemscore.Metal.Weighted>
-0.0000

> <Gold.Chemscore.Lipo.Weighted>
-10.8207

> <Gold.Chemscore.Internal_Hbond.Weighted>
0.0000

> <Gold.Chemscore.DEClash.Weighted>
1.4464

> <Gold.Chemscore.DEInternal.Weighted>
0.3204

> <Gold.Chemscore.Rot.Weighted>
3.8015

> <Gold.Chemscore.Internal.Correction.Weighted>
   9.000000E+99

> <Gold.Protein.RotatedTorsions>
[ 6907 6896 6895 6894 ] final   82.16 input  -60.11 | X-H torsion
[ 7974 7965 7964 7962 ] final   35.95 input  175.53 | X-H torsion
[ 8008 7997 7996 7995 ] final   82.27 input   59.86 | X-H torsion
[ 10167 10162 10161 10158 ] final -144.97 input  -65.29 | X-H torsion
[ 10718 10713 10712 10709 ] final  -82.92 input   66.30 | X-H torsion
[ 10763 10752 10751 10750 ] final  104.63 input  -60.55 | X-H torsion
[ 11005 11000 10999 10996 ] final -102.57 input  -57.11 | X-H torsion

> <Gold.Protein.ActiveResidues>
 VAL166  LYS551  ARG553  GLY616  TRP617  ASP618  TYR619  PRO620  LYS621  CYS622 
 ASP623  PHE694  ASN695  SER759  ASP760  ASP761  ALA762  ILE779  LEU786  VAL792 
 PHE793  MET794  SER795  GLU796  ALA797  LYS798  CYS799  TRP800  GLU811  SER814 

> <Gold.Protein.RotatedAtoms>
  152.5290  134.3093  159.9107 H   0  0  0  0  0  0  0  0  0  0  0  0  # atno 6907 bound_to 6896
  151.3043  133.4102  159.2649 H   0  0  0  0  0  0  0  0  0  0  0  0  # atno 6908 bound_to 6896
  151.0092  134.9400  159.8055 H   0  0  0  0  0  0  0  0  0  0  0  0  # atno 6909 bound_to 6896
  146.1247  139.6079  142.9267 H   0  0  0  0  0  0  0  0  0  0  0  0  # atno 7974 bound_to 7965
  155.9083  140.3429  155.6079 H   0  0  0  0  0  0  0  0  0  0  0  0  # atno 8008 bound_to 7997
  155.7418  140.0808  157.2261 H   0  0  0  0  0  0  0  0  0  0  0  0  # atno 8009 bound_to 7997
  154.4052  140.1569  156.2611 H   0  0  0  0  0  0  0  0  0  0  0  0  # atno 8010 bound_to 7997
  139.7849  143.8048  152.2643 H   0  0  0  0  0  0  0  0  0  0  0  0  # atno 10167 bound_to 10162
  156.0026  130.4649  150.4178 H   0  0  0  0  0  0  0  0  0  0  0  0  # atno 10718 bound_to 10713
  153.3684  135.3937  155.1771 H   0  0  0  0  0  0  0  0  0  0  0  0  # atno 10763 bound_to 10752
  154.8690  135.3696  154.5009 H   0  0  0  0  0  0  0  0  0  0  0  0  # atno 10764 bound_to 10752
  153.5474  135.7083  153.5668 H   0  0  0  0  0  0  0  0  0  0  0  0  # atno 10765 bound_to 10752
  141.1183  133.8569  157.1377 H   0  0  0  0  0  0  0  0  0  0  0  0  # atno 11005 bound_to 11000
  145.5392  141.0422  143.2340 LP  0  0  0  0  0  0  0  0  0  0  0  0  # atno 17320 bound_to 7965
  144.7630  139.6911  143.7226 LP  0  0  0  0  0  0  0  0  0  0  0  0  # atno 17321 bound_to 7965
  139.8122  144.7331  150.9682 LP  0  0  0  0  0  0  0  0  0  0  0  0  # atno 17342 bound_to 10162
  140.7819  143.4239  151.0798 LP  0  0  0  0  0  0  0  0  0  0  0  0  # atno 17343 bound_to 10162
  157.2236  131.0488  151.2532 LP  0  0  0  0  0  0  0  0  0  0  0  0  # atno 17370 bound_to 10713
  157.3777  130.7215  149.6608 LP  0  0  0  0  0  0  0  0  0  0  0  0  # atno 17371 bound_to 10713
  140.0121  134.9983  157.0417 LP  0  0  0  0  0  0  0  0  0  0  0  0  # atno 17394 bound_to 11000
  140.4581  134.1512  155.7188 LP  0  0  0  0  0  0  0  0  0  0  0  0  # atno 17395 bound_to 11000

$$$$
