AV-unprocessed.smi:3331|AV-procd|sdf|12820|dock8
  -GOLD-   2272019193D 1   1.00000     0.00000
 Structure written by MMmdl.
 47 48  0  0  0  0  0  0  0  0  2 V2000
  150.5552  138.4794  157.7340 C   0  0  0  0  0  0  0  0  0  0  0  0
  151.7092  139.4132  157.3277 C   0  0  2  0  0  0  0  0  0  0  0  0
  151.6682  140.7581  158.0875 C   0  0  0  0  0  0  0  0  0  0  0  0
  150.5974  141.7279  157.5385 C   0  0  1  0  0  0  0  0  0  0  0  0
  150.6773  143.0986  158.2249 C   0  0  0  0  0  0  0  0  0  0  0  0
  150.7245  141.8525  156.0061 C   0  0  0  0  0  0  0  0  0  0  0  0
  150.6286  140.5156  155.4030 N   0  0  0  0  0  0  0  0  0  0  0  0
  149.5709  140.1339  154.6416 C   0  0  0  0  0  0  0  0  0  0  0  0
  148.6580  140.9120  154.3609 O   0  0  0  0  0  0  0  0  0  0  0  0
  149.5052  138.6970  154.0858 C   0  0  1  0  0  0  0  0  0  0  0  0
  149.1478  137.6692  155.1800 C   0  0  0  0  0  0  0  0  0  0  0  0
  148.5308  138.6413  152.9730 N   0  3  0  0  0  0  0  0  0  0  0  0
  147.1122  138.5893  153.3801 C   0  0  0  0  0  0  0  0  0  0  0  0
  146.2433  137.9982  152.2611 C   0  0  0  0  0  0  0  0  0  0  0  0
  145.3201  137.0018  152.7679 N   0  0  0  0  0  0  0  0  0  0  0  0
  143.9422  136.9985  152.7090 C   0  0  0  0  0  0  0  0  0  0  0  0
  143.5135  135.8533  153.3167 C   0  0  0  0  0  0  0  0  0  0  0  0
  144.7184  135.2107  153.7173 C   0  0  0  0  0  0  0  0  0  0  0  0
  145.7983  135.9001  153.3856 N   0  0  0  0  0  0  0  0  0  0  0  0
  151.7623  139.6692  155.8057 C   0  0  0  0  0  0  0  0  0  0  0  0
  149.5806  138.9031  157.4923 H   0  0  0  0  0  0  0  0  0  0  0  0
  150.5713  138.2832  158.8064 H   0  0  0  0  0  0  0  0  0  0  0  0
  150.6337  137.5180  157.2260 H   0  0  0  0  0  0  0  0  0  0  0  0
  152.6326  138.9062  157.6103 H   0  0  0  0  0  0  0  0  0  0  0  0
  151.5140  140.5870  159.1536 H   0  0  0  0  0  0  0  0  0  0  0  0
  152.6465  141.2325  157.9990 H   0  0  0  0  0  0  0  0  0  0  0  0
  149.6138  141.3117  157.7610 H   0  0  0  0  0  0  0  0  0  0  0  0
  151.6409  143.5768  158.0458 H   0  0  0  0  0  0  0  0  0  0  0  0
  150.5468  143.0051  159.3034 H   0  0  0  0  0  0  0  0  0  0  0  0
  149.8998  143.7686  157.8566 H   0  0  0  0  0  0  0  0  0  0  0  0
  149.9678  142.5414  155.6285 H   0  0  0  0  0  0  0  0  0  0  0  0
  151.6839  142.2998  155.7411 H   0  0  0  0  0  0  0  0  0  0  0  0
  150.4955  138.4307  153.7175 H   0  0  0  0  0  0  0  0  0  0  0  0
  149.8230  137.7503  156.0331 H   0  0  0  0  0  0  0  0  0  0  0  0
  149.2295  136.6471  154.8111 H   0  0  0  0  0  0  0  0  0  0  0  0
  148.1297  137.8066  155.5468 H   0  0  0  0  0  0  0  0  0  0  0  0
  148.6805  139.4369  152.3688 H   0  0  0  0  0  0  0  0  0  0  0  0
  147.0222  137.9826  154.2823 H   0  0  0  0  0  0  0  0  0  0  0  0
  146.7606  139.5912  153.6272 H   0  0  0  0  0  0  0  0  0  0  0  0
  145.6689  138.7852  151.7704 H   0  0  0  0  0  0  0  0  0  0  0  0
  146.8662  137.5346  151.4945 H   0  0  0  0  0  0  0  0  0  0  0  0
  143.3871  137.8014  152.2464 H   0  0  0  0  0  0  0  0  0  0  0  0
  142.4942  135.5233  153.4528 H   0  0  0  0  0  0  0  0  0  0  0  0
  144.8395  134.2706  154.2351 H   0  0  0  0  0  0  0  0  0  0  0  0
  152.6880  140.1917  155.5590 H   0  0  0  0  0  0  0  0  0  0  0  0
  151.8286  138.7255  155.2683 H   0  0  0  0  0  0  0  0  0  0  0  0
  148.7218  137.8011  152.4460 H   0  0  0  0  0  0  0  0  0  0  0  0
  1  2  1  0  0  0  0
  1 21  1  0  0  0  0
  1 22  1  0  0  0  0
  1 23  1  0  0  0  0
  2 20  1  0  0  0  0
  2  3  1  0  0  0  0
  2 24  1  0  0  0  0
  3  4  1  0  0  0  0
  3 25  1  0  0  0  0
  3 26  1  0  0  0  0
  4  5  1  0  0  0  0
  4  6  1  0  0  0  0
  4 27  1  0  0  0  0
  5 28  1  0  0  0  0
  5 29  1  0  0  0  0
  5 30  1  0  0  0  0
  6  7  1  0  0  0  0
  6 31  1  0  0  0  0
  6 32  1  0  0  0  0
  7  8  1  0  0  0  0
  7 20  1  0  0  0  0
  8  9  2  0  0  0  0
  8 10  1  0  0  0  0
 10 11  1  0  0  0  0
 10 12  1  0  0  0  0
 10 33  1  0  0  0  0
 11 34  1  0  0  0  0
 11 35  1  0  0  0  0
 11 36  1  0  0  0  0
 12 13  1  0  0  0  0
 12 37  1  0  0  0  0
 12 47  1  0  0  0  0
 13 14  1  0  0  0  0
 13 38  1  0  0  0  0
 13 39  1  0  0  0  0
 14 15  1  0  0  0  0
 14 40  1  0  0  0  0
 14 41  1  0  0  0  0
 15 19  1  0  0  0  0
 15 16  1  0  0  0  0
 16 17  2  0  0  0  0
 16 42  1  0  0  0  0
 17 18  1  0  0  0  0
 17 43  1  0  0  0  0
 18 19  2  0  0  0  0
 18 44  1  0  0  0  0
 20 45  1  0  0  0  0
 20 46  1  0  0  0  0
M  CHG  1  12   1
M  END
> <s_m_source_file>
AV-unprocessed.smi

> <i_m_source_file_index>
3331

> <i_lp_mmshare_version>
43012

> <i_f3d_flags>
0

> <s_epik_input>
W0NIM11bQ0BASF0xW0NIMl1bQ0BASF0oW0NIM10pW0NIMl1OKFtDSDJdMSlDKD1PKVtDQEhdKFtDSDNdKVtOSF1bQ0gyXVtDSDJdbjJbY0hdW2NIXVtjSF1uMg==

> <s_epik_cmdline>
J2VwaWtfcHl0aG9uJywgJy1waCcsICc3LjAnLCAnLXRuJywgJzgnLCAnLW1hJywgJzIwMCcsICctbWV0YWxfYmluZGluZycsICctaW1hZScsICc8aW5maWxlLm1hZT4nLCAnLW9tYWUnLCAnPG91dGZpbGUubWFlPic=

> <r_lp_tautomer_probability>
1

> <r_epik_Ionization_Penalty>
0.189706

> <r_epik_Ionization_Penalty_Charging>
0.189703

> <r_epik_Ionization_Penalty_Neutral>
2.45875e-06

> <r_epik_State_Penalty>
0.179341

> <r_epik_Charging_Adjusted_Penalty>
0.369044

> <i_epik_Tot_Q>
1

> <i_epik_Tot_abs_Q>
1

> <r_epik_Metal_State_Penalty>
0.179578

> <b_epik_Metal_Only>
0

> <s_lp_Force_Field>
OPLS_2005

> <r_lp_Energy>
29.8241

> <b_lp_Chiralities_Consistent>
1

> <s_lp_Variant>
AV-unprocessed.smi:3331-4

> <Gold.Version>
5.8.1

> <Gold.Id.Protein>
6NUR|6NUR_protein|mol2

> <Gold.PLP.Fitness>
46.2192

> <Gold.PLP.PLP>
-33.7980

> <Gold.PLP.part.hbond>
-1.9104

> <Gold.PLP.part.metal>
0.0000

> <Gold.PLP.part.buried>
-3.1913

> <Gold.PLP.part.nonpolar>
-28.6389

> <Gold.PLP.part.repulsive>
0.3006

> <Gold.PLP.ligand.clash>
0.0000

> <Gold.PLP.ligand.torsion>
0.9727

> <Gold.PLP.Chemscore.Hbond>
2.9440

> <Gold.PLP.Chemscore.CHOScore>
1.8336

> <Gold.PLP.Chemscore.Metal>
0.0000

> <Gold.Chemscore.Hbonds>
donor molecule, donor type, donor heavy atom, donor atom, acceptor molecule, acceptor atom, score
      L1  H    12    37       P1  7957  0.88
      L1  H    12    47       P1  7948  2.00
      L1  C    16    42       P1 10171  0.74
      L1  C    16    42       P1 10175  0.71

> <Gold.PLP.Chemscore.Internal.Correction>
0.0339

> <Gold.Rescore>
     Score         DG    S(hbond)    S(metal)    S(lipo)     H(rot)  DE(clash)    DE(int)     intcor
     14.01     -16.28       1.93        0.00      74.91       1.73       0.15       2.12       ----

> <Gold.Chemscore.Fitness>
14.0137

> <Gold.Chemscore.DG>
-16.2809

> <Gold.Chemscore.ZeroCoef>
-5.4800

> <Gold.Chemscore.Hbond>
1.9323

> <Gold.Chemscore.Metal>
0.0000

> <Gold.Chemscore.Lipo>
74.9067

> <Gold.Chemscore.Internal_Hbond>
0.0000

> <Gold.Chemscore.DEClash>
0.1519

> <Gold.Chemscore.DEInternal>
2.1153

> <Gold.Chemscore.Rot>
1.7254

> <Gold.Chemscore.Internal.Correction>
   9.000000E+99

> <Gold.Chemscore.Hbonds>
donor molecule, donor type, donor heavy atom, donor atom, acceptor molecule, acceptor atom, score
      L1  H    12    37       P1  7957  0.86
      L1  H    12    47       P1  7948  1.00

> <Gold.Chemscore.Hbond.Weighted>
-6.4539

> <Gold.Chemscore.Metal.Weighted>
-0.0000

> <Gold.Chemscore.Lipo.Weighted>
-8.7641

> <Gold.Chemscore.Internal_Hbond.Weighted>
0.0000

> <Gold.Chemscore.DEClash.Weighted>
0.1519

> <Gold.Chemscore.DEInternal.Weighted>
2.1153

> <Gold.Chemscore.Rot.Weighted>
4.4170

> <Gold.Chemscore.Internal.Correction.Weighted>
   9.000000E+99

> <Gold.Protein.RotatedTorsions>
[ 6907 6896 6895 6894 ] final  -90.83 input  -60.11 | X-H torsion
[ 7974 7965 7964 7962 ] final -150.15 input  175.53 | X-H torsion
[ 8008 7997 7996 7995 ] final   22.85 input   59.86 | X-H torsion
[ 10167 10162 10161 10158 ] final -108.64 input  -65.29 | X-H torsion
[ 10718 10713 10712 10709 ] final  115.01 input   66.30 | X-H torsion
[ 10763 10752 10751 10750 ] final   -1.88 input  -60.55 | X-H torsion
[ 11005 11000 10999 10996 ] final -105.08 input  -57.11 | X-H torsion

> <Gold.Protein.ActiveResidues>
 VAL166  LYS551  ARG553  GLY616  TRP617  ASP618  TYR619  PRO620  LYS621  CYS622 
 ASP623  PHE694  ASN695  SER759  ASP760  ASP761  ALA762  ILE779  LEU786  VAL792 
 PHE793  MET794  SER795  GLU796  ALA797  LYS798  CYS799  TRP800  GLU811  SER814 

> <Gold.Protein.RotatedAtoms>
  150.6886  134.2371  159.4457 H   0  0  0  0  0  0  0  0  0  0  0  0  # atno 6907 bound_to 6896
  152.0318  134.9761  160.0582 H   0  0  0  0  0  0  0  0  0  0  0  0  # atno 6908 bound_to 6896
  152.1297  133.4366  159.4752 H   0  0  0  0  0  0  0  0  0  0  0  0  # atno 6909 bound_to 6896
  144.7925  140.4970  143.5763 H   0  0  0  0  0  0  0  0  0  0  0  0  # atno 7974 bound_to 7965
  154.9720  140.3091  155.4984 H   0  0  0  0  0  0  0  0  0  0  0  0  # atno 8008 bound_to 7997
  156.2964  140.2282  156.4752 H   0  0  0  0  0  0  0  0  0  0  0  0  # atno 8009 bound_to 7997
  154.7868  140.0442  157.1158 H   0  0  0  0  0  0  0  0  0  0  0  0  # atno 8010 bound_to 7997
  140.1640  143.4097  152.1404 H   0  0  0  0  0  0  0  0  0  0  0  0  # atno 10167 bound_to 10162
  157.6248  131.1006  150.7268 H   0  0  0  0  0  0  0  0  0  0  0  0  # atno 10718 bound_to 10713
  153.3507  135.6985  153.6791 H   0  0  0  0  0  0  0  0  0  0  0  0  # atno 10763 bound_to 10752
  153.5519  135.3552  155.2763 H   0  0  0  0  0  0  0  0  0  0  0  0  # atno 10764 bound_to 10752
  154.8653  135.4228  154.2742 H   0  0  0  0  0  0  0  0  0  0  0  0  # atno 10765 bound_to 10752
  141.1070  133.8777  157.1690 H   0  0  0  0  0  0  0  0  0  0  0  0  # atno 11005 bound_to 11000
  145.5758  139.1486  143.3263 LP  0  0  0  0  0  0  0  0  0  0  0  0  # atno 17320 bound_to 7965
  146.2182  140.5890  142.9029 LP  0  0  0  0  0  0  0  0  0  0  0  0  # atno 17321 bound_to 7965
  139.5368  144.7217  151.4866 LP  0  0  0  0  0  0  0  0  0  0  0  0  # atno 17342 bound_to 10162
  140.6625  143.8468  150.6904 LP  0  0  0  0  0  0  0  0  0  0  0  0  # atno 17343 bound_to 10162
  156.7618  130.4801  149.5435 LP  0  0  0  0  0  0  0  0  0  0  0  0  # atno 17370 bound_to 10713
  156.1413  130.6246  151.0471 LP  0  0  0  0  0  0  0  0  0  0  0  0  # atno 17371 bound_to 10713
  139.9945  135.0052  157.0052 LP  0  0  0  0  0  0  0  0  0  0  0  0  # atno 17394 bound_to 11000
  140.4875  134.1226  155.7227 LP  0  0  0  0  0  0  0  0  0  0  0  0  # atno 17395 bound_to 11000

$$$$
