AV-unprocessed.smi:589|AV-procd|sdf|3005|dock1
  -GOLD-   2262023513D 1   1.00000     0.00000
 Structure written by MMmdl.
 40 41  0  0  0  0  0  0  0  0  1 V2000
  148.5560  136.5975  160.7384 C   0  0  0  0  0  0  0  0  0  0  0  0
  149.3831  136.8620  159.4979 C   0  0  0  0  0  0  0  0  0  0  0  0
  149.4007  135.9480  158.4295 C   0  0  0  0  0  0  0  0  0  0  0  0
  150.1817  136.2427  157.2935 C   0  0  0  0  0  0  0  0  0  0  0  0
  150.1558  135.2639  156.1285 C   0  0  0  0  0  0  0  0  0  0  0  0
  150.9383  137.4493  157.2747 C   0  0  0  0  0  0  0  0  0  0  0  0
  151.7882  137.8286  156.0872 C   0  0  0  0  0  0  0  0  0  0  0  0
  152.1688  139.1075  156.0239 N   0  0  0  0  0  0  0  0  0  0  0  0
  152.0785  137.0086  155.2179 O   0  0  0  0  0  0  0  0  0  0  0  0
  150.8383  138.3112  158.4056 C   0  0  0  0  0  0  0  0  0  0  0  0
  151.5537  139.5204  158.4621 N   0  0  0  0  0  0  0  0  0  0  0  0
  152.5643  139.5603  159.5098 C   0  0  0  0  0  0  0  0  0  0  0  0
  153.4087  140.8419  159.3748 C   0  0  2  0  0  0  0  0  0  0  0  0
  154.4189  140.9901  160.5173 C   0  0  0  0  0  0  0  0  0  0  0  0
  152.5441  141.9764  159.3924 O   0  0  0  0  0  0  0  0  0  0  0  0
  151.6035  141.9686  158.3199 C   0  0  2  0  0  0  0  0  0  0  0  0
  150.7822  143.2600  158.3883 C   0  0  0  0  0  0  0  0  0  0  0  0
  150.7190  140.7139  158.4385 C   0  0  0  0  0  0  0  0  0  0  0  0
  150.0806  138.0139  159.4883 N   0  0  0  0  0  0  0  0  0  0  0  0
  147.9949  135.6667  160.6498 H   0  0  0  0  0  0  0  0  0  0  0  0
  147.8450  137.4082  160.8997 H   0  0  0  0  0  0  0  0  0  0  0  0
  149.2000  136.5251  161.6152 H   0  0  0  0  0  0  0  0  0  0  0  0
  148.8166  135.0405  158.4769 H   0  0  0  0  0  0  0  0  0  0  0  0
  150.0171  135.7852  155.1809 H   0  0  0  0  0  0  0  0  0  0  0  0
  149.3363  134.5521  156.2322 H   0  0  0  0  0  0  0  0  0  0  0  0
  151.0856  134.6968  156.0849 H   0  0  0  0  0  0  0  0  0  0  0  0
  152.7430  139.4246  155.2566 H   0  0  0  0  0  0  0  0  0  0  0  0
  151.8838  139.7512  156.7478 H   0  0  0  0  0  0  0  0  0  0  0  0
  152.0792  139.5309  160.4867 H   0  0  0  0  0  0  0  0  0  0  0  0
  153.2033  138.6791  159.4386 H   0  0  0  0  0  0  0  0  0  0  0  0
  153.9535  140.8236  158.4291 H   0  0  0  0  0  0  0  0  0  0  0  0
  155.1108  140.1480  160.5407 H   0  0  0  0  0  0  0  0  0  0  0  0
  153.9167  141.0386  161.4838 H   0  0  0  0  0  0  0  0  0  0  0  0
  155.0071  141.9007  160.4016 H   0  0  0  0  0  0  0  0  0  0  0  0
  152.1430  141.9489  157.3709 H   0  0  0  0  0  0  0  0  0  0  0  0
  150.0513  143.3024  157.5804 H   0  0  0  0  0  0  0  0  0  0  0  0
  151.4252  144.1362  158.3015 H   0  0  0  0  0  0  0  0  0  0  0  0
  150.2424  143.3343  159.3328 H   0  0  0  0  0  0  0  0  0  0  0  0
  150.0263  140.6600  157.5977 H   0  0  0  0  0  0  0  0  0  0  0  0
  150.1211  140.7639  159.3496 H   0  0  0  0  0  0  0  0  0  0  0  0
  1  2  1  0  0  0  0
  1 20  1  0  0  0  0
  1 21  1  0  0  0  0
  1 22  1  0  0  0  0
  2 19  1  0  0  0  0
  2  3  2  0  0  0  0
  3  4  1  0  0  0  0
  3 23  1  0  0  0  0
  4  5  1  0  0  0  0
  4  6  2  0  0  0  0
  5 24  1  0  0  0  0
  5 25  1  0  0  0  0
  5 26  1  0  0  0  0
  6  7  1  0  0  0  0
  6 10  1  0  0  0  0
  7  8  1  0  0  0  0
  7  9  2  0  0  0  0
  8 27  1  0  0  0  0
  8 28  1  0  0  0  0
 10 11  1  0  0  0  0
 10 19  2  0  0  0  0
 11 18  1  0  0  0  0
 11 12  1  0  0  0  0
 12 13  1  0  0  0  0
 12 29  1  0  0  0  0
 12 30  1  0  0  0  0
 13 14  1  0  0  0  0
 13 15  1  0  0  0  0
 13 31  1  0  0  0  0
 14 32  1  0  0  0  0
 14 33  1  0  0  0  0
 14 34  1  0  0  0  0
 15 16  1  0  0  0  0
 16 17  1  0  0  0  0
 16 18  1  0  0  0  0
 16 35  1  0  0  0  0
 17 36  1  0  0  0  0
 17 37  1  0  0  0  0
 17 38  1  0  0  0  0
 18 39  1  0  0  0  0
 18 40  1  0  0  0  0
M  END
> <s_m_source_file>
AV-unprocessed.smi

> <i_m_source_file_index>
589

> <i_lp_mmshare_version>
43012

> <i_f3d_flags>
0

> <s_epik_input>
W0NIM11jMVtjSF1jKFtDSDNdKWMoQyg9TylbTkgyXSljKG4xKU4yW0NIMl1bQ0BASF0oW0NIM10pT1tDQEBIXShbQ0gzXSlbQ0gyXTI=

> <s_epik_cmdline>
J2VwaWtfcHl0aG9uJywgJy1waCcsICc3LjAnLCAnLXRuJywgJzgnLCAnLW1hJywgJzIwMCcsICctbWV0YWxfYmluZGluZycsICctaW1hZScsICc8aW5maWxlLm1hZT4nLCAnLW9tYWUnLCAnPG91dGZpbGUubWFlPic=

> <r_lp_tautomer_probability>
1

> <r_epik_Ionization_Penalty>
0.000626871

> <r_epik_Ionization_Penalty_Charging>
0

> <r_epik_Ionization_Penalty_Neutral>
0.000626871

> <r_epik_State_Penalty>
0.000395665

> <r_epik_Charging_Adjusted_Penalty>
0.000395665

> <i_epik_Tot_Q>
0

> <i_epik_Tot_abs_Q>
0

> <r_epik_Metal_State_Penalty>
-0

> <b_epik_Metal_Only>
0

> <s_lp_Force_Field>
OPLS_2005

> <r_lp_Energy>
24.7039

> <b_lp_Chiralities_Consistent>
1

> <s_lp_Variant>
AV-unprocessed.smi:589-1

> <Gold.Version>
5.8.1

> <Gold.Id.Protein>
6NUR|6NUR_protein|mol2

> <Gold.PLP.Fitness>
27.7851

> <Gold.PLP.PLP>
-24.9644

> <Gold.PLP.part.hbond>
-1.9548

> <Gold.PLP.part.metal>
0.0000

> <Gold.PLP.part.buried>
-5.9226

> <Gold.PLP.part.nonpolar>
-17.8043

> <Gold.PLP.part.repulsive>
0.2662

> <Gold.PLP.ligand.clash>
0.0000

> <Gold.PLP.ligand.torsion>
0.1727

> <Gold.PLP.Chemscore.Hbond>
0.9440

> <Gold.PLP.Chemscore.CHOScore>
0.0000

> <Gold.PLP.Chemscore.Metal>
0.0000

> <Gold.Chemscore.Hbonds>
donor molecule, donor type, donor heavy atom, donor atom, acceptor molecule, acceptor atom, score
      P1  H 10752 10763       L1     9  0.93

> <Gold.PLP.Chemscore.Internal.Correction>
0.3340

> <Gold.Rescore>
     Score         DG    S(hbond)    S(metal)    S(lipo)     H(rot)  DE(clash)    DE(int)     intcor
     10.38     -13.72       1.00        0.00      63.83       1.00       0.00       3.34       ----

> <Gold.Chemscore.Fitness>
10.3790

> <Gold.Chemscore.DG>
-13.7201

> <Gold.Chemscore.ZeroCoef>
-5.4800

> <Gold.Chemscore.Hbond>
0.9977

> <Gold.Chemscore.Metal>
0.0000

> <Gold.Chemscore.Lipo>
63.8275

> <Gold.Chemscore.Internal_Hbond>
0.0000

> <Gold.Chemscore.DEClash>
0.0000

> <Gold.Chemscore.DEInternal>
3.3411

> <Gold.Chemscore.Rot>
1.0000

> <Gold.Chemscore.Internal.Correction>
   9.000000E+99

> <Gold.Chemscore.Hbonds>
donor molecule, donor type, donor heavy atom, donor atom, acceptor molecule, acceptor atom, score
      P1  H 10752 10763       L1     9  0.90

> <Gold.Chemscore.Hbond.Weighted>
-3.3323

> <Gold.Chemscore.Metal.Weighted>
-0.0000

> <Gold.Chemscore.Lipo.Weighted>
-7.4678

> <Gold.Chemscore.Internal_Hbond.Weighted>
0.0000

> <Gold.Chemscore.DEClash.Weighted>
0.0000

> <Gold.Chemscore.DEInternal.Weighted>
3.3411

> <Gold.Chemscore.Rot.Weighted>
2.5600

> <Gold.Chemscore.Internal.Correction.Weighted>
   9.000000E+99

> <Gold.Protein.RotatedTorsions>
[ 6907 6896 6895 6894 ] final   38.58 input  -60.11 | X-H torsion
[ 7974 7965 7964 7962 ] final   72.29 input  175.53 | X-H torsion
[ 8008 7997 7996 7995 ] final  -89.68 input   59.86 | X-H torsion
[ 10167 10162 10161 10158 ] final  -31.40 input  -65.29 | X-H torsion
[ 10718 10713 10712 10709 ] final   16.94 input   66.30 | X-H torsion
[ 10763 10752 10751 10750 ] final   59.49 input  -60.55 | X-H torsion
[ 11005 11000 10999 10996 ] final  -33.97 input  -57.11 | X-H torsion

> <Gold.Protein.ActiveResidues>
 VAL166  LYS551  ARG553  GLY616  TRP617  ASP618  TYR619  PRO620  LYS621  CYS622 
 ASP623  PHE694  ASN695  SER759  ASP760  ASP761  ALA762  ILE779  LEU786  VAL792 
 PHE793  MET794  SER795  GLU796  ALA797  LYS798  CYS799  TRP800  GLU811  SER814 

> <Gold.Protein.RotatedAtoms>
  152.1583  134.8933  160.0543 H   0  0  0  0  0  0  0  0  0  0  0  0  # atno 6907 bound_to 6896
  151.9939  133.3796  159.4163 H   0  0  0  0  0  0  0  0  0  0  0  0  # atno 6908 bound_to 6896
  150.6884  134.3830  159.5086 H   0  0  0  0  0  0  0  0  0  0  0  0  # atno 6909 bound_to 6896
  145.7552  139.2777  143.1408 H   0  0  0  0  0  0  0  0  0  0  0  0  # atno 7974 bound_to 7965
  154.6894  140.0539  157.0348 H   0  0  0  0  0  0  0  0  0  0  0  0  # atno 8008 bound_to 7997
  155.0838  140.3212  155.4575 H   0  0  0  0  0  0  0  0  0  0  0  0  # atno 8009 bound_to 7997
  156.2723  140.2060  156.5965 H   0  0  0  0  0  0  0  0  0  0  0  0  # atno 8010 bound_to 7997
  140.7236  143.3774  151.1665 H   0  0  0  0  0  0  0  0  0  0  0  0  # atno 10167 bound_to 10162
  157.0751  130.6364  149.5814 H   0  0  0  0  0  0  0  0  0  0  0  0  # atno 10718 bound_to 10713
  152.9896  135.5570  154.5721 H   0  0  0  0  0  0  0  0  0  0  0  0  # atno 10763 bound_to 10752
  154.5119  135.2803  155.1337 H   0  0  0  0  0  0  0  0  0  0  0  0  # atno 10764 bound_to 10752
  154.2726  135.6360  153.5369 H   0  0  0  0  0  0  0  0  0  0  0  0  # atno 10765 bound_to 10752
  140.9678  133.7127  156.1473 H   0  0  0  0  0  0  0  0  0  0  0  0  # atno 11005 bound_to 11000
  146.0318  140.8250  142.9872 LP  0  0  0  0  0  0  0  0  0  0  0  0  # atno 17320 bound_to 7965
  144.6841  140.2780  143.7296 LP  0  0  0  0  0  0  0  0  0  0  0  0  # atno 17321 bound_to 7965
  139.7356  143.9004  152.3034 LP  0  0  0  0  0  0  0  0  0  0  0  0  # atno 17342 bound_to 10162
  139.8808  144.7019  150.8880 LP  0  0  0  0  0  0  0  0  0  0  0  0  # atno 17343 bound_to 10162
  155.9939  130.5002  150.7400 LP  0  0  0  0  0  0  0  0  0  0  0  0  # atno 17370 bound_to 10713
  157.4846  131.0905  151.0497 LP  0  0  0  0  0  0  0  0  0  0  0  0  # atno 17371 bound_to 10713
  140.7374  134.4188  157.5559 LP  0  0  0  0  0  0  0  0  0  0  0  0  # atno 17394 bound_to 11000
  139.8901  134.8814  156.2388 LP  0  0  0  0  0  0  0  0  0  0  0  0  # atno 17395 bound_to 11000

$$$$
