AV-unprocessed.smi:3293|AV-procd|sdf|12631|dock6
  -GOLD-   2272018563D 1   1.00000     0.00000
 Structure written by MMmdl.
 44 45  0  0  0  0  0  0  0  0  2 V2000
  146.4127  130.2828  152.2384 C   0  0  0  0  0  0  0  0  0  0  0  0
  145.8272  131.5775  151.6992 C   0  0  0  0  0  0  0  0  0  0  0  0
  144.9563  131.5402  150.6726 C   0  0  0  0  0  0  0  0  0  0  0  0
  144.2574  132.7533  150.1040 C   0  0  0  0  0  0  0  0  0  0  0  0
  144.2444  133.9017  151.1153 C   0  0  0  0  0  0  0  0  0  0  0  0
  145.6470  134.1587  151.6900 C   0  0  1  0  0  0  0  0  0  0  0  0
  145.5988  135.3771  152.6319 C   0  0  0  0  0  0  0  0  0  0  0  0
  146.2495  132.8956  152.3801 C   0  0  2  0  0  0  0  0  0  0  0  0
  147.7901  133.0412  152.4986 C   0  0  0  0  0  0  0  0  0  0  0  0
  148.2003  134.0835  153.4624 N   0  3  0  0  0  0  0  0  0  0  0  0
  149.5211  133.8468  154.0765 C   0  0  0  0  0  0  0  0  0  0  0  0
  149.7493  132.3531  154.3423 C   0  0  0  0  0  0  0  0  0  0  0  0
  150.6963  132.1375  155.4896 C   0  0  0  0  0  0  0  0  0  0  0  0
  151.1888  133.1068  156.4096 C   0  0  0  0  0  0  0  0  0  0  0  0
  152.0058  132.5904  157.3126 N   0  0  0  0  0  0  0  0  0  0  0  0
  152.0648  131.2792  157.0027 N   0  0  0  0  0  0  0  0  0  0  0  0
  152.8845  130.3931  157.8010 C   0  0  0  0  0  0  0  0  0  0  0  0
  151.2878  130.9773  155.9051 C   0  0  0  0  0  0  0  0  0  0  0  0
  146.2906  130.2289  153.3204 H   0  0  0  0  0  0  0  0  0  0  0  0
  147.4717  130.2025  151.9952 H   0  0  0  0  0  0  0  0  0  0  0  0
  145.9150  129.4137  151.8070 H   0  0  0  0  0  0  0  0  0  0  0  0
  144.7072  130.5961  150.2101 H   0  0  0  0  0  0  0  0  0  0  0  0
  144.7628  133.0497  149.1843 H   0  0  0  0  0  0  0  0  0  0  0  0
  143.2347  132.4857  149.8371 H   0  0  0  0  0  0  0  0  0  0  0  0
  143.8569  134.8011  150.6354 H   0  0  0  0  0  0  0  0  0  0  0  0
  143.5550  133.6641  151.9269 H   0  0  0  0  0  0  0  0  0  0  0  0
  146.2879  134.4198  150.8459 H   0  0  0  0  0  0  0  0  0  0  0  0
  144.9724  135.1786  153.5022 H   0  0  0  0  0  0  0  0  0  0  0  0
  145.1838  136.2471  152.1219 H   0  0  0  0  0  0  0  0  0  0  0  0
  146.5849  135.6645  152.9935 H   0  0  0  0  0  0  0  0  0  0  0  0
  145.8311  132.8487  153.3867 H   0  0  0  0  0  0  0  0  0  0  0  0
  148.2272  132.0833  152.7842 H   0  0  0  0  0  0  0  0  0  0  0  0
  148.2349  133.3049  151.5404 H   0  0  0  0  0  0  0  0  0  0  0  0
  148.2175  134.9737  152.9855 H   0  0  0  0  0  0  0  0  0  0  0  0
  150.2972  134.2291  153.4119 H   0  0  0  0  0  0  0  0  0  0  0  0
  149.5886  134.4077  155.0098 H   0  0  0  0  0  0  0  0  0  0  0  0
  148.7919  131.8716  154.5446 H   0  0  0  0  0  0  0  0  0  0  0  0
  150.1335  131.8804  153.4375 H   0  0  0  0  0  0  0  0  0  0  0  0
  150.9757  134.1649  156.4494 H   0  0  0  0  0  0  0  0  0  0  0  0
  152.6567  129.3547  157.5587 H   0  0  0  0  0  0  0  0  0  0  0  0
  152.6896  130.5590  158.8609 H   0  0  0  0  0  0  0  0  0  0  0  0
  153.9382  130.5835  157.5959 H   0  0  0  0  0  0  0  0  0  0  0  0
  151.2181  129.9719  155.5164 H   0  0  0  0  0  0  0  0  0  0  0  0
  147.5101  134.1246  154.1987 H   0  0  0  0  0  0  0  0  0  0  0  0
  1  2  1  0  0  0  0
  1 19  1  0  0  0  0
  1 20  1  0  0  0  0
  1 21  1  0  0  0  0
  2  8  1  0  0  0  0
  2  3  2  0  0  0  0
  3  4  1  0  0  0  0
  3 22  1  0  0  0  0
  4  5  1  0  0  0  0
  4 23  1  0  0  0  0
  4 24  1  0  0  0  0
  5  6  1  0  0  0  0
  5 25  1  0  0  0  0
  5 26  1  0  0  0  0
  6  7  1  0  0  0  0
  6  8  1  0  0  0  0
  6 27  1  0  0  0  0
  7 28  1  0  0  0  0
  7 29  1  0  0  0  0
  7 30  1  0  0  0  0
  8  9  1  0  0  0  0
  8 31  1  0  0  0  0
  9 10  1  0  0  0  0
  9 32  1  0  0  0  0
  9 33  1  0  0  0  0
 10 11  1  0  0  0  0
 10 34  1  0  0  0  0
 10 44  1  0  0  0  0
 11 12  1  0  0  0  0
 11 35  1  0  0  0  0
 11 36  1  0  0  0  0
 12 13  1  0  0  0  0
 12 37  1  0  0  0  0
 12 38  1  0  0  0  0
 13 18  2  0  0  0  0
 13 14  1  0  0  0  0
 14 15  2  0  0  0  0
 14 39  1  0  0  0  0
 15 16  1  0  0  0  0
 16 17  1  0  0  0  0
 16 18  1  0  0  0  0
 17 40  1  0  0  0  0
 17 41  1  0  0  0  0
 17 42  1  0  0  0  0
 18 43  1  0  0  0  0
M  CHG  1  10   1
M  END
> <s_m_source_file>
AV-unprocessed.smi

> <i_m_source_file_index>
3293

> <i_lp_mmshare_version>
43012

> <i_f3d_flags>
0

> <s_epik_input>
W0NIM11DMT1bQ0hdW0NIMl1bQ0gyXVtDQEBIXShbQ0gzXSlbQ0BIXTFbQ0gyXVtOSF1bQ0gyXVtDSDJdYzJbY0hdbm4oW0NIM10pW2NIXTI=

> <s_epik_cmdline>
J2VwaWtfcHl0aG9uJywgJy1waCcsICc3LjAnLCAnLXRuJywgJzgnLCAnLW1hJywgJzIwMCcsICctbWV0YWxfYmluZGluZycsICctaW1hZScsICc8aW5maWxlLm1hZT4nLCAnLW9tYWUnLCAnPG91dGZpbGUubWFlPic=

> <r_lp_tautomer_probability>
1

> <r_epik_Ionization_Penalty>
0.000598621

> <r_epik_Ionization_Penalty_Charging>
0.000582095

> <r_epik_Ionization_Penalty_Neutral>
1.65262e-05

> <r_epik_State_Penalty>
-0

> <r_epik_Charging_Adjusted_Penalty>
0.000582095

> <i_epik_Tot_Q>
1

> <i_epik_Tot_abs_Q>
1

> <r_epik_Metal_State_Penalty>
-0

> <b_epik_Metal_Only>
0

> <s_lp_Force_Field>
OPLS_2005

> <r_lp_Energy>
11.8092

> <b_lp_Chiralities_Consistent>
1

> <s_lp_Variant>
AV-unprocessed.smi:3293-3

> <Gold.Version>
5.8.1

> <Gold.Id.Protein>
6NUR|6NUR_protein|mol2

> <Gold.PLP.Fitness>
43.4237

> <Gold.PLP.PLP>
-35.6321

> <Gold.PLP.part.hbond>
-2.0000

> <Gold.PLP.part.metal>
0.0000

> <Gold.PLP.part.buried>
-4.8405

> <Gold.PLP.part.nonpolar>
-28.8309

> <Gold.PLP.part.repulsive>
0.0000

> <Gold.PLP.ligand.clash>
0.0000

> <Gold.PLP.ligand.torsion>
0.6194

> <Gold.PLP.Chemscore.Hbond>
2.9920

> <Gold.PLP.Chemscore.CHOScore>
0.0000

> <Gold.PLP.Chemscore.Metal>
0.0000

> <Gold.Chemscore.Hbonds>
donor molecule, donor type, donor heavy atom, donor atom, acceptor molecule, acceptor atom, score
      L1  H    10    34       P1  7948  2.00
      P1  H  6896  6908       L1    15  0.83

> <Gold.PLP.Chemscore.Internal.Correction>
0.0544

> <Gold.Rescore>
     Score         DG    S(hbond)    S(metal)    S(lipo)     H(rot)  DE(clash)    DE(int)     intcor
     17.87     -18.64       1.80        0.00      93.62       1.48       0.01       0.75       ----

> <Gold.Chemscore.Fitness>
17.8671

> <Gold.Chemscore.DG>
-18.6355

> <Gold.Chemscore.ZeroCoef>
-5.4800

> <Gold.Chemscore.Hbond>
1.7972

> <Gold.Chemscore.Metal>
0.0000

> <Gold.Chemscore.Lipo>
93.6218

> <Gold.Chemscore.Internal_Hbond>
0.0000

> <Gold.Chemscore.DEClash>
0.0144

> <Gold.Chemscore.DEInternal>
0.7539

> <Gold.Chemscore.Rot>
1.4847

> <Gold.Chemscore.Internal.Correction>
   9.000000E+99

> <Gold.Chemscore.Hbonds>
donor molecule, donor type, donor heavy atom, donor atom, acceptor molecule, acceptor atom, score
      L1  H    10    34       P1  7948  0.85
      P1  H  6896  6908       L1    15  0.68

> <Gold.Chemscore.Hbond.Weighted>
-6.0025

> <Gold.Chemscore.Metal.Weighted>
-0.0000

> <Gold.Chemscore.Lipo.Weighted>
-10.9538

> <Gold.Chemscore.Internal_Hbond.Weighted>
0.0000

> <Gold.Chemscore.DEClash.Weighted>
0.0144

> <Gold.Chemscore.DEInternal.Weighted>
0.7539

> <Gold.Chemscore.Rot.Weighted>
3.8008

> <Gold.Chemscore.Internal.Correction.Weighted>
   9.000000E+99

> <Gold.Protein.RotatedTorsions>
[ 6907 6896 6895 6894 ] final   57.38 input  -60.11 | X-H torsion
[ 7974 7965 7964 7962 ] final   61.88 input  175.53 | X-H torsion
[ 8008 7997 7996 7995 ] final  -70.48 input   59.86 | X-H torsion
[ 10167 10162 10161 10158 ] final  176.02 input  -65.29 | X-H torsion
[ 10718 10713 10712 10709 ] final  -31.16 input   66.30 | X-H torsion
[ 10763 10752 10751 10750 ] final   37.23 input  -60.55 | X-H torsion
[ 11005 11000 10999 10996 ] final  173.52 input  -57.11 | X-H torsion

> <Gold.Protein.ActiveResidues>
 VAL166  LYS551  ARG553  GLY616  TRP617  ASP618  TYR619  PRO620  LYS621  CYS622 
 ASP623  PHE694  ASN695  SER759  ASP760  ASP761  ALA762  ILE779  LEU786  VAL792 
 PHE793  MET794  SER795  GLU796  ALA797  LYS798  CYS799  TRP800  GLU811  SER814 

> <Gold.Protein.RotatedAtoms>
  152.3726  134.6712  160.0170 H   0  0  0  0  0  0  0  0  0  0  0  0  # atno 6907 bound_to 6896
  151.7000  133.3305  159.3272 H   0  0  0  0  0  0  0  0  0  0  0  0  # atno 6908 bound_to 6896
  150.7685  134.6559  159.6358 H   0  0  0  0  0  0  0  0  0  0  0  0  # atno 6909 bound_to 6896
  145.8797  139.3434  143.0713 H   0  0  0  0  0  0  0  0  0  0  0  0  # atno 7974 bound_to 7965
  154.5015  140.0833  156.7808 H   0  0  0  0  0  0  0  0  0  0  0  0  # atno 8008 bound_to 7997
  155.3992  140.3436  155.4238 H   0  0  0  0  0  0  0  0  0  0  0  0  # atno 8009 bound_to 7997
  156.1462  140.1544  156.8830 H   0  0  0  0  0  0  0  0  0  0  0  0  # atno 8010 bound_to 7997
  139.5199  144.2964  152.0418 H   0  0  0  0  0  0  0  0  0  0  0  0  # atno 10167 bound_to 10162
  156.3908  130.4372  149.7396 H   0  0  0  0  0  0  0  0  0  0  0  0  # atno 10718 bound_to 10713
  153.0046  135.6284  154.2111 H   0  0  0  0  0  0  0  0  0  0  0  0  # atno 10763 bound_to 10752
  154.1854  135.2811  155.3040 H   0  0  0  0  0  0  0  0  0  0  0  0  # atno 10764 bound_to 10752
  154.5801  135.5650  153.7237 H   0  0  0  0  0  0  0  0  0  0  0  0  # atno 10765 bound_to 10752
  140.3414  134.7273  157.4205 H   0  0  0  0  0  0  0  0  0  0  0  0  # atno 11005 bound_to 11000
  145.9038  140.9225  143.0489 LP  0  0  0  0  0  0  0  0  0  0  0  0  # atno 17320 bound_to 7965
  144.6727  140.1069  143.7457 LP  0  0  0  0  0  0  0  0  0  0  0  0  # atno 17321 bound_to 7965
  140.2413  144.4266  150.6259 LP  0  0  0  0  0  0  0  0  0  0  0  0  # atno 17342 bound_to 10162
  140.6289  143.2185  151.6538 LP  0  0  0  0  0  0  0  0  0  0  0  0  # atno 17343 bound_to 10162
  156.4451  130.7879  151.2901 LP  0  0  0  0  0  0  0  0  0  0  0  0  # atno 17370 bound_to 10713
  157.7499  131.0113  150.3339 LP  0  0  0  0  0  0  0  0  0  0  0  0  # atno 17371 bound_to 10713
  140.0778  134.5773  155.8573 LP  0  0  0  0  0  0  0  0  0  0  0  0  # atno 17394 bound_to 11000
  141.2037  133.6634  156.6080 LP  0  0  0  0  0  0  0  0  0  0  0  0  # atno 17395 bound_to 11000

$$$$
