AV-unprocessed.smi:19|AV-procd|sdf|110|dock8
  -GOLD-   2262015273D 1   1.00000     0.00000
 Structure written by MMmdl.
 57 60  0  0  0  0  0  0  0  0  1 V2000
  154.7610  140.1986  162.3690 C   0  0  0  0  0  0  0  0  0  0  0  0
  154.2835  140.5207  161.0747 O   0  0  0  0  0  0  0  0  0  0  0  0
  153.2487  141.4900  161.1037 C   0  0  0  0  0  0  0  0  0  0  0  0
  153.0428  142.0488  159.6901 C   0  0  1  0  0  0  0  0  0  0  0  0
  152.3217  141.0396  158.7766 C   0  0  0  0  0  0  0  0  0  0  0  0
  152.0437  141.6429  157.4772 N   0  0  0  0  0  0  0  0  0  0  0  0
  151.6687  140.7682  156.5088 C   0  0  0  0  0  0  0  0  0  0  0  0
  152.5070  139.7623  156.1399 N   0  0  0  0  0  0  0  0  0  0  0  0
  152.1526  138.9054  155.1782 C   0  0  0  0  0  0  0  0  0  0  0  0
  151.0231  138.8677  154.4698 N   0  0  0  0  0  0  0  0  0  0  0  0
  150.1699  139.8636  154.8430 C   0  0  0  0  0  0  0  0  0  0  0  0
  150.4133  140.8496  155.8415 C   0  0  0  0  0  0  0  0  0  0  0  0
  149.3159  141.6963  155.9447 N   0  0  0  0  0  0  0  0  0  0  0  0
  148.4799  141.2460  155.0502 C   0  0  0  0  0  0  0  0  0  0  0  0
  148.9031  140.1362  154.3534 N   0  0  0  0  0  0  0  0  0  0  0  0
  148.1720  139.4350  153.3057 C   0  0  0  0  0  0  0  0  0  0  0  0
  146.9979  138.5412  153.8065 C   0  0  0  0  0  0  0  0  0  0  0  0
  146.3129  137.8172  152.6125 C   0  0  0  0  0  0  0  0  0  0  0  0
  146.1167  138.6757  151.5072 O   0  0  0  0  0  0  0  0  0  0  0  0
  147.5255  137.4885  154.8152 C   0  0  0  0  0  0  0  0  0  0  0  0
  146.4031  136.7853  155.6018 C   0  0  0  0  0  0  0  0  0  0  0  0
  145.5863  137.7453  156.2583 O   0  0  0  0  0  0  0  0  0  0  0  0
  144.9409  138.6302  155.3527 C   0  0  0  0  0  0  0  0  0  0  0  0
  145.9944  139.4380  154.5750 C   0  0  0  0  0  0  0  0  0  0  0  0
  151.3190  142.9070  157.5786 C   0  0  0  0  0  0  0  0  0  0  0  0
  152.0568  143.8673  158.5289 C   0  0  1  0  0  0  0  0  0  0  0  0
  151.2727  145.1629  158.7615 C   0  0  0  0  0  0  0  0  0  0  0  0
  152.2402  143.2234  159.7866 O   0  0  0  0  0  0  0  0  0  0  0  0
  155.5491  139.4495  162.2927 H   0  0  0  0  0  0  0  0  0  0  0  0
  153.9656  139.7887  162.9929 H   0  0  0  0  0  0  0  0  0  0  0  0
  155.1777  141.0763  162.8648 H   0  0  0  0  0  0  0  0  0  0  0  0
  152.3295  141.0149  161.4504 H   0  0  0  0  0  0  0  0  0  0  0  0
  153.4860  142.2943  161.8019 H   0  0  0  0  0  0  0  0  0  0  0  0
  154.0149  142.2968  159.2600 H   0  0  0  0  0  0  0  0  0  0  0  0
  152.9314  140.1424  158.6765 H   0  0  0  0  0  0  0  0  0  0  0  0
  151.3786  140.7310  159.2299 H   0  0  0  0  0  0  0  0  0  0  0  0
  152.8784  138.1414  154.9417 H   0  0  0  0  0  0  0  0  0  0  0  0
  147.5199  141.7108  154.8792 H   0  0  0  0  0  0  0  0  0  0  0  0
  147.7968  140.1886  152.6120 H   0  0  0  0  0  0  0  0  0  0  0  0
  148.8843  138.8414  152.7314 H   0  0  0  0  0  0  0  0  0  0  0  0
  146.9047  136.9619  152.2860 H   0  0  0  0  0  0  0  0  0  0  0  0
  145.3388  137.4176  152.8883 H   0  0  0  0  0  0  0  0  0  0  0  0
  145.4669  139.3212  151.7394 H   0  0  0  0  0  0  0  0  0  0  0  0
  148.1296  136.7370  154.3067 H   0  0  0  0  0  0  0  0  0  0  0  0
  148.1861  137.9754  155.5338 H   0  0  0  0  0  0  0  0  0  0  0  0
  145.7944  136.1519  154.9562 H   0  0  0  0  0  0  0  0  0  0  0  0
  146.8384  136.1286  156.3552 H   0  0  0  0  0  0  0  0  0  0  0  0
  144.2828  138.0762  154.6824 H   0  0  0  0  0  0  0  0  0  0  0  0
  144.3049  139.3065  155.9238 H   0  0  0  0  0  0  0  0  0  0  0  0
  146.5368  140.0555  155.2922 H   0  0  0  0  0  0  0  0  0  0  0  0
  145.5008  140.1369  153.8995 H   0  0  0  0  0  0  0  0  0  0  0  0
  151.2261  143.3646  156.5926 H   0  0  0  0  0  0  0  0  0  0  0  0
  150.3101  142.7174  157.9479 H   0  0  0  0  0  0  0  0  0  0  0  0
  153.0327  144.1211  158.1109 H   0  0  0  0  0  0  0  0  0  0  0  0
  151.1153  145.6995  157.8257 H   0  0  0  0  0  0  0  0  0  0  0  0
  151.8098  145.8264  159.4395 H   0  0  0  0  0  0  0  0  0  0  0  0
  150.2951  144.9593  159.1993 H   0  0  0  0  0  0  0  0  0  0  0  0
  1  2  1  0  0  0  0
  1 29  1  0  0  0  0
  1 30  1  0  0  0  0
  1 31  1  0  0  0  0
  2  3  1  0  0  0  0
  3  4  1  0  0  0  0
  3 32  1  0  0  0  0
  3 33  1  0  0  0  0
  4 28  1  0  0  0  0
  4  5  1  0  0  0  0
  4 34  1  0  0  0  0
  5  6  1  0  0  0  0
  5 35  1  0  0  0  0
  5 36  1  0  0  0  0
  6  7  1  0  0  0  0
  6 25  1  0  0  0  0
  7 12  1  0  0  0  0
  7  8  2  0  0  0  0
  8  9  1  0  0  0  0
  9 10  2  0  0  0  0
  9 37  1  0  0  0  0
 10 11  1  0  0  0  0
 11 15  1  0  0  0  0
 11 12  2  0  0  0  0
 12 13  1  0  0  0  0
 13 14  2  0  0  0  0
 14 15  1  0  0  0  0
 14 38  1  0  0  0  0
 15 16  1  0  0  0  0
 16 17  1  0  0  0  0
 16 39  1  0  0  0  0
 16 40  1  0  0  0  0
 17 24  1  0  0  0  0
 17 18  1  0  0  0  0
 17 20  1  0  0  0  0
 18 19  1  0  0  0  0
 18 41  1  0  0  0  0
 18 42  1  0  0  0  0
 19 43  1  0  0  0  0
 20 21  1  0  0  0  0
 20 44  1  0  0  0  0
 20 45  1  0  0  0  0
 21 22  1  0  0  0  0
 21 46  1  0  0  0  0
 21 47  1  0  0  0  0
 22 23  1  0  0  0  0
 23 24  1  0  0  0  0
 23 48  1  0  0  0  0
 23 49  1  0  0  0  0
 24 50  1  0  0  0  0
 24 51  1  0  0  0  0
 25 26  1  0  0  0  0
 25 52  1  0  0  0  0
 25 53  1  0  0  0  0
 26 27  1  0  0  0  0
 26 28  1  0  0  0  0
 26 54  1  0  0  0  0
 27 55  1  0  0  0  0
 27 56  1  0  0  0  0
 27 57  1  0  0  0  0
M  END
> <s_m_source_file>
AV-unprocessed.smi

> <i_m_source_file_index>
19

> <i_lp_mmshare_version>
43012

> <i_f3d_flags>
0

> <s_epik_input>
W0NIM11PW0NIMl1bQ0BASF0xW0NIMl1OKFtDSDJdW0NASF0oTzEpW0NIM10pYyhuW2NIXW4yKWMoYzIzKW5bY0hdbjNbQ0gyXUM0KFtDSDJdW09IXSlbQ0gyXVtDSDJdT1tDSDJdW0NIMl00

> <s_epik_cmdline>
J2VwaWtfcHl0aG9uJywgJy1waCcsICc3LjAnLCAnLXRuJywgJzgnLCAnLW1hJywgJzIwMCcsICctbWV0YWxfYmluZGluZycsICctaW1hZScsICc8aW5maWxlLm1hZT4nLCAnLW9tYWUnLCAnPG91dGZpbGUubWFlPic=

> <r_lp_tautomer_probability>
1

> <r_epik_Ionization_Penalty>
6.20357e-05

> <r_epik_Ionization_Penalty_Charging>
0

> <r_epik_Ionization_Penalty_Neutral>
6.20357e-05

> <r_epik_State_Penalty>
-0

> <r_epik_Charging_Adjusted_Penalty>
0

> <i_epik_Tot_Q>
0

> <i_epik_Tot_abs_Q>
0

> <r_epik_Metal_State_Penalty>
-0

> <b_epik_Metal_Only>
0

> <s_lp_Force_Field>
OPLS_2005

> <r_lp_Energy>
35.6446

> <b_lp_Chiralities_Consistent>
1

> <s_lp_Variant>
AV-unprocessed.smi:19-2

> <Gold.Version>
5.8.1

> <Gold.Id.Protein>
6NUR|6NUR_protein|mol2

> <Gold.PLP.Fitness>
50.1792

> <Gold.PLP.PLP>
-45.3137

> <Gold.PLP.part.hbond>
-3.4412

> <Gold.PLP.part.metal>
0.0000

> <Gold.PLP.part.buried>
-2.4663

> <Gold.PLP.part.nonpolar>
-40.1184

> <Gold.PLP.part.repulsive>
0.7601

> <Gold.PLP.ligand.clash>
0.0000

> <Gold.PLP.ligand.torsion>
0.7489

> <Gold.PLP.Chemscore.Hbond>
2.0000

> <Gold.PLP.Chemscore.CHOScore>
0.0000

> <Gold.PLP.Chemscore.Metal>
0.0000

> <Gold.Chemscore.Hbonds>
donor molecule, donor type, donor heavy atom, donor atom, acceptor molecule, acceptor atom, score
      L1  H    19    43       P1 10175  0.50
      P1  H  7997  8010       L1     8  1.00

> <Gold.PLP.Chemscore.Internal.Correction>
0.3634

> <Gold.Rescore>
     Score         DG    S(hbond)    S(metal)    S(lipo)     H(rot)  DE(clash)    DE(int)     intcor
     12.88     -15.03       1.90        0.00      90.13       2.87       0.12       2.03       ----

> <Gold.Chemscore.Fitness>
12.8772

> <Gold.Chemscore.DG>
-15.0327

> <Gold.Chemscore.ZeroCoef>
-5.4800

> <Gold.Chemscore.Hbond>
1.9048

> <Gold.Chemscore.Metal>
0.0000

> <Gold.Chemscore.Lipo>
90.1293

> <Gold.Chemscore.Internal_Hbond>
0.0000

> <Gold.Chemscore.DEClash>
0.1237

> <Gold.Chemscore.DEInternal>
2.0319

> <Gold.Chemscore.Rot>
2.8729

> <Gold.Chemscore.Internal.Correction>
   9.000000E+99

> <Gold.Chemscore.Hbonds>
donor molecule, donor type, donor heavy atom, donor atom, acceptor molecule, acceptor atom, score
      L1  H    19    43       P1 10175  0.45
      P1  H  7997  8010       L1     8  0.79

> <Gold.Chemscore.Hbond.Weighted>
-6.3622

> <Gold.Chemscore.Metal.Weighted>
-0.0000

> <Gold.Chemscore.Lipo.Weighted>
-10.5451

> <Gold.Chemscore.Internal_Hbond.Weighted>
0.0000

> <Gold.Chemscore.DEClash.Weighted>
0.1237

> <Gold.Chemscore.DEInternal.Weighted>
2.0319

> <Gold.Chemscore.Rot.Weighted>
7.3546

> <Gold.Chemscore.Internal.Correction.Weighted>
   9.000000E+99

> <Gold.Protein.RotatedTorsions>
[ 6907 6896 6895 6894 ] final   -3.45 input  -60.11 | X-H torsion
[ 7974 7965 7964 7962 ] final   96.46 input  175.53 | X-H torsion
[ 8008 7997 7996 7995 ] final   89.16 input   59.86 | X-H torsion
[ 10167 10162 10161 10158 ] final   48.49 input  -65.29 | X-H torsion
[ 10718 10713 10712 10709 ] final   98.40 input   66.30 | X-H torsion
[ 10763 10752 10751 10750 ] final  157.30 input  -60.55 | X-H torsion
[ 11005 11000 10999 10996 ] final  -98.75 input  -57.11 | X-H torsion

> <Gold.Protein.ActiveResidues>
 VAL166  LYS551  ARG553  GLY616  TRP617  ASP618  TYR619  PRO620  LYS621  CYS622 
 ASP623  PHE694  ASN695  SER759  ASP760  ASP761  ALA762  ILE779  LEU786  VAL792 
 PHE793  MET794  SER795  GLU796  ALA797  LYS798  CYS799  TRP800  GLU811  SER814 

> <Gold.Protein.RotatedAtoms>
  151.5136  135.1065  159.9859 H   0  0  0  0  0  0  0  0  0  0  0  0  # atno 6907 bound_to 6896
  152.4651  133.7901  159.6908 H   0  0  0  0  0  0  0  0  0  0  0  0  # atno 6908 bound_to 6896
  150.8631  133.7551  159.3011 H   0  0  0  0  0  0  0  0  0  0  0  0  # atno 6909 bound_to 6896
  145.4386  139.2303  143.3104 H   0  0  0  0  0  0  0  0  0  0  0  0  # atno 7974 bound_to 7965
  155.9966  140.3364  155.6804 H   0  0  0  0  0  0  0  0  0  0  0  0  # atno 8008 bound_to 7997
  155.6348  140.0689  157.2655 H   0  0  0  0  0  0  0  0  0  0  0  0  # atno 8009 bound_to 7997
  154.4236  140.1753  156.1498 H   0  0  0  0  0  0  0  0  0  0  0  0  # atno 8010 bound_to 7997
  140.2927  144.3027  150.6237 H   0  0  0  0  0  0  0  0  0  0  0  0  # atno 10167 bound_to 10162
  157.6896  131.0639  150.4790 H   0  0  0  0  0  0  0  0  0  0  0  0  # atno 10718 bound_to 10713
  154.1981  135.2791  155.3000 H   0  0  0  0  0  0  0  0  0  0  0  0  # atno 10763 bound_to 10752
  154.5876  135.5570  153.7250 H   0  0  0  0  0  0  0  0  0  0  0  0  # atno 10764 bound_to 10752
  153.0095  135.6360  154.2119 H   0  0  0  0  0  0  0  0  0  0  0  0  # atno 10765 bound_to 10752
  141.1333  133.8269  157.0881 H   0  0  0  0  0  0  0  0  0  0  0  0  # atno 11005 bound_to 11000
  146.2569  140.5131  142.8870 LP  0  0  0  0  0  0  0  0  0  0  0  0  # atno 17320 bound_to 7965
  144.8136  140.6429  143.6399 LP  0  0  0  0  0  0  0  0  0  0  0  0  # atno 17321 bound_to 7965
  140.5718  143.2180  151.7585 LP  0  0  0  0  0  0  0  0  0  0  0  0  # atno 17342 bound_to 10162
  139.4934  144.4205  151.9982 LP  0  0  0  0  0  0  0  0  0  0  0  0  # atno 17343 bound_to 10162
  156.5123  130.4142  149.6294 LP  0  0  0  0  0  0  0  0  0  0  0  0  # atno 17370 bound_to 10713
  156.3229  130.7290  151.2206 LP  0  0  0  0  0  0  0  0  0  0  0  0  # atno 17371 bound_to 10713
  140.0409  134.9854  157.0960 LP  0  0  0  0  0  0  0  0  0  0  0  0  # atno 17394 bound_to 11000
  140.4136  134.1955  155.7163 LP  0  0  0  0  0  0  0  0  0  0  0  0  # atno 17395 bound_to 11000

$$$$
