AV-unprocessed.smi:671|AV-procd|sdf|3288|dock9
  -GOLD-   22720 0243D 1   1.00000     0.00000
 Structure written by MMmdl.
 50 51  0  0  0  0  0  0  0  0  2 V2000
  154.4938  139.9175  159.9710 C   0  0  0  0  0  0  0  0  0  0  0  0
  153.9027  141.0385  160.7582 C   0  0  0  0  0  0  0  0  0  0  0  0
  154.3317  141.4179  161.9919 N   0  3  0  0  0  0  0  0  0  0  0  0
  153.6011  142.4484  162.4408 N   0  0  0  0  0  0  0  0  0  0  0  0
  153.9069  143.0068  163.7579 C   0  0  0  0  0  0  0  0  0  0  0  0
  152.6597  142.7958  161.5176 C   0  0  0  0  0  0  0  0  0  0  0  0
  151.6708  143.9026  161.6902 C   0  0  0  0  0  0  0  0  0  0  0  0
  152.8495  141.9081  160.4503 C   0  0  0  0  0  0  0  0  0  0  0  0
  152.0449  141.8902  159.1808 C   0  0  0  0  0  0  0  0  0  0  0  0
  151.3046  143.2197  158.9101 C   0  0  1  0  0  0  0  0  0  0  0  0
  152.2674  144.3934  158.6726 C   0  0  0  0  0  0  0  0  0  0  0  0
  150.4292  143.0838  157.7430 N   0  0  0  0  0  0  0  0  0  0  0  0
  149.4817  142.1550  157.5156 C   0  0  0  0  0  0  0  0  0  0  0  0
  149.2400  141.2644  158.3274 O   0  0  0  0  0  0  0  0  0  0  0  0
  148.8382  142.2916  156.3443 N   0  0  0  0  0  0  0  0  0  0  0  0
  147.7457  141.4553  155.8565 C   0  0  1  0  0  0  0  0  0  0  0  0
  147.2172  141.9920  154.5118 C   0  0  0  0  0  0  0  0  0  0  0  0
  147.5879  140.9471  153.4581 C   0  0  0  0  0  0  0  0  0  0  0  0
  147.6311  139.6338  154.2319 C   0  0  0  0  0  0  0  0  0  0  0  0
  148.2389  140.0180  155.5839 C   0  0  2  0  0  0  0  0  0  0  0  0
  147.9091  139.0275  156.7088 C   0  0  0  0  0  0  0  0  0  0  0  0
  153.7199  139.2001  159.6971 H   0  0  0  0  0  0  0  0  0  0  0  0
  155.2562  139.3987  160.5529 H   0  0  0  0  0  0  0  0  0  0  0  0
  154.9541  140.2986  159.0596 H   0  0  0  0  0  0  0  0  0  0  0  0
  153.0450  143.5600  164.1314 H   0  0  0  0  0  0  0  0  0  0  0  0
  154.7614  143.6782  163.6705 H   0  0  0  0  0  0  0  0  0  0  0  0
  154.1426  142.1997  164.4528 H   0  0  0  0  0  0  0  0  0  0  0  0
  151.0959  144.0578  160.7784 H   0  0  0  0  0  0  0  0  0  0  0  0
  152.1838  144.8330  161.9342 H   0  0  0  0  0  0  0  0  0  0  0  0
  150.9771  143.6640  162.4964 H   0  0  0  0  0  0  0  0  0  0  0  0
  152.6833  141.6519  158.3294 H   0  0  0  0  0  0  0  0  0  0  0  0
  151.3270  141.0708  159.2328 H   0  0  0  0  0  0  0  0  0  0  0  0
  150.6959  143.4762  159.7786 H   0  0  0  0  0  0  0  0  0  0  0  0
  152.8940  144.5782  159.5452 H   0  0  0  0  0  0  0  0  0  0  0  0
  151.7193  145.3139  158.4692 H   0  0  0  0  0  0  0  0  0  0  0  0
  152.9243  144.2037  157.8228 H   0  0  0  0  0  0  0  0  0  0  0  0
  150.5719  143.7627  157.0089 H   0  0  0  0  0  0  0  0  0  0  0  0
  149.1217  143.0505  155.7427 H   0  0  0  0  0  0  0  0  0  0  0  0
  146.9189  141.4361  156.5690 H   0  0  0  0  0  0  0  0  0  0  0  0
  146.1314  142.0837  154.5639 H   0  0  0  0  0  0  0  0  0  0  0  0
  147.6074  142.9783  154.2559 H   0  0  0  0  0  0  0  0  0  0  0  0
  146.8839  140.9220  152.6258 H   0  0  0  0  0  0  0  0  0  0  0  0
  148.5760  141.1662  153.0524 H   0  0  0  0  0  0  0  0  0  0  0  0
  146.6158  139.2577  154.3677 H   0  0  0  0  0  0  0  0  0  0  0  0
  148.2055  138.8628  153.7172 H   0  0  0  0  0  0  0  0  0  0  0  0
  149.3227  140.0342  155.4513 H   0  0  0  0  0  0  0  0  0  0  0  0
  146.8333  138.9547  156.8718 H   0  0  0  0  0  0  0  0  0  0  0  0
  148.3682  139.3377  157.6481 H   0  0  0  0  0  0  0  0  0  0  0  0
  148.2782  138.0293  156.4718 H   0  0  0  0  0  0  0  0  0  0  0  0
  155.0810  141.0259  162.5482 H   0  0  0  0  0  0  0  0  0  0  0  0
  1  2  1  0  0  0  0
  1 22  1  0  0  0  0
  1 23  1  0  0  0  0
  1 24  1  0  0  0  0
  2  8  1  0  0  0  0
  2  3  2  0  0  0  0
  3  4  1  0  0  0  0
  3 50  1  0  0  0  0
  4  5  1  0  0  0  0
  4  6  1  0  0  0  0
  5 25  1  0  0  0  0
  5 26  1  0  0  0  0
  5 27  1  0  0  0  0
  6  7  1  0  0  0  0
  6  8  2  0  0  0  0
  7 28  1  0  0  0  0
  7 29  1  0  0  0  0
  7 30  1  0  0  0  0
  8  9  1  0  0  0  0
  9 10  1  0  0  0  0
  9 31  1  0  0  0  0
  9 32  1  0  0  0  0
 10 11  1  0  0  0  0
 10 12  1  0  0  0  0
 10 33  1  0  0  0  0
 11 34  1  0  0  0  0
 11 35  1  0  0  0  0
 11 36  1  0  0  0  0
 12 13  1  0  0  0  0
 12 37  1  0  0  0  0
 13 14  2  0  0  0  0
 13 15  1  0  0  0  0
 15 16  1  0  0  0  0
 15 38  1  0  0  0  0
 16 20  1  0  0  0  0
 16 17  1  0  0  0  0
 16 39  1  0  0  0  0
 17 18  1  0  0  0  0
 17 40  1  0  0  0  0
 17 41  1  0  0  0  0
 18 19  1  0  0  0  0
 18 42  1  0  0  0  0
 18 43  1  0  0  0  0
 19 20  1  0  0  0  0
 19 44  1  0  0  0  0
 19 45  1  0  0  0  0
 20 21  1  0  0  0  0
 20 46  1  0  0  0  0
 21 47  1  0  0  0  0
 21 48  1  0  0  0  0
 21 49  1  0  0  0  0
M  CHG  1   3   1
M  END
> <s_m_source_file>
AV-unprocessed.smi

> <i_m_source_file_index>
671

> <i_lp_mmshare_version>
43012

> <i_f3d_flags>
0

> <s_epik_input>
W0NIM11jMW5uKFtDSDNdKWMoW0NIM10pYzFbQ0gyXVtDQEhdKFtDSDNdKVtOSF1DKD1PKVtOSF1bQ0BASF0yW0NIMl1bQ0gyXVtDSDJdW0NASF0yW0NIM10=

> <s_epik_cmdline>
J2VwaWtfcHl0aG9uJywgJy1waCcsICc3LjAnLCAnLXRuJywgJzgnLCAnLW1hJywgJzIwMCcsICctbWV0YWxfYmluZGluZycsICctaW1hZScsICc8aW5maWxlLm1hZT4nLCAnLW9tYWUnLCAnPG91dGZpbGUubWFlPic=

> <r_lp_tautomer_probability>
1

> <r_epik_Ionization_Penalty>
2.28705

> <r_epik_Ionization_Penalty_Charging>
2.28698

> <r_epik_Ionization_Penalty_Neutral>
6.23157e-05

> <r_epik_State_Penalty>
2.43671

> <r_epik_Charging_Adjusted_Penalty>
4.72369

> <i_epik_Tot_Q>
1

> <i_epik_Tot_abs_Q>
1

> <r_epik_Metal_State_Penalty>
2.44911

> <b_epik_Metal_Only>
0

> <s_lp_Force_Field>
OPLS_2005

> <r_lp_Energy>
34.8229

> <b_lp_Chiralities_Consistent>
1

> <s_lp_Variant>
AV-unprocessed.smi:671-16

> <Gold.Version>
5.8.1

> <Gold.Id.Protein>
6NUR|6NUR_protein|mol2

> <Gold.PLP.Fitness>
42.8010

> <Gold.PLP.PLP>
-44.1372

> <Gold.PLP.part.hbond>
-2.8873

> <Gold.PLP.part.metal>
0.0000

> <Gold.PLP.part.buried>
-2.6663

> <Gold.PLP.part.nonpolar>
-37.4554

> <Gold.PLP.part.repulsive>
0.1001

> <Gold.PLP.ligand.clash>
3.7240

> <Gold.PLP.ligand.torsion>
0.3502

> <Gold.PLP.Chemscore.Hbond>
1.0165

> <Gold.PLP.Chemscore.CHOScore>
0.0000

> <Gold.PLP.Chemscore.Metal>
0.0000

> <Gold.Chemscore.Hbonds>
donor molecule, donor type, donor heavy atom, donor atom, acceptor molecule, acceptor atom, score
      L1  H    12    37       P1  8028  0.11
      L1  H    15    38       P1  8028  0.75

> <Gold.PLP.Chemscore.Internal.Correction>
0.0387

> <Gold.Rescore>
     Score         DG    S(hbond)    S(metal)    S(lipo)     H(rot)  DE(clash)    DE(int)     intcor
     16.10     -19.83       1.28        0.00     119.11       1.51       0.57       3.17       ----

> <Gold.Chemscore.Fitness>
16.1016

> <Gold.Chemscore.DG>
-19.8335

> <Gold.Chemscore.ZeroCoef>
-5.4800

> <Gold.Chemscore.Hbond>
1.2791

> <Gold.Chemscore.Metal>
0.0000

> <Gold.Chemscore.Lipo>
119.1103

> <Gold.Chemscore.Internal_Hbond>
0.0000

> <Gold.Chemscore.DEClash>
0.5664

> <Gold.Chemscore.DEInternal>
3.1655

> <Gold.Chemscore.Rot>
1.5057

> <Gold.Chemscore.Internal.Correction>
   9.000000E+99

> <Gold.Chemscore.Hbonds>
donor molecule, donor type, donor heavy atom, donor atom, acceptor molecule, acceptor atom, score
      L1  H    12    37       P1  8028  0.12
      L1  H    15    38       P1  8028  0.74

> <Gold.Chemscore.Hbond.Weighted>
-4.2723

> <Gold.Chemscore.Metal.Weighted>
-0.0000

> <Gold.Chemscore.Lipo.Weighted>
-13.9359

> <Gold.Chemscore.Internal_Hbond.Weighted>
0.0000

> <Gold.Chemscore.DEClash.Weighted>
0.5664

> <Gold.Chemscore.DEInternal.Weighted>
3.1655

> <Gold.Chemscore.Rot.Weighted>
3.8547

> <Gold.Chemscore.Internal.Correction.Weighted>
   9.000000E+99

> <Gold.Protein.RotatedTorsions>
[ 6907 6896 6895 6894 ] final -106.51 input  -60.11 | X-H torsion
[ 7974 7965 7964 7962 ] final -119.45 input  175.53 | X-H torsion
[ 8008 7997 7996 7995 ] final   27.96 input   59.86 | X-H torsion
[ 10167 10162 10161 10158 ] final   81.52 input  -65.29 | X-H torsion
[ 10718 10713 10712 10709 ] final -166.45 input   66.30 | X-H torsion
[ 10763 10752 10751 10750 ] final -146.94 input  -60.55 | X-H torsion
[ 11005 11000 10999 10996 ] final   74.83 input  -57.11 | X-H torsion

> <Gold.Protein.ActiveResidues>
 VAL166  LYS551  ARG553  GLY616  TRP617  ASP618  TYR619  PRO620  LYS621  CYS622 
 ASP623  PHE694  ASN695  SER759  ASP760  ASP761  ALA762  ILE779  LEU786  VAL792 
 PHE793  MET794  SER795  GLU796  ALA797  LYS798  CYS799  TRP800  GLU811  SER814 

> <Gold.Protein.RotatedAtoms>
  150.7393  133.9965  159.3623 H   0  0  0  0  0  0  0  0  0  0  0  0  # atno 6907 bound_to 6896
  151.7916  135.0732  160.0397 H   0  0  0  0  0  0  0  0  0  0  0  0  # atno 6908 bound_to 6896
  152.3203  133.5810  159.5776 H   0  0  0  0  0  0  0  0  0  0  0  0  # atno 6909 bound_to 6896
  145.0624  140.8300  143.4144 H   0  0  0  0  0  0  0  0  0  0  0  0  # atno 7974 bound_to 7965
  155.0512  140.3180  155.4691 H   0  0  0  0  0  0  0  0  0  0  0  0  # atno 8008 bound_to 7997
  156.2834  140.2145  156.5581 H   0  0  0  0  0  0  0  0  0  0  0  0  # atno 8009 bound_to 7997
  154.7209  140.0489  157.0626 H   0  0  0  0  0  0  0  0  0  0  0  0  # atno 8010 bound_to 7997
  139.9384  144.6106  150.8275 H   0  0  0  0  0  0  0  0  0  0  0  0  # atno 10167 bound_to 10162
  156.6680  130.9073  151.3039 H   0  0  0  0  0  0  0  0  0  0  0  0  # atno 10718 bound_to 10713
  154.8311  135.3373  154.6740 H   0  0  0  0  0  0  0  0  0  0  0  0  # atno 10763 bound_to 10752
  153.7360  135.6949  153.4982 H   0  0  0  0  0  0  0  0  0  0  0  0  # atno 10764 bound_to 10752
  153.2278  135.4427  155.0513 H   0  0  0  0  0  0  0  0  0  0  0  0  # atno 10765 bound_to 10752
  139.9372  134.7466  156.1196 H   0  0  0  0  0  0  0  0  0  0  0  0  # atno 11005 bound_to 11000
  145.1392  139.2583  143.5499 LP  0  0  0  0  0  0  0  0  0  0  0  0  # atno 17320 bound_to 7965
  146.3525  140.1065  142.8605 LP  0  0  0  0  0  0  0  0  0  0  0  0  # atno 17321 bound_to 7965
  140.7618  143.3182  151.2683 LP  0  0  0  0  0  0  0  0  0  0  0  0  # atno 17342 bound_to 10162
  139.6724  143.9996  152.2761 LP  0  0  0  0  0  0  0  0  0  0  0  0  # atno 17343 bound_to 10162
  157.7087  130.9415  150.1015 LP  0  0  0  0  0  0  0  0  0  0  0  0  # atno 17370 bound_to 10713
  156.1960  130.3657  149.8849 LP  0  0  0  0  0  0  0  0  0  0  0  0  # atno 17371 bound_to 10713
  141.0991  133.6684  156.2713 LP  0  0  0  0  0  0  0  0  0  0  0  0  # atno 17394 bound_to 11000
  140.6044  134.5522  157.5523 LP  0  0  0  0  0  0  0  0  0  0  0  0  # atno 17395 bound_to 11000

$$$$
