AV-unprocessed.smi:3273|AV-procd|sdf|12521|dock3
  -GOLD-   2272018433D 1   1.00000     0.00000
 Structure written by MMmdl.
 41 42  0  0  0  0  0  0  0  0  1 V2000
  148.2737  138.3837  154.4725 C   0  0  0  0  0  0  0  0  0  0  0  0
  149.4847  139.3378  154.4358 C   0  0  0  0  0  0  0  0  0  0  0  0
  150.7683  138.5247  154.6897 C   0  0  0  0  0  0  0  0  0  0  0  0
  149.3150  140.5358  155.4188 C   0  0  1  0  0  0  0  0  0  0  0  0
  150.5747  141.4352  155.5219 C   0  0  0  0  0  0  0  0  0  0  0  0
  150.3935  142.5545  156.4437 N   0  0  0  0  0  0  0  0  0  0  0  0
  150.8497  142.6041  157.7049 C   0  0  0  0  0  0  0  0  0  0  0  0
  151.5398  141.7200  158.2125 O   0  0  0  0  0  0  0  0  0  0  0  0
  150.4509  143.8305  158.5253 C   0  0  0  0  0  0  0  0  0  0  0  0
  151.6593  144.6598  158.9236 C   0  0  0  0  0  0  0  0  0  0  0  0
  152.4476  144.3360  160.1719 C   0  0  0  0  0  0  0  0  0  0  0  0
  151.6138  145.5922  160.1143 C   0  0  0  0  0  0  0  0  0  0  0  0
  148.0859  141.3636  155.1323 C   0  0  0  0  0  0  0  0  0  0  0  0
  147.7086  142.0379  154.0015 C   0  0  0  0  0  0  0  0  0  0  0  0
  146.4849  142.6663  154.3568 C   0  0  0  0  0  0  0  0  0  0  0  0
  146.1286  142.4105  155.6022 N   0  0  0  0  0  0  0  0  0  0  0  0
  147.1107  141.6183  156.0829 N   0  0  0  0  0  0  0  0  0  0  0  0
  147.0290  141.1563  157.4560 C   0  0  0  0  0  0  0  0  0  0  0  0
  148.1274  137.9716  155.4714 H   0  0  0  0  0  0  0  0  0  0  0  0
  148.4130  137.5466  153.7880 H   0  0  0  0  0  0  0  0  0  0  0  0
  147.3474  138.8769  154.1801 H   0  0  0  0  0  0  0  0  0  0  0  0
  149.5526  139.7319  153.4209 H   0  0  0  0  0  0  0  0  0  0  0  0
  150.8180  138.1721  155.7204 H   0  0  0  0  0  0  0  0  0  0  0  0
  151.6663  139.1074  154.4871 H   0  0  0  0  0  0  0  0  0  0  0  0
  150.8138  137.6508  154.0393 H   0  0  0  0  0  0  0  0  0  0  0  0
  149.1851  140.0903  156.4056 H   0  0  0  0  0  0  0  0  0  0  0  0
  151.4367  140.8362  155.8177 H   0  0  0  0  0  0  0  0  0  0  0  0
  150.8431  141.8400  154.5473 H   0  0  0  0  0  0  0  0  0  0  0  0
  149.8401  143.3310  156.1116 H   0  0  0  0  0  0  0  0  0  0  0  0
  149.7703  144.4396  157.9291 H   0  0  0  0  0  0  0  0  0  0  0  0
  149.9085  143.5363  159.4249 H   0  0  0  0  0  0  0  0  0  0  0  0
  152.2404  145.0139  158.0739 H   0  0  0  0  0  0  0  0  0  0  0  0
  152.0897  143.5268  160.8052 H   0  0  0  0  0  0  0  0  0  0  0  0
  153.5288  144.4471  160.1245 H   0  0  0  0  0  0  0  0  0  0  0  0
  152.1360  146.5426  160.0250 H   0  0  0  0  0  0  0  0  0  0  0  0
  150.7018  145.6157  160.7078 H   0  0  0  0  0  0  0  0  0  0  0  0
  148.2358  142.0843  153.0602 H   0  0  0  0  0  0  0  0  0  0  0  0
  145.8526  143.2998  153.7526 H   0  0  0  0  0  0  0  0  0  0  0  0
  147.8797  141.5326  158.0236 H   0  0  0  0  0  0  0  0  0  0  0  0
  147.0351  140.0665  157.4792 H   0  0  0  0  0  0  0  0  0  0  0  0
  146.1111  141.5101  157.9274 H   0  0  0  0  0  0  0  0  0  0  0  0
  1  2  1  0  0  0  0
  1 19  1  0  0  0  0
  1 20  1  0  0  0  0
  1 21  1  0  0  0  0
  2  3  1  0  0  0  0
  2  4  1  0  0  0  0
  2 22  1  0  0  0  0
  3 23  1  0  0  0  0
  3 24  1  0  0  0  0
  3 25  1  0  0  0  0
  4  5  1  0  0  0  0
  4 13  1  0  0  0  0
  4 26  1  0  0  0  0
  5  6  1  0  0  0  0
  5 27  1  0  0  0  0
  5 28  1  0  0  0  0
  6  7  1  0  0  0  0
  6 29  1  0  0  0  0
  7  8  2  0  0  0  0
  7  9  1  0  0  0  0
  9 10  1  0  0  0  0
  9 30  1  0  0  0  0
  9 31  1  0  0  0  0
 10 12  1  0  0  0  0
 10 11  1  0  0  0  0
 10 32  1  0  0  0  0
 11 12  1  0  0  0  0
 11 33  1  0  0  0  0
 11 34  1  0  0  0  0
 12 35  1  0  0  0  0
 12 36  1  0  0  0  0
 13 17  1  0  0  0  0
 13 14  2  0  0  0  0
 14 15  1  0  0  0  0
 14 37  1  0  0  0  0
 15 16  2  0  0  0  0
 15 38  1  0  0  0  0
 16 17  1  0  0  0  0
 17 18  1  0  0  0  0
 18 39  1  0  0  0  0
 18 40  1  0  0  0  0
 18 41  1  0  0  0  0
M  END
> <s_m_source_file>
AV-unprocessed.smi

> <i_m_source_file_index>
3273

> <i_lp_mmshare_version>
43012

> <i_f3d_flags>
0

> <s_epik_input>
W0NIM11uMW5bY0hdW2NIXWMxW0NASF0oW0NIXShbQ0gzXSlbQ0gzXSlbQ0gyXVtOSF1DKD1PKVtDSDJdW0NIXTJbQ0gyXVtDSDJdMg==

> <s_epik_cmdline>
J2VwaWtfcHl0aG9uJywgJy1waCcsICc3LjAnLCAnLXRuJywgJzgnLCAnLW1hJywgJzIwMCcsICctbWV0YWxfYmluZGluZycsICctaW1hZScsICc8aW5maWxlLm1hZT4nLCAnLW9tYWUnLCAnPG91dGZpbGUubWFlPic=

> <r_lp_tautomer_probability>
1

> <r_epik_Ionization_Penalty>
0.00116261

> <r_epik_Ionization_Penalty_Charging>
0

> <r_epik_Ionization_Penalty_Neutral>
0.00116261

> <r_epik_State_Penalty>
-0

> <r_epik_Charging_Adjusted_Penalty>
0

> <i_epik_Tot_Q>
0

> <i_epik_Tot_abs_Q>
0

> <r_epik_Metal_State_Penalty>
-0

> <b_epik_Metal_Only>
0

> <s_lp_Force_Field>
OPLS_2005

> <r_lp_Energy>
15.0656

> <b_lp_Chiralities_Consistent>
1

> <s_lp_Variant>
AV-unprocessed.smi:3273-2

> <Gold.Version>
5.8.1

> <Gold.Id.Protein>
6NUR|6NUR_protein|mol2

> <Gold.PLP.Fitness>
40.4563

> <Gold.PLP.PLP>
-37.8895

> <Gold.PLP.part.hbond>
-1.0000

> <Gold.PLP.part.metal>
0.0000

> <Gold.PLP.part.buried>
-5.8473

> <Gold.PLP.part.nonpolar>
-31.5089

> <Gold.PLP.part.repulsive>
0.2343

> <Gold.PLP.ligand.clash>
0.0000

> <Gold.PLP.ligand.torsion>
0.6090

> <Gold.PLP.Chemscore.Hbond>
1.0000

> <Gold.PLP.Chemscore.CHOScore>
0.0000

> <Gold.PLP.Chemscore.Metal>
0.0000

> <Gold.Chemscore.Hbonds>
donor molecule, donor type, donor heavy atom, donor atom, acceptor molecule, acceptor atom, score
      L1  H     6    29       P1  8028  1.00

> <Gold.PLP.Chemscore.Internal.Correction>
0.7847

> <Gold.Rescore>
     Score         DG    S(hbond)    S(metal)    S(lipo)     H(rot)  DE(clash)    DE(int)     intcor
     14.99     -15.63       1.00        0.00      94.14       1.64       0.02       0.62       ----

> <Gold.Chemscore.Fitness>
14.9885

> <Gold.Chemscore.DG>
-15.6281

> <Gold.Chemscore.ZeroCoef>
-5.4800

> <Gold.Chemscore.Hbond>
0.9999

> <Gold.Chemscore.Metal>
0.0000

> <Gold.Chemscore.Lipo>
94.1407

> <Gold.Chemscore.Internal_Hbond>
0.0000

> <Gold.Chemscore.DEClash>
0.0212

> <Gold.Chemscore.DEInternal>
0.6183

> <Gold.Chemscore.Rot>
1.6430

> <Gold.Chemscore.Internal.Correction>
   9.000000E+99

> <Gold.Chemscore.Hbonds>
donor molecule, donor type, donor heavy atom, donor atom, acceptor molecule, acceptor atom, score
      L1  H     6    29       P1  8028  1.00

> <Gold.Chemscore.Hbond.Weighted>
-3.3398

> <Gold.Chemscore.Metal.Weighted>
-0.0000

> <Gold.Chemscore.Lipo.Weighted>
-11.0145

> <Gold.Chemscore.Internal_Hbond.Weighted>
0.0000

> <Gold.Chemscore.DEClash.Weighted>
0.0212

> <Gold.Chemscore.DEInternal.Weighted>
0.6183

> <Gold.Chemscore.Rot.Weighted>
4.2062

> <Gold.Chemscore.Internal.Correction.Weighted>
   9.000000E+99

> <Gold.Protein.RotatedTorsions>
[ 6907 6896 6895 6894 ] final  -86.66 input  -60.11 | X-H torsion
[ 7974 7965 7964 7962 ] final  -86.16 input  175.53 | X-H torsion
[ 8008 7997 7996 7995 ] final  -80.24 input   59.86 | X-H torsion
[ 10167 10162 10161 10158 ] final   98.28 input  -65.29 | X-H torsion
[ 10718 10713 10712 10709 ] final  105.81 input   66.30 | X-H torsion
[ 10763 10752 10751 10750 ] final -115.14 input  -60.55 | X-H torsion
[ 11005 11000 10999 10996 ] final  130.45 input  -57.11 | X-H torsion

> <Gold.Protein.ActiveResidues>
 VAL166  LYS551  ARG553  GLY616  TRP617  ASP618  TYR619  PRO620  LYS621  CYS622 
 ASP623  PHE694  ASN695  SER759  ASP760  ASP761  ALA762  ILE779  LEU786  VAL792 
 PHE793  MET794  SER795  GLU796  ALA797  LYS798  CYS799  TRP800  GLU811  SER814 

> <Gold.Protein.RotatedAtoms>
  150.6866  134.3016  159.4708 H   0  0  0  0  0  0  0  0  0  0  0  0  # atno 6907 bound_to 6896
  152.0911  134.9404  160.0581 H   0  0  0  0  0  0  0  0  0  0  0  0  # atno 6908 bound_to 6896
  152.0719  133.4076  159.4500 H   0  0  0  0  0  0  0  0  0  0  0  0  # atno 6909 bound_to 6896
  145.4836  140.9556  143.1851 H   0  0  0  0  0  0  0  0  0  0  0  0  # atno 7974 bound_to 7965
  154.5864  140.0666  156.9177 H   0  0  0  0  0  0  0  0  0  0  0  0  # atno 8008 bound_to 7997
  155.2372  140.3342  155.4278 H   0  0  0  0  0  0  0  0  0  0  0  0  # atno 8009 bound_to 7997
  156.2225  140.1805  156.7427 H   0  0  0  0  0  0  0  0  0  0  0  0  # atno 8010 bound_to 7997
  139.7723  144.6918  151.0139 H   0  0  0  0  0  0  0  0  0  0  0  0  # atno 10167 bound_to 10162
  157.6692  131.0836  150.5912 H   0  0  0  0  0  0  0  0  0  0  0  0  # atno 10718 bound_to 10713
  154.8469  135.4392  154.1616 H   0  0  0  0  0  0  0  0  0  0  0  0  # atno 10763 bound_to 10752
  153.2752  135.6948  153.7447 H   0  0  0  0  0  0  0  0  0  0  0  0  # atno 10764 bound_to 10752
  153.6672  135.3425  155.3118 H   0  0  0  0  0  0  0  0  0  0  0  0  # atno 10765 bound_to 10752
  139.9673  134.9587  156.9295 H   0  0  0  0  0  0  0  0  0  0  0  0  # atno 11005 bound_to 11000
  144.7874  139.6398  143.7128 LP  0  0  0  0  0  0  0  0  0  0  0  0  # atno 17320 bound_to 7965
  146.2326  139.5843  142.9545 LP  0  0  0  0  0  0  0  0  0  0  0  0  # atno 17321 bound_to 7965
  140.7814  143.4575  151.0325 LP  0  0  0  0  0  0  0  0  0  0  0  0  # atno 17342 bound_to 10162
  139.8258  143.7758  152.3178 LP  0  0  0  0  0  0  0  0  0  0  0  0  # atno 17343 bound_to 10162
  156.6213  130.4406  149.5821 LP  0  0  0  0  0  0  0  0  0  0  0  0  # atno 17370 bound_to 10713
  156.2353  130.6819  151.1504 LP  0  0  0  0  0  0  0  0  0  0  0  0  # atno 17371 bound_to 10713
  140.5369  134.0758  155.7331 LP  0  0  0  0  0  0  0  0  0  0  0  0  # atno 17394 bound_to 11000
  141.1352  133.9233  157.2448 LP  0  0  0  0  0  0  0  0  0  0  0  0  # atno 17395 bound_to 11000

$$$$
