AV-unprocessed.smi:509|AV-procd|sdf|2760|dock5
  -GOLD-   2262023223D 1   1.00000     0.00000
 Structure written by MMmdl.
 46 48  0  0  0  0  0  0  0  0  2 V2000
  156.3619  135.9563  156.8768 C   0  0  0  0  0  0  0  0  0  0  0  0
  154.9829  136.2506  156.7446 O   0  0  0  0  0  0  0  0  0  0  0  0
  154.6370  137.5024  157.3145 C   0  0  0  0  0  0  0  0  0  0  0  0
  153.1104  137.6588  157.3189 C   0  0  0  0  0  0  0  0  0  0  0  0
  152.7017  139.0094  157.7031 N   0  0  0  0  0  0  0  0  0  0  0  0
  151.9725  139.9205  156.9996 C   0  0  0  0  0  0  0  0  0  0  0  0
  151.4511  139.6569  155.7311 N   0  0  0  0  0  0  0  0  0  0  0  0
  150.2818  140.2884  155.1204 C   0  0  0  0  0  0  0  0  0  0  0  0
  149.3308  139.2431  154.5088 C   0  0  0  0  0  0  0  0  0  0  0  0
  150.0487  138.4101  153.5219 N   0  3  0  0  0  0  0  0  0  0  0  0
  151.2864  137.8184  154.0706 C   0  0  0  0  0  0  0  0  0  0  0  0
  152.1740  138.9035  154.7080 C   0  0  0  0  0  0  0  0  0  0  0  0
  151.8417  141.1057  157.6006 N   0  0  0  0  0  0  0  0  0  0  0  0
  152.5204  140.9312  158.7960 C   0  0  0  0  0  0  0  0  0  0  0  0
  153.0504  139.6888  158.8746 C   0  0  0  0  0  0  0  0  0  0  0  0
  153.8632  139.2474  160.0157 C   0  0  0  0  0  0  0  0  0  0  0  0
  154.3668  138.1238  160.0521 O   0  0  0  0  0  0  0  0  0  0  0  0
  154.0086  140.1900  160.9986 N   0  0  0  0  0  0  0  0  0  0  0  0
  154.8121  139.7907  162.1698 C   0  0  0  0  0  0  0  0  0  0  0  0
  153.4943  141.4747  160.9531 C   0  0  0  0  0  0  0  0  0  0  0  0
  153.7031  142.2858  161.8592 O   0  0  0  0  0  0  0  0  0  0  0  0
  152.7438  141.8384  159.8635 N   0  0  0  0  0  0  0  0  0  0  0  0
  152.1759  143.1872  159.7822 C   0  0  0  0  0  0  0  0  0  0  0  0
  156.5731  134.9845  156.4307 H   0  0  0  0  0  0  0  0  0  0  0  0
  156.6584  135.9174  157.9256 H   0  0  0  0  0  0  0  0  0  0  0  0
  156.9740  136.7011  156.3664 H   0  0  0  0  0  0  0  0  0  0  0  0
  155.0169  137.5638  158.3351 H   0  0  0  0  0  0  0  0  0  0  0  0
  155.0962  138.3129  156.7463 H   0  0  0  0  0  0  0  0  0  0  0  0
  152.7198  137.4033  156.3402 H   0  0  0  0  0  0  0  0  0  0  0  0
  152.6534  136.9392  157.9965 H   0  0  0  0  0  0  0  0  0  0  0  0
  149.7607  140.9160  155.8423 H   0  0  0  0  0  0  0  0  0  0  0  0
  150.6253  140.9699  154.3409 H   0  0  0  0  0  0  0  0  0  0  0  0
  148.9208  138.5978  155.2867 H   0  0  0  0  0  0  0  0  0  0  0  0
  148.4876  139.7320  154.0207 H   0  0  0  0  0  0  0  0  0  0  0  0
  149.4394  137.6739  153.1954 H   0  0  0  0  0  0  0  0  0  0  0  0
  151.0208  137.0658  154.8136 H   0  0  0  0  0  0  0  0  0  0  0  0
  151.8241  137.3039  153.2741 H   0  0  0  0  0  0  0  0  0  0  0  0
  152.5384  139.5927  153.9449 H   0  0  0  0  0  0  0  0  0  0  0  0
  153.0551  138.4364  155.1500 H   0  0  0  0  0  0  0  0  0  0  0  0
  154.6732  140.4234  163.0472 H   0  0  0  0  0  0  0  0  0  0  0  0
  155.8731  139.8108  161.9175 H   0  0  0  0  0  0  0  0  0  0  0  0
  154.5661  138.7803  162.5014 H   0  0  0  0  0  0  0  0  0  0  0  0
  151.5820  143.4119  160.6694 H   0  0  0  0  0  0  0  0  0  0  0  0
  151.5223  143.3187  158.9199 H   0  0  0  0  0  0  0  0  0  0  0  0
  152.9711  143.9299  159.7072 H   0  0  0  0  0  0  0  0  0  0  0  0
  150.3022  138.9970  152.7400 H   0  0  0  0  0  0  0  0  0  0  0  0
  1  2  1  0  0  0  0
  1 24  1  0  0  0  0
  1 25  1  0  0  0  0
  1 26  1  0  0  0  0
  2  3  1  0  0  0  0
  3  4  1  0  0  0  0
  3 27  1  0  0  0  0
  3 28  1  0  0  0  0
  4  5  1  0  0  0  0
  4 29  1  0  0  0  0
  4 30  1  0  0  0  0
  5 15  1  0  0  0  0
  5  6  1  0  0  0  0
  6  7  1  0  0  0  0
  6 13  2  0  0  0  0
  7 12  1  0  0  0  0
  7  8  1  0  0  0  0
  8  9  1  0  0  0  0
  8 31  1  0  0  0  0
  8 32  1  0  0  0  0
  9 10  1  0  0  0  0
  9 33  1  0  0  0  0
  9 34  1  0  0  0  0
 10 11  1  0  0  0  0
 10 35  1  0  0  0  0
 10 46  1  0  0  0  0
 11 12  1  0  0  0  0
 11 36  1  0  0  0  0
 11 37  1  0  0  0  0
 12 38  1  0  0  0  0
 12 39  1  0  0  0  0
 13 14  1  0  0  0  0
 14 22  1  0  0  0  0
 14 15  2  0  0  0  0
 15 16  1  0  0  0  0
 16 17  2  0  0  0  0
 16 18  1  0  0  0  0
 18 19  1  0  0  0  0
 18 20  1  0  0  0  0
 19 40  1  0  0  0  0
 19 41  1  0  0  0  0
 19 42  1  0  0  0  0
 20 21  2  0  0  0  0
 20 22  1  0  0  0  0
 22 23  1  0  0  0  0
 23 43  1  0  0  0  0
 23 44  1  0  0  0  0
 23 45  1  0  0  0  0
M  CHG  1  10   1
M  END
> <s_m_source_file>
AV-unprocessed.smi

> <i_m_source_file_index>
509

> <i_lp_mmshare_version>
43012

> <i_f3d_flags>
0

> <s_epik_input>
W0NIM11uMWMoPU8pbihbQ0gzXSljKD1PKWMoYzEyKW4oW0NIMl1bQ0gyXU9bQ0gzXSljKG4yKU4zW0NIMl1bQ0gyXVtOSF1bQ0gyXVtDSDJdMw==

> <s_epik_cmdline>
J2VwaWtfcHl0aG9uJywgJy1waCcsICc3LjAnLCAnLXRuJywgJzgnLCAnLW1hJywgJzIwMCcsICctbWV0YWxfYmluZGluZycsICctaW1hZScsICc8aW5maWxlLm1hZT4nLCAnLW9tYWUnLCAnPG91dGZpbGUubWFlPic=

> <r_epik_Ionization_Penalty>
0.00857468

> <r_epik_Ionization_Penalty_Charging>
0.00857162

> <r_epik_Ionization_Penalty_Neutral>
3.06002e-06

> <r_epik_State_Penalty>
0.00646614

> <r_epik_Charging_Adjusted_Penalty>
0.0150378

> <i_epik_Tot_Q>
1

> <i_epik_Tot_abs_Q>
1

> <r_epik_Metal_State_Penalty>
0.00646904

> <b_epik_Metal_Only>
0

> <s_lp_Force_Field>
OPLS_2005

> <r_lp_Energy>
52.9694

> <b_lp_Chiralities_Consistent>
1

> <s_lp_Variant>
AV-unprocessed.smi:509-1

> <Gold.Version>
5.8.1

> <Gold.Id.Protein>
6NUR|6NUR_protein|mol2

> <Gold.PLP.Fitness>
53.0517

> <Gold.PLP.PLP>
-42.0439

> <Gold.PLP.part.hbond>
-3.4675

> <Gold.PLP.part.metal>
0.0000

> <Gold.PLP.part.buried>
-0.6693

> <Gold.PLP.part.nonpolar>
-36.3290

> <Gold.PLP.part.repulsive>
0.1044

> <Gold.PLP.ligand.clash>
0.0000

> <Gold.PLP.ligand.torsion>
0.5169

> <Gold.PLP.Chemscore.Hbond>
3.8960

> <Gold.PLP.Chemscore.CHOScore>
0.0000

> <Gold.PLP.Chemscore.Metal>
0.0000

> <Gold.Chemscore.Hbonds>
donor molecule, donor type, donor heavy atom, donor atom, acceptor molecule, acceptor atom, score
      L1  H    10    35       P1  7948  1.98
      L1  H    10    46       P1  7957  0.91
      P1  H 10752 10763       L1     2  1.00

> <Gold.PLP.Chemscore.Internal.Correction>
0.3535

> <Gold.Rescore>
     Score         DG    S(hbond)    S(metal)    S(lipo)     H(rot)  DE(clash)    DE(int)     intcor
     15.27     -17.58       2.52        0.00      64.54       1.51       0.34       1.97       ----

> <Gold.Chemscore.Fitness>
15.2674

> <Gold.Chemscore.DG>
-17.5827

> <Gold.Chemscore.ZeroCoef>
-5.4800

> <Gold.Chemscore.Hbond>
2.5190

> <Gold.Chemscore.Metal>
0.0000

> <Gold.Chemscore.Lipo>
64.5407

> <Gold.Chemscore.Internal_Hbond>
0.0000

> <Gold.Chemscore.DEClash>
0.3447

> <Gold.Chemscore.DEInternal>
1.9706

> <Gold.Chemscore.Rot>
1.5086

> <Gold.Chemscore.Internal.Correction>
   9.000000E+99

> <Gold.Chemscore.Hbonds>
donor molecule, donor type, donor heavy atom, donor atom, acceptor molecule, acceptor atom, score
      L1  H    10    35       P1  7948  0.85
      L1  H    10    46       P1  7957  0.43
      P1  H 10752 10763       L1     2  0.69

> <Gold.Chemscore.Hbond.Weighted>
-8.4135

> <Gold.Chemscore.Metal.Weighted>
-0.0000

> <Gold.Chemscore.Lipo.Weighted>
-7.5513

> <Gold.Chemscore.Internal_Hbond.Weighted>
0.0000

> <Gold.Chemscore.DEClash.Weighted>
0.3447

> <Gold.Chemscore.DEInternal.Weighted>
1.9706

> <Gold.Chemscore.Rot.Weighted>
3.8620

> <Gold.Chemscore.Internal.Correction.Weighted>
   9.000000E+99

> <Gold.Protein.RotatedTorsions>
[ 6907 6896 6895 6894 ] final  107.07 input  -60.11 | X-H torsion
[ 7974 7965 7964 7962 ] final  161.09 input  175.53 | X-H torsion
[ 8008 7997 7996 7995 ] final  -35.03 input   59.86 | X-H torsion
[ 10167 10162 10161 10158 ] final  107.80 input  -65.29 | X-H torsion
[ 10718 10713 10712 10709 ] final -125.96 input   66.30 | X-H torsion
[ 10763 10752 10751 10750 ] final  163.55 input  -60.55 | X-H torsion
[ 11005 11000 10999 10996 ] final   -5.85 input  -57.11 | X-H torsion

> <Gold.Protein.ActiveResidues>
 VAL166  LYS551  ARG553  GLY616  TRP617  ASP618  TYR619  PRO620  LYS621  CYS622 
 ASP623  PHE694  ASN695  SER759  ASP760  ASP761  ALA762  ILE779  LEU786  VAL792 
 PHE793  MET794  SER795  GLU796  ALA797  LYS798  CYS799  TRP800  GLU811  SER814 

> <Gold.Protein.RotatedAtoms>
  152.5169  133.9289  159.7570 H   0  0  0  0  0  0  0  0  0  0  0  0  # atno 6907 bound_to 6896
  150.9644  133.6402  159.2755 H   0  0  0  0  0  0  0  0  0  0  0  0  # atno 6908 bound_to 6896
  151.3636  135.0914  159.9495 H   0  0  0  0  0  0  0  0  0  0  0  0  # atno 6909 bound_to 6896
  144.7703  139.7849  143.6299 H   0  0  0  0  0  0  0  0  0  0  0  0  # atno 7974 bound_to 7965
  154.4105  140.1668  156.2146 H   0  0  0  0  0  0  0  0  0  0  0  0  # atno 8008 bound_to 7997
  155.9415  140.3407  155.6308 H   0  0  0  0  0  0  0  0  0  0  0  0  # atno 8009 bound_to 7997
  155.6983  140.0742  157.2411 H   0  0  0  0  0  0  0  0  0  0  0  0  # atno 8010 bound_to 7997
  139.6898  144.7109  151.1369 H   0  0  0  0  0  0  0  0  0  0  0  0  # atno 10167 bound_to 10162
  156.1722  130.6675  151.0195 H   0  0  0  0  0  0  0  0  0  0  0  0  # atno 10718 bound_to 10713
  154.2955  135.2760  155.2635 H   0  0  0  0  0  0  0  0  0  0  0  0  # atno 10763 bound_to 10752
  154.5095  135.5786  153.6597 H   0  0  0  0  0  0  0  0  0  0  0  0  # atno 10764 bound_to 10752
  152.9908  135.6178  154.3122 H   0  0  0  0  0  0  0  0  0  0  0  0  # atno 10765 bound_to 10752
  140.6956  133.9034  155.8648 H   0  0  0  0  0  0  0  0  0  0  0  0  # atno 11005 bound_to 11000
  146.1844  139.5052  142.9845 LP  0  0  0  0  0  0  0  0  0  0  0  0  # atno 17320 bound_to 7965
  145.6344  141.0297  143.1846 LP  0  0  0  0  0  0  0  0  0  0  0  0  # atno 17321 bound_to 7965
  140.7679  143.5576  150.9134 LP  0  0  0  0  0  0  0  0  0  0  0  0  # atno 17342 bound_to 10162
  139.9253  143.6557  152.3088 LP  0  0  0  0  0  0  0  0  0  0  0  0  # atno 17343 bound_to 10162
  157.6811  131.0838  150.7368 LP  0  0  0  0  0  0  0  0  0  0  0  0  # atno 17370 bound_to 10713
  156.7426  130.4744  149.5474 LP  0  0  0  0  0  0  0  0  0  0  0  0  # atno 17371 bound_to 10713
  141.0206  134.0895  157.4125 LP  0  0  0  0  0  0  0  0  0  0  0  0  # atno 17394 bound_to 11000
  139.8911  135.0116  156.6773 LP  0  0  0  0  0  0  0  0  0  0  0  0  # atno 17395 bound_to 11000

$$$$
