AV-unprocessed.smi:244|AV-procd|sdf|1871|dock1
  -GOLD-   2262020513D 1   1.00000     0.00000
 Structure written by MMmdl.
 57 61  0  0  0  0  0  0  0  0  2 V2000
  145.9675  137.5918  152.7421 C   0  0  0  0  0  0  0  0  0  0  0  0
  146.2944  136.2014  152.3591 N   0  3  2  0  0  0  0  0  0  0  0  0
  145.4830  135.7279  151.2097 C   0  0  0  0  0  0  0  0  0  0  0  0
  145.9210  134.3232  150.7640 C   0  0  0  0  0  0  0  0  0  0  0  0
  145.8436  133.3408  151.9388 C   0  0  1  0  0  0  0  0  0  0  0  0
  146.3081  132.0607  151.5254 O   0  0  0  0  0  0  0  0  0  0  0  0
  146.1941  131.0976  152.5680 C   0  0  0  0  0  0  0  0  0  0  0  0
  147.0484  131.5378  153.7680 C   0  0  0  0  0  0  0  0  0  0  0  0
  146.6689  132.8801  154.2007 N   0  0  0  0  0  0  0  0  0  0  0  0
  147.3175  133.2597  155.3244 C   0  0  0  0  0  0  0  0  0  0  0  0
  148.2846  134.2127  155.2659 N   0  0  0  0  0  0  0  0  0  0  0  0
  148.9061  134.5992  156.3844 C   0  0  0  0  0  0  0  0  0  0  0  0
  148.7090  134.1801  157.6366 N   0  0  0  0  0  0  0  0  0  0  0  0
  147.7311  133.2305  157.6950 C   0  0  0  0  0  0  0  0  0  0  0  0
  146.9941  132.7149  156.5934 C   0  0  0  0  0  0  0  0  0  0  0  0
  146.0815  131.7639  157.0292 N   0  0  0  0  0  0  0  0  0  0  0  0
  146.2727  131.7144  158.3198 C   0  0  0  0  0  0  0  0  0  0  0  0
  147.2314  132.5755  158.8069 N   0  0  0  0  0  0  0  0  0  0  0  0
  147.6367  132.7332  160.1951 C   0  0  0  0  0  0  0  0  0  0  0  0
  147.2769  134.1067  160.8174 C   0  0  0  0  0  0  0  0  0  0  0  0
  145.8616  134.1602  160.8098 O   0  0  0  0  0  0  0  0  0  0  0  0
  147.7624  134.2548  162.2757 C   0  0  0  0  0  0  0  0  0  0  0  0
  147.4731  135.6588  162.8369 C   0  0  0  0  0  0  0  0  0  0  0  0
  148.0587  136.6480  161.9982 O   0  0  0  0  0  0  0  0  0  0  0  0
  147.5207  136.6462  160.6809 C   0  0  0  0  0  0  0  0  0  0  0  0
  147.8123  135.2992  159.9951 C   0  0  0  0  0  0  0  0  0  0  0  0
  146.7132  133.8533  153.1066 C   0  0  2  0  0  0  0  0  0  0  0  0
  146.2374  135.2690  153.5136 C   0  0  0  0  0  0  0  0  0  0  0  0
  144.9389  137.6691  153.0968 H   0  0  0  0  0  0  0  0  0  0  0  0
  146.0877  138.2635  151.8915 H   0  0  0  0  0  0  0  0  0  0  0  0
  146.6301  137.9398  153.5351 H   0  0  0  0  0  0  0  0  0  0  0  0
  144.4273  135.7217  151.4860 H   0  0  0  0  0  0  0  0  0  0  0  0
  145.5888  136.4235  150.3762 H   0  0  0  0  0  0  0  0  0  0  0  0
  145.2894  133.9777  149.9451 H   0  0  0  0  0  0  0  0  0  0  0  0
  146.9404  134.3596  150.3774 H   0  0  0  0  0  0  0  0  0  0  0  0
  144.8021  133.2556  152.2565 H   0  0  0  0  0  0  0  0  0  0  0  0
  145.1489  130.9770  152.8571 H   0  0  0  0  0  0  0  0  0  0  0  0
  146.5355  130.1308  152.1979 H   0  0  0  0  0  0  0  0  0  0  0  0
  146.9231  130.8334  154.5915 H   0  0  0  0  0  0  0  0  0  0  0  0
  148.1028  131.5220  153.4879 H   0  0  0  0  0  0  0  0  0  0  0  0
  149.6680  135.3545  156.2588 H   0  0  0  0  0  0  0  0  0  0  0  0
  145.7073  131.0518  158.9591 H   0  0  0  0  0  0  0  0  0  0  0  0
  147.1750  131.9296  160.7711 H   0  0  0  0  0  0  0  0  0  0  0  0
  148.7134  132.5651  160.2537 H   0  0  0  0  0  0  0  0  0  0  0  0
  145.5931  135.0523  160.9688 H   0  0  0  0  0  0  0  0  0  0  0  0
  147.3077  133.4940  162.9114 H   0  0  0  0  0  0  0  0  0  0  0  0
  148.8391  134.0937  162.3254 H   0  0  0  0  0  0  0  0  0  0  0  0
  146.4002  135.8335  162.9314 H   0  0  0  0  0  0  0  0  0  0  0  0
  147.8962  135.7543  163.8369 H   0  0  0  0  0  0  0  0  0  0  0  0
  146.4494  136.8510  160.7118 H   0  0  0  0  0  0  0  0  0  0  0  0
  147.9794  137.4577  160.1158 H   0  0  0  0  0  0  0  0  0  0  0  0
  148.8925  135.2146  159.8795 H   0  0  0  0  0  0  0  0  0  0  0  0
  147.3932  135.2908  158.9881 H   0  0  0  0  0  0  0  0  0  0  0  0
  147.7472  133.9225  152.7634 H   0  0  0  0  0  0  0  0  0  0  0  0
  146.8699  135.6703  154.3064 H   0  0  0  0  0  0  0  0  0  0  0  0
  145.2201  135.2309  153.9069 H   0  0  0  0  0  0  0  0  0  0  0  0
  147.2551  136.2101  152.0469 H   0  0  0  0  0  0  0  0  0  0  0  0
  1  2  1  0  0  0  0
  1 29  1  0  0  0  0
  1 30  1  0  0  0  0
  1 31  1  0  0  0  0
  2 28  1  0  0  0  0
  2  3  1  0  0  0  0
  2 57  1  0  0  0  0
  3  4  1  0  0  0  0
  3 32  1  0  0  0  0
  3 33  1  0  0  0  0
  4  5  1  0  0  0  0
  4 34  1  0  0  0  0
  4 35  1  0  0  0  0
  5 27  1  0  0  0  0
  5  6  1  0  0  0  0
  5 36  1  0  0  0  0
  6  7  1  0  0  0  0
  7  8  1  0  0  0  0
  7 37  1  0  0  0  0
  7 38  1  0  0  0  0
  8  9  1  0  0  0  0
  8 39  1  0  0  0  0
  8 40  1  0  0  0  0
  9 10  1  0  0  0  0
  9 27  1  0  0  0  0
 10 15  1  0  0  0  0
 10 11  2  0  0  0  0
 11 12  1  0  0  0  0
 12 13  2  0  0  0  0
 12 41  1  0  0  0  0
 13 14  1  0  0  0  0
 14 18  1  0  0  0  0
 14 15  2  0  0  0  0
 15 16  1  0  0  0  0
 16 17  2  0  0  0  0
 17 18  1  0  0  0  0
 17 42  1  0  0  0  0
 18 19  1  0  0  0  0
 19 20  1  0  0  0  0
 19 43  1  0  0  0  0
 19 44  1  0  0  0  0
 20 26  1  0  0  0  0
 20 21  1  0  0  0  0
 20 22  1  0  0  0  0
 21 45  1  0  0  0  0
 22 23  1  0  0  0  0
 22 46  1  0  0  0  0
 22 47  1  0  0  0  0
 23 24  1  0  0  0  0
 23 48  1  0  0  0  0
 23 49  1  0  0  0  0
 24 25  1  0  0  0  0
 25 26  1  0  0  0  0
 25 50  1  0  0  0  0
 25 51  1  0  0  0  0
 26 52  1  0  0  0  0
 26 53  1  0  0  0  0
 27 28  1  0  0  0  0
 27 54  1  0  0  0  0
 28 55  1  0  0  0  0
 28 56  1  0  0  0  0
M  CHG  1   2   1
M  END
> <s_m_source_file>
AV-unprocessed.smi

> <i_m_source_file_index>
244

> <i_lp_mmshare_version>
43012

> <i_f3d_flags>
0

> <s_epik_input>
W0NIMl0xW0NIMl1OKFtDSDNdKVtDSDJdW0NAQEhdKFtDQEhdMTIpTihbQ0gyXVtDSDJdTzIpYyhuW2NIXW4zKWMoYzM0KW5bY0hdbjRbQ0gyXUM1KFtPSF0pW0NIMl1bQ0gyXU9bQ0gyXVtDSDJdNQ==

> <s_epik_cmdline>
J2VwaWtfcHl0aG9uJywgJy1waCcsICc3LjAnLCAnLXRuJywgJzgnLCAnLW1hJywgJzIwMCcsICctbWV0YWxfYmluZGluZycsICctaW1hZScsICc8aW5maWxlLm1hZT4nLCAnLW9tYWUnLCAnPG91dGZpbGUubWFlPic=

> <r_lp_tautomer_probability>
1

> <r_epik_Ionization_Penalty>
0.0136215

> <r_epik_Ionization_Penalty_Charging>
0.0131385

> <r_epik_Ionization_Penalty_Neutral>
0.000483022

> <r_epik_State_Penalty>
0.0104001

> <r_epik_Charging_Adjusted_Penalty>
0.0235387

> <i_epik_Tot_Q>
1

> <i_epik_Tot_abs_Q>
1

> <r_epik_Metal_State_Penalty>
0.0104469

> <b_epik_Metal_Only>
0

> <s_lp_Force_Field>
OPLS_2005

> <r_lp_Energy>
42.2984

> <b_lp_Chiralities_Consistent>
1

> <s_lp_Variant>
AV-unprocessed.smi:244-8

> <Gold.Version>
5.8.1

> <Gold.Id.Protein>
6NUR|6NUR_protein|mol2

> <Gold.PLP.Fitness>
40.4500

> <Gold.PLP.PLP>
-32.3368

> <Gold.PLP.part.hbond>
-2.0000

> <Gold.PLP.part.metal>
0.0000

> <Gold.PLP.part.buried>
-6.1954

> <Gold.PLP.part.nonpolar>
-24.2263

> <Gold.PLP.part.repulsive>
0.3492

> <Gold.PLP.ligand.clash>
0.0000

> <Gold.PLP.ligand.torsion>
0.5179

> <Gold.PLP.Chemscore.Hbond>
3.0000

> <Gold.PLP.Chemscore.CHOScore>
0.0000

> <Gold.PLP.Chemscore.Metal>
0.0000

> <Gold.Chemscore.Hbonds>
donor molecule, donor type, donor heavy atom, donor atom, acceptor molecule, acceptor atom, score
      L1  H     2    57       P1  7948  2.00
      P1  H  6931  6943       L1    24  1.00

> <Gold.PLP.Chemscore.Internal.Correction>
0.1489

> <Gold.Rescore>
     Score         DG    S(hbond)    S(metal)    S(lipo)     H(rot)  DE(clash)    DE(int)     intcor
     12.60     -15.70       1.95        0.00      77.42       2.09       0.02       3.08       ----

> <Gold.Chemscore.Fitness>
12.5993

> <Gold.Chemscore.DG>
-15.7002

> <Gold.Chemscore.ZeroCoef>
-5.4800

> <Gold.Chemscore.Hbond>
1.9507

> <Gold.Chemscore.Metal>
0.0000

> <Gold.Chemscore.Lipo>
77.4199

> <Gold.Chemscore.Internal_Hbond>
0.0000

> <Gold.Chemscore.DEClash>
0.0240

> <Gold.Chemscore.DEInternal>
3.0769

> <Gold.Chemscore.Rot>
2.0911

> <Gold.Chemscore.Internal.Correction>
   9.000000E+99

> <Gold.Chemscore.Hbonds>
donor molecule, donor type, donor heavy atom, donor atom, acceptor molecule, acceptor atom, score
      L1  H     2    57       P1  7948  1.00
      P1  H  6931  6943       L1    24  0.26

> <Gold.Chemscore.Hbond.Weighted>
-6.5152

> <Gold.Chemscore.Metal.Weighted>
-0.0000

> <Gold.Chemscore.Lipo.Weighted>
-9.0581

> <Gold.Chemscore.Internal_Hbond.Weighted>
0.0000

> <Gold.Chemscore.DEClash.Weighted>
0.0240

> <Gold.Chemscore.DEInternal.Weighted>
3.0769

> <Gold.Chemscore.Rot.Weighted>
5.3531

> <Gold.Chemscore.Internal.Correction.Weighted>
   9.000000E+99

> <Gold.Protein.RotatedTorsions>
[ 6907 6896 6895 6894 ] final    0.12 input  -60.11 | X-H torsion
[ 7974 7965 7964 7962 ] final  -36.33 input  175.53 | X-H torsion
[ 8008 7997 7996 7995 ] final  -71.67 input   59.86 | X-H torsion
[ 10167 10162 10161 10158 ] final  166.24 input  -65.29 | X-H torsion
[ 10718 10713 10712 10709 ] final  -22.75 input   66.30 | X-H torsion
[ 10763 10752 10751 10750 ] final   56.18 input  -60.55 | X-H torsion
[ 11005 11000 10999 10996 ] final  -15.29 input  -57.11 | X-H torsion

> <Gold.Protein.ActiveResidues>
 VAL166  LYS551  ARG553  GLY616  TRP617  ASP618  TYR619  PRO620  LYS621  CYS622 
 ASP623  PHE694  ASN695  SER759  ASP760  ASP761  ALA762  ILE779  LEU786  VAL792 
 PHE793  MET794  SER795  GLU796  ALA797  LYS798  CYS799  TRP800  GLU811  SER814 

> <Gold.Protein.RotatedAtoms>
  151.5712  135.1062  159.9995 H   0  0  0  0  0  0  0  0  0  0  0  0  # atno 6907 bound_to 6896
  152.4400  133.7426  159.6660 H   0  0  0  0  0  0  0  0  0  0  0  0  # atno 6908 bound_to 6896
  150.8303  133.8033  159.3124 H   0  0  0  0  0  0  0  0  0  0  0  0  # atno 6909 bound_to 6896
  146.0671  140.6265  142.8970 H   0  0  0  0  0  0  0  0  0  0  0  0  # atno 7974 bound_to 7965
  154.5105  140.0811  156.7981 H   0  0  0  0  0  0  0  0  0  0  0  0  # atno 8008 bound_to 7997
  155.3795  140.3427  155.4228 H   0  0  0  0  0  0  0  0  0  0  0  0  # atno 8009 bound_to 7997
  156.1568  140.1575  156.8667 H   0  0  0  0  0  0  0  0  0  0  0  0  # atno 8010 bound_to 7997
  139.4921  144.4048  151.9368 H   0  0  0  0  0  0  0  0  0  0  0  0  # atno 10167 bound_to 10162
  156.5004  130.4586  149.6704 H   0  0  0  0  0  0  0  0  0  0  0  0  # atno 10718 bound_to 10713
  152.9828  135.5685  154.5186 H   0  0  0  0  0  0  0  0  0  0  0  0  # atno 10763 bound_to 10752
  154.4678  135.2784  155.1667 H   0  0  0  0  0  0  0  0  0  0  0  0  # atno 10764 bound_to 10752
  154.3228  135.6265  153.5569 H   0  0  0  0  0  0  0  0  0  0  0  0  # atno 10765 bound_to 10752
  140.7951  133.8258  155.9416 H   0  0  0  0  0  0  0  0  0  0  0  0  # atno 11005 bound_to 11000
  144.7209  140.4369  143.7009 LP  0  0  0  0  0  0  0  0  0  0  0  0  # atno 17320 bound_to 7965
  145.6458  139.1557  143.2890 LP  0  0  0  0  0  0  0  0  0  0  0  0  # atno 17321 bound_to 7965
  140.3488  144.3114  150.5953 LP  0  0  0  0  0  0  0  0  0  0  0  0  # atno 17342 bound_to 10162
  140.5503  143.2207  151.7938 LP  0  0  0  0  0  0  0  0  0  0  0  0  # atno 17343 bound_to 10162
  156.3339  130.7346  151.2280 LP  0  0  0  0  0  0  0  0  0  0  0  0  # atno 17370 bound_to 10713
  157.7463  131.0422  150.4685 LP  0  0  0  0  0  0  0  0  0  0  0  0  # atno 17371 bound_to 10713
  140.9351  134.1972  157.4837 LP  0  0  0  0  0  0  0  0  0  0  0  0  # atno 17394 bound_to 11000
  139.8727  134.9849  156.5258 LP  0  0  0  0  0  0  0  0  0  0  0  0  # atno 17395 bound_to 11000

$$$$
