AV-unprocessed.smi:1007|AV-procd|sdf|4398|dock7
  -GOLD-   22720 2333D 1   1.00000     0.00000
 Structure written by MMmdl.
 56 58  0  0  0  0  0  0  0  0  2 V2000
  147.8542  133.1504  152.7485 C   0  0  0  0  0  0  0  0  0  0  0  0
  147.5583  134.2422  153.6058 O   0  0  0  0  0  0  0  0  0  0  0  0
  146.3672  134.9387  153.2680 C   0  0  0  0  0  0  0  0  0  0  0  0
  146.3077  136.3177  153.9514 C   0  0  0  0  0  0  0  0  0  0  0  0
  145.3005  137.2324  153.4048 N   0  0  0  0  0  0  0  0  0  0  0  0
  144.8053  138.1866  154.3964 C   0  0  0  0  0  0  0  0  0  0  0  0
  145.8383  139.2693  154.7719 C   0  0  0  0  0  0  0  0  0  0  0  0
  146.2895  140.0003  153.5571 N   0  3  0  0  0  0  0  0  0  0  0  0
  147.2551  141.0908  153.8447 C   0  0  0  0  0  0  0  0  0  0  0  0
  148.2248  140.7404  154.9954 C   0  0  2  0  0  0  0  0  0  0  0  0
  147.6607  141.1749  156.2163 O   0  0  0  0  0  0  0  0  0  0  0  0
  149.6106  141.4002  154.8567 C   0  0  0  0  0  0  0  0  0  0  0  0
  150.5894  140.8311  155.7650 N   0  0  0  0  0  0  0  0  0  0  0  0
  151.0897  139.5810  155.7348 C   0  0  0  0  0  0  0  0  0  0  0  0
  151.9920  139.2643  156.6587 N   0  0  0  0  0  0  0  0  0  0  0  0
  152.0828  140.4440  157.3771 C   0  0  0  0  0  0  0  0  0  0  0  0
  152.8750  140.7766  158.4975 C   0  0  0  0  0  0  0  0  0  0  0  0
  152.8098  142.0649  159.0743 C   0  0  0  0  0  0  0  0  0  0  0  0
  153.6811  142.3793  160.2778 C   0  0  0  0  0  0  0  0  0  0  0  0
  151.9415  143.0446  158.5292 C   0  0  0  0  0  0  0  0  0  0  0  0
  151.8549  144.4356  159.1323 C   0  0  0  0  0  0  0  0  0  0  0  0
  151.1419  142.7286  157.4110 C   0  0  0  0  0  0  0  0  0  0  0  0
  151.2162  141.4434  156.8455 C   0  0  0  0  0  0  0  0  0  0  0  0
  146.7978  139.0512  152.5333 C   0  0  0  0  0  0  0  0  0  0  0  0
  145.7361  137.9774  152.2214 C   0  0  0  0  0  0  0  0  0  0  0  0
  148.7460  132.6385  153.1101 H   0  0  0  0  0  0  0  0  0  0  0  0
  148.0534  133.4771  151.7281 H   0  0  0  0  0  0  0  0  0  0  0  0
  147.0385  132.4269  152.7325 H   0  0  0  0  0  0  0  0  0  0  0  0
  146.2721  135.0150  152.1843 H   0  0  0  0  0  0  0  0  0  0  0  0
  145.5284  134.3333  153.6132 H   0  0  0  0  0  0  0  0  0  0  0  0
  146.0835  136.1474  155.0052 H   0  0  0  0  0  0  0  0  0  0  0  0
  147.2920  136.7820  153.9304 H   0  0  0  0  0  0  0  0  0  0  0  0
  143.9114  138.6737  154.0043 H   0  0  0  0  0  0  0  0  0  0  0  0
  144.4833  137.6552  155.2929 H   0  0  0  0  0  0  0  0  0  0  0  0
  145.3800  139.9593  155.4789 H   0  0  0  0  0  0  0  0  0  0  0  0
  146.6951  138.8267  155.2817 H   0  0  0  0  0  0  0  0  0  0  0  0
  147.7974  141.3200  152.9266 H   0  0  0  0  0  0  0  0  0  0  0  0
  146.7160  142.0011  154.1121 H   0  0  0  0  0  0  0  0  0  0  0  0
  148.3665  139.6620  155.0580 H   0  0  0  0  0  0  0  0  0  0  0  0
  146.7350  140.9823  156.2095 H   0  0  0  0  0  0  0  0  0  0  0  0
  149.9828  141.3009  153.8361 H   0  0  0  0  0  0  0  0  0  0  0  0
  149.5423  142.4701  155.0590 H   0  0  0  0  0  0  0  0  0  0  0  0
  150.7782  138.8648  154.9883 H   0  0  0  0  0  0  0  0  0  0  0  0
  153.5369  140.0306  158.9124 H   0  0  0  0  0  0  0  0  0  0  0  0
  153.0738  142.7360  161.1097 H   0  0  0  0  0  0  0  0  0  0  0  0
  154.4122  143.1482  160.0276 H   0  0  0  0  0  0  0  0  0  0  0  0
  154.2246  141.4972  160.6175 H   0  0  0  0  0  0  0  0  0  0  0  0
  151.1936  145.0803  158.5528 H   0  0  0  0  0  0  0  0  0  0  0  0
  152.8384  144.9045  159.1589 H   0  0  0  0  0  0  0  0  0  0  0  0
  151.4671  144.3857  160.1499 H   0  0  0  0  0  0  0  0  0  0  0  0
  150.4763  143.4661  156.9877 H   0  0  0  0  0  0  0  0  0  0  0  0
  147.0332  139.5961  151.6185 H   0  0  0  0  0  0  0  0  0  0  0  0
  147.7282  138.5953  152.8745 H   0  0  0  0  0  0  0  0  0  0  0  0
  146.1070  137.2969  151.4559 H   0  0  0  0  0  0  0  0  0  0  0  0
  144.8684  138.4658  151.7755 H   0  0  0  0  0  0  0  0  0  0  0  0
  145.4726  140.4377  153.1548 H   0  0  0  0  0  0  0  0  0  0  0  0
  1  2  1  0  0  0  0
  1 26  1  0  0  0  0
  1 27  1  0  0  0  0
  1 28  1  0  0  0  0
  2  3  1  0  0  0  0
  3  4  1  0  0  0  0
  3 29  1  0  0  0  0
  3 30  1  0  0  0  0
  4  5  1  0  0  0  0
  4 31  1  0  0  0  0
  4 32  1  0  0  0  0
  5 25  1  0  0  0  0
  5  6  1  0  0  0  0
  6  7  1  0  0  0  0
  6 33  1  0  0  0  0
  6 34  1  0  0  0  0
  7  8  1  0  0  0  0
  7 35  1  0  0  0  0
  7 36  1  0  0  0  0
  8  9  1  0  0  0  0
  8 24  1  0  0  0  0
  8 56  1  0  0  0  0
  9 10  1  0  0  0  0
  9 37  1  0  0  0  0
  9 38  1  0  0  0  0
 10 11  1  0  0  0  0
 10 12  1  0  0  0  0
 10 39  1  0  0  0  0
 11 40  1  0  0  0  0
 12 13  1  0  0  0  0
 12 41  1  0  0  0  0
 12 42  1  0  0  0  0
 13 23  1  0  0  0  0
 13 14  1  0  0  0  0
 14 15  2  0  0  0  0
 14 43  1  0  0  0  0
 15 16  1  0  0  0  0
 16 23  2  0  0  0  0
 16 17  1  0  0  0  0
 17 18  2  0  0  0  0
 17 44  1  0  0  0  0
 18 19  1  0  0  0  0
 18 20  1  0  0  0  0
 19 45  1  0  0  0  0
 19 46  1  0  0  0  0
 19 47  1  0  0  0  0
 20 21  1  0  0  0  0
 20 22  2  0  0  0  0
 21 48  1  0  0  0  0
 21 49  1  0  0  0  0
 21 50  1  0  0  0  0
 22 23  1  0  0  0  0
 22 51  1  0  0  0  0
 24 25  1  0  0  0  0
 24 52  1  0  0  0  0
 24 53  1  0  0  0  0
 25 54  1  0  0  0  0
 25 55  1  0  0  0  0
M  CHG  1   8   1
M  END
> <s_m_source_file>
AV-unprocessed.smi

> <i_m_source_file_index>
1007

> <i_lp_mmshare_version>
43012

> <i_f3d_flags>
0

> <s_epik_input>
W0NIM11PW0NIMl1bQ0gyXU4xW0NIMl1bQ0gyXU4oW0NIMl1bQ0gyXTEpW0NIMl1bQ0BIXShbT0hdKVtDSDJdbihbY0hdbjIpYyhjMjMpW2NIXWMoW0NIM10pYyhbY0hdMylbQ0gzXQ==

> <s_epik_cmdline>
J2VwaWtfcHl0aG9uJywgJy1waCcsICc3LjAnLCAnLXRuJywgJzgnLCAnLW1hJywgJzIwMCcsICctbWV0YWxfYmluZGluZycsICctaW1hZScsICc8aW5maWxlLm1hZT4nLCAnLW9tYWUnLCAnPG91dGZpbGUubWFlPic=

> <r_epik_Ionization_Penalty>
0.102698

> <r_epik_Ionization_Penalty_Charging>
0.00226046

> <r_epik_Ionization_Penalty_Neutral>
0.100438

> <r_epik_State_Penalty>
0.191223

> <r_epik_Charging_Adjusted_Penalty>
0.193484

> <i_epik_Tot_Q>
1

> <i_epik_Tot_abs_Q>
1

> <r_epik_Metal_State_Penalty>
0.102154

> <b_epik_Metal_Only>
0

> <s_lp_Force_Field>
OPLS_2005

> <r_lp_Energy>
34.1063

> <b_lp_Chiralities_Consistent>
1

> <s_lp_Variant>
AV-unprocessed.smi:1007-1

> <Gold.Version>
5.8.1

> <Gold.Id.Protein>
6NUR|6NUR_protein|mol2

> <Gold.PLP.Fitness>
48.3713

> <Gold.PLP.PLP>
-44.7701

> <Gold.PLP.part.hbond>
-1.0000

> <Gold.PLP.part.metal>
0.0000

> <Gold.PLP.part.buried>
-3.3330

> <Gold.PLP.part.nonpolar>
-41.4576

> <Gold.PLP.part.repulsive>
0.4893

> <Gold.PLP.ligand.clash>
0.0000

> <Gold.PLP.ligand.torsion>
1.2478

> <Gold.PLP.Chemscore.Hbond>
2.0000

> <Gold.PLP.Chemscore.CHOScore>
0.0000

> <Gold.PLP.Chemscore.Metal>
0.0000

> <Gold.Chemscore.Hbonds>
donor molecule, donor type, donor heavy atom, donor atom, acceptor molecule, acceptor atom, score
      L1  H     8    56       P1 10175  2.00

> <Gold.PLP.Chemscore.Internal.Correction>
0.0967

> <Gold.Rescore>
     Score         DG    S(hbond)    S(metal)    S(lipo)     H(rot)  DE(clash)    DE(int)     intcor
     15.86     -17.30       0.98        0.00     129.13       2.56       0.16       1.28       ----

> <Gold.Chemscore.Fitness>
15.8599

> <Gold.Chemscore.DG>
-17.3032

> <Gold.Chemscore.ZeroCoef>
-5.4800

> <Gold.Chemscore.Hbond>
0.9780

> <Gold.Chemscore.Metal>
0.0000

> <Gold.Chemscore.Lipo>
129.1342

> <Gold.Chemscore.Internal_Hbond>
0.0000

> <Gold.Chemscore.DEClash>
0.1617

> <Gold.Chemscore.DEInternal>
1.2816

> <Gold.Chemscore.Rot>
2.5594

> <Gold.Chemscore.Internal.Correction>
   9.000000E+99

> <Gold.Chemscore.Hbonds>
donor molecule, donor type, donor heavy atom, donor atom, acceptor molecule, acceptor atom, score
      L1  H     8    56       P1 10175  0.93

> <Gold.Chemscore.Hbond.Weighted>
-3.2667

> <Gold.Chemscore.Metal.Weighted>
-0.0000

> <Gold.Chemscore.Lipo.Weighted>
-15.1087

> <Gold.Chemscore.Internal_Hbond.Weighted>
0.0000

> <Gold.Chemscore.DEClash.Weighted>
0.1617

> <Gold.Chemscore.DEInternal.Weighted>
1.2816

> <Gold.Chemscore.Rot.Weighted>
6.5522

> <Gold.Chemscore.Internal.Correction.Weighted>
   9.000000E+99

> <Gold.Protein.RotatedTorsions>
[ 6907 6896 6895 6894 ] final   77.82 input  -60.11 | X-H torsion
[ 7974 7965 7964 7962 ] final -119.76 input  175.53 | X-H torsion
[ 8008 7997 7996 7995 ] final  -60.63 input   59.86 | X-H torsion
[ 10167 10162 10161 10158 ] final  148.61 input  -65.29 | X-H torsion
[ 10718 10713 10712 10709 ] final   71.36 input   66.30 | X-H torsion
[ 10763 10752 10751 10750 ] final  125.27 input  -60.55 | X-H torsion
[ 11005 11000 10999 10996 ] final   54.51 input  -57.11 | X-H torsion

> <Gold.Protein.ActiveResidues>
 VAL166  LYS551  ARG553  GLY616  TRP617  ASP618  TYR619  PRO620  LYS621  CYS622 
 ASP623  PHE694  ASN695  SER759  ASP760  ASP761  ALA762  ILE779  LEU786  VAL792 
 PHE793  MET794  SER795  GLU796  ALA797  LYS798  CYS799  TRP800  GLU811  SER814 

> <Gold.Protein.RotatedAtoms>
  152.5134  134.3758  159.9333 H   0  0  0  0  0  0  0  0  0  0  0  0  # atno 6907 bound_to 6896
  151.3713  133.3847  159.2708 H   0  0  0  0  0  0  0  0  0  0  0  0  # atno 6908 bound_to 6896
  150.9575  134.8987  159.7769 H   0  0  0  0  0  0  0  0  0  0  0  0  # atno 6909 bound_to 6896
  145.0590  140.8275  143.4164 H   0  0  0  0  0  0  0  0  0  0  0  0  # atno 7974 bound_to 7965
  154.4408  140.1035  156.6304 H   0  0  0  0  0  0  0  0  0  0  0  0  # atno 8008 bound_to 7997
  155.5611  140.3487  155.4473 H   0  0  0  0  0  0  0  0  0  0  0  0  # atno 8009 bound_to 7997
  156.0459  140.1293  157.0093 H   0  0  0  0  0  0  0  0  0  0  0  0  # atno 8010 bound_to 7997
  139.4872  144.5666  151.7133 H   0  0  0  0  0  0  0  0  0  0  0  0  # atno 10167 bound_to 10162
  157.6447  130.9524  150.0778 H   0  0  0  0  0  0  0  0  0  0  0  0  # atno 10718 bound_to 10713
  153.6746  135.3324  155.3162 H   0  0  0  0  0  0  0  0  0  0  0  0  # atno 10763 bound_to 10752
  154.8482  135.4394  154.1669 H   0  0  0  0  0  0  0  0  0  0  0  0  # atno 10764 bound_to 10752
  153.2670  135.6996  153.7596 H   0  0  0  0  0  0  0  0  0  0  0  0  # atno 10765 bound_to 10752
  140.0680  134.5509  155.9077 H   0  0  0  0  0  0  0  0  0  0  0  0  # atno 11005 bound_to 11000
  145.1433  139.2559  143.5479 LP  0  0  0  0  0  0  0  0  0  0  0  0  # atno 17320 bound_to 7965
  146.3523  140.1116  142.8603 LP  0  0  0  0  0  0  0  0  0  0  0  0  # atno 17321 bound_to 7965
  140.5246  144.0826  150.6033 LP  0  0  0  0  0  0  0  0  0  0  0  0  # atno 17342 bound_to 10162
  140.3796  143.2810  152.0186 LP  0  0  0  0  0  0  0  0  0  0  0  0  # atno 17343 bound_to 10162
  156.1763  130.3648  149.9096 LP  0  0  0  0  0  0  0  0  0  0  0  0  # atno 17370 bound_to 10713
  156.7059  130.8951  151.3604 LP  0  0  0  0  0  0  0  0  0  0  0  0  # atno 17371 bound_to 10713
  141.2001  133.6610  156.5877 LP  0  0  0  0  0  0  0  0  0  0  0  0  # atno 17394 bound_to 11000
  140.3669  134.7639  157.4572 LP  0  0  0  0  0  0  0  0  0  0  0  0  # atno 17395 bound_to 11000

$$$$
