AV-unprocessed.smi:1368|AV-procd|sdf|5576|dock1
  -GOLD-   22720 5173D 1   1.00000     0.00000
 Structure written by MMmdl.
 46 48  0  0  0  0  0  0  0  0  1 V2000
  148.9622  129.9054  153.4225 C   0  0  0  0  0  0  0  0  0  0  0  0
  149.7449  130.9085  154.2643 C   0  0  0  0  0  0  0  0  0  0  0  0
  150.6285  130.5011  155.0169 O   0  0  0  0  0  0  0  0  0  0  0  0
  149.4115  132.2013  154.0913 N   0  0  0  0  0  0  0  0  0  0  0  0
  149.9418  133.3564  154.7292 C   0  0  0  0  0  0  0  0  0  0  0  0
  149.4302  134.6062  154.3263 C   0  0  0  0  0  0  0  0  0  0  0  0
  149.8924  135.7947  154.9225 C   0  0  0  0  0  0  0  0  0  0  0  0
  150.8676  135.7611  155.9388 C   0  0  0  0  0  0  0  0  0  0  0  0
  151.2650  136.9710  156.4666 O   0  0  0  0  0  0  0  0  0  0  0  0
  152.1768  136.9616  157.5573 C   0  0  0  0  0  0  0  0  0  0  0  0
  152.7204  138.3834  157.7690 C   0  0  1  0  0  0  0  0  0  0  0  0
  152.8610  139.0003  156.5041 O   0  0  0  0  0  0  0  0  0  0  0  0
  151.7743  139.2304  158.6446 C   0  0  0  0  0  0  0  0  0  0  0  0
  152.4212  140.4083  159.2080 N   0  0  0  0  0  0  0  0  0  0  0  0
  153.5167  140.4575  160.0051 C   0  0  0  0  0  0  0  0  0  0  0  0
  154.2407  139.2196  160.4304 C   0  0  0  0  0  0  0  0  0  0  0  0
  153.9032  141.6741  160.3889 N   0  0  0  0  0  0  0  0  0  0  0  0
  152.9686  142.4931  159.7851 C   0  0  0  0  0  0  0  0  0  0  0  0
  152.8279  143.8993  159.8084 C   0  0  0  0  0  0  0  0  0  0  0  0
  151.7776  144.5235  159.1038 C   0  0  0  0  0  0  0  0  0  0  0  0
  150.8552  143.7527  158.3670 C   0  0  0  0  0  0  0  0  0  0  0  0
  150.9762  142.3502  158.3319 C   0  0  0  0  0  0  0  0  0  0  0  0
  152.0257  141.7317  159.0374 C   0  0  0  0  0  0  0  0  0  0  0  0
  151.3712  134.5038  156.3559 C   0  0  0  0  0  0  0  0  0  0  0  0
  150.9102  133.3136  155.7605 C   0  0  0  0  0  0  0  0  0  0  0  0
  147.9609  130.2746  153.1972 H   0  0  0  0  0  0  0  0  0  0  0  0
  148.8612  128.9580  153.9531 H   0  0  0  0  0  0  0  0  0  0  0  0
  149.4804  129.7176  152.4817 H   0  0  0  0  0  0  0  0  0  0  0  0
  148.7245  132.3835  153.3742 H   0  0  0  0  0  0  0  0  0  0  0  0
  148.6802  134.6609  153.5503 H   0  0  0  0  0  0  0  0  0  0  0  0
  149.4931  136.7439  154.5960 H   0  0  0  0  0  0  0  0  0  0  0  0
  151.7111  136.5854  158.4703 H   0  0  0  0  0  0  0  0  0  0  0  0
  153.0031  136.2947  157.3053 H   0  0  0  0  0  0  0  0  0  0  0  0
  153.6997  138.3323  158.2456 H   0  0  0  0  0  0  0  0  0  0  0  0
  152.0073  139.0569  156.1024 H   0  0  0  0  0  0  0  0  0  0  0  0
  150.9117  139.5549  158.0612 H   0  0  0  0  0  0  0  0  0  0  0  0
  151.3741  138.6282  159.4604 H   0  0  0  0  0  0  0  0  0  0  0  0
  155.1053  139.4748  161.0440 H   0  0  0  0  0  0  0  0  0  0  0  0
  154.5911  138.6654  159.5600 H   0  0  0  0  0  0  0  0  0  0  0  0
  153.5820  138.5796  161.0173 H   0  0  0  0  0  0  0  0  0  0  0  0
  153.5297  144.4989  160.3693 H   0  0  0  0  0  0  0  0  0  0  0  0
  151.6796  145.5990  159.1284 H   0  0  0  0  0  0  0  0  0  0  0  0
  150.0550  144.2384  157.8281 H   0  0  0  0  0  0  0  0  0  0  0  0
  150.2733  141.7566  157.7666 H   0  0  0  0  0  0  0  0  0  0  0  0
  152.1116  134.4224  157.1369 H   0  0  0  0  0  0  0  0  0  0  0  0
  151.3073  132.3791  156.1244 H   0  0  0  0  0  0  0  0  0  0  0  0
  1  2  1  0  0  0  0
  1 26  1  0  0  0  0
  1 27  1  0  0  0  0
  1 28  1  0  0  0  0
  2  3  2  0  0  0  0
  2  4  1  0  0  0  0
  4  5  1  0  0  0  0
  4 29  1  0  0  0  0
  5 25  1  0  0  0  0
  5  6  2  0  0  0  0
  6  7  1  0  0  0  0
  6 30  1  0  0  0  0
  7  8  2  0  0  0  0
  7 31  1  0  0  0  0
  8  9  1  0  0  0  0
  8 24  1  0  0  0  0
  9 10  1  0  0  0  0
 10 11  1  0  0  0  0
 10 32  1  0  0  0  0
 10 33  1  0  0  0  0
 11 12  1  0  0  0  0
 11 13  1  0  0  0  0
 11 34  1  0  0  0  0
 12 35  1  0  0  0  0
 13 14  1  0  0  0  0
 13 36  1  0  0  0  0
 13 37  1  0  0  0  0
 14 23  1  0  0  0  0
 14 15  1  0  0  0  0
 15 16  1  0  0  0  0
 15 17  2  0  0  0  0
 16 38  1  0  0  0  0
 16 39  1  0  0  0  0
 16 40  1  0  0  0  0
 17 18  1  0  0  0  0
 18 23  2  0  0  0  0
 18 19  1  0  0  0  0
 19 20  2  0  0  0  0
 19 41  1  0  0  0  0
 20 21  1  0  0  0  0
 20 42  1  0  0  0  0
 21 22  2  0  0  0  0
 21 43  1  0  0  0  0
 22 23  1  0  0  0  0
 22 44  1  0  0  0  0
 24 25  2  0  0  0  0
 24 45  1  0  0  0  0
 25 46  1  0  0  0  0
M  END
> <s_m_source_file>
AV-unprocessed.smi

> <i_m_source_file_index>
1368

> <i_lp_mmshare_version>
43012

> <i_f3d_flags>
0

> <s_epik_input>
W0NIM11DKD1PKVtOSF1jMVtjSF1bY0hdYyhbY0hdW2NIXTEpT1tDSDJdW0NASF0oW09IXSlbQ0gyXW4oYyhuMilbQ0gzXSljKGMyMylbY0hdW2NIXVtjSF1bY0hdMw==

> <s_epik_cmdline>
J2VwaWtfcHl0aG9uJywgJy1waCcsICc3LjAnLCAnLXRuJywgJzgnLCAnLW1hJywgJzIwMCcsICctbWV0YWxfYmluZGluZycsICctaW1hZScsICc8aW5maWxlLm1hZT4nLCAnLW9tYWUnLCAnPG91dGZpbGUubWFlPic=

> <r_lp_tautomer_probability>
1

> <r_epik_Ionization_Penalty>
0.119634

> <r_epik_Ionization_Penalty_Charging>
0

> <r_epik_Ionization_Penalty_Neutral>
0.119634

> <r_epik_State_Penalty>
0.10919

> <r_epik_Charging_Adjusted_Penalty>
0.10919

> <i_epik_Tot_Q>
0

> <i_epik_Tot_abs_Q>
0

> <r_epik_Metal_State_Penalty>
0.0906856

> <b_epik_Metal_Only>
0

> <s_lp_Force_Field>
OPLS_2005

> <r_lp_Energy>
21.7849

> <b_lp_Chiralities_Consistent>
1

> <s_lp_Variant>
AV-unprocessed.smi:1368-2

> <Gold.Version>
5.8.1

> <Gold.Id.Protein>
6NUR|6NUR_protein|mol2

> <Gold.PLP.Fitness>
46.9339

> <Gold.PLP.PLP>
-44.8292

> <Gold.PLP.part.hbond>
-1.0000

> <Gold.PLP.part.metal>
0.0000

> <Gold.PLP.part.buried>
-6.8086

> <Gold.PLP.part.nonpolar>
-36.5477

> <Gold.PLP.part.repulsive>
0.0169

> <Gold.PLP.ligand.clash>
0.0000

> <Gold.PLP.ligand.torsion>
0.4884

> <Gold.PLP.Chemscore.Hbond>
1.0000

> <Gold.PLP.Chemscore.CHOScore>
0.0000

> <Gold.PLP.Chemscore.Metal>
0.0000

> <Gold.Chemscore.Hbonds>
donor molecule, donor type, donor heavy atom, donor atom, acceptor molecule, acceptor atom, score
      P1  H  7997  8008       L1    12  1.00

> <Gold.PLP.Chemscore.Internal.Correction>
0.0816

> <Gold.Rescore>
     Score         DG    S(hbond)    S(metal)    S(lipo)     H(rot)  DE(clash)    DE(int)     intcor
     14.81     -16.64       0.96        0.00     120.38       2.39       0.13       1.70       ----

> <Gold.Chemscore.Fitness>
14.8134

> <Gold.Chemscore.DG>
-16.6446

> <Gold.Chemscore.ZeroCoef>
-5.4800

> <Gold.Chemscore.Hbond>
0.9588

> <Gold.Chemscore.Metal>
0.0000

> <Gold.Chemscore.Lipo>
120.3771

> <Gold.Chemscore.Internal_Hbond>
0.0000

> <Gold.Chemscore.DEClash>
0.1284

> <Gold.Chemscore.DEInternal>
1.7029

> <Gold.Chemscore.Rot>
2.3914

> <Gold.Chemscore.Internal.Correction>
   9.000000E+99

> <Gold.Chemscore.Hbonds>
donor molecule, donor type, donor heavy atom, donor atom, acceptor molecule, acceptor atom, score
      P1  H  7997  8008       L1    12  0.74

> <Gold.Chemscore.Hbond.Weighted>
-3.2025

> <Gold.Chemscore.Metal.Weighted>
-0.0000

> <Gold.Chemscore.Lipo.Weighted>
-14.0841

> <Gold.Chemscore.Internal_Hbond.Weighted>
0.0000

> <Gold.Chemscore.DEClash.Weighted>
0.1284

> <Gold.Chemscore.DEInternal.Weighted>
1.7029

> <Gold.Chemscore.Rot.Weighted>
6.1220

> <Gold.Chemscore.Internal.Correction.Weighted>
   9.000000E+99

> <Gold.Protein.RotatedTorsions>
[ 6907 6896 6895 6894 ] final   -3.06 input  -60.11 | X-H torsion
[ 7974 7965 7964 7962 ] final  126.82 input  175.53 | X-H torsion
[ 8008 7997 7996 7995 ] final  -52.86 input   59.86 | X-H torsion
[ 10167 10162 10161 10158 ] final  109.33 input  -65.29 | X-H torsion
[ 10718 10713 10712 10709 ] final -165.22 input   66.30 | X-H torsion
[ 10763 10752 10751 10750 ] final   97.02 input  -60.55 | X-H torsion
[ 11005 11000 10999 10996 ] final -175.72 input  -57.11 | X-H torsion

> <Gold.Protein.ActiveResidues>
 VAL166  LYS551  ARG553  GLY616  TRP617  ASP618  TYR619  PRO620  LYS621  CYS622 
 ASP623  PHE694  ASN695  SER759  ASP760  ASP761  ALA762  ILE779  LEU786  VAL792 
 PHE793  MET794  SER795  GLU796  ALA797  LYS798  CYS799  TRP800  GLU811  SER814 

> <Gold.Protein.RotatedAtoms>
  151.5199  135.1067  159.9875 H   0  0  0  0  0  0  0  0  0  0  0  0  # atno 6907 bound_to 6896
  152.4625  133.7848  159.6881 H   0  0  0  0  0  0  0  0  0  0  0  0  # atno 6908 bound_to 6896
  150.8593  133.7603  159.3023 H   0  0  0  0  0  0  0  0  0  0  0  0  # atno 6909 bound_to 6896
  145.0574  139.3833  143.5023 H   0  0  0  0  0  0  0  0  0  0  0  0  # atno 7974 bound_to 7965
  154.4117  140.1214  156.5059 H   0  0  0  0  0  0  0  0  0  0  0  0  # atno 8008 bound_to 7997
  155.6847  140.3496  155.4850 H   0  0  0  0  0  0  0  0  0  0  0  0  # atno 8009 bound_to 7997
  155.9521  140.1107  157.0958 H   0  0  0  0  0  0  0  0  0  0  0  0  # atno 8010 bound_to 7997
  139.6775  144.7121  151.1576 H   0  0  0  0  0  0  0  0  0  0  0  0  # atno 10167 bound_to 10162
  156.6503  130.9005  151.3012 H   0  0  0  0  0  0  0  0  0  0  0  0  # atno 10718 bound_to 10713
  153.2719  135.4198  155.0995 H   0  0  0  0  0  0  0  0  0  0  0  0  # atno 10763 bound_to 10752
  154.8459  135.3474  154.6233 H   0  0  0  0  0  0  0  0  0  0  0  0  # atno 10764 bound_to 10752
  153.6653  135.7046  153.5222 H   0  0  0  0  0  0  0  0  0  0  0  0  # atno 10765 bound_to 10752
  140.4601  134.6262  157.4839 H   0  0  0  0  0  0  0  0  0  0  0  0  # atno 11005 bound_to 11000
  146.3522  140.0255  142.8655 LP  0  0  0  0  0  0  0  0  0  0  0  0  # atno 17320 bound_to 7965
  145.1451  140.9593  143.4466 LP  0  0  0  0  0  0  0  0  0  0  0  0  # atno 17321 bound_to 7965
  140.7640  143.5750  150.8955 LP  0  0  0  0  0  0  0  0  0  0  0  0  # atno 17342 bound_to 10162
  139.9419  143.6372  152.3051 LP  0  0  0  0  0  0  0  0  0  0  0  0  # atno 17343 bound_to 10162
  157.7143  130.9478  150.1199 LP  0  0  0  0  0  0  0  0  0  0  0  0  # atno 17370 bound_to 10713
  156.2089  130.3665  149.8694 LP  0  0  0  0  0  0  0  0  0  0  0  0  # atno 17371 bound_to 10713
  139.9951  134.6924  155.9624 LP  0  0  0  0  0  0  0  0  0  0  0  0  # atno 17394 bound_to 11000
  141.1625  133.6538  156.4367 LP  0  0  0  0  0  0  0  0  0  0  0  0  # atno 17395 bound_to 11000

$$$$
