AV-unprocessed.smi:1785|AV-procd|sdf|7201|dock8
  -GOLD-   22720 8443D 1   1.00000     0.00000
 Structure written by MMmdl.
 27 28  0  0  0  0  0  0  0  0  2 V2000
  153.0041  141.7549  160.4222 C   0  0  0  0  0  0  0  0  0  0  0  0
  152.2891  142.9218  159.7598 C   0  0  0  0  0  0  0  0  0  0  0  0
  152.1366  144.1307  160.4709 C   0  0  0  0  0  0  0  0  0  0  0  0
  151.4699  145.2064  159.8603 C   0  0  0  0  0  0  0  0  0  0  0  0
  150.9792  145.0226  158.5563 C   0  0  0  0  0  0  0  0  0  0  0  0
  151.1205  143.8705  157.8697 N   0  0  0  0  0  0  0  0  0  0  0  0
  151.7701  142.8258  158.4387 C   0  0  0  0  0  0  0  0  0  0  0  0
  151.8796  141.6939  157.7220 N   0  5  0  0  0  0  0  0  0  0  0  0
  151.0221  141.4271  156.7028 C   0  0  0  0  0  0  0  0  0  0  0  0
  150.0628  142.1430  156.4005 O   0  0  0  0  0  0  0  0  0  0  0  0
  151.3020  140.2082  155.9487 C   0  0  0  0  0  0  0  0  0  0  0  0
  152.0623  139.2297  156.4960 C   0  0  0  0  0  0  0  0  0  0  0  0
  152.4039  138.0723  155.8416 O   0  0  0  0  0  0  0  0  0  0  0  0
  152.1189  138.0735  154.4483 C   0  0  0  0  0  0  0  0  0  0  0  0
  150.7556  138.7280  154.1847 C   0  0  0  0  0  0  0  0  0  0  0  0
  150.7424  140.0545  154.6988 O   0  0  0  0  0  0  0  0  0  0  0  0
  153.2723  141.9852  161.4535 H   0  0  0  0  0  0  0  0  0  0  0  0
  153.9191  141.5149  159.8801 H   0  0  0  0  0  0  0  0  0  0  0  0
  152.3659  140.8709  160.4304 H   0  0  0  0  0  0  0  0  0  0  0  0
  152.5236  144.2346  161.4738 H   0  0  0  0  0  0  0  0  0  0  0  0
  151.3363  146.1447  160.3775 H   0  0  0  0  0  0  0  0  0  0  0  0
  150.4571  145.8213  158.0505 H   0  0  0  0  0  0  0  0  0  0  0  0
  152.5102  139.2728  157.4784 H   0  0  0  0  0  0  0  0  0  0  0  0
  152.9075  138.6114  153.9202 H   0  0  0  0  0  0  0  0  0  0  0  0
  152.1278  137.0474  154.0809 H   0  0  0  0  0  0  0  0  0  0  0  0
  150.5453  138.7577  153.1155 H   0  0  0  0  0  0  0  0  0  0  0  0
  149.9572  138.1519  154.6543 H   0  0  0  0  0  0  0  0  0  0  0  0
  1  2  1  0  0  0  0
  1 17  1  0  0  0  0
  1 18  1  0  0  0  0
  1 19  1  0  0  0  0
  2  7  1  0  0  0  0
  2  3  2  0  0  0  0
  3  4  1  0  0  0  0
  3 20  1  0  0  0  0
  4  5  2  0  0  0  0
  4 21  1  0  0  0  0
  5  6  1  0  0  0  0
  5 22  1  0  0  0  0
  6  7  2  0  0  0  0
  7  8  1  0  0  0  0
  8  9  1  0  0  0  0
  9 10  2  0  0  0  0
  9 11  1  0  0  0  0
 11 16  1  0  0  0  0
 11 12  2  0  0  0  0
 12 13  1  0  0  0  0
 12 23  1  0  0  0  0
 13 14  1  0  0  0  0
 14 15  1  0  0  0  0
 14 24  1  0  0  0  0
 14 25  1  0  0  0  0
 15 16  1  0  0  0  0
 15 26  1  0  0  0  0
 15 27  1  0  0  0  0
M  CHG  1   8  -1
M  END
> <s_m_source_file>
AV-unprocessed.smi

> <i_m_source_file_index>
1785

> <i_lp_mmshare_version>
43012

> <i_f3d_flags>
0

> <s_epik_input>
W0NIM11jMVtjSF1bY0hdW2NIXW5jMVtOSF1DKD1PKUMyPVtDSF1PW0NIMl1bQ0gyXU8y

> <s_epik_cmdline>
J2VwaWtfcHl0aG9uJywgJy1waCcsICc3LjAnLCAnLXRuJywgJzgnLCAnLW1hJywgJzIwMCcsICctbWV0YWxfYmluZGluZycsICctaW1hZScsICc8aW5maWxlLm1hZT4nLCAnLW9tYWUnLCAnPG91dGZpbGUubWFlPic=

> <r_lp_tautomer_probability>
1

> <r_epik_Ionization_Penalty>
11.0036

> <r_epik_Ionization_Penalty_Charging>
5.9985

> <r_epik_Ionization_Penalty_Neutral>
5.00509

> <r_epik_State_Penalty>
5.99847

> <r_epik_Charging_Adjusted_Penalty>
11.997

> <i_epik_Tot_Q>
-1

> <i_epik_Tot_abs_Q>
1

> <r_epik_Metal_State_Penalty>
1.95147

> <b_epik_Metal_Only>
1

> <s_lp_Force_Field>
OPLS_2005

> <r_lp_Energy>
4.89912

> <b_lp_Chiralities_Consistent>
1

> <s_lp_Variant>
AV-unprocessed.smi:1785-2

> <Gold.Version>
5.8.1

> <Gold.Id.Protein>
6NUR|6NUR_protein|mol2

> <Gold.PLP.Fitness>
42.0818

> <Gold.PLP.PLP>
-36.4662

> <Gold.PLP.part.hbond>
-1.0000

> <Gold.PLP.part.metal>
0.0000

> <Gold.PLP.part.buried>
-5.9016

> <Gold.PLP.part.nonpolar>
-31.1345

> <Gold.PLP.part.repulsive>
1.2091

> <Gold.PLP.ligand.clash>
0.0000

> <Gold.PLP.ligand.torsion>
0.2760

> <Gold.PLP.Chemscore.Hbond>
1.0000

> <Gold.PLP.Chemscore.CHOScore>
0.9980

> <Gold.PLP.Chemscore.Metal>
0.0000

> <Gold.Chemscore.Hbonds>
donor molecule, donor type, donor heavy atom, donor atom, acceptor molecule, acceptor atom, score
      P1  H  7989  7998       L1    16  1.00
      L1  C     5    22       P1  8029  0.62

> <Gold.PLP.Chemscore.Internal.Correction>
0.1736

> <Gold.Rescore>
     Score         DG    S(hbond)    S(metal)    S(lipo)     H(rot)  DE(clash)    DE(int)     intcor
     16.22     -18.56       0.88        0.00      86.72       0.00       0.21       2.13       ----

> <Gold.Chemscore.Fitness>
16.2162

> <Gold.Chemscore.DG>
-18.5581

> <Gold.Chemscore.ZeroCoef>
-5.4800

> <Gold.Chemscore.Hbond>
0.8778

> <Gold.Chemscore.Metal>
0.0000

> <Gold.Chemscore.Lipo>
86.7200

> <Gold.Chemscore.Internal_Hbond>
0.0000

> <Gold.Chemscore.DEClash>
0.2142

> <Gold.Chemscore.DEInternal>
2.1278

> <Gold.Chemscore.Rot>
0.0000

> <Gold.Chemscore.Internal.Correction>
   9.000000E+99

> <Gold.Chemscore.Hbonds>
donor molecule, donor type, donor heavy atom, donor atom, acceptor molecule, acceptor atom, score
      P1  H  7989  7998       L1    16  0.25

> <Gold.Chemscore.Hbond.Weighted>
-2.9319

> <Gold.Chemscore.Metal.Weighted>
-0.0000

> <Gold.Chemscore.Lipo.Weighted>
-10.1462

> <Gold.Chemscore.Internal_Hbond.Weighted>
0.0000

> <Gold.Chemscore.DEClash.Weighted>
0.2142

> <Gold.Chemscore.DEInternal.Weighted>
2.1278

> <Gold.Chemscore.Rot.Weighted>
0.0000

> <Gold.Chemscore.Internal.Correction.Weighted>
   9.000000E+99

> <Gold.Protein.RotatedTorsions>
[ 6907 6896 6895 6894 ] final  146.34 input  -60.11 | X-H torsion
[ 7974 7965 7964 7962 ] final   82.09 input  175.53 | X-H torsion
[ 8008 7997 7996 7995 ] final   54.41 input   59.86 | X-H torsion
[ 10167 10162 10161 10158 ] final    8.97 input  -65.29 | X-H torsion
[ 10718 10713 10712 10709 ] final   11.77 input   66.30 | X-H torsion
[ 10763 10752 10751 10750 ] final    0.38 input  -60.55 | X-H torsion
[ 11005 11000 10999 10996 ] final   96.58 input  -57.11 | X-H torsion

> <Gold.Protein.ActiveResidues>
 VAL166  LYS551  ARG553  GLY616  TRP617  ASP618  TYR619  PRO620  LYS621  CYS622 
 ASP623  PHE694  ASN695  SER759  ASP760  ASP761  ALA762  ILE779  LEU786  VAL792 
 PHE793  MET794  SER795  GLU796  ALA797  LYS798  CYS799  TRP800  GLU811  SER814 

> <Gold.Protein.RotatedAtoms>
  152.1691  133.4632  159.4899 H   0  0  0  0  0  0  0  0  0  0  0  0  # atno 6907 bound_to 6896
  150.6917  134.1975  159.4318 H   0  0  0  0  0  0  0  0  0  0  0  0  # atno 6908 bound_to 6896
  151.9881  134.9993  160.0611 H   0  0  0  0  0  0  0  0  0  0  0  0  # atno 6909 bound_to 6896
  145.6296  139.2402  143.2092 H   0  0  0  0  0  0  0  0  0  0  0  0  # atno 7974 bound_to 7965
  155.4842  140.3469  155.4344 H   0  0  0  0  0  0  0  0  0  0  0  0  # atno 8008 bound_to 7997
  156.1019  140.1438  156.9484 H   0  0  0  0  0  0  0  0  0  0  0  0  # atno 8009 bound_to 7997
  154.4699  140.0904  156.7096 H   0  0  0  0  0  0  0  0  0  0  0  0  # atno 8010 bound_to 7997
  140.6283  143.8052  150.7262 H   0  0  0  0  0  0  0  0  0  0  0  0  # atno 10167 bound_to 10162
  157.0005  130.6077  149.5696 H   0  0  0  0  0  0  0  0  0  0  0  0  # atno 10718 bound_to 10713
  153.3214  135.6969  153.7027 H   0  0  0  0  0  0  0  0  0  0  0  0  # atno 10763 bound_to 10752
  153.5865  135.3488  155.2895 H   0  0  0  0  0  0  0  0  0  0  0  0  # atno 10764 bound_to 10752
  154.8598  135.4307  154.2379 H   0  0  0  0  0  0  0  0  0  0  0  0  # atno 10765 bound_to 10752
  139.8780  134.8958  156.4180 H   0  0  0  0  0  0  0  0  0  0  0  0  # atno 11005 bound_to 11000
  146.1367  140.7113  142.9386 LP  0  0  0  0  0  0  0  0  0  0  0  0  # atno 17320 bound_to 7965
  144.7199  140.4337  143.7016 LP  0  0  0  0  0  0  0  0  0  0  0  0  # atno 17321 bound_to 7965
  140.1657  143.4237  152.2036 LP  0  0  0  0  0  0  0  0  0  0  0  0  # atno 17342 bound_to 10162
  139.5500  144.7330  151.4464 LP  0  0  0  0  0  0  0  0  0  0  0  0  # atno 17343 bound_to 10162
  156.0173  130.5267  150.8172 LP  0  0  0  0  0  0  0  0  0  0  0  0  # atno 17370 bound_to 10713
  157.5394  131.0940  150.9848 LP  0  0  0  0  0  0  0  0  0  0  0  0  # atno 17371 bound_to 10713
  140.9154  133.7682  155.9841 LP  0  0  0  0  0  0  0  0  0  0  0  0  # atno 17394 bound_to 11000
  140.8500  134.2965  157.5279 LP  0  0  0  0  0  0  0  0  0  0  0  0  # atno 17395 bound_to 11000

$$$$
