AV-unprocessed.smi:2313|AV-procd|sdf|9264|dock6
  -GOLD-   2272012483D 1   1.00000     0.00000
 Structure written by MMmdl.
 37 38  0  0  0  0  0  0  0  0  1 V2000
  152.7876  143.1188  161.4314 C   0  0  0  0  0  0  0  0  0  0  0  0
  152.3366  142.8496  160.0079 C   0  0  0  0  0  0  0  0  0  0  0  0
  151.5365  143.8292  159.3026 C   0  0  0  0  0  0  0  0  0  0  0  0
  151.1527  143.5787  158.0418 C   0  0  0  0  0  0  0  0  0  0  0  0
  151.5020  142.3881  157.3810 N   0  0  0  0  0  0  0  0  0  0  0  0
  151.0184  142.2203  156.0004 C   0  0  0  0  0  0  0  0  0  0  0  0
  149.8839  141.1933  155.8800 C   0  0  0  0  0  0  0  0  0  0  0  0
  150.0870  140.0054  156.1314 O   0  0  0  0  0  0  0  0  0  0  0  0
  148.6867  141.6861  155.5194 N   0  0  0  0  0  0  0  0  0  0  0  0
  147.4226  140.9638  155.3226 C   0  0  1  0  0  0  0  0  0  0  0  0
  147.7224  139.8536  154.3022 C   0  0  0  0  0  0  0  0  0  0  0  0
  146.9624  140.3145  156.5663 C   0  0  0  0  0  0  0  0  0  0  0  0
  146.6041  139.8065  157.5426 N   0  0  0  0  0  0  0  0  0  0  0  0
  146.2655  141.8121  154.7900 C   0  0  0  0  0  0  0  0  0  0  0  0
  146.4915  143.0924  154.0177 C   0  0  0  0  0  0  0  0  0  0  0  0
  145.8411  143.1379  155.3826 C   0  0  0  0  0  0  0  0  0  0  0  0
  152.2462  141.4150  157.9874 C   0  0  0  0  0  0  0  0  0  0  0  0
  152.5403  140.3690  157.4052 O   0  0  0  0  0  0  0  0  0  0  0  0
  152.6673  141.7024  159.3680 C   0  0  0  0  0  0  0  0  0  0  0  0
  153.4547  140.6911  159.9971 C   0  0  0  0  0  0  0  0  0  0  0  0
  154.1030  139.8872  160.5202 N   0  0  0  0  0  0  0  0  0  0  0  0
  152.3977  144.0697  161.7954 H   0  0  0  0  0  0  0  0  0  0  0  0
  153.8760  143.1565  161.4849 H   0  0  0  0  0  0  0  0  0  0  0  0
  152.4357  142.3321  162.0996 H   0  0  0  0  0  0  0  0  0  0  0  0
  151.2460  144.7519  159.7835 H   0  0  0  0  0  0  0  0  0  0  0  0
  150.5496  144.2656  157.4660 H   0  0  0  0  0  0  0  0  0  0  0  0
  150.6570  143.1698  155.6039 H   0  0  0  0  0  0  0  0  0  0  0  0
  151.8436  141.9340  155.3454 H   0  0  0  0  0  0  0  0  0  0  0  0
  148.6447  142.6802  155.3492 H   0  0  0  0  0  0  0  0  0  0  0  0
  146.8418  139.2371  154.1171 H   0  0  0  0  0  0  0  0  0  0  0  0
  148.5134  139.1916  154.6575 H   0  0  0  0  0  0  0  0  0  0  0  0
  148.0409  140.2672  153.3446 H   0  0  0  0  0  0  0  0  0  0  0  0
  145.4383  141.2009  154.4326 H   0  0  0  0  0  0  0  0  0  0  0  0
  147.5072  143.4735  153.9350 H   0  0  0  0  0  0  0  0  0  0  0  0
  145.8576  143.2721  153.1520 H   0  0  0  0  0  0  0  0  0  0  0  0
  144.7742  143.3473  155.4210 H   0  0  0  0  0  0  0  0  0  0  0  0
  146.4218  143.5687  156.1933 H   0  0  0  0  0  0  0  0  0  0  0  0
  1  2  1  0  0  0  0
  1 22  1  0  0  0  0
  1 23  1  0  0  0  0
  1 24  1  0  0  0  0
  2 19  2  0  0  0  0
  2  3  1  0  0  0  0
  3  4  2  0  0  0  0
  3 25  1  0  0  0  0
  4  5  1  0  0  0  0
  4 26  1  0  0  0  0
  5  6  1  0  0  0  0
  5 17  1  0  0  0  0
  6  7  1  0  0  0  0
  6 27  1  0  0  0  0
  6 28  1  0  0  0  0
  7  8  2  0  0  0  0
  7  9  1  0  0  0  0
  9 10  1  0  0  0  0
  9 29  1  0  0  0  0
 10 11  1  0  0  0  0
 10 12  1  0  0  0  0
 10 14  1  0  0  0  0
 11 30  1  0  0  0  0
 11 31  1  0  0  0  0
 11 32  1  0  0  0  0
 12 13  3  0  0  0  0
 14 16  1  0  0  0  0
 14 15  1  0  0  0  0
 14 33  1  0  0  0  0
 15 16  1  0  0  0  0
 15 34  1  0  0  0  0
 15 35  1  0  0  0  0
 16 36  1  0  0  0  0
 16 37  1  0  0  0  0
 17 18  2  0  0  0  0
 17 19  1  0  0  0  0
 19 20  1  0  0  0  0
 20 21  3  0  0  0  0
M  END
> <s_m_source_file>
AV-unprocessed.smi

> <i_m_source_file_index>
2313

> <i_lp_mmshare_version>
43012

> <i_f3d_flags>
0

> <s_epik_input>
W0NIM11jMVtjSF1bY0hdbihjKD1PKWMxQyNOKVtDSDJdQyg9TylbTkhdW0NAQF0oW0NIM10pKEMjTilbQ0hdMltDSDJdW0NIMl0y

> <s_epik_cmdline>
J2VwaWtfcHl0aG9uJywgJy1waCcsICc3LjAnLCAnLXRuJywgJzgnLCAnLW1hJywgJzIwMCcsICctbWV0YWxfYmluZGluZycsICctaW1hZScsICc8aW5maWxlLm1hZT4nLCAnLW9tYWUnLCAnPG91dGZpbGUubWFlPic=

> <r_lp_tautomer_probability>
1

> <r_epik_Ionization_Penalty>
4.65501e-07

> <r_epik_Ionization_Penalty_Charging>
2.39086e-10

> <r_epik_Ionization_Penalty_Neutral>
4.65262e-07

> <r_epik_State_Penalty>
-0

> <r_epik_Charging_Adjusted_Penalty>
2.39086e-10

> <i_epik_Tot_Q>
0

> <i_epik_Tot_abs_Q>
0

> <r_epik_Metal_State_Penalty>
-0

> <b_epik_Metal_Only>
0

> <s_lp_Force_Field>
OPLS_2005

> <r_lp_Energy>
24.9024

> <b_lp_Chiralities_Consistent>
1

> <s_lp_Variant>
AV-unprocessed.smi:2313-1

> <Gold.Version>
5.8.1

> <Gold.Id.Protein>
6NUR|6NUR_protein|mol2

> <Gold.PLP.Fitness>
44.6827

> <Gold.PLP.PLP>
-36.7088

> <Gold.PLP.part.hbond>
-2.0000

> <Gold.PLP.part.metal>
0.0000

> <Gold.PLP.part.buried>
-4.6671

> <Gold.PLP.part.nonpolar>
-27.0294

> <Gold.PLP.part.repulsive>
0.1056

> <Gold.PLP.ligand.clash>
0.0000

> <Gold.PLP.ligand.torsion>
1.0053

> <Gold.PLP.Chemscore.Hbond>
1.8294

> <Gold.PLP.Chemscore.CHOScore>
1.0000

> <Gold.PLP.Chemscore.Metal>
0.0000

> <Gold.Chemscore.Hbonds>
donor molecule, donor type, donor heavy atom, donor atom, acceptor molecule, acceptor atom, score
      L1  H     9    29       P1  8028  0.91
      P1  H  7997  8010       L1    18  0.93
      L1  C     4    26       P1  8028  1.00

> <Gold.PLP.Chemscore.Internal.Correction>
1.4964

> <Gold.Rescore>
     Score         DG    S(hbond)    S(metal)    S(lipo)     H(rot)  DE(clash)    DE(int)     intcor
     13.27     -16.96       1.77        0.00      86.80       1.80       0.07       3.62       ----

> <Gold.Chemscore.Fitness>
13.2747

> <Gold.Chemscore.DG>
-16.9639

> <Gold.Chemscore.ZeroCoef>
-5.4800

> <Gold.Chemscore.Hbond>
1.7740

> <Gold.Chemscore.Metal>
0.0000

> <Gold.Chemscore.Lipo>
86.7975

> <Gold.Chemscore.Internal_Hbond>
0.0000

> <Gold.Chemscore.DEClash>
0.0707

> <Gold.Chemscore.DEInternal>
3.6184

> <Gold.Chemscore.Rot>
1.7955

> <Gold.Chemscore.Internal.Correction>
   9.000000E+99

> <Gold.Chemscore.Hbonds>
donor molecule, donor type, donor heavy atom, donor atom, acceptor molecule, acceptor atom, score
      L1  H     9    29       P1  8028  0.87
      P1  H  7997  8010       L1    18  0.85

> <Gold.Chemscore.Hbond.Weighted>
-5.9251

> <Gold.Chemscore.Metal.Weighted>
-0.0000

> <Gold.Chemscore.Lipo.Weighted>
-10.1553

> <Gold.Chemscore.Internal_Hbond.Weighted>
0.0000

> <Gold.Chemscore.DEClash.Weighted>
0.0707

> <Gold.Chemscore.DEInternal.Weighted>
3.6184

> <Gold.Chemscore.Rot.Weighted>
4.5965

> <Gold.Chemscore.Internal.Correction.Weighted>
   9.000000E+99

> <Gold.Protein.RotatedTorsions>
[ 6907 6896 6895 6894 ] final   84.61 input  -60.11 | X-H torsion
[ 7974 7965 7964 7962 ] final -115.84 input  175.53 | X-H torsion
[ 8008 7997 7996 7995 ] final   53.99 input   59.86 | X-H torsion
[ 10167 10162 10161 10158 ] final  176.58 input  -65.29 | X-H torsion
[ 10718 10713 10712 10709 ] final  129.46 input   66.30 | X-H torsion
[ 10763 10752 10751 10750 ] final    6.76 input  -60.55 | X-H torsion
[ 11005 11000 10999 10996 ] final   -0.95 input  -57.11 | X-H torsion

> <Gold.Protein.ActiveResidues>
 VAL166  LYS551  ARG553  GLY616  TRP617  ASP618  TYR619  PRO620  LYS621  CYS622 
 ASP623  PHE694  ASN695  SER759  ASP760  ASP761  ALA762  ILE779  LEU786  VAL792 
 PHE793  MET794  SER795  GLU796  ALA797  LYS798  CYS799  TRP800  GLU811  SER814 

> <Gold.Protein.RotatedAtoms>
  152.5356  134.2715  159.8972 H   0  0  0  0  0  0  0  0  0  0  0  0  # atno 6907 bound_to 6896
  151.2671  133.4266  159.2627 H   0  0  0  0  0  0  0  0  0  0  0  0  # atno 6908 bound_to 6896
  151.0400  134.9615  159.8213 H   0  0  0  0  0  0  0  0  0  0  0  0  # atno 6909 bound_to 6896
  145.1036  140.8568  143.3911 H   0  0  0  0  0  0  0  0  0  0  0  0  # atno 7974 bound_to 7965
  155.4773  140.3467  155.4334 H   0  0  0  0  0  0  0  0  0  0  0  0  # atno 8008 bound_to 7997
  156.1062  140.1448  156.9430 H   0  0  0  0  0  0  0  0  0  0  0  0  # atno 8009 bound_to 7997
  154.4726  140.0896  156.7160 H   0  0  0  0  0  0  0  0  0  0  0  0  # atno 8010 bound_to 7997
  139.5220  144.2899  152.0473 H   0  0  0  0  0  0  0  0  0  0  0  0  # atno 10167 bound_to 10162
  157.5152  131.1097  150.9235 H   0  0  0  0  0  0  0  0  0  0  0  0  # atno 10718 bound_to 10713
  153.2441  135.6906  153.7751 H   0  0  0  0  0  0  0  0  0  0  0  0  # atno 10763 bound_to 10752
  153.6870  135.3319  155.3193 H   0  0  0  0  0  0  0  0  0  0  0  0  # atno 10764 bound_to 10752
  154.8367  135.4536  154.1373 H   0  0  0  0  0  0  0  0  0  0  0  0  # atno 10765 bound_to 10752
  140.6420  133.9481  155.8331 H   0  0  0  0  0  0  0  0  0  0  0  0  # atno 11005 bound_to 11000
  145.0927  139.2879  143.5727 LP  0  0  0  0  0  0  0  0  0  0  0  0  # atno 17320 bound_to 7965
  146.3529  140.0469  142.8639 LP  0  0  0  0  0  0  0  0  0  0  0  0  # atno 17321 bound_to 7965
  140.2350  144.4328  150.6284 LP  0  0  0  0  0  0  0  0  0  0  0  0  # atno 17342 bound_to 10162
  140.6329  143.2190  151.6457 LP  0  0  0  0  0  0  0  0  0  0  0  0  # atno 17343 bound_to 10162
  156.9862  130.5546  149.5300 LP  0  0  0  0  0  0  0  0  0  0  0  0  # atno 17370 bound_to 10713
  156.0316  130.5406  150.8547 LP  0  0  0  0  0  0  0  0  0  0  0  0  # atno 17371 bound_to 10713
  141.0600  134.0360  157.3671 LP  0  0  0  0  0  0  0  0  0  0  0  0  # atno 17394 bound_to 11000
  139.9077  135.0183  156.7556 LP  0  0  0  0  0  0  0  0  0  0  0  0  # atno 17395 bound_to 11000

$$$$
