AV-unprocessed.smi:2336|AV-procd|sdf|9330|dock6
  -GOLD-   2272012553D 1   1.00000     0.00000
 Structure written by MMmdl.
 50 51  0  0  0  0  0  0  0  0  2 V2000
  144.8680  140.4178  155.6022 C   0  0  0  0  0  0  0  0  0  0  0  0
  146.3859  140.3170  155.3496 C   0  0  0  0  0  0  0  0  0  0  0  0
  146.8312  141.5395  154.5239 C   0  0  0  0  0  0  0  0  0  0  0  0
  146.7826  138.9619  154.6919 C   0  0  1  0  0  0  0  0  0  0  0  0
  146.4171  138.9036  153.1795 C   0  0  0  0  0  0  0  0  0  0  0  0
  146.6977  137.6091  152.5636 N   0  0  0  0  0  0  0  0  0  0  0  0
  145.7898  136.6686  152.2641 C   0  0  0  0  0  0  0  0  0  0  0  0
  144.5875  136.7855  152.4977 O   0  0  0  0  0  0  0  0  0  0  0  0
  146.3705  135.6030  151.6873 N   0  0  0  0  0  0  0  0  0  0  0  0
  145.7620  134.4276  151.1667 C   0  0  0  0  0  0  0  0  0  0  0  0
  144.5441  134.4145  150.4442 C   0  0  0  0  0  0  0  0  0  0  0  0
  144.0581  133.1813  149.9643 C   0  0  0  0  0  0  0  0  0  0  0  0
  144.6966  132.0067  150.1493 N   0  0  0  0  0  0  0  0  0  0  0  0
  145.8640  132.0249  150.8266 C   0  0  0  0  0  0  0  0  0  0  0  0
  146.4379  133.2023  151.3471 C   0  0  0  0  0  0  0  0  0  0  0  0
  147.6176  133.1525  152.0117 F   0  0  0  0  0  0  0  0  0  0  0  0
  148.2186  138.6540  154.9854 N   0  3  0  0  0  0  0  0  0  0  0  0
  148.6398  138.7674  156.4051 C   0  0  0  0  0  0  0  0  0  0  0  0
  150.0535  138.1794  156.5901 C   0  0  0  0  0  0  0  0  0  0  0  0
  151.0355  138.8160  155.7098 N   0  0  0  0  0  0  0  0  0  0  0  0
  151.3469  140.1886  156.0945 C   0  0  0  0  0  0  0  0  0  0  0  0
  150.6096  138.6915  154.3145 C   0  0  0  0  0  0  0  0  0  0  0  0
  149.2079  139.2906  154.0790 C   0  0  0  0  0  0  0  0  0  0  0  0
  144.3034  140.3078  154.6758 H   0  0  0  0  0  0  0  0  0  0  0  0
  144.6056  141.3838  156.0349 H   0  0  0  0  0  0  0  0  0  0  0  0
  144.5168  139.6582  156.3006 H   0  0  0  0  0  0  0  0  0  0  0  0
  146.8818  140.3917  156.3178 H   0  0  0  0  0  0  0  0  0  0  0  0
  146.4539  141.4886  153.5020 H   0  0  0  0  0  0  0  0  0  0  0  0
  147.9157  141.6326  154.4806 H   0  0  0  0  0  0  0  0  0  0  0  0
  146.4613  142.4658  154.9647 H   0  0  0  0  0  0  0  0  0  0  0  0
  146.1863  138.1988  155.1949 H   0  0  0  0  0  0  0  0  0  0  0  0
  145.3474  139.0552  153.0454 H   0  0  0  0  0  0  0  0  0  0  0  0
  146.9001  139.7214  152.6424 H   0  0  0  0  0  0  0  0  0  0  0  0
  147.6648  137.4123  152.3497 H   0  0  0  0  0  0  0  0  0  0  0  0
  147.3795  135.6135  151.6474 H   0  0  0  0  0  0  0  0  0  0  0  0
  143.9836  135.3132  150.2390 H   0  0  0  0  0  0  0  0  0  0  0  0
  143.1326  133.1390  149.4094 H   0  0  0  0  0  0  0  0  0  0  0  0
  146.3574  131.0728  150.9552 H   0  0  0  0  0  0  0  0  0  0  0  0
  148.6184  139.8018  156.7400 H   0  0  0  0  0  0  0  0  0  0  0  0
  147.9432  138.2220  157.0410 H   0  0  0  0  0  0  0  0  0  0  0  0
  150.3737  138.2785  157.6281 H   0  0  0  0  0  0  0  0  0  0  0  0
  150.0350  137.1104  156.3734 H   0  0  0  0  0  0  0  0  0  0  0  0
  152.1266  140.5929  155.4481 H   0  0  0  0  0  0  0  0  0  0  0  0
  151.7199  140.2176  157.1188 H   0  0  0  0  0  0  0  0  0  0  0  0
  150.4834  140.8501  156.0331 H   0  0  0  0  0  0  0  0  0  0  0  0
  151.3424  139.1699  153.6635 H   0  0  0  0  0  0  0  0  0  0  0  0
  150.6039  137.6341  154.0462 H   0  0  0  0  0  0  0  0  0  0  0  0
  148.9197  139.1128  153.0426 H   0  0  0  0  0  0  0  0  0  0  0  0
  149.2347  140.3699  154.2120 H   0  0  0  0  0  0  0  0  0  0  0  0
  148.3001  137.6701  154.7719 H   0  0  0  0  0  0  0  0  0  0  0  0
  1  2  1  0  0  0  0
  1 24  1  0  0  0  0
  1 25  1  0  0  0  0
  1 26  1  0  0  0  0
  2  3  1  0  0  0  0
  2  4  1  0  0  0  0
  2 27  1  0  0  0  0
  3 28  1  0  0  0  0
  3 29  1  0  0  0  0
  3 30  1  0  0  0  0
  4  5  1  0  0  0  0
  4 17  1  0  0  0  0
  4 31  1  0  0  0  0
  5  6  1  0  0  0  0
  5 32  1  0  0  0  0
  5 33  1  0  0  0  0
  6  7  1  0  0  0  0
  6 34  1  0  0  0  0
  7  8  2  0  0  0  0
  7  9  1  0  0  0  0
  9 10  1  0  0  0  0
  9 35  1  0  0  0  0
 10 15  1  0  0  0  0
 10 11  2  0  0  0  0
 11 12  1  0  0  0  0
 11 36  1  0  0  0  0
 12 13  2  0  0  0  0
 12 37  1  0  0  0  0
 13 14  1  0  0  0  0
 14 15  2  0  0  0  0
 14 38  1  0  0  0  0
 15 16  1  0  0  0  0
 17 23  1  0  0  0  0
 17 18  1  0  0  0  0
 17 50  1  0  0  0  0
 18 19  1  0  0  0  0
 18 39  1  0  0  0  0
 18 40  1  0  0  0  0
 19 20  1  0  0  0  0
 19 41  1  0  0  0  0
 19 42  1  0  0  0  0
 20 21  1  0  0  0  0
 20 22  1  0  0  0  0
 21 43  1  0  0  0  0
 21 44  1  0  0  0  0
 21 45  1  0  0  0  0
 22 23  1  0  0  0  0
 22 46  1  0  0  0  0
 22 47  1  0  0  0  0
 23 48  1  0  0  0  0
 23 49  1  0  0  0  0
M  CHG  1  17   1
M  END
> <s_m_source_file>
AV-unprocessed.smi

> <i_m_source_file_index>
2336

> <i_lp_mmshare_version>
43012

> <i_f3d_flags>
0

> <s_epik_input>
W0NIMl0xW0NIMl1OKFtDSDNdKVtDSDJdW0NIMl1OMVtDQEhdKFtDSF0oW0NIM10pW0NIM10pW0NIMl1bTkhdQyg9TylbTkhdYzJbY0hdW2NIXW5bY0hdYzJG

> <s_epik_cmdline>
J2VwaWtfcHl0aG9uJywgJy1waCcsICc3LjAnLCAnLXRuJywgJzgnLCAnLW1hJywgJzIwMCcsICctbWV0YWxfYmluZGluZycsICctaW1hZScsICc8aW5maWxlLm1hZT4nLCAnLW9tYWUnLCAnPG91dGZpbGUubWFlPic=

> <r_epik_Ionization_Penalty>
0.204575

> <r_epik_Ionization_Penalty_Charging>
0.20006

> <r_epik_Ionization_Penalty_Neutral>
0.00451444

> <r_epik_State_Penalty>
1.43207

> <r_epik_Charging_Adjusted_Penalty>
1.63213

> <i_epik_Tot_Q>
1

> <i_epik_Tot_abs_Q>
1

> <r_epik_Metal_State_Penalty>
1.43277

> <b_epik_Metal_Only>
0

> <s_lp_Force_Field>
OPLS_2005

> <r_lp_Energy>
38.4551

> <b_lp_Chiralities_Consistent>
1

> <s_lp_Variant>
AV-unprocessed.smi:2336-4

> <Gold.Version>
5.8.1

> <Gold.Id.Protein>
6NUR|6NUR_protein|mol2

> <Gold.PLP.Fitness>
40.4354

> <Gold.PLP.PLP>
-31.4507

> <Gold.PLP.part.hbond>
-2.0000

> <Gold.PLP.part.metal>
0.0000

> <Gold.PLP.part.buried>
-3.1470

> <Gold.PLP.part.nonpolar>
-26.9667

> <Gold.PLP.part.repulsive>
0.4438

> <Gold.PLP.ligand.clash>
0.0000

> <Gold.PLP.ligand.torsion>
0.9502

> <Gold.PLP.Chemscore.Hbond>
1.9920

> <Gold.PLP.Chemscore.CHOScore>
1.5174

> <Gold.PLP.Chemscore.Metal>
0.0000

> <Gold.Chemscore.Hbonds>
donor molecule, donor type, donor heavy atom, donor atom, acceptor molecule, acceptor atom, score
      L1  H     6    34       P1  7948  1.00
      L1  H     9    35       P1  7948  1.00
      L1  C    12    37       P1 10186  1.00
      L1  C    14    38       P1 10747  0.43

> <Gold.PLP.Chemscore.Internal.Correction>
0.3568

> <Gold.Rescore>
     Score         DG    S(hbond)    S(metal)    S(lipo)     H(rot)  DE(clash)    DE(int)     intcor
     15.52     -17.05       1.95        0.00      79.86       1.67       0.58       0.95       ----

> <Gold.Chemscore.Fitness>
15.5245

> <Gold.Chemscore.DG>
-17.0524

> <Gold.Chemscore.ZeroCoef>
-5.4800

> <Gold.Chemscore.Hbond>
1.9502

> <Gold.Chemscore.Metal>
0.0000

> <Gold.Chemscore.Lipo>
79.8614

> <Gold.Chemscore.Internal_Hbond>
0.0000

> <Gold.Chemscore.DEClash>
0.5755

> <Gold.Chemscore.DEInternal>
0.9523

> <Gold.Chemscore.Rot>
1.6739

> <Gold.Chemscore.Internal.Correction>
   9.000000E+99

> <Gold.Chemscore.Hbonds>
donor molecule, donor type, donor heavy atom, donor atom, acceptor molecule, acceptor atom, score
      L1  H     6    34       P1  7948  0.94
      L1  H     9    35       P1  7948  0.98

> <Gold.Chemscore.Hbond.Weighted>
-6.5138

> <Gold.Chemscore.Metal.Weighted>
-0.0000

> <Gold.Chemscore.Lipo.Weighted>
-9.3438

> <Gold.Chemscore.Internal_Hbond.Weighted>
0.0000

> <Gold.Chemscore.DEClash.Weighted>
0.5755

> <Gold.Chemscore.DEInternal.Weighted>
0.9523

> <Gold.Chemscore.Rot.Weighted>
4.2851

> <Gold.Chemscore.Internal.Correction.Weighted>
   9.000000E+99

> <Gold.Protein.RotatedTorsions>
[ 6907 6896 6895 6894 ] final  174.97 input  -60.11 | X-H torsion
[ 7974 7965 7964 7962 ] final  -13.47 input  175.53 | X-H torsion
[ 8008 7997 7996 7995 ] final   23.34 input   59.86 | X-H torsion
[ 10167 10162 10161 10158 ] final  145.19 input  -65.29 | X-H torsion
[ 10718 10713 10712 10709 ] final  -44.96 input   66.30 | X-H torsion
[ 10763 10752 10751 10750 ] final   58.84 input  -60.55 | X-H torsion
[ 11005 11000 10999 10996 ] final   38.42 input  -57.11 | X-H torsion

> <Gold.Protein.ActiveResidues>
 VAL166  LYS551  ARG553  GLY616  TRP617  ASP618  TYR619  PRO620  LYS621  CYS622 
 ASP623  PHE694  ASN695  SER759  ASP760  ASP761  ALA762  ILE779  LEU786  VAL792 
 PHE793  MET794  SER795  GLU796  ALA797  LYS798  CYS799  TRP800  GLU811  SER814 

> <Gold.Protein.RotatedAtoms>
  151.7437  133.3323  159.3372 H   0  0  0  0  0  0  0  0  0  0  0  0  # atno 6907 bound_to 6896
  150.7563  134.6255  159.6168 H   0  0  0  0  0  0  0  0  0  0  0  0  # atno 6908 bound_to 6896
  152.3514  134.7002  160.0287 H   0  0  0  0  0  0  0  0  0  0  0  0  # atno 6909 bound_to 6896
  146.2113  140.3208  142.8390 H   0  0  0  0  0  0  0  0  0  0  0  0  # atno 7974 bound_to 7965
  154.9794  140.3100  155.4953 H   0  0  0  0  0  0  0  0  0  0  0  0  # atno 8008 bound_to 7997
  156.2955  140.2269  156.4832 H   0  0  0  0  0  0  0  0  0  0  0  0  # atno 8009 bound_to 7997
  154.7803  140.0446  157.1110 H   0  0  0  0  0  0  0  0  0  0  0  0  # atno 8010 bound_to 7997
  139.4931  144.5919  151.6662 H   0  0  0  0  0  0  0  0  0  0  0  0  # atno 10167 bound_to 10162
  156.2332  130.4174  149.8849 H   0  0  0  0  0  0  0  0  0  0  0  0  # atno 10718 bound_to 10713
  152.9880  135.5592  154.5618 H   0  0  0  0  0  0  0  0  0  0  0  0  # atno 10763 bound_to 10752
  154.5035  135.2798  155.1403 H   0  0  0  0  0  0  0  0  0  0  0  0  # atno 10764 bound_to 10752
  154.2824  135.6342  153.5405 H   0  0  0  0  0  0  0  0  0  0  0  0  # atno 10765 bound_to 10752
  140.2128  134.3734  155.8041 H   0  0  0  0  0  0  0  0  0  0  0  0  # atno 11005 bound_to 11000
  144.8921  140.7537  143.5920 LP  0  0  0  0  0  0  0  0  0  0  0  0  # atno 17320 bound_to 7965
  145.3131  139.1812  143.4628 LP  0  0  0  0  0  0  0  0  0  0  0  0  # atno 17321 bound_to 7965
  140.5548  144.0366  150.6143 LP  0  0  0  0  0  0  0  0  0  0  0  0  # atno 17342 bound_to 10162
  140.3432  143.3007  152.0566 LP  0  0  0  0  0  0  0  0  0  0  0  0  # atno 17343 bound_to 10162
  156.6456  130.8723  151.3522 LP  0  0  0  0  0  0  0  0  0  0  0  0  # atno 17370 bound_to 10713
  157.7142  130.9477  150.1197 LP  0  0  0  0  0  0  0  0  0  0  0  0  # atno 17371 bound_to 10713
  141.2226  133.7152  156.8446 LP  0  0  0  0  0  0  0  0  0  0  0  0  # atno 17394 bound_to 11000
  140.1932  134.8950  157.3085 LP  0  0  0  0  0  0  0  0  0  0  0  0  # atno 17395 bound_to 11000

$$$$
