AV-unprocessed.smi:2936|AV-procd|sdf|11258|dock4
  -GOLD-   2272016153D 1   1.00000     0.00000
 Structure written by MMmdl.
 24 25  0  0  0  0  0  0  0  0  1 V2000
  151.7239  136.5900  155.7634 O   0  0  0  0  0  0  0  0  0  0  0  0
  151.5830  137.8105  155.8085 C   0  0  0  0  0  0  0  0  0  0  0  0
  151.3976  138.5423  154.6840 N   0  0  0  0  0  0  0  0  0  0  0  0
  151.2274  139.9039  154.6109 N   0  0  0  0  0  0  0  0  0  0  0  0
  151.2431  140.5818  155.7073 C   0  0  0  0  0  0  0  0  0  0  0  0
  151.4328  139.9671  157.0120 C   0  0  0  0  0  0  0  0  0  0  0  0
  151.4417  140.7522  158.1549 N   0  0  0  0  0  0  0  0  0  0  0  0
  150.4701  141.8050  158.4128 C   0  0  0  0  0  0  0  0  0  0  0  0
  151.1883  143.1384  158.6859 C   0  0  0  0  0  0  0  0  0  0  0  0
  152.1163  142.9698  159.7545 O   0  0  0  0  0  0  0  0  0  0  0  0
  153.1141  141.9974  159.4542 C   0  0  0  0  0  0  0  0  0  0  0  0
  152.4449  140.6344  159.2028 C   0  0  0  0  0  0  0  0  0  0  0  0
  151.5959  138.6142  157.0389 C   0  0  0  0  0  0  0  0  0  0  0  0
  151.8260  137.7752  158.5353 Cl  0  0  0  0  0  0  0  0  0  0  0  0
  151.3759  138.0739  153.7896 H   0  0  0  0  0  0  0  0  0  0  0  0
  151.1138  141.6644  155.7126 H   0  0  0  0  0  0  0  0  0  0  0  0
  149.7944  141.9083  157.5631 H   0  0  0  0  0  0  0  0  0  0  0  0
  149.8618  141.5213  159.2722 H   0  0  0  0  0  0  0  0  0  0  0  0
  151.7050  143.4969  157.7949 H   0  0  0  0  0  0  0  0  0  0  0  0
  150.4639  143.9047  158.9619 H   0  0  0  0  0  0  0  0  0  0  0  0
  153.6974  142.3145  158.5888 H   0  0  0  0  0  0  0  0  0  0  0  0
  153.8053  141.9266  160.2941 H   0  0  0  0  0  0  0  0  0  0  0  0
  151.9646  140.2759  160.1137 H   0  0  0  0  0  0  0  0  0  0  0  0
  153.1942  139.8930  158.9232 H   0  0  0  0  0  0  0  0  0  0  0  0
  1  2  2  0  0  0  0
  2 13  1  0  0  0  0
  2  3  1  0  0  0  0
  3 15  1  0  0  0  0
  3  4  1  0  0  0  0
  4  5  2  0  0  0  0
  5  6  1  0  0  0  0
  5 16  1  0  0  0  0
  6  7  1  0  0  0  0
  6 13  2  0  0  0  0
  7 12  1  0  0  0  0
  7  8  1  0  0  0  0
  8  9  1  0  0  0  0
  8 17  1  0  0  0  0
  8 18  1  0  0  0  0
  9 10  1  0  0  0  0
  9 19  1  0  0  0  0
  9 20  1  0  0  0  0
 10 11  1  0  0  0  0
 11 12  1  0  0  0  0
 11 21  1  0  0  0  0
 11 22  1  0  0  0  0
 12 23  1  0  0  0  0
 12 24  1  0  0  0  0
 13 14  1  0  0  0  0
M  END
> <s_m_source_file>
AV-unprocessed.smi

> <i_m_source_file_index>
2936

> <i_lp_mmshare_version>
43012

> <i_f3d_flags>
0

> <s_epik_input>
Tz1jMVtuSF1uW2NIXWMoYzFDbClOMltDSDJdW0NIMl1PW0NIMl1bQ0gyXTI=

> <s_epik_cmdline>
J2VwaWtfcHl0aG9uJywgJy1waCcsICc3LjAnLCAnLXRuJywgJzgnLCAnLW1hJywgJzIwMCcsICctbWV0YWxfYmluZGluZycsICctaW1hZScsICc8aW5maWxlLm1hZT4nLCAnLW9tYWUnLCAnPG91dGZpbGUubWFlPic=

> <r_lp_tautomer_probability>
0.986175

> <r_epik_Ionization_Penalty>
0.0102925

> <r_epik_Ionization_Penalty_Charging>
0.0102925

> <r_epik_Ionization_Penalty_Neutral>
4.87729e-09

> <r_epik_State_Penalty>
1.65855

> <r_epik_Charging_Adjusted_Penalty>
1.66884

> <i_epik_Tot_Q>
0

> <i_epik_Tot_abs_Q>
0

> <r_epik_Metal_State_Penalty>
3.9956

> <b_epik_Metal_Only>
0

> <s_lp_Force_Field>
OPLS_2005

> <r_lp_Energy>
35.1147

> <b_lp_Chiralities_Consistent>
1

> <s_lp_Variant>
AV-unprocessed.smi:2936-2

> <Gold.Version>
5.8.1

> <Gold.Id.Protein>
6NUR|6NUR_protein|mol2

> <Gold.PLP.Fitness>
27.9454

> <Gold.PLP.PLP>
-21.9507

> <Gold.PLP.part.hbond>
-2.0000

> <Gold.PLP.part.metal>
0.0000

> <Gold.PLP.part.buried>
-4.5114

> <Gold.PLP.part.nonpolar>
-15.9524

> <Gold.PLP.part.repulsive>
0.2559

> <Gold.PLP.ligand.clash>
0.0000

> <Gold.PLP.ligand.torsion>
0.7777

> <Gold.PLP.Chemscore.Hbond>
2.0000

> <Gold.PLP.Chemscore.CHOScore>
0.0000

> <Gold.PLP.Chemscore.Metal>
0.0000

> <Gold.Chemscore.Hbonds>
donor molecule, donor type, donor heavy atom, donor atom, acceptor molecule, acceptor atom, score
      P1  H  7989  7998       L1     4  0.99
      P1  H 10752 10763       L1     1  1.00

> <Gold.PLP.Chemscore.Internal.Correction>
1.5501

> <Gold.Rescore>
     Score         DG    S(hbond)    S(metal)    S(lipo)     H(rot)  DE(clash)    DE(int)     intcor
     16.11     -17.86       1.86        0.00      52.69       0.00       0.00       1.75       ----

> <Gold.Chemscore.Fitness>
16.1141

> <Gold.Chemscore.DG>
-17.8622

> <Gold.Chemscore.ZeroCoef>
-5.4800

> <Gold.Chemscore.Hbond>
1.8614

> <Gold.Chemscore.Metal>
0.0000

> <Gold.Chemscore.Lipo>
52.6929

> <Gold.Chemscore.Internal_Hbond>
0.0000

> <Gold.Chemscore.DEClash>
0.0000

> <Gold.Chemscore.DEInternal>
1.7480

> <Gold.Chemscore.Rot>
0.0000

> <Gold.Chemscore.Internal.Correction>
   9.000000E+99

> <Gold.Chemscore.Hbonds>
donor molecule, donor type, donor heavy atom, donor atom, acceptor molecule, acceptor atom, score
      P1  H  7989  7998       L1     4  0.56
      P1  H 10752 10763       L1     1  0.95

> <Gold.Chemscore.Hbond.Weighted>
-6.2171

> <Gold.Chemscore.Metal.Weighted>
-0.0000

> <Gold.Chemscore.Lipo.Weighted>
-6.1651

> <Gold.Chemscore.Internal_Hbond.Weighted>
0.0000

> <Gold.Chemscore.DEClash.Weighted>
0.0000

> <Gold.Chemscore.DEInternal.Weighted>
1.7480

> <Gold.Chemscore.Rot.Weighted>
0.0000

> <Gold.Chemscore.Internal.Correction.Weighted>
   9.000000E+99

> <Gold.Protein.RotatedTorsions>
[ 6907 6896 6895 6894 ] final -150.99 input  -60.11 | X-H torsion
[ 7974 7965 7964 7962 ] final  -15.30 input  175.53 | X-H torsion
[ 8008 7997 7996 7995 ] final  -57.34 input   59.86 | X-H torsion
[ 10167 10162 10161 10158 ] final  169.00 input  -65.29 | X-H torsion
[ 10718 10713 10712 10709 ] final   50.34 input   66.30 | X-H torsion
[ 10763 10752 10751 10750 ] final   58.42 input  -60.55 | X-H torsion
[ 11005 11000 10999 10996 ] final  -79.59 input  -57.11 | X-H torsion

> <Gold.Protein.ActiveResidues>
 VAL166  LYS551  ARG553  GLY616  TRP617  ASP618  TYR619  PRO620  LYS621  CYS622 
 ASP623  PHE694  ASN695  SER759  ASP760  ASP761  ALA762  ILE779  LEU786  VAL792 
 PHE793  MET794  SER795  GLU796  ALA797  LYS798  CYS799  TRP800  GLU811  SER814 

> <Gold.Protein.RotatedAtoms>
  151.2066  133.4580  159.2597 H   0  0  0  0  0  0  0  0  0  0  0  0  # atno 6907 bound_to 6896
  151.1017  134.9976  159.8462 H   0  0  0  0  0  0  0  0  0  0  0  0  # atno 6908 bound_to 6896
  152.5444  134.1992  159.8758 H   0  0  0  0  0  0  0  0  0  0  0  0  # atno 6909 bound_to 6896
  146.2038  140.3473  142.8414 H   0  0  0  0  0  0  0  0  0  0  0  0  # atno 7974 bound_to 7965
  154.4264  140.1109  156.5781 H   0  0  0  0  0  0  0  0  0  0  0  0  # atno 8008 bound_to 7997
  155.6141  140.3494  155.4612 H   0  0  0  0  0  0  0  0  0  0  0  0  # atno 8009 bound_to 7997
  156.0076  140.1212  157.0475 H   0  0  0  0  0  0  0  0  0  0  0  0  # atno 8010 bound_to 7997
  139.4981  144.3753  151.9680 H   0  0  0  0  0  0  0  0  0  0  0  0  # atno 10167 bound_to 10162
  157.4875  130.8355  149.8164 H   0  0  0  0  0  0  0  0  0  0  0  0  # atno 10718 bound_to 10713
  152.9870  135.5607  154.5549 H   0  0  0  0  0  0  0  0  0  0  0  0  # atno 10763 bound_to 10752
  154.4979  135.2796  155.1447 H   0  0  0  0  0  0  0  0  0  0  0  0  # atno 10764 bound_to 10752
  154.2889  135.6330  153.5430 H   0  0  0  0  0  0  0  0  0  0  0  0  # atno 10765 bound_to 10752
  141.1667  133.7112  156.8145 H   0  0  0  0  0  0  0  0  0  0  0  0  # atno 11005 bound_to 11000
  144.8744  140.7316  143.6026 LP  0  0  0  0  0  0  0  0  0  0  0  0  # atno 17320 bound_to 7965
  145.3393  139.1737  143.4495 LP  0  0  0  0  0  0  0  0  0  0  0  0  # atno 17321 bound_to 7965
  140.3190  144.3450  150.6014 LP  0  0  0  0  0  0  0  0  0  0  0  0  # atno 17342 bound_to 10162
  140.5738  143.2178  151.7551 LP  0  0  0  0  0  0  0  0  0  0  0  0  # atno 17343 bound_to 10162
  156.0155  130.3815  150.2125 LP  0  0  0  0  0  0  0  0  0  0  0  0  # atno 17370 bound_to 10713
  157.0313  131.0008  151.3311 LP  0  0  0  0  0  0  0  0  0  0  0  0  # atno 17371 bound_to 10713
  140.2163  134.8790  157.3329 LP  0  0  0  0  0  0  0  0  0  0  0  0  # atno 17394 bound_to 11000
  140.2034  134.4227  155.7650 LP  0  0  0  0  0  0  0  0  0  0  0  0  # atno 17395 bound_to 11000

$$$$
