AV-unprocessed.smi:1354|AV-procd|sdf|5535|dock7
  -GOLD-   22720 5123D 1   1.00000     0.00000
 Structure written by MMmdl.
 40 42  0  0  0  0  0  0  0  0  2 V2000
  149.6917  141.0673  153.7128 O   0  0  0  0  0  0  0  0  0  0  0  0
  149.6504  141.6822  154.9821 C   0  0  0  0  0  0  0  0  0  0  0  0
  150.7858  141.1374  155.8596 C   0  0  0  0  0  0  0  0  0  0  0  0
  151.0617  142.0366  157.0210 C   0  0  0  0  0  0  0  0  0  0  0  0
  150.7107  143.3504  157.1139 N   0  3  0  0  0  0  0  0  0  0  0  0
  151.1226  143.8640  158.3442 C   0  0  0  0  0  0  0  0  0  0  0  0
  150.9975  145.1394  158.8865 C   0  0  0  0  0  0  0  0  0  0  0  0
  151.5351  145.3345  160.1757 C   0  0  0  0  0  0  0  0  0  0  0  0
  152.1636  144.2843  160.8754 C   0  0  0  0  0  0  0  0  0  0  0  0
  152.2813  142.9949  160.3165 C   0  0  0  0  0  0  0  0  0  0  0  0
  151.7501  142.8105  159.0399 C   0  0  0  0  0  0  0  0  0  0  0  0
  151.6885  141.7024  158.1860 N   0  0  0  0  0  0  0  0  0  0  0  0
  152.2718  140.4221  158.6153 C   0  0  0  0  0  0  0  0  0  0  0  0
  153.6846  140.5896  159.1934 C   0  0  0  0  0  0  0  0  0  0  0  0
  154.4717  139.4530  158.8631 O   0  0  0  0  0  0  0  0  0  0  0  0
  154.4296  138.3562  159.6978 C   0  0  0  0  0  0  0  0  0  0  0  0
  153.7681  138.3430  160.9525 C   0  0  0  0  0  0  0  0  0  0  0  0
  153.7712  137.1822  161.7498 C   0  0  0  0  0  0  0  0  0  0  0  0
  154.4330  136.0226  161.3072 C   0  0  0  0  0  0  0  0  0  0  0  0
  155.0917  136.0247  160.0645 C   0  0  0  0  0  0  0  0  0  0  0  0
  155.0896  137.1841  159.2643 C   0  0  0  0  0  0  0  0  0  0  0  0
  155.9026  137.1568  157.7403 Cl  0  0  0  0  0  0  0  0  0  0  0  0
  148.8295  140.7375  153.5090 H   0  0  0  0  0  0  0  0  0  0  0  0
  149.7425  142.7616  154.8574 H   0  0  0  0  0  0  0  0  0  0  0  0
  148.6794  141.4874  155.4381 H   0  0  0  0  0  0  0  0  0  0  0  0
  150.5356  140.1428  156.2301 H   0  0  0  0  0  0  0  0  0  0  0  0
  151.6976  141.0305  155.2707 H   0  0  0  0  0  0  0  0  0  0  0  0
  150.5171  145.9457  158.3520 H   0  0  0  0  0  0  0  0  0  0  0  0
  151.4648  146.3090  160.6367 H   0  0  0  0  0  0  0  0  0  0  0  0
  152.5680  144.4719  161.8596 H   0  0  0  0  0  0  0  0  0  0  0  0
  152.7733  142.2012  160.8586 H   0  0  0  0  0  0  0  0  0  0  0  0
  151.6062  139.9478  159.3365 H   0  0  0  0  0  0  0  0  0  0  0  0
  152.3015  139.7618  157.7483 H   0  0  0  0  0  0  0  0  0  0  0  0
  154.1378  141.4934  158.7844 H   0  0  0  0  0  0  0  0  0  0  0  0
  153.6234  140.7025  160.2770 H   0  0  0  0  0  0  0  0  0  0  0  0
  153.2507  139.2124  161.3284 H   0  0  0  0  0  0  0  0  0  0  0  0
  153.2648  137.1819  162.7038 H   0  0  0  0  0  0  0  0  0  0  0  0
  154.4355  135.1331  161.9197 H   0  0  0  0  0  0  0  0  0  0  0  0
  155.5993  135.1337  159.7249 H   0  0  0  0  0  0  0  0  0  0  0  0
  150.2274  143.8582  156.3841 H   0  0  0  0  0  0  0  0  0  0  0  0
  1  2  1  0  0  0  0
  1 23  1  0  0  0  0
  2  3  1  0  0  0  0
  2 24  1  0  0  0  0
  2 25  1  0  0  0  0
  3  4  1  0  0  0  0
  3 26  1  0  0  0  0
  3 27  1  0  0  0  0
  4 12  1  0  0  0  0
  4  5  2  0  0  0  0
  5  6  1  0  0  0  0
  5 40  1  0  0  0  0
  6 11  2  0  0  0  0
  6  7  1  0  0  0  0
  7  8  2  0  0  0  0
  7 28  1  0  0  0  0
  8  9  1  0  0  0  0
  8 29  1  0  0  0  0
  9 10  2  0  0  0  0
  9 30  1  0  0  0  0
 10 11  1  0  0  0  0
 10 31  1  0  0  0  0
 11 12  1  0  0  0  0
 12 13  1  0  0  0  0
 13 14  1  0  0  0  0
 13 32  1  0  0  0  0
 13 33  1  0  0  0  0
 14 15  1  0  0  0  0
 14 34  1  0  0  0  0
 14 35  1  0  0  0  0
 15 16  1  0  0  0  0
 16 21  1  0  0  0  0
 16 17  2  0  0  0  0
 17 18  1  0  0  0  0
 17 36  1  0  0  0  0
 18 19  2  0  0  0  0
 18 37  1  0  0  0  0
 19 20  1  0  0  0  0
 19 38  1  0  0  0  0
 20 21  2  0  0  0  0
 20 39  1  0  0  0  0
 21 22  1  0  0  0  0
M  CHG  1   5   1
M  END
> <s_m_source_file>
AV-unprocessed.smi

> <i_m_source_file_index>
1354

> <i_lp_mmshare_version>
43012

> <i_f3d_flags>
0

> <s_epik_input>
W2NIXTFbY0hdW2NIXVtjSF1jKGMxMiluKGMobjIpW0NIMl1bQ0gyXVtPSF0pW0NIMl1bQ0gyXU9jM1tjSF1bY0hdW2NIXVtjSF1jM0Ns

> <s_epik_cmdline>
J2VwaWtfcHl0aG9uJywgJy1waCcsICc3LjAnLCAnLXRuJywgJzgnLCAnLW1hJywgJzIwMCcsICctbWV0YWxfYmluZGluZycsICctaW1hZScsICc8aW5maWxlLm1hZT4nLCAnLW9tYWUnLCAnPG91dGZpbGUubWFlPic=

> <r_lp_tautomer_probability>
1

> <r_epik_Ionization_Penalty>
0.752951

> <r_epik_Ionization_Penalty_Charging>
0.752951

> <r_epik_Ionization_Penalty_Neutral>
5.89567e-08

> <r_epik_State_Penalty>
0.780107

> <r_epik_Charging_Adjusted_Penalty>
1.53306

> <i_epik_Tot_Q>
1

> <i_epik_Tot_abs_Q>
1

> <r_epik_Metal_State_Penalty>
4.68821

> <b_epik_Metal_Only>
0

> <s_lp_Force_Field>
OPLS_2005

> <r_lp_Energy>
19.8379

> <b_lp_Chiralities_Consistent>
1

> <s_lp_Variant>
AV-unprocessed.smi:1354-2

> <Gold.Version>
5.8.1

> <Gold.Id.Protein>
6NUR|6NUR_protein|mol2

> <Gold.PLP.Fitness>
59.1940

> <Gold.PLP.PLP>
-48.1326

> <Gold.PLP.part.hbond>
-5.0000

> <Gold.PLP.part.metal>
0.0000

> <Gold.PLP.part.buried>
-5.1368

> <Gold.PLP.part.nonpolar>
-37.2326

> <Gold.PLP.part.repulsive>
0.0073

> <Gold.PLP.ligand.clash>
0.0000

> <Gold.PLP.ligand.torsion>
0.9391

> <Gold.PLP.Chemscore.Hbond>
4.2880

> <Gold.PLP.Chemscore.CHOScore>
0.0000

> <Gold.PLP.Chemscore.Metal>
0.0000

> <Gold.Chemscore.Hbonds>
donor molecule, donor type, donor heavy atom, donor atom, acceptor molecule, acceptor atom, score
      L1  H     5    40       P1  8028  2.00
      P1  H  7989  7998       L1     1  0.32
      P1  H  7997  8010       L1    15  0.98
      P1  H  8011  8017       L1     1  0.85

> <Gold.PLP.Chemscore.Internal.Correction>
0.0756

> <Gold.Rescore>
     Score         DG    S(hbond)    S(metal)    S(lipo)     H(rot)  DE(clash)    DE(int)     intcor
     19.43     -21.46       2.20        0.00     126.07       2.39       0.02       2.01       ----

> <Gold.Chemscore.Fitness>
19.4276

> <Gold.Chemscore.DG>
-21.4578

> <Gold.Chemscore.ZeroCoef>
-5.4800

> <Gold.Chemscore.Hbond>
2.2032

> <Gold.Chemscore.Metal>
0.0000

> <Gold.Chemscore.Lipo>
126.0670

> <Gold.Chemscore.Internal_Hbond>
0.0000

> <Gold.Chemscore.DEClash>
0.0171

> <Gold.Chemscore.DEInternal>
2.0130

> <Gold.Chemscore.Rot>
2.3948

> <Gold.Chemscore.Internal.Correction>
   9.000000E+99

> <Gold.Chemscore.Hbonds>
donor molecule, donor type, donor heavy atom, donor atom, acceptor molecule, acceptor atom, score
      L1  H     5    40       P1  8028  0.99
      P1  H  7989  7998       L1     1  0.10
      P1  H  7997  8010       L1    15  0.32
      P1  H  8011  8017       L1     1  0.12

> <Gold.Chemscore.Hbond.Weighted>
-7.3587

> <Gold.Chemscore.Metal.Weighted>
-0.0000

> <Gold.Chemscore.Lipo.Weighted>
-14.7498

> <Gold.Chemscore.Internal_Hbond.Weighted>
0.0000

> <Gold.Chemscore.DEClash.Weighted>
0.0171

> <Gold.Chemscore.DEInternal.Weighted>
2.0130

> <Gold.Chemscore.Rot.Weighted>
6.1308

> <Gold.Chemscore.Internal.Correction.Weighted>
   9.000000E+99

> <Gold.Protein.RotatedTorsions>
[ 6907 6896 6895 6894 ] final  152.21 input  -60.11 | X-H torsion
[ 7974 7965 7964 7962 ] final  -48.67 input  175.53 | X-H torsion
[ 8008 7997 7996 7995 ] final  -14.60 input   59.86 | X-H torsion
[ 10167 10162 10161 10158 ] final  147.18 input  -65.29 | X-H torsion
[ 10718 10713 10712 10709 ] final   64.65 input   66.30 | X-H torsion
[ 10763 10752 10751 10750 ] final   84.00 input  -60.55 | X-H torsion
[ 11005 11000 10999 10996 ] final   76.95 input  -57.11 | X-H torsion

> <Gold.Protein.ActiveResidues>
 VAL166  LYS551  ARG553  GLY616  TRP617  ASP618  TYR619  PRO620  LYS621  CYS622 
 ASP623  PHE694  ASN695  SER759  ASP760  ASP761  ALA762  ILE779  LEU786  VAL792 
 PHE793  MET794  SER795  GLU796  ALA797  LYS798  CYS799  TRP800  GLU811  SER814 

> <Gold.Protein.RotatedAtoms>
  152.0900  133.4195  159.4539 H   0  0  0  0  0  0  0  0  0  0  0  0  # atno 6907 bound_to 6896
  150.6862  134.2883  159.4665 H   0  0  0  0  0  0  0  0  0  0  0  0  # atno 6908 bound_to 6896
  152.0733  134.9518  160.0625 H   0  0  0  0  0  0  0  0  0  0  0  0  # atno 6909 bound_to 6896
  145.9487  140.7593  142.9516 H   0  0  0  0  0  0  0  0  0  0  0  0  # atno 7974 bound_to 7965
  154.5197  140.2218  155.8999 H   0  0  0  0  0  0  0  0  0  0  0  0  # atno 8008 bound_to 7997
  156.1648  140.3134  155.8834 H   0  0  0  0  0  0  0  0  0  0  0  0  # atno 8009 bound_to 7997
  155.3679  140.0465  157.3036 H   0  0  0  0  0  0  0  0  0  0  0  0  # atno 8010 bound_to 7997
  139.4894  144.5774  151.6938 H   0  0  0  0  0  0  0  0  0  0  0  0  # atno 10167 bound_to 10162
  157.6053  130.9171  149.9873 H   0  0  0  0  0  0  0  0  0  0  0  0  # atno 10718 bound_to 10713
  153.1342  135.4670  154.9396 H   0  0  0  0  0  0  0  0  0  0  0  0  # atno 10763 bound_to 10752
  154.7691  135.3153  154.8229 H   0  0  0  0  0  0  0  0  0  0  0  0  # atno 10764 bound_to 10752
  153.8765  135.6898  153.4824 H   0  0  0  0  0  0  0  0  0  0  0  0  # atno 10765 bound_to 10752
  139.9276  134.7643  156.1460 H   0  0  0  0  0  0  0  0  0  0  0  0  # atno 11005 bound_to 11000
  144.6792  140.2398  143.7345 LP  0  0  0  0  0  0  0  0  0  0  0  0  # atno 17320 bound_to 7965
  145.8201  139.2040  143.1943 LP  0  0  0  0  0  0  0  0  0  0  0  0  # atno 17321 bound_to 7965
  140.5373  144.0635  150.6075 LP  0  0  0  0  0  0  0  0  0  0  0  0  # atno 17342 bound_to 10162
  140.3645  143.2889  152.0347 LP  0  0  0  0  0  0  0  0  0  0  0  0  # atno 17343 bound_to 10162
  156.1138  130.3648  150.0003 LP  0  0  0  0  0  0  0  0  0  0  0  0  # atno 17370 bound_to 10713
  156.8096  130.9320  151.3644 LP  0  0  0  0  0  0  0  0  0  0  0  0  # atno 17371 bound_to 10713
  141.0843  133.6741  156.2403 LP  0  0  0  0  0  0  0  0  0  0  0  0  # atno 17394 bound_to 11000
  140.6293  134.5280  157.5557 LP  0  0  0  0  0  0  0  0  0  0  0  0  # atno 17395 bound_to 11000

$$$$
