AV-unprocessed.smi:1872|AV-procd|sdf|7603|dock2
  -GOLD-   22720 9323D 1   1.00000     0.00000
 Structure written by MMmdl.
 39 41  0  0  0  0  0  0  0  0  1 V2000
  151.7977  138.7010  155.3314 C   0  0  0  0  0  0  0  0  0  0  0  0
  151.8721  139.7078  156.4353 C   0  0  0  0  0  0  0  0  0  0  0  0
  152.8262  139.6737  157.3659 N   0  0  0  0  0  0  0  0  0  0  0  0
  152.5082  140.7551  158.1651 C   0  0  0  0  0  0  0  0  0  0  0  0
  153.1392  141.2568  159.3261 C   0  0  0  0  0  0  0  0  0  0  0  0
  152.6235  142.3920  159.9850 C   0  0  0  0  0  0  0  0  0  0  0  0
  151.4725  143.0413  159.4935 C   0  0  0  0  0  0  0  0  0  0  0  0
  150.8291  142.5589  158.3376 C   0  0  0  0  0  0  0  0  0  0  0  0
  151.3474  141.4250  157.6839 C   0  0  0  0  0  0  0  0  0  0  0  0
  150.9672  140.7101  156.5520 N   0  0  0  0  0  0  0  0  0  0  0  0
  149.8283  140.9946  155.6898 C   0  0  0  0  0  0  0  0  0  0  0  0
  148.4749  140.8538  156.4154 C   0  0  2  0  0  0  0  0  0  0  0  0
  147.9947  139.5280  156.2972 O   0  0  0  0  0  0  0  0  0  0  0  0
  147.4715  141.8755  155.9045 C   0  0  0  0  0  0  0  0  0  0  0  0
  147.3572  142.1203  154.5203 C   0  0  0  0  0  0  0  0  0  0  0  0
  146.4209  143.0558  154.0396 C   0  0  0  0  0  0  0  0  0  0  0  0
  145.5915  143.7650  154.9317 C   0  0  0  0  0  0  0  0  0  0  0  0
  144.6885  144.6579  154.4001 O   0  0  0  0  0  0  0  0  0  0  0  0
  143.9241  145.4099  155.2365 C   0  0  0  0  0  0  0  0  0  0  0  0
  143.4240  146.4756  154.5659 F   0  0  0  0  0  0  0  0  0  0  0  0
  142.8740  144.6871  155.6976 F   0  0  0  0  0  0  0  0  0  0  0  0
  145.6968  143.5071  156.3195 C   0  0  0  0  0  0  0  0  0  0  0  0
  146.6316  142.5705  156.8008 C   0  0  0  0  0  0  0  0  0  0  0  0
  152.6020  137.9708  155.4266 H   0  0  0  0  0  0  0  0  0  0  0  0
  151.8925  139.1908  154.3627 H   0  0  0  0  0  0  0  0  0  0  0  0
  150.8473  138.1684  155.3684 H   0  0  0  0  0  0  0  0  0  0  0  0
  154.0216  140.7671  159.7104 H   0  0  0  0  0  0  0  0  0  0  0  0
  153.1128  142.7667  160.8720 H   0  0  0  0  0  0  0  0  0  0  0  0
  151.0835  143.9103  160.0038 H   0  0  0  0  0  0  0  0  0  0  0  0
  149.9494  143.0556  157.9564 H   0  0  0  0  0  0  0  0  0  0  0  0
  149.9373  142.0019  155.2873 H   0  0  0  0  0  0  0  0  0  0  0  0
  149.8686  140.3229  154.8314 H   0  0  0  0  0  0  0  0  0  0  0  0
  148.6249  141.0309  157.4807 H   0  0  0  0  0  0  0  0  0  0  0  0
  147.0982  139.5594  156.0002 H   0  0  0  0  0  0  0  0  0  0  0  0
  147.9848  141.5886  153.8203 H   0  0  0  0  0  0  0  0  0  0  0  0
  146.3406  143.2321  152.9769 H   0  0  0  0  0  0  0  0  0  0  0  0
  144.5020  145.7892  156.0797 H   0  0  0  0  0  0  0  0  0  0  0  0
  145.0601  144.0162  157.0276 H   0  0  0  0  0  0  0  0  0  0  0  0
  146.6968  142.3827  157.8628 H   0  0  0  0  0  0  0  0  0  0  0  0
  1  2  1  0  0  0  0
  1 24  1  0  0  0  0
  1 25  1  0  0  0  0
  1 26  1  0  0  0  0
  2 10  1  0  0  0  0
  2  3  2  0  0  0  0
  3  4  1  0  0  0  0
  4  9  2  0  0  0  0
  4  5  1  0  0  0  0
  5  6  2  0  0  0  0
  5 27  1  0  0  0  0
  6  7  1  0  0  0  0
  6 28  1  0  0  0  0
  7  8  2  0  0  0  0
  7 29  1  0  0  0  0
  8  9  1  0  0  0  0
  8 30  1  0  0  0  0
  9 10  1  0  0  0  0
 10 11  1  0  0  0  0
 11 12  1  0  0  0  0
 11 31  1  0  0  0  0
 11 32  1  0  0  0  0
 12 13  1  0  0  0  0
 12 14  1  0  0  0  0
 12 33  1  0  0  0  0
 13 34  1  0  0  0  0
 14 23  1  0  0  0  0
 14 15  2  0  0  0  0
 15 16  1  0  0  0  0
 15 35  1  0  0  0  0
 16 17  2  0  0  0  0
 16 36  1  0  0  0  0
 17 18  1  0  0  0  0
 17 22  1  0  0  0  0
 18 19  1  0  0  0  0
 19 20  1  0  0  0  0
 19 21  1  0  0  0  0
 19 37  1  0  0  0  0
 22 23  2  0  0  0  0
 22 38  1  0  0  0  0
 23 39  1  0  0  0  0
M  END
> <s_m_source_file>
AV-unprocessed.smi

> <i_m_source_file_index>
1872

> <i_lp_mmshare_version>
43012

> <i_f3d_flags>
0

> <s_epik_input>
W2NIXTFbY0hdW2NIXVtjSF1jKGMxMiluKGMobjIpW0NIM10pW0NIMl1bQ0BIXShbT0hdKWMzW2NIXVtjSF1jKE9bQ0hdKEYpRilbY0hdW2NIXTM=

> <s_epik_cmdline>
J2VwaWtfcHl0aG9uJywgJy1waCcsICc3LjAnLCAnLXRuJywgJzgnLCAnLW1hJywgJzIwMCcsICctbWV0YWxfYmluZGluZycsICctaW1hZScsICc8aW5maWxlLm1hZT4nLCAnLW9tYWUnLCAnPG91dGZpbGUubWFlPic=

> <r_lp_tautomer_probability>
1

> <r_epik_Ionization_Penalty>
0.129663

> <r_epik_Ionization_Penalty_Charging>
0

> <r_epik_Ionization_Penalty_Neutral>
0.129663

> <r_epik_State_Penalty>
0.119073

> <r_epik_Charging_Adjusted_Penalty>
0.119073

> <i_epik_Tot_Q>
0

> <i_epik_Tot_abs_Q>
0

> <r_epik_Metal_State_Penalty>
0.000131867

> <b_epik_Metal_Only>
0

> <s_lp_Force_Field>
OPLS_2005

> <r_lp_Energy>
11.4486

> <b_lp_Chiralities_Consistent>
1

> <s_lp_Variant>
AV-unprocessed.smi:1872-1

> <Gold.Version>
5.8.1

> <Gold.Id.Protein>
6NUR|6NUR_protein|mol2

> <Gold.PLP.Fitness>
43.7191

> <Gold.PLP.PLP>
-42.9013

> <Gold.PLP.part.hbond>
-1.0000

> <Gold.PLP.part.metal>
0.0000

> <Gold.PLP.part.buried>
-5.9553

> <Gold.PLP.part.nonpolar>
-35.9600

> <Gold.PLP.part.repulsive>
0.1635

> <Gold.PLP.ligand.clash>
0.0000

> <Gold.PLP.ligand.torsion>
1.1550

> <Gold.PLP.Chemscore.Hbond>
1.0000

> <Gold.PLP.Chemscore.CHOScore>
0.0000

> <Gold.PLP.Chemscore.Metal>
0.0000

> <Gold.Chemscore.Hbonds>
donor molecule, donor type, donor heavy atom, donor atom, acceptor molecule, acceptor atom, score
      P1  H  7997  8008       L1     3  1.00

> <Gold.PLP.Chemscore.Internal.Correction>
0.1278

> <Gold.Rescore>
     Score         DG    S(hbond)    S(metal)    S(lipo)     H(rot)  DE(clash)    DE(int)     intcor
     13.19     -14.21       0.70        0.00     104.07       2.25       0.18       0.84       ----

> <Gold.Chemscore.Fitness>
13.1933

> <Gold.Chemscore.DG>
-14.2096

> <Gold.Chemscore.ZeroCoef>
-5.4800

> <Gold.Chemscore.Hbond>
0.6954

> <Gold.Chemscore.Metal>
0.0000

> <Gold.Chemscore.Lipo>
104.0744

> <Gold.Chemscore.Internal_Hbond>
0.0000

> <Gold.Chemscore.DEClash>
0.1768

> <Gold.Chemscore.DEInternal>
0.8394

> <Gold.Chemscore.Rot>
2.2538

> <Gold.Chemscore.Internal.Correction>
   9.000000E+99

> <Gold.Chemscore.Hbonds>
donor molecule, donor type, donor heavy atom, donor atom, acceptor molecule, acceptor atom, score
      P1  H  7997  8008       L1     3  0.33

> <Gold.Chemscore.Hbond.Weighted>
-2.3226

> <Gold.Chemscore.Metal.Weighted>
-0.0000

> <Gold.Chemscore.Lipo.Weighted>
-12.1767

> <Gold.Chemscore.Internal_Hbond.Weighted>
0.0000

> <Gold.Chemscore.DEClash.Weighted>
0.1768

> <Gold.Chemscore.DEInternal.Weighted>
0.8394

> <Gold.Chemscore.Rot.Weighted>
5.7697

> <Gold.Chemscore.Internal.Correction.Weighted>
   9.000000E+99

> <Gold.Protein.RotatedTorsions>
[ 6907 6896 6895 6894 ] final  -72.90 input  -60.11 | X-H torsion
[ 7974 7965 7964 7962 ] final  -87.73 input  175.53 | X-H torsion
[ 8008 7997 7996 7995 ] final  -56.59 input   59.86 | X-H torsion
[ 10167 10162 10161 10158 ] final -103.06 input  -65.29 | X-H torsion
[ 10718 10713 10712 10709 ] final -153.70 input   66.30 | X-H torsion
[ 10763 10752 10751 10750 ] final -150.51 input  -60.55 | X-H torsion
[ 11005 11000 10999 10996 ] final -101.45 input  -57.11 | X-H torsion

> <Gold.Protein.ActiveResidues>
 VAL166  LYS551  ARG553  GLY616  TRP617  ASP618  TYR619  PRO620  LYS621  CYS622 
 ASP623  PHE694  ASN695  SER759  ASP760  ASP761  ALA762  ILE779  LEU786  VAL792 
 PHE793  MET794  SER795  GLU796  ALA797  LYS798  CYS799  TRP800  GLU811  SER814 

> <Gold.Protein.RotatedAtoms>
  150.7151  134.5095  159.5600 H   0  0  0  0  0  0  0  0  0  0  0  0  # atno 6907 bound_to 6896
  152.2675  134.7966  160.0429 H   0  0  0  0  0  0  0  0  0  0  0  0  # atno 6908 bound_to 6896
  151.8657  133.3430  159.3755 H   0  0  0  0  0  0  0  0  0  0  0  0  # atno 6909 bound_to 6896
  145.4626  140.9561  143.1961 H   0  0  0  0  0  0  0  0  0  0  0  0  # atno 7974 bound_to 7965
  154.4235  140.1126  156.5661 H   0  0  0  0  0  0  0  0  0  0  0  0  # atno 8008 bound_to 7997
  155.6261  140.3495  155.4648 H   0  0  0  0  0  0  0  0  0  0  0  0  # atno 8009 bound_to 7997
  155.9986  140.1194  157.0559 H   0  0  0  0  0  0  0  0  0  0  0  0  # atno 8010 bound_to 7997
  140.2240  143.3655  152.0945 H   0  0  0  0  0  0  0  0  0  0  0  0  # atno 10167 bound_to 10162
  156.4894  130.8340  151.2564 H   0  0  0  0  0  0  0  0  0  0  0  0  # atno 10718 bound_to 10713
  154.8114  135.3282  154.7294 H   0  0  0  0  0  0  0  0  0  0  0  0  # atno 10763 bound_to 10752
  153.7942  135.6908  153.4871 H   0  0  0  0  0  0  0  0  0  0  0  0  # atno 10764 bound_to 10752
  153.1896  135.4556  155.0079 H   0  0  0  0  0  0  0  0  0  0  0  0  # atno 10765 bound_to 10752
  141.1230  133.8479  157.1233 H   0  0  0  0  0  0  0  0  0  0  0  0  # atno 11005 bound_to 11000
  144.7993  139.6172  143.7079 LP  0  0  0  0  0  0  0  0  0  0  0  0  # atno 17320 bound_to 7965
  146.2442  139.6064  142.9471 LP  0  0  0  0  0  0  0  0  0  0  0  0  # atno 17321 bound_to 7965
  139.5134  144.6931  151.5704 LP  0  0  0  0  0  0  0  0  0  0  0  0  # atno 17342 bound_to 10162
  140.6234  143.9214  150.6545 LP  0  0  0  0  0  0  0  0  0  0  0  0  # atno 17343 bound_to 10162
  157.7475  131.0018  150.2979 LP  0  0  0  0  0  0  0  0  0  0  0  0  # atno 17370 bound_to 10713
  156.3442  130.3820  149.7383 LP  0  0  0  0  0  0  0  0  0  0  0  0  # atno 17371 bound_to 10713
  140.0204  134.9948  157.0579 LP  0  0  0  0  0  0  0  0  0  0  0  0  # atno 17394 bound_to 11000
  140.4450  134.1642  155.7176 LP  0  0  0  0  0  0  0  0  0  0  0  0  # atno 17395 bound_to 11000

$$$$
