AV-unprocessed.smi:2445|AV-procd|sdf|9637|dock7
  -GOLD-   2272013273D 1   1.00000     0.00000
 Structure written by MMmdl.
 40 41  0  0  0  0  0  0  0  0  1 V2000
  143.8122  132.0732  150.1553 C   0  0  0  0  0  0  0  0  0  0  0  0
  145.0148  132.6088  150.8551 C   0  0  0  0  0  0  0  0  0  0  0  0
  145.5783  133.8538  150.7246 C   0  0  0  0  0  0  0  0  0  0  0  0
  146.7087  134.0484  151.5214 N   0  0  0  0  0  0  0  0  0  0  0  0
  147.0123  132.9729  152.2527 C   0  0  0  0  0  0  0  0  0  0  0  0
  148.1796  132.9154  153.1890 C   0  0  2  0  0  0  0  0  0  0  0  0
  148.5034  131.4660  153.5904 C   0  0  0  0  0  0  0  0  0  0  0  0
  147.9788  133.8610  154.3935 C   0  0  0  0  0  0  0  0  0  0  0  0
  148.4727  135.2117  154.1437 N   0  0  0  0  0  0  0  0  0  0  0  0
  148.4303  136.2212  155.0238 C   0  0  0  0  0  0  0  0  0  0  0  0
  147.9613  136.1287  156.1582 O   0  0  0  0  0  0  0  0  0  0  0  0
  148.9666  137.3415  154.5198 N   0  0  0  0  0  0  0  0  0  0  0  0
  149.0725  138.6202  155.2235 C   0  0  2  0  0  0  0  0  0  0  0  0
  148.1253  139.6501  154.6085 C   0  0  0  0  0  0  0  0  0  0  0  0
  149.0050  140.8730  154.3696 C   0  0  0  0  0  0  0  0  0  0  0  0
  150.2865  140.3138  154.1440 O   0  0  0  0  0  0  0  0  0  0  0  0
  150.4652  139.2828  155.1038 C   0  0  2  0  0  0  0  0  0  0  0  0
  151.6507  138.3893  154.7040 C   0  0  0  0  0  0  0  0  0  0  0  0
  145.8967  131.6322  151.9996 S   0  0  0  0  0  0  0  0  0  0  0  0
  143.4326  132.7876  149.4242 H   0  0  0  0  0  0  0  0  0  0  0  0
  143.0133  131.8622  150.8662 H   0  0  0  0  0  0  0  0  0  0  0  0
  144.0507  131.1485  149.6296 H   0  0  0  0  0  0  0  0  0  0  0  0
  145.2424  134.6596  150.0886 H   0  0  0  0  0  0  0  0  0  0  0  0
  149.0419  133.2828  152.6303 H   0  0  0  0  0  0  0  0  0  0  0  0
  148.6661  130.8451  152.7089 H   0  0  0  0  0  0  0  0  0  0  0  0
  147.6904  131.0213  154.1648 H   0  0  0  0  0  0  0  0  0  0  0  0
  149.4077  131.4097  154.1965 H   0  0  0  0  0  0  0  0  0  0  0  0
  146.9227  133.9061  154.6656 H   0  0  0  0  0  0  0  0  0  0  0  0
  148.5033  133.4716  155.2664 H   0  0  0  0  0  0  0  0  0  0  0  0
  148.8806  135.3871  153.2371 H   0  0  0  0  0  0  0  0  0  0  0  0
  149.3325  137.3115  153.5795 H   0  0  0  0  0  0  0  0  0  0  0  0
  148.8273  138.4872  156.2790 H   0  0  0  0  0  0  0  0  0  0  0  0
  147.7317  139.2992  153.6533 H   0  0  0  0  0  0  0  0  0  0  0  0
  147.2746  139.8766  155.2516 H   0  0  0  0  0  0  0  0  0  0  0  0
  148.6715  141.4745  153.5238 H   0  0  0  0  0  0  0  0  0  0  0  0
  149.0353  141.5106  155.2547 H   0  0  0  0  0  0  0  0  0  0  0  0
  150.7001  139.7637  156.0551 H   0  0  0  0  0  0  0  0  0  0  0  0
  151.7998  137.5875  155.4276 H   0  0  0  0  0  0  0  0  0  0  0  0
  152.5723  138.9695  154.6616 H   0  0  0  0  0  0  0  0  0  0  0  0
  151.5032  137.9383  153.7226 H   0  0  0  0  0  0  0  0  0  0  0  0
  1  2  1  0  0  0  0
  1 20  1  0  0  0  0
  1 21  1  0  0  0  0
  1 22  1  0  0  0  0
  2 19  1  0  0  0  0
  2  3  2  0  0  0  0
  3  4  1  0  0  0  0
  3 23  1  0  0  0  0
  4  5  2  0  0  0  0
  5  6  1  0  0  0  0
  5 19  1  0  0  0  0
  6  7  1  0  0  0  0
  6  8  1  0  0  0  0
  6 24  1  0  0  0  0
  7 25  1  0  0  0  0
  7 26  1  0  0  0  0
  7 27  1  0  0  0  0
  8  9  1  0  0  0  0
  8 28  1  0  0  0  0
  8 29  1  0  0  0  0
  9 10  1  0  0  0  0
  9 30  1  0  0  0  0
 10 11  2  0  0  0  0
 10 12  1  0  0  0  0
 12 13  1  0  0  0  0
 12 31  1  0  0  0  0
 13 17  1  0  0  0  0
 13 14  1  0  0  0  0
 13 32  1  0  0  0  0
 14 15  1  0  0  0  0
 14 33  1  0  0  0  0
 14 34  1  0  0  0  0
 15 16  1  0  0  0  0
 15 35  1  0  0  0  0
 15 36  1  0  0  0  0
 16 17  1  0  0  0  0
 17 18  1  0  0  0  0
 17 37  1  0  0  0  0
 18 38  1  0  0  0  0
 18 39  1  0  0  0  0
 18 40  1  0  0  0  0
M  END
> <s_m_source_file>
AV-unprocessed.smi

> <i_m_source_file_index>
2445

> <i_lp_mmshare_version>
43012

> <i_f3d_flags>
0

> <s_epik_input>
W0NIM11jMVtjSF1uYyhzMSlbQ0BIXShbQ0gzXSlbQ0gyXVtOSF1DKD1PKVtOSF1bQ0BASF0yW0NIMl1bQ0gyXU9bQ0BIXTJbQ0gzXQ==

> <s_epik_cmdline>
J2VwaWtfcHl0aG9uJywgJy1waCcsICc3LjAnLCAnLXRuJywgJzgnLCAnLW1hJywgJzIwMCcsICctbWV0YWxfYmluZGluZycsICctaW1hZScsICc8aW5maWxlLm1hZT4nLCAnLW9tYWUnLCAnPG91dGZpbGUubWFlPic=

> <r_epik_Ionization_Penalty>
0.000649483

> <r_epik_Ionization_Penalty_Charging>
0

> <r_epik_Ionization_Penalty_Neutral>
0.000649483

> <r_epik_State_Penalty>
0.000379895

> <r_epik_Charging_Adjusted_Penalty>
0.000379895

> <i_epik_Tot_Q>
0

> <i_epik_Tot_abs_Q>
0

> <r_epik_Metal_State_Penalty>
-0

> <b_epik_Metal_Only>
0

> <s_lp_Force_Field>
OPLS_2005

> <r_lp_Energy>
6.28074

> <b_lp_Chiralities_Consistent>
1

> <s_lp_Variant>
AV-unprocessed.smi:2445-5

> <Gold.Version>
5.8.1

> <Gold.Id.Protein>
6NUR|6NUR_protein|mol2

> <Gold.PLP.Fitness>
41.4545

> <Gold.PLP.PLP>
-32.4711

> <Gold.PLP.part.hbond>
-2.5600

> <Gold.PLP.part.metal>
0.0000

> <Gold.PLP.part.buried>
-3.5021

> <Gold.PLP.part.nonpolar>
-27.3303

> <Gold.PLP.part.repulsive>
1.2974

> <Gold.PLP.ligand.clash>
0.0000

> <Gold.PLP.ligand.torsion>
0.7923

> <Gold.PLP.Chemscore.Hbond>
2.6875

> <Gold.PLP.Chemscore.CHOScore>
0.8063

> <Gold.PLP.Chemscore.Metal>
0.0000

> <Gold.Chemscore.Hbonds>
donor molecule, donor type, donor heavy atom, donor atom, acceptor molecule, acceptor atom, score
      L1  H     9    30       P1  7948  1.00
      L1  H    12    31       P1  7948  0.73
      P1  H  7989  7998       L1    16  0.94
      L1  C     3    23       P1  7921  0.62

> <Gold.PLP.Chemscore.Internal.Correction>
0.0869

> <Gold.Rescore>
     Score         DG    S(hbond)    S(metal)    S(lipo)     H(rot)  DE(clash)    DE(int)     intcor
     17.98     -18.80       2.28        0.00      82.39       1.53       0.07       0.74       ----

> <Gold.Chemscore.Fitness>
17.9798

> <Gold.Chemscore.DG>
-18.7960

> <Gold.Chemscore.ZeroCoef>
-5.4800

> <Gold.Chemscore.Hbond>
2.2755

> <Gold.Chemscore.Metal>
0.0000

> <Gold.Chemscore.Lipo>
82.3855

> <Gold.Chemscore.Internal_Hbond>
0.0000

> <Gold.Chemscore.DEClash>
0.0724

> <Gold.Chemscore.DEInternal>
0.7438

> <Gold.Chemscore.Rot>
1.5325

> <Gold.Chemscore.Internal.Correction>
   9.000000E+99

> <Gold.Chemscore.Hbonds>
donor molecule, donor type, donor heavy atom, donor atom, acceptor molecule, acceptor atom, score
      L1  H     9    30       P1  7948  0.66
      L1  H    12    31       P1  7948  0.68
      P1  H  7989  7998       L1    16  0.82

> <Gold.Chemscore.Hbond.Weighted>
-7.6002

> <Gold.Chemscore.Metal.Weighted>
-0.0000

> <Gold.Chemscore.Lipo.Weighted>
-9.6391

> <Gold.Chemscore.Internal_Hbond.Weighted>
0.0000

> <Gold.Chemscore.DEClash.Weighted>
0.0724

> <Gold.Chemscore.DEInternal.Weighted>
0.7438

> <Gold.Chemscore.Rot.Weighted>
3.9233

> <Gold.Chemscore.Internal.Correction.Weighted>
   9.000000E+99

> <Gold.Protein.RotatedTorsions>
[ 6907 6896 6895 6894 ] final  160.97 input  -60.11 | X-H torsion
[ 7974 7965 7964 7962 ] final -118.40 input  175.53 | X-H torsion
[ 8008 7997 7996 7995 ] final   16.26 input   59.86 | X-H torsion
[ 10167 10162 10161 10158 ] final -119.25 input  -65.29 | X-H torsion
[ 10718 10713 10712 10709 ] final   62.98 input   66.30 | X-H torsion
[ 10763 10752 10751 10750 ] final  147.78 input  -60.55 | X-H torsion
[ 11005 11000 10999 10996 ] final -146.54 input  -57.11 | X-H torsion

> <Gold.Protein.ActiveResidues>
 VAL166  LYS551  ARG553  GLY616  TRP617  ASP618  TYR619  PRO620  LYS621  CYS622 
 ASP623  PHE694  ASN695  SER759  ASP760  ASP761  ALA762  ILE779  LEU786  VAL792 
 PHE793  MET794  SER795  GLU796  ALA797  LYS798  CYS799  TRP800  GLU811  SER814 

> <Gold.Protein.RotatedAtoms>
  151.9626  133.3700  159.4040 H   0  0  0  0  0  0  0  0  0  0  0  0  # atno 6907 bound_to 6896
  150.6962  134.4224  159.5220 H   0  0  0  0  0  0  0  0  0  0  0  0  # atno 6908 bound_to 6896
  152.1916  134.8667  160.0568 H   0  0  0  0  0  0  0  0  0  0  0  0  # atno 6909 bound_to 6896
  145.0743  140.8381  143.4077 H   0  0  0  0  0  0  0  0  0  0  0  0  # atno 7974 bound_to 7965
  154.8744  140.2963  155.5462 H   0  0  0  0  0  0  0  0  0  0  0  0  # atno 8008 bound_to 7997
  156.3022  140.2454  156.3671 H   0  0  0  0  0  0  0  0  0  0  0  0  # atno 8009 bound_to 7997
  154.8783  140.0399  157.1756 H   0  0  0  0  0  0  0  0  0  0  0  0  # atno 8010 bound_to 7997
  140.0487  143.5081  152.2093 H   0  0  0  0  0  0  0  0  0  0  0  0  # atno 10167 bound_to 10162
  157.5939  130.9080  149.9657 H   0  0  0  0  0  0  0  0  0  0  0  0  # atno 10718 bound_to 10713
  154.0440  135.2887  155.3351 H   0  0  0  0  0  0  0  0  0  0  0  0  # atno 10763 bound_to 10752
  154.6911  135.5226  153.8397 H   0  0  0  0  0  0  0  0  0  0  0  0  # atno 10764 bound_to 10752
  153.0588  135.6606  154.0641 H   0  0  0  0  0  0  0  0  0  0  0  0  # atno 10765 bound_to 10752
  140.7810  134.3079  157.5045 H   0  0  0  0  0  0  0  0  0  0  0  0  # atno 11005 bound_to 11000
  145.1255  139.2666  143.5566 LP  0  0  0  0  0  0  0  0  0  0  0  0  # atno 17320 bound_to 7965
  146.3529  140.0891  142.8613 LP  0  0  0  0  0  0  0  0  0  0  0  0  # atno 17321 bound_to 7965
  139.5967  144.7569  151.3269 LP  0  0  0  0  0  0  0  0  0  0  0  0  # atno 17342 bound_to 10162
  140.7227  143.7091  150.7783 LP  0  0  0  0  0  0  0  0  0  0  0  0  # atno 17343 bound_to 10162
  156.0998  130.3656  150.0239 LP  0  0  0  0  0  0  0  0  0  0  0  0  # atno 17370 bound_to 10713
  156.8356  130.9408  151.3635 LP  0  0  0  0  0  0  0  0  0  0  0  0  # atno 17371 bound_to 10713
  139.8742  134.9318  156.3537 LP  0  0  0  0  0  0  0  0  0  0  0  0  # atno 17394 bound_to 11000
  140.9483  133.7468  156.0237 LP  0  0  0  0  0  0  0  0  0  0  0  0  # atno 17395 bound_to 11000

$$$$
