AV-unprocessed.smi:1457|AV-procd|sdf|5919|dock2
  -GOLD-   22720 6 03D 1   1.00000     0.00000
 Structure written by MMmdl.
 36 37  0  0  0  0  0  0  0  0  2 V2000
  146.8442  138.7495  151.7333 C   0  0  0  0  0  0  0  0  0  0  0  0
  147.5475  139.6767  152.6456 N   0  3  2  0  0  0  0  0  0  0  0  0
  148.1485  138.9772  153.8087 C   0  0  0  0  0  0  0  0  0  0  0  0
  148.9788  139.9460  154.6671 C   0  0  0  0  0  0  0  0  0  0  0  0
  148.1322  141.1444  155.1265 C   0  0  1  0  0  0  0  0  0  0  0  0
  148.9700  142.0973  155.8501 N   0  0  0  0  0  0  0  0  0  0  0  0
  149.6644  141.8388  156.9677 C   0  0  0  0  0  0  0  0  0  0  0  0
  149.6662  140.7452  157.5325 O   0  0  0  0  0  0  0  0  0  0  0  0
  150.3282  142.9293  157.3874 N   0  0  0  0  0  0  0  0  0  0  0  0
  151.2085  143.0532  158.4958 C   0  0  0  0  0  0  0  0  0  0  0  0
  151.2805  144.1953  159.3296 C   0  0  0  0  0  0  0  0  0  0  0  0
  152.1789  144.1895  160.4139 C   0  0  0  0  0  0  0  0  0  0  0  0
  152.9664  143.0419  160.6287 C   0  0  0  0  0  0  0  0  0  0  0  0
  152.8981  141.9412  159.8507 N   0  0  0  0  0  0  0  0  0  0  0  0
  152.0334  141.9535  158.8139 C   0  0  0  0  0  0  0  0  0  0  0  0
  147.4891  141.8257  153.9068 C   0  0  0  0  0  0  0  0  0  0  0  0
  146.6927  140.8163  153.0626 C   0  0  0  0  0  0  0  0  0  0  0  0
  145.9945  138.2796  152.2304 H   0  0  0  0  0  0  0  0  0  0  0  0
  147.5173  137.9635  151.3892 H   0  0  0  0  0  0  0  0  0  0  0  0
  146.4766  139.2797  150.8541 H   0  0  0  0  0  0  0  0  0  0  0  0
  147.3594  138.5237  154.4110 H   0  0  0  0  0  0  0  0  0  0  0  0
  148.7864  138.1649  153.4579 H   0  0  0  0  0  0  0  0  0  0  0  0
  149.3816  139.4190  155.5332 H   0  0  0  0  0  0  0  0  0  0  0  0
  149.8370  140.2954  154.0908 H   0  0  0  0  0  0  0  0  0  0  0  0
  147.3351  140.7692  155.7709 H   0  0  0  0  0  0  0  0  0  0  0  0
  149.0289  143.0294  155.4669 H   0  0  0  0  0  0  0  0  0  0  0  0
  150.1515  143.7830  156.8781 H   0  0  0  0  0  0  0  0  0  0  0  0
  150.6588  145.0626  159.1702 H   0  0  0  0  0  0  0  0  0  0  0  0
  152.2587  145.0445  161.0688 H   0  0  0  0  0  0  0  0  0  0  0  0
  153.6659  143.0055  161.4508 H   0  0  0  0  0  0  0  0  0  0  0  0
  152.0026  141.0545  158.2155 H   0  0  0  0  0  0  0  0  0  0  0  0
  146.8327  142.6337  154.2324 H   0  0  0  0  0  0  0  0  0  0  0  0
  148.2612  142.2854  153.2876 H   0  0  0  0  0  0  0  0  0  0  0  0
  146.2939  141.3166  152.1792 H   0  0  0  0  0  0  0  0  0  0  0  0
  145.8376  140.4445  153.6296 H   0  0  0  0  0  0  0  0  0  0  0  0
  148.3143  140.0694  152.1180 H   0  0  0  0  0  0  0  0  0  0  0  0
  1  2  1  0  0  0  0
  1 18  1  0  0  0  0
  1 19  1  0  0  0  0
  1 20  1  0  0  0  0
  2 17  1  0  0  0  0
  2  3  1  0  0  0  0
  2 36  1  0  0  0  0
  3  4  1  0  0  0  0
  3 21  1  0  0  0  0
  3 22  1  0  0  0  0
  4  5  1  0  0  0  0
  4 23  1  0  0  0  0
  4 24  1  0  0  0  0
  5  6  1  0  0  0  0
  5 16  1  0  0  0  0
  5 25  1  0  0  0  0
  6  7  1  0  0  0  0
  6 26  1  0  0  0  0
  7  8  2  0  0  0  0
  7  9  1  0  0  0  0
  9 10  1  0  0  0  0
  9 27  1  0  0  0  0
 10 15  1  0  0  0  0
 10 11  2  0  0  0  0
 11 12  1  0  0  0  0
 11 28  1  0  0  0  0
 12 13  2  0  0  0  0
 12 29  1  0  0  0  0
 13 14  1  0  0  0  0
 13 30  1  0  0  0  0
 14 15  2  0  0  0  0
 15 31  1  0  0  0  0
 16 17  1  0  0  0  0
 16 32  1  0  0  0  0
 16 33  1  0  0  0  0
 17 34  1  0  0  0  0
 17 35  1  0  0  0  0
M  CHG  1   2   1
M  END
> <s_m_source_file>
AV-unprocessed.smi

> <i_m_source_file_index>
1457

> <i_lp_mmshare_version>
43012

> <i_f3d_flags>
0

> <s_epik_input>
W0NIM11OMVtDSDJdW0NIMl1bQ0hdKFtDSDJdW0NIMl0xKVtOSF1DKD1PKVtOSF1jMltjSF1bY0hdW2NIXW5bY0hdMg==

> <s_epik_cmdline>
J2VwaWtfcHl0aG9uJywgJy1waCcsICc3LjAnLCAnLXRuJywgJzgnLCAnLW1hJywgJzIwMCcsICctbWV0YWxfYmluZGluZycsICctaW1hZScsICc8aW5maWxlLm1hZT4nLCAnLW9tYWUnLCAnPG91dGZpbGUubWFlPic=

> <r_lp_tautomer_probability>
1

> <r_epik_Ionization_Penalty>
0.00766642

> <r_epik_Ionization_Penalty_Charging>
0.00366825

> <r_epik_Ionization_Penalty_Neutral>
0.00399817

> <r_epik_State_Penalty>
-0

> <r_epik_Charging_Adjusted_Penalty>
0.00366825

> <i_epik_Tot_Q>
1

> <i_epik_Tot_abs_Q>
1

> <r_epik_Metal_State_Penalty>
-0

> <b_epik_Metal_Only>
0

> <s_lp_Force_Field>
OPLS_2005

> <r_lp_Energy>
19.7358

> <b_lp_Chiralities_Consistent>
1

> <s_lp_Variant>
AV-unprocessed.smi:1457-1

> <Gold.Version>
5.8.1

> <Gold.Id.Protein>
6NUR|6NUR_protein|mol2

> <Gold.PLP.Fitness>
42.5940

> <Gold.PLP.PLP>
-34.3829

> <Gold.PLP.part.hbond>
-3.0000

> <Gold.PLP.part.metal>
0.0000

> <Gold.PLP.part.buried>
-3.3891

> <Gold.PLP.part.nonpolar>
-29.2904

> <Gold.PLP.part.repulsive>
0.2176

> <Gold.PLP.ligand.clash>
0.0000

> <Gold.PLP.ligand.torsion>
0.2631

> <Gold.PLP.Chemscore.Hbond>
2.9120

> <Gold.PLP.Chemscore.CHOScore>
0.0000

> <Gold.PLP.Chemscore.Metal>
0.0000

> <Gold.Chemscore.Hbonds>
donor molecule, donor type, donor heavy atom, donor atom, acceptor molecule, acceptor atom, score
      L1  H     2    36       P1  7957  1.00
      L1  H     6    26       P1  8028  1.00
      L1  H     9    27       P1  8028  0.91

> <Gold.PLP.Chemscore.Internal.Correction>
0.0013

> <Gold.Rescore>
     Score         DG    S(hbond)    S(metal)    S(lipo)     H(rot)  DE(clash)    DE(int)     intcor
     21.48     -23.22       2.88        0.00      91.36       1.00       0.35       1.39       ----

> <Gold.Chemscore.Fitness>
21.4781

> <Gold.Chemscore.DG>
-23.2226

> <Gold.Chemscore.ZeroCoef>
-5.4800

> <Gold.Chemscore.Hbond>
2.8784

> <Gold.Chemscore.Metal>
0.0000

> <Gold.Chemscore.Lipo>
91.3550

> <Gold.Chemscore.Internal_Hbond>
0.0000

> <Gold.Chemscore.DEClash>
0.3502

> <Gold.Chemscore.DEInternal>
1.3942

> <Gold.Chemscore.Rot>
1.0000

> <Gold.Chemscore.Internal.Correction>
   9.000000E+99

> <Gold.Chemscore.Hbonds>
donor molecule, donor type, donor heavy atom, donor atom, acceptor molecule, acceptor atom, score
      L1  H     2    36       P1  7957  0.97
      L1  H     6    26       P1  8028  0.95
      L1  H     9    27       P1  8028  0.87

> <Gold.Chemscore.Hbond.Weighted>
-9.6140

> <Gold.Chemscore.Metal.Weighted>
-0.0000

> <Gold.Chemscore.Lipo.Weighted>
-10.6885

> <Gold.Chemscore.Internal_Hbond.Weighted>
0.0000

> <Gold.Chemscore.DEClash.Weighted>
0.3502

> <Gold.Chemscore.DEInternal.Weighted>
1.3942

> <Gold.Chemscore.Rot.Weighted>
2.5600

> <Gold.Chemscore.Internal.Correction.Weighted>
   9.000000E+99

> <Gold.Protein.RotatedTorsions>
[ 6907 6896 6895 6894 ] final   44.35 input  -60.11 | X-H torsion
[ 7974 7965 7964 7962 ] final  -23.95 input  175.53 | X-H torsion
[ 8008 7997 7996 7995 ] final  109.66 input   59.86 | X-H torsion
[ 10167 10162 10161 10158 ] final   55.66 input  -65.29 | X-H torsion
[ 10718 10713 10712 10709 ] final  130.10 input   66.30 | X-H torsion
[ 10763 10752 10751 10750 ] final  -49.32 input  -60.55 | X-H torsion
[ 11005 11000 10999 10996 ] final  -11.74 input  -57.11 | X-H torsion

> <Gold.Protein.ActiveResidues>
 VAL166  LYS551  ARG553  GLY616  TRP617  ASP618  TYR619  PRO620  LYS621  CYS622 
 ASP623  PHE694  ASN695  SER759  ASP760  ASP761  ALA762  ILE779  LEU786  VAL792 
 PHE793  MET794  SER795  GLU796  ALA797  LYS798  CYS799  TRP800  GLU811  SER814 

> <Gold.Protein.RotatedAtoms>
  152.2314  134.8318  160.0472 H   0  0  0  0  0  0  0  0  0  0  0  0  # atno 6907 bound_to 6896
  151.9065  133.3545  159.3857 H   0  0  0  0  0  0  0  0  0  0  0  0  # atno 6908 bound_to 6896
  150.7027  134.4701  159.5465 H   0  0  0  0  0  0  0  0  0  0  0  0  # atno 6909 bound_to 6896
  146.1585  140.4685  142.8581 H   0  0  0  0  0  0  0  0  0  0  0  0  # atno 7974 bound_to 7965
  156.1996  140.3053  155.9499 H   0  0  0  0  0  0  0  0  0  0  0  0  # atno 8008 bound_to 7997
  155.2985  140.0445  157.3045 H   0  0  0  0  0  0  0  0  0  0  0  0  # atno 8009 bound_to 7997
  154.5553  140.2304  155.8428 H   0  0  0  0  0  0  0  0  0  0  0  0  # atno 8010 bound_to 7997
  140.2170  144.3829  150.6465 H   0  0  0  0  0  0  0  0  0  0  0  0  # atno 10167 bound_to 10162
  157.5093  131.1096  150.9315 H   0  0  0  0  0  0  0  0  0  0  0  0  # atno 10718 bound_to 10713
  154.0922  135.6575  153.4854 H   0  0  0  0  0  0  0  0  0  0  0  0  # atno 10763 bound_to 10752
  153.0318  135.5205  154.7369 H   0  0  0  0  0  0  0  0  0  0  0  0  # atno 10764 bound_to 10752
  154.6496  135.2999  154.9972 H   0  0  0  0  0  0  0  0  0  0  0  0  # atno 10765 bound_to 10752
  140.7584  133.8535  155.9104 H   0  0  0  0  0  0  0  0  0  0  0  0  # atno 11005 bound_to 11000
  144.7995  140.6186  143.6488 LP  0  0  0  0  0  0  0  0  0  0  0  0  # atno 17320 bound_to 7965
  145.4648  139.1509  143.3846 LP  0  0  0  0  0  0  0  0  0  0  0  0  # atno 17321 bound_to 7965
  140.6282  143.2184  151.6551 LP  0  0  0  0  0  0  0  0  0  0  0  0  # atno 17342 bound_to 10162
  139.5158  144.3366  152.0778 LP  0  0  0  0  0  0  0  0  0  0  0  0  # atno 17343 bound_to 10162
  156.9961  130.5582  149.5307 LP  0  0  0  0  0  0  0  0  0  0  0  0  # atno 17370 bound_to 10713
  156.0279  130.5372  150.8455 LP  0  0  0  0  0  0  0  0  0  0  0  0  # atno 17371 bound_to 10713
  140.9686  134.1561  157.4595 LP  0  0  0  0  0  0  0  0  0  0  0  0  # atno 17394 bound_to 11000
  139.8775  134.9970  156.5826 LP  0  0  0  0  0  0  0  0  0  0  0  0  # atno 17395 bound_to 11000

$$$$
