AV-unprocessed.smi:149|AV-procd|sdf|1239|dock10
  -GOLD-   2262018453D 1   1.00000     0.00000
 Structure written by MMmdl.
 59 63  0  0  0  0  0  0  0  0  1 V2000
  152.8214  138.9034  160.1846 C   0  0  0  0  0  0  0  0  0  0  0  0
  153.4560  139.8011  159.1022 C   0  0  1  0  0  0  0  0  0  0  0  0
  153.3644  139.1253  157.7247 C   0  0  0  0  0  0  0  0  0  0  0  0
  152.2192  139.7256  157.0559 N   0  0  0  0  0  0  0  0  0  0  0  0
  151.4894  139.0283  156.1473 C   0  0  0  0  0  0  0  0  0  0  0  0
  150.8904  139.7049  155.1312 N   0  0  0  0  0  0  0  0  0  0  0  0
  150.1695  139.0546  154.2137 C   0  0  0  0  0  0  0  0  0  0  0  0
  149.9235  137.7472  154.1204 N   0  0  0  0  0  0  0  0  0  0  0  0
  150.5264  137.0578  155.1307 C   0  0  0  0  0  0  0  0  0  0  0  0
  151.3251  137.6116  156.1726 C   0  0  0  0  0  0  0  0  0  0  0  0
  151.7911  136.5907  156.9945 N   0  0  0  0  0  0  0  0  0  0  0  0
  151.2956  135.5028  156.4722 C   0  0  0  0  0  0  0  0  0  0  0  0
  150.5001  135.6943  155.3660 N   0  0  0  0  0  0  0  0  0  0  0  0
  149.8683  134.6797  154.5747 C   0  0  0  0  0  0  0  0  0  0  0  0
  148.3433  134.5802  154.4894 C   0  0  0  0  0  0  0  0  0  0  0  0
  148.4592  133.0464  154.3397 C   0  0  0  0  0  0  0  0  0  0  0  0
  147.3970  132.2500  155.1175 C   0  0  0  0  0  0  0  0  0  0  0  0
  146.1145  132.3739  154.5382 O   0  0  0  0  0  0  0  0  0  0  0  0
  148.4863  132.5637  152.8737 C   0  0  0  0  0  0  0  0  0  0  0  0
  148.8109  131.1928  152.7664 O   0  0  0  0  0  0  0  0  0  0  0  0
  149.8296  133.2208  155.0342 C   0  0  0  0  0  0  0  0  0  0  0  0
  151.6114  140.7315  157.9127 C   0  0  0  0  0  0  0  0  0  0  0  0
  152.7255  141.1454  158.8828 C   0  0  1  0  0  0  0  0  0  0  0  0
  152.2866  141.8586  160.0899 N   0  0  0  0  0  0  0  0  0  0  0  0
  151.8558  143.2254  159.7975 C   0  0  0  0  0  0  0  0  0  0  0  0
  151.4116  143.9754  161.0656 C   0  0  0  0  0  0  0  0  0  0  0  0
  152.4706  143.9787  162.0165 O   0  0  0  0  0  0  0  0  0  0  0  0
  152.8956  142.6658  162.3645 C   0  0  0  0  0  0  0  0  0  0  0  0
  153.3457  141.9189  161.0976 C   0  0  0  0  0  0  0  0  0  0  0  0
  151.7730  138.6953  159.9698 H   0  0  0  0  0  0  0  0  0  0  0  0
  152.8716  139.3593  161.1728 H   0  0  0  0  0  0  0  0  0  0  0  0
  153.3399  137.9464  160.2469 H   0  0  0  0  0  0  0  0  0  0  0  0
  154.5010  139.9701  159.3637 H   0  0  0  0  0  0  0  0  0  0  0  0
  154.2580  139.3365  157.1363 H   0  0  0  0  0  0  0  0  0  0  0  0
  153.2683  138.0425  157.8147 H   0  0  0  0  0  0  0  0  0  0  0  0
  149.7268  139.6696  153.4442 H   0  0  0  0  0  0  0  0  0  0  0  0
  151.4970  134.5255  156.8862 H   0  0  0  0  0  0  0  0  0  0  0  0
  150.3072  134.7583  153.5786 H   0  0  0  0  0  0  0  0  0  0  0  0
  147.8575  134.8893  155.4171 H   0  0  0  0  0  0  0  0  0  0  0  0
  147.9051  135.0947  153.6335 H   0  0  0  0  0  0  0  0  0  0  0  0
  147.6438  131.1881  155.1327 H   0  0  0  0  0  0  0  0  0  0  0  0
  147.3471  132.5668  156.1596 H   0  0  0  0  0  0  0  0  0  0  0  0
  145.7117  131.5195  154.5129 H   0  0  0  0  0  0  0  0  0  0  0  0
  147.5256  132.7340  152.3866 H   0  0  0  0  0  0  0  0  0  0  0  0
  149.2209  133.1190  152.2900 H   0  0  0  0  0  0  0  0  0  0  0  0
  149.0881  131.0174  151.8804 H   0  0  0  0  0  0  0  0  0  0  0  0
  150.6334  132.6015  154.6351 H   0  0  0  0  0  0  0  0  0  0  0  0
  149.7665  133.1242  156.1198 H   0  0  0  0  0  0  0  0  0  0  0  0
  151.2546  141.5772  157.3237 H   0  0  0  0  0  0  0  0  0  0  0  0
  150.7641  140.3022  158.4498 H   0  0  0  0  0  0  0  0  0  0  0  0
  153.4048  141.7946  158.3267 H   0  0  0  0  0  0  0  0  0  0  0  0
  152.6669  143.7750  159.3175 H   0  0  0  0  0  0  0  0  0  0  0  0
  151.0241  143.2173  159.0931 H   0  0  0  0  0  0  0  0  0  0  0  0
  151.1462  145.0048  160.8242 H   0  0  0  0  0  0  0  0  0  0  0  0
  150.5258  143.5089  161.4991 H   0  0  0  0  0  0  0  0  0  0  0  0
  153.7178  142.7344  163.0768 H   0  0  0  0  0  0  0  0  0  0  0  0
  152.0841  142.1311  162.8607 H   0  0  0  0  0  0  0  0  0  0  0  0
  153.6649  140.9158  161.3777 H   0  0  0  0  0  0  0  0  0  0  0  0
  154.2235  142.4162  160.6818 H   0  0  0  0  0  0  0  0  0  0  0  0
  1  2  1  0  0  0  0
  1 30  1  0  0  0  0
  1 31  1  0  0  0  0
  1 32  1  0  0  0  0
  2 23  1  0  0  0  0
  2  3  1  0  0  0  0
  2 33  1  0  0  0  0
  3  4  1  0  0  0  0
  3 34  1  0  0  0  0
  3 35  1  0  0  0  0
  4  5  1  0  0  0  0
  4 22  1  0  0  0  0
  5 10  1  0  0  0  0
  5  6  2  0  0  0  0
  6  7  1  0  0  0  0
  7  8  2  0  0  0  0
  7 36  1  0  0  0  0
  8  9  1  0  0  0  0
  9 13  1  0  0  0  0
  9 10  2  0  0  0  0
 10 11  1  0  0  0  0
 11 12  2  0  0  0  0
 12 13  1  0  0  0  0
 12 37  1  0  0  0  0
 13 14  1  0  0  0  0
 14 21  1  0  0  0  0
 14 15  1  0  0  0  0
 14 38  1  0  0  0  0
 15 16  1  0  0  0  0
 15 39  1  0  0  0  0
 15 40  1  0  0  0  0
 16 17  1  0  0  0  0
 16 19  1  0  0  0  0
 16 21  1  0  0  0  0
 17 18  1  0  0  0  0
 17 41  1  0  0  0  0
 17 42  1  0  0  0  0
 18 43  1  0  0  0  0
 19 20  1  0  0  0  0
 19 44  1  0  0  0  0
 19 45  1  0  0  0  0
 20 46  1  0  0  0  0
 21 47  1  0  0  0  0
 21 48  1  0  0  0  0
 22 23  1  0  0  0  0
 22 49  1  0  0  0  0
 22 50  1  0  0  0  0
 23 24  1  0  0  0  0
 23 51  1  0  0  0  0
 24 29  1  0  0  0  0
 24 25  1  0  0  0  0
 25 26  1  0  0  0  0
 25 52  1  0  0  0  0
 25 53  1  0  0  0  0
 26 27  1  0  0  0  0
 26 54  1  0  0  0  0
 26 55  1  0  0  0  0
 27 28  1  0  0  0  0
 28 29  1  0  0  0  0
 28 56  1  0  0  0  0
 28 57  1  0  0  0  0
 29 58  1  0  0  0  0
 29 59  1  0  0  0  0
M  END
> <s_m_source_file>
AV-unprocessed.smi

> <i_m_source_file_index>
149

> <i_lp_mmshare_version>
43012

> <i_f3d_flags>
0

> <s_epik_input>
W0NIMl0xW0NIMl1PW0NIMl1bQ0gyXU4xW0NAQEhdMltDSDJdTihbQ0gyXVtDQEhdMltDSDNdKWMobltjSF1uMyljKGMzNCluW2NIXW40W0NIXShbQ0gyXTUpW0NIMl1DNShbQ0gyXVtPSF0pW0NIMl1bT0hd

> <s_epik_cmdline>
J2VwaWtfcHl0aG9uJywgJy1waCcsICc3LjAnLCAnLXRuJywgJzgnLCAnLW1hJywgJzIwMCcsICctbWV0YWxfYmluZGluZycsICctaW1hZScsICc8aW5maWxlLm1hZT4nLCAnLW9tYWUnLCAnPG91dGZpbGUubWFlPic=

> <r_lp_tautomer_probability>
1

> <r_epik_Ionization_Penalty>
0.41918

> <r_epik_Ionization_Penalty_Charging>
0

> <r_epik_Ionization_Penalty_Neutral>
0.41918

> <r_epik_State_Penalty>
0.654916

> <r_epik_Charging_Adjusted_Penalty>
0.654916

> <i_epik_Tot_Q>
0

> <i_epik_Tot_abs_Q>
0

> <r_epik_Metal_State_Penalty>
0.653217

> <b_epik_Metal_Only>
0

> <s_lp_Force_Field>
OPLS_2005

> <r_lp_Energy>
77.678

> <b_lp_Chiralities_Consistent>
1

> <s_lp_Variant>
AV-unprocessed.smi:149-6

> <Gold.Version>
5.8.1

> <Gold.Id.Protein>
6NUR|6NUR_protein|mol2

> <Gold.PLP.Fitness>
44.8625

> <Gold.PLP.PLP>
-39.7009

> <Gold.PLP.part.hbond>
-1.7533

> <Gold.PLP.part.metal>
0.0000

> <Gold.PLP.part.buried>
-0.9585

> <Gold.PLP.part.nonpolar>
-38.1420

> <Gold.PLP.part.repulsive>
2.1560

> <Gold.PLP.ligand.clash>
0.0000

> <Gold.PLP.ligand.torsion>
1.1933

> <Gold.PLP.Chemscore.Hbond>
1.2616

> <Gold.PLP.Chemscore.CHOScore>
1.0000

> <Gold.PLP.Chemscore.Metal>
0.0000

> <Gold.Chemscore.Hbonds>
donor molecule, donor type, donor heavy atom, donor atom, acceptor molecule, acceptor atom, score
      L1  H    20    46       P1 10747  1.00
      P1  H  7989  7998       L1     6  0.22
      L1  C     7    36       P1  7957  1.00

> <Gold.PLP.Chemscore.Internal.Correction>
0.7632

> <Gold.Rescore>
     Score         DG    S(hbond)    S(metal)    S(lipo)     H(rot)  DE(clash)    DE(int)     intcor
     10.97     -14.51       1.33        0.00     105.79       3.04       2.21       1.33       ----

> <Gold.Chemscore.Fitness>
10.9679

> <Gold.Chemscore.DG>
-14.5090

> <Gold.Chemscore.ZeroCoef>
-5.4800

> <Gold.Chemscore.Hbond>
1.3266

> <Gold.Chemscore.Metal>
0.0000

> <Gold.Chemscore.Lipo>
105.7944

> <Gold.Chemscore.Internal_Hbond>
0.0000

> <Gold.Chemscore.DEClash>
2.2064

> <Gold.Chemscore.DEInternal>
1.3347

> <Gold.Chemscore.Rot>
3.0390

> <Gold.Chemscore.Internal.Correction>
   9.000000E+99

> <Gold.Chemscore.Hbonds>
donor molecule, donor type, donor heavy atom, donor atom, acceptor molecule, acceptor atom, score
      L1  H    20    46       P1 10747  0.34

> <Gold.Chemscore.Hbond.Weighted>
-4.4309

> <Gold.Chemscore.Metal.Weighted>
-0.0000

> <Gold.Chemscore.Lipo.Weighted>
-12.3779

> <Gold.Chemscore.Internal_Hbond.Weighted>
0.0000

> <Gold.Chemscore.DEClash.Weighted>
2.2064

> <Gold.Chemscore.DEInternal.Weighted>
1.3347

> <Gold.Chemscore.Rot.Weighted>
7.7798

> <Gold.Chemscore.Internal.Correction.Weighted>
   9.000000E+99

> <Gold.Protein.RotatedTorsions>
[ 6907 6896 6895 6894 ] final   35.33 input  -60.11 | X-H torsion
[ 7974 7965 7964 7962 ] final -167.55 input  175.53 | X-H torsion
[ 8008 7997 7996 7995 ] final  112.06 input   59.86 | X-H torsion
[ 10167 10162 10161 10158 ] final  161.05 input  -65.29 | X-H torsion
[ 10718 10713 10712 10709 ] final  -40.59 input   66.30 | X-H torsion
[ 10763 10752 10751 10750 ] final   49.78 input  -60.55 | X-H torsion
[ 11005 11000 10999 10996 ] final  -66.13 input  -57.11 | X-H torsion

> <Gold.Protein.ActiveResidues>
 VAL166  LYS551  ARG553  GLY616  TRP617  ASP618  TYR619  PRO620  LYS621  CYS622 
 ASP623  PHE694  ASN695  SER759  ASP760  ASP761  ALA762  ILE779  LEU786  VAL792 
 PHE793  MET794  SER795  GLU796  ALA797  LYS798  CYS799  TRP800  GLU811  SER814 

> <Gold.Protein.RotatedAtoms>
  152.1146  134.9249  160.0565 H   0  0  0  0  0  0  0  0  0  0  0  0  # atno 6907 bound_to 6896
  152.0414  133.3974  159.4346 H   0  0  0  0  0  0  0  0  0  0  0  0  # atno 6908 bound_to 6896
  150.6845  134.3332  159.4879 H   0  0  0  0  0  0  0  0  0  0  0  0  # atno 6909 bound_to 6896
  144.7221  140.2502  143.6279 H   0  0  0  0  0  0  0  0  0  0  0  0  # atno 7974 bound_to 7965
  156.2167  140.3007  155.9856 H   0  0  0  0  0  0  0  0  0  0  0  0  # atno 8008 bound_to 7997
  155.2587  140.0429  157.3012 H   0  0  0  0  0  0  0  0  0  0  0  0  # atno 8009 bound_to 7997
  154.5778  140.2366  155.8105 H   0  0  0  0  0  0  0  0  0  0  0  0  # atno 8010 bound_to 7997
  139.4845  144.4574  151.8750 H   0  0  0  0  0  0  0  0  0  0  0  0  # atno 10167 bound_to 10162
  156.2796  130.4215  149.8350 H   0  0  0  0  0  0  0  0  0  0  0  0  # atno 10718 bound_to 10713
  152.9786  135.5900  154.4145 H   0  0  0  0  0  0  0  0  0  0  0  0  # atno 10763 bound_to 10752
  154.3776  135.2767  155.2232 H   0  0  0  0  0  0  0  0  0  0  0  0  # atno 10764 bound_to 10752
  154.4159  135.6070  153.6035 H   0  0  0  0  0  0  0  0  0  0  0  0  # atno 10765 bound_to 10752
  141.1474  133.6694  156.6092 H   0  0  0  0  0  0  0  0  0  0  0  0  # atno 11005 bound_to 11000
  145.8235  139.2054  143.1924 LP  0  0  0  0  0  0  0  0  0  0  0  0  # atno 17320 bound_to 7965
  146.0493  140.8085  142.9789 LP  0  0  0  0  0  0  0  0  0  0  0  0  # atno 17321 bound_to 7965
  140.4034  144.2463  150.5892 LP  0  0  0  0  0  0  0  0  0  0  0  0  # atno 17342 bound_to 10162
  140.5035  143.2311  151.8643 LP  0  0  0  0  0  0  0  0  0  0  0  0  # atno 17343 bound_to 10162
  156.5802  130.8462  151.3381 LP  0  0  0  0  0  0  0  0  0  0  0  0  # atno 17370 bound_to 10713
  157.7310  130.9694  150.1860 LP  0  0  0  0  0  0  0  0  0  0  0  0  # atno 17371 bound_to 10713
  140.3628  134.7673  157.4545 LP  0  0  0  0  0  0  0  0  0  0  0  0  # atno 17394 bound_to 11000
  140.0772  134.5781  155.8579 LP  0  0  0  0  0  0  0  0  0  0  0  0  # atno 17395 bound_to 11000

$$$$
