AV-unprocessed.smi:37|AV-procd|sdf|319|dock4
  -GOLD-   2262016143D 1   1.00000     0.00000
 Structure written by MMmdl.
 43 44  0  0  0  0  0  0  0  0  2 V2000
  146.3775  135.7842  162.9602 C   0  0  0  0  0  0  0  0  0  0  0  0
  146.9743  135.1619  161.6906 C   0  0  0  0  0  0  0  0  0  0  0  0
  147.4378  136.2202  160.6920 C   0  0  0  0  0  0  0  0  0  0  0  0
  147.1512  137.4087  160.8376 O   0  0  0  0  0  0  0  0  0  0  0  0
  148.1555  135.7013  159.6833 O   0  0  0  0  0  0  0  0  0  0  0  0
  148.8526  136.5657  158.8019 C   0  0  0  0  0  0  0  0  0  0  0  0
  149.0121  135.8810  157.4406 C   0  0  2  0  0  0  0  0  0  0  0  0
  149.5610  134.5726  157.6084 O   0  0  0  0  0  0  0  0  0  0  0  0
  150.6946  134.4226  156.8078 C   0  0  1  0  0  0  0  0  0  0  0  0
  150.7673  133.0145  156.2643 N   0  0  0  0  0  0  0  0  0  0  0  0
  151.9712  132.3341  156.1820 C   0  0  0  0  0  0  0  0  0  0  0  0
  152.0301  131.0768  155.6973 C   0  0  0  0  0  0  0  0  0  0  0  0
  153.2116  130.4390  155.6337 F   0  0  0  0  0  0  0  0  0  0  0  0
  150.8060  130.4164  155.2471 C   0  0  0  0  0  0  0  0  0  0  0  0
  150.8664  129.2710  154.8032 O   0  0  0  0  0  0  0  0  0  0  0  0
  149.6350  131.1110  155.3412 N   0  5  0  0  0  0  0  0  0  0  0  0
  149.5701  132.3828  155.8331 C   0  0  0  0  0  0  0  0  0  0  0  0
  148.5191  133.0177  155.9255 O   0  0  0  0  0  0  0  0  0  0  0  0
  150.5892  135.4817  155.7089 C   0  0  1  0  0  0  0  0  0  0  0  0
  149.3405  134.9209  154.2487 Br  0  0  0  0  0  0  0  0  0  0  0  0
  149.9847  136.6189  156.5132 C   0  0  1  0  0  0  0  0  0  0  0  0
  149.3171  137.5779  155.7032 O   0  0  0  0  0  0  0  0  0  0  0  0
  150.0159  138.5452  155.0826 C   0  0  0  0  0  0  0  0  0  0  0  0
  151.2426  138.6456  155.0547 O   0  0  0  0  0  0  0  0  0  0  0  0
  149.1188  139.5512  154.3652 C   0  0  0  0  0  0  0  0  0  0  0  0
  149.4024  140.9956  154.7993 C   0  0  0  0  0  0  0  0  0  0  0  0
  146.0274  135.0071  163.6398 H   0  0  0  0  0  0  0  0  0  0  0  0
  145.5269  136.4253  162.7256 H   0  0  0  0  0  0  0  0  0  0  0  0
  147.1136  136.3839  163.4969 H   0  0  0  0  0  0  0  0  0  0  0  0
  147.8215  134.5262  161.9489 H   0  0  0  0  0  0  0  0  0  0  0  0
  146.2339  134.5227  161.2088 H   0  0  0  0  0  0  0  0  0  0  0  0
  148.2790  137.4867  158.6882 H   0  0  0  0  0  0  0  0  0  0  0  0
  149.8284  136.8332  159.2101 H   0  0  0  0  0  0  0  0  0  0  0  0
  148.0439  135.7774  156.9479 H   0  0  0  0  0  0  0  0  0  0  0  0
  151.5749  134.5493  157.4412 H   0  0  0  0  0  0  0  0  0  0  0  0
  152.8853  132.8017  156.5161 H   0  0  0  0  0  0  0  0  0  0  0  0
  151.5617  135.7135  155.2736 H   0  0  0  0  0  0  0  0  0  0  0  0
  150.7624  137.0858  157.1204 H   0  0  0  0  0  0  0  0  0  0  0  0
  149.2681  139.4521  153.2896 H   0  0  0  0  0  0  0  0  0  0  0  0
  148.0772  139.2981  154.5645 H   0  0  0  0  0  0  0  0  0  0  0  0
  148.7756  141.6930  154.2438 H   0  0  0  0  0  0  0  0  0  0  0  0
  150.4424  141.2682  154.6162 H   0  0  0  0  0  0  0  0  0  0  0  0
  149.1971  141.1425  155.8602 H   0  0  0  0  0  0  0  0  0  0  0  0
  1  2  1  0  0  0  0
  1 27  1  0  0  0  0
  1 28  1  0  0  0  0
  1 29  1  0  0  0  0
  2  3  1  0  0  0  0
  2 30  1  0  0  0  0
  2 31  1  0  0  0  0
  3  4  2  0  0  0  0
  3  5  1  0  0  0  0
  5  6  1  0  0  0  0
  6  7  1  0  0  0  0
  6 32  1  0  0  0  0
  6 33  1  0  0  0  0
  7 21  1  0  0  0  0
  7  8  1  0  0  0  0
  7 34  1  0  0  0  0
  8  9  1  0  0  0  0
  9 10  1  0  0  0  0
  9 19  1  0  0  0  0
  9 35  1  0  0  0  0
 10 17  1  0  0  0  0
 10 11  1  0  0  0  0
 11 12  2  0  0  0  0
 11 36  1  0  0  0  0
 12 13  1  0  0  0  0
 12 14  1  0  0  0  0
 14 15  2  0  0  0  0
 14 16  1  0  0  0  0
 16 17  1  0  0  0  0
 17 18  2  0  0  0  0
 19 20  1  0  0  0  0
 19 21  1  0  0  0  0
 19 37  1  0  0  0  0
 21 22  1  0  0  0  0
 21 38  1  0  0  0  0
 22 23  1  0  0  0  0
 23 24  2  0  0  0  0
 23 25  1  0  0  0  0
 25 26  1  0  0  0  0
 25 39  1  0  0  0  0
 25 40  1  0  0  0  0
 26 41  1  0  0  0  0
 26 42  1  0  0  0  0
 26 43  1  0  0  0  0
M  CHG  1  16  -1
M  END
> <s_m_source_file>
AV-unprocessed.smi

> <i_m_source_file_index>
37

> <i_lp_mmshare_version>
43012

> <i_f3d_flags>
0

> <s_epik_input>
W0NIM11bQ0gyXUMoPU8pT1tDSDJdW0NAQEhdMU9bQ0BASF0objJbY0hdYyhGKWMoPU8pW25IXWMyPU8pW0NAQEhdKEJyKVtDQEhdMU9DKD1PKVtDSDJdW0NIM10=

> <s_epik_cmdline>
J2VwaWtfcHl0aG9uJywgJy1waCcsICc3LjAnLCAnLXRuJywgJzgnLCAnLW1hJywgJzIwMCcsICctbWV0YWxfYmluZGluZycsICctaW1hZScsICc8aW5maWxlLm1hZT4nLCAnLW9tYWUnLCAnPG91dGZpbGUubWFlPic=

> <r_epik_Ionization_Penalty>
1.08158

> <r_epik_Ionization_Penalty_Charging>
9.05154e-09

> <r_epik_Ionization_Penalty_Neutral>
1.08158

> <r_epik_State_Penalty>
1.13706

> <r_epik_Charging_Adjusted_Penalty>
1.13706

> <i_epik_Tot_Q>
-1

> <i_epik_Tot_abs_Q>
1

> <r_epik_Metal_State_Penalty>
0.00343535

> <b_epik_Metal_Only>
0

> <s_epik_Chemistry_Notes>
This compound has an ester and may undergo hydrolysis at high or low pH. This compound contains an acetal/aminal-like group ( X-CH(R)-Y where X, Y are N, S, or O) that may be acid/base labile, releasing an aldehyde.

> <s_lp_Force_Field>
OPLS_2005

> <r_lp_Energy>
34.8687

> <b_lp_Chiralities_Consistent>
1

> <s_lp_Variant>
AV-unprocessed.smi:37-17

> <Gold.Version>
5.8.1

> <Gold.Id.Protein>
6NUR|6NUR_protein|mol2

> <Gold.PLP.Fitness>
43.6821

> <Gold.PLP.PLP>
-37.4144

> <Gold.PLP.part.hbond>
-3.8179

> <Gold.PLP.part.metal>
0.0000

> <Gold.PLP.part.buried>
-2.4325

> <Gold.PLP.part.nonpolar>
-32.0032

> <Gold.PLP.part.repulsive>
0.3328

> <Gold.PLP.ligand.clash>
0.0000

> <Gold.PLP.ligand.torsion>
1.2005

> <Gold.PLP.Chemscore.Hbond>
2.7760

> <Gold.PLP.Chemscore.CHOScore>
0.0000

> <Gold.PLP.Chemscore.Metal>
0.0000

> <Gold.Chemscore.Hbonds>
donor molecule, donor type, donor heavy atom, donor atom, acceptor molecule, acceptor atom, score
      P1  H  6896  6907       L1     8  0.27
      P1  H  6931  6943       L1     4  0.20
      P1  H  6934  6947       L1     4  1.00

> <Gold.PLP.Chemscore.Internal.Correction>
0.3407

> <Gold.Rescore>
     Score         DG    S(hbond)    S(metal)    S(lipo)     H(rot)  DE(clash)    DE(int)     intcor
      5.26     -11.15       2.08        0.00      60.68       3.27       0.34       5.55       ----

> <Gold.Chemscore.Fitness>
5.2619

> <Gold.Chemscore.DG>
-11.1474

> <Gold.Chemscore.ZeroCoef>
-5.4800

> <Gold.Chemscore.Hbond>
2.0752

> <Gold.Chemscore.Metal>
0.0000

> <Gold.Chemscore.Lipo>
60.6798

> <Gold.Chemscore.Internal_Hbond>
0.0000

> <Gold.Chemscore.DEClash>
0.3354

> <Gold.Chemscore.DEInternal>
5.5502

> <Gold.Chemscore.Rot>
3.2669

> <Gold.Chemscore.Internal.Correction>
   9.000000E+99

> <Gold.Chemscore.Hbonds>
donor molecule, donor type, donor heavy atom, donor atom, acceptor molecule, acceptor atom, score
      P1  H  6896  6907       L1     8  0.01
      P1  H  6931  6943       L1     4  0.08
      P1  H  6934  6947       L1     4  0.99

> <Gold.Chemscore.Hbond.Weighted>
-6.9312

> <Gold.Chemscore.Metal.Weighted>
-0.0000

> <Gold.Chemscore.Lipo.Weighted>
-7.0995

> <Gold.Chemscore.Internal_Hbond.Weighted>
0.0000

> <Gold.Chemscore.DEClash.Weighted>
0.3354

> <Gold.Chemscore.DEInternal.Weighted>
5.5502

> <Gold.Chemscore.Rot.Weighted>
8.3634

> <Gold.Chemscore.Internal.Correction.Weighted>
   9.000000E+99

> <Gold.Protein.RotatedTorsions>
[ 6907 6896 6895 6894 ] final -112.82 input  -60.11 | X-H torsion
[ 7974 7965 7964 7962 ] final -146.40 input  175.53 | X-H torsion
[ 8008 7997 7996 7995 ] final -143.97 input   59.86 | X-H torsion
[ 10167 10162 10161 10158 ] final  131.95 input  -65.29 | X-H torsion
[ 10718 10713 10712 10709 ] final  -74.67 input   66.30 | X-H torsion
[ 10763 10752 10751 10750 ] final  120.67 input  -60.55 | X-H torsion
[ 11005 11000 10999 10996 ] final  170.74 input  -57.11 | X-H torsion

> <Gold.Protein.ActiveResidues>
 VAL166  LYS551  ARG553  GLY616  TRP617  ASP618  TYR619  PRO620  LYS621  CYS622 
 ASP623  PHE694  ASN695  SER759  ASP760  ASP761  ALA762  ILE779  LEU786  VAL792 
 PHE793  MET794  SER795  GLU796  ALA797  LYS798  CYS799  TRP800  GLU811  SER814 

> <Gold.Protein.RotatedAtoms>
  150.7785  133.9033  159.3347 H   0  0  0  0  0  0  0  0  0  0  0  0  # atno 6907 bound_to 6896
  151.6902  135.0946  160.0241 H   0  0  0  0  0  0  0  0  0  0  0  0  # atno 6908 bound_to 6896
  152.3829  133.6533  159.6211 H   0  0  0  0  0  0  0  0  0  0  0  0  # atno 6909 bound_to 6896
  144.8162  140.5461  143.5609 H   0  0  0  0  0  0  0  0  0  0  0  0  # atno 7974 bound_to 7965
  155.5193  140.0590  157.2909 H   0  0  0  0  0  0  0  0  0  0  0  0  # atno 8008 bound_to 7997
  154.4523  140.1955  156.0428 H   0  0  0  0  0  0  0  0  0  0  0  0  # atno 8009 bound_to 7997
  156.0730  140.3257  155.7603 H   0  0  0  0  0  0  0  0  0  0  0  0  # atno 8010 bound_to 7997
  139.5361  144.6684  151.4781 H   0  0  0  0  0  0  0  0  0  0  0  0  # atno 10167 bound_to 10162
  156.0234  130.4422  150.2928 H   0  0  0  0  0  0  0  0  0  0  0  0  # atno 10718 bound_to 10713
  153.6021  135.3446  155.2949 H   0  0  0  0  0  0  0  0  0  0  0  0  # atno 10763 bound_to 10752
  154.8634  135.4230  154.2401 H   0  0  0  0  0  0  0  0  0  0  0  0  # atno 10764 bound_to 10752
  153.3232  135.7039  153.7084 H   0  0  0  0  0  0  0  0  0  0  0  0  # atno 10765 bound_to 10752
  140.3115  134.7512  157.3995 H   0  0  0  0  0  0  0  0  0  0  0  0  # atno 11005 bound_to 11000
  145.5209  139.1477  143.3553 LP  0  0  0  0  0  0  0  0  0  0  0  0  # atno 17320 bound_to 7965
  146.2465  140.5350  142.8911 LP  0  0  0  0  0  0  0  0  0  0  0  0  # atno 17321 bound_to 7965
  140.6568  143.8582  150.6844 LP  0  0  0  0  0  0  0  0  0  0  0  0  # atno 17342 bound_to 10162
  140.1964  143.3994  152.1825 LP  0  0  0  0  0  0  0  0  0  0  0  0  # atno 17343 bound_to 10162
  157.1031  131.0201  151.3077 LP  0  0  0  0  0  0  0  0  0  0  0  0  # atno 17370 bound_to 10713
  157.4764  130.7739  149.7372 LP  0  0  0  0  0  0  0  0  0  0  0  0  # atno 17371 bound_to 10713
  140.1020  134.5459  155.8344 LP  0  0  0  0  0  0  0  0  0  0  0  0  # atno 17394 bound_to 11000
  141.2107  133.6698  156.6528 LP  0  0  0  0  0  0  0  0  0  0  0  0  # atno 17395 bound_to 11000

$$$$
