AV-unprocessed.smi:1950|AV-procd|sdf|7880|dock10
  -GOLD-   2272010 33D 1   1.00000     0.00000
 Structure written by MMmdl.
 32 33  0  0  0  0  0  0  0  0  2 V2000
  153.3580  141.9135  161.9781 C   0  0  0  0  0  0  0  0  0  0  0  0
  152.8110  143.2891  161.5903 C   0  0  0  0  0  0  0  0  0  0  0  0
  152.5169  144.0697  162.4960 O   0  0  0  0  0  0  0  0  0  0  0  0
  152.6699  143.6009  160.2793 N   0  0  0  0  0  0  0  0  0  0  0  0
  152.9581  142.6479  159.2008 C   0  0  0  0  0  0  0  0  0  0  0  0
  151.6352  142.2395  158.5276 C   0  0  0  0  0  0  0  0  0  0  0  0
  150.8596  143.4727  158.0176 C   0  0  0  0  0  0  0  0  0  0  0  0
  149.5396  143.0615  157.5466 N   0  0  0  0  0  0  0  0  0  0  0  0
  148.4699  142.8082  158.3146 C   0  0  0  0  0  0  0  0  0  0  0  0
  148.5535  142.9107  159.5407 O   0  0  0  0  0  0  0  0  0  0  0  0
  147.3688  142.4520  157.6142 N   0  5  0  0  0  0  0  0  0  0  0  0
  146.1832  142.3412  158.2361 C   0  0  0  0  0  0  0  0  0  0  0  0
  146.0820  142.1895  159.5663 N   0  0  0  0  0  0  0  0  0  0  0  0
  144.7691  142.0884  160.0062 N   0  0  0  0  0  0  0  0  0  0  0  0
  143.9095  142.1601  158.9904 C   0  0  0  0  0  0  0  0  0  0  0  0
  144.6255  142.3523  157.4042 S   0  0  0  0  0  0  0  0  0  0  0  0
  150.7369  144.5520  159.1175 C   0  0  0  0  0  0  0  0  0  0  0  0
  152.1033  144.8518  159.7591 C   0  0  0  0  0  0  0  0  0  0  0  0
  154.3496  141.7567  161.5529 H   0  0  0  0  0  0  0  0  0  0  0  0
  152.6931  141.1220  161.6313 H   0  0  0  0  0  0  0  0  0  0  0  0
  153.4434  141.8257  163.0617 H   0  0  0  0  0  0  0  0  0  0  0  0
  153.6206  143.1167  158.4718 H   0  0  0  0  0  0  0  0  0  0  0  0
  153.4843  141.7589  159.5510 H   0  0  0  0  0  0  0  0  0  0  0  0
  151.8334  141.5551  157.7020 H   0  0  0  0  0  0  0  0  0  0  0  0
  151.0250  141.6892  159.2458 H   0  0  0  0  0  0  0  0  0  0  0  0
  151.4225  143.8928  157.1820 H   0  0  0  0  0  0  0  0  0  0  0  0
  149.4238  142.9619  156.5488 H   0  0  0  0  0  0  0  0  0  0  0  0
  142.8479  142.0954  159.1759 H   0  0  0  0  0  0  0  0  0  0  0  0
  150.3150  145.4675  158.7014 H   0  0  0  0  0  0  0  0  0  0  0  0
  150.0435  144.2163  159.8902 H   0  0  0  0  0  0  0  0  0  0  0  0
  151.9940  145.6301  160.5128 H   0  0  0  0  0  0  0  0  0  0  0  0
  152.7804  145.2665  159.0110 H   0  0  0  0  0  0  0  0  0  0  0  0
  1  2  1  0  0  0  0
  1 19  1  0  0  0  0
  1 20  1  0  0  0  0
  1 21  1  0  0  0  0
  2  3  2  0  0  0  0
  2  4  1  0  0  0  0
  4 18  1  0  0  0  0
  4  5  1  0  0  0  0
  5  6  1  0  0  0  0
  5 22  1  0  0  0  0
  5 23  1  0  0  0  0
  6  7  1  0  0  0  0
  6 24  1  0  0  0  0
  6 25  1  0  0  0  0
  7  8  1  0  0  0  0
  7 17  1  0  0  0  0
  7 26  1  0  0  0  0
  8  9  1  0  0  0  0
  8 27  1  0  0  0  0
  9 10  2  0  0  0  0
  9 11  1  0  0  0  0
 11 12  1  0  0  0  0
 12 16  1  0  0  0  0
 12 13  2  0  0  0  0
 13 14  1  0  0  0  0
 14 15  2  0  0  0  0
 15 16  1  0  0  0  0
 15 28  1  0  0  0  0
 17 18  1  0  0  0  0
 17 29  1  0  0  0  0
 17 30  1  0  0  0  0
 18 31  1  0  0  0  0
 18 32  1  0  0  0  0
M  CHG  1  11  -1
M  END
> <s_m_source_file>
AV-unprocessed.smi

> <i_m_source_file_index>
1950

> <i_lp_mmshare_version>
43012

> <i_f3d_flags>
0

> <s_epik_input>
W0NIM11DKD1PKU4xW0NIMl1bQ0gyXVtDSF0oW0NIMl1bQ0gyXTEpW05IXUMoPU8pW05IXWMybm5bY0hdczI=

> <s_epik_cmdline>
J2VwaWtfcHl0aG9uJywgJy1waCcsICc3LjAnLCAnLXRuJywgJzgnLCAnLW1hJywgJzIwMCcsICctbWV0YWxfYmluZGluZycsICctaW1hZScsICc8aW5maWxlLm1hZT4nLCAnLW9tYWUnLCAnPG91dGZpbGUubWFlPic=

> <r_lp_tautomer_probability>
1

> <r_epik_Ionization_Penalty>
3.45176

> <r_epik_Ionization_Penalty_Charging>
3.40771

> <r_epik_Ionization_Penalty_Neutral>
0.0440522

> <r_epik_State_Penalty>
3.40583

> <r_epik_Charging_Adjusted_Penalty>
6.81354

> <i_epik_Tot_Q>
-1

> <i_epik_Tot_abs_Q>
1

> <r_epik_Metal_State_Penalty>
0.49593

> <b_epik_Metal_Only>
1

> <s_lp_Force_Field>
OPLS_2005

> <r_lp_Energy>
20.3266

> <b_lp_Chiralities_Consistent>
1

> <s_lp_Variant>
AV-unprocessed.smi:1950-2

> <Gold.Version>
5.8.1

> <Gold.Id.Protein>
6NUR|6NUR_protein|mol2

> <Gold.PLP.Fitness>
35.3703

> <Gold.PLP.PLP>
-31.0875

> <Gold.PLP.part.hbond>
-3.0677

> <Gold.PLP.part.metal>
0.0000

> <Gold.PLP.part.buried>
-4.0051

> <Gold.PLP.part.nonpolar>
-24.4883

> <Gold.PLP.part.repulsive>
0.5548

> <Gold.PLP.ligand.clash>
0.0000

> <Gold.PLP.ligand.torsion>
0.3469

> <Gold.PLP.Chemscore.Hbond>
1.6540

> <Gold.PLP.Chemscore.CHOScore>
0.0000

> <Gold.PLP.Chemscore.Metal>
0.0000

> <Gold.Chemscore.Hbonds>
donor molecule, donor type, donor heavy atom, donor atom, acceptor molecule, acceptor atom, score
      L1  H     8    27       P1  8028  0.23
      P1  H  6933  6944       L1    10  0.43
      P1  H  6934  6946       L1    13  1.00

> <Gold.PLP.Chemscore.Internal.Correction>
0.0145

> <Gold.Rescore>
     Score         DG    S(hbond)    S(metal)    S(lipo)     H(rot)  DE(clash)    DE(int)     intcor
     11.48     -15.06       1.42        0.00      63.35       1.00       0.20       3.38       ----

> <Gold.Chemscore.Fitness>
11.4798

> <Gold.Chemscore.DG>
-15.0604

> <Gold.Chemscore.ZeroCoef>
-5.4800

> <Gold.Chemscore.Hbond>
1.4155

> <Gold.Chemscore.Metal>
0.0000

> <Gold.Chemscore.Lipo>
63.3547

> <Gold.Chemscore.Internal_Hbond>
0.0000

> <Gold.Chemscore.DEClash>
0.1963

> <Gold.Chemscore.DEInternal>
3.3842

> <Gold.Chemscore.Rot>
1.0000

> <Gold.Chemscore.Internal.Correction>
   9.000000E+99

> <Gold.Chemscore.Hbonds>
donor molecule, donor type, donor heavy atom, donor atom, acceptor molecule, acceptor atom, score
      L1  H     8    27       P1  8028  0.22
      P1  H  6933  6944       L1    10  0.41
      P1  H  6934  6946       L1    13  0.25

> <Gold.Chemscore.Hbond.Weighted>
-4.7279

> <Gold.Chemscore.Metal.Weighted>
-0.0000

> <Gold.Chemscore.Lipo.Weighted>
-7.4125

> <Gold.Chemscore.Internal_Hbond.Weighted>
0.0000

> <Gold.Chemscore.DEClash.Weighted>
0.1963

> <Gold.Chemscore.DEInternal.Weighted>
3.3842

> <Gold.Chemscore.Rot.Weighted>
2.5600

> <Gold.Chemscore.Internal.Correction.Weighted>
   9.000000E+99

> <Gold.Protein.RotatedTorsions>
[ 6907 6896 6895 6894 ] final   76.67 input  -60.11 | X-H torsion
[ 7974 7965 7964 7962 ] final   83.24 input  175.53 | X-H torsion
[ 8008 7997 7996 7995 ] final   37.32 input   59.86 | X-H torsion
[ 10167 10162 10161 10158 ] final  -90.99 input  -65.29 | X-H torsion
[ 10718 10713 10712 10709 ] final   92.19 input   66.30 | X-H torsion
[ 10763 10752 10751 10750 ] final -147.73 input  -60.55 | X-H torsion
[ 11005 11000 10999 10996 ] final  -80.43 input  -57.11 | X-H torsion

> <Gold.Protein.ActiveResidues>
 VAL166  LYS551  ARG553  GLY616  TRP617  ASP618  TYR619  PRO620  LYS621  CYS622 
 ASP623  PHE694  ASN695  SER759  ASP760  ASP761  ALA762  ILE779  LEU786  VAL792 
 PHE793  MET794  SER795  GLU796  ALA797  LYS798  CYS799  TRP800  GLU811  SER814 

> <Gold.Protein.RotatedAtoms>
  152.5083  134.3933  159.9391 H   0  0  0  0  0  0  0  0  0  0  0  0  # atno 6907 bound_to 6896
  151.3894  133.3788  159.2727 H   0  0  0  0  0  0  0  0  0  0  0  0  # atno 6908 bound_to 6896
  150.9444  134.8871  159.7691 H   0  0  0  0  0  0  0  0  0  0  0  0  # atno 6909 bound_to 6896
  145.6145  139.2374  143.2173 H   0  0  0  0  0  0  0  0  0  0  0  0  # atno 7974 bound_to 7965
  155.2018  140.3316  155.4342 H   0  0  0  0  0  0  0  0  0  0  0  0  # atno 8008 bound_to 7997
  156.2404  140.1892  156.7054 H   0  0  0  0  0  0  0  0  0  0  0  0  # atno 8009 bound_to 7997
  154.6137  140.0605  156.9512 H   0  0  0  0  0  0  0  0  0  0  0  0  # atno 8010 bound_to 7997
  140.3494  143.2899  151.9744 H   0  0  0  0  0  0  0  0  0  0  0  0  # atno 10167 bound_to 10162
  157.6959  131.0434  150.3844 H   0  0  0  0  0  0  0  0  0  0  0  0  # atno 10718 bound_to 10713
  154.8270  135.3353  154.6863 H   0  0  0  0  0  0  0  0  0  0  0  0  # atno 10763 bound_to 10752
  153.7488  135.6940  153.4955 H   0  0  0  0  0  0  0  0  0  0  0  0  # atno 10764 bound_to 10752
  153.2191  135.4455  155.0419 H   0  0  0  0  0  0  0  0  0  0  0  0  # atno 10765 bound_to 10752
  141.1668  133.7150  156.8272 H   0  0  0  0  0  0  0  0  0  0  0  0  # atno 11005 bound_to 11000
  146.1479  140.6967  142.9336 LP  0  0  0  0  0  0  0  0  0  0  0  0  # atno 17320 bound_to 7965
  144.7256  140.4514  143.6975 LP  0  0  0  0  0  0  0  0  0  0  0  0  # atno 17321 bound_to 7965
  139.4828  144.6089  151.7470 LP  0  0  0  0  0  0  0  0  0  0  0  0  # atno 17342 bound_to 10162
  140.5234  144.0844  150.6029 LP  0  0  0  0  0  0  0  0  0  0  0  0  # atno 17343 bound_to 10162
  156.4254  130.3961  149.6796 LP  0  0  0  0  0  0  0  0  0  0  0  0  # atno 17370 bound_to 10713
  156.4032  130.7685  151.2694 LP  0  0  0  0  0  0  0  0  0  0  0  0  # atno 17371 bound_to 10713
  140.2077  134.8850  157.3240 LP  0  0  0  0  0  0  0  0  0  0  0  0  # atno 17394 bound_to 11000
  140.2120  134.4127  155.7608 LP  0  0  0  0  0  0  0  0  0  0  0  0  # atno 17395 bound_to 11000

$$$$
