AV-unprocessed.smi:2690|AV-procd|sdf|10389|dock2
  -GOLD-   2272014423D 1   1.00000     0.00000
 Structure written by MMmdl.
 47 49  0  0  0  0  0  0  0  0  1 V2000
  145.2931  143.3360  157.2726 C   0  0  0  0  0  0  0  0  0  0  0  0
  145.7465  142.2239  156.3165 C   0  0  2  0  0  0  0  0  0  0  0  0
  146.8968  141.3975  156.9221 C   0  0  0  0  0  0  0  0  0  0  0  0
  147.3707  140.2943  155.9596 C   0  0  0  0  0  0  0  0  0  0  0  0
  147.7816  140.8477  154.5761 C   0  0  2  0  0  0  0  0  0  0  0  0
  147.9545  139.7266  153.7293 O   0  0  0  0  0  0  0  0  0  0  0  0
  149.1387  141.6024  154.6368 C   0  0  0  0  0  0  0  0  0  0  0  0
  150.1707  140.9171  155.4027 N   0  0  0  0  0  0  0  0  0  0  0  0
  150.8859  141.4259  156.4648 C   0  0  0  0  0  0  0  0  0  0  0  0
  151.7640  140.6144  156.9885 N   0  0  0  0  0  0  0  0  0  0  0  0
  151.6530  139.4616  156.2224 C   0  0  0  0  0  0  0  0  0  0  0  0
  152.3049  138.2012  156.2430 C   0  0  0  0  0  0  0  0  0  0  0  0
  153.2637  137.9282  157.1561 N   0  0  0  0  0  0  0  0  0  0  0  0
  153.3544  138.6686  158.4118 C   0  0  0  0  0  0  0  0  0  0  0  0
  154.5880  138.2424  159.2253 C   0  0  0  0  0  0  0  0  0  0  0  0
  152.0688  138.4752  159.2262 C   0  0  0  0  0  0  0  0  0  0  0  0
  151.9362  137.2841  155.3101 N   0  0  0  0  0  0  0  0  0  0  0  0
  150.9878  137.5813  154.4165 C   0  0  0  0  0  0  0  0  0  0  0  0
  150.2947  138.7141  154.2804 N   0  0  0  0  0  0  0  0  0  0  0  0
  150.6619  139.6358  155.2162 C   0  0  0  0  0  0  0  0  0  0  0  0
  146.6232  141.6866  153.9851 C   0  0  0  0  0  0  0  0  0  0  0  0
  146.1540  142.7942  154.9451 C   0  0  0  0  0  0  0  0  0  0  0  0
  146.1002  144.0419  157.4704 H   0  0  0  0  0  0  0  0  0  0  0  0
  144.9690  142.9240  158.2286 H   0  0  0  0  0  0  0  0  0  0  0  0
  144.4563  143.8963  156.8545 H   0  0  0  0  0  0  0  0  0  0  0  0
  144.8977  141.5561  156.1628 H   0  0  0  0  0  0  0  0  0  0  0  0
  147.7303  142.0516  157.1788 H   0  0  0  0  0  0  0  0  0  0  0  0
  146.5712  140.9428  157.8584 H   0  0  0  0  0  0  0  0  0  0  0  0
  148.1966  139.7411  156.4087 H   0  0  0  0  0  0  0  0  0  0  0  0
  146.5579  139.5761  155.8382 H   0  0  0  0  0  0  0  0  0  0  0  0
  148.6273  139.9291  153.0974 H   0  0  0  0  0  0  0  0  0  0  0  0
  149.5263  141.7766  153.6334 H   0  0  0  0  0  0  0  0  0  0  0  0
  148.9982  142.5912  155.0756 H   0  0  0  0  0  0  0  0  0  0  0  0
  150.7317  142.4250  156.8456 H   0  0  0  0  0  0  0  0  0  0  0  0
  153.9882  137.2426  156.9984 H   0  0  0  0  0  0  0  0  0  0  0  0
  153.4349  139.7330  158.1882 H   0  0  0  0  0  0  0  0  0  0  0  0
  154.6530  138.8027  160.1583 H   0  0  0  0  0  0  0  0  0  0  0  0
  155.5131  138.4186  158.6761 H   0  0  0  0  0  0  0  0  0  0  0  0
  154.5490  137.1822  159.4771 H   0  0  0  0  0  0  0  0  0  0  0  0
  152.1004  139.0515  160.1513 H   0  0  0  0  0  0  0  0  0  0  0  0
  151.9189  137.4280  159.4914 H   0  0  0  0  0  0  0  0  0  0  0  0
  151.1950  138.8055  158.6638 H   0  0  0  0  0  0  0  0  0  0  0  0
  150.7504  136.7996  153.7101 H   0  0  0  0  0  0  0  0  0  0  0  0
  146.9014  142.1184  153.0236 H   0  0  0  0  0  0  0  0  0  0  0  0
  145.7733  141.0341  153.7780 H   0  0  0  0  0  0  0  0  0  0  0  0
  145.3121  143.3249  154.4992 H   0  0  0  0  0  0  0  0  0  0  0  0
  146.9438  143.5332  155.0763 H   0  0  0  0  0  0  0  0  0  0  0  0
  1  2  1  0  0  0  0
  1 23  1  0  0  0  0
  1 24  1  0  0  0  0
  1 25  1  0  0  0  0
  2 22  1  0  0  0  0
  2  3  1  0  0  0  0
  2 26  1  0  0  0  0
  3  4  1  0  0  0  0
  3 27  1  0  0  0  0
  3 28  1  0  0  0  0
  4  5  1  0  0  0  0
  4 29  1  0  0  0  0
  4 30  1  0  0  0  0
  5  6  1  0  0  0  0
  5  7  1  0  0  0  0
  5 21  1  0  0  0  0
  6 31  1  0  0  0  0
  7  8  1  0  0  0  0
  7 32  1  0  0  0  0
  7 33  1  0  0  0  0
  8 20  1  0  0  0  0
  8  9  1  0  0  0  0
  9 10  2  0  0  0  0
  9 34  1  0  0  0  0
 10 11  1  0  0  0  0
 11 20  2  0  0  0  0
 11 12  1  0  0  0  0
 12 13  1  0  0  0  0
 12 17  2  0  0  0  0
 13 14  1  0  0  0  0
 13 35  1  0  0  0  0
 14 15  1  0  0  0  0
 14 16  1  0  0  0  0
 14 36  1  0  0  0  0
 15 37  1  0  0  0  0
 15 38  1  0  0  0  0
 15 39  1  0  0  0  0
 16 40  1  0  0  0  0
 16 41  1  0  0  0  0
 16 42  1  0  0  0  0
 17 18  1  0  0  0  0
 18 19  2  0  0  0  0
 18 43  1  0  0  0  0
 19 20  1  0  0  0  0
 21 22  1  0  0  0  0
 21 44  1  0  0  0  0
 21 45  1  0  0  0  0
 22 46  1  0  0  0  0
 22 47  1  0  0  0  0
M  END
> <s_m_source_file>
AV-unprocessed.smi

> <i_m_source_file_index>
2690

> <i_lp_mmshare_version>
43012

> <i_f3d_flags>
0

> <s_epik_input>
W0NIMl0xW0NIMl1bQ0BIXShbQ0gzXSlbQ0gyXVtDSDJdW0NAQF0xKFtPSF0pW0NIMl1uKFtjSF1uMiljKGMyMyluW2NIXW5jM1tOSF1bQ0hdKFtDSDNdKVtDSDNd

> <s_epik_cmdline>
J2VwaWtfcHl0aG9uJywgJy1waCcsICc3LjAnLCAnLXRuJywgJzgnLCAnLW1hJywgJzIwMCcsICctbWV0YWxfYmluZGluZycsICctaW1hZScsICc8aW5maWxlLm1hZT4nLCAnLW9tYWUnLCAnPG91dGZpbGUubWFlPic=

> <r_lp_tautomer_probability>
1

> <r_epik_Ionization_Penalty>
0.00225104

> <r_epik_Ionization_Penalty_Charging>
0

> <r_epik_Ionization_Penalty_Neutral>
0.00225104

> <r_epik_State_Penalty>
-0

> <r_epik_Charging_Adjusted_Penalty>
0

> <i_epik_Tot_Q>
0

> <i_epik_Tot_abs_Q>
0

> <r_epik_Metal_State_Penalty>
-0

> <b_epik_Metal_Only>
0

> <s_lp_Force_Field>
OPLS_2005

> <r_lp_Energy>
15.1009

> <b_lp_Chiralities_Consistent>
1

> <s_lp_Variant>
AV-unprocessed.smi:2690-2

> <Gold.Version>
5.8.1

> <Gold.Id.Protein>
6NUR|6NUR_protein|mol2

> <Gold.PLP.Fitness>
42.2050

> <Gold.PLP.PLP>
-34.4810

> <Gold.PLP.part.hbond>
-2.0000

> <Gold.PLP.part.metal>
0.0000

> <Gold.PLP.part.buried>
-3.3492

> <Gold.PLP.part.nonpolar>
-29.7684

> <Gold.PLP.part.repulsive>
0.4266

> <Gold.PLP.ligand.clash>
0.0000

> <Gold.PLP.ligand.torsion>
0.2511

> <Gold.PLP.Chemscore.Hbond>
1.6628

> <Gold.PLP.Chemscore.CHOScore>
1.0666

> <Gold.PLP.Chemscore.Metal>
0.0000

> <Gold.Chemscore.Hbonds>
donor molecule, donor type, donor heavy atom, donor atom, acceptor molecule, acceptor atom, score
      L1  H     6    31       P1  7957  0.65
      P1  H 10752 10764       L1    17  0.68
      L1  C    18    43       P1  7948  0.29
      L1  C    18    43       P1  7949  0.75

> <Gold.PLP.Chemscore.Internal.Correction>
0.0381

> <Gold.Rescore>
     Score         DG    S(hbond)    S(metal)    S(lipo)     H(rot)  DE(clash)    DE(int)     intcor
      8.74     -12.07       1.80        0.00      49.83       2.05       0.04       3.29       ----

> <Gold.Chemscore.Fitness>
8.7422

> <Gold.Chemscore.DG>
-12.0732

> <Gold.Chemscore.ZeroCoef>
-5.4800

> <Gold.Chemscore.Hbond>
1.8018

> <Gold.Chemscore.Metal>
0.0000

> <Gold.Chemscore.Lipo>
49.8268

> <Gold.Chemscore.Internal_Hbond>
0.0000

> <Gold.Chemscore.DEClash>
0.0394

> <Gold.Chemscore.DEInternal>
3.2917

> <Gold.Chemscore.Rot>
2.0526

> <Gold.Chemscore.Internal.Correction>
   9.000000E+99

> <Gold.Chemscore.Hbonds>
donor molecule, donor type, donor heavy atom, donor atom, acceptor molecule, acceptor atom, score
      L1  H     6    31       P1  7957  0.64
      P1  H 10752 10764       L1    17  0.29

> <Gold.Chemscore.Hbond.Weighted>
-6.0181

> <Gold.Chemscore.Metal.Weighted>
-0.0000

> <Gold.Chemscore.Lipo.Weighted>
-5.8297

> <Gold.Chemscore.Internal_Hbond.Weighted>
0.0000

> <Gold.Chemscore.DEClash.Weighted>
0.0394

> <Gold.Chemscore.DEInternal.Weighted>
3.2917

> <Gold.Chemscore.Rot.Weighted>
5.2546

> <Gold.Chemscore.Internal.Correction.Weighted>
   9.000000E+99

> <Gold.Protein.RotatedTorsions>
[ 6907 6896 6895 6894 ] final -162.92 input  -60.11 | X-H torsion
[ 7974 7965 7964 7962 ] final   82.12 input  175.53 | X-H torsion
[ 8008 7997 7996 7995 ] final   19.36 input   59.86 | X-H torsion
[ 10167 10162 10161 10158 ] final  -19.52 input  -65.29 | X-H torsion
[ 10718 10713 10712 10709 ] final  -51.07 input   66.30 | X-H torsion
[ 10763 10752 10751 10750 ] final  -69.43 input  -60.55 | X-H torsion
[ 11005 11000 10999 10996 ] final -105.07 input  -57.11 | X-H torsion

> <Gold.Protein.ActiveResidues>
 VAL166  LYS551  ARG553  GLY616  TRP617  ASP618  TYR619  PRO620  LYS621  CYS622 
 ASP623  PHE694  ASN695  SER759  ASP760  ASP761  ALA762  ILE779  LEU786  VAL792 
 PHE793  MET794  SER795  GLU796  ALA797  LYS798  CYS799  TRP800  GLU811  SER814 

> <Gold.Protein.RotatedAtoms>
  151.3879  133.3799  159.2717 H   0  0  0  0  0  0  0  0  0  0  0  0  # atno 6907 bound_to 6896
  150.9527  134.8926  159.7692 H   0  0  0  0  0  0  0  0  0  0  0  0  # atno 6908 bound_to 6896
  152.5118  134.3835  159.9411 H   0  0  0  0  0  0  0  0  0  0  0  0  # atno 6909 bound_to 6896
  145.6292  139.2401  143.2094 H   0  0  0  0  0  0  0  0  0  0  0  0  # atno 7974 bound_to 7965
  154.9195  140.3025  155.5223 H   0  0  0  0  0  0  0  0  0  0  0  0  # atno 8008 bound_to 7997
  156.3010  140.2374  156.4180 H   0  0  0  0  0  0  0  0  0  0  0  0  # atno 8009 bound_to 7997
  154.8344  140.0417  157.1488 H   0  0  0  0  0  0  0  0  0  0  0  0  # atno 8010 bound_to 7997
  140.7269  143.4811  151.0116 H   0  0  0  0  0  0  0  0  0  0  0  0  # atno 10167 bound_to 10162
  156.1743  130.4149  149.9600 H   0  0  0  0  0  0  0  0  0  0  0  0  # atno 10718 bound_to 10713
  154.4033  135.6026  153.5910 H   0  0  0  0  0  0  0  0  0  0  0  0  # atno 10763 bound_to 10752
  152.9788  135.5912  154.4158 H   0  0  0  0  0  0  0  0  0  0  0  0  # atno 10764 bound_to 10752
  154.3959  135.2842  155.2104 H   0  0  0  0  0  0  0  0  0  0  0  0  # atno 10765 bound_to 10752
  141.1071  133.8776  157.1689 H   0  0  0  0  0  0  0  0  0  0  0  0  # atno 11005 bound_to 11000
  146.1370  140.7109  142.9385 LP  0  0  0  0  0  0  0  0  0  0  0  0  # atno 17320 bound_to 7965
  144.7200  140.4342  143.7015 LP  0  0  0  0  0  0  0  0  0  0  0  0  # atno 17321 bound_to 7965
  139.8510  143.7439  152.3178 LP  0  0  0  0  0  0  0  0  0  0  0  0  # atno 17342 bound_to 10162
  139.7621  144.7503  151.0349 LP  0  0  0  0  0  0  0  0  0  0  0  0  # atno 17343 bound_to 10162
  156.7391  130.9072  151.3631 LP  0  0  0  0  0  0  0  0  0  0  0  0  # atno 17370 bound_to 10713
  157.6825  130.9153  150.0302 LP  0  0  0  0  0  0  0  0  0  0  0  0  # atno 17371 bound_to 10713
  139.9946  135.0051  157.0053 LP  0  0  0  0  0  0  0  0  0  0  0  0  # atno 17394 bound_to 11000
  140.4874  134.1228  155.7227 LP  0  0  0  0  0  0  0  0  0  0  0  0  # atno 17395 bound_to 11000

$$$$
