AV-unprocessed.smi:283|AV-procd|sdf|2142|dock3
  -GOLD-   2262021473D 1   1.00000     0.00000
 Structure written by MMmdl.
 48 51  0  0  0  0  0  0  0  0  1 V2000
  149.2803  142.2234  157.7839 C   0  0  0  0  0  0  0  0  0  0  0  0
  150.1572  140.9638  157.7813 C   0  0  1  0  0  0  0  0  0  0  0  0
  150.3656  140.5142  156.4068 N   0  0  0  0  0  0  0  0  0  0  0  0
  149.3439  140.4396  155.5250 C   0  0  0  0  0  0  0  0  0  0  0  0
  149.1070  141.5673  154.8130 N   0  0  0  0  0  0  0  0  0  0  0  0
  148.1281  141.5949  153.9045 C   0  0  0  0  0  0  0  0  0  0  0  0
  147.2815  140.6232  153.5629 N   0  0  0  0  0  0  0  0  0  0  0  0
  147.5053  139.4863  154.2824 C   0  0  0  0  0  0  0  0  0  0  0  0
  148.5058  139.3111  155.2810 C   0  0  0  0  0  0  0  0  0  0  0  0
  148.4091  138.0253  155.8014 N   0  0  0  0  0  0  0  0  0  0  0  0
  147.4270  137.4772  155.1398 C   0  0  0  0  0  0  0  0  0  0  0  0
  146.8236  138.2887  154.2071 N   0  0  0  0  0  0  0  0  0  0  0  0
  145.6894  137.9478  153.2901 C   0  0  2  0  0  0  0  0  0  0  0  0
  145.1906  136.7081  153.6849 O   0  0  0  0  0  0  0  0  0  0  0  0
  144.8597  135.9564  152.5292 C   0  0  2  0  0  0  0  0  0  0  0  0
  144.7613  134.4552  152.8576 C   0  0  0  0  0  0  0  0  0  0  0  0
  143.7135  134.1721  153.7618 O   0  0  0  0  0  0  0  0  0  0  0  0
  145.8887  136.3765  151.4743 C   0  0  1  0  0  0  0  0  0  0  0  0
  145.3513  136.2264  150.1753 O   0  0  0  0  0  0  0  0  0  0  0  0
  146.1069  137.8509  151.8005 C   0  0  2  0  0  0  0  0  0  0  0  0
  147.4433  138.2375  151.5342 O   0  0  0  0  0  0  0  0  0  0  0  0
  151.4418  141.2083  158.5789 C   0  0  0  0  0  0  0  0  0  0  0  0
  151.6958  142.4830  159.1378 C   0  0  0  0  0  0  0  0  0  0  0  0
  152.8721  142.7245  159.8719 C   0  0  0  0  0  0  0  0  0  0  0  0
  153.8054  141.6903  160.0640 C   0  0  0  0  0  0  0  0  0  0  0  0
  153.5567  140.4142  159.5260 C   0  0  0  0  0  0  0  0  0  0  0  0
  152.3806  140.1668  158.7897 C   0  0  0  0  0  0  0  0  0  0  0  0
  152.1210  138.5753  158.1654 Cl  0  0  0  0  0  0  0  0  0  0  0  0
  144.9473  138.7272  153.4673 H   0  0  0  0  0  0  0  0  0  0  0  0
  143.8716  136.3066  152.2230 H   0  0  0  0  0  0  0  0  0  0  0  0
  146.8182  135.8154  151.5748 H   0  0  0  0  0  0  0  0  0  0  0  0
  145.4256  138.4830  151.2288 H   0  0  0  0  0  0  0  0  0  0  0  0
  149.0374  142.5301  158.8016 H   0  0  0  0  0  0  0  0  0  0  0  0
  148.3393  142.0488  157.2611 H   0  0  0  0  0  0  0  0  0  0  0  0
  149.7835  143.0589  157.2961 H   0  0  0  0  0  0  0  0  0  0  0  0
  149.5808  140.1798  158.2693 H   0  0  0  0  0  0  0  0  0  0  0  0
  151.2397  140.0342  156.2490 H   0  0  0  0  0  0  0  0  0  0  0  0
  148.0059  142.5279  153.3744 H   0  0  0  0  0  0  0  0  0  0  0  0
  147.1137  136.4589  155.3179 H   0  0  0  0  0  0  0  0  0  0  0  0
  144.6236  133.8730  151.9461 H   0  0  0  0  0  0  0  0  0  0  0  0
  145.6929  134.1180  153.3131 H   0  0  0  0  0  0  0  0  0  0  0  0
  143.5464  133.2423  153.7468 H   0  0  0  0  0  0  0  0  0  0  0  0
  144.9349  137.0389  149.9309 H   0  0  0  0  0  0  0  0  0  0  0  0
  148.0195  137.6143  151.9511 H   0  0  0  0  0  0  0  0  0  0  0  0
  150.9888  143.2884  159.0046 H   0  0  0  0  0  0  0  0  0  0  0  0
  153.0568  143.7036  160.2889 H   0  0  0  0  0  0  0  0  0  0  0  0
  154.7086  141.8735  160.6273 H   0  0  0  0  0  0  0  0  0  0  0  0
  154.2722  139.6201  159.6819 H   0  0  0  0  0  0  0  0  0  0  0  0
  1  2  1  0  0  0  0
  1 33  1  0  0  0  0
  1 34  1  0  0  0  0
  1 35  1  0  0  0  0
  2  3  1  0  0  0  0
  2 22  1  0  0  0  0
  2 36  1  0  0  0  0
  3  4  1  0  0  0  0
  3 37  1  0  0  0  0
  4  9  1  0  0  0  0
  4  5  2  0  0  0  0
  5  6  1  0  0  0  0
  6  7  2  0  0  0  0
  6 38  1  0  0  0  0
  7  8  1  0  0  0  0
  8 12  1  0  0  0  0
  8  9  2  0  0  0  0
  9 10  1  0  0  0  0
 10 11  2  0  0  0  0
 11 12  1  0  0  0  0
 11 39  1  0  0  0  0
 12 13  1  0  0  0  0
 13 29  1  0  0  0  0
 13 20  1  0  0  0  0
 13 14  1  0  0  0  0
 14 15  1  0  0  0  0
 15 30  1  0  0  0  0
 15 16  1  0  0  0  0
 15 18  1  0  0  0  0
 16 17  1  0  0  0  0
 16 40  1  0  0  0  0
 16 41  1  0  0  0  0
 17 42  1  0  0  0  0
 18 31  1  0  0  0  0
 18 19  1  0  0  0  0
 18 20  1  0  0  0  0
 19 43  1  0  0  0  0
 20 32  1  0  0  0  0
 20 21  1  0  0  0  0
 21 44  1  0  0  0  0
 22 27  1  0  0  0  0
 22 23  2  0  0  0  0
 23 24  1  0  0  0  0
 23 45  1  0  0  0  0
 24 25  2  0  0  0  0
 24 46  1  0  0  0  0
 25 26  1  0  0  0  0
 25 47  1  0  0  0  0
 26 27  2  0  0  0  0
 26 48  1  0  0  0  0
 27 28  1  0  0  0  0
M  END
> <s_m_source_file>
AV-unprocessed.smi

> <i_m_source_file_index>
283

> <i_lp_mmshare_version>
43012

> <i_f3d_flags>
0

> <s_epik_input>
Q2xjMVtjSF1bY0hdW2NIXVtjSF1jMVtDQEhdKFtDSDNdKVtOSF1jKG5bY0hdbjIpYyhjMjMpbltjSF1uM1tDQEBIXTRPW0NASF0oW0NIMl1bT0hdKVtDQEBIXShbT0hdKVtDQEhdNFtPSF0=

> <s_epik_cmdline>
J2VwaWtfcHl0aG9uJywgJy1waCcsICc3LjAnLCAnLXRuJywgJzgnLCAnLW1hJywgJzIwMCcsICctbWV0YWxfYmluZGluZycsICctaW1hZScsICc8aW5maWxlLm1hZT4nLCAnLW9tYWUnLCAnPG91dGZpbGUubWFlPic=

> <r_lp_tautomer_probability>
1

> <r_epik_Ionization_Penalty>
0.000266407

> <r_epik_Ionization_Penalty_Charging>
0

> <r_epik_Ionization_Penalty_Neutral>
0.000266407

> <r_epik_State_Penalty>
-0

> <r_epik_Charging_Adjusted_Penalty>
0

> <i_epik_Tot_Q>
0

> <i_epik_Tot_abs_Q>
0

> <r_epik_Metal_State_Penalty>
-0

> <b_epik_Metal_Only>
0

> <s_epik_Chemistry_Notes>
This compound contains an acetal/aminal-like group ( X-CH(R)-Y where X, Y are N, S, or O) that may be acid/base labile, releasing an aldehyde.

> <s_lp_Force_Field>
OPLS_2005

> <r_lp_Energy>
48.5102

> <b_lp_Chiralities_Consistent>
1

> <s_lp_Variant>
AV-unprocessed.smi:283-18

> <Gold.Version>
5.8.1

> <Gold.Id.Protein>
6NUR|6NUR_protein|mol2

> <Gold.PLP.Fitness>
48.6469

> <Gold.PLP.PLP>
-39.7268

> <Gold.PLP.part.hbond>
-5.7393

> <Gold.PLP.part.metal>
0.0000

> <Gold.PLP.part.buried>
-4.4192

> <Gold.PLP.part.nonpolar>
-30.6360

> <Gold.PLP.part.repulsive>
0.4992

> <Gold.PLP.ligand.clash>
0.0000

> <Gold.PLP.ligand.torsion>
1.0520

> <Gold.PLP.Chemscore.Hbond>
3.6280

> <Gold.PLP.Chemscore.CHOScore>
0.0000

> <Gold.PLP.Chemscore.Metal>
0.0000

> <Gold.Chemscore.Hbonds>
donor molecule, donor type, donor heavy atom, donor atom, acceptor molecule, acceptor atom, score
      L1  H    17    42       P1 10957  0.86
      L1  H    19    43       P1 10171  1.00
      L1  H    21    44       P1  7948  0.96
      P1  H  7954  7966       L1    21  0.55

> <Gold.PLP.Chemscore.Internal.Correction>
0.1401

> <Gold.Rescore>
     Score         DG    S(hbond)    S(metal)    S(lipo)     H(rot)  DE(clash)    DE(int)     intcor
     13.78     -15.22       2.93        0.00      89.23       4.10       0.06       1.38       ----

> <Gold.Chemscore.Fitness>
13.7835

> <Gold.Chemscore.DG>
-15.2233

> <Gold.Chemscore.ZeroCoef>
-5.4800

> <Gold.Chemscore.Hbond>
2.9316

> <Gold.Chemscore.Metal>
0.0000

> <Gold.Chemscore.Lipo>
89.2275

> <Gold.Chemscore.Internal_Hbond>
0.0000

> <Gold.Chemscore.DEClash>
0.0637

> <Gold.Chemscore.DEInternal>
1.3761

> <Gold.Chemscore.Rot>
4.0968

> <Gold.Chemscore.Internal.Correction>
   9.000000E+99

> <Gold.Chemscore.Hbonds>
donor molecule, donor type, donor heavy atom, donor atom, acceptor molecule, acceptor atom, score
      L1  H    17    42       P1 10957  0.80
      L1  H    19    43       P1 10171  1.00
      L1  H    21    44       P1  7948  0.92
      P1  H  7954  7966       L1    21  0.03

> <Gold.Chemscore.Hbond.Weighted>
-9.7916

> <Gold.Chemscore.Metal.Weighted>
-0.0000

> <Gold.Chemscore.Lipo.Weighted>
-10.4396

> <Gold.Chemscore.Internal_Hbond.Weighted>
0.0000

> <Gold.Chemscore.DEClash.Weighted>
0.0637

> <Gold.Chemscore.DEInternal.Weighted>
1.3761

> <Gold.Chemscore.Rot.Weighted>
10.4879

> <Gold.Chemscore.Internal.Correction.Weighted>
   9.000000E+99

> <Gold.Protein.RotatedTorsions>
[ 6907 6896 6895 6894 ] final -107.00 input  -60.11 | X-H torsion
[ 7974 7965 7964 7962 ] final    4.47 input  175.53 | X-H torsion
[ 8008 7997 7996 7995 ] final   -2.57 input   59.86 | X-H torsion
[ 10167 10162 10161 10158 ] final -135.64 input  -65.29 | X-H torsion
[ 10718 10713 10712 10709 ] final  -51.91 input   66.30 | X-H torsion
[ 10763 10752 10751 10750 ] final -100.81 input  -60.55 | X-H torsion
[ 11005 11000 10999 10996 ] final  142.65 input  -57.11 | X-H torsion

> <Gold.Protein.ActiveResidues>
 VAL166  LYS551  ARG553  GLY616  TRP617  ASP618  TYR619  PRO620  LYS621  CYS622 
 ASP623  PHE694  ASN695  SER759  ASP760  ASP761  ALA762  ILE779  LEU786  VAL792 
 PHE793  MET794  SER795  GLU796  ALA797  LYS798  CYS799  TRP800  GLU811  SER814 

> <Gold.Protein.RotatedAtoms>
  150.7420  133.9892  159.3601 H   0  0  0  0  0  0  0  0  0  0  0  0  # atno 6907 bound_to 6896
  151.7838  135.0752  160.0387 H   0  0  0  0  0  0  0  0  0  0  0  0  # atno 6908 bound_to 6896
  152.3255  133.5864  159.5810 H   0  0  0  0  0  0  0  0  0  0  0  0  # atno 6909 bound_to 6896
  146.2444  140.0530  142.8373 H   0  0  0  0  0  0  0  0  0  0  0  0  # atno 7974 bound_to 7965
  154.6343  140.2531  155.7397 H   0  0  0  0  0  0  0  0  0  0  0  0  # atno 8008 bound_to 7997
  156.2496  140.2900  156.0628 H   0  0  0  0  0  0  0  0  0  0  0  0  # atno 8009 bound_to 7997
  155.1696  140.0386  157.2850 H   0  0  0  0  0  0  0  0  0  0  0  0  # atno 8010 bound_to 7997
  139.8758  143.6900  152.2634 H   0  0  0  0  0  0  0  0  0  0  0  0  # atno 10167 bound_to 10162
  156.1668  130.4149  149.9708 H   0  0  0  0  0  0  0  0  0  0  0  0  # atno 10718 bound_to 10713
  154.7608  135.4921  153.9461 H   0  0  0  0  0  0  0  0  0  0  0  0  # atno 10763 bound_to 10752
  153.1249  135.6740  153.9281 H   0  0  0  0  0  0  0  0  0  0  0  0  # atno 10764 bound_to 10752
  153.9002  135.3111  155.3427 H   0  0  0  0  0  0  0  0  0  0  0  0  # atno 10765 bound_to 10752
  140.0493  134.9264  157.0988 H   0  0  0  0  0  0  0  0  0  0  0  0  # atno 11005 bound_to 11000
  145.0967  140.9319  143.4737 LP  0  0  0  0  0  0  0  0  0  0  0  0  # atno 17320 bound_to 7965
  145.0714  139.3028  143.5830 LP  0  0  0  0  0  0  0  0  0  0  0  0  # atno 17321 bound_to 7965
  139.7241  144.7596  151.0907 LP  0  0  0  0  0  0  0  0  0  0  0  0  # atno 17342 bound_to 10162
  140.7753  143.5170  150.9582 LP  0  0  0  0  0  0  0  0  0  0  0  0  # atno 17343 bound_to 10162
  156.7521  130.9119  151.3638 LP  0  0  0  0  0  0  0  0  0  0  0  0  # atno 17370 bound_to 10713
  157.6773  130.9107  150.0182 LP  0  0  0  0  0  0  0  0  0  0  0  0  # atno 17371 bound_to 10713
  140.3942  134.2151  155.7165 LP  0  0  0  0  0  0  0  0  0  0  0  0  # atno 17394 bound_to 11000
  141.1922  133.8177  157.0846 LP  0  0  0  0  0  0  0  0  0  0  0  0  # atno 17395 bound_to 11000

$$$$
