AV-unprocessed.smi:1254|AV-procd|sdf|5278|dock9
  -GOLD-   22720 4393D 1   1.00000     0.00000
 Structure written by MMmdl.
 45 46  0  0  0  0  0  0  0  0  3 V2000
  151.5127  139.8800  158.8445 C   0  0  0  0  0  0  0  0  0  0  0  0
  151.9019  138.6460  158.1047 C   0  0  0  0  0  0  0  0  0  0  0  0
  151.3573  137.3952  158.0364 C   0  0  0  0  0  0  0  0  0  0  0  0
  152.2354  136.7060  157.1560 C   0  0  0  0  0  0  0  0  0  0  0  0
  152.1133  135.4290  156.7618 N   0  5  0  0  0  0  0  0  0  0  0  0
  150.8943  134.8446  156.7154 C   0  0  0  0  0  0  0  0  0  0  0  0
  149.9917  134.9617  157.5473 O   0  0  0  0  0  0  0  0  0  0  0  0
  150.7086  134.0757  155.6354 N   0  0  0  0  0  0  0  0  0  0  0  0
  149.4924  133.3330  155.3347 C   0  0  0  0  0  0  0  0  0  0  0  0
  148.5875  134.1379  154.3925 C   0  0  1  0  0  0  0  0  0  0  0  0
  148.1451  133.3071  153.1719 C   0  0  0  0  0  0  0  0  0  0  0  0
  147.2151  134.0877  152.3186 N   0  3  1  0  0  0  0  0  0  0  0  0
  146.7816  133.3683  151.0934 C   0  0  0  0  0  0  0  0  0  0  0  0
  145.5671  132.4442  151.3283 C   0  0  0  0  0  0  0  0  0  0  0  0
  145.9664  131.1403  152.0398 C   0  0  0  0  0  0  0  0  0  0  0  0
  144.8612  132.1346  149.9998 C   0  0  0  0  0  0  0  0  0  0  0  0
  146.0693  134.5790  153.1198 C   0  0  0  0  0  0  0  0  0  0  0  0
  146.5671  135.3635  154.3440 C   0  0  0  0  0  0  0  0  0  0  0  0
  147.4274  134.5373  155.1162 O   0  0  0  0  0  0  0  0  0  0  0  0
  153.2158  137.4763  156.7140 N   0  0  0  0  0  0  0  0  0  0  0  0
  153.0134  138.7202  157.3238 O   0  0  0  0  0  0  0  0  0  0  0  0
  150.4587  140.1078  158.6870 H   0  0  0  0  0  0  0  0  0  0  0  0
  152.0970  140.7385  158.5126 H   0  0  0  0  0  0  0  0  0  0  0  0
  151.6754  139.7537  159.9149 H   0  0  0  0  0  0  0  0  0  0  0  0
  150.4744  137.0289  158.5387 H   0  0  0  0  0  0  0  0  0  0  0  0
  151.4687  134.0071  154.9749 H   0  0  0  0  0  0  0  0  0  0  0  0
  149.7687  132.3854  154.8698 H   0  0  0  0  0  0  0  0  0  0  0  0
  148.9614  133.0971  156.2584 H   0  0  0  0  0  0  0  0  0  0  0  0
  149.1286  135.0234  154.0521 H   0  0  0  0  0  0  0  0  0  0  0  0
  149.0255  133.0127  152.6019 H   0  0  0  0  0  0  0  0  0  0  0  0
  147.6557  132.3885  153.5001 H   0  0  0  0  0  0  0  0  0  0  0  0
  146.5661  134.0956  150.3091 H   0  0  0  0  0  0  0  0  0  0  0  0
  147.6069  132.7587  150.7219 H   0  0  0  0  0  0  0  0  0  0  0  0
  144.8404  132.9597  151.9555 H   0  0  0  0  0  0  0  0  0  0  0  0
  146.7012  130.5807  151.4600 H   0  0  0  0  0  0  0  0  0  0  0  0
  145.1006  130.4940  152.1884 H   0  0  0  0  0  0  0  0  0  0  0  0
  146.3961  131.3362  153.0224 H   0  0  0  0  0  0  0  0  0  0  0  0
  145.5225  131.6071  149.3114 H   0  0  0  0  0  0  0  0  0  0  0  0
  144.5297  133.0494  149.5073 H   0  0  0  0  0  0  0  0  0  0  0  0
  143.9806  131.5111  150.1574 H   0  0  0  0  0  0  0  0  0  0  0  0
  145.4353  135.2216  152.5077 H   0  0  0  0  0  0  0  0  0  0  0  0
  145.4573  133.7342  153.4402 H   0  0  0  0  0  0  0  0  0  0  0  0
  147.0880  136.2734  154.0412 H   0  0  0  0  0  0  0  0  0  0  0  0
  145.7237  135.6704  154.9628 H   0  0  0  0  0  0  0  0  0  0  0  0
  147.7154  134.9087  152.0088 H   0  0  0  0  0  0  0  0  0  0  0  0
  1  2  1  0  0  0  0
  1 22  1  0  0  0  0
  1 23  1  0  0  0  0
  1 24  1  0  0  0  0
  2 21  1  0  0  0  0
  2  3  2  0  0  0  0
  3  4  1  0  0  0  0
  3 25  1  0  0  0  0
  4  5  1  0  0  0  0
  4 20  2  0  0  0  0
  5  6  1  0  0  0  0
  6  7  2  0  0  0  0
  6  8  1  0  0  0  0
  8  9  1  0  0  0  0
  8 26  1  0  0  0  0
  9 10  1  0  0  0  0
  9 27  1  0  0  0  0
  9 28  1  0  0  0  0
 10 19  1  0  0  0  0
 10 11  1  0  0  0  0
 10 29  1  0  0  0  0
 11 12  1  0  0  0  0
 11 30  1  0  0  0  0
 11 31  1  0  0  0  0
 12 13  1  0  0  0  0
 12 17  1  0  0  0  0
 12 45  1  0  0  0  0
 13 14  1  0  0  0  0
 13 32  1  0  0  0  0
 13 33  1  0  0  0  0
 14 15  1  0  0  0  0
 14 16  1  0  0  0  0
 14 34  1  0  0  0  0
 15 35  1  0  0  0  0
 15 36  1  0  0  0  0
 15 37  1  0  0  0  0
 16 38  1  0  0  0  0
 16 39  1  0  0  0  0
 16 40  1  0  0  0  0
 17 18  1  0  0  0  0
 17 41  1  0  0  0  0
 17 42  1  0  0  0  0
 18 19  1  0  0  0  0
 18 43  1  0  0  0  0
 18 44  1  0  0  0  0
 20 21  1  0  0  0  0
M  CHG  1   5  -1
M  CHG  1  12   1
M  END
> <s_m_source_file>
AV-unprocessed.smi

> <i_m_source_file_index>
1254

> <i_lp_mmshare_version>
43012

> <i_f3d_flags>
0

> <s_epik_input>
W0NIM11jMVtjSF1jKG5vMSlbTkhdQyg9TylbTkhdW0NIMl1bQ0BASF0yW0NIMl1OKFtDSDJdW0NIMl1PMilbQ0gyXVtDSF0oW0NIM10pW0NIM10=

> <s_epik_cmdline>
J2VwaWtfcHl0aG9uJywgJy1waCcsICc3LjAnLCAnLXRuJywgJzgnLCAnLW1hJywgJzIwMCcsICctbWV0YWxfYmluZGluZycsICctaW1hZScsICc8aW5maWxlLm1hZT4nLCAnLW9tYWUnLCAnPG91dGZpbGUubWFlPic=

> <r_epik_Ionization_Penalty>
6.33139

> <r_epik_Ionization_Penalty_Charging>
6.33128

> <r_epik_Ionization_Penalty_Neutral>
0.000104968

> <r_epik_State_Penalty>
6.32522

> <r_epik_Charging_Adjusted_Penalty>
12.6565

> <i_epik_Tot_Q>
0

> <i_epik_Tot_abs_Q>
2

> <r_epik_Metal_State_Penalty>
2.26285

> <b_epik_Metal_Only>
1

> <s_lp_Force_Field>
OPLS_2005

> <r_lp_Energy>
6.3285

> <b_lp_Chiralities_Consistent>
1

> <s_lp_Variant>
AV-unprocessed.smi:1254-10

> <Gold.Version>
5.8.1

> <Gold.Id.Protein>
6NUR|6NUR_protein|mol2

> <Gold.PLP.Fitness>
42.7639

> <Gold.PLP.PLP>
-28.9017

> <Gold.PLP.part.hbond>
-4.4114

> <Gold.PLP.part.metal>
0.0000

> <Gold.PLP.part.buried>
-4.0100

> <Gold.PLP.part.nonpolar>
-21.1443

> <Gold.PLP.part.repulsive>
0.1886

> <Gold.PLP.ligand.clash>
0.0000

> <Gold.PLP.ligand.torsion>
1.7709

> <Gold.PLP.Chemscore.Hbond>
5.7454

> <Gold.PLP.Chemscore.CHOScore>
0.0000

> <Gold.PLP.Chemscore.Metal>
0.0000

> <Gold.Chemscore.Hbonds>
donor molecule, donor type, donor heavy atom, donor atom, acceptor molecule, acceptor atom, score
      L1  H    12    45       P1  7948  2.00
      P1  H  6896  6907       L1     7  0.72
      P1  H  7997  8008       L1    21  1.00
      P1  H 10752 10765       L1     5  2.00

> <Gold.PLP.Chemscore.Internal.Correction>
0.1676

> <Gold.Rescore>
     Score         DG    S(hbond)    S(metal)    S(lipo)     H(rot)  DE(clash)    DE(int)     intcor
     15.21     -18.54       3.07        0.00      61.17       1.69       0.02       3.31       ----

> <Gold.Chemscore.Fitness>
15.2061

> <Gold.Chemscore.DG>
-18.5412

> <Gold.Chemscore.ZeroCoef>
-5.4800

> <Gold.Chemscore.Hbond>
3.0652

> <Gold.Chemscore.Metal>
0.0000

> <Gold.Chemscore.Lipo>
61.1668

> <Gold.Chemscore.Internal_Hbond>
0.0000

> <Gold.Chemscore.DEClash>
0.0202

> <Gold.Chemscore.DEInternal>
3.3149

> <Gold.Chemscore.Rot>
1.6926

> <Gold.Chemscore.Internal.Correction>
   9.000000E+99

> <Gold.Chemscore.Hbonds>
donor molecule, donor type, donor heavy atom, donor atom, acceptor molecule, acceptor atom, score
      L1  H    12    45       P1  7948  0.74
      P1  H  6896  6907       L1     7  0.49
      P1  H  7997  8008       L1    21  0.74
      P1  H 10752 10765       L1     5  0.29

> <Gold.Chemscore.Hbond.Weighted>
-10.2378

> <Gold.Chemscore.Metal.Weighted>
-0.0000

> <Gold.Chemscore.Lipo.Weighted>
-7.1565

> <Gold.Chemscore.Internal_Hbond.Weighted>
0.0000

> <Gold.Chemscore.DEClash.Weighted>
0.0202

> <Gold.Chemscore.DEInternal.Weighted>
3.3149

> <Gold.Chemscore.Rot.Weighted>
4.3330

> <Gold.Chemscore.Internal.Correction.Weighted>
   9.000000E+99

> <Gold.Protein.RotatedTorsions>
[ 6907 6896 6895 6894 ] final  -92.71 input  -60.11 | X-H torsion
[ 7974 7965 7964 7962 ] final   30.68 input  175.53 | X-H torsion
[ 8008 7997 7996 7995 ] final  -68.83 input   59.86 | X-H torsion
[ 10167 10162 10161 10158 ] final  160.10 input  -65.29 | X-H torsion
[ 10718 10713 10712 10709 ] final  -49.01 input   66.30 | X-H torsion
[ 10763 10752 10751 10750 ] final -137.56 input  -60.55 | X-H torsion
[ 11005 11000 10999 10996 ] final -143.65 input  -57.11 | X-H torsion

> <Gold.Protein.ActiveResidues>
 VAL166  LYS551  ARG553  GLY616  TRP617  ASP618  TYR619  PRO620  LYS621  CYS622 
 ASP623  PHE694  ASN695  SER759  ASP760  ASP761  ALA762  ILE779  LEU786  VAL792 
 PHE793  MET794  SER795  GLU796  ALA797  LYS798  CYS799  TRP800  GLU811  SER814 

> <Gold.Protein.RotatedAtoms>
  150.6910  134.2081  159.4348 H   0  0  0  0  0  0  0  0  0  0  0  0  # atno 6907 bound_to 6896
  152.0044  134.9908  160.0575 H   0  0  0  0  0  0  0  0  0  0  0  0  # atno 6908 bound_to 6896
  152.1548  133.4510  159.4868 H   0  0  0  0  0  0  0  0  0  0  0  0  # atno 6909 bound_to 6896
  146.1597  139.6757  142.9042 H   0  0  0  0  0  0  0  0  0  0  0  0  # atno 7974 bound_to 7965
  154.4896  140.0865  156.7563 H   0  0  0  0  0  0  0  0  0  0  0  0  # atno 8008 bound_to 7997
  155.4265  140.3448  155.4258 H   0  0  0  0  0  0  0  0  0  0  0  0  # atno 8009 bound_to 7997
  156.1310  140.1501  156.9053 H   0  0  0  0  0  0  0  0  0  0  0  0  # atno 8010 bound_to 7997
  139.4837  144.4666  151.8633 H   0  0  0  0  0  0  0  0  0  0  0  0  # atno 10167 bound_to 10162
  156.1933  130.4153  149.9341 H   0  0  0  0  0  0  0  0  0  0  0  0  # atno 10718 bound_to 10713
  154.8659  135.3638  154.5243 H   0  0  0  0  0  0  0  0  0  0  0  0  # atno 10763 bound_to 10752
  153.5871  135.7016  153.5443 H   0  0  0  0  0  0  0  0  0  0  0  0  # atno 10764 bound_to 10752
  153.3406  135.4099  155.1530 H   0  0  0  0  0  0  0  0  0  0  0  0  # atno 10765 bound_to 10752
  140.8104  134.2751  157.4943 H   0  0  0  0  0  0  0  0  0  0  0  0  # atno 11005 bound_to 11000
  145.4619  141.0433  143.2746 LP  0  0  0  0  0  0  0  0  0  0  0  0  # atno 17320 bound_to 7965
  144.8010  139.6140  143.7071 LP  0  0  0  0  0  0  0  0  0  0  0  0  # atno 17321 bound_to 7965
  140.4132  144.2341  150.5888 LP  0  0  0  0  0  0  0  0  0  0  0  0  # atno 17342 bound_to 10162
  140.4946  143.2336  151.8768 LP  0  0  0  0  0  0  0  0  0  0  0  0  # atno 17343 bound_to 10162
  156.7074  130.8957  151.3606 LP  0  0  0  0  0  0  0  0  0  0  0  0  # atno 17370 bound_to 10713
  157.6942  130.9265  150.0599 LP  0  0  0  0  0  0  0  0  0  0  0  0  # atno 17371 bound_to 10713
  139.8714  134.9480  156.3983 LP  0  0  0  0  0  0  0  0  0  0  0  0  # atno 17394 bound_to 11000
  140.9203  133.7649  155.9899 LP  0  0  0  0  0  0  0  0  0  0  0  0  # atno 17395 bound_to 11000

$$$$
