AV-unprocessed.smi:2379|AV-procd|sdf|9453|dock4
  -GOLD-   2272013 83D 1   1.00000     0.00000
 Structure written by MMmdl.
 53 55  0  0  0  0  0  0  0  0  2 V2000
  153.2819  140.1612  159.6775 C   0  0  0  0  0  0  0  0  0  0  0  0
  152.5239  141.4423  159.4001 C   0  0  0  0  0  0  0  0  0  0  0  0
  152.7131  142.5803  160.2072 C   0  0  0  0  0  0  0  0  0  0  0  0
  151.9813  143.7436  159.8987 C   0  0  0  0  0  0  0  0  0  0  0  0
  152.1367  145.0020  160.7264 C   0  0  0  0  0  0  0  0  0  0  0  0
  151.1089  143.8138  158.8703 N   0  0  0  0  0  0  0  0  0  0  0  0
  150.9190  142.7242  158.0858 C   0  0  0  0  0  0  0  0  0  0  0  0
  150.0331  142.6996  156.9758 N   0  0  0  0  0  0  0  0  0  0  0  0
  149.4055  141.6377  156.4402 C   0  0  0  0  0  0  0  0  0  0  0  0
  149.5434  140.4696  156.8041 O   0  0  0  0  0  0  0  0  0  0  0  0
  148.5964  142.0058  155.4356 N   0  0  0  0  0  0  0  0  0  0  0  0
  147.7847  141.0956  154.6271 C   0  0  2  0  0  0  0  0  0  0  0  0
  147.1538  141.8465  153.4417 C   0  0  0  0  0  0  0  0  0  0  0  0
  146.0258  142.7958  153.8885 C   0  0  0  0  0  0  0  0  0  0  0  0
  144.9873  142.0745  154.6704 N   0  3  2  0  0  0  0  0  0  0  0  0
  143.8174  142.9319  154.9963 C   0  0  0  0  0  0  0  0  0  0  0  0
  144.2000  144.4174  155.1543 C   0  0  2  0  0  0  0  0  0  0  0  0
  143.2903  145.1711  156.1050 C   0  0  0  0  0  0  0  0  0  0  0  0
  143.5779  146.6218  155.7363 C   0  0  0  0  0  0  0  0  0  0  0  0
  143.8378  146.6104  154.3375 O   0  0  0  0  0  0  0  0  0  0  0  0
  144.0678  145.2769  153.8936 C   0  0  0  0  0  0  0  0  0  0  0  0
  145.5747  141.4084  155.8624 C   0  0  0  0  0  0  0  0  0  0  0  0
  146.6750  140.4152  155.4537 C   0  0  0  0  0  0  0  0  0  0  0  0
  151.6173  141.5188  158.3234 C   0  0  0  0  0  0  0  0  0  0  0  0
  153.6636  140.1439  160.6988 H   0  0  0  0  0  0  0  0  0  0  0  0
  154.1259  140.0676  158.9940 H   0  0  0  0  0  0  0  0  0  0  0  0
  152.6329  139.2952  159.5445 H   0  0  0  0  0  0  0  0  0  0  0  0
  153.4008  142.5626  161.0403 H   0  0  0  0  0  0  0  0  0  0  0  0
  153.0651  144.9828  161.2980 H   0  0  0  0  0  0  0  0  0  0  0  0
  151.3054  145.0982  161.4247 H   0  0  0  0  0  0  0  0  0  0  0  0
  152.1527  145.8850  160.0865 H   0  0  0  0  0  0  0  0  0  0  0  0
  149.8511  143.5951  156.5478 H   0  0  0  0  0  0  0  0  0  0  0  0
  148.5524  142.9867  155.2008 H   0  0  0  0  0  0  0  0  0  0  0  0
  148.4488  140.3266  154.2279 H   0  0  0  0  0  0  0  0  0  0  0  0
  147.9173  142.4015  152.8949 H   0  0  0  0  0  0  0  0  0  0  0  0
  146.7467  141.1204  152.7366 H   0  0  0  0  0  0  0  0  0  0  0  0
  146.4301  143.6141  154.4864 H   0  0  0  0  0  0  0  0  0  0  0  0
  145.5740  143.2448  153.0030 H   0  0  0  0  0  0  0  0  0  0  0  0
  143.0215  142.7990  154.2616 H   0  0  0  0  0  0  0  0  0  0  0  0
  143.3942  142.6077  155.9482 H   0  0  0  0  0  0  0  0  0  0  0  0
  145.2210  144.4945  155.5326 H   0  0  0  0  0  0  0  0  0  0  0  0
  142.2444  144.9353  155.9027 H   0  0  0  0  0  0  0  0  0  0  0  0
  143.4919  144.9552  157.1546 H   0  0  0  0  0  0  0  0  0  0  0  0
  142.7528  147.2896  155.9849 H   0  0  0  0  0  0  0  0  0  0  0  0
  144.4702  146.9767  156.2535 H   0  0  0  0  0  0  0  0  0  0  0  0
  144.9560  145.2276  153.2635 H   0  0  0  0  0  0  0  0  0  0  0  0
  143.2090  144.9654  153.2976 H   0  0  0  0  0  0  0  0  0  0  0  0
  145.9785  142.1607  156.5420 H   0  0  0  0  0  0  0  0  0  0  0  0
  144.8073  140.8717  156.4163 H   0  0  0  0  0  0  0  0  0  0  0  0
  146.2285  139.6156  154.8612 H   0  0  0  0  0  0  0  0  0  0  0  0
  147.0896  139.9327  156.3392 H   0  0  0  0  0  0  0  0  0  0  0  0
  151.4591  140.6585  157.6891 H   0  0  0  0  0  0  0  0  0  0  0  0
  144.6423  141.3443  154.0638 H   0  0  0  0  0  0  0  0  0  0  0  0
  1  2  1  0  0  0  0
  1 25  1  0  0  0  0
  1 26  1  0  0  0  0
  1 27  1  0  0  0  0
  2 24  1  0  0  0  0
  2  3  2  0  0  0  0
  3  4  1  0  0  0  0
  3 28  1  0  0  0  0
  4  5  1  0  0  0  0
  4  6  2  0  0  0  0
  5 29  1  0  0  0  0
  5 30  1  0  0  0  0
  5 31  1  0  0  0  0
  6  7  1  0  0  0  0
  7  8  1  0  0  0  0
  7 24  2  0  0  0  0
  8  9  1  0  0  0  0
  8 32  1  0  0  0  0
  9 10  2  0  0  0  0
  9 11  1  0  0  0  0
 11 12  1  0  0  0  0
 11 33  1  0  0  0  0
 12 23  1  0  0  0  0
 12 13  1  0  0  0  0
 12 34  1  0  0  0  0
 13 14  1  0  0  0  0
 13 35  1  0  0  0  0
 13 36  1  0  0  0  0
 14 15  1  0  0  0  0
 14 37  1  0  0  0  0
 14 38  1  0  0  0  0
 15 16  1  0  0  0  0
 15 22  1  0  0  0  0
 15 53  1  0  0  0  0
 16 17  1  0  0  0  0
 16 39  1  0  0  0  0
 16 40  1  0  0  0  0
 17 21  1  0  0  0  0
 17 18  1  0  0  0  0
 17 41  1  0  0  0  0
 18 19  1  0  0  0  0
 18 42  1  0  0  0  0
 18 43  1  0  0  0  0
 19 20  1  0  0  0  0
 19 44  1  0  0  0  0
 19 45  1  0  0  0  0
 20 21  1  0  0  0  0
 21 46  1  0  0  0  0
 21 47  1  0  0  0  0
 22 23  1  0  0  0  0
 22 48  1  0  0  0  0
 22 49  1  0  0  0  0
 23 50  1  0  0  0  0
 23 51  1  0  0  0  0
 24 52  1  0  0  0  0
M  CHG  1  15   1
M  END
> <s_m_source_file>
AV-unprocessed.smi

> <i_m_source_file_index>
2379

> <i_lp_mmshare_version>
43012

> <i_f3d_flags>
0

> <s_epik_input>
W0NIM11jMVtjSF1jKFtDSDNdKW5jKFtjSF0xKVtOSF1DKD1PKVtOSF1bQ0hdMltDSDJdW0NIMl1OKFtDSDJdW0NIMl0yKVtDSDJdW0NAQEhdM1tDSDJdW0NIMl1PW0NIMl0z

> <s_epik_cmdline>
J2VwaWtfcHl0aG9uJywgJy1waCcsICc3LjAnLCAnLXRuJywgJzgnLCAnLW1hJywgJzIwMCcsICctbWV0YWxfYmluZGluZycsICctaW1hZScsICc8aW5maWxlLm1hZT4nLCAnLW9tYWUnLCAnPG91dGZpbGUubWFlPic=

> <r_epik_Ionization_Penalty>
0.00766556

> <r_epik_Ionization_Penalty_Charging>
0.00747775

> <r_epik_Ionization_Penalty_Neutral>
0.00018781

> <r_epik_State_Penalty>
0.00558817

> <r_epik_Charging_Adjusted_Penalty>
0.0130659

> <i_epik_Tot_Q>
1

> <i_epik_Tot_abs_Q>
1

> <r_epik_Metal_State_Penalty>
-0

> <b_epik_Metal_Only>
0

> <s_lp_Force_Field>
OPLS_2005

> <r_lp_Energy>
34.3762

> <b_lp_Chiralities_Consistent>
1

> <s_lp_Variant>
AV-unprocessed.smi:2379-3

> <Gold.Version>
5.8.1

> <Gold.Id.Protein>
6NUR|6NUR_protein|mol2

> <Gold.PLP.Fitness>
54.1933

> <Gold.PLP.PLP>
-44.2507

> <Gold.PLP.part.hbond>
-4.0000

> <Gold.PLP.part.metal>
0.0000

> <Gold.PLP.part.buried>
-7.8685

> <Gold.PLP.part.nonpolar>
-33.6969

> <Gold.PLP.part.repulsive>
0.2728

> <Gold.PLP.ligand.clash>
0.0000

> <Gold.PLP.ligand.torsion>
1.0270

> <Gold.PLP.Chemscore.Hbond>
3.9825

> <Gold.PLP.Chemscore.CHOScore>
0.0000

> <Gold.PLP.Chemscore.Metal>
0.0000

> <Gold.Chemscore.Hbonds>
donor molecule, donor type, donor heavy atom, donor atom, acceptor molecule, acceptor atom, score
      L1  H     8    32       P1  8028  1.00
      L1  H    11    33       P1  8028  1.00
      L1  H    15    53       P1 10175  2.00

> <Gold.PLP.Chemscore.Internal.Correction>
0.0491

> <Gold.Rescore>
     Score         DG    S(hbond)    S(metal)    S(lipo)     H(rot)  DE(clash)    DE(int)     intcor
     20.44     -23.51       2.60        0.00     110.07       1.37       0.68       2.39       ----

> <Gold.Chemscore.Fitness>
20.4418

> <Gold.Chemscore.DG>
-23.5120

> <Gold.Chemscore.ZeroCoef>
-5.4800

> <Gold.Chemscore.Hbond>
2.5951

> <Gold.Chemscore.Metal>
0.0000

> <Gold.Chemscore.Lipo>
110.0677

> <Gold.Chemscore.Internal_Hbond>
0.0000

> <Gold.Chemscore.DEClash>
0.6781

> <Gold.Chemscore.DEInternal>
2.3921

> <Gold.Chemscore.Rot>
1.3725

> <Gold.Chemscore.Internal.Correction>
   9.000000E+99

> <Gold.Chemscore.Hbonds>
donor molecule, donor type, donor heavy atom, donor atom, acceptor molecule, acceptor atom, score
      L1  H     8    32       P1  8028  0.98
      L1  H    11    33       P1  8028  0.94
      L1  H    15    53       P1 10175  0.47

> <Gold.Chemscore.Hbond.Weighted>
-8.6677

> <Gold.Chemscore.Metal.Weighted>
-0.0000

> <Gold.Chemscore.Lipo.Weighted>
-12.8779

> <Gold.Chemscore.Internal_Hbond.Weighted>
0.0000

> <Gold.Chemscore.DEClash.Weighted>
0.6781

> <Gold.Chemscore.DEInternal.Weighted>
2.3921

> <Gold.Chemscore.Rot.Weighted>
3.5136

> <Gold.Chemscore.Internal.Correction.Weighted>
   9.000000E+99

> <Gold.Protein.RotatedTorsions>
[ 6907 6896 6895 6894 ] final  -55.41 input  -60.11 | X-H torsion
[ 7974 7965 7964 7962 ] final  162.95 input  175.53 | X-H torsion
[ 8008 7997 7996 7995 ] final -117.74 input   59.86 | X-H torsion
[ 10167 10162 10161 10158 ] final   20.21 input  -65.29 | X-H torsion
[ 10718 10713 10712 10709 ] final  -50.99 input   66.30 | X-H torsion
[ 10763 10752 10751 10750 ] final  -25.57 input  -60.55 | X-H torsion
[ 11005 11000 10999 10996 ] final  -80.89 input  -57.11 | X-H torsion

> <Gold.Protein.ActiveResidues>
 VAL166  LYS551  ARG553  GLY616  TRP617  ASP618  TYR619  PRO620  LYS621  CYS622 
 ASP623  PHE694  ASN695  SER759  ASP760  ASP761  ALA762  ILE779  LEU786  VAL792 
 PHE793  MET794  SER795  GLU796  ALA797  LYS798  CYS799  TRP800  GLU811  SER814 

> <Gold.Protein.RotatedAtoms>
  150.8254  134.7482  159.6808 H   0  0  0  0  0  0  0  0  0  0  0  0  # atno 6907 bound_to 6896
  152.4365  134.5672  159.9920 H   0  0  0  0  0  0  0  0  0  0  0  0  # atno 6908 bound_to 6896
  151.5845  133.3336  159.3051 H   0  0  0  0  0  0  0  0  0  0  0  0  # atno 6909 bound_to 6896
  144.7612  139.8113  143.6332 H   0  0  0  0  0  0  0  0  0  0  0  0  # atno 7974 bound_to 7965
  155.0885  140.0395  157.2661 H   0  0  0  0  0  0  0  0  0  0  0  0  # atno 8008 bound_to 7997
  154.6851  140.2641  155.6844 H   0  0  0  0  0  0  0  0  0  0  0  0  # atno 8009 bound_to 7997
  156.2709  140.2771  156.1409 H   0  0  0  0  0  0  0  0  0  0  0  0  # atno 8010 bound_to 7997
  140.5521  143.9490  150.6585 H   0  0  0  0  0  0  0  0  0  0  0  0  # atno 10167 bound_to 10162
  156.1750  130.4150  149.9590 H   0  0  0  0  0  0  0  0  0  0  0  0  # atno 10718 bound_to 10713
  153.7019  135.6956  153.5061 H   0  0  0  0  0  0  0  0  0  0  0  0  # atno 10763 bound_to 10752
  153.2336  135.4329  155.0621 H   0  0  0  0  0  0  0  0  0  0  0  0  # atno 10764 bound_to 10752
  154.8341  135.3490  154.6559 H   0  0  0  0  0  0  0  0  0  0  0  0  # atno 10765 bound_to 10752
  141.1667  133.7171  156.8340 H   0  0  0  0  0  0  0  0  0  0  0  0  # atno 11005 bound_to 11000
  146.1677  139.4815  142.9947 LP  0  0  0  0  0  0  0  0  0  0  0  0  # atno 17320 bound_to 7965
  145.6613  141.0240  143.1707 LP  0  0  0  0  0  0  0  0  0  0  0  0  # atno 17321 bound_to 7965
  140.2919  143.3319  152.1054 LP  0  0  0  0  0  0  0  0  0  0  0  0  # atno 17342 bound_to 10162
  139.5032  144.6750  151.6150 LP  0  0  0  0  0  0  0  0  0  0  0  0  # atno 17343 bound_to 10162
  156.7378  130.9068  151.3630 LP  0  0  0  0  0  0  0  0  0  0  0  0  # atno 17370 bound_to 10713
  157.6829  130.9158  150.0313 LP  0  0  0  0  0  0  0  0  0  0  0  0  # atno 17371 bound_to 10713
  140.2031  134.8883  157.3191 LP  0  0  0  0  0  0  0  0  0  0  0  0  # atno 17394 bound_to 11000
  140.2166  134.4073  155.7586 LP  0  0  0  0  0  0  0  0  0  0  0  0  # atno 17395 bound_to 11000

$$$$
