AV-unprocessed.smi:22|AV-procd|sdf|170|dock5
  -GOLD-   2262015423D 1   1.00000     0.00000
 Structure written by MMmdl.
 56 59  0  0  0  0  0  0  0  0  2 V2000
  145.8313  130.4876  151.5566 C   0  0  0  0  0  0  0  0  0  0  0  0
  146.4496  131.7655  151.1190 N   0  3  1  0  0  0  0  0  0  0  0  0
  145.5619  132.4899  150.1677 C   0  0  0  0  0  0  0  0  0  0  0  0
  144.1222  132.5965  150.6962 C   0  0  0  0  0  0  0  0  0  0  0  0
  143.2286  132.7992  149.6222 O   0  0  0  0  0  0  0  0  0  0  0  0
  146.9523  132.6385  152.2266 C   0  0  0  0  0  0  0  0  0  0  0  0
  148.2354  132.0372  152.8500 C   0  0  0  0  0  0  0  0  0  0  0  0
  148.7818  132.9136  153.9877 C   0  0  0  0  0  0  0  0  0  0  0  0
  147.7588  133.1387  155.0071 N   0  0  0  0  0  0  0  0  0  0  0  0
  148.1620  133.6288  156.2071 C   0  0  0  0  0  0  0  0  0  0  0  0
  149.1544  134.5571  156.2639 N   0  0  0  0  0  0  0  0  0  0  0  0
  149.5498  135.0517  157.4407 C   0  0  0  0  0  0  0  0  0  0  0  0
  149.0994  134.7595  158.6619 N   0  0  0  0  0  0  0  0  0  0  0  0
  148.1095  133.8230  158.6134 C   0  0  0  0  0  0  0  0  0  0  0  0
  147.5836  133.2129  157.4395 C   0  0  0  0  0  0  0  0  0  0  0  0
  146.5908  132.3028  157.7837 N   0  0  0  0  0  0  0  0  0  0  0  0
  146.5288  132.3764  159.0854 C   0  0  0  0  0  0  0  0  0  0  0  0
  147.4103  133.2596  159.6666 N   0  0  0  0  0  0  0  0  0  0  0  0
  147.5583  133.5328  161.0879 C   0  0  0  0  0  0  0  0  0  0  0  0
  146.8499  134.8310  161.5391 C   0  0  1  0  0  0  0  0  0  0  0  0
  145.4498  134.6104  161.5444 O   0  0  0  0  0  0  0  0  0  0  0  0
  147.2696  135.3248  162.9205 C   0  0  0  0  0  0  0  0  0  0  0  0
  147.1234  136.8348  162.7984 C   0  0  0  0  0  0  0  0  0  0  0  0
  147.6012  137.0855  161.4877 O   0  0  0  0  0  0  0  0  0  0  0  0
  147.1488  136.0409  160.6314 C   0  0  0  0  0  0  0  0  0  0  0  0
  146.5138  133.7139  154.5052 C   0  0  0  0  0  0  0  0  0  0  0  0
  145.9282  132.8580  153.3702 C   0  0  0  0  0  0  0  0  0  0  0  0
  145.0117  130.6681  152.2537 H   0  0  0  0  0  0  0  0  0  0  0  0
  146.5604  129.8337  152.0347 H   0  0  0  0  0  0  0  0  0  0  0  0
  145.4308  129.9320  150.7091 H   0  0  0  0  0  0  0  0  0  0  0  0
  145.9670  133.4861  149.9823 H   0  0  0  0  0  0  0  0  0  0  0  0
  145.5364  132.0092  149.1902 H   0  0  0  0  0  0  0  0  0  0  0  0
  143.8262  131.7106  151.2575 H   0  0  0  0  0  0  0  0  0  0  0  0
  144.0390  133.4461  151.3744 H   0  0  0  0  0  0  0  0  0  0  0  0
  142.7203  133.5776  149.7949 H   0  0  0  0  0  0  0  0  0  0  0  0
  147.1842  133.6171  151.8022 H   0  0  0  0  0  0  0  0  0  0  0  0
  148.0194  131.0402  153.2375 H   0  0  0  0  0  0  0  0  0  0  0  0
  149.0219  131.9071  152.1082 H   0  0  0  0  0  0  0  0  0  0  0  0
  149.6507  132.4269  154.4333 H   0  0  0  0  0  0  0  0  0  0  0  0
  149.1169  133.8732  153.5912 H   0  0  0  0  0  0  0  0  0  0  0  0
  150.3393  135.7875  157.3974 H   0  0  0  0  0  0  0  0  0  0  0  0
  145.8387  131.7783  159.6631 H   0  0  0  0  0  0  0  0  0  0  0  0
  147.1643  132.6796  161.6414 H   0  0  0  0  0  0  0  0  0  0  0  0
  148.6234  133.5812  161.3200 H   0  0  0  0  0  0  0  0  0  0  0  0
  145.0736  135.0948  162.2636 H   0  0  0  0  0  0  0  0  0  0  0  0
  146.6883  134.8977  163.7388 H   0  0  0  0  0  0  0  0  0  0  0  0
  148.3193  135.0918  163.1014 H   0  0  0  0  0  0  0  0  0  0  0  0
  146.0777  137.1370  162.8752 H   0  0  0  0  0  0  0  0  0  0  0  0
  147.6982  137.3780  163.5487 H   0  0  0  0  0  0  0  0  0  0  0  0
  147.9254  135.8258  159.8967 H   0  0  0  0  0  0  0  0  0  0  0  0
  146.2658  136.3732  160.0829 H   0  0  0  0  0  0  0  0  0  0  0  0
  145.7733  133.8108  155.2987 H   0  0  0  0  0  0  0  0  0  0  0  0
  146.7153  134.7232  154.1437 H   0  0  0  0  0  0  0  0  0  0  0  0
  145.0330  133.3615  153.0055 H   0  0  0  0  0  0  0  0  0  0  0  0
  145.6086  131.8965  153.7748 H   0  0  0  0  0  0  0  0  0  0  0  0
  147.2710  131.5089  150.5893 H   0  0  0  0  0  0  0  0  0  0  0  0
  1  2  1  0  0  0  0
  1 28  1  0  0  0  0
  1 29  1  0  0  0  0
  1 30  1  0  0  0  0
  2  3  1  0  0  0  0
  2  6  1  0  0  0  0
  2 56  1  0  0  0  0
  3  4  1  0  0  0  0
  3 31  1  0  0  0  0
  3 32  1  0  0  0  0
  4  5  1  0  0  0  0
  4 33  1  0  0  0  0
  4 34  1  0  0  0  0
  5 35  1  0  0  0  0
  6 27  1  0  0  0  0
  6  7  1  0  0  0  0
  6 36  1  0  0  0  0
  7  8  1  0  0  0  0
  7 37  1  0  0  0  0
  7 38  1  0  0  0  0
  8  9  1  0  0  0  0
  8 39  1  0  0  0  0
  8 40  1  0  0  0  0
  9 10  1  0  0  0  0
  9 26  1  0  0  0  0
 10 15  1  0  0  0  0
 10 11  2  0  0  0  0
 11 12  1  0  0  0  0
 12 13  2  0  0  0  0
 12 41  1  0  0  0  0
 13 14  1  0  0  0  0
 14 18  1  0  0  0  0
 14 15  2  0  0  0  0
 15 16  1  0  0  0  0
 16 17  2  0  0  0  0
 17 18  1  0  0  0  0
 17 42  1  0  0  0  0
 18 19  1  0  0  0  0
 19 20  1  0  0  0  0
 19 43  1  0  0  0  0
 19 44  1  0  0  0  0
 20 25  1  0  0  0  0
 20 21  1  0  0  0  0
 20 22  1  0  0  0  0
 21 45  1  0  0  0  0
 22 23  1  0  0  0  0
 22 46  1  0  0  0  0
 22 47  1  0  0  0  0
 23 24  1  0  0  0  0
 23 48  1  0  0  0  0
 23 49  1  0  0  0  0
 24 25  1  0  0  0  0
 25 50  1  0  0  0  0
 25 51  1  0  0  0  0
 26 27  1  0  0  0  0
 26 52  1  0  0  0  0
 26 53  1  0  0  0  0
 27 54  1  0  0  0  0
 27 55  1  0  0  0  0
M  CHG  1   2   1
M  END
> <s_m_source_file>
AV-unprocessed.smi

> <i_m_source_file_index>
22

> <i_lp_mmshare_version>
43012

> <i_f3d_flags>
0

> <s_epik_input>
W09IXVtDSDJdW0NIMl1OKFtDSDNdKVtDSF0xW0NIMl1bQ0gyXU4oW0NIMl1bQ0gyXTEpYyhuW2NIXW4yKWMoYzIzKW5bY0hdbjNbQ0gyXVtDQEBdNChbT0hdKVtDSDJdW0NIMl1PW0NIMl00

> <s_epik_cmdline>
J2VwaWtfcHl0aG9uJywgJy1waCcsICc3LjAnLCAnLXRuJywgJzgnLCAnLW1hJywgJzIwMCcsICctbWV0YWxfYmluZGluZycsICctaW1hZScsICc8aW5maWxlLm1hZT4nLCAnLW9tYWUnLCAnPG91dGZpbGUubWFlPic=

> <r_lp_tautomer_probability>
1

> <r_epik_Ionization_Penalty>
0.00317524

> <r_epik_Ionization_Penalty_Charging>
0.00191487

> <r_epik_Ionization_Penalty_Neutral>
0.00126037

> <r_epik_State_Penalty>
-0

> <r_epik_Charging_Adjusted_Penalty>
0.00191487

> <i_epik_Tot_Q>
1

> <i_epik_Tot_abs_Q>
1

> <r_epik_Metal_State_Penalty>
-0

> <b_epik_Metal_Only>
0

> <s_lp_Force_Field>
OPLS_2005

> <r_lp_Energy>
47.7053

> <b_lp_Chiralities_Consistent>
1

> <s_lp_Variant>
AV-unprocessed.smi:22-2

> <Gold.Version>
5.8.1

> <Gold.Id.Protein>
6NUR|6NUR_protein|mol2

> <Gold.PLP.Fitness>
54.4115

> <Gold.PLP.PLP>
-42.4364

> <Gold.PLP.part.hbond>
-5.8279

> <Gold.PLP.part.metal>
0.0000

> <Gold.PLP.part.buried>
-5.3473

> <Gold.PLP.part.nonpolar>
-31.7846

> <Gold.PLP.part.repulsive>
0.0629

> <Gold.PLP.ligand.clash>
0.0000

> <Gold.PLP.ligand.torsion>
1.4928

> <Gold.PLP.Chemscore.Hbond>
4.7920

> <Gold.PLP.Chemscore.CHOScore>
0.0000

> <Gold.PLP.Chemscore.Metal>
0.0000

> <Gold.Chemscore.Hbonds>
donor molecule, donor type, donor heavy atom, donor atom, acceptor molecule, acceptor atom, score
      L1  H     2    56       P1 10747  1.00
      L1  H     5    35       P1 10186  0.90
      P1  H  6896  6908       L1    13  1.00
      P1  H  6931  6943       L1    24  0.95
      P1  H  6934  6947       L1    24  0.78

> <Gold.PLP.Chemscore.Internal.Correction>
0.5847

> <Gold.Rescore>
     Score         DG    S(hbond)    S(metal)    S(lipo)     H(rot)  DE(clash)    DE(int)     intcor
     17.04     -18.83       3.64        0.00      92.35       3.76       0.13       1.67       ----

> <Gold.Chemscore.Fitness>
17.0365

> <Gold.Chemscore.DG>
-18.8329

> <Gold.Chemscore.ZeroCoef>
-5.4800

> <Gold.Chemscore.Hbond>
3.6435

> <Gold.Chemscore.Metal>
0.0000

> <Gold.Chemscore.Lipo>
92.3493

> <Gold.Chemscore.Internal_Hbond>
0.0000

> <Gold.Chemscore.DEClash>
0.1299

> <Gold.Chemscore.DEInternal>
1.6665

> <Gold.Chemscore.Rot>
3.7583

> <Gold.Chemscore.Internal.Correction>
   9.000000E+99

> <Gold.Chemscore.Hbonds>
donor molecule, donor type, donor heavy atom, donor atom, acceptor molecule, acceptor atom, score
      L1  H     2    56       P1 10747  0.99
      L1  H     5    35       P1 10186  0.88
      P1  H  6896  6908       L1    13  0.25
      P1  H  6931  6943       L1    24  0.21
      P1  H  6934  6947       L1    24  0.53

> <Gold.Chemscore.Hbond.Weighted>
-12.1693

> <Gold.Chemscore.Metal.Weighted>
-0.0000

> <Gold.Chemscore.Lipo.Weighted>
-10.8049

> <Gold.Chemscore.Internal_Hbond.Weighted>
0.0000

> <Gold.Chemscore.DEClash.Weighted>
0.1299

> <Gold.Chemscore.DEInternal.Weighted>
1.6665

> <Gold.Chemscore.Rot.Weighted>
9.6213

> <Gold.Chemscore.Internal.Correction.Weighted>
   9.000000E+99

> <Gold.Protein.RotatedTorsions>
[ 6907 6896 6895 6894 ] final  159.75 input  -60.11 | X-H torsion
[ 7974 7965 7964 7962 ] final  171.62 input  175.53 | X-H torsion
[ 8008 7997 7996 7995 ] final  -42.78 input   59.86 | X-H torsion
[ 10167 10162 10161 10158 ] final -104.40 input  -65.29 | X-H torsion
[ 10718 10713 10712 10709 ] final   54.22 input   66.30 | X-H torsion
[ 10763 10752 10751 10750 ] final  156.95 input  -60.55 | X-H torsion
[ 11005 11000 10999 10996 ] final  145.85 input  -57.11 | X-H torsion

> <Gold.Protein.ActiveResidues>
 VAL166  LYS551  ARG553  GLY616  TRP617  ASP618  TYR619  PRO620  LYS621  CYS622 
 ASP623  PHE694  ASN695  SER759  ASP760  ASP761  ALA762  ILE779  LEU786  VAL792 
 PHE793  MET794  SER795  GLU796  ALA797  LYS798  CYS799  TRP800  GLU811  SER814 

> <Gold.Protein.RotatedAtoms>
  151.9809  133.3757  159.4106 H   0  0  0  0  0  0  0  0  0  0  0  0  # atno 6907 bound_to 6896
  150.6935  134.4040  159.5141 H   0  0  0  0  0  0  0  0  0  0  0  0  # atno 6908 bound_to 6896
  152.1758  134.8795  160.0581 H   0  0  0  0  0  0  0  0  0  0  0  0  # atno 6909 bound_to 6896
  144.7290  139.9377  143.6427 H   0  0  0  0  0  0  0  0  0  0  0  0  # atno 7974 bound_to 7965
  154.3998  140.1464  156.3412 H   0  0  0  0  0  0  0  0  0  0  0  0  # atno 8008 bound_to 7997
  155.8355  140.3464  155.5578 H   0  0  0  0  0  0  0  0  0  0  0  0  # atno 8009 bound_to 7997
  155.8143  140.0888  157.1876 H   0  0  0  0  0  0  0  0  0  0  0  0  # atno 8010 bound_to 7997
  140.2097  143.3756  152.1061 H   0  0  0  0  0  0  0  0  0  0  0  0  # atno 10167 bound_to 10162
  157.5238  130.8583  149.8593 H   0  0  0  0  0  0  0  0  0  0  0  0  # atno 10718 bound_to 10713
  154.1925  135.2794  155.3017 H   0  0  0  0  0  0  0  0  0  0  0  0  # atno 10763 bound_to 10752
  154.5918  135.5557  153.7289 H   0  0  0  0  0  0  0  0  0  0  0  0  # atno 10764 bound_to 10752
  153.0108  135.6370  154.2064 H   0  0  0  0  0  0  0  0  0  0  0  0  # atno 10765 bound_to 10752
  140.0746  134.9132  157.1401 H   0  0  0  0  0  0  0  0  0  0  0  0  # atno 11005 bound_to 11000
  146.0808  139.3796  143.0465 LP  0  0  0  0  0  0  0  0  0  0  0  0  # atno 17320 bound_to 7965
  145.7843  140.9843  143.1083 LP  0  0  0  0  0  0  0  0  0  0  0  0  # atno 17321 bound_to 7965
  139.5185  144.7006  151.5504 LP  0  0  0  0  0  0  0  0  0  0  0  0  # atno 17342 bound_to 10162
  140.6332  143.9035  150.6624 LP  0  0  0  0  0  0  0  0  0  0  0  0  # atno 17343 bound_to 10162
  156.0372  130.3748  150.1529 LP  0  0  0  0  0  0  0  0  0  0  0  0  # atno 17370 bound_to 10713
  156.9717  130.9836  151.3457 LP  0  0  0  0  0  0  0  0  0  0  0  0  # atno 17371 bound_to 10713
  140.3577  134.2529  155.7190 LP  0  0  0  0  0  0  0  0  0  0  0  0  # atno 17394 bound_to 11000
  141.2024  133.7937  157.0390 LP  0  0  0  0  0  0  0  0  0  0  0  0  # atno 17395 bound_to 11000

$$$$
