AV-unprocessed.smi:1335|AV-procd|sdf|5494|dock7
  -GOLD-   22720 5 73D 1   1.00000     0.00000
 Structure written by MMmdl.
 47 49  0  0  0  0  0  0  0  0  1 V2000
  146.6786  138.9615  153.1531 C   0  0  0  0  0  0  0  0  0  0  0  0
  147.5979  139.8133  153.8217 O   0  0  0  0  0  0  0  0  0  0  0  0
  147.2522  140.3089  155.0628 C   0  0  0  0  0  0  0  0  0  0  0  0
  145.9673  140.1369  155.6397 C   0  0  0  0  0  0  0  0  0  0  0  0
  145.6770  140.6556  156.9157 C   0  0  0  0  0  0  0  0  0  0  0  0
  146.6654  141.3475  157.6361 C   0  0  0  0  0  0  0  0  0  0  0  0
  147.9425  141.5251  157.0758 C   0  0  0  0  0  0  0  0  0  0  0  0
  148.2382  141.0220  155.7898 C   0  0  0  0  0  0  0  0  0  0  0  0
  149.6335  141.2218  155.2161 C   0  0  0  0  0  0  0  0  0  0  0  0
  150.0761  140.0886  154.4869 O   0  0  0  0  0  0  0  0  0  0  0  0
  150.6027  139.0625  155.3119 C   0  0  0  0  0  0  0  0  0  0  0  0
  151.6688  139.6746  156.2328 C   0  0  2  0  0  0  0  0  0  0  0  0
  152.8902  139.0177  155.9626 O   0  0  0  0  0  0  0  0  0  0  0  0
  151.3269  139.4947  157.7267 C   0  0  0  0  0  0  0  0  0  0  0  0
  152.0524  140.4515  158.5580 N   0  0  0  0  0  0  0  0  0  0  0  0
  152.9190  140.1605  159.5564 C   0  0  0  0  0  0  0  0  0  0  0  0
  153.2247  139.0320  159.9413 O   0  0  0  0  0  0  0  0  0  0  0  0
  153.3960  141.3279  160.0492 N   0  0  0  0  0  0  0  0  0  0  0  0
  154.3638  141.4959  161.1263 C   0  0  0  0  0  0  0  0  0  0  0  0
  152.8321  142.3934  159.3356 C   0  0  0  0  0  0  0  0  0  0  0  0
  153.0133  143.7821  159.4526 C   0  0  0  0  0  0  0  0  0  0  0  0
  152.2890  144.6053  158.5585 C   0  0  0  0  0  0  0  0  0  0  0  0
  151.4216  144.0386  157.5883 C   0  0  0  0  0  0  0  0  0  0  0  0
  151.2591  142.6366  157.4925 C   0  0  0  0  0  0  0  0  0  0  0  0
  151.9877  141.8427  158.3954 C   0  0  0  0  0  0  0  0  0  0  0  0
  147.0964  138.6678  152.1901 H   0  0  0  0  0  0  0  0  0  0  0  0
  145.7321  139.4683  152.9599 H   0  0  0  0  0  0  0  0  0  0  0  0
  146.4924  138.0499  153.7225 H   0  0  0  0  0  0  0  0  0  0  0  0
  145.1821  139.6059  155.1239 H   0  0  0  0  0  0  0  0  0  0  0  0
  144.6952  140.5170  157.3439 H   0  0  0  0  0  0  0  0  0  0  0  0
  146.4455  141.7397  158.6182 H   0  0  0  0  0  0  0  0  0  0  0  0
  148.6966  142.0511  157.6424 H   0  0  0  0  0  0  0  0  0  0  0  0
  149.6144  142.0995  154.5682 H   0  0  0  0  0  0  0  0  0  0  0  0
  150.3466  141.4214  156.0169 H   0  0  0  0  0  0  0  0  0  0  0  0
  149.8087  138.5946  155.8965 H   0  0  0  0  0  0  0  0  0  0  0  0
  151.0494  138.2896  154.6838 H   0  0  0  0  0  0  0  0  0  0  0  0
  151.7811  140.7305  155.9827 H   0  0  0  0  0  0  0  0  0  0  0  0
  152.8936  138.7495  155.0565 H   0  0  0  0  0  0  0  0  0  0  0  0
  150.2630  139.6680  157.8921 H   0  0  0  0  0  0  0  0  0  0  0  0
  151.5053  138.4691  158.0552 H   0  0  0  0  0  0  0  0  0  0  0  0
  153.9885  142.2031  161.8665 H   0  0  0  0  0  0  0  0  0  0  0  0
  155.3028  141.8822  160.7293 H   0  0  0  0  0  0  0  0  0  0  0  0
  154.5737  140.5560  161.6382 H   0  0  0  0  0  0  0  0  0  0  0  0
  153.6779  144.2053  160.1913 H   0  0  0  0  0  0  0  0  0  0  0  0
  152.3989  145.6783  158.6139 H   0  0  0  0  0  0  0  0  0  0  0  0
  150.8792  144.6848  156.9141 H   0  0  0  0  0  0  0  0  0  0  0  0
  150.6042  142.1988  156.7543 H   0  0  0  0  0  0  0  0  0  0  0  0
  1  2  1  0  0  0  0
  1 26  1  0  0  0  0
  1 27  1  0  0  0  0
  1 28  1  0  0  0  0
  2  3  1  0  0  0  0
  3  8  1  0  0  0  0
  3  4  2  0  0  0  0
  4  5  1  0  0  0  0
  4 29  1  0  0  0  0
  5  6  2  0  0  0  0
  5 30  1  0  0  0  0
  6  7  1  0  0  0  0
  6 31  1  0  0  0  0
  7  8  2  0  0  0  0
  7 32  1  0  0  0  0
  8  9  1  0  0  0  0
  9 10  1  0  0  0  0
  9 33  1  0  0  0  0
  9 34  1  0  0  0  0
 10 11  1  0  0  0  0
 11 12  1  0  0  0  0
 11 35  1  0  0  0  0
 11 36  1  0  0  0  0
 12 13  1  0  0  0  0
 12 14  1  0  0  0  0
 12 37  1  0  0  0  0
 13 38  1  0  0  0  0
 14 15  1  0  0  0  0
 14 39  1  0  0  0  0
 14 40  1  0  0  0  0
 15 25  1  0  0  0  0
 15 16  1  0  0  0  0
 16 17  2  0  0  0  0
 16 18  1  0  0  0  0
 18 19  1  0  0  0  0
 18 20  1  0  0  0  0
 19 41  1  0  0  0  0
 19 42  1  0  0  0  0
 19 43  1  0  0  0  0
 20 25  2  0  0  0  0
 20 21  1  0  0  0  0
 21 22  2  0  0  0  0
 21 44  1  0  0  0  0
 22 23  1  0  0  0  0
 22 45  1  0  0  0  0
 23 24  2  0  0  0  0
 23 46  1  0  0  0  0
 24 25  1  0  0  0  0
 24 47  1  0  0  0  0
M  END
> <s_m_source_file>
AV-unprocessed.smi

> <i_m_source_file_index>
1335

> <i_lp_mmshare_version>
43012

> <i_f3d_flags>
0

> <s_epik_input>
W0NIM11PYzFbY0hdW2NIXVtjSF1bY0hdYzFbQ0gyXU9bQ0gyXVtDQEhdKFtPSF0pW0NIMl1uKGMoPU8pbjJbQ0gzXSljKGMyMylbY0hdW2NIXVtjSF1bY0hdMw==

> <s_epik_cmdline>
J2VwaWtfcHl0aG9uJywgJy1waCcsICc3LjAnLCAnLXRuJywgJzgnLCAnLW1hJywgJzIwMCcsICctbWV0YWxfYmluZGluZycsICctaW1hZScsICc8aW5maWxlLm1hZT4nLCAnLW9tYWUnLCAnPG91dGZpbGUubWFlPic=

> <r_lp_tautomer_probability>
1

> <r_epik_Ionization_Penalty>
1.07897e-06

> <r_epik_Ionization_Penalty_Charging>
2.2947e-09

> <r_epik_Ionization_Penalty_Neutral>
1.07667e-06

> <r_epik_State_Penalty>
-0

> <r_epik_Charging_Adjusted_Penalty>
2.2947e-09

> <i_epik_Tot_Q>
0

> <i_epik_Tot_abs_Q>
0

> <r_epik_Metal_State_Penalty>
-0

> <b_epik_Metal_Only>
0

> <s_lp_Force_Field>
OPLS_2005

> <r_lp_Energy>
50.1795

> <b_lp_Chiralities_Consistent>
1

> <s_lp_Variant>
AV-unprocessed.smi:1335-1

> <Gold.Version>
5.8.1

> <Gold.Id.Protein>
6NUR|6NUR_protein|mol2

> <Gold.PLP.Fitness>
53.5847

> <Gold.PLP.PLP>
-50.4648

> <Gold.PLP.part.hbond>
-2.0000

> <Gold.PLP.part.metal>
0.0000

> <Gold.PLP.part.buried>
-6.6024

> <Gold.PLP.part.nonpolar>
-43.3279

> <Gold.PLP.part.repulsive>
1.1147

> <Gold.PLP.ligand.clash>
0.0000

> <Gold.PLP.ligand.torsion>
1.4541

> <Gold.PLP.Chemscore.Hbond>
1.9760

> <Gold.PLP.Chemscore.CHOScore>
0.0000

> <Gold.PLP.Chemscore.Metal>
0.0000

> <Gold.Chemscore.Hbonds>
donor molecule, donor type, donor heavy atom, donor atom, acceptor molecule, acceptor atom, score
      P1  H  7989  7998       L1    10  1.00
      P1  H  7997  8008       L1    13  1.00

> <Gold.PLP.Chemscore.Internal.Correction>
0.1002

> <Gold.Rescore>
     Score         DG    S(hbond)    S(metal)    S(lipo)     H(rot)  DE(clash)    DE(int)     intcor
     14.59     -17.52       0.97        0.00     130.05       2.50       0.08       2.86       ----

> <Gold.Chemscore.Fitness>
14.5874

> <Gold.Chemscore.DG>
-17.5207

> <Gold.Chemscore.ZeroCoef>
-5.4800

> <Gold.Chemscore.Hbond>
0.9684

> <Gold.Chemscore.Metal>
0.0000

> <Gold.Chemscore.Lipo>
130.0502

> <Gold.Chemscore.Internal_Hbond>
0.0000

> <Gold.Chemscore.DEClash>
0.0768

> <Gold.Chemscore.DEInternal>
2.8565

> <Gold.Chemscore.Rot>
2.5038

> <Gold.Chemscore.Internal.Correction>
   9.000000E+99

> <Gold.Chemscore.Hbonds>
donor molecule, donor type, donor heavy atom, donor atom, acceptor molecule, acceptor atom, score
      P1  H  7989  7998       L1    10  0.17
      P1  H  7997  8008       L1    13  0.64

> <Gold.Chemscore.Hbond.Weighted>
-3.2346

> <Gold.Chemscore.Metal.Weighted>
-0.0000

> <Gold.Chemscore.Lipo.Weighted>
-15.2159

> <Gold.Chemscore.Internal_Hbond.Weighted>
0.0000

> <Gold.Chemscore.DEClash.Weighted>
0.0768

> <Gold.Chemscore.DEInternal.Weighted>
2.8565

> <Gold.Chemscore.Rot.Weighted>
6.4098

> <Gold.Chemscore.Internal.Correction.Weighted>
   9.000000E+99

> <Gold.Protein.RotatedTorsions>
[ 6907 6896 6895 6894 ] final  -54.21 input  -60.11 | X-H torsion
[ 7974 7965 7964 7962 ] final   69.49 input  175.53 | X-H torsion
[ 8008 7997 7996 7995 ] final  -43.35 input   59.86 | X-H torsion
[ 10167 10162 10161 10158 ] final  -48.68 input  -65.29 | X-H torsion
[ 10718 10713 10712 10709 ] final   44.29 input   66.30 | X-H torsion
[ 10763 10752 10751 10750 ] final  -24.28 input  -60.55 | X-H torsion
[ 11005 11000 10999 10996 ] final -150.85 input  -57.11 | X-H torsion

> <Gold.Protein.ActiveResidues>
 VAL166  LYS551  ARG553  GLY616  TRP617  ASP618  TYR619  PRO620  LYS621  CYS622 
 ASP623  PHE694  ASN695  SER759  ASP760  ASP761  ALA762  ILE779  LEU786  VAL792 
 PHE793  MET794  SER795  GLU796  ALA797  LYS798  CYS799  TRP800  GLU811  SER814 

> <Gold.Protein.RotatedAtoms>
  150.8358  134.7631  159.6891 H   0  0  0  0  0  0  0  0  0  0  0  0  # atno 6907 bound_to 6896
  152.4455  134.5500  159.9874 H   0  0  0  0  0  0  0  0  0  0  0  0  # atno 6908 bound_to 6896
  151.5650  133.3360  159.3014 H   0  0  0  0  0  0  0  0  0  0  0  0  # atno 6909 bound_to 6896
  145.7897  139.2928  143.1217 H   0  0  0  0  0  0  0  0  0  0  0  0  # atno 7974 bound_to 7965
  154.3997  140.1450  156.3505 H   0  0  0  0  0  0  0  0  0  0  0  0  # atno 8008 bound_to 7997
  155.8273  140.3467  155.5530 H   0  0  0  0  0  0  0  0  0  0  0  0  # atno 8009 bound_to 7997
  155.8225  140.0900  157.1831 H   0  0  0  0  0  0  0  0  0  0  0  0  # atno 8010 bound_to 7997
  140.6720  143.2730  151.4105 H   0  0  0  0  0  0  0  0  0  0  0  0  # atno 10167 bound_to 10162
  157.4252  130.7993  149.7552 H   0  0  0  0  0  0  0  0  0  0  0  0  # atno 10718 bound_to 10713
  153.6813  135.6966  153.5117 H   0  0  0  0  0  0  0  0  0  0  0  0  # atno 10763 bound_to 10752
  153.2483  135.4283  155.0769 H   0  0  0  0  0  0  0  0  0  0  0  0  # atno 10764 bound_to 10752
  154.8399  135.3525  154.6356 H   0  0  0  0  0  0  0  0  0  0  0  0  # atno 10765 bound_to 10752
  140.7358  134.3570  157.5158 H   0  0  0  0  0  0  0  0  0  0  0  0  # atno 11005 bound_to 11000
  145.9989  140.8537  143.0028 LP  0  0  0  0  0  0  0  0  0  0  0  0  # atno 17320 bound_to 7965
  144.6783  140.2324  143.7354 LP  0  0  0  0  0  0  0  0  0  0  0  0  # atno 17321 bound_to 7965
  139.5993  144.1330  152.2180 LP  0  0  0  0  0  0  0  0  0  0  0  0  # atno 17342 bound_to 10162
  140.0709  144.5780  150.7192 LP  0  0  0  0  0  0  0  0  0  0  0  0  # atno 17343 bound_to 10162
  155.9894  130.3952  150.3074 LP  0  0  0  0  0  0  0  0  0  0  0  0  # atno 17370 bound_to 10713
  157.1226  131.0250  151.3003 LP  0  0  0  0  0  0  0  0  0  0  0  0  # atno 17371 bound_to 10713
  139.8816  134.9048  156.2886 LP  0  0  0  0  0  0  0  0  0  0  0  0  # atno 17394 bound_to 11000
  140.9881  133.7226  156.0772 LP  0  0  0  0  0  0  0  0  0  0  0  0  # atno 17395 bound_to 11000

$$$$
