AV-unprocessed.smi:1793|AV-procd|sdf|7229|dock8
  -GOLD-   22720 8473D 1   1.00000     0.00000
 Structure written by MMmdl.
 47 49  0  0  0  0  0  0  0  0  2 V2000
  150.2073  139.8441  154.5196 C   0  0  0  0  0  0  0  0  0  0  0  0
  151.3575  139.2882  155.3717 C   0  0  1  0  0  0  0  0  0  0  0  0
  151.4178  140.0305  156.6298 N   0  0  0  0  0  0  0  0  0  0  0  0
  152.3175  139.8506  157.6074 C   0  0  0  0  0  0  0  0  0  0  0  0
  153.2229  139.0184  157.5634 O   0  0  0  0  0  0  0  0  0  0  0  0
  152.1054  140.7050  158.6220 N   0  0  0  0  0  0  0  0  0  0  0  0
  152.8928  140.8792  159.7947 C   0  0  0  0  0  0  0  0  0  0  0  0
  153.5973  139.7901  160.3696 C   0  0  0  0  0  0  0  0  0  0  0  0
  154.3115  139.9689  161.5691 C   0  0  0  0  0  0  0  0  0  0  0  0
  154.2974  141.2307  162.1868 C   0  0  0  0  0  0  0  0  0  0  0  0
  153.6083  142.2435  161.6221 N   0  3  0  0  0  0  0  0  0  0  0  0
  152.9142  142.1397  160.4610 C   0  0  0  0  0  0  0  0  0  0  0  0
  152.2490  143.2949  159.9886 N   0  0  0  0  0  0  0  0  0  0  0  0
  152.0809  144.4568  160.8539 C   0  0  0  0  0  0  0  0  0  0  0  0
  151.6526  145.5874  159.9224 C   0  0  0  0  0  0  0  0  0  0  0  0
  152.4239  145.2707  158.6449 C   0  0  0  0  0  0  0  0  0  0  0  0
  152.4638  143.7393  158.6149 C   0  0  0  0  0  0  0  0  0  0  0  0
  151.1894  137.7824  155.6534 C   0  0  2  0  0  0  0  0  0  0  0  0
  151.0201  136.9096  154.4096 C   0  0  0  0  0  0  0  0  0  0  0  0
  150.3162  135.6742  154.9451 C   0  0  0  0  0  0  0  0  0  0  0  0
  149.7067  136.1393  156.2713 C   0  0  0  0  0  0  0  0  0  0  0  0
  149.9786  137.5327  156.3497 O   0  0  0  0  0  0  0  0  0  0  0  0
  150.1499  139.3354  153.5569 H   0  0  0  0  0  0  0  0  0  0  0  0
  150.3454  140.9073  154.3192 H   0  0  0  0  0  0  0  0  0  0  0  0
  149.2457  139.7205  155.0188 H   0  0  0  0  0  0  0  0  0  0  0  0
  152.2817  139.4273  154.8081 H   0  0  0  0  0  0  0  0  0  0  0  0
  150.7126  140.7405  156.7622 H   0  0  0  0  0  0  0  0  0  0  0  0
  151.3759  141.3885  158.4808 H   0  0  0  0  0  0  0  0  0  0  0  0
  153.5823  138.8089  159.9196 H   0  0  0  0  0  0  0  0  0  0  0  0
  154.8505  139.1454  162.0146 H   0  0  0  0  0  0  0  0  0  0  0  0
  154.8080  141.4594  163.1111 H   0  0  0  0  0  0  0  0  0  0  0  0
  151.3407  144.2717  161.6326 H   0  0  0  0  0  0  0  0  0  0  0  0
  153.0269  144.7151  161.3315 H   0  0  0  0  0  0  0  0  0  0  0  0
  150.5796  145.5304  159.7335 H   0  0  0  0  0  0  0  0  0  0  0  0
  151.8753  146.5767  160.3233 H   0  0  0  0  0  0  0  0  0  0  0  0
  151.9669  145.7001  157.7531 H   0  0  0  0  0  0  0  0  0  0  0  0
  153.4389  145.6624  158.7236 H   0  0  0  0  0  0  0  0  0  0  0  0
  153.4069  143.3758  158.2052 H   0  0  0  0  0  0  0  0  0  0  0  0
  151.6527  143.3589  157.9939 H   0  0  0  0  0  0  0  0  0  0  0  0
  152.0231  137.4109  156.2527 H   0  0  0  0  0  0  0  0  0  0  0  0
  150.3775  137.4108  153.6843 H   0  0  0  0  0  0  0  0  0  0  0  0
  151.9664  136.6794  153.9193 H   0  0  0  0  0  0  0  0  0  0  0  0
  149.5587  135.3144  154.2481 H   0  0  0  0  0  0  0  0  0  0  0  0
  151.0253  134.8640  155.1187 H   0  0  0  0  0  0  0  0  0  0  0  0
  148.6339  135.9534  156.3245 H   0  0  0  0  0  0  0  0  0  0  0  0
  150.1818  135.6309  157.1113 H   0  0  0  0  0  0  0  0  0  0  0  0
  153.6163  143.1469  162.0958 H   0  0  0  0  0  0  0  0  0  0  0  0
  1  2  1  0  0  0  0
  1 23  1  0  0  0  0
  1 24  1  0  0  0  0
  1 25  1  0  0  0  0
  2  3  1  0  0  0  0
  2 18  1  0  0  0  0
  2 26  1  0  0  0  0
  3  4  1  0  0  0  0
  3 27  1  0  0  0  0
  4  5  2  0  0  0  0
  4  6  1  0  0  0  0
  6  7  1  0  0  0  0
  6 28  1  0  0  0  0
  7 12  1  0  0  0  0
  7  8  2  0  0  0  0
  8  9  1  0  0  0  0
  8 29  1  0  0  0  0
  9 10  2  0  0  0  0
  9 30  1  0  0  0  0
 10 11  1  0  0  0  0
 10 31  1  0  0  0  0
 11 12  2  0  0  0  0
 11 47  1  0  0  0  0
 12 13  1  0  0  0  0
 13 17  1  0  0  0  0
 13 14  1  0  0  0  0
 14 15  1  0  0  0  0
 14 32  1  0  0  0  0
 14 33  1  0  0  0  0
 15 16  1  0  0  0  0
 15 34  1  0  0  0  0
 15 35  1  0  0  0  0
 16 17  1  0  0  0  0
 16 36  1  0  0  0  0
 16 37  1  0  0  0  0
 17 38  1  0  0  0  0
 17 39  1  0  0  0  0
 18 22  1  0  0  0  0
 18 19  1  0  0  0  0
 18 40  1  0  0  0  0
 19 20  1  0  0  0  0
 19 41  1  0  0  0  0
 19 42  1  0  0  0  0
 20 21  1  0  0  0  0
 20 43  1  0  0  0  0
 20 44  1  0  0  0  0
 21 22  1  0  0  0  0
 21 45  1  0  0  0  0
 21 46  1  0  0  0  0
M  CHG  1  11   1
M  END
> <s_m_source_file>
AV-unprocessed.smi

> <i_m_source_file_index>
1793

> <i_lp_mmshare_version>
43012

> <i_f3d_flags>
0

> <s_epik_input>
TzFbQ0gyXVtDSDJdW0NIMl1bQ0BIXTFbQ0BIXShbQ0gzXSlbTkhdQyg9TylbTkhdYzJbY0hdW2NIXVtjSF1uYzJOM1tDSDJdW0NIMl1bQ0gyXVtDSDJdMw==

> <s_epik_cmdline>
J2VwaWtfcHl0aG9uJywgJy1waCcsICc3LjAnLCAnLXRuJywgJzgnLCAnLW1hJywgJzIwMCcsICctbWV0YWxfYmluZGluZycsICctaW1hZScsICc8aW5maWxlLm1hZT4nLCAnLW9tYWUnLCAnPG91dGZpbGUubWFlPic=

> <r_lp_tautomer_probability>
0.999994

> <r_epik_Ionization_Penalty>
1.11092

> <r_epik_Ionization_Penalty_Charging>
1.1109

> <r_epik_Ionization_Penalty_Neutral>
1.9363e-05

> <r_epik_State_Penalty>
1.16888

> <r_epik_Charging_Adjusted_Penalty>
2.27978

> <i_epik_Tot_Q>
1

> <i_epik_Tot_abs_Q>
1

> <r_epik_Metal_State_Penalty>
1.25472

> <b_epik_Metal_Only>
0

> <s_lp_Force_Field>
OPLS_2005

> <r_lp_Energy>
51.9838

> <b_lp_Chiralities_Consistent>
1

> <s_lp_Variant>
AV-unprocessed.smi:1793-6

> <Gold.Version>
5.8.1

> <Gold.Id.Protein>
6NUR|6NUR_protein|mol2

> <Gold.PLP.Fitness>
46.5218

> <Gold.PLP.PLP>
-43.9050

> <Gold.PLP.part.hbond>
-1.0484

> <Gold.PLP.part.metal>
0.0000

> <Gold.PLP.part.buried>
-3.0480

> <Gold.PLP.part.nonpolar>
-40.3216

> <Gold.PLP.part.repulsive>
0.2612

> <Gold.PLP.ligand.clash>
0.0000

> <Gold.PLP.ligand.torsion>
0.4106

> <Gold.PLP.Chemscore.Hbond>
1.0000

> <Gold.PLP.Chemscore.CHOScore>
0.0000

> <Gold.PLP.Chemscore.Metal>
0.0000

> <Gold.Chemscore.Hbonds>
donor molecule, donor type, donor heavy atom, donor atom, acceptor molecule, acceptor atom, score
      P1  H  7997  8010       L1     5  1.00

> <Gold.PLP.Chemscore.Internal.Correction>
0.4380

> <Gold.Rescore>
     Score         DG    S(hbond)    S(metal)    S(lipo)     H(rot)  DE(clash)    DE(int)     intcor
     16.55     -18.59       0.90        0.00     116.58       1.38       0.29       1.75       ----

> <Gold.Chemscore.Fitness>
16.5482

> <Gold.Chemscore.DG>
-18.5935

> <Gold.Chemscore.ZeroCoef>
-5.4800

> <Gold.Chemscore.Hbond>
0.9004

> <Gold.Chemscore.Metal>
0.0000

> <Gold.Chemscore.Lipo>
116.5767

> <Gold.Chemscore.Internal_Hbond>
0.0000

> <Gold.Chemscore.DEClash>
0.2904

> <Gold.Chemscore.DEInternal>
1.7549

> <Gold.Chemscore.Rot>
1.3802

> <Gold.Chemscore.Internal.Correction>
   9.000000E+99

> <Gold.Chemscore.Hbonds>
donor molecule, donor type, donor heavy atom, donor atom, acceptor molecule, acceptor atom, score
      P1  H  7997  8010       L1     5  0.26

> <Gold.Chemscore.Hbond.Weighted>
-3.0073

> <Gold.Chemscore.Metal.Weighted>
-0.0000

> <Gold.Chemscore.Lipo.Weighted>
-13.6395

> <Gold.Chemscore.Internal_Hbond.Weighted>
0.0000

> <Gold.Chemscore.DEClash.Weighted>
0.2904

> <Gold.Chemscore.DEInternal.Weighted>
1.7549

> <Gold.Chemscore.Rot.Weighted>
3.5332

> <Gold.Chemscore.Internal.Correction.Weighted>
   9.000000E+99

> <Gold.Protein.RotatedTorsions>
[ 6907 6896 6895 6894 ] final -110.36 input  -60.11 | X-H torsion
[ 7974 7965 7964 7962 ] final  -55.92 input  175.53 | X-H torsion
[ 8008 7997 7996 7995 ] final   40.07 input   59.86 | X-H torsion
[ 10167 10162 10161 10158 ] final  -52.33 input  -65.29 | X-H torsion
[ 10718 10713 10712 10709 ] final   34.81 input   66.30 | X-H torsion
[ 10763 10752 10751 10750 ] final  -93.17 input  -60.55 | X-H torsion
[ 11005 11000 10999 10996 ] final  -32.82 input  -57.11 | X-H torsion

> <Gold.Protein.ActiveResidues>
 VAL166  LYS551  ARG553  GLY616  TRP617  ASP618  TYR619  PRO620  LYS621  CYS622 
 ASP623  PHE694  ASN695  SER759  ASP760  ASP761  ALA762  ILE779  LEU786  VAL792 
 PHE793  MET794  SER795  GLU796  ALA797  LYS798  CYS799  TRP800  GLU811  SER814 

> <Gold.Protein.RotatedAtoms>
  150.7620  133.9393  159.3450 H   0  0  0  0  0  0  0  0  0  0  0  0  # atno 6907 bound_to 6896
  151.7299  135.0875  160.0308 H   0  0  0  0  0  0  0  0  0  0  0  0  # atno 6908 bound_to 6896
  152.3596  133.6243  159.6041 H   0  0  0  0  0  0  0  0  0  0  0  0  # atno 6909 bound_to 6896
  145.8687  140.8232  142.9900 H   0  0  0  0  0  0  0  0  0  0  0  0  # atno 7974 bound_to 7965
  155.2471  140.3350  155.4286 H   0  0  0  0  0  0  0  0  0  0  0  0  # atno 8008 bound_to 7997
  156.2231  140.1817  156.7473 H   0  0  0  0  0  0  0  0  0  0  0  0  # atno 8009 bound_to 7997
  154.5856  140.0646  156.9152 H   0  0  0  0  0  0  0  0  0  0  0  0  # atno 8010 bound_to 7997
  140.6543  143.2588  151.4632 H   0  0  0  0  0  0  0  0  0  0  0  0  # atno 10167 bound_to 10162
  157.3150  130.7418  149.6748 H   0  0  0  0  0  0  0  0  0  0  0  0  # atno 10718 bound_to 10713
  154.6932  135.5204  153.8422 H   0  0  0  0  0  0  0  0  0  0  0  0  # atno 10763 bound_to 10752
  153.0648  135.6581  154.0389 H   0  0  0  0  0  0  0  0  0  0  0  0  # atno 10764 bound_to 10752
  154.0260  135.2989  155.3354 H   0  0  0  0  0  0  0  0  0  0  0  0  # atno 10765 bound_to 10752
  140.9584  133.7179  156.1329 H   0  0  0  0  0  0  0  0  0  0  0  0  # atno 11005 bound_to 11000
  144.6726  140.1205  143.7450 LP  0  0  0  0  0  0  0  0  0  0  0  0  # atno 17320 bound_to 7965
  145.9163  139.2518  143.1408 LP  0  0  0  0  0  0  0  0  0  0  0  0  # atno 17321 bound_to 7965
  139.5763  144.1812  152.1907 LP  0  0  0  0  0  0  0  0  0  0  0  0  # atno 17342 bound_to 10162
  140.1123  144.5446  150.6916 LP  0  0  0  0  0  0  0  0  0  0  0  0  # atno 17343 bound_to 10162
  155.9681  130.4240  150.4588 LP  0  0  0  0  0  0  0  0  0  0  0  0  # atno 17370 bound_to 10713
  157.2594  131.0563  151.2330 LP  0  0  0  0  0  0  0  0  0  0  0  0  # atno 17371 bound_to 10713
  140.7503  134.4052  157.5542 LP  0  0  0  0  0  0  0  0  0  0  0  0  # atno 17394 bound_to 11000
  139.8870  134.8895  156.2555 LP  0  0  0  0  0  0  0  0  0  0  0  0  # atno 17395 bound_to 11000

$$$$
