AV-unprocessed.smi:1878|AV-procd|sdf|7630|dock9
  -GOLD-   22720 9353D 1   1.00000     0.00000
 Structure written by MMmdl.
 35 36  0  0  0  0  0  0  0  0  3 V2000
  146.9363  140.2840  153.7236 O   0  0  0  0  0  0  0  0  0  0  0  0
  147.7548  139.3662  153.6621 C   0  0  0  0  0  0  0  0  0  0  0  0
  147.4717  138.2892  152.9182 N   0  0  0  0  0  0  0  0  0  0  0  0
  146.2456  138.0936  152.1533 C   0  0  0  0  0  0  0  0  0  0  0  0
  145.4702  136.8659  152.6527 C   0  0  0  0  0  0  0  0  0  0  0  0
  145.4775  135.9259  151.7083 F   0  0  0  0  0  0  0  0  0  0  0  0
  146.0402  136.3723  153.7522 F   0  0  0  0  0  0  0  0  0  0  0  0
  144.2058  137.1924  152.9215 F   0  0  0  0  0  0  0  0  0  0  0  0
  148.9648  139.2851  154.2717 N   0  5  0  0  0  0  0  0  0  0  0  0
  149.4894  140.1568  155.1601 C   0  0  0  0  0  0  0  0  0  0  0  0
  150.4359  139.6452  156.0791 C   0  0  0  0  0  0  0  0  0  0  0  0
  151.0380  140.4744  157.0461 C   0  0  0  0  0  0  0  0  0  0  0  0
  150.6899  141.8408  157.0940 C   0  0  0  0  0  0  0  0  0  0  0  0
  151.2247  142.7542  158.0132 N   0  0  0  0  0  0  0  0  0  0  0  0
  151.6843  144.0087  157.4406 C   0  0  0  0  0  0  0  0  0  0  0  0
  152.5840  144.6399  158.5061 C   0  0  0  0  0  0  0  0  0  0  0  0
  153.0223  143.4701  159.3952 C   0  0  0  0  0  0  0  0  0  0  0  0
  152.3366  142.2399  158.7949 C   0  0  0  0  0  0  0  0  0  0  0  0
  149.7849  142.3112  156.2130 N   0  3  0  0  0  0  0  0  0  0  0  0
  149.1895  141.5420  155.2758 C   0  0  0  0  0  0  0  0  0  0  0  0
  148.1574  137.5493  152.8807 H   0  0  0  0  0  0  0  0  0  0  0  0
  145.6225  138.9854  152.2369 H   0  0  0  0  0  0  0  0  0  0  0  0
  146.4936  137.9720  151.0977 H   0  0  0  0  0  0  0  0  0  0  0  0
  150.7066  138.5994  156.0464 H   0  0  0  0  0  0  0  0  0  0  0  0
  151.7541  140.0575  157.7386 H   0  0  0  0  0  0  0  0  0  0  0  0
  152.2539  143.8328  156.5273 H   0  0  0  0  0  0  0  0  0  0  0  0
  150.8434  144.6569  157.1920 H   0  0  0  0  0  0  0  0  0  0  0  0
  153.4302  145.1628  158.0593 H   0  0  0  0  0  0  0  0  0  0  0  0
  152.0210  145.3636  159.0969 H   0  0  0  0  0  0  0  0  0  0  0  0
  154.1060  143.3517  159.4209 H   0  0  0  0  0  0  0  0  0  0  0  0
  152.6818  143.6334  160.4184 H   0  0  0  0  0  0  0  0  0  0  0  0
  151.9873  141.5578  159.5708 H   0  0  0  0  0  0  0  0  0  0  0  0
  153.0339  141.6949  158.1569 H   0  0  0  0  0  0  0  0  0  0  0  0
  148.4917  142.0825  154.6565 H   0  0  0  0  0  0  0  0  0  0  0  0
  149.5358  143.2994  156.2544 H   0  0  0  0  0  0  0  0  0  0  0  0
  1  2  2  0  0  0  0
  2  3  1  0  0  0  0
  2  9  1  0  0  0  0
  3  4  1  0  0  0  0
  3 21  1  0  0  0  0
  4  5  1  0  0  0  0
  4 22  1  0  0  0  0
  4 23  1  0  0  0  0
  5  6  1  0  0  0  0
  5  7  1  0  0  0  0
  5  8  1  0  0  0  0
  9 10  1  0  0  0  0
 10 20  1  0  0  0  0
 10 11  2  0  0  0  0
 11 12  1  0  0  0  0
 11 24  1  0  0  0  0
 12 13  2  0  0  0  0
 12 25  1  0  0  0  0
 13 14  1  0  0  0  0
 13 19  1  0  0  0  0
 14 18  1  0  0  0  0
 14 15  1  0  0  0  0
 15 16  1  0  0  0  0
 15 26  1  0  0  0  0
 15 27  1  0  0  0  0
 16 17  1  0  0  0  0
 16 28  1  0  0  0  0
 16 29  1  0  0  0  0
 17 18  1  0  0  0  0
 17 30  1  0  0  0  0
 17 31  1  0  0  0  0
 18 32  1  0  0  0  0
 18 33  1  0  0  0  0
 19 20  2  0  0  0  0
 19 35  1  0  0  0  0
 20 34  1  0  0  0  0
M  CHG  1   9  -1
M  CHG  1  19   1
M  END
> <s_m_source_file>
AV-unprocessed.smi

> <i_m_source_file_index>
1878

> <i_lp_mmshare_version>
43012

> <i_f3d_flags>
0

> <s_epik_input>
RkMoRikoRilbQ0gyXVtOSF1DKD1PKVtOSF1jMVtjSF1bY0hdYyhuW2NIXTEpTjJbQ0gyXVtDSDJdW0NIMl1bQ0gyXTI=

> <s_epik_cmdline>
J2VwaWtfcHl0aG9uJywgJy1waCcsICc3LjAnLCAnLXRuJywgJzgnLCAnLW1hJywgJzIwMCcsICctbWV0YWxfYmluZGluZycsICctaW1hZScsICc8aW5maWxlLm1hZT4nLCAnLW9tYWUnLCAnPG91dGZpbGUubWFlPic=

> <r_lp_tautomer_probability>
0.999994

> <r_epik_Ionization_Penalty>
6.00991

> <r_epik_Ionization_Penalty_Charging>
6.00991

> <r_epik_Ionization_Penalty_Neutral>
1.33916e-07

> <r_epik_State_Penalty>
7.27363

> <r_epik_Charging_Adjusted_Penalty>
13.2835

> <i_epik_Tot_Q>
0

> <i_epik_Tot_abs_Q>
2

> <r_epik_Metal_State_Penalty>
3.28277

> <b_epik_Metal_Only>
1

> <s_lp_Force_Field>
OPLS_2005

> <r_lp_Energy>
31.9355

> <b_lp_Chiralities_Consistent>
1

> <s_lp_Variant>
AV-unprocessed.smi:1878-5

> <Gold.Version>
5.8.1

> <Gold.Id.Protein>
6NUR|6NUR_protein|mol2

> <Gold.PLP.Fitness>
45.9404

> <Gold.PLP.PLP>
-39.7764

> <Gold.PLP.part.hbond>
-2.9866

> <Gold.PLP.part.metal>
0.0000

> <Gold.PLP.part.buried>
-2.5973

> <Gold.PLP.part.nonpolar>
-37.1244

> <Gold.PLP.part.repulsive>
1.0877

> <Gold.PLP.ligand.clash>
0.0000

> <Gold.PLP.ligand.torsion>
1.4554

> <Gold.PLP.Chemscore.Hbond>
3.0000

> <Gold.PLP.Chemscore.CHOScore>
0.0000

> <Gold.PLP.Chemscore.Metal>
0.0000

> <Gold.Chemscore.Hbonds>
donor molecule, donor type, donor heavy atom, donor atom, acceptor molecule, acceptor atom, score
      L1  H     3    21       P1  7948  0.93
      L1  H    19    35       P1  8028  2.00

> <Gold.PLP.Chemscore.Internal.Correction>
0.0748

> <Gold.Rescore>
     Score         DG    S(hbond)    S(metal)    S(lipo)     H(rot)  DE(clash)    DE(int)     intcor
     16.92     -18.33       1.91        0.00      84.46       1.33       0.10       1.32       ----

> <Gold.Chemscore.Fitness>
16.9166

> <Gold.Chemscore.DG>
-18.3307

> <Gold.Chemscore.ZeroCoef>
-5.4800

> <Gold.Chemscore.Hbond>
1.9097

> <Gold.Chemscore.Metal>
0.0000

> <Gold.Chemscore.Lipo>
84.4585

> <Gold.Chemscore.Internal_Hbond>
0.0000

> <Gold.Chemscore.DEClash>
0.0953

> <Gold.Chemscore.DEInternal>
1.3188

> <Gold.Chemscore.Rot>
1.3317

> <Gold.Chemscore.Internal.Correction>
   9.000000E+99

> <Gold.Chemscore.Hbonds>
donor molecule, donor type, donor heavy atom, donor atom, acceptor molecule, acceptor atom, score
      L1  H     3    21       P1  7948  0.90
      L1  H    19    35       P1  8028  0.98

> <Gold.Chemscore.Hbond.Weighted>
-6.3783

> <Gold.Chemscore.Metal.Weighted>
-0.0000

> <Gold.Chemscore.Lipo.Weighted>
-9.8816

> <Gold.Chemscore.Internal_Hbond.Weighted>
0.0000

> <Gold.Chemscore.DEClash.Weighted>
0.0953

> <Gold.Chemscore.DEInternal.Weighted>
1.3188

> <Gold.Chemscore.Rot.Weighted>
3.4092

> <Gold.Chemscore.Internal.Correction.Weighted>
   9.000000E+99

> <Gold.Protein.RotatedTorsions>
[ 6907 6896 6895 6894 ] final  108.57 input  -60.11 | X-H torsion
[ 7974 7965 7964 7962 ] final  -63.18 input  175.53 | X-H torsion
[ 8008 7997 7996 7995 ] final -113.67 input   59.86 | X-H torsion
[ 10167 10162 10161 10158 ] final  -53.58 input  -65.29 | X-H torsion
[ 10718 10713 10712 10709 ] final  -33.68 input   66.30 | X-H torsion
[ 10763 10752 10751 10750 ] final  -42.71 input  -60.55 | X-H torsion
[ 11005 11000 10999 10996 ] final   36.47 input  -57.11 | X-H torsion

> <Gold.Protein.ActiveResidues>
 VAL166  LYS551  ARG553  GLY616  TRP617  ASP618  TYR619  PRO620  LYS621  CYS622 
 ASP623  PHE694  ASN695  SER759  ASP760  ASP761  ALA762  ILE779  LEU786  VAL792 
 PHE793  MET794  SER795  GLU796  ALA797  LYS798  CYS799  TRP800  GLU811  SER814 

> <Gold.Protein.RotatedAtoms>
  152.5106  133.9069  159.7468 H   0  0  0  0  0  0  0  0  0  0  0  0  # atno 6907 bound_to 6896
  150.9472  133.6582  159.2786 H   0  0  0  0  0  0  0  0  0  0  0  0  # atno 6908 bound_to 6896
  151.3873  135.0955  159.9567 H   0  0  0  0  0  0  0  0  0  0  0  0  # atno 6909 bound_to 6896
  145.7822  140.8756  143.0324 H   0  0  0  0  0  0  0  0  0  0  0  0  # atno 7974 bound_to 7965
  155.0243  140.0393  157.2449 H   0  0  0  0  0  0  0  0  0  0  0  0  # atno 8008 bound_to 7997
  154.7351  140.2738  155.6399 H   0  0  0  0  0  0  0  0  0  0  0  0  # atno 8009 bound_to 7997
  156.2851  140.2676  156.2062 H   0  0  0  0  0  0  0  0  0  0  0  0  # atno 8010 bound_to 7997
  140.6477  143.2546  151.4812 H   0  0  0  0  0  0  0  0  0  0  0  0  # atno 10167 bound_to 10162
  156.3597  130.4322  149.7634 H   0  0  0  0  0  0  0  0  0  0  0  0  # atno 10718 bound_to 10713
  153.9836  135.6714  153.4751 H   0  0  0  0  0  0  0  0  0  0  0  0  # atno 10763 bound_to 10752
  153.0737  135.4960  154.8356 H   0  0  0  0  0  0  0  0  0  0  0  0  # atno 10764 bound_to 10752
  154.7150  135.3105  154.9099 H   0  0  0  0  0  0  0  0  0  0  0  0  # atno 10765 bound_to 10752
  140.2322  134.3513  155.7959 H   0  0  0  0  0  0  0  0  0  0  0  0  # atno 11005 bound_to 11000
  144.6794  140.0005  143.7484 LP  0  0  0  0  0  0  0  0  0  0  0  0  # atno 17320 bound_to 7965
  146.0063  139.3132  143.0897 LP  0  0  0  0  0  0  0  0  0  0  0  0  # atno 17321 bound_to 7965
  139.5689  144.1976  152.1807 LP  0  0  0  0  0  0  0  0  0  0  0  0  # atno 17342 bound_to 10162
  140.1266  144.5326  150.6829 LP  0  0  0  0  0  0  0  0  0  0  0  0  # atno 17343 bound_to 10162
  156.4803  130.8038  151.3052 LP  0  0  0  0  0  0  0  0  0  0  0  0  # atno 17370 bound_to 10713
  157.7472  131.0008  150.2939 LP  0  0  0  0  0  0  0  0  0  0  0  0  # atno 17371 bound_to 10713
  141.2217  133.7252  156.8750 LP  0  0  0  0  0  0  0  0  0  0  0  0  # atno 17394 bound_to 11000
  140.1738  134.9081  157.2866 LP  0  0  0  0  0  0  0  0  0  0  0  0  # atno 17395 bound_to 11000

$$$$
