AV-unprocessed.smi:1381|AV-procd|sdf|5607|dock1
  -GOLD-   22720 5213D 1   1.00000     0.00000
 Structure written by MMmdl.
 43 44  0  0  0  0  0  0  0  0  2 V2000
  154.0683  137.6777  156.6174 C   0  0  0  0  0  0  0  0  0  0  0  0
  152.9938  138.1076  155.6788 C   0  0  0  0  0  0  0  0  0  0  0  0
  151.9111  137.4652  155.1469 C   0  0  0  0  0  0  0  0  0  0  0  0
  151.3145  138.4648  154.3332 C   0  0  0  0  0  0  0  0  0  0  0  0
  150.1354  138.1936  153.5932 N   0  0  0  0  0  0  0  0  0  0  0  0
  149.0185  138.9387  153.5331 C   0  0  0  0  0  0  0  0  0  0  0  0
  148.8443  140.0075  154.1194 O   0  0  0  0  0  0  0  0  0  0  0  0
  148.0920  138.3703  152.7478 N   0  0  0  0  0  0  0  0  0  0  0  0
  146.7715  138.9291  152.4819 C   0  0  0  0  0  0  0  0  0  0  0  0
  146.0085  138.0972  151.4328 C   0  0  0  0  0  0  0  0  0  0  0  0
  145.9852  136.6509  151.7629 N   0  3  1  0  0  0  0  0  0  0  0  0
  145.5755  136.3993  153.1638 C   0  0  0  0  0  0  0  0  0  0  0  0
  145.6692  134.8985  153.4922 C   0  0  1  0  0  0  0  0  0  0  0  0
  145.1675  134.5874  154.9066 C   0  0  0  0  0  0  0  0  0  0  0  0
  144.8697  134.1607  152.5715 O   0  0  0  0  0  0  0  0  0  0  0  0
  145.2087  134.3477  151.1974 C   0  0  2  0  0  0  0  0  0  0  0  0
  146.5421  133.6733  150.8289 C   0  0  0  0  0  0  0  0  0  0  0  0
  145.1555  135.8448  150.8338 C   0  0  0  0  0  0  0  0  0  0  0  0
  151.9735  139.6129  154.3648 N   0  0  0  0  0  0  0  0  0  0  0  0
  153.0536  139.3897  155.2267 O   0  0  0  0  0  0  0  0  0  0  0  0
  153.8291  136.7151  157.0693 H   0  0  0  0  0  0  0  0  0  0  0  0
  154.1958  138.4049  157.4194 H   0  0  0  0  0  0  0  0  0  0  0  0
  155.0200  137.5793  156.0953 H   0  0  0  0  0  0  0  0  0  0  0  0
  151.5992  136.4452  155.3162 H   0  0  0  0  0  0  0  0  0  0  0  0
  150.1419  137.3380  153.0578 H   0  0  0  0  0  0  0  0  0  0  0  0
  148.3156  137.4919  152.3030 H   0  0  0  0  0  0  0  0  0  0  0  0
  146.2187  138.9971  153.4193 H   0  0  0  0  0  0  0  0  0  0  0  0
  146.9021  139.9505  152.1236 H   0  0  0  0  0  0  0  0  0  0  0  0
  144.9842  138.4703  151.3881 H   0  0  0  0  0  0  0  0  0  0  0  0
  146.4293  138.2355  150.4356 H   0  0  0  0  0  0  0  0  0  0  0  0
  146.2191  136.9605  153.8424 H   0  0  0  0  0  0  0  0  0  0  0  0
  144.5568  136.7600  153.3162 H   0  0  0  0  0  0  0  0  0  0  0  0
  146.7073  134.5730  153.4234 H   0  0  0  0  0  0  0  0  0  0  0  0
  145.7485  135.1238  155.6572 H   0  0  0  0  0  0  0  0  0  0  0  0
  145.2492  133.5220  155.1229 H   0  0  0  0  0  0  0  0  0  0  0  0
  144.1217  134.8714  155.0270 H   0  0  0  0  0  0  0  0  0  0  0  0
  144.4318  133.8403  150.6246 H   0  0  0  0  0  0  0  0  0  0  0  0
  146.7098  133.7128  149.7523 H   0  0  0  0  0  0  0  0  0  0  0  0
  146.5407  132.6234  151.1225 H   0  0  0  0  0  0  0  0  0  0  0  0
  147.3961  134.1531  151.3064 H   0  0  0  0  0  0  0  0  0  0  0  0
  144.1233  136.1954  150.8850 H   0  0  0  0  0  0  0  0  0  0  0  0
  145.4805  135.9813  149.8029 H   0  0  0  0  0  0  0  0  0  0  0  0
  146.9354  136.3187  151.6799 H   0  0  0  0  0  0  0  0  0  0  0  0
  1  2  1  0  0  0  0
  1 21  1  0  0  0  0
  1 22  1  0  0  0  0
  1 23  1  0  0  0  0
  2 20  1  0  0  0  0
  2  3  2  0  0  0  0
  3  4  1  0  0  0  0
  3 24  1  0  0  0  0
  4  5  1  0  0  0  0
  4 19  2  0  0  0  0
  5  6  1  0  0  0  0
  5 25  1  0  0  0  0
  6  7  2  0  0  0  0
  6  8  1  0  0  0  0
  8  9  1  0  0  0  0
  8 26  1  0  0  0  0
  9 10  1  0  0  0  0
  9 27  1  0  0  0  0
  9 28  1  0  0  0  0
 10 11  1  0  0  0  0
 10 29  1  0  0  0  0
 10 30  1  0  0  0  0
 11 18  1  0  0  0  0
 11 12  1  0  0  0  0
 11 43  1  0  0  0  0
 12 13  1  0  0  0  0
 12 31  1  0  0  0  0
 12 32  1  0  0  0  0
 13 14  1  0  0  0  0
 13 15  1  0  0  0  0
 13 33  1  0  0  0  0
 14 34  1  0  0  0  0
 14 35  1  0  0  0  0
 14 36  1  0  0  0  0
 15 16  1  0  0  0  0
 16 17  1  0  0  0  0
 16 18  1  0  0  0  0
 16 37  1  0  0  0  0
 17 38  1  0  0  0  0
 17 39  1  0  0  0  0
 17 40  1  0  0  0  0
 18 41  1  0  0  0  0
 18 42  1  0  0  0  0
 19 20  1  0  0  0  0
M  CHG  1  11   1
M  END
> <s_m_source_file>
AV-unprocessed.smi

> <i_m_source_file_index>
1381

> <i_lp_mmshare_version>
43012

> <i_f3d_flags>
0

> <s_epik_input>
W0NIM11jMVtjSF1jKG5vMSlbTkhdQyg9TylbTkhdW0NIMl1bQ0gyXU4yW0NIMl1bQ0BASF0oW0NIM10pT1tDQEBIXShbQ0gzXSlbQ0gyXTI=

> <s_epik_cmdline>
J2VwaWtfcHl0aG9uJywgJy1waCcsICc3LjAnLCAnLXRuJywgJzgnLCAnLW1hJywgJzIwMCcsICctbWV0YWxfYmluZGluZycsICctaW1hZScsICc8aW5maWxlLm1hZT4nLCAnLW9tYWUnLCAnPG91dGZpbGUubWFlPic=

> <r_epik_Ionization_Penalty>
0.707076

> <r_epik_Ionization_Penalty_Charging>
0.707039

> <r_epik_Ionization_Penalty_Neutral>
3.6548e-05

> <r_epik_State_Penalty>
0.730276

> <r_epik_Charging_Adjusted_Penalty>
1.43732

> <i_epik_Tot_Q>
1

> <i_epik_Tot_abs_Q>
1

> <r_epik_Metal_State_Penalty>
0.743132

> <b_epik_Metal_Only>
0

> <s_lp_Force_Field>
OPLS_2005

> <r_lp_Energy>
14.2109

> <b_lp_Chiralities_Consistent>
1

> <s_lp_Variant>
AV-unprocessed.smi:1381-6

> <Gold.Version>
5.8.1

> <Gold.Id.Protein>
6NUR|6NUR_protein|mol2

> <Gold.PLP.Fitness>
45.4751

> <Gold.PLP.PLP>
-29.3976

> <Gold.PLP.part.hbond>
-6.2881

> <Gold.PLP.part.metal>
0.0000

> <Gold.PLP.part.buried>
-0.3091

> <Gold.PLP.part.nonpolar>
-23.6599

> <Gold.PLP.part.repulsive>
0.4268

> <Gold.PLP.ligand.clash>
0.0000

> <Gold.PLP.ligand.torsion>
0.4895

> <Gold.PLP.Chemscore.Hbond>
5.6752

> <Gold.PLP.Chemscore.CHOScore>
0.0000

> <Gold.PLP.Chemscore.Metal>
0.0000

> <Gold.Chemscore.Hbonds>
donor molecule, donor type, donor heavy atom, donor atom, acceptor molecule, acceptor atom, score
      L1  H     5    25       P1  7948  0.64
      L1  H     8    26       P1  7948  0.81
      L1  H    11    43       P1  7948  2.00
      P1  H  7989  7998       L1    19  0.88
      P1  H  7997  8008       L1    20  1.00

> <Gold.PLP.Chemscore.Internal.Correction>
0.0309

> <Gold.Rescore>
     Score         DG    S(hbond)    S(metal)    S(lipo)     H(rot)  DE(clash)    DE(int)     intcor
     19.87     -21.25       3.94        0.00      57.54       1.61       0.81       0.57       ----

> <Gold.Chemscore.Fitness>
19.8681

> <Gold.Chemscore.DG>
-21.2485

> <Gold.Chemscore.ZeroCoef>
-5.4800

> <Gold.Chemscore.Hbond>
3.9381

> <Gold.Chemscore.Metal>
0.0000

> <Gold.Chemscore.Lipo>
57.5380

> <Gold.Chemscore.Internal_Hbond>
0.0000

> <Gold.Chemscore.DEClash>
0.8148

> <Gold.Chemscore.DEInternal>
0.5656

> <Gold.Chemscore.Rot>
1.6081

> <Gold.Chemscore.Internal.Correction>
   9.000000E+99

> <Gold.Chemscore.Hbonds>
donor molecule, donor type, donor heavy atom, donor atom, acceptor molecule, acceptor atom, score
      L1  H     5    25       P1  7948  0.08
      L1  H     8    26       P1  7948  0.80
      L1  H    11    43       P1  7948  0.96
      P1  H  7989  7998       L1    19  0.82
      P1  H  7997  8008       L1    20  0.55

> <Gold.Chemscore.Hbond.Weighted>
-13.1532

> <Gold.Chemscore.Metal.Weighted>
-0.0000

> <Gold.Chemscore.Lipo.Weighted>
-6.7319

> <Gold.Chemscore.Internal_Hbond.Weighted>
0.0000

> <Gold.Chemscore.DEClash.Weighted>
0.8148

> <Gold.Chemscore.DEInternal.Weighted>
0.5656

> <Gold.Chemscore.Rot.Weighted>
4.1167

> <Gold.Chemscore.Internal.Correction.Weighted>
   9.000000E+99

> <Gold.Protein.RotatedTorsions>
[ 6907 6896 6895 6894 ] final  -90.38 input  -60.11 | X-H torsion
[ 7974 7965 7964 7962 ] final   58.04 input  175.53 | X-H torsion
[ 8008 7997 7996 7995 ] final  -28.85 input   59.86 | X-H torsion
[ 10167 10162 10161 10158 ] final  162.68 input  -65.29 | X-H torsion
[ 10718 10713 10712 10709 ] final -169.32 input   66.30 | X-H torsion
[ 10763 10752 10751 10750 ] final -109.55 input  -60.55 | X-H torsion
[ 11005 11000 10999 10996 ] final   88.91 input  -57.11 | X-H torsion

> <Gold.Protein.ActiveResidues>
 VAL166  LYS551  ARG553  GLY616  TRP617  ASP618  TYR619  PRO620  LYS621  CYS622 
 ASP623  PHE694  ASN695  SER759  ASP760  ASP761  ALA762  ILE779  LEU786  VAL792 
 PHE793  MET794  SER795  GLU796  ALA797  LYS798  CYS799  TRP800  GLU811  SER814 

> <Gold.Protein.RotatedAtoms>
  150.6881  134.2441  159.4483 H   0  0  0  0  0  0  0  0  0  0  0  0  # atno 6907 bound_to 6896
  152.0383  134.9724  160.0583 H   0  0  0  0  0  0  0  0  0  0  0  0  # atno 6908 bound_to 6896
  152.1236  133.4333  159.4724 H   0  0  0  0  0  0  0  0  0  0  0  0  # atno 6909 bound_to 6896
  145.9225  139.3741  143.0469 H   0  0  0  0  0  0  0  0  0  0  0  0  # atno 7974 bound_to 7965
  154.4315  140.1834  156.1154 H   0  0  0  0  0  0  0  0  0  0  0  0  # atno 8008 bound_to 7997
  156.0185  140.3343  155.6988 H   0  0  0  0  0  0  0  0  0  0  0  0  # atno 8009 bound_to 7997
  155.6010  140.0640  157.2723 H   0  0  0  0  0  0  0  0  0  0  0  0  # atno 8010 bound_to 7997
  139.4864  144.4413  151.8948 H   0  0  0  0  0  0  0  0  0  0  0  0  # atno 10167 bound_to 10162
  156.7099  130.9229  151.3088 H   0  0  0  0  0  0  0  0  0  0  0  0  # atno 10718 bound_to 10713
  154.8199  135.4597  154.0750 H   0  0  0  0  0  0  0  0  0  0  0  0  # atno 10763 bound_to 10752
  153.2112  135.6882  153.8118 H   0  0  0  0  0  0  0  0  0  0  0  0  # atno 10764 bound_to 10752
  153.7569  135.3290  155.3307 H   0  0  0  0  0  0  0  0  0  0  0  0  # atno 10765 bound_to 10752
  139.8886  134.8518  156.3067 H   0  0  0  0  0  0  0  0  0  0  0  0  # atno 11005 bound_to 11000
  145.8531  140.9518  143.0739 LP  0  0  0  0  0  0  0  0  0  0  0  0  # atno 17320 bound_to 7965
  144.6754  140.0432  143.7480 LP  0  0  0  0  0  0  0  0  0  0  0  0  # atno 17321 bound_to 7965
  140.3865  144.2670  150.5903 LP  0  0  0  0  0  0  0  0  0  0  0  0  # atno 17342 bound_to 10162
  140.5186  143.2271  151.8424 LP  0  0  0  0  0  0  0  0  0  0  0  0  # atno 17343 bound_to 10162
  157.6940  130.9263  150.0593 LP  0  0  0  0  0  0  0  0  0  0  0  0  # atno 17370 bound_to 10713
  156.1668  130.3645  149.9220 LP  0  0  0  0  0  0  0  0  0  0  0  0  # atno 17371 bound_to 10713
  140.9877  133.7228  156.0767 LP  0  0  0  0  0  0  0  0  0  0  0  0  # atno 17394 bound_to 11000
  140.7666  134.3879  157.5516 LP  0  0  0  0  0  0  0  0  0  0  0  0  # atno 17395 bound_to 11000

$$$$
