AV-unprocessed.smi:1033|AV-procd|sdf|4493|dock5
  -GOLD-   22720 2483D 1   1.00000     0.00000
 Structure written by MMmdl.
 56 58  0  0  0  0  0  0  0  0  2 V2000
  153.1181  142.0821  159.4731 C   0  0  0  0  0  0  0  0  0  0  0  0
  152.0724  141.8540  158.3959 C   0  0  0  0  0  0  0  0  0  0  0  0
  151.6737  140.5321  158.0941 C   0  0  0  0  0  0  0  0  0  0  0  0
  150.7041  140.2771  157.0998 C   0  0  0  0  0  0  0  0  0  0  0  0
  150.1725  139.0820  156.6462 N   0  0  0  0  0  0  0  0  0  0  0  0
  149.3195  139.5026  155.7168 C   0  0  0  0  0  0  0  0  0  0  0  0
  149.2412  140.8313  155.5090 N   0  0  0  0  0  0  0  0  0  0  0  0
  148.3975  141.5245  154.5526 C   0  0  0  0  0  0  0  0  0  0  0  0
  147.3764  140.5824  153.8876 C   0  0  1  0  0  0  0  0  0  0  0  0
  146.4615  141.3505  153.1292 O   0  0  0  0  0  0  0  0  0  0  0  0
  148.0600  139.5611  152.9576 C   0  0  0  0  0  0  0  0  0  0  0  0
  147.3657  138.2482  152.9367 N   0  3  0  0  0  0  0  0  0  0  0  0
  146.2074  138.1958  152.0045 C   0  0  0  0  0  0  0  0  0  0  0  0
  145.5898  136.7831  152.0020 C   0  0  0  0  0  0  0  0  0  0  0  0
  145.1687  136.3311  153.3303 N   0  0  0  0  0  0  0  0  0  0  0  0
  143.9892  137.0195  153.8683 C   0  0  0  0  0  0  0  0  0  0  0  0
  142.7239  136.9560  152.9894 C   0  0  1  0  0  0  0  0  0  0  0  0
  141.8048  135.7771  153.3405 C   0  0  0  0  0  0  0  0  0  0  0  0
  141.9981  138.1516  153.1804 O   0  0  0  0  0  0  0  0  0  0  0  0
  146.3211  136.3964  154.2292 C   0  0  0  0  0  0  0  0  0  0  0  0
  146.9651  137.7970  154.2945 C   0  0  0  0  0  0  0  0  0  0  0  0
  150.1407  141.3899  156.4098 C   0  0  0  0  0  0  0  0  0  0  0  0
  150.5279  142.7097  156.7011 C   0  0  0  0  0  0  0  0  0  0  0  0
  151.4974  142.9466  157.6981 C   0  0  0  0  0  0  0  0  0  0  0  0
  151.9086  144.3753  158.0072 C   0  0  0  0  0  0  0  0  0  0  0  0
  153.4765  141.1387  159.8863 H   0  0  0  0  0  0  0  0  0  0  0  0
  152.7006  142.6691  160.2914 H   0  0  0  0  0  0  0  0  0  0  0  0
  153.9773  142.6156  159.0663 H   0  0  0  0  0  0  0  0  0  0  0  0
  152.1104  139.6997  158.6263 H   0  0  0  0  0  0  0  0  0  0  0  0
  148.7210  138.8044  155.1497 H   0  0  0  0  0  0  0  0  0  0  0  0
  147.8906  142.3465  155.0603 H   0  0  0  0  0  0  0  0  0  0  0  0
  149.0435  141.9746  153.7978 H   0  0  0  0  0  0  0  0  0  0  0  0
  146.8214  140.0687  154.6718 H   0  0  0  0  0  0  0  0  0  0  0  0
  145.6574  140.8603  153.0417 H   0  0  0  0  0  0  0  0  0  0  0  0
  148.0862  139.9764  151.9486 H   0  0  0  0  0  0  0  0  0  0  0  0
  149.0999  139.4112  153.2515 H   0  0  0  0  0  0  0  0  0  0  0  0
  145.4658  138.9452  152.2838 H   0  0  0  0  0  0  0  0  0  0  0  0
  146.5258  138.4369  150.9914 H   0  0  0  0  0  0  0  0  0  0  0  0
  144.7584  136.7395  151.2998 H   0  0  0  0  0  0  0  0  0  0  0  0
  146.3292  136.0824  151.6117 H   0  0  0  0  0  0  0  0  0  0  0  0
  143.7432  136.5843  154.8381 H   0  0  0  0  0  0  0  0  0  0  0  0
  144.2255  138.0641  154.0700 H   0  0  0  0  0  0  0  0  0  0  0  0
  142.9894  136.9129  151.9335 H   0  0  0  0  0  0  0  0  0  0  0  0
  142.3045  134.8239  153.1661 H   0  0  0  0  0  0  0  0  0  0  0  0
  140.9012  135.7878  152.7302 H   0  0  0  0  0  0  0  0  0  0  0  0
  141.5014  135.8059  154.3875 H   0  0  0  0  0  0  0  0  0  0  0  0
  142.4496  138.8533  152.7364 H   0  0  0  0  0  0  0  0  0  0  0  0
  146.0298  136.0748  155.2299 H   0  0  0  0  0  0  0  0  0  0  0  0
  147.0723  135.6792  153.8954 H   0  0  0  0  0  0  0  0  0  0  0  0
  147.8441  137.7555  154.9387 H   0  0  0  0  0  0  0  0  0  0  0  0
  146.2826  138.5209  154.7417 H   0  0  0  0  0  0  0  0  0  0  0  0
  150.0818  143.5327  156.1627 H   0  0  0  0  0  0  0  0  0  0  0  0
  151.3654  145.0894  157.3874 H   0  0  0  0  0  0  0  0  0  0  0  0
  152.9739  144.5143  157.8222 H   0  0  0  0  0  0  0  0  0  0  0  0
  151.7037  144.6144  159.0510 H   0  0  0  0  0  0  0  0  0  0  0  0
  148.0414  137.5744  152.6048 H   0  0  0  0  0  0  0  0  0  0  0  0
  1  2  1  0  0  0  0
  1 26  1  0  0  0  0
  1 27  1  0  0  0  0
  1 28  1  0  0  0  0
  2 24  1  0  0  0  0
  2  3  2  0  0  0  0
  3  4  1  0  0  0  0
  3 29  1  0  0  0  0
  4 22  2  0  0  0  0
  4  5  1  0  0  0  0
  5  6  2  0  0  0  0
  6  7  1  0  0  0  0
  6 30  1  0  0  0  0
  7  8  1  0  0  0  0
  7 22  1  0  0  0  0
  8  9  1  0  0  0  0
  8 31  1  0  0  0  0
  8 32  1  0  0  0  0
  9 10  1  0  0  0  0
  9 11  1  0  0  0  0
  9 33  1  0  0  0  0
 10 34  1  0  0  0  0
 11 12  1  0  0  0  0
 11 35  1  0  0  0  0
 11 36  1  0  0  0  0
 12 21  1  0  0  0  0
 12 13  1  0  0  0  0
 12 56  1  0  0  0  0
 13 14  1  0  0  0  0
 13 37  1  0  0  0  0
 13 38  1  0  0  0  0
 14 15  1  0  0  0  0
 14 39  1  0  0  0  0
 14 40  1  0  0  0  0
 15 16  1  0  0  0  0
 15 20  1  0  0  0  0
 16 17  1  0  0  0  0
 16 41  1  0  0  0  0
 16 42  1  0  0  0  0
 17 18  1  0  0  0  0
 17 19  1  0  0  0  0
 17 43  1  0  0  0  0
 18 44  1  0  0  0  0
 18 45  1  0  0  0  0
 18 46  1  0  0  0  0
 19 47  1  0  0  0  0
 20 21  1  0  0  0  0
 20 48  1  0  0  0  0
 20 49  1  0  0  0  0
 21 50  1  0  0  0  0
 21 51  1  0  0  0  0
 22 23  1  0  0  0  0
 23 24  2  0  0  0  0
 23 52  1  0  0  0  0
 24 25  1  0  0  0  0
 25 53  1  0  0  0  0
 25 54  1  0  0  0  0
 25 55  1  0  0  0  0
M  CHG  1  12   1
M  END
> <s_m_source_file>
AV-unprocessed.smi

> <i_m_source_file_index>
1033

> <i_lp_mmshare_version>
43012

> <i_f3d_flags>
0

> <s_epik_input>
W0NIM11jKFtjSF0xKWMoW0NIM10pW2NIXWMoYzEyKW4oW2NIXW4yKVtDSDJdW0NASF0oW09IXSlbQ0gyXU4zW0NIMl1bQ0gyXU4oW0NIMl1bQ0gyXTMpW0NIMl1bQ0BIXShbQ0gzXSlbT0hd

> <s_epik_cmdline>
J2VwaWtfcHl0aG9uJywgJy1waCcsICc3LjAnLCAnLXRuJywgJzgnLCAnLW1hJywgJzIwMCcsICctbWV0YWxfYmluZGluZycsICctaW1hZScsICc8aW5maWxlLm1hZT4nLCAnLW9tYWUnLCAnPG91dGZpbGUubWFlPic=

> <r_epik_Ionization_Penalty>
0.131893

> <r_epik_Ionization_Penalty_Charging>
0.00208556

> <r_epik_Ionization_Penalty_Neutral>
0.129808

> <r_epik_State_Penalty>
0.452125

> <r_epik_Charging_Adjusted_Penalty>
0.454211

> <i_epik_Tot_Q>
1

> <i_epik_Tot_abs_Q>
1

> <r_epik_Metal_State_Penalty>
0.376389

> <b_epik_Metal_Only>
0

> <s_lp_Force_Field>
OPLS_2005

> <r_lp_Energy>
31.8043

> <b_lp_Chiralities_Consistent>
1

> <s_lp_Variant>
AV-unprocessed.smi:1033-4

> <Gold.Version>
5.8.1

> <Gold.Id.Protein>
6NUR|6NUR_protein|mol2

> <Gold.PLP.Fitness>
48.1584

> <Gold.PLP.PLP>
-38.7244

> <Gold.PLP.part.hbond>
-3.0000

> <Gold.PLP.part.metal>
0.0000

> <Gold.PLP.part.buried>
1.4335

> <Gold.PLP.part.nonpolar>
-38.6048

> <Gold.PLP.part.repulsive>
0.1491

> <Gold.PLP.ligand.clash>
0.0000

> <Gold.PLP.ligand.torsion>
1.1614

> <Gold.PLP.Chemscore.Hbond>
3.8775

> <Gold.PLP.Chemscore.CHOScore>
0.0000

> <Gold.PLP.Chemscore.Metal>
0.0000

> <Gold.Chemscore.Hbonds>
donor molecule, donor type, donor heavy atom, donor atom, acceptor molecule, acceptor atom, score
      L1  H    10    34       P1 10175  0.88
      L1  H    12    56       P1  7948  2.00
      L1  H    19    47       P1 10175  1.00

> <Gold.PLP.Chemscore.Internal.Correction>
0.1243

> <Gold.Rescore>
     Score         DG    S(hbond)    S(metal)    S(lipo)     H(rot)  DE(clash)    DE(int)     intcor
     16.39     -20.77       2.62        0.00     122.88       3.07       3.15       1.23       ----

> <Gold.Chemscore.Fitness>
16.3873

> <Gold.Chemscore.DG>
-20.7657

> <Gold.Chemscore.ZeroCoef>
-5.4800

> <Gold.Chemscore.Hbond>
2.6213

> <Gold.Chemscore.Metal>
0.0000

> <Gold.Chemscore.Lipo>
122.8819

> <Gold.Chemscore.Internal_Hbond>
0.0000

> <Gold.Chemscore.DEClash>
3.1518

> <Gold.Chemscore.DEInternal>
1.2265

> <Gold.Chemscore.Rot>
3.0650

> <Gold.Chemscore.Internal.Correction>
   9.000000E+99

> <Gold.Chemscore.Hbonds>
donor molecule, donor type, donor heavy atom, donor atom, acceptor molecule, acceptor atom, score
      L1  H    10    34       P1 10175  0.42
      L1  H    12    56       P1  7948  1.00
      L1  H    19    47       P1 10175  0.97

> <Gold.Chemscore.Hbond.Weighted>
-8.7550

> <Gold.Chemscore.Metal.Weighted>
-0.0000

> <Gold.Chemscore.Lipo.Weighted>
-14.3772

> <Gold.Chemscore.Internal_Hbond.Weighted>
0.0000

> <Gold.Chemscore.DEClash.Weighted>
3.1518

> <Gold.Chemscore.DEInternal.Weighted>
1.2265

> <Gold.Chemscore.Rot.Weighted>
7.8465

> <Gold.Chemscore.Internal.Correction.Weighted>
   9.000000E+99

> <Gold.Protein.RotatedTorsions>
[ 6907 6896 6895 6894 ] final  -98.34 input  -60.11 | X-H torsion
[ 7974 7965 7964 7962 ] final   73.19 input  175.53 | X-H torsion
[ 8008 7997 7996 7995 ] final   61.04 input   59.86 | X-H torsion
[ 10167 10162 10161 10158 ] final   14.75 input  -65.29 | X-H torsion
[ 10718 10713 10712 10709 ] final   -6.88 input   66.30 | X-H torsion
[ 10763 10752 10751 10750 ] final  145.77 input  -60.55 | X-H torsion
[ 11005 11000 10999 10996 ] final   -0.15 input  -57.11 | X-H torsion

> <Gold.Protein.ActiveResidues>
 VAL166  LYS551  ARG553  GLY616  TRP617  ASP618  TYR619  PRO620  LYS621  CYS622 
 ASP623  PHE694  ASN695  SER759  ASP760  ASP761  ALA762  ILE779  LEU786  VAL792 
 PHE793  MET794  SER795  GLU796  ALA797  LYS798  CYS799  TRP800  GLU811  SER814 

> <Gold.Protein.RotatedAtoms>
  150.7044  134.1209  159.4034 H   0  0  0  0  0  0  0  0  0  0  0  0  # atno 6907 bound_to 6896
  151.9196  135.0302  160.0530 H   0  0  0  0  0  0  0  0  0  0  0  0  # atno 6908 bound_to 6896
  152.2268  133.4991  159.5230 H   0  0  0  0  0  0  0  0  0  0  0  0  # atno 6909 bound_to 6896
  145.7440  139.2732  143.1470 H   0  0  0  0  0  0  0  0  0  0  0  0  # atno 7974 bound_to 7965
  155.5919  140.3493  155.4569 H   0  0  0  0  0  0  0  0  0  0  0  0  # atno 8008 bound_to 7997
  156.0294  140.1271  157.0298 H   0  0  0  0  0  0  0  0  0  0  0  0  # atno 8009 bound_to 7997
  154.4346  140.1046  156.6064 H   0  0  0  0  0  0  0  0  0  0  0  0  # atno 8010 bound_to 7997
  140.5915  143.8787  150.6878 H   0  0  0  0  0  0  0  0  0  0  0  0  # atno 10167 bound_to 10162
  156.7253  130.5163  149.5858 H   0  0  0  0  0  0  0  0  0  0  0  0  # atno 10718 bound_to 10713
  154.0109  135.2914  155.3392 H   0  0  0  0  0  0  0  0  0  0  0  0  # atno 10763 bound_to 10752
  154.7104  135.5152  153.8660 H   0  0  0  0  0  0  0  0  0  0  0  0  # atno 10764 bound_to 10752
  153.0723  135.6652  154.0341 H   0  0  0  0  0  0  0  0  0  0  0  0  # atno 10765 bound_to 10752
  140.6331  133.9557  155.8285 H   0  0  0  0  0  0  0  0  0  0  0  0  # atno 11005 bound_to 11000
  146.0420  140.8155  142.9824 LP  0  0  0  0  0  0  0  0  0  0  0  0  # atno 17320 bound_to 7965
  144.6864  140.2925  143.7276 LP  0  0  0  0  0  0  0  0  0  0  0  0  # atno 17321 bound_to 7965
  140.2310  143.3735  152.1565 LP  0  0  0  0  0  0  0  0  0  0  0  0  # atno 17342 bound_to 10162
  139.5230  144.7066  151.5335 LP  0  0  0  0  0  0  0  0  0  0  0  0  # atno 17343 bound_to 10162
  156.1566  130.6346  151.0665 LP  0  0  0  0  0  0  0  0  0  0  0  0  # atno 17370 bound_to 10713
  157.6881  131.0818  150.7185 LP  0  0  0  0  0  0  0  0  0  0  0  0  # atno 17371 bound_to 10713
  141.0661  134.0275  157.3592 LP  0  0  0  0  0  0  0  0  0  0  0  0  # atno 17394 bound_to 11000
  139.9108  135.0189  156.7684 LP  0  0  0  0  0  0  0  0  0  0  0  0  # atno 17395 bound_to 11000

$$$$
