AV-unprocessed.smi:2168|AV-procd|sdf|8820|dock9
  -GOLD-   2272012 13D 1   1.00000     0.00000
 Structure written by MMmdl.
 45 46  0  0  0  0  0  0  0  0  2 V2000
  152.3463  142.2338  160.6468 C   0  0  0  0  0  0  0  0  0  0  0  0
  151.0090  142.1984  159.8912 C   0  0  0  0  0  0  0  0  0  0  0  0
  151.1563  141.7468  158.4926 N   0  0  0  0  0  0  0  0  0  0  0  0
  150.8294  142.7197  157.4296 C   0  0  0  0  0  0  0  0  0  0  0  0
  150.1470  143.9906  157.9609 C   0  0  0  0  0  0  0  0  0  0  0  0
  151.9313  140.2251  158.1196 S   0  0  0  0  0  0  0  0  0  0  0  0
  153.1062  140.1615  159.0026 O   0  0  0  0  0  0  0  0  0  0  0  0
  150.9032  139.1818  158.2819 O   0  0  0  0  0  0  0  0  0  0  0  0
  152.3538  140.5403  156.5778 N   0  5  0  0  0  0  0  0  0  0  0  0
  151.8229  139.7766  155.4588 C   0  0  0  0  0  0  0  0  0  0  0  0
  152.2184  138.3106  155.5548 C   0  0  0  0  0  0  0  0  0  0  0  0
  151.2452  137.3039  155.7342 C   0  0  0  0  0  0  0  0  0  0  0  0
  151.6597  135.9610  155.8316 C   0  0  0  0  0  0  0  0  0  0  0  0
  153.0385  135.6537  155.7456 C   0  0  0  0  0  0  0  0  0  0  0  0
  153.4786  134.3156  155.8500 N   0  0  0  0  0  0  0  0  0  0  0  0
  152.9398  133.3382  154.9055 C   0  0  0  0  0  0  0  0  0  0  0  0
  153.7507  132.0328  154.9634 C   0  0  0  0  0  0  0  0  0  0  0  0
  153.7850  131.5476  156.3012 O   0  0  0  0  0  0  0  0  0  0  0  0
  154.4170  132.4700  157.1823 C   0  0  0  0  0  0  0  0  0  0  0  0
  153.6305  133.7921  157.2053 C   0  0  0  0  0  0  0  0  0  0  0  0
  153.9707  136.6236  155.5746 N   0  0  0  0  0  0  0  0  0  0  0  0
  153.5708  137.9104  155.4822 C   0  0  0  0  0  0  0  0  0  0  0  0
  152.2117  142.6483  161.6456 H   0  0  0  0  0  0  0  0  0  0  0  0
  153.0875  142.8451  160.1330 H   0  0  0  0  0  0  0  0  0  0  0  0
  152.7625  141.2337  160.7655 H   0  0  0  0  0  0  0  0  0  0  0  0
  150.3169  141.5322  160.4062 H   0  0  0  0  0  0  0  0  0  0  0  0
  150.5423  143.1835  159.9120 H   0  0  0  0  0  0  0  0  0  0  0  0
  151.7377  142.9967  156.8956 H   0  0  0  0  0  0  0  0  0  0  0  0
  150.1835  142.2339  156.6981 H   0  0  0  0  0  0  0  0  0  0  0  0
  150.0041  144.7114  157.1558 H   0  0  0  0  0  0  0  0  0  0  0  0
  150.7459  144.4741  158.7309 H   0  0  0  0  0  0  0  0  0  0  0  0
  149.1649  143.7792  158.3828 H   0  0  0  0  0  0  0  0  0  0  0  0
  150.7345  139.8300  155.4154 H   0  0  0  0  0  0  0  0  0  0  0  0
  152.1725  140.1638  154.5012 H   0  0  0  0  0  0  0  0  0  0  0  0
  150.1921  137.5396  155.8082 H   0  0  0  0  0  0  0  0  0  0  0  0
  150.9182  135.1929  155.9914 H   0  0  0  0  0  0  0  0  0  0  0  0
  151.8948  133.1405  155.1478 H   0  0  0  0  0  0  0  0  0  0  0  0
  152.9704  133.7349  153.8900 H   0  0  0  0  0  0  0  0  0  0  0  0
  153.2930  131.2786  154.3234 H   0  0  0  0  0  0  0  0  0  0  0  0
  154.7660  132.1892  154.5951 H   0  0  0  0  0  0  0  0  0  0  0  0
  154.4534  132.0377  158.1823 H   0  0  0  0  0  0  0  0  0  0  0  0
  155.4494  132.6379  156.8707 H   0  0  0  0  0  0  0  0  0  0  0  0
  154.1436  134.4956  157.8590 H   0  0  0  0  0  0  0  0  0  0  0  0
  152.6398  133.6291  157.6313 H   0  0  0  0  0  0  0  0  0  0  0  0
  154.3691  138.6276  155.3496 H   0  0  0  0  0  0  0  0  0  0  0  0
  1  2  1  0  0  0  0
  1 23  1  0  0  0  0
  1 24  1  0  0  0  0
  1 25  1  0  0  0  0
  2  3  1  0  0  0  0
  2 26  1  0  0  0  0
  2 27  1  0  0  0  0
  3  4  1  0  0  0  0
  3  6  1  0  0  0  0
  4  5  1  0  0  0  0
  4 28  1  0  0  0  0
  4 29  1  0  0  0  0
  5 30  1  0  0  0  0
  5 31  1  0  0  0  0
  5 32  1  0  0  0  0
  6  7  2  0  0  0  0
  6  8  2  0  0  0  0
  6  9  1  0  0  0  0
  9 10  1  0  0  0  0
 10 11  1  0  0  0  0
 10 33  1  0  0  0  0
 10 34  1  0  0  0  0
 11 22  1  0  0  0  0
 11 12  2  0  0  0  0
 12 13  1  0  0  0  0
 12 35  1  0  0  0  0
 13 14  2  0  0  0  0
 13 36  1  0  0  0  0
 14 15  1  0  0  0  0
 14 21  1  0  0  0  0
 15 20  1  0  0  0  0
 15 16  1  0  0  0  0
 16 17  1  0  0  0  0
 16 37  1  0  0  0  0
 16 38  1  0  0  0  0
 17 18  1  0  0  0  0
 17 39  1  0  0  0  0
 17 40  1  0  0  0  0
 18 19  1  0  0  0  0
 19 20  1  0  0  0  0
 19 41  1  0  0  0  0
 19 42  1  0  0  0  0
 20 43  1  0  0  0  0
 20 44  1  0  0  0  0
 21 22  2  0  0  0  0
 22 45  1  0  0  0  0
M  CHG  1   9  -1
M  END
> <s_m_source_file>
AV-unprocessed.smi

> <i_m_source_file_index>
2168

> <i_lp_mmshare_version>
43012

> <i_f3d_flags>
0

> <s_epik_input>
W0NIM11bQ0gyXU4oW0NIMl1bQ0gzXSlTKD1PKSg9TylbTkhdW0NIMl1jMVtjSF1bY0hdYyhuW2NIXTEpTjJbQ0gyXVtDSDJdT1tDSDJdW0NIMl0y

> <s_epik_cmdline>
J2VwaWtfcHl0aG9uJywgJy1waCcsICc3LjAnLCAnLXRuJywgJzgnLCAnLW1hJywgJzIwMCcsICctbWV0YWxfYmluZGluZycsICctaW1hZScsICc8aW5maWxlLm1hZT4nLCAnLW9tYWUnLCAnPG91dGZpbGUubWFlPic=

> <r_lp_tautomer_probability>
1

> <r_epik_Ionization_Penalty>
2.49252

> <r_epik_Ionization_Penalty_Charging>
2.41478

> <r_epik_Ionization_Penalty_Neutral>
0.0777351

> <r_epik_State_Penalty>
2.68884

> <r_epik_Charging_Adjusted_Penalty>
5.10362

> <i_epik_Tot_Q>
-1

> <i_epik_Tot_abs_Q>
1

> <r_epik_Metal_State_Penalty>
0.584574

> <b_epik_Metal_Only>
0

> <s_lp_Force_Field>
OPLS_2005

> <r_lp_Energy>
16.7

> <b_lp_Chiralities_Consistent>
1

> <s_lp_Variant>
AV-unprocessed.smi:2168-3

> <Gold.Version>
5.8.1

> <Gold.Id.Protein>
6NUR|6NUR_protein|mol2

> <Gold.PLP.Fitness>
43.8271

> <Gold.PLP.PLP>
-38.4622

> <Gold.PLP.part.hbond>
-2.6034

> <Gold.PLP.part.metal>
0.0000

> <Gold.PLP.part.buried>
-3.7294

> <Gold.PLP.part.nonpolar>
-32.2677

> <Gold.PLP.part.repulsive>
0.2531

> <Gold.PLP.ligand.clash>
0.0000

> <Gold.PLP.ligand.torsion>
2.1206

> <Gold.PLP.Chemscore.Hbond>
2.0000

> <Gold.PLP.Chemscore.CHOScore>
0.0000

> <Gold.PLP.Chemscore.Metal>
0.0000

> <Gold.PLP.Chemscore.Internal.Correction>
3.6062

> <Gold.Rescore>
     Score         DG    S(hbond)    S(metal)    S(lipo)     H(rot)  DE(clash)    DE(int)     intcor
     13.01     -17.07       1.82        0.00      83.50       1.66       0.04       4.01       ----

> <Gold.Chemscore.Fitness>
13.0123

> <Gold.Chemscore.DG>
-17.0675

> <Gold.Chemscore.ZeroCoef>
-5.4800

> <Gold.Chemscore.Hbond>
1.8199

> <Gold.Chemscore.Metal>
0.0000

> <Gold.Chemscore.Lipo>
83.5000

> <Gold.Chemscore.Internal_Hbond>
0.0000

> <Gold.Chemscore.DEClash>
0.0449

> <Gold.Chemscore.DEInternal>
4.0104

> <Gold.Chemscore.Rot>
1.6642

> <Gold.Chemscore.Internal.Correction>
   9.000000E+99

> <Gold.Chemscore.Hbond.Weighted>
-6.0784

> <Gold.Chemscore.Metal.Weighted>
-0.0000

> <Gold.Chemscore.Lipo.Weighted>
-9.7695

> <Gold.Chemscore.Internal_Hbond.Weighted>
0.0000

> <Gold.Chemscore.DEClash.Weighted>
0.0449

> <Gold.Chemscore.DEInternal.Weighted>
4.0104

> <Gold.Chemscore.Rot.Weighted>
4.2604

> <Gold.Chemscore.Internal.Correction.Weighted>
   9.000000E+99

> <Gold.Protein.RotatedTorsions>
[ 6907 6896 6895 6894 ] final   51.56 input  -60.11 | X-H torsion
[ 7974 7965 7964 7962 ] final   -5.17 input  175.53 | X-H torsion
[ 8008 7997 7996 7995 ] final  134.15 input   59.86 | X-H torsion
[ 10167 10162 10161 10158 ] final  -29.52 input  -65.29 | X-H torsion
[ 10718 10713 10712 10709 ] final   73.05 input   66.30 | X-H torsion
[ 10763 10752 10751 10750 ] final  -77.03 input  -60.55 | X-H torsion
[ 11005 11000 10999 10996 ] final -169.50 input  -57.11 | X-H torsion

> <Gold.Protein.ActiveResidues>
 VAL166  LYS551  ARG553  GLY616  TRP617  ASP618  TYR619  PRO620  LYS621  CYS622 
 ASP623  PHE694  ASN695  SER759  ASP760  ASP761  ALA762  ILE779  LEU786  VAL792 
 PHE793  MET794  SER795  GLU796  ALA797  LYS798  CYS799  TRP800  GLU811  SER814 

> <Gold.Protein.RotatedAtoms>
  152.3140  134.7462  160.0329 H   0  0  0  0  0  0  0  0  0  0  0  0  # atno 6907 bound_to 6896
  151.7933  133.3356  159.3513 H   0  0  0  0  0  0  0  0  0  0  0  0  # atno 6908 bound_to 6896
  150.7335  134.5752  159.5955 H   0  0  0  0  0  0  0  0  0  0  0  0  # atno 6909 bound_to 6896
  146.2358  140.1980  142.8333 H   0  0  0  0  0  0  0  0  0  0  0  0  # atno 7974 bound_to 7965
  156.2997  140.2503  156.3370 H   0  0  0  0  0  0  0  0  0  0  0  0  # atno 8008 bound_to 7997
  154.9091  140.0404  157.1955 H   0  0  0  0  0  0  0  0  0  0  0  0  # atno 8009 bound_to 7997
  154.8423  140.2893  155.5655 H   0  0  0  0  0  0  0  0  0  0  0  0  # atno 8010 bound_to 7997
  140.7259  143.3922  151.1409 H   0  0  0  0  0  0  0  0  0  0  0  0  # atno 10167 bound_to 10162
  157.6529  130.9609  150.1014 H   0  0  0  0  0  0  0  0  0  0  0  0  # atno 10718 bound_to 10713
  154.5076  135.5778  153.6579 H   0  0  0  0  0  0  0  0  0  0  0  0  # atno 10763 bound_to 10752
  152.9890  135.6151  154.2921 H   0  0  0  0  0  0  0  0  0  0  0  0  # atno 10764 bound_to 10752
  154.2833  135.2850  155.2667 H   0  0  0  0  0  0  0  0  0  0  0  0  # atno 10765 bound_to 10752
  140.5301  134.5625  157.5072 H   0  0  0  0  0  0  0  0  0  0  0  0  # atno 11005 bound_to 11000
  144.9804  140.8454  143.5400 LP  0  0  0  0  0  0  0  0  0  0  0  0  # atno 17320 bound_to 7965
  145.1973  139.2270  143.5211 LP  0  0  0  0  0  0  0  0  0  0  0  0  # atno 17321 bound_to 7965
  139.7529  143.8751  152.3081 LP  0  0  0  0  0  0  0  0  0  0  0  0  # atno 17342 bound_to 10162
  139.8611  144.7117  150.9099 LP  0  0  0  0  0  0  0  0  0  0  0  0  # atno 17343 bound_to 10162
  156.1936  130.3656  149.8878 LP  0  0  0  0  0  0  0  0  0  0  0  0  # atno 17370 bound_to 10713
  156.6801  130.8854  151.3574 LP  0  0  0  0  0  0  0  0  0  0  0  0  # atno 17371 bound_to 10713
  139.9559  134.7536  156.0343 LP  0  0  0  0  0  0  0  0  0  0  0  0  # atno 17394 bound_to 11000
  141.1286  133.6592  156.3404 LP  0  0  0  0  0  0  0  0  0  0  0  0  # atno 17395 bound_to 11000

$$$$
