AV-unprocessed.smi:1234|AV-procd|sdf|5174|dock5
  -GOLD-   22720 4253D 1   1.00000     0.00000
 Structure written by MMmdl.
 32 33  0  0  0  0  0  0  0  0  2 V2000
  156.4376  140.3369  159.2220 O   0  0  0  0  0  0  0  0  0  0  0  0
  156.7050  140.6646  160.3805 C   0  0  0  0  0  0  0  0  0  0  0  0
  155.7359  140.6975  161.3049 N   0  0  0  0  0  0  0  0  0  0  0  0
  154.3339  140.3795  161.0651 C   0  0  0  0  0  0  0  0  0  0  0  0
  153.4760  141.6560  161.1248 C   0  0  0  0  0  0  0  0  0  0  0  0
  152.8496  142.0472  159.7755 C   0  0  0  0  0  0  0  0  0  0  0  0
  152.9490  141.2908  158.8081 O   0  0  0  0  0  0  0  0  0  0  0  0
  152.1994  143.2270  159.6949 N   0  0  0  0  0  0  0  0  0  0  0  0
  152.0751  144.1588  160.8142 C   0  0  0  0  0  0  0  0  0  0  0  0
  151.5176  145.4511  160.2178 C   0  0  0  0  0  0  0  0  0  0  0  0
  150.7680  144.9942  158.9740 C   0  0  0  0  0  0  0  0  0  0  0  0
  151.5358  143.7578  158.5043 C   0  0  0  0  0  0  0  0  0  0  0  0
  157.9228  141.0133  160.8545 N   0  5  0  0  0  0  0  0  0  0  0  0
  158.8246  141.5803  160.0362 C   0  0  0  0  0  0  0  0  0  0  0  0
  160.0976  141.7916  160.4080 N   0  0  0  0  0  0  0  0  0  0  0  0
  160.8656  142.3840  159.4147 N   0  0  0  0  0  0  0  0  0  0  0  0
  160.1503  142.5979  158.3105 C   0  0  0  0  0  0  0  0  0  0  0  0
  158.4755  142.0918  158.3823 S   0  0  0  0  0  0  0  0  0  0  0  0
  155.9938  140.9695  162.2421 H   0  0  0  0  0  0  0  0  0  0  0  0
  154.2351  139.9031  160.0880 H   0  0  0  0  0  0  0  0  0  0  0  0
  154.0007  139.6597  161.8148 H   0  0  0  0  0  0  0  0  0  0  0  0
  152.6790  141.5184  161.8567 H   0  0  0  0  0  0  0  0  0  0  0  0
  154.0912  142.4860  161.4743 H   0  0  0  0  0  0  0  0  0  0  0  0
  151.3806  143.7427  161.5458 H   0  0  0  0  0  0  0  0  0  0  0  0
  153.0298  144.3322  161.3132 H   0  0  0  0  0  0  0  0  0  0  0  0
  150.8853  146.0005  160.9158 H   0  0  0  0  0  0  0  0  0  0  0  0
  152.3410  146.1051  159.9273 H   0  0  0  0  0  0  0  0  0  0  0  0
  149.7503  144.7111  159.2462 H   0  0  0  0  0  0  0  0  0  0  0  0
  150.7056  145.7690  158.2094 H   0  0  0  0  0  0  0  0  0  0  0  0
  152.2915  144.0361  157.7686 H   0  0  0  0  0  0  0  0  0  0  0  0
  150.8627  143.0324  158.0456 H   0  0  0  0  0  0  0  0  0  0  0  0
  160.6125  143.0536  157.4478 H   0  0  0  0  0  0  0  0  0  0  0  0
  1  2  2  0  0  0  0
  2  3  1  0  0  0  0
  2 13  1  0  0  0  0
  3  4  1  0  0  0  0
  3 19  1  0  0  0  0
  4  5  1  0  0  0  0
  4 20  1  0  0  0  0
  4 21  1  0  0  0  0
  5  6  1  0  0  0  0
  5 22  1  0  0  0  0
  5 23  1  0  0  0  0
  6  7  2  0  0  0  0
  6  8  1  0  0  0  0
  8 12  1  0  0  0  0
  8  9  1  0  0  0  0
  9 10  1  0  0  0  0
  9 24  1  0  0  0  0
  9 25  1  0  0  0  0
 10 11  1  0  0  0  0
 10 26  1  0  0  0  0
 10 27  1  0  0  0  0
 11 12  1  0  0  0  0
 11 28  1  0  0  0  0
 11 29  1  0  0  0  0
 12 30  1  0  0  0  0
 12 31  1  0  0  0  0
 13 14  1  0  0  0  0
 14 18  1  0  0  0  0
 14 15  2  0  0  0  0
 15 16  1  0  0  0  0
 16 17  2  0  0  0  0
 17 18  1  0  0  0  0
 17 32  1  0  0  0  0
M  CHG  1  13  -1
M  END
> <s_m_source_file>
AV-unprocessed.smi

> <i_m_source_file_index>
1234

> <i_lp_mmshare_version>
43012

> <i_f3d_flags>
0

> <s_epik_input>
czFbY0hdbm5jMVtOSF1DKD1PKVtOSF1bQ0gyXVtDSDJdQyg9TylOMltDSDJdW0NIMl1bQ0gyXVtDSDJdMg==

> <s_epik_cmdline>
J2VwaWtfcHl0aG9uJywgJy1waCcsICc3LjAnLCAnLXRuJywgJzgnLCAnLW1hJywgJzIwMCcsICctbWV0YWxfYmluZGluZycsICctaW1hZScsICc8aW5maWxlLm1hZT4nLCAnLW9tYWUnLCAnPG91dGZpbGUubWFlPic=

> <r_lp_tautomer_probability>
1

> <r_epik_Ionization_Penalty>
3.2941

> <r_epik_Ionization_Penalty_Charging>
3.25456

> <r_epik_Ionization_Penalty_Neutral>
0.039538

> <r_epik_State_Penalty>
3.25212

> <r_epik_Charging_Adjusted_Penalty>
6.50668

> <i_epik_Tot_Q>
-1

> <i_epik_Tot_abs_Q>
1

> <r_epik_Metal_State_Penalty>
0.477003

> <b_epik_Metal_Only>
1

> <s_lp_Force_Field>
OPLS_2005

> <r_lp_Energy>
26.7799

> <b_lp_Chiralities_Consistent>
1

> <s_lp_Variant>
AV-unprocessed.smi:1234-2

> <Gold.Version>
5.8.1

> <Gold.Id.Protein>
6NUR|6NUR_protein|mol2

> <Gold.PLP.Fitness>
45.8802

> <Gold.PLP.PLP>
-41.1867

> <Gold.PLP.part.hbond>
-3.0000

> <Gold.PLP.part.metal>
0.0000

> <Gold.PLP.part.buried>
-1.3735

> <Gold.PLP.part.nonpolar>
-37.2692

> <Gold.PLP.part.repulsive>
0.3550

> <Gold.PLP.ligand.clash>
0.0000

> <Gold.PLP.ligand.torsion>
0.6558

> <Gold.PLP.Chemscore.Hbond>
1.0000

> <Gold.PLP.Chemscore.CHOScore>
0.9906

> <Gold.PLP.Chemscore.Metal>
0.0000

> <Gold.Chemscore.Hbonds>
donor molecule, donor type, donor heavy atom, donor atom, acceptor molecule, acceptor atom, score
      P1  H  7997  8009       L1     1  0.82
      L1  C    17    32       P1   811  0.17

> <Gold.PLP.Chemscore.Internal.Correction>
0.0333

> <Gold.Rescore>
     Score         DG    S(hbond)    S(metal)    S(lipo)     H(rot)  DE(clash)    DE(int)     intcor
     12.25     -14.85       0.99        0.00      90.21       1.76       0.61       1.99       ----

> <Gold.Chemscore.Fitness>
12.2453

> <Gold.Chemscore.DG>
-14.8519

> <Gold.Chemscore.ZeroCoef>
-5.4800

> <Gold.Chemscore.Hbond>
0.9947

> <Gold.Chemscore.Metal>
0.0000

> <Gold.Chemscore.Lipo>
90.2064

> <Gold.Chemscore.Internal_Hbond>
0.0000

> <Gold.Chemscore.DEClash>
0.6145

> <Gold.Chemscore.DEInternal>
1.9922

> <Gold.Chemscore.Rot>
1.7596

> <Gold.Chemscore.Internal.Correction>
   9.000000E+99

> <Gold.Chemscore.Hbonds>
donor molecule, donor type, donor heavy atom, donor atom, acceptor molecule, acceptor atom, score
      P1  H  7997  8009       L1     1  0.77

> <Gold.Chemscore.Hbond.Weighted>
-3.3224

> <Gold.Chemscore.Metal.Weighted>
-0.0000

> <Gold.Chemscore.Lipo.Weighted>
-10.5542

> <Gold.Chemscore.Internal_Hbond.Weighted>
0.0000

> <Gold.Chemscore.DEClash.Weighted>
0.6145

> <Gold.Chemscore.DEInternal.Weighted>
1.9922

> <Gold.Chemscore.Rot.Weighted>
4.5046

> <Gold.Chemscore.Internal.Correction.Weighted>
   9.000000E+99

> <Gold.Protein.RotatedTorsions>
[ 6907 6896 6895 6894 ] final -146.56 input  -60.11 | X-H torsion
[ 7974 7965 7964 7962 ] final -160.55 input  175.53 | X-H torsion
[ 8008 7997 7996 7995 ] final   91.47 input   59.86 | X-H torsion
[ 10167 10162 10161 10158 ] final   33.11 input  -65.29 | X-H torsion
[ 10718 10713 10712 10709 ] final   74.88 input   66.30 | X-H torsion
[ 10763 10752 10751 10750 ] final  -84.10 input  -60.55 | X-H torsion
[ 11005 11000 10999 10996 ] final -164.77 input  -57.11 | X-H torsion

> <Gold.Protein.ActiveResidues>
 VAL166  LYS551  ARG553  GLY616  TRP617  ASP618  TYR619  PRO620  LYS621  CYS622 
 ASP623  PHE694  ASN695  SER759  ASP760  ASP761  ALA762  ILE779  LEU786  VAL792 
 PHE793  MET794  SER795  GLU796  ALA797  LYS798  CYS799  TRP800  GLU811  SER814 

> <Gold.Protein.RotatedAtoms>
  151.1434  133.4956  159.2596 H   0  0  0  0  0  0  0  0  0  0  0  0  # atno 6907 bound_to 6896
  151.1631  135.0282  159.8729 H   0  0  0  0  0  0  0  0  0  0  0  0  # atno 6908 bound_to 6896
  152.5462  134.1305  159.8490 H   0  0  0  0  0  0  0  0  0  0  0  0  # atno 6909 bound_to 6896
  144.7423  140.3526  143.6112 H   0  0  0  0  0  0  0  0  0  0  0  0  # atno 7974 bound_to 7965
  156.0241  140.3337  155.7070 H   0  0  0  0  0  0  0  0  0  0  0  0  # atno 8008 bound_to 7997
  155.5979  140.0653  157.2758 H   0  0  0  0  0  0  0  0  0  0  0  0  # atno 8009 bound_to 7997
  154.4327  140.1815  156.1131 H   0  0  0  0  0  0  0  0  0  0  0  0  # atno 8010 bound_to 7997
  140.4437  144.1149  150.6178 H   0  0  0  0  0  0  0  0  0  0  0  0  # atno 10167 bound_to 10162
  157.6611  130.9699  150.1274 H   0  0  0  0  0  0  0  0  0  0  0  0  # atno 10718 bound_to 10713
  154.5955  135.5533  153.7321 H   0  0  0  0  0  0  0  0  0  0  0  0  # atno 10763 bound_to 10752
  153.0133  135.6353  154.1789 H   0  0  0  0  0  0  0  0  0  0  0  0  # atno 10764 bound_to 10752
  154.1729  135.2891  155.3055 H   0  0  0  0  0  0  0  0  0  0  0  0  # atno 10765 bound_to 10752
  140.5831  134.5121  157.5181 H   0  0  0  0  0  0  0  0  0  0  0  0  # atno 11005 bound_to 11000
  145.7260  139.1723  143.2457 LP  0  0  0  0  0  0  0  0  0  0  0  0  # atno 17320 bound_to 7965
  146.1242  140.7270  142.9443 LP  0  0  0  0  0  0  0  0  0  0  0  0  # atno 17321 bound_to 7965
  140.4288  143.2577  151.9622 LP  0  0  0  0  0  0  0  0  0  0  0  0  # atno 17342 bound_to 10162
  139.4791  144.5763  151.8006 LP  0  0  0  0  0  0  0  0  0  0  0  0  # atno 17343 bound_to 10162
  156.2129  130.3668  149.8648 LP  0  0  0  0  0  0  0  0  0  0  0  0  # atno 17370 bound_to 10713
  156.6522  130.8748  151.3533 LP  0  0  0  0  0  0  0  0  0  0  0  0  # atno 17371 bound_to 10713
  139.9308  134.7968  156.0937 LP  0  0  0  0  0  0  0  0  0  0  0  0  # atno 17394 bound_to 11000
  141.0983  133.6687  156.2696 LP  0  0  0  0  0  0  0  0  0  0  0  0  # atno 17395 bound_to 11000

$$$$
