AV-unprocessed.smi:1489|AV-procd|sdf|6026|dock9
  -GOLD-   22720 6123D 1   1.00000     0.00000
 Structure written by MMmdl.
 46 48  0  0  0  0  0  0  0  0  1 V2000
  146.4454  139.0671  154.1639 O   0  0  0  0  0  0  0  0  0  0  0  0
  147.2578  138.4023  153.5223 C   0  0  0  0  0  0  0  0  0  0  0  0
  148.5959  138.4982  153.6109 N   0  0  0  0  0  0  0  0  0  0  0  0
  149.3931  139.3561  154.4188 C   0  0  0  0  0  0  0  0  0  0  0  0
  150.6940  139.0567  154.8883 C   0  0  0  0  0  0  0  0  0  0  0  0
  151.3656  140.0014  155.6878 C   0  0  0  0  0  0  0  0  0  0  0  0
  150.7227  141.2209  156.0056 C   0  0  0  0  0  0  0  0  0  0  0  0
  151.3627  142.1937  156.7991 N   0  0  0  0  0  0  0  0  0  0  0  0
  151.0332  143.6069  156.6938 C   0  0  0  0  0  0  0  0  0  0  0  0
  151.8343  144.2746  157.8101 C   0  0  0  0  0  0  0  0  0  0  0  0
  151.8762  143.2002  158.8965 C   0  0  0  0  0  0  0  0  0  0  0  0
  151.8961  141.8799  158.1177 C   0  0  0  0  0  0  0  0  0  0  0  0
  149.4793  141.5071  155.5526 N   0  0  0  0  0  0  0  0  0  0  0  0
  148.8399  140.5987  154.7874 C   0  0  0  0  0  0  0  0  0  0  0  0
  146.9028  137.4677  152.6288 N   0  0  0  0  0  0  0  0  0  0  0  0
  145.5310  137.1043  152.2854 C   0  0  2  0  0  0  0  0  0  0  0  0
  144.7433  136.7928  153.5710 C   0  0  0  0  0  0  0  0  0  0  0  0
  143.3013  136.3554  153.2585 C   0  0  0  0  0  0  0  0  0  0  0  0
  143.2512  135.1695  152.2771 C   0  0  2  0  0  0  0  0  0  0  0  0
  143.7225  133.9966  152.9107 O   0  0  0  0  0  0  0  0  0  0  0  0
  144.0748  135.4512  151.0063 C   0  0  0  0  0  0  0  0  0  0  0  0
  145.5125  135.8956  151.3280 C   0  0  0  0  0  0  0  0  0  0  0  0
  149.1174  137.8620  153.0257 H   0  0  0  0  0  0  0  0  0  0  0  0
  151.1965  138.1306  154.6619 H   0  0  0  0  0  0  0  0  0  0  0  0
  152.3621  139.7797  156.0394 H   0  0  0  0  0  0  0  0  0  0  0  0
  151.2924  144.0102  155.7145 H   0  0  0  0  0  0  0  0  0  0  0  0
  149.9628  143.7442  156.8529 H   0  0  0  0  0  0  0  0  0  0  0  0
  152.8465  144.4869  157.4632 H   0  0  0  0  0  0  0  0  0  0  0  0
  151.3900  145.2104  158.1501 H   0  0  0  0  0  0  0  0  0  0  0  0
  152.7276  143.3076  159.5690 H   0  0  0  0  0  0  0  0  0  0  0  0
  150.9668  143.2556  159.4964 H   0  0  0  0  0  0  0  0  0  0  0  0
  151.3096  141.1171  158.6308 H   0  0  0  0  0  0  0  0  0  0  0  0
  152.9165  141.5119  158.0061 H   0  0  0  0  0  0  0  0  0  0  0  0
  147.8497  140.8771  154.4571 H   0  0  0  0  0  0  0  0  0  0  0  0
  147.6366  136.9679  152.1481 H   0  0  0  0  0  0  0  0  0  0  0  0
  145.0514  137.9525  151.7926 H   0  0  0  0  0  0  0  0  0  0  0  0
  145.2478  136.0057  154.1335 H   0  0  0  0  0  0  0  0  0  0  0  0
  144.7253  137.6698  154.2193 H   0  0  0  0  0  0  0  0  0  0  0  0
  142.7765  136.1050  154.1814 H   0  0  0  0  0  0  0  0  0  0  0  0
  142.7636  137.1988  152.8236 H   0  0  0  0  0  0  0  0  0  0  0  0
  142.2140  134.9835  151.9958 H   0  0  0  0  0  0  0  0  0  0  0  0
  143.0061  133.6021  153.3843 H   0  0  0  0  0  0  0  0  0  0  0  0
  144.0898  134.5716  150.3613 H   0  0  0  0  0  0  0  0  0  0  0  0
  143.5837  136.2384  150.4329 H   0  0  0  0  0  0  0  0  0  0  0  0
  146.0310  136.1423  150.4005 H   0  0  0  0  0  0  0  0  0  0  0  0
  146.0605  135.0636  151.7726 H   0  0  0  0  0  0  0  0  0  0  0  0
  1  2  2  0  0  0  0
  2  3  1  0  0  0  0
  2 15  1  0  0  0  0
  3  4  1  0  0  0  0
  3 23  1  0  0  0  0
  4 14  1  0  0  0  0
  4  5  2  0  0  0  0
  5  6  1  0  0  0  0
  5 24  1  0  0  0  0
  6  7  2  0  0  0  0
  6 25  1  0  0  0  0
  7  8  1  0  0  0  0
  7 13  1  0  0  0  0
  8 12  1  0  0  0  0
  8  9  1  0  0  0  0
  9 10  1  0  0  0  0
  9 26  1  0  0  0  0
  9 27  1  0  0  0  0
 10 11  1  0  0  0  0
 10 28  1  0  0  0  0
 10 29  1  0  0  0  0
 11 12  1  0  0  0  0
 11 30  1  0  0  0  0
 11 31  1  0  0  0  0
 12 32  1  0  0  0  0
 12 33  1  0  0  0  0
 13 14  2  0  0  0  0
 14 34  1  0  0  0  0
 15 16  1  0  0  0  0
 15 35  1  0  0  0  0
 16 22  1  0  0  0  0
 16 17  1  0  0  0  0
 16 36  1  0  0  0  0
 17 18  1  0  0  0  0
 17 37  1  0  0  0  0
 17 38  1  0  0  0  0
 18 19  1  0  0  0  0
 18 39  1  0  0  0  0
 18 40  1  0  0  0  0
 19 20  1  0  0  0  0
 19 21  1  0  0  0  0
 19 41  1  0  0  0  0
 20 42  1  0  0  0  0
 21 22  1  0  0  0  0
 21 43  1  0  0  0  0
 21 44  1  0  0  0  0
 22 45  1  0  0  0  0
 22 46  1  0  0  0  0
M  END
> <s_m_source_file>
AV-unprocessed.smi

> <i_m_source_file_index>
1489

> <i_lp_mmshare_version>
43012

> <i_f3d_flags>
0

> <s_epik_input>
W0NIMl0xW0NIMl1bQ0BIXShbT0hdKVtDSDJdW0NIMl1bQ0BIXTFbTkhdQyg9TylbTkhdYzJbY0hdW2NIXWMobltjSF0yKU4zW0NIMl1bQ0gyXVtDSDJdW0NIMl0z

> <s_epik_cmdline>
J2VwaWtfcHl0aG9uJywgJy1waCcsICc3LjAnLCAnLXRuJywgJzgnLCAnLW1hJywgJzIwMCcsICctbWV0YWxfYmluZGluZycsICctaW1hZScsICc8aW5maWxlLm1hZT4nLCAnLW9tYWUnLCAnPG91dGZpbGUubWFlPic=

> <r_lp_tautomer_probability>
1

> <r_epik_Ionization_Penalty>
0.104121

> <r_epik_Ionization_Penalty_Charging>
0

> <r_epik_Ionization_Penalty_Neutral>
0.104121

> <r_epik_State_Penalty>
0.0934704

> <r_epik_Charging_Adjusted_Penalty>
0.0934704

> <i_epik_Tot_Q>
0

> <i_epik_Tot_abs_Q>
0

> <r_epik_Metal_State_Penalty>
0.0794432

> <b_epik_Metal_Only>
0

> <s_lp_Force_Field>
OPLS_2005

> <r_lp_Energy>
35.391

> <b_lp_Chiralities_Consistent>
1

> <s_lp_Variant>
AV-unprocessed.smi:1489-2

> <Gold.Version>
5.8.1

> <Gold.Id.Protein>
6NUR|6NUR_protein|mol2

> <Gold.PLP.Fitness>
44.9006

> <Gold.PLP.PLP>
-39.9787

> <Gold.PLP.part.hbond>
-3.7588

> <Gold.PLP.part.metal>
0.0000

> <Gold.PLP.part.buried>
-2.7552

> <Gold.PLP.part.nonpolar>
-35.8821

> <Gold.PLP.part.repulsive>
0.3349

> <Gold.PLP.ligand.clash>
0.0000

> <Gold.PLP.ligand.torsion>
0.8547

> <Gold.PLP.Chemscore.Hbond>
2.1491

> <Gold.PLP.Chemscore.CHOScore>
0.0000

> <Gold.PLP.Chemscore.Metal>
0.0000

> <Gold.Chemscore.Hbonds>
donor molecule, donor type, donor heavy atom, donor atom, acceptor molecule, acceptor atom, score
      L1  H     3    23       P1  7948  0.90
      L1  H    15    35       P1  7948  0.98
      L1  H    20    42       P1 10957  0.20

> <Gold.PLP.Chemscore.Internal.Correction>
0.1840

> <Gold.Rescore>
     Score         DG    S(hbond)    S(metal)    S(lipo)     H(rot)  DE(clash)    DE(int)     intcor
     17.38     -22.23       2.74        0.00      95.69       1.41       1.84       3.01       ----

> <Gold.Chemscore.Fitness>
17.3758

> <Gold.Chemscore.DG>
-22.2307

> <Gold.Chemscore.ZeroCoef>
-5.4800

> <Gold.Chemscore.Hbond>
2.7432

> <Gold.Chemscore.Metal>
0.0000

> <Gold.Chemscore.Lipo>
95.6937

> <Gold.Chemscore.Internal_Hbond>
0.0000

> <Gold.Chemscore.DEClash>
1.8400

> <Gold.Chemscore.DEInternal>
3.0149

> <Gold.Chemscore.Rot>
1.4093

> <Gold.Chemscore.Internal.Correction>
   9.000000E+99

> <Gold.Chemscore.Hbonds>
donor molecule, donor type, donor heavy atom, donor atom, acceptor molecule, acceptor atom, score
      L1  H     3    23       P1  7948  0.85
      L1  H    15    35       P1  7948  0.91
      L1  H    20    42       P1 10957  0.20

> <Gold.Chemscore.Hbond.Weighted>
-9.1623

> <Gold.Chemscore.Metal.Weighted>
-0.0000

> <Gold.Chemscore.Lipo.Weighted>
-11.1962

> <Gold.Chemscore.Internal_Hbond.Weighted>
0.0000

> <Gold.Chemscore.DEClash.Weighted>
1.8400

> <Gold.Chemscore.DEInternal.Weighted>
3.0149

> <Gold.Chemscore.Rot.Weighted>
3.6077

> <Gold.Chemscore.Internal.Correction.Weighted>
   9.000000E+99

> <Gold.Protein.RotatedTorsions>
[ 6907 6896 6895 6894 ] final  112.01 input  -60.11 | X-H torsion
[ 7974 7965 7964 7962 ] final  156.33 input  175.53 | X-H torsion
[ 8008 7997 7996 7995 ] final   56.85 input   59.86 | X-H torsion
[ 10167 10162 10161 10158 ] final   51.37 input  -65.29 | X-H torsion
[ 10718 10713 10712 10709 ] final  150.00 input   66.30 | X-H torsion
[ 10763 10752 10751 10750 ] final -135.84 input  -60.55 | X-H torsion
[ 11005 11000 10999 10996 ] final    1.42 input  -57.11 | X-H torsion

> <Gold.Protein.ActiveResidues>
 VAL166  LYS551  ARG553  GLY616  TRP617  ASP618  TYR619  PRO620  LYS621  CYS622 
 ASP623  PHE694  ASN695  SER759  ASP760  ASP761  ALA762  ILE779  LEU786  VAL792 
 PHE793  MET794  SER795  GLU796  ALA797  LYS798  CYS799  TRP800  GLU811  SER814 

> <Gold.Protein.RotatedAtoms>
  152.4939  133.8576  159.7233 H   0  0  0  0  0  0  0  0  0  0  0  0  # atno 6907 bound_to 6896
  150.9096  133.7005  159.2864 H   0  0  0  0  0  0  0  0  0  0  0  0  # atno 6908 bound_to 6896
  151.4418  135.1025  159.9725 H   0  0  0  0  0  0  0  0  0  0  0  0  # atno 6909 bound_to 6896
  144.7970  139.7189  143.6198 H   0  0  0  0  0  0  0  0  0  0  0  0  # atno 7974 bound_to 7965
  155.5242  140.3480  155.4413 H   0  0  0  0  0  0  0  0  0  0  0  0  # atno 8008 bound_to 7997
  156.0763  140.1375  156.9794 H   0  0  0  0  0  0  0  0  0  0  0  0  # atno 8009 bound_to 7997
  154.4555  140.0955  156.6720 H   0  0  0  0  0  0  0  0  0  0  0  0  # atno 8010 bound_to 7997
  140.2626  144.3356  150.6313 H   0  0  0  0  0  0  0  0  0  0  0  0  # atno 10167 bound_to 10162
  157.2891  131.0850  151.1475 H   0  0  0  0  0  0  0  0  0  0  0  0  # atno 10718 bound_to 10713
  154.8695  135.3691  154.4964 H   0  0  0  0  0  0  0  0  0  0  0  0  # atno 10763 bound_to 10752
  153.5607  135.7023  153.5553 H   0  0  0  0  0  0  0  0  0  0  0  0  # atno 10764 bound_to 10752
  153.3630  135.4041  155.1696 H   0  0  0  0  0  0  0  0  0  0  0  0  # atno 10765 bound_to 10752
  140.6156  133.9708  155.8199 H   0  0  0  0  0  0  0  0  0  0  0  0  # atno 11005 bound_to 11000
  146.2240  139.5689  142.9599 LP  0  0  0  0  0  0  0  0  0  0  0  0  # atno 17320 bound_to 7965
  145.5649  141.0400  143.2206 LP  0  0  0  0  0  0  0  0  0  0  0  0  # atno 17321 bound_to 7965
  140.5954  143.2167  151.7174 LP  0  0  0  0  0  0  0  0  0  0  0  0  # atno 17342 bound_to 10162
  139.5012  144.3876  152.0313 LP  0  0  0  0  0  0  0  0  0  0  0  0  # atno 17343 bound_to 10162
  157.2879  130.6782  149.6099 LP  0  0  0  0  0  0  0  0  0  0  0  0  # atno 17370 bound_to 10713
  155.9666  130.4430  150.5402 LP  0  0  0  0  0  0  0  0  0  0  0  0  # atno 17371 bound_to 10713
  141.0778  134.0109  157.3432 LP  0  0  0  0  0  0  0  0  0  0  0  0  # atno 17394 bound_to 11000
  139.9174  135.0198  156.7934 LP  0  0  0  0  0  0  0  0  0  0  0  0  # atno 17395 bound_to 11000

$$$$
