AV-unprocessed.smi:911|AV-procd|sdf|4138|dock2
  -GOLD-   22720 2 43D 1   1.00000     0.00000
 Structure written by MMmdl.
 47 49  0  0  0  0  0  0  0  0  3 V2000
  148.6097  139.4178  154.9359 C   0  0  0  0  0  0  0  0  0  0  0  0
  147.1397  139.9252  154.9560 C   0  0  0  0  0  0  0  0  0  0  0  0
  146.5062  139.3804  153.6448 C   0  0  0  0  0  0  0  0  0  0  0  0
  146.3598  139.5623  156.2357 C   0  0  2  0  0  0  0  0  0  0  0  0
  144.9977  140.2673  156.0420 C   0  0  0  0  0  0  0  0  0  0  0  0
  145.3944  141.5669  155.3105 C   0  0  0  0  0  0  0  0  0  0  0  0
  146.9372  141.4461  155.2098 C   0  0  2  0  0  0  0  0  0  0  0  0
  147.5334  142.3898  154.1465 C   0  0  0  0  0  0  0  0  0  0  0  0
  147.4504  141.6719  156.6671 C   0  0  2  0  0  0  0  0  0  0  0  0
  148.8774  141.9736  156.7326 N   0  0  0  0  0  0  0  0  0  0  0  0
  149.5715  142.4045  157.7988 C   0  0  0  0  0  0  0  0  0  0  0  0
  149.0739  142.5434  158.9151 O   0  0  0  0  0  0  0  0  0  0  0  0
  151.0512  142.7685  157.5831 C   0  0  0  0  0  0  0  0  0  0  0  0
  151.8475  142.8220  158.8237 N   0  0  0  0  0  0  0  0  0  0  0  0
  152.4944  141.6311  159.2092 C   0  0  0  0  0  0  0  0  0  0  0  0
  153.2051  141.5384  160.3496 C   0  0  0  0  0  0  0  0  0  0  0  0
  153.8313  140.2967  160.7454 N   0  3  0  0  0  0  0  0  0  0  0  0
  154.1825  139.5105  159.8717 O   0  0  0  0  0  0  0  0  0  0  0  0
  153.9970  140.0682  161.9400 O   0  5  0  0  0  0  0  0  0  0  0  0
  153.3024  142.7224  161.1808 C   0  0  0  0  0  0  0  0  0  0  0  0
  152.6824  143.8633  160.8204 C   0  0  0  0  0  0  0  0  0  0  0  0
  151.8928  143.9559  159.5879 C   0  0  0  0  0  0  0  0  0  0  0  0
  151.2986  144.9856  159.2698 O   0  0  0  0  0  0  0  0  0  0  0  0
  147.1031  140.3313  157.3520 C   0  0  0  0  0  0  0  0  0  0  0  0
  148.6401  138.3351  154.8108 H   0  0  0  0  0  0  0  0  0  0  0  0
  149.1879  139.6259  155.8315 H   0  0  0  0  0  0  0  0  0  0  0  0
  149.1588  139.8498  154.0988 H   0  0  0  0  0  0  0  0  0  0  0  0
  145.4640  139.6479  153.4866 H   0  0  0  0  0  0  0  0  0  0  0  0
  146.5490  138.2910  153.6219 H   0  0  0  0  0  0  0  0  0  0  0  0
  147.0535  139.7398  152.7727 H   0  0  0  0  0  0  0  0  0  0  0  0
  146.2701  138.4937  156.4332 H   0  0  0  0  0  0  0  0  0  0  0  0
  144.3152  139.6667  155.4404 H   0  0  0  0  0  0  0  0  0  0  0  0
  144.4969  140.4669  156.9901 H   0  0  0  0  0  0  0  0  0  0  0  0
  144.9251  141.6227  154.3281 H   0  0  0  0  0  0  0  0  0  0  0  0
  145.0756  142.4572  155.8537 H   0  0  0  0  0  0  0  0  0  0  0  0
  147.3645  143.4329  154.4144 H   0  0  0  0  0  0  0  0  0  0  0  0
  147.0785  142.2236  153.1701 H   0  0  0  0  0  0  0  0  0  0  0  0
  148.6080  142.2470  154.0326 H   0  0  0  0  0  0  0  0  0  0  0  0
  146.8969  142.4792  157.1499 H   0  0  0  0  0  0  0  0  0  0  0  0
  149.3819  141.8888  155.8623 H   0  0  0  0  0  0  0  0  0  0  0  0
  151.4862  142.0333  156.9045 H   0  0  0  0  0  0  0  0  0  0  0  0
  151.0990  143.7142  157.0409 H   0  0  0  0  0  0  0  0  0  0  0  0
  152.3496  140.8049  158.5278 H   0  0  0  0  0  0  0  0  0  0  0  0
  153.8725  142.7029  162.0981 H   0  0  0  0  0  0  0  0  0  0  0  0
  152.7670  144.7331  161.4555 H   0  0  0  0  0  0  0  0  0  0  0  0
  146.4810  140.4758  158.2361 H   0  0  0  0  0  0  0  0  0  0  0  0
  147.9916  139.7924  157.6826 H   0  0  0  0  0  0  0  0  0  0  0  0
  1  2  1  0  0  0  0
  1 25  1  0  0  0  0
  1 26  1  0  0  0  0
  1 27  1  0  0  0  0
  2  7  1  0  0  0  0
  2  3  1  0  0  0  0
  2  4  1  0  0  0  0
  3 28  1  0  0  0  0
  3 29  1  0  0  0  0
  3 30  1  0  0  0  0
  4 24  1  0  0  0  0
  4  5  1  0  0  0  0
  4 31  1  0  0  0  0
  5  6  1  0  0  0  0
  5 32  1  0  0  0  0
  5 33  1  0  0  0  0
  6  7  1  0  0  0  0
  6 34  1  0  0  0  0
  6 35  1  0  0  0  0
  7  8  1  0  0  0  0
  7  9  1  0  0  0  0
  8 36  1  0  0  0  0
  8 37  1  0  0  0  0
  8 38  1  0  0  0  0
  9 10  1  0  0  0  0
  9 24  1  0  0  0  0
  9 39  1  0  0  0  0
 10 11  1  0  0  0  0
 10 40  1  0  0  0  0
 11 12  2  0  0  0  0
 11 13  1  0  0  0  0
 13 14  1  0  0  0  0
 13 41  1  0  0  0  0
 13 42  1  0  0  0  0
 14 22  1  0  0  0  0
 14 15  1  0  0  0  0
 15 16  2  0  0  0  0
 15 43  1  0  0  0  0
 16 17  1  0  0  0  0
 16 20  1  0  0  0  0
 17 18  2  0  0  0  0
 17 19  1  0  0  0  0
 20 21  2  0  0  0  0
 20 44  1  0  0  0  0
 21 22  1  0  0  0  0
 21 45  1  0  0  0  0
 22 23  2  0  0  0  0
 24 46  1  0  0  0  0
 24 47  1  0  0  0  0
M  CHG  1  17   1
M  CHG  1  19  -1
M  END
> <s_m_source_file>
AV-unprocessed.smi

> <i_m_source_file_index>
911

> <i_lp_mmshare_version>
43012

> <i_f3d_flags>
0

> <s_epik_input>
W0NIM11bQ0BdMTJDKFtDSDNdKShbQ0gzXSlbQ0BIXShbQ0gyXVtDSDJdMSlbQ0gyXVtDQEBIXTJbTkhdQyg9TylbQ0gyXW4zW2NIXWMoW04rXSg9TylbTy1dKVtjSF1bY0hdYzM9Tw==

> <s_epik_cmdline>
J2VwaWtfcHl0aG9uJywgJy1waCcsICc3LjAnLCAnLXRuJywgJzgnLCAnLW1hJywgJzIwMCcsICctbWV0YWxfYmluZGluZycsICctaW1hZScsICc8aW5maWxlLm1hZT4nLCAnLW9tYWUnLCAnPG91dGZpbGUubWFlPic=

> <r_lp_tautomer_probability>
1

> <r_epik_Ionization_Penalty>
2.04092e-08

> <r_epik_Ionization_Penalty_Charging>
8.54191e-11

> <r_epik_Ionization_Penalty_Neutral>
2.03238e-08

> <r_epik_State_Penalty>
-0

> <r_epik_Charging_Adjusted_Penalty>
8.54191e-11

> <i_epik_Tot_Q>
0

> <i_epik_Tot_abs_Q>
2

> <r_epik_Metal_State_Penalty>
-0

> <b_epik_Metal_Only>
0

> <s_lp_Force_Field>
OPLS_2005

> <r_lp_Energy>
66.6033

> <b_lp_Chiralities_Consistent>
1

> <s_lp_Variant>
AV-unprocessed.smi:911-3

> <Gold.Version>
5.8.1

> <Gold.Id.Protein>
6NUR|6NUR_protein|mol2

> <Gold.PLP.Fitness>
39.8907

> <Gold.PLP.PLP>
-39.0715

> <Gold.PLP.part.hbond>
-2.9498

> <Gold.PLP.part.metal>
0.0000

> <Gold.PLP.part.buried>
-3.4154

> <Gold.PLP.part.nonpolar>
-32.7958

> <Gold.PLP.part.repulsive>
0.2203

> <Gold.PLP.ligand.clash>
0.0000

> <Gold.PLP.ligand.torsion>
1.1061

> <Gold.PLP.Chemscore.Hbond>
1.0000

> <Gold.PLP.Chemscore.CHOScore>
0.0000

> <Gold.PLP.Chemscore.Metal>
0.0000

> <Gold.PLP.Chemscore.Internal.Correction>
0.0314

> <Gold.Rescore>
     Score         DG    S(hbond)    S(metal)    S(lipo)     H(rot)  DE(clash)    DE(int)     intcor
     13.84     -14.97       1.00        0.00      86.06       1.53       0.09       1.04       ----

> <Gold.Chemscore.Fitness>
13.8431

> <Gold.Chemscore.DG>
-14.9677

> <Gold.Chemscore.ZeroCoef>
-5.4800

> <Gold.Chemscore.Hbond>
0.9968

> <Gold.Chemscore.Metal>
0.0000

> <Gold.Chemscore.Lipo>
86.0624

> <Gold.Chemscore.Internal_Hbond>
0.0000

> <Gold.Chemscore.DEClash>
0.0884

> <Gold.Chemscore.DEInternal>
1.0362

> <Gold.Chemscore.Rot>
1.5277

> <Gold.Chemscore.Internal.Correction>
   9.000000E+99

> <Gold.Chemscore.Hbond.Weighted>
-3.3294

> <Gold.Chemscore.Metal.Weighted>
-0.0000

> <Gold.Chemscore.Lipo.Weighted>
-10.0693

> <Gold.Chemscore.Internal_Hbond.Weighted>
0.0000

> <Gold.Chemscore.DEClash.Weighted>
0.0884

> <Gold.Chemscore.DEInternal.Weighted>
1.0362

> <Gold.Chemscore.Rot.Weighted>
3.9110

> <Gold.Chemscore.Internal.Correction.Weighted>
   9.000000E+99

> <Gold.Protein.RotatedTorsions>
[ 6907 6896 6895 6894 ] final  -53.52 input  -60.11 | X-H torsion
[ 7974 7965 7964 7962 ] final -174.97 input  175.53 | X-H torsion
[ 8008 7997 7996 7995 ] final   -1.70 input   59.86 | X-H torsion
[ 10167 10162 10161 10158 ] final   67.60 input  -65.29 | X-H torsion
[ 10718 10713 10712 10709 ] final   42.50 input   66.30 | X-H torsion
[ 10763 10752 10751 10750 ] final -139.88 input  -60.55 | X-H torsion
[ 11005 11000 10999 10996 ] final  -41.77 input  -57.11 | X-H torsion

> <Gold.Protein.ActiveResidues>
 VAL166  LYS551  ARG553  GLY616  TRP617  ASP618  TYR619  PRO620  LYS621  CYS622 
 ASP623  PHE694  ASN695  SER759  ASP760  ASP761  ALA762  ILE779  LEU786  VAL792 
 PHE793  MET794  SER795  GLU796  ALA797  LYS798  CYS799  TRP800  GLU811  SER814 

> <Gold.Protein.RotatedAtoms>
  150.8420  134.7715  159.6939 H   0  0  0  0  0  0  0  0  0  0  0  0  # atno 6907 bound_to 6896
  152.4505  134.5400  159.9846 H   0  0  0  0  0  0  0  0  0  0  0  0  # atno 6908 bound_to 6896
  151.5538  133.3375  159.2994 H   0  0  0  0  0  0  0  0  0  0  0  0  # atno 6909 bound_to 6896
  144.7130  140.1392  143.6393 H   0  0  0  0  0  0  0  0  0  0  0  0  # atno 7974 bound_to 7965
  154.6439  140.2553  155.7290 H   0  0  0  0  0  0  0  0  0  0  0  0  # atno 8008 bound_to 7997
  156.2542  140.2881  156.0765 H   0  0  0  0  0  0  0  0  0  0  0  0  # atno 8009 bound_to 7997
  155.1554  140.0383  157.2821 H   0  0  0  0  0  0  0  0  0  0  0  0  # atno 8010 bound_to 7997
  140.0878  144.5014  150.7119 H   0  0  0  0  0  0  0  0  0  0  0  0  # atno 10167 bound_to 10162
  157.4055  130.7884  149.7385 H   0  0  0  0  0  0  0  0  0  0  0  0  # atno 10718 bound_to 10713
  154.8596  135.3569  154.5618 H   0  0  0  0  0  0  0  0  0  0  0  0  # atno 10763 bound_to 10752
  153.6233  135.7005  153.5307 H   0  0  0  0  0  0  0  0  0  0  0  0  # atno 10764 bound_to 10752
  153.3110  135.4178  155.1296 H   0  0  0  0  0  0  0  0  0  0  0  0  # atno 10765 bound_to 10752
  141.0269  133.6837  156.2503 H   0  0  0  0  0  0  0  0  0  0  0  0  # atno 11005 bound_to 11000
  145.9217  139.2550  143.1377 LP  0  0  0  0  0  0  0  0  0  0  0  0  # atno 17320 bound_to 7965
  145.9613  140.8833  143.0209 LP  0  0  0  0  0  0  0  0  0  0  0  0  # atno 17321 bound_to 7965
  140.7044  143.2457  151.4769 LP  0  0  0  0  0  0  0  0  0  0  0  0  # atno 17342 bound_to 10162
  139.5742  144.1858  152.1880 LP  0  0  0  0  0  0  0  0  0  0  0  0  # atno 17343 bound_to 10162
  155.9835  130.3999  150.3359 LP  0  0  0  0  0  0  0  0  0  0  0  0  # atno 17370 bound_to 10713
  157.1491  131.0316  151.2893 LP  0  0  0  0  0  0  0  0  0  0  0  0  # atno 17371 bound_to 10713
  140.6475  134.5102  157.5575 LP  0  0  0  0  0  0  0  0  0  0  0  0  # atno 17394 bound_to 11000
  139.9182  134.8203  156.1296 LP  0  0  0  0  0  0  0  0  0  0  0  0  # atno 17395 bound_to 11000

$$$$
