AV-unprocessed.smi:3348|AV-procd|sdf|12919|dock9
  -GOLD-   2272019343D 1   1.00000     0.00000
 Structure written by MMmdl.
 47 48  0  0  0  0  0  0  0  0  2 V2000
  144.8985  135.1525  153.7791 C   0  0  0  0  0  0  0  0  0  0  0  0
  146.2070  135.1667  152.9701 C   0  0  2  0  0  0  0  0  0  0  0  0
  146.6180  133.7620  152.4705 C   0  0  0  0  0  0  0  0  0  0  0  0
  145.8130  133.3017  151.3526 N   0  0  0  0  0  0  0  0  0  0  0  0
  146.2344  132.7042  150.1833 C   0  0  0  0  0  0  0  0  0  0  0  0
  145.1222  132.4500  149.4330 C   0  0  0  0  0  0  0  0  0  0  0  0
  144.0530  132.9301  150.2399 C   0  0  0  0  0  0  0  0  0  0  0  0
  144.4698  133.4384  151.3887 N   0  0  0  0  0  0  0  0  0  0  0  0
  147.2764  135.7770  153.7913 N   0  3  0  0  0  0  0  0  0  0  0  0
  147.0230  137.1609  154.2467 C   0  0  0  0  0  0  0  0  0  0  0  0
  148.1080  137.6167  155.2271 C   0  0  0  0  0  0  0  0  0  0  0  0
  148.2129  139.0300  155.1534 O   0  0  0  0  0  0  0  0  0  0  0  0
  149.1603  139.5074  154.2038 C   0  0  2  0  0  0  0  0  0  0  0  0
  150.5524  138.8997  154.4777 C   0  0  0  0  0  0  0  0  0  0  0  0
  151.1226  139.3664  155.8270 C   0  0  0  0  0  0  0  0  0  0  0  0
  151.1637  140.8997  155.9131 C   0  0  0  0  0  0  0  0  0  0  0  0
  149.7785  141.5112  155.6492 C   0  0  0  0  0  0  0  0  0  0  0  0
  149.2048  141.0491  154.2947 C   0  0  2  0  0  0  0  0  0  0  0  0
  147.8340  141.6827  154.0086 C   0  0  0  0  0  0  0  0  0  0  0  0
  144.0548  134.8166  153.1757 H   0  0  0  0  0  0  0  0  0  0  0  0
  144.6520  136.1498  154.1451 H   0  0  0  0  0  0  0  0  0  0  0  0
  144.9739  134.4905  154.6429 H   0  0  0  0  0  0  0  0  0  0  0  0
  146.0435  135.8113  152.1052 H   0  0  0  0  0  0  0  0  0  0  0  0
  147.6591  133.7548  152.1476 H   0  0  0  0  0  0  0  0  0  0  0  0
  146.5406  133.0358  153.2817 H   0  0  0  0  0  0  0  0  0  0  0  0
  147.2787  132.5138  149.9835 H   0  0  0  0  0  0  0  0  0  0  0  0
  145.0778  131.9896  148.4572 H   0  0  0  0  0  0  0  0  0  0  0  0
  142.9943  132.9239  150.0262 H   0  0  0  0  0  0  0  0  0  0  0  0
  147.3889  135.2055  154.6164 H   0  0  0  0  0  0  0  0  0  0  0  0
  146.9845  137.8426  153.3972 H   0  0  0  0  0  0  0  0  0  0  0  0
  146.0508  137.2014  154.7393 H   0  0  0  0  0  0  0  0  0  0  0  0
  147.8407  137.3097  156.2381 H   0  0  0  0  0  0  0  0  0  0  0  0
  149.0607  137.1447  154.9814 H   0  0  0  0  0  0  0  0  0  0  0  0
  148.8409  139.2368  153.1955 H   0  0  0  0  0  0  0  0  0  0  0  0
  150.5157  137.8112  154.4462 H   0  0  0  0  0  0  0  0  0  0  0  0
  151.2350  139.1981  153.6812 H   0  0  0  0  0  0  0  0  0  0  0  0
  150.5139  138.9699  156.6405 H   0  0  0  0  0  0  0  0  0  0  0  0
  152.1249  138.9603  155.9661 H   0  0  0  0  0  0  0  0  0  0  0  0
  151.5248  141.2078  156.8948 H   0  0  0  0  0  0  0  0  0  0  0  0
  151.8786  141.2870  155.1861 H   0  0  0  0  0  0  0  0  0  0  0  0
  149.0980  141.2339  156.4554 H   0  0  0  0  0  0  0  0  0  0  0  0
  149.8514  142.5991  155.6706 H   0  0  0  0  0  0  0  0  0  0  0  0
  149.8842  141.4012  153.5168 H   0  0  0  0  0  0  0  0  0  0  0  0
  147.0977  141.4018  154.7621 H   0  0  0  0  0  0  0  0  0  0  0  0
  147.4517  141.3701  153.0364 H   0  0  0  0  0  0  0  0  0  0  0  0
  147.9001  142.7709  154.0015 H   0  0  0  0  0  0  0  0  0  0  0  0
  148.1421  135.7560  153.2708 H   0  0  0  0  0  0  0  0  0  0  0  0
  1  2  1  0  0  0  0
  1 20  1  0  0  0  0
  1 21  1  0  0  0  0
  1 22  1  0  0  0  0
  2  3  1  0  0  0  0
  2  9  1  0  0  0  0
  2 23  1  0  0  0  0
  3  4  1  0  0  0  0
  3 24  1  0  0  0  0
  3 25  1  0  0  0  0
  4  8  1  0  0  0  0
  4  5  1  0  0  0  0
  5  6  2  0  0  0  0
  5 26  1  0  0  0  0
  6  7  1  0  0  0  0
  6 27  1  0  0  0  0
  7  8  2  0  0  0  0
  7 28  1  0  0  0  0
  9 10  1  0  0  0  0
  9 29  1  0  0  0  0
  9 47  1  0  0  0  0
 10 11  1  0  0  0  0
 10 30  1  0  0  0  0
 10 31  1  0  0  0  0
 11 12  1  0  0  0  0
 11 32  1  0  0  0  0
 11 33  1  0  0  0  0
 12 13  1  0  0  0  0
 13 18  1  0  0  0  0
 13 14  1  0  0  0  0
 13 34  1  0  0  0  0
 14 15  1  0  0  0  0
 14 35  1  0  0  0  0
 14 36  1  0  0  0  0
 15 16  1  0  0  0  0
 15 37  1  0  0  0  0
 15 38  1  0  0  0  0
 16 17  1  0  0  0  0
 16 39  1  0  0  0  0
 16 40  1  0  0  0  0
 17 18  1  0  0  0  0
 17 41  1  0  0  0  0
 17 42  1  0  0  0  0
 18 19  1  0  0  0  0
 18 43  1  0  0  0  0
 19 44  1  0  0  0  0
 19 45  1  0  0  0  0
 19 46  1  0  0  0  0
M  CHG  1   9   1
M  END
> <s_m_source_file>
AV-unprocessed.smi

> <i_m_source_file_index>
3348

> <i_lp_mmshare_version>
43012

> <i_f3d_flags>
0

> <s_epik_input>
bjFbY0hdW2NIXVtjSF1uMVtDSDJdW0NAQEhdKFtDSDNdKVtOSF1bQ0gyXVtDSDJdT1tDQEBIXTJbQ0gyXVtDSDJdW0NIMl1bQ0gyXVtDQEhdMltDSDNd

> <s_epik_cmdline>
J2VwaWtfcHl0aG9uJywgJy1waCcsICc3LjAnLCAnLXRuJywgJzgnLCAnLW1hJywgJzIwMCcsICctbWV0YWxfYmluZGluZycsICctaW1hZScsICc8aW5maWxlLm1hZT4nLCAnLW9tYWUnLCAnPG91dGZpbGUubWFlPic=

> <r_lp_tautomer_probability>
1

> <r_epik_Ionization_Penalty>
0.00925088

> <r_epik_Ionization_Penalty_Charging>
0.00924645

> <r_epik_Ionization_Penalty_Neutral>
4.42413e-06

> <r_epik_State_Penalty>
0.0070118

> <r_epik_Charging_Adjusted_Penalty>
0.0162583

> <i_epik_Tot_Q>
1

> <i_epik_Tot_abs_Q>
1

> <r_epik_Metal_State_Penalty>
0.00701222

> <b_epik_Metal_Only>
0

> <s_lp_Force_Field>
OPLS_2005

> <r_lp_Energy>
17.0128

> <b_lp_Chiralities_Consistent>
1

> <s_lp_Variant>
AV-unprocessed.smi:3348-5

> <Gold.Version>
5.8.1

> <Gold.Id.Protein>
6NUR|6NUR_protein|mol2

> <Gold.PLP.Fitness>
46.3376

> <Gold.PLP.PLP>
-35.6097

> <Gold.PLP.part.hbond>
-1.0000

> <Gold.PLP.part.metal>
0.0000

> <Gold.PLP.part.buried>
-3.1123

> <Gold.PLP.part.nonpolar>
-31.1261

> <Gold.PLP.part.repulsive>
0.1796

> <Gold.PLP.ligand.clash>
0.0000

> <Gold.PLP.ligand.torsion>
0.6833

> <Gold.PLP.Chemscore.Hbond>
2.0000

> <Gold.PLP.Chemscore.CHOScore>
2.0000

> <Gold.PLP.Chemscore.Metal>
0.0000

> <Gold.Chemscore.Hbonds>
donor molecule, donor type, donor heavy atom, donor atom, acceptor molecule, acceptor atom, score
      L1  H     9    47       P1  7948  1.89
      L1  C     5    26       P1 10747  1.00
      L1  C     7    28       P1 10186  1.00

> <Gold.PLP.Chemscore.Internal.Correction>
0.0947

> <Gold.Rescore>
     Score         DG    S(hbond)    S(metal)    S(lipo)     H(rot)  DE(clash)    DE(int)     intcor
     14.31     -15.08       0.98        0.00      93.81       1.82       0.00       0.76       ----

> <Gold.Chemscore.Fitness>
14.3144

> <Gold.Chemscore.DG>
-15.0815

> <Gold.Chemscore.ZeroCoef>
-5.4800

> <Gold.Chemscore.Hbond>
0.9807

> <Gold.Chemscore.Metal>
0.0000

> <Gold.Chemscore.Lipo>
93.8098

> <Gold.Chemscore.Internal_Hbond>
0.0000

> <Gold.Chemscore.DEClash>
0.0038

> <Gold.Chemscore.DEInternal>
0.7633

> <Gold.Chemscore.Rot>
1.8163

> <Gold.Chemscore.Internal.Correction>
   9.000000E+99

> <Gold.Chemscore.Hbonds>
donor molecule, donor type, donor heavy atom, donor atom, acceptor molecule, acceptor atom, score
      L1  H     9    47       P1  7948  0.91

> <Gold.Chemscore.Hbond.Weighted>
-3.2755

> <Gold.Chemscore.Metal.Weighted>
-0.0000

> <Gold.Chemscore.Lipo.Weighted>
-10.9757

> <Gold.Chemscore.Internal_Hbond.Weighted>
0.0000

> <Gold.Chemscore.DEClash.Weighted>
0.0038

> <Gold.Chemscore.DEInternal.Weighted>
0.7633

> <Gold.Chemscore.Rot.Weighted>
4.6497

> <Gold.Chemscore.Internal.Correction.Weighted>
   9.000000E+99

> <Gold.Protein.RotatedTorsions>
[ 6907 6896 6895 6894 ] final  -49.32 input  -60.11 | X-H torsion
[ 7974 7965 7964 7962 ] final  133.45 input  175.53 | X-H torsion
[ 8008 7997 7996 7995 ] final -163.64 input   59.86 | X-H torsion
[ 10167 10162 10161 10158 ] final  121.57 input  -65.29 | X-H torsion
[ 10718 10713 10712 10709 ] final  134.50 input   66.30 | X-H torsion
[ 10763 10752 10751 10750 ] final -145.15 input  -60.55 | X-H torsion
[ 11005 11000 10999 10996 ] final  153.83 input  -57.11 | X-H torsion

> <Gold.Protein.ActiveResidues>
 VAL166  LYS551  ARG553  GLY616  TRP617  ASP618  TYR619  PRO620  LYS621  CYS622 
 ASP623  PHE694  ASN695  SER759  ASP760  ASP761  ALA762  ILE779  LEU786  VAL792 
 PHE793  MET794  SER795  GLU796  ALA797  LYS798  CYS799  TRP800  GLU811  SER814 

> <Gold.Protein.RotatedAtoms>
  150.8817  134.8209  159.7229 H   0  0  0  0  0  0  0  0  0  0  0  0  # atno 6907 bound_to 6896
  152.4782  134.4785  159.9668 H   0  0  0  0  0  0  0  0  0  0  0  0  # atno 6908 bound_to 6896
  151.4859  133.3497  159.2881 H   0  0  0  0  0  0  0  0  0  0  0  0  # atno 6909 bound_to 6896
  144.9864  139.4451  143.5361 H   0  0  0  0  0  0  0  0  0  0  0  0  # atno 7974 bound_to 7965
  155.8242  140.0924  157.1831 H   0  0  0  0  0  0  0  0  0  0  0  0  # atno 8008 bound_to 7997
  154.3979  140.1431  156.3596 H   0  0  0  0  0  0  0  0  0  0  0  0  # atno 8009 bound_to 7997
  155.8235  140.3445  155.5531 H   0  0  0  0  0  0  0  0  0  0  0  0  # atno 8010 bound_to 7997
  139.5911  144.7025  151.3287 H   0  0  0  0  0  0  0  0  0  0  0  0  # atno 10167 bound_to 10162
  157.4667  131.1077  150.9854 H   0  0  0  0  0  0  0  0  0  0  0  0  # atno 10718 bound_to 10713
  154.8396  135.3421  154.6459 H   0  0  0  0  0  0  0  0  0  0  0  0  # atno 10763 bound_to 10752
  153.7071  135.6966  153.5052 H   0  0  0  0  0  0  0  0  0  0  0  0  # atno 10764 bound_to 10752
  153.2479  135.4363  155.0721 H   0  0  0  0  0  0  0  0  0  0  0  0  # atno 10765 bound_to 10752
  140.1434  134.8724  157.2360 H   0  0  0  0  0  0  0  0  0  0  0  0  # atno 11005 bound_to 11000
  146.3421  139.9169  142.8772 LP  0  0  0  0  0  0  0  0  0  0  0  0  # atno 17320 bound_to 7965
  145.2347  140.9986  143.3970 LP  0  0  0  0  0  0  0  0  0  0  0  0  # atno 17321 bound_to 7965
  140.7174  143.7229  150.7682 LP  0  0  0  0  0  0  0  0  0  0  0  0  # atno 17342 bound_to 10162
  140.0785  143.4992  152.2542 LP  0  0  0  0  0  0  0  0  0  0  0  0  # atno 17343 bound_to 10162
  157.0633  130.5834  149.5389 LP  0  0  0  0  0  0  0  0  0  0  0  0  # atno 17370 bound_to 10713
  156.0053  130.5139  150.7809 LP  0  0  0  0  0  0  0  0  0  0  0  0  # atno 17371 bound_to 10713
  140.2694  134.3478  155.7378 LP  0  0  0  0  0  0  0  0  0  0  0  0  # atno 17394 bound_to 11000
  141.2189  133.7415  156.9200 LP  0  0  0  0  0  0  0  0  0  0  0  0  # atno 17395 bound_to 11000

$$$$
