AV-unprocessed.smi:103|AV-procd|sdf|980|dock8
  -GOLD-   2262017543D 1   1.00000     0.00000
 Structure written by MMmdl.
 53 55  0  0  0  0  0  0  0  0  1 V2000
  156.2344  136.2642  159.4574 C   0  0  0  0  0  0  0  0  0  0  0  0
  154.7566  136.2406  159.8248 C   0  0  0  0  0  0  0  0  0  0  0  0
  154.0825  135.2167  159.7143 O   0  0  0  0  0  0  0  0  0  0  0  0
  154.3183  137.4294  160.2654 O   0  0  0  0  0  0  0  0  0  0  0  0
  152.9453  137.5960  160.5782 C   0  0  0  0  0  0  0  0  0  0  0  0
  152.1013  137.3748  159.3157 C   0  0  1  0  0  0  0  0  0  0  0  0
  150.7154  137.2440  159.6325 O   0  0  0  0  0  0  0  0  0  0  0  0
  149.9372  137.7637  158.5953 C   0  0  2  0  0  0  0  0  0  0  0  0
  149.0038  136.6991  158.1041 N   0  0  0  0  0  0  0  0  0  0  0  0
  147.9041  136.1322  158.7214 C   0  0  0  0  0  0  0  0  0  0  0  0
  147.2366  136.5515  160.3301 S   0  0  0  0  0  0  0  0  0  0  0  0
  146.5939  134.9327  160.9191 C   0  0  0  0  0  0  0  0  0  0  0  0
  148.3731  136.9523  161.1746 O   0  0  0  0  0  0  0  0  0  0  0  0
  146.1119  137.4733  160.1092 O   0  0  0  0  0  0  0  0  0  0  0  0
  147.2378  135.2464  158.0319 N   0  0  0  0  0  0  0  0  0  0  0  0
  147.9729  135.1385  156.8613 C   0  0  0  0  0  0  0  0  0  0  0  0
  147.8449  134.3536  155.6876 C   0  0  0  0  0  0  0  0  0  0  0  0
  146.8530  133.4719  155.5022 N   0  0  0  0  0  0  0  0  0  0  0  0
  148.7676  134.4991  154.7085 N   0  0  0  0  0  0  0  0  0  0  0  0
  149.7676  135.3711  154.8707 C   0  0  0  0  0  0  0  0  0  0  0  0
  150.0149  136.1743  155.9086 N   0  0  0  0  0  0  0  0  0  0  0  0
  149.0839  136.0292  156.8972 C   0  0  0  0  0  0  0  0  0  0  0  0
  150.8927  138.2267  157.4931 C   0  0  1  0  0  0  0  0  0  0  0  0
  150.3732  139.3562  156.8045 O   0  0  0  0  0  0  0  0  0  0  0  0
  151.0422  139.8785  155.7645 C   0  0  0  0  0  0  0  0  0  0  0  0
  150.4109  141.1695  155.2615 C   0  0  0  0  0  0  0  0  0  0  0  0
  152.0560  139.4114  155.2459 O   0  0  0  0  0  0  0  0  0  0  0  0
  152.1508  138.5186  158.2980 C   0  0  1  0  0  0  0  0  0  0  0  0
  152.0642  139.7694  158.9809 O   0  0  0  0  0  0  0  0  0  0  0  0
  153.1690  140.3710  159.4573 C   0  0  0  0  0  0  0  0  0  0  0  0
  152.8649  141.7240  160.0855 C   0  0  0  0  0  0  0  0  0  0  0  0
  154.3163  139.9282  159.4085 O   0  0  0  0  0  0  0  0  0  0  0  0
  156.4680  137.1540  158.8724 H   0  0  0  0  0  0  0  0  0  0  0  0
  156.4951  135.3853  158.8671 H   0  0  0  0  0  0  0  0  0  0  0  0
  156.8476  136.2698  160.3585 H   0  0  0  0  0  0  0  0  0  0  0  0
  152.6443  136.9073  161.3690 H   0  0  0  0  0  0  0  0  0  0  0  0
  152.7910  138.6106  160.9488 H   0  0  0  0  0  0  0  0  0  0  0  0
  152.4301  136.4630  158.8157 H   0  0  0  0  0  0  0  0  0  0  0  0
  149.3202  138.5715  158.9793 H   0  0  0  0  0  0  0  0  0  0  0  0
  146.1945  135.0474  161.9265 H   0  0  0  0  0  0  0  0  0  0  0  0
  147.4033  134.2029  160.9302 H   0  0  0  0  0  0  0  0  0  0  0  0
  145.8028  134.5880  160.2562 H   0  0  0  0  0  0  0  0  0  0  0  0
  146.1532  133.3446  156.2193 H   0  0  0  0  0  0  0  0  0  0  0  0
  146.8094  132.9341  154.6487 H   0  0  0  0  0  0  0  0  0  0  0  0
  150.4683  135.4362  154.0514 H   0  0  0  0  0  0  0  0  0  0  0  0
  151.0779  137.3958  156.8118 H   0  0  0  0  0  0  0  0  0  0  0  0
  149.4403  140.9642  154.8099 H   0  0  0  0  0  0  0  0  0  0  0  0
  151.0485  141.6420  154.5139 H   0  0  0  0  0  0  0  0  0  0  0  0
  150.2706  141.8681  156.0864 H   0  0  0  0  0  0  0  0  0  0  0  0
  153.0514  138.4563  157.6856 H   0  0  0  0  0  0  0  0  0  0  0  0
  152.3912  142.3815  159.3564 H   0  0  0  0  0  0  0  0  0  0  0  0
  153.7817  142.1992  160.4353 H   0  0  0  0  0  0  0  0  0  0  0  0
  152.1915  141.6044  160.9344 H   0  0  0  0  0  0  0  0  0  0  0  0
  1  2  1  0  0  0  0
  1 33  1  0  0  0  0
  1 34  1  0  0  0  0
  1 35  1  0  0  0  0
  2  3  2  0  0  0  0
  2  4  1  0  0  0  0
  4  5  1  0  0  0  0
  5  6  1  0  0  0  0
  5 36  1  0  0  0  0
  5 37  1  0  0  0  0
  6 28  1  0  0  0  0
  6  7  1  0  0  0  0
  6 38  1  0  0  0  0
  7  8  1  0  0  0  0
  8  9  1  0  0  0  0
  8 23  1  0  0  0  0
  8 39  1  0  0  0  0
  9 22  1  0  0  0  0
  9 10  1  0  0  0  0
 10 11  1  0  0  0  0
 10 15  2  0  0  0  0
 11 12  1  0  0  0  0
 11 13  2  0  0  0  0
 11 14  2  0  0  0  0
 12 40  1  0  0  0  0
 12 41  1  0  0  0  0
 12 42  1  0  0  0  0
 15 16  1  0  0  0  0
 16 22  2  0  0  0  0
 16 17  1  0  0  0  0
 17 18  1  0  0  0  0
 17 19  2  0  0  0  0
 18 43  1  0  0  0  0
 18 44  1  0  0  0  0
 19 20  1  0  0  0  0
 20 21  2  0  0  0  0
 20 45  1  0  0  0  0
 21 22  1  0  0  0  0
 23 24  1  0  0  0  0
 23 28  1  0  0  0  0
 23 46  1  0  0  0  0
 24 25  1  0  0  0  0
 25 26  1  0  0  0  0
 25 27  2  0  0  0  0
 26 47  1  0  0  0  0
 26 48  1  0  0  0  0
 26 49  1  0  0  0  0
 28 29  1  0  0  0  0
 28 50  1  0  0  0  0
 29 30  1  0  0  0  0
 30 31  1  0  0  0  0
 30 32  2  0  0  0  0
 31 51  1  0  0  0  0
 31 52  1  0  0  0  0
 31 53  1  0  0  0  0
M  END
> <s_m_source_file>
AV-unprocessed.smi

> <i_m_source_file_index>
103

> <i_lp_mmshare_version>
43012

> <i_f3d_flags>
0

> <s_epik_input>
W0NIM11DKD1PKU9bQ0gyXVtDQEBIXTFPW0NASF0oW0NAQEhdKE9DKD1PKVtDSDNdKVtDQEhdMU9DKD1PKVtDSDNdKW4oYyhuMilTKD1PKSg9TylbQ0gzXSljKGMyMyluW2NIXW5jM1tOSDJd

> <s_epik_cmdline>
J2VwaWtfcHl0aG9uJywgJy1waCcsICc3LjAnLCAnLXRuJywgJzgnLCAnLW1hJywgJzIwMCcsICctbWV0YWxfYmluZGluZycsICctaW1hZScsICc8aW5maWxlLm1hZT4nLCAnLW9tYWUnLCAnPG91dGZpbGUubWFlPic=

> <r_lp_tautomer_probability>
1

> <r_epik_Ionization_Penalty>
1.51338e-05

> <r_epik_Ionization_Penalty_Charging>
0

> <r_epik_Ionization_Penalty_Neutral>
1.51338e-05

> <r_epik_State_Penalty>
-0

> <r_epik_Charging_Adjusted_Penalty>
0

> <i_epik_Tot_Q>
0

> <i_epik_Tot_abs_Q>
0

> <r_epik_Metal_State_Penalty>
-0

> <b_epik_Metal_Only>
0

> <s_epik_Chemistry_Notes>
This compound has an ester and may undergo hydrolysis at high or low pH. This compound contains an acetal/aminal-like group ( X-CH(R)-Y where X, Y are N, S, or O) that may be acid/base labile, releasing an aldehyde.

> <s_lp_Force_Field>
OPLS_2005

> <r_lp_Energy>
20.0914

> <b_lp_Chiralities_Consistent>
1

> <s_lp_Variant>
AV-unprocessed.smi:103-4

> <Gold.Version>
5.8.1

> <Gold.Id.Protein>
6NUR|6NUR_protein|mol2

> <Gold.PLP.Fitness>
48.4762

> <Gold.PLP.PLP>
-31.9851

> <Gold.PLP.part.hbond>
-5.2810

> <Gold.PLP.part.metal>
0.0000

> <Gold.PLP.part.buried>
-5.4196

> <Gold.PLP.part.nonpolar>
-21.7700

> <Gold.PLP.part.repulsive>
0.1625

> <Gold.PLP.ligand.clash>
0.4583

> <Gold.PLP.ligand.torsion>
1.7500

> <Gold.PLP.Chemscore.Hbond>
4.9500

> <Gold.PLP.Chemscore.CHOScore>
0.9925

> <Gold.PLP.Chemscore.Metal>
0.0000

> <Gold.Chemscore.Hbonds>
donor molecule, donor type, donor heavy atom, donor atom, acceptor molecule, acceptor atom, score
      P1  H  6896  6908       L1     7  0.20
      P1  H  6896  6909       L1     3  1.00
      P1  H  6931  6943       L1    13  1.00
      P1  H  6934  6947       L1    14  0.59
      P1  H  7989  7998       L1    27  0.10
      P1  H  7997  8010       L1    32  0.55
      L1  C    20    45       P1  7948  0.06
      L1  C    20    45       P1  7949  0.18

> <Gold.PLP.Chemscore.Internal.Correction>
2.6219

> <Gold.Rescore>
     Score         DG    S(hbond)    S(metal)    S(lipo)     H(rot)  DE(clash)    DE(int)     intcor
      8.77     -14.15       4.30        0.00      44.09       4.25       0.34       5.04       ----

> <Gold.Chemscore.Fitness>
8.7663

> <Gold.Chemscore.DG>
-14.1459

> <Gold.Chemscore.ZeroCoef>
-5.4800

> <Gold.Chemscore.Hbond>
4.3042

> <Gold.Chemscore.Metal>
0.0000

> <Gold.Chemscore.Lipo>
44.0902

> <Gold.Chemscore.Internal_Hbond>
0.0000

> <Gold.Chemscore.DEClash>
0.3406

> <Gold.Chemscore.DEInternal>
5.0391

> <Gold.Chemscore.Rot>
4.2456

> <Gold.Chemscore.Internal.Correction>
   9.000000E+99

> <Gold.Chemscore.Hbonds>
donor molecule, donor type, donor heavy atom, donor atom, acceptor molecule, acceptor atom, score
      P1  H  6896  6908       L1     7  0.01
      P1  H  6896  6909       L1     3  0.99
      P1  H  6931  6943       L1    13  0.99
      P1  H  6934  6947       L1    14  0.04
      P1  H  7997  8010       L1    32  0.34

> <Gold.Chemscore.Hbond.Weighted>
-14.3760

> <Gold.Chemscore.Metal.Weighted>
-0.0000

> <Gold.Chemscore.Lipo.Weighted>
-5.1586

> <Gold.Chemscore.Internal_Hbond.Weighted>
0.0000

> <Gold.Chemscore.DEClash.Weighted>
0.3406

> <Gold.Chemscore.DEInternal.Weighted>
5.0391

> <Gold.Chemscore.Rot.Weighted>
10.8687

> <Gold.Chemscore.Internal.Correction.Weighted>
   9.000000E+99

> <Gold.Protein.RotatedTorsions>
[ 6907 6896 6895 6894 ] final -153.52 input  -60.11 | X-H torsion
[ 7974 7965 7964 7962 ] final   35.50 input  175.53 | X-H torsion
[ 8008 7997 7996 7995 ] final    7.74 input   59.86 | X-H torsion
[ 10167 10162 10161 10158 ] final   57.91 input  -65.29 | X-H torsion
[ 10718 10713 10712 10709 ] final   28.02 input   66.30 | X-H torsion
[ 10763 10752 10751 10750 ] final -148.14 input  -60.55 | X-H torsion
[ 11005 11000 10999 10996 ] final  152.92 input  -57.11 | X-H torsion

> <Gold.Protein.ActiveResidues>
 VAL166  LYS551  ARG553  GLY616  TRP617  ASP618  TYR619  PRO620  LYS621  CYS622 
 ASP623  PHE694  ASN695  SER759  ASP760  ASP761  ALA762  ILE779  LEU786  VAL792 
 PHE793  MET794  SER795  GLU796  ALA797  LYS798  CYS799  TRP800  GLU811  SER814 

> <Gold.Protein.RotatedAtoms>
  151.2438  133.4386  159.2608 H   0  0  0  0  0  0  0  0  0  0  0  0  # atno 6907 bound_to 6896
  151.0681  134.9781  159.8305 H   0  0  0  0  0  0  0  0  0  0  0  0  # atno 6908 bound_to 6896
  152.5408  134.2384  159.8905 H   0  0  0  0  0  0  0  0  0  0  0  0  # atno 6909 bound_to 6896
  146.1279  139.6135  142.9246 H   0  0  0  0  0  0  0  0  0  0  0  0  # atno 7974 bound_to 7965
  154.7577  140.2779  155.6240 H   0  0  0  0  0  0  0  0  0  0  0  0  # atno 8008 bound_to 7997
  156.2909  140.2666  156.2274 H   0  0  0  0  0  0  0  0  0  0  0  0  # atno 8009 bound_to 7997
  155.0057  140.0372  157.2368 H   0  0  0  0  0  0  0  0  0  0  0  0  # atno 8010 bound_to 7997
  140.1930  144.4067  150.6563 H   0  0  0  0  0  0  0  0  0  0  0  0  # atno 10167 bound_to 10162
  157.2279  130.7010  149.6300 H   0  0  0  0  0  0  0  0  0  0  0  0  # atno 10718 bound_to 10713
  154.8249  135.3342  154.6928 H   0  0  0  0  0  0  0  0  0  0  0  0  # atno 10763 bound_to 10752
  153.7555  135.6936  153.4941 H   0  0  0  0  0  0  0  0  0  0  0  0  # atno 10764 bound_to 10752
  153.2146  135.4470  155.0370 H   0  0  0  0  0  0  0  0  0  0  0  0  # atno 10765 bound_to 10752
  140.1351  134.8776  157.2256 H   0  0  0  0  0  0  0  0  0  0  0  0  # atno 11005 bound_to 11000
  145.5326  141.0426  143.2375 LP  0  0  0  0  0  0  0  0  0  0  0  0  # atno 17320 bound_to 7965
  144.7660  139.6843  143.7214 LP  0  0  0  0  0  0  0  0  0  0  0  0  # atno 17321 bound_to 7965
  140.6443  143.2210  151.6221 LP  0  0  0  0  0  0  0  0  0  0  0  0  # atno 17342 bound_to 10162
  139.5248  144.3092  152.1007 LP  0  0  0  0  0  0  0  0  0  0  0  0  # atno 17343 bound_to 10162
  155.9677  130.4498  150.5674 LP  0  0  0  0  0  0  0  0  0  0  0  0  # atno 17370 bound_to 10713
  157.3508  131.0733  151.1714 LP  0  0  0  0  0  0  0  0  0  0  0  0  # atno 17371 bound_to 10713
  140.2793  134.3369  155.7348 LP  0  0  0  0  0  0  0  0  0  0  0  0  # atno 17394 bound_to 11000
  141.2177  133.7469  156.9340 LP  0  0  0  0  0  0  0  0  0  0  0  0  # atno 17395 bound_to 11000

$$$$
