AV-unprocessed.smi:876|AV-procd|sdf|4024|dock1
  -GOLD-   22720 1513D 1   1.00000     0.00000
 Structure written by MMmdl.
 40 41  0  0  0  0  0  0  0  0  1 V2000
  151.9293  140.7151  158.0930 C   0  0  0  0  0  0  0  0  0  0  0  0
  151.0961  141.1532  156.9799 N   0  0  0  0  0  0  0  0  0  0  0  0
  151.0324  142.5692  156.6325 C   0  0  0  0  0  0  0  0  0  0  0  0
  150.3139  140.2173  156.2650 C   0  0  0  0  0  0  0  0  0  0  0  0
  149.2298  139.5389  156.8756 C   0  0  0  0  0  0  0  0  0  0  0  0
  148.4787  138.6163  156.1221 C   0  0  0  0  0  0  0  0  0  0  0  0
  148.8218  138.3947  154.7685 C   0  0  0  0  0  0  0  0  0  0  0  0
  148.1570  137.4802  153.9070 N   0  0  0  0  0  0  0  0  0  0  0  0
  146.8603  137.1268  153.8942 C   0  0  0  0  0  0  0  0  0  0  0  0
  145.9903  137.5720  154.6424 O   0  0  0  0  0  0  0  0  0  0  0  0
  146.6157  136.2220  152.9360 N   0  0  0  0  0  0  0  0  0  0  0  0
  145.3079  135.6420  152.6522 C   0  0  1  0  0  0  0  0  0  0  0  0
  144.8564  136.0074  151.2651 C   0  0  0  0  0  0  0  0  0  0  0  0
  144.6071  134.9415  150.5081 C   0  0  0  0  0  0  0  0  0  0  0  0
  144.8628  133.6402  151.2249 C   0  0  2  0  0  0  0  0  0  0  0  0
  143.6253  132.7267  151.2590 C   0  0  0  0  0  0  0  0  0  0  0  0
  143.1450  132.4892  149.9522 O   0  0  0  0  0  0  0  0  0  0  0  0
  145.3259  134.0904  152.6341 C   0  0  0  0  0  0  0  0  0  0  0  0
  149.9231  139.1047  154.2525 C   0  0  0  0  0  0  0  0  0  0  0  0
  150.6450  139.9897  154.9705 N   0  0  0  0  0  0  0  0  0  0  0  0
  144.5686  136.0137  153.3638 H   0  0  0  0  0  0  0  0  0  0  0  0
  145.6833  133.1290  150.7191 H   0  0  0  0  0  0  0  0  0  0  0  0
  152.6919  140.0160  157.7487 H   0  0  0  0  0  0  0  0  0  0  0  0
  151.3236  140.2255  158.8563 H   0  0  0  0  0  0  0  0  0  0  0  0
  152.4382  141.5566  158.5633 H   0  0  0  0  0  0  0  0  0  0  0  0
  150.0206  142.9518  156.7711 H   0  0  0  0  0  0  0  0  0  0  0  0
  151.3214  142.7225  155.5923 H   0  0  0  0  0  0  0  0  0  0  0  0
  151.7025  143.1626  157.2543 H   0  0  0  0  0  0  0  0  0  0  0  0
  148.9613  139.7026  157.9081 H   0  0  0  0  0  0  0  0  0  0  0  0
  147.6683  138.0922  156.6037 H   0  0  0  0  0  0  0  0  0  0  0  0
  148.7310  137.0806  153.1789 H   0  0  0  0  0  0  0  0  0  0  0  0
  147.3863  135.9122  152.3623 H   0  0  0  0  0  0  0  0  0  0  0  0
  144.7422  137.0338  150.9484 H   0  0  0  0  0  0  0  0  0  0  0  0
  144.2703  134.9750  149.4821 H   0  0  0  0  0  0  0  0  0  0  0  0
  143.8755  131.7678  151.7137 H   0  0  0  0  0  0  0  0  0  0  0  0
  142.8303  133.1715  151.8588 H   0  0  0  0  0  0  0  0  0  0  0  0
  142.5700  133.1991  149.7100 H   0  0  0  0  0  0  0  0  0  0  0  0
  146.3205  133.6945  152.8443 H   0  0  0  0  0  0  0  0  0  0  0  0
  144.6677  133.7021  153.4125 H   0  0  0  0  0  0  0  0  0  0  0  0
  150.2358  138.9632  153.2281 H   0  0  0  0  0  0  0  0  0  0  0  0
  1  2  1  0  0  0  0
  1 23  1  0  0  0  0
  1 24  1  0  0  0  0
  1 25  1  0  0  0  0
  2  3  1  0  0  0  0
  2  4  1  0  0  0  0
  3 26  1  0  0  0  0
  3 27  1  0  0  0  0
  3 28  1  0  0  0  0
  4 20  1  0  0  0  0
  4  5  2  0  0  0  0
  5  6  1  0  0  0  0
  5 29  1  0  0  0  0
  6  7  2  0  0  0  0
  6 30  1  0  0  0  0
  7  8  1  0  0  0  0
  7 19  1  0  0  0  0
  8  9  1  0  0  0  0
  8 31  1  0  0  0  0
  9 10  2  0  0  0  0
  9 11  1  0  0  0  0
 11 12  1  0  0  0  0
 11 32  1  0  0  0  0
 12 21  1  0  0  0  0
 12 18  1  0  0  0  0
 12 13  1  0  0  0  0
 13 14  2  0  0  0  0
 13 33  1  0  0  0  0
 14 15  1  0  0  0  0
 14 34  1  0  0  0  0
 15 22  1  0  0  0  0
 15 16  1  0  0  0  0
 15 18  1  0  0  0  0
 16 17  1  0  0  0  0
 16 35  1  0  0  0  0
 16 36  1  0  0  0  0
 17 37  1  0  0  0  0
 18 38  1  0  0  0  0
 18 39  1  0  0  0  0
 19 20  2  0  0  0  0
 19 40  1  0  0  0  0
M  END
> <s_m_source_file>
AV-unprocessed.smi

> <i_m_source_file_index>
876

> <i_lp_mmshare_version>
43012

> <i_f3d_flags>
0

> <s_epik_input>
W0NIM11OKFtDSDNdKWMxW2NIXVtjSF1jKFtjSF1uMSlbTkhdQyg9TylbTkhdW0NAQEhdMltDSF09W0NIXVtDQEBIXShbQ0gyXTIpW0NIMl1bT0hd

> <s_epik_cmdline>
J2VwaWtfcHl0aG9uJywgJy1waCcsICc3LjAnLCAnLXRuJywgJzgnLCAnLW1hJywgJzIwMCcsICctbWV0YWxfYmluZGluZycsICctaW1hZScsICc8aW5maWxlLm1hZT4nLCAnLW9tYWUnLCAnPG91dGZpbGUubWFlPic=

> <r_lp_tautomer_probability>
1

> <r_epik_Ionization_Penalty>
0.617998

> <r_epik_Ionization_Penalty_Charging>
0

> <r_epik_Ionization_Penalty_Neutral>
0.617998

> <r_epik_State_Penalty>
0.632637

> <r_epik_Charging_Adjusted_Penalty>
0.632637

> <i_epik_Tot_Q>
0

> <i_epik_Tot_abs_Q>
0

> <r_epik_Metal_State_Penalty>
0.305596

> <b_epik_Metal_Only>
0

> <s_lp_Force_Field>
OPLS_2005

> <r_lp_Energy>
20.6708

> <b_lp_Chiralities_Consistent>
1

> <s_lp_Variant>
AV-unprocessed.smi:876-6

> <Gold.Version>
5.8.1

> <Gold.Id.Protein>
6NUR|6NUR_protein|mol2

> <Gold.PLP.Fitness>
40.9580

> <Gold.PLP.PLP>
-29.1674

> <Gold.PLP.part.hbond>
-4.4837

> <Gold.PLP.part.metal>
0.0000

> <Gold.PLP.part.buried>
-2.4458

> <Gold.PLP.part.nonpolar>
-21.6282

> <Gold.PLP.part.repulsive>
0.1418

> <Gold.PLP.ligand.clash>
0.0000

> <Gold.PLP.ligand.torsion>
1.5392

> <Gold.PLP.Chemscore.Hbond>
3.9440

> <Gold.PLP.Chemscore.CHOScore>
1.0000

> <Gold.PLP.Chemscore.Metal>
0.0000

> <Gold.Chemscore.Hbonds>
donor molecule, donor type, donor heavy atom, donor atom, acceptor molecule, acceptor atom, score
      L1  H     8    31       P1  7948  1.00
      L1  H    11    32       P1  7948  0.94
      L1  H    17    37       P1 10186  1.00
      P1  H  7989  7998       L1    20  0.95
      L1  C    19    40       P1  7957  1.00

> <Gold.PLP.Chemscore.Internal.Correction>
0.0370

> <Gold.Rescore>
     Score         DG    S(hbond)    S(metal)    S(lipo)     H(rot)  DE(clash)    DE(int)     intcor
     17.29     -19.05       3.30        0.00      61.15       1.80       0.14       1.62       ----

> <Gold.Chemscore.Fitness>
17.2860

> <Gold.Chemscore.DG>
-19.0485

> <Gold.Chemscore.ZeroCoef>
-5.4800

> <Gold.Chemscore.Hbond>
3.2985

> <Gold.Chemscore.Metal>
0.0000

> <Gold.Chemscore.Lipo>
61.1483

> <Gold.Chemscore.Internal_Hbond>
0.0000

> <Gold.Chemscore.DEClash>
0.1390

> <Gold.Chemscore.DEInternal>
1.6235

> <Gold.Chemscore.Rot>
1.7980

> <Gold.Chemscore.Internal.Correction>
   9.000000E+99

> <Gold.Chemscore.Hbonds>
donor molecule, donor type, donor heavy atom, donor atom, acceptor molecule, acceptor atom, score
      L1  H     8    31       P1  7948  0.94
      L1  H    11    32       P1  7948  0.91
      L1  H    17    37       P1 10186  0.97
      P1  H  7989  7998       L1    20  0.21

> <Gold.Chemscore.Hbond.Weighted>
-11.0171

> <Gold.Chemscore.Metal.Weighted>
-0.0000

> <Gold.Chemscore.Lipo.Weighted>
-7.1544

> <Gold.Chemscore.Internal_Hbond.Weighted>
0.0000

> <Gold.Chemscore.DEClash.Weighted>
0.1390

> <Gold.Chemscore.DEInternal.Weighted>
1.6235

> <Gold.Chemscore.Rot.Weighted>
4.6029

> <Gold.Chemscore.Internal.Correction.Weighted>
   9.000000E+99

> <Gold.Protein.RotatedTorsions>
[ 6907 6896 6895 6894 ] final   79.77 input  -60.11 | X-H torsion
[ 7974 7965 7964 7962 ] final  144.10 input  175.53 | X-H torsion
[ 8008 7997 7996 7995 ] final  -62.45 input   59.86 | X-H torsion
[ 10167 10162 10161 10158 ] final  -32.44 input  -65.29 | X-H torsion
[ 10718 10713 10712 10709 ] final   99.01 input   66.30 | X-H torsion
[ 10763 10752 10751 10750 ] final  141.31 input  -60.55 | X-H torsion
[ 11005 11000 10999 10996 ] final   97.70 input  -57.11 | X-H torsion

> <Gold.Protein.ActiveResidues>
 VAL166  LYS551  ARG553  GLY616  TRP617  ASP618  TYR619  PRO620  LYS621  CYS622 
 ASP623  PHE694  ASN695  SER759  ASP760  ASP761  ALA762  ILE779  LEU786  VAL792 
 PHE793  MET794  SER795  GLU796  ALA797  LYS798  CYS799  TRP800  GLU811  SER814 

> <Gold.Protein.RotatedAtoms>
  152.5211  134.3459  159.9233 H   0  0  0  0  0  0  0  0  0  0  0  0  # atno 6907 bound_to 6896
  151.3410  133.3956  159.2679 H   0  0  0  0  0  0  0  0  0  0  0  0  # atno 6908 bound_to 6896
  150.9804  134.9178  159.7898 H   0  0  0  0  0  0  0  0  0  0  0  0  # atno 6909 bound_to 6896
  144.8864  139.5622  143.5819 H   0  0  0  0  0  0  0  0  0  0  0  0  # atno 7974 bound_to 7965
  154.4500  140.0996  156.6588 H   0  0  0  0  0  0  0  0  0  0  0  0  # atno 8008 bound_to 7997
  155.5316  140.3481  155.4409 H   0  0  0  0  0  0  0  0  0  0  0  0  # atno 8009 bound_to 7997
  156.0660  140.1338  156.9874 H   0  0  0  0  0  0  0  0  0  0  0  0  # atno 8010 bound_to 7997
  140.7221  143.3694  151.1807 H   0  0  0  0  0  0  0  0  0  0  0  0  # atno 10167 bound_to 10162
  157.6884  131.0657  150.4883 H   0  0  0  0  0  0  0  0  0  0  0  0  # atno 10718 bound_to 10713
  153.9372  135.2984  155.3444 H   0  0  0  0  0  0  0  0  0  0  0  0  # atno 10763 bound_to 10752
  154.7496  135.4986  153.9268 H   0  0  0  0  0  0  0  0  0  0  0  0  # atno 10764 bound_to 10752
  153.1061  135.6747  153.9690 H   0  0  0  0  0  0  0  0  0  0  0  0  # atno 10765 bound_to 10752
  139.8775  134.9013  156.4346 H   0  0  0  0  0  0  0  0  0  0  0  0  # atno 11005 bound_to 11000
  146.3027  139.7479  142.9079 LP  0  0  0  0  0  0  0  0  0  0  0  0  # atno 17320 bound_to 7965
  145.3860  141.0365  143.3150 LP  0  0  0  0  0  0  0  0  0  0  0  0  # atno 17321 bound_to 7965
  139.7263  143.9143  152.3004 LP  0  0  0  0  0  0  0  0  0  0  0  0  # atno 17342 bound_to 10162
  139.8917  144.6961  150.8763 LP  0  0  0  0  0  0  0  0  0  0  0  0  # atno 17343 bound_to 10162
  156.5211  130.4162  149.6250 LP  0  0  0  0  0  0  0  0  0  0  0  0  # atno 17370 bound_to 10713
  156.3153  130.7251  151.2152 LP  0  0  0  0  0  0  0  0  0  0  0  0  # atno 17371 bound_to 10713
  140.9043  133.7757  155.9716 LP  0  0  0  0  0  0  0  0  0  0  0  0  # atno 17394 bound_to 11000
  140.8617  134.2833  157.5231 LP  0  0  0  0  0  0  0  0  0  0  0  0  # atno 17395 bound_to 11000

$$$$
