AV-unprocessed.smi:240|AV-procd|sdf|1837|dock10
  -GOLD-   2262020443D 1   1.00000     0.00000
 Structure written by MMmdl.
 55 59  0  0  0  0  0  0  0  0  1 V2000
  152.5366  139.9405  157.0512 O   0  0  0  0  0  0  0  0  0  0  0  0
  151.8648  139.8894  158.2976 C   0  0  1  0  0  0  0  0  0  0  0  0
  152.8054  140.4207  159.3811 C   0  0  0  0  0  0  0  0  0  0  0  0
  152.6257  141.9419  159.3707 C   0  0  0  0  0  0  0  0  0  0  0  0
  151.3539  142.2186  158.5569 C   0  0  0  0  0  0  0  0  0  0  0  0
  150.6633  140.8572  158.3271 C   0  0  1  0  0  0  0  0  0  0  0  0
  149.6781  140.7468  157.1135 C   0  0  1  0  0  0  0  0  0  0  0  0
  150.1257  141.6965  155.9697 C   0  0  0  0  0  0  0  0  0  0  0  0
  149.2654  141.5921  154.8424 O   0  0  0  0  0  0  0  0  0  0  0  0
  149.2872  140.2876  154.2853 C   0  0  0  0  0  0  0  0  0  0  0  0
  148.7675  139.3041  155.3378 C   0  0  0  0  0  0  0  0  0  0  0  0
  149.5687  139.3864  156.5557 N   0  0  0  0  0  0  0  0  0  0  0  0
  149.2058  138.3949  157.3971 C   0  0  0  0  0  0  0  0  0  0  0  0
  150.1584  137.4897  157.7302 N   0  0  0  0  0  0  0  0  0  0  0  0
  149.8662  136.4937  158.5721 C   0  0  0  0  0  0  0  0  0  0  0  0
  148.7083  136.2269  159.1803 N   0  0  0  0  0  0  0  0  0  0  0  0
  147.7448  137.1282  158.8325 C   0  0  0  0  0  0  0  0  0  0  0  0
  147.9022  138.2287  157.9452 C   0  0  0  0  0  0  0  0  0  0  0  0
  146.7020  138.9189  157.8264 N   0  0  0  0  0  0  0  0  0  0  0  0
  145.8847  138.2709  158.6108 C   0  0  0  0  0  0  0  0  0  0  0  0
  146.4321  137.1905  159.2657 N   0  0  0  0  0  0  0  0  0  0  0  0
  145.7608  136.3043  160.2034 C   0  0  0  0  0  0  0  0  0  0  0  0
  146.5532  136.0590  161.5128 C   0  0  2  0  0  0  0  0  0  0  0  0
  147.1384  137.2775  161.9340 O   0  0  0  0  0  0  0  0  0  0  0  0
  147.6453  134.9937  161.3965 C   0  0  0  0  0  0  0  0  0  0  0  0
  146.9475  133.7438  161.9103 C   0  0  0  0  0  0  0  0  0  0  0  0
  146.2024  134.2452  163.0061 O   0  0  0  0  0  0  0  0  0  0  0  0
  145.6451  135.4991  162.6272 C   0  0  0  0  0  0  0  0  0  0  0  0
  151.9149  139.7483  156.3659 H   0  0  0  0  0  0  0  0  0  0  0  0
  151.5737  138.8589  158.5040 H   0  0  0  0  0  0  0  0  0  0  0  0
  152.4899  140.0314  160.3500 H   0  0  0  0  0  0  0  0  0  0  0  0
  153.8430  140.1173  159.2346 H   0  0  0  0  0  0  0  0  0  0  0  0
  152.5390  142.3253  160.3880 H   0  0  0  0  0  0  0  0  0  0  0  0
  153.4829  142.4331  158.9086 H   0  0  0  0  0  0  0  0  0  0  0  0
  150.7165  142.9311  159.0787 H   0  0  0  0  0  0  0  0  0  0  0  0
  151.6329  142.6625  157.6007 H   0  0  0  0  0  0  0  0  0  0  0  0
  150.0980  140.6246  159.2315 H   0  0  0  0  0  0  0  0  0  0  0  0
  148.6861  141.0643  157.4362 H   0  0  0  0  0  0  0  0  0  0  0  0
  150.0981  142.7374  156.2884 H   0  0  0  0  0  0  0  0  0  0  0  0
  151.1539  141.4861  155.6699 H   0  0  0  0  0  0  0  0  0  0  0  0
  148.6505  140.2659  153.4009 H   0  0  0  0  0  0  0  0  0  0  0  0
  150.2960  140.0249  153.9634 H   0  0  0  0  0  0  0  0  0  0  0  0
  147.7243  139.5287  155.5644 H   0  0  0  0  0  0  0  0  0  0  0  0
  148.7984  138.2900  154.9358 H   0  0  0  0  0  0  0  0  0  0  0  0
  150.6778  135.8167  158.7941 H   0  0  0  0  0  0  0  0  0  0  0  0
  144.8549  138.5705  158.7411 H   0  0  0  0  0  0  0  0  0  0  0  0
  144.7801  136.7262  160.4282 H   0  0  0  0  0  0  0  0  0  0  0  0
  145.5734  135.3561  159.6978 H   0  0  0  0  0  0  0  0  0  0  0  0
  146.8882  137.4347  162.8318 H   0  0  0  0  0  0  0  0  0  0  0  0
  148.0564  134.8667  160.3962 H   0  0  0  0  0  0  0  0  0  0  0  0
  148.4800  135.2228  162.0611 H   0  0  0  0  0  0  0  0  0  0  0  0
  146.2733  133.3318  161.1577 H   0  0  0  0  0  0  0  0  0  0  0  0
  147.6458  132.9652  162.2182 H   0  0  0  0  0  0  0  0  0  0  0  0
  145.5796  136.1540  163.4972 H   0  0  0  0  0  0  0  0  0  0  0  0
  144.6281  135.3351  162.2678 H   0  0  0  0  0  0  0  0  0  0  0  0
  1  2  1  0  0  0  0
  1 29  1  0  0  0  0
  2  6  1  0  0  0  0
  2  3  1  0  0  0  0
  2 30  1  0  0  0  0
  3  4  1  0  0  0  0
  3 31  1  0  0  0  0
  3 32  1  0  0  0  0
  4  5  1  0  0  0  0
  4 33  1  0  0  0  0
  4 34  1  0  0  0  0
  5  6  1  0  0  0  0
  5 35  1  0  0  0  0
  5 36  1  0  0  0  0
  6  7  1  0  0  0  0
  6 37  1  0  0  0  0
  7 12  1  0  0  0  0
  7  8  1  0  0  0  0
  7 38  1  0  0  0  0
  8  9  1  0  0  0  0
  8 39  1  0  0  0  0
  8 40  1  0  0  0  0
  9 10  1  0  0  0  0
 10 11  1  0  0  0  0
 10 41  1  0  0  0  0
 10 42  1  0  0  0  0
 11 12  1  0  0  0  0
 11 43  1  0  0  0  0
 11 44  1  0  0  0  0
 12 13  1  0  0  0  0
 13 18  1  0  0  0  0
 13 14  2  0  0  0  0
 14 15  1  0  0  0  0
 15 16  2  0  0  0  0
 15 45  1  0  0  0  0
 16 17  1  0  0  0  0
 17 21  1  0  0  0  0
 17 18  2  0  0  0  0
 18 19  1  0  0  0  0
 19 20  2  0  0  0  0
 20 21  1  0  0  0  0
 20 46  1  0  0  0  0
 21 22  1  0  0  0  0
 22 23  1  0  0  0  0
 22 47  1  0  0  0  0
 22 48  1  0  0  0  0
 23 28  1  0  0  0  0
 23 24  1  0  0  0  0
 23 25  1  0  0  0  0
 24 49  1  0  0  0  0
 25 26  1  0  0  0  0
 25 50  1  0  0  0  0
 25 51  1  0  0  0  0
 26 27  1  0  0  0  0
 26 52  1  0  0  0  0
 26 53  1  0  0  0  0
 27 28  1  0  0  0  0
 28 54  1  0  0  0  0
 28 55  1  0  0  0  0
M  END
> <s_m_source_file>
AV-unprocessed.smi

> <i_m_source_file_index>
240

> <i_lp_mmshare_version>
43012

> <i_f3d_flags>
0

> <s_epik_input>
W09IXVtDQEBIXTFbQ0gyXVtDSDJdW0NIMl1bQ0BIXTFbQ0BASF0yW0NIMl1PW0NIMl1bQ0gyXU4yYyhuW2NIXW4zKWMoYzM0KW5bY0hdbjRbQ0gyXVtDQEBdNShbT0hdKVtDSDJdW0NIMl1PW0NIMl01

> <s_epik_cmdline>
J2VwaWtfcHl0aG9uJywgJy1waCcsICc3LjAnLCAnLXRuJywgJzgnLCAnLW1hJywgJzIwMCcsICctbWV0YWxfYmluZGluZycsICctaW1hZScsICc8aW5maWxlLm1hZT4nLCAnLW9tYWUnLCAnPG91dGZpbGUubWFlPic=

> <r_lp_tautomer_probability>
1

> <r_epik_Ionization_Penalty>
0.000130618

> <r_epik_Ionization_Penalty_Charging>
0

> <r_epik_Ionization_Penalty_Neutral>
0.000130618

> <r_epik_State_Penalty>
-0

> <r_epik_Charging_Adjusted_Penalty>
0

> <i_epik_Tot_Q>
0

> <i_epik_Tot_abs_Q>
0

> <r_epik_Metal_State_Penalty>
-0

> <b_epik_Metal_Only>
0

> <s_lp_Force_Field>
OPLS_2005

> <r_lp_Energy>
64.0442

> <b_lp_Chiralities_Consistent>
1

> <s_lp_Variant>
AV-unprocessed.smi:240-14

> <Gold.Version>
5.8.1

> <Gold.Id.Protein>
6NUR|6NUR_protein|mol2

> <Gold.PLP.Fitness>
40.7513

> <Gold.PLP.PLP>
-35.3066

> <Gold.PLP.part.hbond>
-4.0000

> <Gold.PLP.part.metal>
0.0000

> <Gold.PLP.part.buried>
-5.4221

> <Gold.PLP.part.nonpolar>
-26.5484

> <Gold.PLP.part.repulsive>
0.1598

> <Gold.PLP.ligand.clash>
0.0020

> <Gold.PLP.ligand.torsion>
1.2080

> <Gold.PLP.Chemscore.Hbond>
2.5360

> <Gold.PLP.Chemscore.CHOScore>
0.0000

> <Gold.PLP.Chemscore.Metal>
0.0000

> <Gold.Chemscore.Hbonds>
donor molecule, donor type, donor heavy atom, donor atom, acceptor molecule, acceptor atom, score
      P1  H  6931  6943       L1    24  0.59
      P1  H  6934  6947       L1    24  0.80
      P1  H  7997  8010       L1     1  1.00

> <Gold.PLP.Chemscore.Internal.Correction>
0.2546

> <Gold.Rescore>
     Score         DG    S(hbond)    S(metal)    S(lipo)     H(rot)  DE(clash)    DE(int)     intcor
     12.33     -14.91       1.92        0.00      91.48       3.00       0.23       2.35       ----

> <Gold.Chemscore.Fitness>
12.3269

> <Gold.Chemscore.DG>
-14.9112

> <Gold.Chemscore.ZeroCoef>
-5.4800

> <Gold.Chemscore.Hbond>
1.9217

> <Gold.Chemscore.Metal>
0.0000

> <Gold.Chemscore.Lipo>
91.4767

> <Gold.Chemscore.Internal_Hbond>
0.0000

> <Gold.Chemscore.DEClash>
0.2294

> <Gold.Chemscore.DEInternal>
2.3549

> <Gold.Chemscore.Rot>
3.0039

> <Gold.Chemscore.Internal.Correction>
   9.000000E+99

> <Gold.Chemscore.Hbonds>
donor molecule, donor type, donor heavy atom, donor atom, acceptor molecule, acceptor atom, score
      P1  H  6931  6943       L1    24  0.13
      P1  H  6934  6947       L1    24  0.53
      P1  H  7997  8010       L1     1  0.92

> <Gold.Chemscore.Hbond.Weighted>
-6.4183

> <Gold.Chemscore.Metal.Weighted>
-0.0000

> <Gold.Chemscore.Lipo.Weighted>
-10.7028

> <Gold.Chemscore.Internal_Hbond.Weighted>
0.0000

> <Gold.Chemscore.DEClash.Weighted>
0.2294

> <Gold.Chemscore.DEInternal.Weighted>
2.3549

> <Gold.Chemscore.Rot.Weighted>
7.6899

> <Gold.Chemscore.Internal.Correction.Weighted>
   9.000000E+99

> <Gold.Protein.RotatedTorsions>
[ 6907 6896 6895 6894 ] final  140.84 input  -60.11 | X-H torsion
[ 7974 7965 7964 7962 ] final  -49.38 input  175.53 | X-H torsion
[ 8008 7997 7996 7995 ] final   68.57 input   59.86 | X-H torsion
[ 10167 10162 10161 10158 ] final -156.18 input  -65.29 | X-H torsion
[ 10718 10713 10712 10709 ] final  -91.14 input   66.30 | X-H torsion
[ 10763 10752 10751 10750 ] final  -70.76 input  -60.55 | X-H torsion
[ 11005 11000 10999 10996 ] final  -14.04 input  -57.11 | X-H torsion

> <Gold.Protein.ActiveResidues>
 VAL166  LYS551  ARG553  GLY616  TRP617  ASP618  TYR619  PRO620  LYS621  CYS622 
 ASP623  PHE694  ASN695  SER759  ASP760  ASP761  ALA762  ILE779  LEU786  VAL792 
 PHE793  MET794  SER795  GLU796  ALA797  LYS798  CYS799  TRP800  GLU811  SER814 

> <Gold.Protein.RotatedAtoms>
  152.2382  133.5114  159.5254 H   0  0  0  0  0  0  0  0  0  0  0  0  # atno 6907 bound_to 6896
  150.7057  134.1124  159.4014 H   0  0  0  0  0  0  0  0  0  0  0  0  # atno 6908 bound_to 6896
  151.9045  135.0364  160.0560 H   0  0  0  0  0  0  0  0  0  0  0  0  # atno 6909 bound_to 6896
  145.9412  140.7660  142.9551 H   0  0  0  0  0  0  0  0  0  0  0  0  # atno 7974 bound_to 7965
  155.7104  140.3494  155.4971 H   0  0  0  0  0  0  0  0  0  0  0  0  # atno 8008 bound_to 7997
  155.9361  140.1093  157.1115 H   0  0  0  0  0  0  0  0  0  0  0  0  # atno 8009 bound_to 7997
  154.4094  140.1222  156.4852 H   0  0  0  0  0  0  0  0  0  0  0  0  # atno 8010 bound_to 7997
  139.6871  143.9483  152.2366 H   0  0  0  0  0  0  0  0  0  0  0  0  # atno 10167 bound_to 10162
  155.9992  130.4936  150.5429 H   0  0  0  0  0  0  0  0  0  0  0  0  # atno 10718 bound_to 10713
  154.4221  135.5984  153.6016 H   0  0  0  0  0  0  0  0  0  0  0  0  # atno 10763 bound_to 10752
  152.9794  135.5955  154.3942 H   0  0  0  0  0  0  0  0  0  0  0  0  # atno 10764 bound_to 10752
  154.3769  135.2841  155.2213 H   0  0  0  0  0  0  0  0  0  0  0  0  # atno 10765 bound_to 10752
  140.7823  133.8353  155.9303 H   0  0  0  0  0  0  0  0  0  0  0  0  # atno 11005 bound_to 11000
  144.6779  140.2283  143.7358 LP  0  0  0  0  0  0  0  0  0  0  0  0  # atno 17320 bound_to 7965
  145.8297  139.2080  143.1890 LP  0  0  0  0  0  0  0  0  0  0  0  0  # atno 17321 bound_to 7965
  139.9289  144.6754  150.8384 LP  0  0  0  0  0  0  0  0  0  0  0  0  # atno 17342 bound_to 10162
  140.7671  143.3323  151.2384 LP  0  0  0  0  0  0  0  0  0  0  0  0  # atno 17343 bound_to 10162
  157.3363  131.0708  151.1822 LP  0  0  0  0  0  0  0  0  0  0  0  0  # atno 17370 bound_to 10713
  157.2686  130.6693  149.6008 LP  0  0  0  0  0  0  0  0  0  0  0  0  # atno 17371 bound_to 10713
  140.9470  134.1827  157.4756 LP  0  0  0  0  0  0  0  0  0  0  0  0  # atno 17394 bound_to 11000
  139.8741  134.9894  156.5457 LP  0  0  0  0  0  0  0  0  0  0  0  0  # atno 17395 bound_to 11000

$$$$
