AV-unprocessed.smi:2831|AV-procd|sdf|10911|dock1
  -GOLD-   2272015353D 1   1.00000     0.00000
 Structure written by MMmdl.
 29 30  0  0  0  0  0  0  0  0  2 V2000
  145.6790  134.6771  162.5845 C   0  0  0  0  0  0  0  0  0  0  0  0
  146.6524  135.3367  161.6689 C   0  0  0  0  0  0  0  0  0  0  0  0
  146.9333  136.6406  161.7299 N   0  0  0  0  0  0  0  0  0  0  0  0
  147.8697  137.0183  160.7782 N   0  0  0  0  0  0  0  0  0  0  0  0
  148.2913  135.9959  160.0203 C   0  0  0  0  0  0  0  0  0  0  0  0
  149.1968  136.1500  159.0401 N   0  5  0  0  0  0  0  0  0  0  0  0
  149.6670  137.3822  158.7412 C   0  0  0  0  0  0  0  0  0  0  0  0
  149.1302  138.4534  159.0308 O   0  0  0  0  0  0  0  0  0  0  0  0
  150.8308  137.3612  158.0695 N   0  0  0  0  0  0  0  0  0  0  0  0
  151.6435  138.4810  157.5727 C   0  0  2  0  0  0  0  0  0  0  0  0
  152.0017  139.3619  158.7842 C   0  0  0  0  0  0  0  0  0  0  0  0
  150.9302  139.3173  156.4953 C   0  0  0  0  0  0  0  0  0  0  0  0
  151.8042  139.1557  155.2528 C   0  0  0  0  0  0  0  0  0  0  0  0
  153.0947  138.9148  155.7860 O   0  0  0  0  0  0  0  0  0  0  0  0
  152.9263  138.0023  156.8595 C   0  0  0  0  0  0  0  0  0  0  0  0
  147.5248  134.4598  160.4233 S   0  0  0  0  0  0  0  0  0  0  0  0
  146.1537  134.4668  163.5430 H   0  0  0  0  0  0  0  0  0  0  0  0
  145.3302  133.7391  162.1525 H   0  0  0  0  0  0  0  0  0  0  0  0
  144.8180  135.3247  162.7517 H   0  0  0  0  0  0  0  0  0  0  0  0
  151.2005  136.4422  157.8745 H   0  0  0  0  0  0  0  0  0  0  0  0
  152.6328  140.2023  158.4925 H   0  0  0  0  0  0  0  0  0  0  0  0
  152.5433  138.7938  159.5415 H   0  0  0  0  0  0  0  0  0  0  0  0
  151.1062  139.7687  159.2555 H   0  0  0  0  0  0  0  0  0  0  0  0
  149.8983  139.0186  156.3072 H   0  0  0  0  0  0  0  0  0  0  0  0
  150.9032  140.3705  156.7779 H   0  0  0  0  0  0  0  0  0  0  0  0
  151.4884  138.2969  154.6590 H   0  0  0  0  0  0  0  0  0  0  0  0
  151.7915  140.0373  154.6119 H   0  0  0  0  0  0  0  0  0  0  0  0
  153.8013  137.9977  157.5103 H   0  0  0  0  0  0  0  0  0  0  0  0
  152.8281  136.9986  156.4446 H   0  0  0  0  0  0  0  0  0  0  0  0
  1  2  1  0  0  0  0
  1 17  1  0  0  0  0
  1 18  1  0  0  0  0
  1 19  1  0  0  0  0
  2 16  1  0  0  0  0
  2  3  2  0  0  0  0
  3  4  1  0  0  0  0
  4  5  2  0  0  0  0
  5  6  1  0  0  0  0
  5 16  1  0  0  0  0
  6  7  1  0  0  0  0
  7  8  2  0  0  0  0
  7  9  1  0  0  0  0
  9 10  1  0  0  0  0
  9 20  1  0  0  0  0
 10 15  1  0  0  0  0
 10 11  1  0  0  0  0
 10 12  1  0  0  0  0
 11 21  1  0  0  0  0
 11 22  1  0  0  0  0
 11 23  1  0  0  0  0
 12 13  1  0  0  0  0
 12 24  1  0  0  0  0
 12 25  1  0  0  0  0
 13 14  1  0  0  0  0
 13 26  1  0  0  0  0
 13 27  1  0  0  0  0
 14 15  1  0  0  0  0
 15 28  1  0  0  0  0
 15 29  1  0  0  0  0
M  CHG  1   6  -1
M  END
> <s_m_source_file>
AV-unprocessed.smi

> <i_m_source_file_index>
2831

> <i_lp_mmshare_version>
43012

> <i_f3d_flags>
0

> <s_epik_input>
W0NIM11jMW5uYyhzMSlbTkhdQyg9TylbTkhdW0NAQF0yKFtDSDNdKVtDSDJdW0NIMl1PW0NIMl0y

> <s_epik_cmdline>
J2VwaWtfcHl0aG9uJywgJy1waCcsICc3LjAnLCAnLXRuJywgJzgnLCAnLW1hJywgJzIwMCcsICctbWV0YWxfYmluZGluZycsICctaW1hZScsICc8aW5maWxlLm1hZT4nLCAnLW9tYWUnLCAnPG91dGZpbGUubWFlPic=

> <r_lp_tautomer_probability>
1

> <r_epik_Ionization_Penalty>
3.33648

> <r_epik_Ionization_Penalty_Charging>
3.18522

> <r_epik_Ionization_Penalty_Neutral>
0.151254

> <r_epik_State_Penalty>
3.18248

> <r_epik_Charging_Adjusted_Penalty>
6.3677

> <i_epik_Tot_Q>
-1

> <i_epik_Tot_abs_Q>
1

> <r_epik_Metal_State_Penalty>
0.469716

> <b_epik_Metal_Only>
1

> <s_lp_Force_Field>
OPLS_2005

> <r_lp_Energy>
14.5797

> <b_lp_Chiralities_Consistent>
1

> <s_lp_Variant>
AV-unprocessed.smi:2831-4

> <Gold.Version>
5.8.1

> <Gold.Id.Protein>
6NUR|6NUR_protein|mol2

> <Gold.PLP.Fitness>
36.7368

> <Gold.PLP.PLP>
-24.0189

> <Gold.PLP.part.hbond>
-6.0000

> <Gold.PLP.part.metal>
0.0000

> <Gold.PLP.part.buried>
-3.7067

> <Gold.PLP.part.nonpolar>
-16.7917

> <Gold.PLP.part.repulsive>
0.0978

> <Gold.PLP.ligand.clash>
0.0000

> <Gold.PLP.ligand.torsion>
0.0986

> <Gold.PLP.Chemscore.Hbond>
4.2995

> <Gold.PLP.Chemscore.CHOScore>
0.0000

> <Gold.PLP.Chemscore.Metal>
0.0000

> <Gold.Chemscore.Hbonds>
donor molecule, donor type, donor heavy atom, donor atom, acceptor molecule, acceptor atom, score
      P1  H  6896  6909       L1     6  1.30
      P1  H  6931  6943       L1     4  0.92
      P1  H  6934  6947       L1     4  0.33
      P1  H  7997  8008       L1    14  0.99

> <Gold.PLP.Chemscore.Internal.Correction>
0.0168

> <Gold.Rescore>
     Score         DG    S(hbond)    S(metal)    S(lipo)     H(rot)  DE(clash)    DE(int)     intcor
     14.37     -17.22       2.63        0.00      47.28       1.00       1.10       1.75       ----

> <Gold.Chemscore.Fitness>
14.3699

> <Gold.Chemscore.DG>
-17.2202

> <Gold.Chemscore.ZeroCoef>
-5.4800

> <Gold.Chemscore.Hbond>
2.6254

> <Gold.Chemscore.Metal>
0.0000

> <Gold.Chemscore.Lipo>
47.2779

> <Gold.Chemscore.Internal_Hbond>
0.0000

> <Gold.Chemscore.DEClash>
1.0970

> <Gold.Chemscore.DEInternal>
1.7533

> <Gold.Chemscore.Rot>
1.0000

> <Gold.Chemscore.Internal.Correction>
   9.000000E+99

> <Gold.Chemscore.Hbonds>
donor molecule, donor type, donor heavy atom, donor atom, acceptor molecule, acceptor atom, score
      P1  H  6896  6909       L1     6  0.19
      P1  H  6931  6943       L1     4  0.21
      P1  H  6934  6947       L1     4  0.01
      P1  H  7997  8008       L1    14  0.37

> <Gold.Chemscore.Hbond.Weighted>
-8.7687

> <Gold.Chemscore.Metal.Weighted>
-0.0000

> <Gold.Chemscore.Lipo.Weighted>
-5.5315

> <Gold.Chemscore.Internal_Hbond.Weighted>
0.0000

> <Gold.Chemscore.DEClash.Weighted>
1.0970

> <Gold.Chemscore.DEInternal.Weighted>
1.7533

> <Gold.Chemscore.Rot.Weighted>
2.5600

> <Gold.Chemscore.Internal.Correction.Weighted>
   9.000000E+99

> <Gold.Protein.RotatedTorsions>
[ 6907 6896 6895 6894 ] final   63.76 input  -60.11 | X-H torsion
[ 7974 7965 7964 7962 ] final  127.78 input  175.53 | X-H torsion
[ 8008 7997 7996 7995 ] final  -50.55 input   59.86 | X-H torsion
[ 10167 10162 10161 10158 ] final -164.73 input  -65.29 | X-H torsion
[ 10718 10713 10712 10709 ] final   16.99 input   66.30 | X-H torsion
[ 10763 10752 10751 10750 ] final   31.91 input  -60.55 | X-H torsion
[ 11005 11000 10999 10996 ] final   20.98 input  -57.11 | X-H torsion

> <Gold.Protein.ActiveResidues>
 VAL166  LYS551  ARG553  GLY616  TRP617  ASP618  TYR619  PRO620  LYS621  CYS622 
 ASP623  PHE694  ASN695  SER759  ASP760  ASP761  ALA762  ILE779  LEU786  VAL792 
 PHE793  MET794  SER795  GLU796  ALA797  LYS798  CYS799  TRP800  GLU811  SER814 

> <Gold.Protein.RotatedAtoms>
  152.4279  134.5834  159.9953 H   0  0  0  0  0  0  0  0  0  0  0  0  # atno 6907 bound_to 6896
  151.5965  133.3355  159.3046 H   0  0  0  0  0  0  0  0  0  0  0  0  # atno 6908 bound_to 6896
  150.8169  134.7393  159.6803 H   0  0  0  0  0  0  0  0  0  0  0  0  # atno 6909 bound_to 6896
  145.0468  139.3916  143.5074 H   0  0  0  0  0  0  0  0  0  0  0  0  # atno 7974 bound_to 7965
  154.4064  140.1269  156.4685 H   0  0  0  0  0  0  0  0  0  0  0  0  # atno 8008 bound_to 7997
  155.7203  140.3493  155.4993 H   0  0  0  0  0  0  0  0  0  0  0  0  # atno 8009 bound_to 7997
  155.9221  140.1054  157.1189 H   0  0  0  0  0  0  0  0  0  0  0  0  # atno 8010 bound_to 7997
  139.6230  144.0586  152.1950 H   0  0  0  0  0  0  0  0  0  0  0  0  # atno 10167 bound_to 10162
  157.0757  130.6367  149.5815 H   0  0  0  0  0  0  0  0  0  0  0  0  # atno 10718 bound_to 10713
  153.0290  135.6427  154.1272 H   0  0  0  0  0  0  0  0  0  0  0  0  # atno 10763 bound_to 10752
  154.0997  135.2860  155.3256 H   0  0  0  0  0  0  0  0  0  0  0  0  # atno 10764 bound_to 10752
  154.6407  135.5460  153.7849 H   0  0  0  0  0  0  0  0  0  0  0  0  # atno 10765 bound_to 10752
  140.3966  134.1762  155.7663 H   0  0  0  0  0  0  0  0  0  0  0  0  # atno 11005 bound_to 11000
  146.3514  140.0097  142.8668 LP  0  0  0  0  0  0  0  0  0  0  0  0  # atno 17320 bound_to 7965
  145.1578  140.9657  143.4395 LP  0  0  0  0  0  0  0  0  0  0  0  0  # atno 17321 bound_to 7965
  140.0233  144.6136  150.7548 LP  0  0  0  0  0  0  0  0  0  0  0  0  # atno 17342 bound_to 10162
  140.7394  143.2791  151.3653 LP  0  0  0  0  0  0  0  0  0  0  0  0  # atno 17343 bound_to 10162
  155.9938  130.5000  150.7393 LP  0  0  0  0  0  0  0  0  0  0  0  0  # atno 17370 bound_to 10713
  157.4841  131.0905  151.0502 LP  0  0  0  0  0  0  0  0  0  0  0  0  # atno 17371 bound_to 10713
  141.1872  133.8287  157.1042 LP  0  0  0  0  0  0  0  0  0  0  0  0  # atno 17394 bound_to 11000
  140.0367  134.9875  157.0884 LP  0  0  0  0  0  0  0  0  0  0  0  0  # atno 17395 bound_to 11000

$$$$
