AV-unprocessed.smi:2416|AV-procd|sdf|9544|dock7
  -GOLD-   2272013173D 1   1.00000     0.00000
 Structure written by MMmdl.
 40 41  0  0  0  0  0  0  0  0  1 V2000
  145.9086  142.1278  155.5637 C   0  0  0  0  0  0  0  0  0  0  0  0
  146.9558  141.2060  155.8410 O   0  0  0  0  0  0  0  0  0  0  0  0
  147.4924  140.4637  154.7375 C   0  0  1  0  0  0  0  0  0  0  0  0
  146.4113  139.5614  154.1280 C   0  0  0  0  0  0  0  0  0  0  0  0
  148.3059  141.3940  153.8176 C   0  0  0  0  0  0  0  0  0  0  0  0
  149.5400  141.1217  154.6807 C   0  0  1  0  0  0  0  0  0  0  0  0
  149.7087  142.1526  155.7053 N   0  0  0  0  0  0  0  0  0  0  0  0
  150.5023  142.0374  156.7786 C   0  0  0  0  0  0  0  0  0  0  0  0
  151.1973  141.0461  157.0039 O   0  0  0  0  0  0  0  0  0  0  0  0
  150.4256  143.1294  157.5595 N   0  0  0  0  0  0  0  0  0  0  0  0
  151.0736  143.3683  158.8006 C   0  0  0  0  0  0  0  0  0  0  0  0
  152.2680  142.6397  159.0020 C   0  0  0  0  0  0  0  0  0  0  0  0
  152.9908  142.8100  160.1990 C   0  0  0  0  0  0  0  0  0  0  0  0
  152.4981  143.7065  161.1636 C   0  0  0  0  0  0  0  0  0  0  0  0
  153.1593  143.9051  162.3286 F   0  0  0  0  0  0  0  0  0  0  0  0
  151.3009  144.3918  160.8868 C   0  0  0  0  0  0  0  0  0  0  0  0
  150.6074  144.2293  159.7400 N   0  0  0  0  0  0  0  0  0  0  0  0
  148.8481  139.8251  155.1835 C   0  0  0  0  0  0  0  0  0  0  0  0
  148.9846  139.4465  156.6680 C   0  0  0  0  0  0  0  0  0  0  0  0
  149.2832  138.5725  154.4082 C   0  0  0  0  0  0  0  0  0  0  0  0
  145.7152  142.7227  156.4561 H   0  0  0  0  0  0  0  0  0  0  0  0
  144.9795  141.6174  155.3113 H   0  0  0  0  0  0  0  0  0  0  0  0
  146.1611  142.8157  154.7575 H   0  0  0  0  0  0  0  0  0  0  0  0
  146.8142  138.9104  153.3529 H   0  0  0  0  0  0  0  0  0  0  0  0
  145.6184  140.1381  153.6529 H   0  0  0  0  0  0  0  0  0  0  0  0
  145.9549  138.9237  154.8855 H   0  0  0  0  0  0  0  0  0  0  0  0
  148.4119  140.9934  152.8084 H   0  0  0  0  0  0  0  0  0  0  0  0
  147.9911  142.4369  153.7842 H   0  0  0  0  0  0  0  0  0  0  0  0
  150.4358  140.9420  154.0836 H   0  0  0  0  0  0  0  0  0  0  0  0
  149.1626  142.9948  155.5979 H   0  0  0  0  0  0  0  0  0  0  0  0
  149.8174  143.8678  157.2380 H   0  0  0  0  0  0  0  0  0  0  0  0
  152.6323  141.9562  158.2486 H   0  0  0  0  0  0  0  0  0  0  0  0
  153.9062  142.2636  160.3717 H   0  0  0  0  0  0  0  0  0  0  0  0
  150.8892  145.0890  161.6017 H   0  0  0  0  0  0  0  0  0  0  0  0
  150.0091  139.1664  156.9149 H   0  0  0  0  0  0  0  0  0  0  0  0
  148.3430  138.6031  156.9238 H   0  0  0  0  0  0  0  0  0  0  0  0
  148.7125  140.2617  157.3379 H   0  0  0  0  0  0  0  0  0  0  0  0
  150.3135  138.2998  154.6394 H   0  0  0  0  0  0  0  0  0  0  0  0
  149.2320  138.7215  153.3294 H   0  0  0  0  0  0  0  0  0  0  0  0
  148.6570  137.7119  154.6460 H   0  0  0  0  0  0  0  0  0  0  0  0
  1  2  1  0  0  0  0
  1 21  1  0  0  0  0
  1 22  1  0  0  0  0
  1 23  1  0  0  0  0
  2  3  1  0  0  0  0
  3 18  1  0  0  0  0
  3  4  1  0  0  0  0
  3  5  1  0  0  0  0
  4 24  1  0  0  0  0
  4 25  1  0  0  0  0
  4 26  1  0  0  0  0
  5  6  1  0  0  0  0
  5 27  1  0  0  0  0
  5 28  1  0  0  0  0
  6  7  1  0  0  0  0
  6 18  1  0  0  0  0
  6 29  1  0  0  0  0
  7  8  1  0  0  0  0
  7 30  1  0  0  0  0
  8  9  2  0  0  0  0
  8 10  1  0  0  0  0
 10 11  1  0  0  0  0
 10 31  1  0  0  0  0
 11 17  1  0  0  0  0
 11 12  2  0  0  0  0
 12 13  1  0  0  0  0
 12 32  1  0  0  0  0
 13 14  2  0  0  0  0
 13 33  1  0  0  0  0
 14 15  1  0  0  0  0
 14 16  1  0  0  0  0
 16 17  2  0  0  0  0
 16 34  1  0  0  0  0
 18 19  1  0  0  0  0
 18 20  1  0  0  0  0
 19 35  1  0  0  0  0
 19 36  1  0  0  0  0
 19 37  1  0  0  0  0
 20 38  1  0  0  0  0
 20 39  1  0  0  0  0
 20 40  1  0  0  0  0
M  END
> <s_m_source_file>
AV-unprocessed.smi

> <i_m_source_file_index>
2416

> <i_lp_mmshare_version>
43012

> <i_f3d_flags>
0

> <s_epik_input>
W0NIM11PW0NAQF0xKFtDSDNdKVtDSDJdW0NASF0oQzEoW0NIM10pW0NIM10pW05IXUMoPU8pW05IXWMyW2NIXVtjSF1jKEYpW2NIXW4y

> <s_epik_cmdline>
J2VwaWtfcHl0aG9uJywgJy1waCcsICc3LjAnLCAnLXRuJywgJzgnLCAnLW1hJywgJzIwMCcsICctbWV0YWxfYmluZGluZycsICctaW1hZScsICc8aW5maWxlLm1hZT4nLCAnLW9tYWUnLCAnPG91dGZpbGUubWFlPic=

> <r_lp_tautomer_probability>
1

> <r_epik_Ionization_Penalty>
3.67756e-05

> <r_epik_Ionization_Penalty_Charging>
0

> <r_epik_Ionization_Penalty_Neutral>
3.67756e-05

> <r_epik_State_Penalty>
-0

> <r_epik_Charging_Adjusted_Penalty>
0

> <i_epik_Tot_Q>
0

> <i_epik_Tot_abs_Q>
0

> <r_epik_Metal_State_Penalty>
-0

> <b_epik_Metal_Only>
0

> <s_lp_Force_Field>
OPLS_2005

> <r_lp_Energy>
27.553

> <b_lp_Chiralities_Consistent>
1

> <s_lp_Variant>
AV-unprocessed.smi:2416-1

> <Gold.Version>
5.8.1

> <Gold.Id.Protein>
6NUR|6NUR_protein|mol2

> <Gold.PLP.Fitness>
40.4440

> <Gold.PLP.PLP>
-34.7591

> <Gold.PLP.part.hbond>
-2.0000

> <Gold.PLP.part.metal>
0.0000

> <Gold.PLP.part.buried>
-2.8938

> <Gold.PLP.part.nonpolar>
-29.9185

> <Gold.PLP.part.repulsive>
0.3915

> <Gold.PLP.ligand.clash>
0.0000

> <Gold.PLP.ligand.torsion>
0.3369

> <Gold.PLP.Chemscore.Hbond>
1.9920

> <Gold.PLP.Chemscore.CHOScore>
0.0000

> <Gold.PLP.Chemscore.Metal>
0.0000

> <Gold.Chemscore.Hbonds>
donor molecule, donor type, donor heavy atom, donor atom, acceptor molecule, acceptor atom, score
      L1  H     7    30       P1  8028  1.00
      L1  H    10    31       P1  8028  0.96

> <Gold.PLP.Chemscore.Internal.Correction>
0.3828

> <Gold.Rescore>
     Score         DG    S(hbond)    S(metal)    S(lipo)     H(rot)  DE(clash)    DE(int)     intcor
     13.68     -18.72       1.93        0.00      85.83       1.27       2.37       2.67       ----

> <Gold.Chemscore.Fitness>
13.6802

> <Gold.Chemscore.DG>
-18.7213

> <Gold.Chemscore.ZeroCoef>
-5.4800

> <Gold.Chemscore.Hbond>
1.9278

> <Gold.Chemscore.Metal>
0.0000

> <Gold.Chemscore.Lipo>
85.8276

> <Gold.Chemscore.Internal_Hbond>
0.0000

> <Gold.Chemscore.DEClash>
2.3732

> <Gold.Chemscore.DEInternal>
2.6679

> <Gold.Chemscore.Rot>
1.2653

> <Gold.Chemscore.Internal.Correction>
   9.000000E+99

> <Gold.Chemscore.Hbonds>
donor molecule, donor type, donor heavy atom, donor atom, acceptor molecule, acceptor atom, score
      L1  H     7    30       P1  8028  0.98
      L1  H    10    31       P1  8028  0.73

> <Gold.Chemscore.Hbond.Weighted>
-6.4387

> <Gold.Chemscore.Metal.Weighted>
-0.0000

> <Gold.Chemscore.Lipo.Weighted>
-10.0418

> <Gold.Chemscore.Internal_Hbond.Weighted>
0.0000

> <Gold.Chemscore.DEClash.Weighted>
2.3732

> <Gold.Chemscore.DEInternal.Weighted>
2.6679

> <Gold.Chemscore.Rot.Weighted>
3.2392

> <Gold.Chemscore.Internal.Correction.Weighted>
   9.000000E+99

> <Gold.Protein.RotatedTorsions>
[ 6907 6896 6895 6894 ] final  -20.99 input  -60.11 | X-H torsion
[ 7974 7965 7964 7962 ] final  126.23 input  175.53 | X-H torsion
[ 8008 7997 7996 7995 ] final  -20.11 input   59.86 | X-H torsion
[ 10167 10162 10161 10158 ] final  -32.33 input  -65.29 | X-H torsion
[ 10718 10713 10712 10709 ] final  -57.93 input   66.30 | X-H torsion
[ 10763 10752 10751 10750 ] final  126.12 input  -60.55 | X-H torsion
[ 11005 11000 10999 10996 ] final  -67.24 input  -57.11 | X-H torsion

> <Gold.Protein.ActiveResidues>
 VAL166  LYS551  ARG553  GLY616  TRP617  ASP618  TYR619  PRO620  LYS621  CYS622 
 ASP623  PHE694  ASN695  SER759  ASP760  ASP761  ALA762  ILE779  LEU786  VAL792 
 PHE793  MET794  SER795  GLU796  ALA797  LYS798  CYS799  TRP800  GLU811  SER814 

> <Gold.Protein.RotatedAtoms>
  151.2399  135.0585  159.9020 H   0  0  0  0  0  0  0  0  0  0  0  0  # atno 6907 bound_to 6896
  152.5394  134.0445  159.8092 H   0  0  0  0  0  0  0  0  0  0  0  0  # atno 6908 bound_to 6896
  151.0637  133.5474  159.2663 H   0  0  0  0  0  0  0  0  0  0  0  0  # atno 6909 bound_to 6896
  145.0641  139.3782  143.4991 H   0  0  0  0  0  0  0  0  0  0  0  0  # atno 7974 bound_to 7965
  154.4791  140.2070  155.9806 H   0  0  0  0  0  0  0  0  0  0  0  0  # atno 8008 bound_to 7997
  156.1137  140.3225  155.8078 H   0  0  0  0  0  0  0  0  0  0  0  0  # atno 8009 bound_to 7997
  155.4590  140.0522  157.2983 H   0  0  0  0  0  0  0  0  0  0  0  0  # atno 8010 bound_to 7997
  140.7223  143.3702  151.1792 H   0  0  0  0  0  0  0  0  0  0  0  0  # atno 10167 bound_to 10162
  156.1173  130.4169  150.0508 H   0  0  0  0  0  0  0  0  0  0  0  0  # atno 10718 bound_to 10713
  153.6882  135.3303  155.3195 H   0  0  0  0  0  0  0  0  0  0  0  0  # atno 10763 bound_to 10752
  154.8447  135.4425  154.1536 H   0  0  0  0  0  0  0  0  0  0  0  0  # atno 10764 bound_to 10752
  153.2570  135.6987  153.7696 H   0  0  0  0  0  0  0  0  0  0  0  0  # atno 10765 bound_to 10752
  141.1503  133.6715  156.6262 H   0  0  0  0  0  0  0  0  0  0  0  0  # atno 11005 bound_to 11000
  146.3526  140.0353  142.8647 LP  0  0  0  0  0  0  0  0  0  0  0  0  # atno 17320 bound_to 7965
  145.1373  140.9552  143.4509 LP  0  0  0  0  0  0  0  0  0  0  0  0  # atno 17321 bound_to 7965
  139.7272  143.9129  152.3007 LP  0  0  0  0  0  0  0  0  0  0  0  0  # atno 17342 bound_to 10162
  139.8906  144.6967  150.8774 LP  0  0  0  0  0  0  0  0  0  0  0  0  # atno 17343 bound_to 10162
  156.8456  130.9441  151.3629 LP  0  0  0  0  0  0  0  0  0  0  0  0  # atno 17370 bound_to 10713
  157.6356  130.8764  149.9353 LP  0  0  0  0  0  0  0  0  0  0  0  0  # atno 17371 bound_to 10713
  140.3502  134.7775  157.4461 LP  0  0  0  0  0  0  0  0  0  0  0  0  # atno 17394 bound_to 11000
  140.0867  134.5657  155.8485 LP  0  0  0  0  0  0  0  0  0  0  0  0  # atno 17395 bound_to 11000

$$$$
