AV-unprocessed.smi:1056|AV-procd|sdf|4642|dock1
  -GOLD-   22720 3143D 1   1.00000     0.00000
 Structure written by MMmdl.
 44 46  0  0  0  0  0  0  0  0  3 V2000
  153.3061  142.3666  161.6481 C   0  0  0  0  0  0  0  0  0  0  0  0
  152.7100  142.1543  160.2676 C   0  0  0  0  0  0  0  0  0  0  0  0
  153.0638  140.9979  159.5370 C   0  0  0  0  0  0  0  0  0  0  0  0
  152.5319  140.7627  158.2506 C   0  0  0  0  0  0  0  0  0  0  0  0
  152.7386  139.7140  157.3712 N   0  0  0  0  0  0  0  0  0  0  0  0
  151.9709  140.0692  156.3454 C   0  0  0  0  0  0  0  0  0  0  0  0
  151.2954  141.2300  156.4526 N   0  0  0  0  0  0  0  0  0  0  0  0
  150.4103  141.8222  155.4624 C   0  0  0  0  0  0  0  0  0  0  0  0
  149.4420  140.8097  154.8119 C   0  0  2  0  0  0  0  0  0  0  0  0
  150.1023  140.1731  153.7342 O   0  0  0  0  0  0  0  0  0  0  0  0
  148.1409  141.4604  154.2900 C   0  0  0  0  0  0  0  0  0  0  0  0
  147.4083  142.2226  155.3333 N   0  3  2  0  0  0  0  0  0  0  0  0
  147.3693  141.5083  156.6358 C   0  0  0  0  0  0  0  0  0  0  0  0
  146.8829  142.4521  157.7523 C   0  0  0  0  0  0  0  0  0  0  0  0
  145.6793  143.1732  157.3225 N   0  5  0  0  0  0  0  0  0  0  0  0
  145.2908  143.4093  156.0308 C   0  0  0  0  0  0  0  0  0  0  0  0
  144.3620  144.1369  155.6873 O   0  0  0  0  0  0  0  0  0  0  0  0
  146.0485  142.6591  154.9025 C   0  0  0  0  0  0  0  0  0  0  0  0
  151.6307  141.7252  157.7087 C   0  0  0  0  0  0  0  0  0  0  0  0
  151.2698  142.8793  158.4268 C   0  0  0  0  0  0  0  0  0  0  0  0
  151.8098  143.0982  159.7113 C   0  0  0  0  0  0  0  0  0  0  0  0
  151.4140  144.3475  160.4784 C   0  0  0  0  0  0  0  0  0  0  0  0
  153.9441  141.5316  161.9392 H   0  0  0  0  0  0  0  0  0  0  0  0
  152.5183  142.4604  162.3958 H   0  0  0  0  0  0  0  0  0  0  0  0
  153.9117  143.2729  161.6667 H   0  0  0  0  0  0  0  0  0  0  0  0
  153.7490  140.2782  159.9609 H   0  0  0  0  0  0  0  0  0  0  0  0
  151.8996  139.4542  155.4600 H   0  0  0  0  0  0  0  0  0  0  0  0
  149.8507  142.6290  155.9382 H   0  0  0  0  0  0  0  0  0  0  0  0
  151.0239  142.2921  154.6929 H   0  0  0  0  0  0  0  0  0  0  0  0
  149.2181  140.0495  155.5588 H   0  0  0  0  0  0  0  0  0  0  0  0
  149.6329  140.3569  152.9347 H   0  0  0  0  0  0  0  0  0  0  0  0
  148.3579  142.1270  153.4544 H   0  0  0  0  0  0  0  0  0  0  0  0
  147.4930  140.6772  153.8937 H   0  0  0  0  0  0  0  0  0  0  0  0
  146.7147  140.6387  156.5551 H   0  0  0  0  0  0  0  0  0  0  0  0
  148.3601  141.1355  156.8985 H   0  0  0  0  0  0  0  0  0  0  0  0
  146.7116  141.8773  158.6620 H   0  0  0  0  0  0  0  0  0  0  0  0
  147.6854  143.1510  157.9893 H   0  0  0  0  0  0  0  0  0  0  0  0
  146.1156  143.3182  154.0375 H   0  0  0  0  0  0  0  0  0  0  0  0
  145.4556  141.7929  154.6050 H   0  0  0  0  0  0  0  0  0  0  0  0
  150.5833  143.5907  157.9927 H   0  0  0  0  0  0  0  0  0  0  0  0
  150.7366  144.9740  159.8974 H   0  0  0  0  0  0  0  0  0  0  0  0
  152.2946  144.9425  160.7211 H   0  0  0  0  0  0  0  0  0  0  0  0
  150.9091  144.0808  161.4072 H   0  0  0  0  0  0  0  0  0  0  0  0
  147.9398  143.0626  155.5099 H   0  0  0  0  0  0  0  0  0  0  0  0
  1  2  1  0  0  0  0
  1 23  1  0  0  0  0
  1 24  1  0  0  0  0
  1 25  1  0  0  0  0
  2 21  1  0  0  0  0
  2  3  2  0  0  0  0
  3  4  1  0  0  0  0
  3 26  1  0  0  0  0
  4 19  2  0  0  0  0
  4  5  1  0  0  0  0
  5  6  2  0  0  0  0
  6  7  1  0  0  0  0
  6 27  1  0  0  0  0
  7  8  1  0  0  0  0
  7 19  1  0  0  0  0
  8  9  1  0  0  0  0
  8 28  1  0  0  0  0
  8 29  1  0  0  0  0
  9 10  1  0  0  0  0
  9 11  1  0  0  0  0
  9 30  1  0  0  0  0
 10 31  1  0  0  0  0
 11 12  1  0  0  0  0
 11 32  1  0  0  0  0
 11 33  1  0  0  0  0
 12 18  1  0  0  0  0
 12 13  1  0  0  0  0
 12 44  1  0  0  0  0
 13 14  1  0  0  0  0
 13 34  1  0  0  0  0
 13 35  1  0  0  0  0
 14 15  1  0  0  0  0
 14 36  1  0  0  0  0
 14 37  1  0  0  0  0
 15 16  1  0  0  0  0
 16 17  2  0  0  0  0
 16 18  1  0  0  0  0
 18 38  1  0  0  0  0
 18 39  1  0  0  0  0
 19 20  1  0  0  0  0
 20 21  2  0  0  0  0
 20 40  1  0  0  0  0
 21 22  1  0  0  0  0
 22 41  1  0  0  0  0
 22 42  1  0  0  0  0
 22 43  1  0  0  0  0
M  CHG  1  12   1
M  CHG  1  15  -1
M  END
> <s_m_source_file>
AV-unprocessed.smi

> <i_m_source_file_index>
1056

> <i_lp_mmshare_version>
43012

> <i_f3d_flags>
0

> <s_epik_input>
W0NIM11jKFtjSF0xKWMoW0NIM10pW2NIXWMoYzEyKW4oW2NIXW4yKVtDSDJdW0NASF0oW09IXSlbQ0gyXU4zW0NIMl1bQ0gyXVtOSF1DKD1PKVtDSDJdMw==

> <s_epik_cmdline>
J2VwaWtfcHl0aG9uJywgJy1waCcsICc3LjAnLCAnLXRuJywgJzgnLCAnLW1hJywgJzIwMCcsICctbWV0YWxfYmluZGluZycsICctaW1hZScsICc8aW5maWxlLm1hZT4nLCAnLW9tYWUnLCAnPG91dGZpbGUubWFlPic=

> <r_epik_Ionization_Penalty>
5.13411

> <r_epik_Ionization_Penalty_Charging>
5.04792

> <r_epik_Ionization_Penalty_Neutral>
0.0861879

> <r_epik_State_Penalty>
5.18224

> <r_epik_Charging_Adjusted_Penalty>
10.2302

> <i_epik_Tot_Q>
0

> <i_epik_Tot_abs_Q>
2

> <r_epik_Metal_State_Penalty>
1.33873

> <b_epik_Metal_Only>
1

> <s_lp_Force_Field>
OPLS_2005

> <r_lp_Energy>
16.2404

> <b_lp_Chiralities_Consistent>
1

> <s_lp_Variant>
AV-unprocessed.smi:1056-13

> <Gold.Version>
5.8.1

> <Gold.Id.Protein>
6NUR|6NUR_protein|mol2

> <Gold.PLP.Fitness>
58.7898

> <Gold.PLP.PLP>
-45.6039

> <Gold.PLP.part.hbond>
-4.0000

> <Gold.PLP.part.metal>
0.0000

> <Gold.PLP.part.buried>
-6.3060

> <Gold.PLP.part.nonpolar>
-34.3201

> <Gold.PLP.part.repulsive>
0.3593

> <Gold.PLP.ligand.clash>
0.0000

> <Gold.PLP.ligand.torsion>
0.5926

> <Gold.PLP.Chemscore.Hbond>
4.7760

> <Gold.PLP.Chemscore.CHOScore>
0.0000

> <Gold.PLP.Chemscore.Metal>
0.0000

> <Gold.Chemscore.Hbonds>
donor molecule, donor type, donor heavy atom, donor atom, acceptor molecule, acceptor atom, score
      L1  H    10    31       P1  7957  0.86
      L1  H    12    44       P1  8028  2.00
      P1  H  7989  7998       L1    10  0.77
      P1  H  7997  8008       L1     5  1.00

> <Gold.PLP.Chemscore.Internal.Correction>
0.0430

> <Gold.Rescore>
     Score         DG    S(hbond)    S(metal)    S(lipo)     H(rot)  DE(clash)    DE(int)     intcor
     18.44     -19.05       2.03        0.00     108.67       2.31       0.10       0.51       ----

> <Gold.Chemscore.Fitness>
18.4427

> <Gold.Chemscore.DG>
-19.0499

> <Gold.Chemscore.ZeroCoef>
-5.4800

> <Gold.Chemscore.Hbond>
2.0303

> <Gold.Chemscore.Metal>
0.0000

> <Gold.Chemscore.Lipo>
108.6689

> <Gold.Chemscore.Internal_Hbond>
0.0000

> <Gold.Chemscore.DEClash>
0.1009

> <Gold.Chemscore.DEInternal>
0.5063

> <Gold.Chemscore.Rot>
2.3147

> <Gold.Chemscore.Internal.Correction>
   9.000000E+99

> <Gold.Chemscore.Hbonds>
donor molecule, donor type, donor heavy atom, donor atom, acceptor molecule, acceptor atom, score
      L1  H    10    31       P1  7957  0.85
      L1  H    12    44       P1  8028  0.74
      P1  H  7989  7998       L1    10  0.24
      P1  H  7997  8008       L1     5  0.12

> <Gold.Chemscore.Hbond.Weighted>
-6.7812

> <Gold.Chemscore.Metal.Weighted>
-0.0000

> <Gold.Chemscore.Lipo.Weighted>
-12.7143

> <Gold.Chemscore.Internal_Hbond.Weighted>
0.0000

> <Gold.Chemscore.DEClash.Weighted>
0.1009

> <Gold.Chemscore.DEInternal.Weighted>
0.5063

> <Gold.Chemscore.Rot.Weighted>
5.9256

> <Gold.Chemscore.Internal.Correction.Weighted>
   9.000000E+99

> <Gold.Protein.RotatedTorsions>
[ 6907 6896 6895 6894 ] final  178.84 input  -60.11 | X-H torsion
[ 7974 7965 7964 7962 ] final -156.38 input  175.53 | X-H torsion
[ 8008 7997 7996 7995 ] final  -68.51 input   59.86 | X-H torsion
[ 10167 10162 10161 10158 ] final   -4.15 input  -65.29 | X-H torsion
[ 10718 10713 10712 10709 ] final -178.97 input   66.30 | X-H torsion
[ 10763 10752 10751 10750 ] final  123.05 input  -60.55 | X-H torsion
[ 11005 11000 10999 10996 ] final   19.99 input  -57.11 | X-H torsion

> <Gold.Protein.ActiveResidues>
 VAL166  LYS551  ARG553  GLY616  TRP617  ASP618  TYR619  PRO620  LYS621  CYS622 
 ASP623  PHE694  ASN695  SER759  ASP760  ASP761  ALA762  ILE779  LEU786  VAL792 
 PHE793  MET794  SER795  GLU796  ALA797  LYS798  CYS799  TRP800  GLU811  SER814 

> <Gold.Protein.RotatedAtoms>
  151.6813  133.3312  159.3219 H   0  0  0  0  0  0  0  0  0  0  0  0  # atno 6907 bound_to 6896
  150.7822  134.6778  159.6437 H   0  0  0  0  0  0  0  0  0  0  0  0  # atno 6908 bound_to 6896
  152.3882  134.6487  160.0170 H   0  0  0  0  0  0  0  0  0  0  0  0  # atno 6909 bound_to 6896
  144.7595  140.4117  143.5987 H   0  0  0  0  0  0  0  0  0  0  0  0  # atno 7974 bound_to 7965
  154.4873  140.0871  156.7515 H   0  0  0  0  0  0  0  0  0  0  0  0  # atno 8008 bound_to 7997
  155.4319  140.3450  155.4263 H   0  0  0  0  0  0  0  0  0  0  0  0  # atno 8009 bound_to 7997
  156.1279  140.1493  156.9096 H   0  0  0  0  0  0  0  0  0  0  0  0  # atno 8010 bound_to 7997
  140.6917  143.6456  150.8396 H   0  0  0  0  0  0  0  0  0  0  0  0  # atno 10167 bound_to 10162
  156.8521  130.9723  151.3091 H   0  0  0  0  0  0  0  0  0  0  0  0  # atno 10718 bound_to 10713
  153.6394  135.3382  155.3067 H   0  0  0  0  0  0  0  0  0  0  0  0  # atno 10763 bound_to 10752
  154.8563  135.4315  154.2020 H   0  0  0  0  0  0  0  0  0  0  0  0  # atno 10764 bound_to 10752
  153.2936  135.7019  153.7344 H   0  0  0  0  0  0  0  0  0  0  0  0  # atno 10765 bound_to 10752
  140.4076  134.1652  155.7666 H   0  0  0  0  0  0  0  0  0  0  0  0  # atno 11005 bound_to 11000
  145.6665  139.1591  143.2779 LP  0  0  0  0  0  0  0  0  0  0  0  0  # atno 17320 bound_to 7965
  146.1644  140.6740  142.9262 LP  0  0  0  0  0  0  0  0  0  0  0  0  # atno 17321 bound_to 7965
  140.0170  143.5582  152.2816 LP  0  0  0  0  0  0  0  0  0  0  0  0  # atno 17342 bound_to 10162
  139.6327  144.7646  151.2503 LP  0  0  0  0  0  0  0  0  0  0  0  0  # atno 17343 bound_to 10162
  157.6297  130.8720  149.9252 LP  0  0  0  0  0  0  0  0  0  0  0  0  # atno 17370 bound_to 10713
  156.0822  130.3672  150.0557 LP  0  0  0  0  0  0  0  0  0  0  0  0  # atno 17371 bound_to 10713
  141.1833  133.8367  157.1179 LP  0  0  0  0  0  0  0  0  0  0  0  0  # atno 17394 bound_to 11000
  140.0291  134.9910  157.0744 LP  0  0  0  0  0  0  0  0  0  0  0  0  # atno 17395 bound_to 11000

$$$$
