AV-unprocessed.smi:3058|AV-procd|sdf|11669|dock7
  -GOLD-   2272017 73D 1   1.00000     0.00000
 Structure written by MMmdl.
 38 40  0  0  0  0  0  0  0  0  1 V2000
  153.3506  140.9358  159.1063 O   0  0  0  0  0  0  0  0  0  0  0  0
  153.1678  141.7369  160.0234 C   0  0  0  0  0  0  0  0  0  0  0  0
  153.8796  141.7185  161.1610 N   0  0  0  0  0  0  0  0  0  0  0  0
  154.9430  140.7702  161.4696 C   0  0  0  0  0  0  0  0  0  0  0  0
  154.5202  139.3240  161.1628 C   0  0  0  0  0  0  0  0  0  0  0  0
  154.6484  138.4227  162.3750 C   0  0  0  0  0  0  0  0  0  0  0  0
  153.9075  137.2263  162.4653 C   0  0  0  0  0  0  0  0  0  0  0  0
  154.0611  136.4180  163.6080 C   0  0  0  0  0  0  0  0  0  0  0  0
  154.9506  136.8428  164.6151 C   0  0  0  0  0  0  0  0  0  0  0  0
  155.6654  137.9863  164.5393 N   0  0  0  0  0  0  0  0  0  0  0  0
  155.5130  138.7552  163.4395 C   0  0  0  0  0  0  0  0  0  0  0  0
  152.0885  142.8284  159.9174 C   0  0  2  0  0  0  0  0  0  0  0  0
  151.2137  142.7020  158.6457 C   0  0  0  0  0  0  0  0  0  0  0  0
  151.3432  144.0899  157.9882 C   0  0  1  0  0  0  0  0  0  0  0  0
  150.6230  145.1392  158.8568 C   0  0  0  0  0  0  0  0  0  0  0  0
  151.5630  145.2792  160.0701 C   0  0  0  0  0  0  0  0  0  0  0  0
  152.6712  144.2560  159.7564 C   0  0  2  0  0  0  0  0  0  0  0  0
  152.8062  144.4239  158.2430 C   0  0  0  0  0  0  0  0  0  0  0  0
  153.6689  142.4125  161.8635 H   0  0  0  0  0  0  0  0  0  0  0  0
  155.8468  141.0325  160.9168 H   0  0  0  0  0  0  0  0  0  0  0  0
  155.1868  140.8690  162.5278 H   0  0  0  0  0  0  0  0  0  0  0  0
  153.4893  139.3032  160.8067 H   0  0  0  0  0  0  0  0  0  0  0  0
  155.1307  138.9116  160.3583 H   0  0  0  0  0  0  0  0  0  0  0  0
  153.2349  136.9317  161.6729 H   0  0  0  0  0  0  0  0  0  0  0  0
  153.5102  135.4948  163.7106 H   0  0  0  0  0  0  0  0  0  0  0  0
  155.0918  136.2479  165.5055 H   0  0  0  0  0  0  0  0  0  0  0  0
  156.1001  139.6612  163.4087 H   0  0  0  0  0  0  0  0  0  0  0  0
  151.4608  142.7827  160.8093 H   0  0  0  0  0  0  0  0  0  0  0  0
  151.5795  141.9281  157.9686 H   0  0  0  0  0  0  0  0  0  0  0  0
  150.1775  142.4596  158.8846 H   0  0  0  0  0  0  0  0  0  0  0  0
  151.0420  144.1077  156.9404 H   0  0  0  0  0  0  0  0  0  0  0  0
  150.5344  146.0895  158.3289 H   0  0  0  0  0  0  0  0  0  0  0  0
  149.6200  144.8195  159.1419 H   0  0  0  0  0  0  0  0  0  0  0  0
  151.9731  146.2886  160.1211 H   0  0  0  0  0  0  0  0  0  0  0  0
  151.0592  145.0772  161.0161 H   0  0  0  0  0  0  0  0  0  0  0  0
  153.5913  144.4294  160.3161 H   0  0  0  0  0  0  0  0  0  0  0  0
  153.4973  143.7246  157.7718 H   0  0  0  0  0  0  0  0  0  0  0  0
  153.0756  145.4383  157.9434 H   0  0  0  0  0  0  0  0  0  0  0  0
  1  2  2  0  0  0  0
  2  3  1  0  0  0  0
  2 12  1  0  0  0  0
  3  4  1  0  0  0  0
  3 19  1  0  0  0  0
  4  5  1  0  0  0  0
  4 20  1  0  0  0  0
  4 21  1  0  0  0  0
  5  6  1  0  0  0  0
  5 22  1  0  0  0  0
  5 23  1  0  0  0  0
  6 11  1  0  0  0  0
  6  7  2  0  0  0  0
  7  8  1  0  0  0  0
  7 24  1  0  0  0  0
  8  9  2  0  0  0  0
  8 25  1  0  0  0  0
  9 10  1  0  0  0  0
  9 26  1  0  0  0  0
 10 11  2  0  0  0  0
 11 27  1  0  0  0  0
 12 17  1  0  0  0  0
 12 13  1  0  0  0  0
 12 28  1  0  0  0  0
 13 14  1  0  0  0  0
 13 29  1  0  0  0  0
 13 30  1  0  0  0  0
 14 18  1  0  0  0  0
 14 15  1  0  0  0  0
 14 31  1  0  0  0  0
 15 16  1  0  0  0  0
 15 32  1  0  0  0  0
 15 33  1  0  0  0  0
 16 17  1  0  0  0  0
 16 34  1  0  0  0  0
 16 35  1  0  0  0  0
 17 18  1  0  0  0  0
 17 36  1  0  0  0  0
 18 37  1  0  0  0  0
 18 38  1  0  0  0  0
M  END
> <s_m_source_file>
AV-unprocessed.smi

> <i_m_source_file_index>
3058

> <i_lp_mmshare_version>
43012

> <i_f3d_flags>
0

> <s_epik_input>
W0NIMl0xW0NIMl1bQ0BIXShbQ0gyXTIpW0NAQEhdKFtDSDJdW0NAQEhdMTIpQyg9TylbTkhdW0NIMl1bQ0gyXWMzW2NIXVtjSF1bY0hdbltjSF0z

> <s_epik_cmdline>
J2VwaWtfcHl0aG9uJywgJy1waCcsICc3LjAnLCAnLXRuJywgJzgnLCAnLW1hJywgJzIwMCcsICctbWV0YWxfYmluZGluZycsICctaW1hZScsICc8aW5maWxlLm1hZT4nLCAnLW9tYWUnLCAnPG91dGZpbGUubWFlPic=

> <r_epik_Ionization_Penalty>
0.0135821

> <r_epik_Ionization_Penalty_Charging>
0

> <r_epik_Ionization_Penalty_Neutral>
0.0135821

> <r_epik_State_Penalty>
0.0105782

> <r_epik_Charging_Adjusted_Penalty>
0.0105782

> <i_epik_Tot_Q>
0

> <i_epik_Tot_abs_Q>
0

> <r_epik_Metal_State_Penalty>
0.0103407

> <b_epik_Metal_Only>
0

> <s_lp_Force_Field>
OPLS_2005

> <r_lp_Energy>
46.4183

> <b_lp_Chiralities_Consistent>
1

> <s_lp_Variant>
AV-unprocessed.smi:3058-1

> <Gold.Version>
5.8.1

> <Gold.Id.Protein>
6NUR|6NUR_protein|mol2

> <Gold.PLP.Fitness>
42.5751

> <Gold.PLP.PLP>
-44.3327

> <Gold.PLP.part.hbond>
-0.1409

> <Gold.PLP.part.metal>
0.0000

> <Gold.PLP.part.buried>
-2.7924

> <Gold.PLP.part.nonpolar>
-41.6259

> <Gold.PLP.part.repulsive>
0.0642

> <Gold.PLP.ligand.clash>
0.0000

> <Gold.PLP.ligand.torsion>
0.8933

> <Gold.PLP.Chemscore.Hbond>
0.0000

> <Gold.PLP.Chemscore.CHOScore>
0.0000

> <Gold.PLP.Chemscore.Metal>
0.0000

> <Gold.PLP.Chemscore.Internal.Correction>
0.0289

> <Gold.Rescore>
     Score         DG    S(hbond)    S(metal)    S(lipo)     H(rot)  DE(clash)    DE(int)     intcor
     15.93     -18.55       0.00        0.00     141.54       1.37       0.32       2.30       ----

> <Gold.Chemscore.Fitness>
15.9289

> <Gold.Chemscore.DG>
-18.5474

> <Gold.Chemscore.ZeroCoef>
-5.4800

> <Gold.Chemscore.Hbond>
0.0006

> <Gold.Chemscore.Metal>
0.0000

> <Gold.Chemscore.Lipo>
141.5426

> <Gold.Chemscore.Internal_Hbond>
0.0000

> <Gold.Chemscore.DEClash>
0.3150

> <Gold.Chemscore.DEInternal>
2.3035

> <Gold.Chemscore.Rot>
1.3653

> <Gold.Chemscore.Internal.Correction>
   9.000000E+99

> <Gold.Chemscore.Hbond.Weighted>
-0.0020

> <Gold.Chemscore.Metal.Weighted>
-0.0000

> <Gold.Chemscore.Lipo.Weighted>
-16.5605

> <Gold.Chemscore.Internal_Hbond.Weighted>
0.0000

> <Gold.Chemscore.DEClash.Weighted>
0.3150

> <Gold.Chemscore.DEInternal.Weighted>
2.3035

> <Gold.Chemscore.Rot.Weighted>
3.4951

> <Gold.Chemscore.Internal.Correction.Weighted>
   9.000000E+99

> <Gold.Protein.RotatedTorsions>
[ 6907 6896 6895 6894 ] final  152.33 input  -60.11 | X-H torsion
[ 7974 7965 7964 7962 ] final  178.38 input  175.53 | X-H torsion
[ 8008 7997 7996 7995 ] final -119.39 input   59.86 | X-H torsion
[ 10167 10162 10161 10158 ] final  179.12 input  -65.29 | X-H torsion
[ 10718 10713 10712 10709 ] final  115.16 input   66.30 | X-H torsion
[ 10763 10752 10751 10750 ] final -114.15 input  -60.55 | X-H torsion
[ 11005 11000 10999 10996 ] final -146.91 input  -57.11 | X-H torsion

> <Gold.Protein.ActiveResidues>
 VAL166  LYS551  ARG553  GLY616  TRP617  ASP618  TYR619  PRO620  LYS621  CYS622 
 ASP623  PHE694  ASN695  SER759  ASP760  ASP761  ALA762  ILE779  LEU786  VAL792 
 PHE793  MET794  SER795  GLU796  ALA797  LYS798  CYS799  TRP800  GLU811  SER814 

> <Gold.Protein.RotatedAtoms>
  152.0883  133.4187  159.4531 H   0  0  0  0  0  0  0  0  0  0  0  0  # atno 6907 bound_to 6896
  150.6862  134.2902  159.4672 H   0  0  0  0  0  0  0  0  0  0  0  0  # atno 6908 bound_to 6896
  152.0751  134.9508  160.0625 H   0  0  0  0  0  0  0  0  0  0  0  0  # atno 6909 bound_to 6896
  144.7157  140.0388  143.6438 H   0  0  0  0  0  0  0  0  0  0  0  0  # atno 7974 bound_to 7965
  155.1150  140.0398  157.2734 H   0  0  0  0  0  0  0  0  0  0  0  0  # atno 8008 bound_to 7997
  154.6656  140.2601  155.7036 H   0  0  0  0  0  0  0  0  0  0  0  0  # atno 8009 bound_to 7997
  156.2637  140.2808  156.1146 H   0  0  0  0  0  0  0  0  0  0  0  0  # atno 8010 bound_to 7997
  139.5323  144.2598  152.0716 H   0  0  0  0  0  0  0  0  0  0  0  0  # atno 10167 bound_to 10162
  157.6239  131.1008  150.7289 H   0  0  0  0  0  0  0  0  0  0  0  0  # atno 10718 bound_to 10713
  154.8428  135.4428  154.1461 H   0  0  0  0  0  0  0  0  0  0  0  0  # atno 10763 bound_to 10752
  153.2634  135.6938  153.7561 H   0  0  0  0  0  0  0  0  0  0  0  0  # atno 10764 bound_to 10752
  153.6829  135.3400  155.3158 H   0  0  0  0  0  0  0  0  0  0  0  0  # atno 10765 bound_to 10752
  140.7771  134.3122  157.5057 H   0  0  0  0  0  0  0  0  0  0  0  0  # atno 11005 bound_to 11000
  146.0041  139.3115  143.0910 LP  0  0  0  0  0  0  0  0  0  0  0  0  # atno 17320 bound_to 7965
  145.8759  140.9392  143.0626 LP  0  0  0  0  0  0  0  0  0  0  0  0  # atno 17321 bound_to 7965
  140.2063  144.4607  150.6407 LP  0  0  0  0  0  0  0  0  0  0  0  0  # atno 17342 bound_to 10162
  140.6509  143.2224  151.6080 LP  0  0  0  0  0  0  0  0  0  0  0  0  # atno 17343 bound_to 10162
  156.7642  130.4808  149.5431 LP  0  0  0  0  0  0  0  0  0  0  0  0  # atno 17370 bound_to 10713
  156.1399  130.6237  151.0452 LP  0  0  0  0  0  0  0  0  0  0  0  0  # atno 17371 bound_to 10713
  139.8747  134.9296  156.3480 LP  0  0  0  0  0  0  0  0  0  0  0  0  # atno 17394 bound_to 11000
  140.9518  133.7446  156.0282 LP  0  0  0  0  0  0  0  0  0  0  0  0  # atno 17395 bound_to 11000

$$$$
