AV-unprocessed.smi:178|AV-procd|sdf|1448|dock1
  -GOLD-   2262019243D 1   1.00000     0.00000
 Structure written by MMmdl.
 50 52  0  0  0  0  0  0  0  0  1 V2000
  147.0217  139.7186  153.7122 C   0  0  0  0  0  0  0  0  0  0  0  0
  147.2323  138.3378  153.9606 O   0  0  0  0  0  0  0  0  0  0  0  0
  148.1137  138.0609  155.0429 C   0  0  0  0  0  0  0  0  0  0  0  0
  147.3916  137.9070  156.4009 C   0  0  0  0  0  0  0  0  0  0  0  0
  148.2373  137.3758  157.4713 N   0  0  0  0  0  0  0  0  0  0  0  0
  147.5131  136.8777  158.6386 C   0  0  0  0  0  0  0  0  0  0  0  0
  148.3566  135.9510  159.5287 C   0  0  0  0  0  0  0  0  0  0  0  0
  148.3398  136.3647  160.9393 C   0  0  0  0  0  0  0  0  0  0  0  0
  148.3264  136.6908  162.0493 N   0  0  0  0  0  0  0  0  0  0  0  0
  149.2679  138.1876  157.7979 C   0  0  0  0  0  0  0  0  0  0  0  0
  150.2758  137.6470  158.5260 N   0  0  0  0  0  0  0  0  0  0  0  0
  151.3363  138.3921  158.8516 C   0  0  0  0  0  0  0  0  0  0  0  0
  151.5824  139.6701  158.5544 N   0  0  0  0  0  0  0  0  0  0  0  0
  150.5658  140.2162  157.8268 C   0  0  0  0  0  0  0  0  0  0  0  0
  149.3762  139.5542  157.4148 C   0  0  0  0  0  0  0  0  0  0  0  0
  148.5697  140.4287  156.6967 N   0  0  0  0  0  0  0  0  0  0  0  0
  149.2486  141.5430  156.6784 C   0  0  0  0  0  0  0  0  0  0  0  0
  150.4642  141.5013  157.3238 N   0  0  0  0  0  0  0  0  0  0  0  0
  151.4244  142.5874  157.4460 C   0  0  0  0  0  0  0  0  0  0  0  0
  151.2962  143.3717  158.7785 C   0  0  2  0  0  0  0  0  0  0  0  0
  149.9363  143.3249  159.1784 O   0  0  0  0  0  0  0  0  0  0  0  0
  151.7002  144.8388  158.6707 C   0  0  0  0  0  0  0  0  0  0  0  0
  152.1340  145.1751  160.0892 C   0  0  0  0  0  0  0  0  0  0  0  0
  152.8279  144.0051  160.4858 O   0  0  0  0  0  0  0  0  0  0  0  0
  152.1531  142.8590  159.9703 C   0  0  2  0  0  0  0  0  0  0  0  0
  153.2252  141.8064  159.6471 C   0  0  0  0  0  0  0  0  0  0  0  0
  146.3125  139.8326  152.8924 H   0  0  0  0  0  0  0  0  0  0  0  0
  147.9408  140.2276  153.4238 H   0  0  0  0  0  0  0  0  0  0  0  0
  146.6043  140.2179  154.5872 H   0  0  0  0  0  0  0  0  0  0  0  0
  148.6857  137.1591  154.8198 H   0  0  0  0  0  0  0  0  0  0  0  0
  148.8422  138.8697  155.1088 H   0  0  0  0  0  0  0  0  0  0  0  0
  146.9198  138.8383  156.7121 H   0  0  0  0  0  0  0  0  0  0  0  0
  146.5747  137.1985  156.2604 H   0  0  0  0  0  0  0  0  0  0  0  0
  147.1361  137.7162  159.2255 H   0  0  0  0  0  0  0  0  0  0  0  0
  146.6369  136.3290  158.2917 H   0  0  0  0  0  0  0  0  0  0  0  0
  147.9823  134.9284  159.4780 H   0  0  0  0  0  0  0  0  0  0  0  0
  149.3983  135.9343  159.2075 H   0  0  0  0  0  0  0  0  0  0  0  0
  152.0994  137.8912  159.4287 H   0  0  0  0  0  0  0  0  0  0  0  0
  148.8838  142.4307  156.1822 H   0  0  0  0  0  0  0  0  0  0  0  0
  152.4269  142.1696  157.3439 H   0  0  0  0  0  0  0  0  0  0  0  0
  151.2788  143.2516  156.5940 H   0  0  0  0  0  0  0  0  0  0  0  0
  149.8818  143.5942  160.0827 H   0  0  0  0  0  0  0  0  0  0  0  0
  152.5600  144.9435  158.0080 H   0  0  0  0  0  0  0  0  0  0  0  0
  150.9094  145.4898  158.2951 H   0  0  0  0  0  0  0  0  0  0  0  0
  152.7715  146.0580  160.1389 H   0  0  0  0  0  0  0  0  0  0  0  0
  151.2720  145.3317  160.7396 H   0  0  0  0  0  0  0  0  0  0  0  0
  151.5116  142.4638  160.7601 H   0  0  0  0  0  0  0  0  0  0  0  0
  152.7807  140.8909  159.2566 H   0  0  0  0  0  0  0  0  0  0  0  0
  153.7840  141.5396  160.5444 H   0  0  0  0  0  0  0  0  0  0  0  0
  153.9429  142.1784  158.9154 H   0  0  0  0  0  0  0  0  0  0  0  0
  1  2  1  0  0  0  0
  1 27  1  0  0  0  0
  1 28  1  0  0  0  0
  1 29  1  0  0  0  0
  2  3  1  0  0  0  0
  3  4  1  0  0  0  0
  3 30  1  0  0  0  0
  3 31  1  0  0  0  0
  4  5  1  0  0  0  0
  4 32  1  0  0  0  0
  4 33  1  0  0  0  0
  5  6  1  0  0  0  0
  5 10  1  0  0  0  0
  6  7  1  0  0  0  0
  6 34  1  0  0  0  0
  6 35  1  0  0  0  0
  7  8  1  0  0  0  0
  7 36  1  0  0  0  0
  7 37  1  0  0  0  0
  8  9  3  0  0  0  0
 10 15  1  0  0  0  0
 10 11  2  0  0  0  0
 11 12  1  0  0  0  0
 12 13  2  0  0  0  0
 12 38  1  0  0  0  0
 13 14  1  0  0  0  0
 14 18  1  0  0  0  0
 14 15  2  0  0  0  0
 15 16  1  0  0  0  0
 16 17  2  0  0  0  0
 17 18  1  0  0  0  0
 17 39  1  0  0  0  0
 18 19  1  0  0  0  0
 19 20  1  0  0  0  0
 19 40  1  0  0  0  0
 19 41  1  0  0  0  0
 20 25  1  0  0  0  0
 20 21  1  0  0  0  0
 20 22  1  0  0  0  0
 21 42  1  0  0  0  0
 22 23  1  0  0  0  0
 22 43  1  0  0  0  0
 22 44  1  0  0  0  0
 23 24  1  0  0  0  0
 23 45  1  0  0  0  0
 23 46  1  0  0  0  0
 24 25  1  0  0  0  0
 25 26  1  0  0  0  0
 25 47  1  0  0  0  0
 26 48  1  0  0  0  0
 26 49  1  0  0  0  0
 26 50  1  0  0  0  0
M  END
> <s_m_source_file>
AV-unprocessed.smi

> <i_m_source_file_index>
178

> <i_lp_mmshare_version>
43012

> <i_f3d_flags>
0

> <s_epik_input>
W0NIM11PW0NIMl1bQ0gyXU4oW0NIMl1bQ0gyXUMjTiljKG5bY0hdbjEpYyhjMTIpbltjSF1uMltDSDJdW0NAQF0zKFtPSF0pW0NIMl1bQ0gyXU9bQ0BIXTNbQ0gzXQ==

> <s_epik_cmdline>
J2VwaWtfcHl0aG9uJywgJy1waCcsICc3LjAnLCAnLXRuJywgJzgnLCAnLW1hJywgJzIwMCcsICctbWV0YWxfYmluZGluZycsICctaW1hZScsICc8aW5maWxlLm1hZT4nLCAnLW9tYWUnLCAnPG91dGZpbGUubWFlPic=

> <r_lp_tautomer_probability>
1

> <r_epik_Ionization_Penalty>
0.000885317

> <r_epik_Ionization_Penalty_Charging>
0

> <r_epik_Ionization_Penalty_Neutral>
0.000885317

> <r_epik_State_Penalty>
0.00047273

> <r_epik_Charging_Adjusted_Penalty>
0.00047273

> <i_epik_Tot_Q>
0

> <i_epik_Tot_abs_Q>
0

> <r_epik_Metal_State_Penalty>
-0

> <b_epik_Metal_Only>
0

> <s_lp_Force_Field>
OPLS_2005

> <r_lp_Energy>
31.3349

> <b_lp_Chiralities_Consistent>
1

> <s_lp_Variant>
AV-unprocessed.smi:178-4

> <Gold.Version>
5.8.1

> <Gold.Id.Protein>
6NUR|6NUR_protein|mol2

> <Gold.PLP.Fitness>
41.1159

> <Gold.PLP.PLP>
-37.9887

> <Gold.PLP.part.hbond>
-1.5991

> <Gold.PLP.part.metal>
0.0000

> <Gold.PLP.part.buried>
-7.3924

> <Gold.PLP.part.nonpolar>
-29.8399

> <Gold.PLP.part.repulsive>
0.2779

> <Gold.PLP.ligand.clash>
0.0000

> <Gold.PLP.ligand.torsion>
1.8381

> <Gold.PLP.Chemscore.Hbond>
1.0000

> <Gold.PLP.Chemscore.CHOScore>
1.0000

> <Gold.PLP.Chemscore.Metal>
0.0000

> <Gold.Chemscore.Hbonds>
donor molecule, donor type, donor heavy atom, donor atom, acceptor molecule, acceptor atom, score
      P1  H  6931  6943       L1     9  1.00
      L1  C    17    39       P1  8028  1.00

> <Gold.PLP.Chemscore.Internal.Correction>
0.8033

> <Gold.Rescore>
     Score         DG    S(hbond)    S(metal)    S(lipo)     H(rot)  DE(clash)    DE(int)     intcor
      3.76      -8.63       0.98        0.00      79.70       3.69       0.04       4.83       ----

> <Gold.Chemscore.Fitness>
3.7609

> <Gold.Chemscore.DG>
-8.6334

> <Gold.Chemscore.ZeroCoef>
-5.4800

> <Gold.Chemscore.Hbond>
0.9825

> <Gold.Chemscore.Metal>
0.0000

> <Gold.Chemscore.Lipo>
79.6955

> <Gold.Chemscore.Internal_Hbond>
0.0000

> <Gold.Chemscore.DEClash>
0.0421

> <Gold.Chemscore.DEInternal>
4.8305

> <Gold.Chemscore.Rot>
3.6923

> <Gold.Chemscore.Internal.Correction>
   9.000000E+99

> <Gold.Chemscore.Hbonds>
donor molecule, donor type, donor heavy atom, donor atom, acceptor molecule, acceptor atom, score
      P1  H  6931  6943       L1     9  0.30

> <Gold.Chemscore.Hbond.Weighted>
-3.2815

> <Gold.Chemscore.Metal.Weighted>
-0.0000

> <Gold.Chemscore.Lipo.Weighted>
-9.3244

> <Gold.Chemscore.Internal_Hbond.Weighted>
0.0000

> <Gold.Chemscore.DEClash.Weighted>
0.0421

> <Gold.Chemscore.DEInternal.Weighted>
4.8305

> <Gold.Chemscore.Rot.Weighted>
9.4524

> <Gold.Chemscore.Internal.Correction.Weighted>
   9.000000E+99

> <Gold.Protein.RotatedTorsions>
[ 6907 6896 6895 6894 ] final  160.91 input  -60.11 | X-H torsion
[ 7974 7965 7964 7962 ] final -119.40 input  175.53 | X-H torsion
[ 8008 7997 7996 7995 ] final  -40.91 input   59.86 | X-H torsion
[ 10167 10162 10161 10158 ] final   72.88 input  -65.29 | X-H torsion
[ 10718 10713 10712 10709 ] final -117.75 input   66.30 | X-H torsion
[ 10763 10752 10751 10750 ] final  174.41 input  -60.55 | X-H torsion
[ 11005 11000 10999 10996 ] final  -46.37 input  -57.11 | X-H torsion

> <Gold.Protein.ActiveResidues>
 VAL166  LYS551  ARG553  GLY616  TRP617  ASP618  TYR619  PRO620  LYS621  CYS622 
 ASP623  PHE694  ASN695  SER759  ASP760  ASP761  ALA762  ILE779  LEU786  VAL792 
 PHE793  MET794  SER795  GLU796  ALA797  LYS798  CYS799  TRP800  GLU811  SER814 

> <Gold.Protein.RotatedAtoms>
  151.9636  133.3703  159.4044 H   0  0  0  0  0  0  0  0  0  0  0  0  # atno 6907 bound_to 6896
  150.6960  134.4214  159.5216 H   0  0  0  0  0  0  0  0  0  0  0  0  # atno 6908 bound_to 6896
  152.1907  134.8674  160.0568 H   0  0  0  0  0  0  0  0  0  0  0  0  # atno 6909 bound_to 6896
  145.0630  140.8304  143.4141 H   0  0  0  0  0  0  0  0  0  0  0  0  # atno 7974 bound_to 7965
  154.4008  140.1513  156.3104 H   0  0  0  0  0  0  0  0  0  0  0  0  # atno 8008 bound_to 7997
  155.8620  140.3453  155.5741 H   0  0  0  0  0  0  0  0  0  0  0  0  # atno 8009 bound_to 7997
  155.7869  140.0851  157.2020 H   0  0  0  0  0  0  0  0  0  0  0  0  # atno 8010 bound_to 7997
  140.0305  144.5469  150.7511 H   0  0  0  0  0  0  0  0  0  0  0  0  # atno 10167 bound_to 10162
  156.1056  130.6207  150.9203 H   0  0  0  0  0  0  0  0  0  0  0  0  # atno 10718 bound_to 10713
  154.4536  135.2765  155.1764 H   0  0  0  0  0  0  0  0  0  0  0  0  # atno 10763 bound_to 10752
  154.3581  135.6135  153.5680 H   0  0  0  0  0  0  0  0  0  0  0  0  # atno 10764 bound_to 10752
  152.9849  135.5827  154.4885 H   0  0  0  0  0  0  0  0  0  0  0  0  # atno 10765 bound_to 10752
  141.0574  133.6721  156.3145 H   0  0  0  0  0  0  0  0  0  0  0  0  # atno 11005 bound_to 11000
  145.1386  139.2587  143.5502 LP  0  0  0  0  0  0  0  0  0  0  0  0  # atno 17320 bound_to 7965
  146.3525  140.1056  142.8606 LP  0  0  0  0  0  0  0  0  0  0  0  0  # atno 17321 bound_to 7965
  140.7304  143.2683  151.3972 LP  0  0  0  0  0  0  0  0  0  0  0  0  # atno 17342 bound_to 10162
  139.6079  144.1159  152.2268 LP  0  0  0  0  0  0  0  0  0  0  0  0  # atno 17343 bound_to 10162
  157.6232  131.0928  150.8583 LP  0  0  0  0  0  0  0  0  0  0  0  0  # atno 17370 bound_to 10713
  156.8703  130.5143  149.5297 LP  0  0  0  0  0  0  0  0  0  0  0  0  # atno 17371 bound_to 10713
  140.5936  134.5626  157.5504 LP  0  0  0  0  0  0  0  0  0  0  0  0  # atno 17394 bound_to 11000
  139.9402  134.7800  156.0697 LP  0  0  0  0  0  0  0  0  0  0  0  0  # atno 17395 bound_to 11000

$$$$
