AV-unprocessed.smi:1005|AV-procd|sdf|4375|dock7
  -GOLD-   22720 2293D 1   1.00000     0.00000
 Structure written by MMmdl.
 57 59  0  0  0  0  0  0  0  0  3 V2000
  152.2628  144.8447  160.0072 C   0  0  0  0  0  0  0  0  0  0  0  0
  151.8634  143.6060  159.2235 C   0  0  0  0  0  0  0  0  0  0  0  0
  150.9417  143.7477  158.1612 C   0  0  0  0  0  0  0  0  0  0  0  0
  150.5958  142.5968  157.4632 C   0  0  0  0  0  0  0  0  0  0  0  0
  149.7281  142.4037  156.3859 N   0  3  0  0  0  0  0  0  0  0  0  0
  149.7141  141.0853  156.0438 C   0  0  0  0  0  0  0  0  0  0  0  0
  150.5601  140.4346  156.8877 N   0  0  0  0  0  0  0  0  0  0  0  0
  150.9157  139.0111  156.9593 C   0  0  0  0  0  0  0  0  0  0  0  0
  149.8309  138.1559  157.6427 C   0  0  1  0  0  0  0  0  0  0  0  0
  148.9992  138.9972  158.4164 O   0  0  0  0  0  0  0  0  0  0  0  0
  148.9550  137.4136  156.6128 C   0  0  0  0  0  0  0  0  0  0  0  0
  149.6255  136.3330  155.8875 N   0  0  0  0  0  0  0  0  0  0  0  0
  150.3679  135.4738  156.8033 C   0  0  0  0  0  0  0  0  0  0  0  0
  151.0727  134.3226  156.0671 C   0  0  0  0  0  0  0  0  0  0  0  0
  150.1135  133.5791  155.3219 O   0  0  0  0  0  0  0  0  0  0  0  0
  149.4105  134.3682  154.3649 C   0  0  1  0  0  0  0  0  0  0  0  0
  148.4391  133.4380  153.6066 C   0  0  0  0  0  0  0  0  0  0  0  0
  147.4531  134.1614  152.7613 N   0  3  0  0  0  0  0  0  0  0  0  0
  146.2935  134.6943  153.5121 C   0  0  0  0  0  0  0  0  0  0  0  0
  147.0207  133.3473  151.6036 C   0  0  0  0  0  0  0  0  0  0  0  0
  148.6911  135.5036  155.1273 C   0  0  0  0  0  0  0  0  0  0  0  0
  151.1350  141.3374  157.7880 C   0  0  0  0  0  0  0  0  0  0  0  0
  152.0468  141.1797  158.8288 C   0  0  0  0  0  0  0  0  0  0  0  0
  152.4068  142.3375  159.5546 C   0  0  0  0  0  0  0  0  0  0  0  0
  153.3917  142.1948  160.7026 C   0  0  0  0  0  0  0  0  0  0  0  0
  151.7766  145.7388  159.6160 H   0  0  0  0  0  0  0  0  0  0  0  0
  153.3405  145.0021  159.9522 H   0  0  0  0  0  0  0  0  0  0  0  0
  151.9798  144.7427  161.0553 H   0  0  0  0  0  0  0  0  0  0  0  0
  150.5234  144.7099  157.9040 H   0  0  0  0  0  0  0  0  0  0  0  0
  149.1346  140.6372  155.2492 H   0  0  0  0  0  0  0  0  0  0  0  0
  151.0899  138.6627  155.9402 H   0  0  0  0  0  0  0  0  0  0  0  0
  151.8680  138.9255  157.4844 H   0  0  0  0  0  0  0  0  0  0  0  0
  150.3166  137.4551  158.3185 H   0  0  0  0  0  0  0  0  0  0  0  0
  148.2804  139.2872  157.8752 H   0  0  0  0  0  0  0  0  0  0  0  0
  148.0779  137.0219  157.1311 H   0  0  0  0  0  0  0  0  0  0  0  0
  148.5656  138.1303  155.8879 H   0  0  0  0  0  0  0  0  0  0  0  0
  151.1109  136.0620  157.3436 H   0  0  0  0  0  0  0  0  0  0  0  0
  149.6918  135.0605  157.5536 H   0  0  0  0  0  0  0  0  0  0  0  0
  151.8472  134.7051  155.4006 H   0  0  0  0  0  0  0  0  0  0  0  0
  151.5623  133.6596  156.7803 H   0  0  0  0  0  0  0  0  0  0  0  0
  150.1422  134.7816  153.6682 H   0  0  0  0  0  0  0  0  0  0  0  0
  149.0303  132.8111  152.9371 H   0  0  0  0  0  0  0  0  0  0  0  0
  147.9338  132.7519  154.2882 H   0  0  0  0  0  0  0  0  0  0  0  0
  145.7832  133.9027  154.0627 H   0  0  0  0  0  0  0  0  0  0  0  0
  145.5732  135.1549  152.8348 H   0  0  0  0  0  0  0  0  0  0  0  0
  146.6032  135.4667  154.2150 H   0  0  0  0  0  0  0  0  0  0  0  0
  146.4860  132.4549  151.9320 H   0  0  0  0  0  0  0  0  0  0  0  0
  147.8771  133.0329  151.0061 H   0  0  0  0  0  0  0  0  0  0  0  0
  146.3609  133.9211  150.9521 H   0  0  0  0  0  0  0  0  0  0  0  0
  147.9528  135.0705  155.8043 H   0  0  0  0  0  0  0  0  0  0  0  0
  148.1322  136.1125  154.4218 H   0  0  0  0  0  0  0  0  0  0  0  0
  152.4624  140.2144  159.0764 H   0  0  0  0  0  0  0  0  0  0  0  0
  153.6998  141.1578  160.8390 H   0  0  0  0  0  0  0  0  0  0  0  0
  152.9426  142.5338  161.6365 H   0  0  0  0  0  0  0  0  0  0  0  0
  154.2877  142.7863  160.5133 H   0  0  0  0  0  0  0  0  0  0  0  0
  147.9365  134.9595  152.3736 H   0  0  0  0  0  0  0  0  0  0  0  0
  149.1841  143.1165  155.9166 H   0  0  0  0  0  0  0  0  0  0  0  0
  1  2  1  0  0  0  0
  1 26  1  0  0  0  0
  1 27  1  0  0  0  0
  1 28  1  0  0  0  0
  2 24  1  0  0  0  0
  2  3  2  0  0  0  0
  3  4  1  0  0  0  0
  3 29  1  0  0  0  0
  4 22  2  0  0  0  0
  4  5  1  0  0  0  0
  5  6  2  0  0  0  0
  5 57  1  0  0  0  0
  6  7  1  0  0  0  0
  6 30  1  0  0  0  0
  7  8  1  0  0  0  0
  7 22  1  0  0  0  0
  8  9  1  0  0  0  0
  8 31  1  0  0  0  0
  8 32  1  0  0  0  0
  9 10  1  0  0  0  0
  9 11  1  0  0  0  0
  9 33  1  0  0  0  0
 10 34  1  0  0  0  0
 11 12  1  0  0  0  0
 11 35  1  0  0  0  0
 11 36  1  0  0  0  0
 12 21  1  0  0  0  0
 12 13  1  0  0  0  0
 13 14  1  0  0  0  0
 13 37  1  0  0  0  0
 13 38  1  0  0  0  0
 14 15  1  0  0  0  0
 14 39  1  0  0  0  0
 14 40  1  0  0  0  0
 15 16  1  0  0  0  0
 16 17  1  0  0  0  0
 16 21  1  0  0  0  0
 16 41  1  0  0  0  0
 17 18  1  0  0  0  0
 17 42  1  0  0  0  0
 17 43  1  0  0  0  0
 18 19  1  0  0  0  0
 18 20  1  0  0  0  0
 18 56  1  0  0  0  0
 19 44  1  0  0  0  0
 19 45  1  0  0  0  0
 19 46  1  0  0  0  0
 20 47  1  0  0  0  0
 20 48  1  0  0  0  0
 20 49  1  0  0  0  0
 21 50  1  0  0  0  0
 21 51  1  0  0  0  0
 22 23  1  0  0  0  0
 23 24  2  0  0  0  0
 23 52  1  0  0  0  0
 24 25  1  0  0  0  0
 25 53  1  0  0  0  0
 25 54  1  0  0  0  0
 25 55  1  0  0  0  0
M  CHG  1   5   1
M  CHG  1  18   1
M  END
> <s_m_source_file>
AV-unprocessed.smi

> <i_m_source_file_index>
1005

> <i_lp_mmshare_version>
43012

> <i_f3d_flags>
0

> <s_epik_input>
W0NIM11jKFtjSF0xKWMoW0NIM10pW2NIXWMoYzEyKW4oW2NIXW4yKVtDSDJdW0NASF0oW09IXSlbQ0gyXU4zW0NIMl1bQ0gyXU9bQ0BIXShbQ0gyXTMpW0NIMl1OKFtDSDNdKVtDSDNd

> <s_epik_cmdline>
J2VwaWtfcHl0aG9uJywgJy1waCcsICc3LjAnLCAnLXRuJywgJzgnLCAnLW1hJywgJzIwMCcsICctbWV0YWxfYmluZGluZycsICctaW1hZScsICc8aW5maWxlLm1hZT4nLCAnLW9tYWUnLCAnPG91dGZpbGUubWFlPic=

> <r_epik_Ionization_Penalty>
1.3281

> <r_epik_Ionization_Penalty_Charging>
1.21988

> <r_epik_Ionization_Penalty_Neutral>
0.10822

> <r_epik_State_Penalty>
1.32886

> <r_epik_Charging_Adjusted_Penalty>
2.54875

> <i_epik_Tot_Q>
2

> <i_epik_Tot_abs_Q>
2

> <r_epik_Metal_State_Penalty>
5.33912

> <b_epik_Metal_Only>
0

> <s_lp_Force_Field>
OPLS_2005

> <r_lp_Energy>
45.907

> <b_lp_Chiralities_Consistent>
1

> <s_lp_Variant>
AV-unprocessed.smi:1005-14

> <Gold.Version>
5.8.1

> <Gold.Id.Protein>
6NUR|6NUR_protein|mol2

> <Gold.PLP.Fitness>
52.1255

> <Gold.PLP.PLP>
-42.5040

> <Gold.PLP.part.hbond>
-2.4228

> <Gold.PLP.part.metal>
0.0000

> <Gold.PLP.part.buried>
-5.6324

> <Gold.PLP.part.nonpolar>
-35.1222

> <Gold.PLP.part.repulsive>
0.1898

> <Gold.PLP.ligand.clash>
0.0000

> <Gold.PLP.ligand.torsion>
1.2584

> <Gold.PLP.Chemscore.Hbond>
3.9840

> <Gold.PLP.Chemscore.CHOScore>
0.0000

> <Gold.PLP.Chemscore.Metal>
0.0000

> <Gold.Chemscore.Hbonds>
donor molecule, donor type, donor heavy atom, donor atom, acceptor molecule, acceptor atom, score
      L1  H     5    57       P1  8028  1.95
      L1  H    18    56       P1  7948  2.00

> <Gold.PLP.Chemscore.Internal.Correction>
0.1862

> <Gold.Rescore>
     Score         DG    S(hbond)    S(metal)    S(lipo)     H(rot)  DE(clash)    DE(int)     intcor
     16.98     -18.53       1.95        0.00     110.36       2.49       0.08       1.46       ----

> <Gold.Chemscore.Fitness>
16.9840

> <Gold.Chemscore.DG>
-18.5277

> <Gold.Chemscore.ZeroCoef>
-5.4800

> <Gold.Chemscore.Hbond>
1.9489

> <Gold.Chemscore.Metal>
0.0000

> <Gold.Chemscore.Lipo>
110.3601

> <Gold.Chemscore.Internal_Hbond>
0.0000

> <Gold.Chemscore.DEClash>
0.0811

> <Gold.Chemscore.DEInternal>
1.4626

> <Gold.Chemscore.Rot>
2.4897

> <Gold.Chemscore.Internal.Correction>
   9.000000E+99

> <Gold.Chemscore.Hbonds>
donor molecule, donor type, donor heavy atom, donor atom, acceptor molecule, acceptor atom, score
      L1  H     5    57       P1  8028  0.93
      L1  H    18    56       P1  7948  0.82

> <Gold.Chemscore.Hbond.Weighted>
-6.5093

> <Gold.Chemscore.Metal.Weighted>
-0.0000

> <Gold.Chemscore.Lipo.Weighted>
-12.9121

> <Gold.Chemscore.Internal_Hbond.Weighted>
0.0000

> <Gold.Chemscore.DEClash.Weighted>
0.0811

> <Gold.Chemscore.DEInternal.Weighted>
1.4626

> <Gold.Chemscore.Rot.Weighted>
6.3737

> <Gold.Chemscore.Internal.Correction.Weighted>
   9.000000E+99

> <Gold.Protein.RotatedTorsions>
[ 6907 6896 6895 6894 ] final  -32.98 input  -60.11 | X-H torsion
[ 7974 7965 7964 7962 ] final  168.99 input  175.53 | X-H torsion
[ 8008 7997 7996 7995 ] final  -87.77 input   59.86 | X-H torsion
[ 10167 10162 10161 10158 ] final   89.58 input  -65.29 | X-H torsion
[ 10718 10713 10712 10709 ] final -162.51 input   66.30 | X-H torsion
[ 10763 10752 10751 10750 ] final -169.56 input  -60.55 | X-H torsion
[ 11005 11000 10999 10996 ] final   71.25 input  -57.11 | X-H torsion

> <Gold.Protein.ActiveResidues>
 VAL166  LYS551  ARG553  GLY616  TRP617  ASP618  TYR619  PRO620  LYS621  CYS622 
 ASP623  PHE694  ASN695  SER759  ASP760  ASP761  ALA762  ILE779  LEU786  VAL792 
 PHE793  MET794  SER795  GLU796  ALA797  LYS798  CYS799  TRP800  GLU811  SER814 

> <Gold.Protein.RotatedAtoms>
  151.0716  134.9802  159.8311 H   0  0  0  0  0  0  0  0  0  0  0  0  # atno 6907 bound_to 6896
  152.5409  134.2292  159.8828 H   0  0  0  0  0  0  0  0  0  0  0  0  # atno 6908 bound_to 6896
  151.2317  133.4403  159.2637 H   0  0  0  0  0  0  0  0  0  0  0  0  # atno 6909 bound_to 6896
  144.7370  139.8988  143.6408 H   0  0  0  0  0  0  0  0  0  0  0  0  # atno 7974 bound_to 7965
  154.6670  140.0562  157.0124 H   0  0  0  0  0  0  0  0  0  0  0  0  # atno 8008 bound_to 7997
  155.1144  140.3241  155.4494 H   0  0  0  0  0  0  0  0  0  0  0  0  # atno 8009 bound_to 7997
  156.2642  140.2008  156.6268 H   0  0  0  0  0  0  0  0  0  0  0  0  # atno 8010 bound_to 7997
  139.8559  144.6569  150.9115 H   0  0  0  0  0  0  0  0  0  0  0  0  # atno 10167 bound_to 10162
  156.6115  130.8852  151.2937 H   0  0  0  0  0  0  0  0  0  0  0  0  # atno 10718 bound_to 10713
  154.6510  135.2911  154.9987 H   0  0  0  0  0  0  0  0  0  0  0  0  # atno 10763 bound_to 10752
  154.1080  135.6567  153.4884 H   0  0  0  0  0  0  0  0  0  0  0  0  # atno 10764 bound_to 10752
  153.0376  135.5258  154.7417 H   0  0  0  0  0  0  0  0  0  0  0  0  # atno 10765 bound_to 10752
  139.9554  134.7154  156.0766 H   0  0  0  0  0  0  0  0  0  0  0  0  # atno 11005 bound_to 11000
  146.1087  139.4089  143.0301 LP  0  0  0  0  0  0  0  0  0  0  0  0  # atno 17320 bound_to 7965
  145.7474  140.9985  143.1268 LP  0  0  0  0  0  0  0  0  0  0  0  0  # atno 17321 bound_to 7965
  140.7781  143.3786  151.1517 LP  0  0  0  0  0  0  0  0  0  0  0  0  # atno 17342 bound_to 10162
  139.7420  143.8909  152.3053 LP  0  0  0  0  0  0  0  0  0  0  0  0  # atno 17343 bound_to 10162
  157.7253  130.9614  150.1608 LP  0  0  0  0  0  0  0  0  0  0  0  0  # atno 17370 bound_to 10713
  156.2386  130.3689  149.8363 LP  0  0  0  0  0  0  0  0  0  0  0  0  # atno 17371 bound_to 10713
  141.1224  133.6609  156.3249 LP  0  0  0  0  0  0  0  0  0  0  0  0  # atno 17394 bound_to 11000
  140.5622  134.5923  157.5436 LP  0  0  0  0  0  0  0  0  0  0  0  0  # atno 17395 bound_to 11000

$$$$
