AV-unprocessed.smi:1947|AV-procd|sdf|7870|dock10
  -GOLD-   2272010 23D 1   1.00000     0.00000
 Structure written by MMmdl.
 38 39  0  0  0  0  0  0  0  0  2 V2000
  149.5447  141.4985  154.8319 C   0  0  0  0  0  0  0  0  0  0  0  0
  150.6229  141.2811  155.9043 C   0  0  1  0  0  0  0  0  0  0  0  0
  150.2686  142.0071  157.2179 C   0  0  0  0  0  0  0  0  0  0  0  0
  151.3774  141.8440  158.2693 C   0  0  0  0  0  0  0  0  0  0  0  0
  151.6896  140.3621  158.5256 C   0  0  0  0  0  0  0  0  0  0  0  0
  152.0419  139.6301  157.2189 C   0  0  0  0  0  0  0  0  0  0  0  0
  150.9361  139.7852  156.1583 C   0  0  1  0  0  0  0  0  0  0  0  0
  149.7837  139.1136  156.6504 O   0  0  0  0  0  0  0  0  0  0  0  0
  149.9653  137.7371  156.9456 C   0  0  0  0  0  0  0  0  0  0  0  0
  148.5998  137.0337  156.9186 C   0  0  0  0  0  0  0  0  0  0  0  0
  147.9417  137.1161  158.2193 N   0  0  0  0  0  0  0  0  0  0  0  0
  148.5357  136.9564  159.4110 C   0  0  0  0  0  0  0  0  0  0  0  0
  149.7199  136.6170  159.4697 O   0  0  0  0  0  0  0  0  0  0  0  0
  147.7275  137.2196  160.4627 N   0  5  0  0  0  0  0  0  0  0  0  0
  147.2485  136.2066  161.2035 C   0  0  0  0  0  0  0  0  0  0  0  0
  146.6725  135.1264  160.6512 N   0  0  0  0  0  0  0  0  0  0  0  0
  146.2394  134.1990  161.5890 N   0  0  0  0  0  0  0  0  0  0  0  0
  146.5106  134.6014  162.8303 C   0  0  0  0  0  0  0  0  0  0  0  0
  147.3219  136.1473  162.9663 S   0  0  0  0  0  0  0  0  0  0  0  0
  148.5750  141.1231  155.1588 H   0  0  0  0  0  0  0  0  0  0  0  0
  149.8057  140.9932  153.9018 H   0  0  0  0  0  0  0  0  0  0  0  0
  149.4245  142.5586  154.6084 H   0  0  0  0  0  0  0  0  0  0  0  0
  151.5366  141.7369  155.5199 H   0  0  0  0  0  0  0  0  0  0  0  0
  150.1018  143.0675  157.0261 H   0  0  0  0  0  0  0  0  0  0  0  0
  149.3300  141.6198  157.6151 H   0  0  0  0  0  0  0  0  0  0  0  0
  152.2795  142.3551  157.9308 H   0  0  0  0  0  0  0  0  0  0  0  0
  151.0787  142.3270  159.2000 H   0  0  0  0  0  0  0  0  0  0  0  0
  152.5125  140.2731  159.2351 H   0  0  0  0  0  0  0  0  0  0  0  0
  150.8275  139.8844  158.9931 H   0  0  0  0  0  0  0  0  0  0  0  0
  152.9786  140.0264  156.8254 H   0  0  0  0  0  0  0  0  0  0  0  0
  152.2173  138.5731  157.4211 H   0  0  0  0  0  0  0  0  0  0  0  0
  151.2872  139.3210  155.2347 H   0  0  0  0  0  0  0  0  0  0  0  0
  150.6409  137.2631  156.2326 H   0  0  0  0  0  0  0  0  0  0  0  0
  150.4193  137.6433  157.9328 H   0  0  0  0  0  0  0  0  0  0  0  0
  147.9538  137.5243  156.1904 H   0  0  0  0  0  0  0  0  0  0  0  0
  148.7027  135.9977  156.5925 H   0  0  0  0  0  0  0  0  0  0  0  0
  146.9687  137.3842  158.2212 H   0  0  0  0  0  0  0  0  0  0  0  0
  146.2336  133.9831  163.6709 H   0  0  0  0  0  0  0  0  0  0  0  0
  1  2  1  0  0  0  0
  1 20  1  0  0  0  0
  1 21  1  0  0  0  0
  1 22  1  0  0  0  0
  2  7  1  0  0  0  0
  2  3  1  0  0  0  0
  2 23  1  0  0  0  0
  3  4  1  0  0  0  0
  3 24  1  0  0  0  0
  3 25  1  0  0  0  0
  4  5  1  0  0  0  0
  4 26  1  0  0  0  0
  4 27  1  0  0  0  0
  5  6  1  0  0  0  0
  5 28  1  0  0  0  0
  5 29  1  0  0  0  0
  6  7  1  0  0  0  0
  6 30  1  0  0  0  0
  6 31  1  0  0  0  0
  7  8  1  0  0  0  0
  7 32  1  0  0  0  0
  8  9  1  0  0  0  0
  9 10  1  0  0  0  0
  9 33  1  0  0  0  0
  9 34  1  0  0  0  0
 10 11  1  0  0  0  0
 10 35  1  0  0  0  0
 10 36  1  0  0  0  0
 11 12  1  0  0  0  0
 11 37  1  0  0  0  0
 12 13  2  0  0  0  0
 12 14  1  0  0  0  0
 14 15  1  0  0  0  0
 15 19  1  0  0  0  0
 15 16  2  0  0  0  0
 16 17  1  0  0  0  0
 17 18  2  0  0  0  0
 18 19  1  0  0  0  0
 18 38  1  0  0  0  0
M  CHG  1  14  -1
M  END
> <s_m_source_file>
AV-unprocessed.smi

> <i_m_source_file_index>
1947

> <i_lp_mmshare_version>
43012

> <i_f3d_flags>
0

> <s_epik_input>
W0NIM11bQ0BASF0xW0NIMl1bQ0gyXVtDSDJdW0NIMl1bQ0BIXTFPW0NIMl1bQ0gyXVtOSF1DKD1PKVtOSF1jMm5uW2NIXXMy

> <s_epik_cmdline>
J2VwaWtfcHl0aG9uJywgJy1waCcsICc3LjAnLCAnLXRuJywgJzgnLCAnLW1hJywgJzIwMCcsICctbWV0YWxfYmluZGluZycsICctaW1hZScsICc8aW5maWxlLm1hZT4nLCAnLW9tYWUnLCAnPG91dGZpbGUubWFlPic=

> <r_lp_tautomer_probability>
1

> <r_epik_Ionization_Penalty>
3.35961

> <r_epik_Ionization_Penalty_Charging>
3.31977

> <r_epik_Ionization_Penalty_Neutral>
0.0398394

> <r_epik_State_Penalty>
3.31759

> <r_epik_Charging_Adjusted_Penalty>
6.63736

> <i_epik_Tot_Q>
-1

> <i_epik_Tot_abs_Q>
1

> <r_epik_Metal_State_Penalty>
0.484557

> <b_epik_Metal_Only>
1

> <s_lp_Force_Field>
OPLS_2005

> <r_lp_Energy>
8.55413

> <b_lp_Chiralities_Consistent>
1

> <s_lp_Variant>
AV-unprocessed.smi:1947-6

> <Gold.Version>
5.8.1

> <Gold.Id.Protein>
6NUR|6NUR_protein|mol2

> <Gold.PLP.Fitness>
41.5753

> <Gold.PLP.PLP>
-32.3787

> <Gold.PLP.part.hbond>
-3.0000

> <Gold.PLP.part.metal>
0.0000

> <Gold.PLP.part.buried>
-3.2485

> <Gold.PLP.part.nonpolar>
-27.0774

> <Gold.PLP.part.repulsive>
0.0877

> <Gold.PLP.ligand.clash>
0.0000

> <Gold.PLP.ligand.torsion>
1.5238

> <Gold.PLP.Chemscore.Hbond>
4.0586

> <Gold.PLP.Chemscore.CHOScore>
0.0000

> <Gold.PLP.Chemscore.Metal>
0.0000

> <Gold.Chemscore.Hbonds>
donor molecule, donor type, donor heavy atom, donor atom, acceptor molecule, acceptor atom, score
      P1  H  6896  6907       L1    13  0.84
      P1  H  6931  6943       L1    14  0.86
      P1  H  6934  6947       L1    14  1.79

> <Gold.PLP.Chemscore.Internal.Correction>
0.0685

> <Gold.Rescore>
     Score         DG    S(hbond)    S(metal)    S(lipo)     H(rot)  DE(clash)    DE(int)     intcor
     13.43     -15.86       2.19        0.00      67.67       1.90       0.02       2.42       ----

> <Gold.Chemscore.Fitness>
13.4261

> <Gold.Chemscore.DG>
-15.8610

> <Gold.Chemscore.ZeroCoef>
-5.4800

> <Gold.Chemscore.Hbond>
2.1926

> <Gold.Chemscore.Metal>
0.0000

> <Gold.Chemscore.Lipo>
67.6709

> <Gold.Chemscore.Internal_Hbond>
0.0000

> <Gold.Chemscore.DEClash>
0.0170

> <Gold.Chemscore.DEInternal>
2.4179

> <Gold.Chemscore.Rot>
1.8984

> <Gold.Chemscore.Internal.Correction>
   9.000000E+99

> <Gold.Chemscore.Hbonds>
donor molecule, donor type, donor heavy atom, donor atom, acceptor molecule, acceptor atom, score
      P1  H  6896  6907       L1    13  0.84
      P1  H  6931  6943       L1    14  0.07
      P1  H  6934  6947       L1    14  0.84

> <Gold.Chemscore.Hbond.Weighted>
-7.3233

> <Gold.Chemscore.Metal.Weighted>
-0.0000

> <Gold.Chemscore.Lipo.Weighted>
-7.9175

> <Gold.Chemscore.Internal_Hbond.Weighted>
0.0000

> <Gold.Chemscore.DEClash.Weighted>
0.0170

> <Gold.Chemscore.DEInternal.Weighted>
2.4179

> <Gold.Chemscore.Rot.Weighted>
4.8598

> <Gold.Chemscore.Internal.Correction.Weighted>
   9.000000E+99

> <Gold.Protein.RotatedTorsions>
[ 6907 6896 6895 6894 ] final  -50.84 input  -60.11 | X-H torsion
[ 7974 7965 7964 7962 ] final   99.34 input  175.53 | X-H torsion
[ 8008 7997 7996 7995 ] final  144.65 input   59.86 | X-H torsion
[ 10167 10162 10161 10158 ] final   52.53 input  -65.29 | X-H torsion
[ 10718 10713 10712 10709 ] final  -74.96 input   66.30 | X-H torsion
[ 10763 10752 10751 10750 ] final  179.86 input  -60.55 | X-H torsion
[ 11005 11000 10999 10996 ] final  102.59 input  -57.11 | X-H torsion

> <Gold.Protein.ActiveResidues>
 VAL166  LYS551  ARG553  GLY616  TRP617  ASP618  TYR619  PRO620  LYS621  CYS622 
 ASP623  PHE694  ASN695  SER759  ASP760  ASP761  ALA762  ILE779  LEU786  VAL792 
 PHE793  MET794  SER795  GLU796  ALA797  LYS798  CYS799  TRP800  GLU811  SER814 

> <Gold.Protein.RotatedAtoms>
  150.8668  134.8034  159.7124 H   0  0  0  0  0  0  0  0  0  0  0  0  # atno 6907 bound_to 6896
  152.4687  134.5010  159.9734 H   0  0  0  0  0  0  0  0  0  0  0  0  # atno 6908 bound_to 6896
  151.5105  133.3447  159.2919 H   0  0  0  0  0  0  0  0  0  0  0  0  # atno 6909 bound_to 6896
  145.4001  139.2349  143.3304 H   0  0  0  0  0  0  0  0  0  0  0  0  # atno 7974 bound_to 7965
  156.2903  140.2230  156.5087 H   0  0  0  0  0  0  0  0  0  0  0  0  # atno 8008 bound_to 7997
  154.7627  140.0472  157.1008 H   0  0  0  0  0  0  0  0  0  0  0  0  # atno 8009 bound_to 7997
  154.9971  140.3097  155.4886 H   0  0  0  0  0  0  0  0  0  0  0  0  # atno 8010 bound_to 7997
  140.2503  144.3486  150.6350 H   0  0  0  0  0  0  0  0  0  0  0  0  # atno 10167 bound_to 10162
  156.0224  130.4429  150.2970 H   0  0  0  0  0  0  0  0  0  0  0  0  # atno 10718 bound_to 10713
  154.5260  135.2797  155.1221 H   0  0  0  0  0  0  0  0  0  0  0  0  # atno 10763 bound_to 10752
  154.2760  135.6294  153.5332 H   0  0  0  0  0  0  0  0  0  0  0  0  # atno 10764 bound_to 10752
  152.9947  135.5639  154.5762 H   0  0  0  0  0  0  0  0  0  0  0  0  # atno 10765 bound_to 10752
  139.8778  134.9230  156.5081 H   0  0  0  0  0  0  0  0  0  0  0  0  # atno 11005 bound_to 11000
  146.2756  140.4698  142.8797 LP  0  0  0  0  0  0  0  0  0  0  0  0  # atno 17320 bound_to 7965
  144.8380  140.6812  143.6248 LP  0  0  0  0  0  0  0  0  0  0  0  0  # atno 17321 bound_to 7965
  140.6045  143.2167  151.7007 LP  0  0  0  0  0  0  0  0  0  0  0  0  # atno 17342 bound_to 10162
  139.5048  144.3740  152.0442 LP  0  0  0  0  0  0  0  0  0  0  0  0  # atno 17343 bound_to 10162
  157.1073  131.0212  151.3062 LP  0  0  0  0  0  0  0  0  0  0  0  0  # atno 17370 bound_to 10713
  157.4732  130.7721  149.7343 LP  0  0  0  0  0  0  0  0  0  0  0  0  # atno 17371 bound_to 10713
  140.8540  133.8110  155.9197 LP  0  0  0  0  0  0  0  0  0  0  0  0  # atno 17394 bound_to 11000
  140.9116  134.2254  157.4982 LP  0  0  0  0  0  0  0  0  0  0  0  0  # atno 17395 bound_to 11000

$$$$
