AV-unprocessed.smi:2071|AV-procd|sdf|8440|dock1
  -GOLD-   2272011143D 1   1.00000     0.00000
 Structure written by MMmdl.
 45 47  0  0  0  0  0  0  0  0  1 V2000
  151.3329  141.2839  156.8743 O   0  0  0  0  0  0  0  0  0  0  0  0
  150.5575  142.2085  156.6325 C   0  0  0  0  0  0  0  0  0  0  0  0
  149.7503  142.2342  155.5625 N   0  0  0  0  0  0  0  0  0  0  0  0
  149.6785  141.1953  154.5416 C   0  0  0  0  0  0  0  0  0  0  0  0
  148.3347  140.4514  154.5882 C   0  0  0  0  0  0  0  0  0  0  0  0
  148.3979  139.0826  153.8902 C   0  0  0  0  0  0  0  0  0  0  0  0
  149.2088  138.1304  154.6540 N   0  0  0  0  0  0  0  0  0  0  0  0
  150.5507  138.1763  154.7403 C   0  0  0  0  0  0  0  0  0  0  0  0
  151.2913  138.9919  154.1931 O   0  0  0  0  0  0  0  0  0  0  0  0
  150.9586  137.1784  155.5347 N   0  0  0  0  0  0  0  0  0  0  0  0
  149.8581  136.3905  156.0530 C   0  0  0  0  0  0  0  0  0  0  0  0
  149.7718  136.3873  157.5846 C   0  0  0  0  0  0  0  0  0  0  0  0
  148.9532  135.1369  157.9335 C   0  0  0  0  0  0  0  0  0  0  0  0
  149.0726  134.1842  156.7301 C   0  0  0  0  0  0  0  0  0  0  0  0
  149.9340  134.9037  155.6816 C   0  0  0  0  0  0  0  0  0  0  0  0
  148.7032  137.1272  155.3839 C   0  0  0  0  0  0  0  0  0  0  0  0
  147.5156  136.8302  155.5184 O   0  0  0  0  0  0  0  0  0  0  0  0
  150.3897  143.3053  157.3914 N   0  0  0  0  0  0  0  0  0  0  0  0
  151.0475  143.6642  158.5998 C   0  0  0  0  0  0  0  0  0  0  0  0
  152.0803  142.9084  159.2065 C   0  0  0  0  0  0  0  0  0  0  0  0
  152.6607  143.3840  160.3984 C   0  0  0  0  0  0  0  0  0  0  0  0
  152.1942  144.5990  160.9361 C   0  0  0  0  0  0  0  0  0  0  0  0
  151.2202  145.3359  160.3627 N   0  0  0  0  0  0  0  0  0  0  0  0
  150.6683  144.8735  159.2205 C   0  0  0  0  0  0  0  0  0  0  0  0
  149.1413  143.0307  155.4441 H   0  0  0  0  0  0  0  0  0  0  0  0
  149.8436  141.6269  153.5529 H   0  0  0  0  0  0  0  0  0  0  0  0
  150.4959  140.4950  154.7145 H   0  0  0  0  0  0  0  0  0  0  0  0
  148.0313  140.3175  155.6275 H   0  0  0  0  0  0  0  0  0  0  0  0
  147.5624  141.0615  154.1175 H   0  0  0  0  0  0  0  0  0  0  0  0
  147.3893  138.6880  153.7554 H   0  0  0  0  0  0  0  0  0  0  0  0
  148.8066  139.1955  152.8846 H   0  0  0  0  0  0  0  0  0  0  0  0
  151.9235  136.9908  155.7653 H   0  0  0  0  0  0  0  0  0  0  0  0
  150.7722  136.3006  158.0111 H   0  0  0  0  0  0  0  0  0  0  0  0
  149.3237  137.2949  157.9920 H   0  0  0  0  0  0  0  0  0  0  0  0
  149.3069  134.6754  158.8558 H   0  0  0  0  0  0  0  0  0  0  0  0
  147.9070  135.4050  158.0860 H   0  0  0  0  0  0  0  0  0  0  0  0
  149.5140  133.2280  157.0129 H   0  0  0  0  0  0  0  0  0  0  0  0
  148.0813  133.9763  156.3255 H   0  0  0  0  0  0  0  0  0  0  0  0
  149.5956  134.6967  154.6651 H   0  0  0  0  0  0  0  0  0  0  0  0
  150.9655  134.5559  155.7554 H   0  0  0  0  0  0  0  0  0  0  0  0
  149.6652  143.9412  157.0919 H   0  0  0  0  0  0  0  0  0  0  0  0
  152.4481  141.9877  158.7818 H   0  0  0  0  0  0  0  0  0  0  0  0
  153.4493  142.8309  160.8871 H   0  0  0  0  0  0  0  0  0  0  0  0
  152.6185  144.9916  161.8483 H   0  0  0  0  0  0  0  0  0  0  0  0
  149.8930  145.4907  158.7896 H   0  0  0  0  0  0  0  0  0  0  0  0
  1  2  2  0  0  0  0
  2  3  1  0  0  0  0
  2 18  1  0  0  0  0
  3  4  1  0  0  0  0
  3 25  1  0  0  0  0
  4  5  1  0  0  0  0
  4 26  1  0  0  0  0
  4 27  1  0  0  0  0
  5  6  1  0  0  0  0
  5 28  1  0  0  0  0
  5 29  1  0  0  0  0
  6  7  1  0  0  0  0
  6 30  1  0  0  0  0
  6 31  1  0  0  0  0
  7 16  1  0  0  0  0
  7  8  1  0  0  0  0
  8  9  2  0  0  0  0
  8 10  1  0  0  0  0
 10 11  1  0  0  0  0
 10 32  1  0  0  0  0
 11 15  1  0  0  0  0
 11 12  1  0  0  0  0
 11 16  1  0  0  0  0
 12 13  1  0  0  0  0
 12 33  1  0  0  0  0
 12 34  1  0  0  0  0
 13 14  1  0  0  0  0
 13 35  1  0  0  0  0
 13 36  1  0  0  0  0
 14 15  1  0  0  0  0
 14 37  1  0  0  0  0
 14 38  1  0  0  0  0
 15 39  1  0  0  0  0
 15 40  1  0  0  0  0
 16 17  2  0  0  0  0
 18 19  1  0  0  0  0
 18 41  1  0  0  0  0
 19 24  1  0  0  0  0
 19 20  2  0  0  0  0
 20 21  1  0  0  0  0
 20 42  1  0  0  0  0
 21 22  2  0  0  0  0
 21 43  1  0  0  0  0
 22 23  1  0  0  0  0
 22 44  1  0  0  0  0
 23 24  2  0  0  0  0
 24 45  1  0  0  0  0
M  END
> <s_m_source_file>
AV-unprocessed.smi

> <i_m_source_file_index>
2071

> <i_lp_mmshare_version>
43012

> <i_f3d_flags>
0

> <s_epik_input>
W2NIXTFuW2NIXVtjSF1bY0hdYzFbTkhdQyg9TylbTkhdW0NIMl1bQ0gyXVtDSDJdTihDMj1PKUMoPU8pW05IXUMyM1tDSDJdW0NIMl1bQ0gyXVtDSDJdMw==

> <s_epik_cmdline>
J2VwaWtfcHl0aG9uJywgJy1waCcsICc3LjAnLCAnLXRuJywgJzgnLCAnLW1hJywgJzIwMCcsICctbWV0YWxfYmluZGluZycsICctaW1hZScsICc8aW5maWxlLm1hZT4nLCAnLW9tYWUnLCAnPG91dGZpbGUubWFlPic=

> <r_lp_tautomer_probability>
1

> <r_epik_Ionization_Penalty>
0.00482956

> <r_epik_Ionization_Penalty_Charging>
0

> <r_epik_Ionization_Penalty_Neutral>
0.00482956

> <r_epik_State_Penalty>
0.00344413

> <r_epik_Charging_Adjusted_Penalty>
0.00344413

> <i_epik_Tot_Q>
0

> <i_epik_Tot_abs_Q>
0

> <r_epik_Metal_State_Penalty>
0.0123255

> <b_epik_Metal_Only>
0

> <s_lp_Force_Field>
OPLS_2005

> <r_lp_Energy>
39.9018

> <b_lp_Chiralities_Consistent>
1

> <s_lp_Variant>
AV-unprocessed.smi:2071-1

> <Gold.Version>
5.8.1

> <Gold.Id.Protein>
6NUR|6NUR_protein|mol2

> <Gold.PLP.Fitness>
44.9114

> <Gold.PLP.PLP>
-33.8658

> <Gold.PLP.part.hbond>
-3.0000

> <Gold.PLP.part.metal>
0.0000

> <Gold.PLP.part.buried>
-2.6761

> <Gold.PLP.part.nonpolar>
-28.6004

> <Gold.PLP.part.repulsive>
0.7172

> <Gold.PLP.ligand.clash>
0.0000

> <Gold.PLP.ligand.torsion>
0.3197

> <Gold.PLP.Chemscore.Hbond>
2.9113

> <Gold.PLP.Chemscore.CHOScore>
0.9789

> <Gold.PLP.Chemscore.Metal>
0.0000

> <Gold.Chemscore.Hbonds>
donor molecule, donor type, donor heavy atom, donor atom, acceptor molecule, acceptor atom, score
      L1  H     3    25       P1  8028  0.98
      L1  H    18    41       P1  8028  0.91
      P1  H  7989  7998       L1     9  1.00
      L1  C    24    45       P1  8029  0.99

> <Gold.PLP.Chemscore.Internal.Correction>
0.0148

> <Gold.Rescore>
     Score         DG    S(hbond)    S(metal)    S(lipo)     H(rot)  DE(clash)    DE(int)     intcor
     16.27     -19.99       2.63        0.00      91.89       1.96       0.72       3.01       ----

> <Gold.Chemscore.Fitness>
16.2687

> <Gold.Chemscore.DG>
-19.9899

> <Gold.Chemscore.ZeroCoef>
-5.4800

> <Gold.Chemscore.Hbond>
2.6301

> <Gold.Chemscore.Metal>
0.0000

> <Gold.Chemscore.Lipo>
91.8943

> <Gold.Chemscore.Internal_Hbond>
0.0000

> <Gold.Chemscore.DEClash>
0.7150

> <Gold.Chemscore.DEInternal>
3.0061

> <Gold.Chemscore.Rot>
1.9634

> <Gold.Chemscore.Internal.Correction>
   9.000000E+99

> <Gold.Chemscore.Hbonds>
donor molecule, donor type, donor heavy atom, donor atom, acceptor molecule, acceptor atom, score
      L1  H     3    25       P1  8028  0.93
      L1  H    18    41       P1  8028  0.70
      P1  H  7989  7998       L1     9  0.92

> <Gold.Chemscore.Hbond.Weighted>
-8.7846

> <Gold.Chemscore.Metal.Weighted>
-0.0000

> <Gold.Chemscore.Lipo.Weighted>
-10.7516

> <Gold.Chemscore.Internal_Hbond.Weighted>
0.0000

> <Gold.Chemscore.DEClash.Weighted>
0.7150

> <Gold.Chemscore.DEInternal.Weighted>
3.0061

> <Gold.Chemscore.Rot.Weighted>
5.0263

> <Gold.Chemscore.Internal.Correction.Weighted>
   9.000000E+99

> <Gold.Protein.RotatedTorsions>
[ 6907 6896 6895 6894 ] final   82.20 input  -60.11 | X-H torsion
[ 7974 7965 7964 7962 ] final  -83.17 input  175.53 | X-H torsion
[ 8008 7997 7996 7995 ] final -174.62 input   59.86 | X-H torsion
[ 10167 10162 10161 10158 ] final   26.33 input  -65.29 | X-H torsion
[ 10718 10713 10712 10709 ] final  -19.61 input   66.30 | X-H torsion
[ 10763 10752 10751 10750 ] final  140.41 input  -60.55 | X-H torsion
[ 11005 11000 10999 10996 ] final   87.20 input  -57.11 | X-H torsion

> <Gold.Protein.ActiveResidues>
 VAL166  LYS551  ARG553  GLY616  TRP617  ASP618  TYR619  PRO620  LYS621  CYS622 
 ASP623  PHE694  ASN695  SER759  ASP760  ASP761  ALA762  ILE779  LEU786  VAL792 
 PHE793  MET794  SER795  GLU796  ALA797  LYS798  CYS799  TRP800  GLU811  SER814 

> <Gold.Protein.RotatedAtoms>
  152.5292  134.3087  159.9105 H   0  0  0  0  0  0  0  0  0  0  0  0  # atno 6907 bound_to 6896
  151.3037  133.4104  159.2649 H   0  0  0  0  0  0  0  0  0  0  0  0  # atno 6908 bound_to 6896
  151.0097  134.9403  159.8057 H   0  0  0  0  0  0  0  0  0  0  0  0  # atno 6909 bound_to 6896
  145.5236  140.9529  143.1642 H   0  0  0  0  0  0  0  0  0  0  0  0  # atno 7974 bound_to 7965
  155.9724  140.1165  157.0800 H   0  0  0  0  0  0  0  0  0  0  0  0  # atno 8008 bound_to 7997
  154.4160  140.1160  156.5392 H   0  0  0  0  0  0  0  0  0  0  0  0  # atno 8009 bound_to 7997
  155.6579  140.3473  155.4774 H   0  0  0  0  0  0  0  0  0  0  0  0  # atno 8010 bound_to 7997
  140.5032  144.0282  150.6341 H   0  0  0  0  0  0  0  0  0  0  0  0  # atno 10167 bound_to 10162
  156.5433  130.4683  149.6488 H   0  0  0  0  0  0  0  0  0  0  0  0  # atno 10718 bound_to 10713
  153.9222  135.2999  155.3447 H   0  0  0  0  0  0  0  0  0  0  0  0  # atno 10763 bound_to 10752
  154.7569  135.4953  153.9395 H   0  0  0  0  0  0  0  0  0  0  0  0  # atno 10764 bound_to 10752
  153.1136  135.6765  153.9561 H   0  0  0  0  0  0  0  0  0  0  0  0  # atno 10765 bound_to 10752
  139.8925  134.8407  156.2827 H   0  0  0  0  0  0  0  0  0  0  0  0  # atno 11005 bound_to 11000
  144.7663  139.6838  143.7213 LP  0  0  0  0  0  0  0  0  0  0  0  0  # atno 17320 bound_to 7965
  146.2090  139.5434  142.9693 LP  0  0  0  0  0  0  0  0  0  0  0  0  # atno 17321 bound_to 7965
  140.3583  143.2922  152.0411 LP  0  0  0  0  0  0  0  0  0  0  0  0  # atno 17342 bound_to 10162
  139.4877  144.6322  151.7047 LP  0  0  0  0  0  0  0  0  0  0  0  0  # atno 17343 bound_to 10162
  156.2951  130.7146  151.2004 LP  0  0  0  0  0  0  0  0  0  0  0  0  # atno 17370 bound_to 10713
  157.7401  131.0521  150.5187 LP  0  0  0  0  0  0  0  0  0  0  0  0  # atno 17371 bound_to 10713
  141.0028  133.7141  156.0987 LP  0  0  0  0  0  0  0  0  0  0  0  0  # atno 17394 bound_to 11000
  140.7475  134.4082  157.5546 LP  0  0  0  0  0  0  0  0  0  0  0  0  # atno 17395 bound_to 11000

$$$$
