AV-unprocessed.smi:598|AV-procd|sdf|3028|dock3
  -GOLD-   2262023543D 1   1.00000     0.00000
 Structure written by MMmdl.
 43 44  0  0  0  0  0  0  0  0  3 V2000
  146.0811  132.9536  151.0886 C   0  0  0  0  0  0  0  0  0  0  0  0
  145.7435  134.3204  151.7113 C   0  0  1  0  0  0  0  0  0  0  0  0
  144.2689  134.6717  151.4240 C   0  0  0  0  0  0  0  0  0  0  0  0
  143.8712  136.0325  152.0113 C   0  0  0  0  0  0  0  0  0  0  0  0
  144.1512  136.0833  153.5205 C   0  0  0  0  0  0  0  0  0  0  0  0
  145.6192  135.7496  153.8438 C   0  0  2  0  0  0  0  0  0  0  0  0
  146.4834  136.8408  153.3868 N   0  0  0  0  0  0  0  0  0  0  0  0
  146.4798  138.1026  153.8443 C   0  0  0  0  0  0  0  0  0  0  0  0
  145.7414  138.4933  154.7497 O   0  0  0  0  0  0  0  0  0  0  0  0
  147.4815  139.0534  153.1728 C   0  0  0  0  0  0  0  0  0  0  0  0
  148.5259  139.5520  154.0840 N   0  0  0  0  0  0  0  0  0  0  0  0
  149.6060  138.6877  154.3510 C   0  0  0  0  0  0  0  0  0  0  0  0
  150.6162  139.0362  155.1718 C   0  0  0  0  0  0  0  0  0  0  0  0
  151.7163  138.1348  155.4359 N   0  3  0  0  0  0  0  0  0  0  0  0
  151.6446  136.9818  155.0227 O   0  0  0  0  0  0  0  0  0  0  0  0
  152.6860  138.5471  156.0657 O   0  5  0  0  0  0  0  0  0  0  0  0
  150.5638  140.3488  155.7860 C   0  0  0  0  0  0  0  0  0  0  0  0
  149.5318  141.1789  155.5376 C   0  0  0  0  0  0  0  0  0  0  0  0
  148.4320  140.7964  154.6459 C   0  0  0  0  0  0  0  0  0  0  0  0
  147.4843  141.5486  154.4183 O   0  0  0  0  0  0  0  0  0  0  0  0
  146.0340  134.3813  153.2372 C   0  0  2  0  0  0  0  0  0  0  0  0
  147.4904  134.0188  153.5916 C   0  0  0  0  0  0  0  0  0  0  0  0
  145.5425  132.1466  151.5864 H   0  0  0  0  0  0  0  0  0  0  0  0
  147.1468  132.7337  151.1478 H   0  0  0  0  0  0  0  0  0  0  0  0
  145.8129  132.9280  150.0318 H   0  0  0  0  0  0  0  0  0  0  0  0
  146.3663  135.0653  151.2138 H   0  0  0  0  0  0  0  0  0  0  0  0
  144.0898  134.6780  150.3481 H   0  0  0  0  0  0  0  0  0  0  0  0
  143.6200  133.8982  151.8373 H   0  0  0  0  0  0  0  0  0  0  0  0
  144.4183  136.8271  151.5026 H   0  0  0  0  0  0  0  0  0  0  0  0
  142.8135  136.2210  151.8249 H   0  0  0  0  0  0  0  0  0  0  0  0
  143.8907  137.0657  153.9166 H   0  0  0  0  0  0  0  0  0  0  0  0
  143.5004  135.3701  154.0283 H   0  0  0  0  0  0  0  0  0  0  0  0
  145.6917  135.6718  154.9300 H   0  0  0  0  0  0  0  0  0  0  0  0
  147.1327  136.6151  152.6471 H   0  0  0  0  0  0  0  0  0  0  0  0
  147.9328  138.5329  152.3264 H   0  0  0  0  0  0  0  0  0  0  0  0
  146.9340  139.8886  152.7317 H   0  0  0  0  0  0  0  0  0  0  0  0
  149.5482  137.7313  153.8512 H   0  0  0  0  0  0  0  0  0  0  0  0
  151.3512  140.6754  156.4496 H   0  0  0  0  0  0  0  0  0  0  0  0
  149.5122  142.1519  156.0063 H   0  0  0  0  0  0  0  0  0  0  0  0
  145.4052  133.6278  153.7144 H   0  0  0  0  0  0  0  0  0  0  0  0
  148.2039  134.6349  153.0442 H   0  0  0  0  0  0  0  0  0  0  0  0
  147.7112  132.9757  153.3671 H   0  0  0  0  0  0  0  0  0  0  0  0
  147.6787  134.1580  154.6565 H   0  0  0  0  0  0  0  0  0  0  0  0
  1  2  1  0  0  0  0
  1 23  1  0  0  0  0
  1 24  1  0  0  0  0
  1 25  1  0  0  0  0
  2 21  1  0  0  0  0
  2  3  1  0  0  0  0
  2 26  1  0  0  0  0
  3  4  1  0  0  0  0
  3 27  1  0  0  0  0
  3 28  1  0  0  0  0
  4  5  1  0  0  0  0
  4 29  1  0  0  0  0
  4 30  1  0  0  0  0
  5  6  1  0  0  0  0
  5 31  1  0  0  0  0
  5 32  1  0  0  0  0
  6  7  1  0  0  0  0
  6 21  1  0  0  0  0
  6 33  1  0  0  0  0
  7  8  1  0  0  0  0
  7 34  1  0  0  0  0
  8  9  2  0  0  0  0
  8 10  1  0  0  0  0
 10 11  1  0  0  0  0
 10 35  1  0  0  0  0
 10 36  1  0  0  0  0
 11 19  1  0  0  0  0
 11 12  1  0  0  0  0
 12 13  2  0  0  0  0
 12 37  1  0  0  0  0
 13 14  1  0  0  0  0
 13 17  1  0  0  0  0
 14 15  2  0  0  0  0
 14 16  1  0  0  0  0
 17 18  2  0  0  0  0
 17 38  1  0  0  0  0
 18 19  1  0  0  0  0
 18 39  1  0  0  0  0
 19 20  2  0  0  0  0
 21 22  1  0  0  0  0
 21 40  1  0  0  0  0
 22 41  1  0  0  0  0
 22 42  1  0  0  0  0
 22 43  1  0  0  0  0
M  CHG  1  14   1
M  CHG  1  16  -1
M  END
> <s_m_source_file>
AV-unprocessed.smi

> <i_m_source_file_index>
598

> <i_lp_mmshare_version>
43012

> <i_f3d_flags>
0

> <s_epik_input>
W0NIM11bQ0BASF0xW0NIMl1bQ0gyXVtDSDJdW0NASF0oW0NASF0xW0NIM10pW05IXUMoPU8pW0NIMl1uMltjSF1jKFtOK10oPU8pW08tXSlbY0hdW2NIXWMyPU8=

> <s_epik_cmdline>
J2VwaWtfcHl0aG9uJywgJy1waCcsICc3LjAnLCAnLXRuJywgJzgnLCAnLW1hJywgJzIwMCcsICctbWV0YWxfYmluZGluZycsICctaW1hZScsICc8aW5maWxlLm1hZT4nLCAnLW9tYWUnLCAnPG91dGZpbGUubWFlPic=

> <r_lp_tautomer_probability>
1

> <r_epik_Ionization_Penalty>
1.91291e-08

> <r_epik_Ionization_Penalty_Charging>
8.21931e-11

> <r_epik_Ionization_Penalty_Neutral>
1.90469e-08

> <r_epik_State_Penalty>
-0

> <r_epik_Charging_Adjusted_Penalty>
8.21931e-11

> <i_epik_Tot_Q>
0

> <i_epik_Tot_abs_Q>
2

> <r_epik_Metal_State_Penalty>
-0

> <b_epik_Metal_Only>
0

> <s_lp_Force_Field>
OPLS_2005

> <r_lp_Energy>
23.1067

> <b_lp_Chiralities_Consistent>
1

> <s_lp_Variant>
AV-unprocessed.smi:598-8

> <Gold.Version>
5.8.1

> <Gold.Id.Protein>
6NUR|6NUR_protein|mol2

> <Gold.PLP.Fitness>
45.1083

> <Gold.PLP.PLP>
-33.8576

> <Gold.PLP.part.hbond>
-3.0000

> <Gold.PLP.part.metal>
0.0000

> <Gold.PLP.part.buried>
-0.8056

> <Gold.PLP.part.nonpolar>
-30.2392

> <Gold.PLP.part.repulsive>
0.3366

> <Gold.PLP.ligand.clash>
0.0000

> <Gold.PLP.ligand.torsion>
0.3710

> <Gold.PLP.Chemscore.Hbond>
2.9920

> <Gold.PLP.Chemscore.CHOScore>
1.0000

> <Gold.PLP.Chemscore.Metal>
0.0000

> <Gold.Chemscore.Hbonds>
donor molecule, donor type, donor heavy atom, donor atom, acceptor molecule, acceptor atom, score
      L1  H     7    34       P1  7948  1.00
      P1  H  7997  8009       L1    16  0.31
      P1  H 10752 10765       L1    15  1.00
      L1  C    12    37       P1  7948  0.99

> <Gold.PLP.Chemscore.Internal.Correction>
0.0166

> <Gold.Rescore>
     Score         DG    S(hbond)    S(metal)    S(lipo)     H(rot)  DE(clash)    DE(int)     intcor
     18.07     -18.68       2.83        0.00      65.77       1.54       0.20       0.41       ----

> <Gold.Chemscore.Fitness>
18.0675

> <Gold.Chemscore.DG>
-18.6786

> <Gold.Chemscore.ZeroCoef>
-5.4800

> <Gold.Chemscore.Hbond>
2.8275

> <Gold.Chemscore.Metal>
0.0000

> <Gold.Chemscore.Lipo>
65.7726

> <Gold.Chemscore.Internal_Hbond>
0.0000

> <Gold.Chemscore.DEClash>
0.1999

> <Gold.Chemscore.DEInternal>
0.4112

> <Gold.Chemscore.Rot>
1.5393

> <Gold.Chemscore.Internal.Correction>
   9.000000E+99

> <Gold.Chemscore.Hbonds>
donor molecule, donor type, donor heavy atom, donor atom, acceptor molecule, acceptor atom, score
      L1  H     7    34       P1  7948  0.94
      P1  H  7997  8009       L1    16  0.31
      P1  H 10752 10765       L1    15  0.95

> <Gold.Chemscore.Hbond.Weighted>
-9.4439

> <Gold.Chemscore.Metal.Weighted>
-0.0000

> <Gold.Chemscore.Lipo.Weighted>
-7.6954

> <Gold.Chemscore.Internal_Hbond.Weighted>
0.0000

> <Gold.Chemscore.DEClash.Weighted>
0.1999

> <Gold.Chemscore.DEInternal.Weighted>
0.4112

> <Gold.Chemscore.Rot.Weighted>
3.9407

> <Gold.Chemscore.Internal.Correction.Weighted>
   9.000000E+99

> <Gold.Protein.RotatedTorsions>
[ 6907 6896 6895 6894 ] final  172.96 input  -60.11 | X-H torsion
[ 7974 7965 7964 7962 ] final  -55.86 input  175.53 | X-H torsion
[ 8008 7997 7996 7995 ] final -152.76 input   59.86 | X-H torsion
[ 10167 10162 10161 10158 ] final   21.49 input  -65.29 | X-H torsion
[ 10718 10713 10712 10709 ] final   64.58 input   66.30 | X-H torsion
[ 10763 10752 10751 10750 ] final  165.04 input  -60.55 | X-H torsion
[ 11005 11000 10999 10996 ] final  -59.60 input  -57.11 | X-H torsion

> <Gold.Protein.ActiveResidues>
 VAL166  LYS551  ARG553  GLY616  TRP617  ASP618  TYR619  PRO620  LYS621  CYS622 
 ASP623  PHE694  ASN695  SER759  ASP760  ASP761  ALA762  ILE779  LEU786  VAL792 
 PHE793  MET794  SER795  GLU796  ALA797  LYS798  CYS799  TRP800  GLU811  SER814 

> <Gold.Protein.RotatedAtoms>
  151.7759  133.3345  159.3457 H   0  0  0  0  0  0  0  0  0  0  0  0  # atno 6907 bound_to 6896
  150.7444  134.5976  159.6029 H   0  0  0  0  0  0  0  0  0  0  0  0  # atno 6908 bound_to 6896
  152.3309  134.7261  160.0341 H   0  0  0  0  0  0  0  0  0  0  0  0  # atno 6909 bound_to 6896
  145.8693  140.8228  142.9896 H   0  0  0  0  0  0  0  0  0  0  0  0  # atno 7974 bound_to 7965
  155.6602  140.0722  157.2556 H   0  0  0  0  0  0  0  0  0  0  0  0  # atno 8008 bound_to 7997
  154.4144  140.1717  156.1819 H   0  0  0  0  0  0  0  0  0  0  0  0  # atno 8009 bound_to 7997
  155.9703  140.3362  155.6573 H   0  0  0  0  0  0  0  0  0  0  0  0  # atno 8010 bound_to 7997
  140.5422  143.9657  150.6526 H   0  0  0  0  0  0  0  0  0  0  0  0  # atno 10167 bound_to 10162
  157.6049  130.9167  149.9864 H   0  0  0  0  0  0  0  0  0  0  0  0  # atno 10718 bound_to 10713
  154.3180  135.2756  155.2534 H   0  0  0  0  0  0  0  0  0  0  0  0  # atno 10763 bound_to 10752
  154.4900  135.5836  153.6455 H   0  0  0  0  0  0  0  0  0  0  0  0  # atno 10764 bound_to 10752
  152.9880  135.6132  154.3362 H   0  0  0  0  0  0  0  0  0  0  0  0  # atno 10765 bound_to 10752
  141.1254  133.6617  156.5096 H   0  0  0  0  0  0  0  0  0  0  0  0  # atno 11005 bound_to 11000
  144.6726  140.1214  143.7449 LP  0  0  0  0  0  0  0  0  0  0  0  0  # atno 17320 bound_to 7965
  145.9156  139.2513  143.1412 LP  0  0  0  0  0  0  0  0  0  0  0  0  # atno 17321 bound_to 7965
  140.3060  143.3229  152.0925 LP  0  0  0  0  0  0  0  0  0  0  0  0  # atno 17342 bound_to 10162
  139.4993  144.6666  151.6341 LP  0  0  0  0  0  0  0  0  0  0  0  0  # atno 17343 bound_to 10162
  156.1132  130.3649  150.0013 LP  0  0  0  0  0  0  0  0  0  0  0  0  # atno 17370 bound_to 10713
  156.8107  130.9324  151.3644 LP  0  0  0  0  0  0  0  0  0  0  0  0  # atno 17371 bound_to 10713
  140.4380  134.7042  157.4977 LP  0  0  0  0  0  0  0  0  0  0  0  0  # atno 17394 bound_to 11000
  140.0249  134.6492  155.9187 LP  0  0  0  0  0  0  0  0  0  0  0  0  # atno 17395 bound_to 11000

$$$$
