AV-unprocessed.smi:1864|AV-procd|sdf|7553|dock6
  -GOLD-   22720 9273D 1   1.00000     0.00000
 Structure written by MMmdl.
 33 34  0  0  0  0  0  0  0  0  2 V2000
  149.3181  139.9648  154.6167 C   0  0  0  0  0  0  0  0  0  0  0  0
  150.4708  139.5866  155.4829 C   0  0  0  0  0  0  0  0  0  0  0  0
  151.7151  139.9183  155.1625 N   0  0  0  0  0  0  0  0  0  0  0  0
  152.4738  139.3783  156.2110 O   0  0  0  0  0  0  0  0  0  0  0  0
  151.5850  138.7858  157.0484 C   0  0  0  0  0  0  0  0  0  0  0  0
  152.0919  138.0874  158.2741 C   0  0  0  0  0  0  0  0  0  0  0  0
  153.5829  138.3426  158.5675 C   0  0  0  0  0  0  0  0  0  0  0  0
  153.8266  139.7803  158.6910 N   0  5  0  0  0  0  0  0  0  0  0  0
  153.9184  140.4591  159.8746 C   0  0  0  0  0  0  0  0  0  0  0  0
  154.5717  140.1109  160.8661 O   0  0  0  0  0  0  0  0  0  0  0  0
  153.1680  141.7422  160.0279 C   0  0  0  0  0  0  0  0  0  0  0  0
  152.8055  142.4040  158.9733 N   0  0  0  0  0  0  0  0  0  0  0  0
  152.0876  143.5798  159.0469 N   0  0  0  0  0  0  0  0  0  0  0  0
  151.5430  144.0117  157.7602 C   0  0  0  0  0  0  0  0  0  0  0  0
  151.9098  144.3009  160.1833 C   0  0  0  0  0  0  0  0  0  0  0  0
  151.2518  145.3393  160.2477 O   0  0  0  0  0  0  0  0  0  0  0  0
  152.6114  143.7771  161.4391 C   0  0  0  0  0  0  0  0  0  0  0  0
  152.7975  142.2479  161.4106 C   0  0  0  0  0  0  0  0  0  0  0  0
  150.3196  138.8855  156.6391 N   0  0  0  0  0  0  0  0  0  0  0  0
  149.6551  140.5044  153.7308 H   0  0  0  0  0  0  0  0  0  0  0  0
  148.6274  140.6034  155.1676 H   0  0  0  0  0  0  0  0  0  0  0  0
  148.7827  139.0720  154.2931 H   0  0  0  0  0  0  0  0  0  0  0  0
  151.4852  138.4053  159.1230 H   0  0  0  0  0  0  0  0  0  0  0  0
  151.9161  137.0176  158.1536 H   0  0  0  0  0  0  0  0  0  0  0  0
  153.8599  137.8065  159.4765 H   0  0  0  0  0  0  0  0  0  0  0  0
  154.1831  137.9064  157.7681 H   0  0  0  0  0  0  0  0  0  0  0  0
  150.9934  144.9526  157.8055 H   0  0  0  0  0  0  0  0  0  0  0  0
  150.8625  143.2539  157.3701 H   0  0  0  0  0  0  0  0  0  0  0  0
  152.3497  144.1399  157.0375 H   0  0  0  0  0  0  0  0  0  0  0  0
  153.5857  144.2640  161.4968 H   0  0  0  0  0  0  0  0  0  0  0  0
  152.0576  144.0735  162.3306 H   0  0  0  0  0  0  0  0  0  0  0  0
  151.8826  141.7541  161.7394 H   0  0  0  0  0  0  0  0  0  0  0  0
  153.5665  141.9892  162.1392 H   0  0  0  0  0  0  0  0  0  0  0  0
  1  2  1  0  0  0  0
  1 20  1  0  0  0  0
  1 21  1  0  0  0  0
  1 22  1  0  0  0  0
  2 19  1  0  0  0  0
  2  3  2  0  0  0  0
  3  4  1  0  0  0  0
  4  5  1  0  0  0  0
  5  6  1  0  0  0  0
  5 19  2  0  0  0  0
  6  7  1  0  0  0  0
  6 23  1  0  0  0  0
  6 24  1  0  0  0  0
  7  8  1  0  0  0  0
  7 25  1  0  0  0  0
  7 26  1  0  0  0  0
  8  9  1  0  0  0  0
  9 10  2  0  0  0  0
  9 11  1  0  0  0  0
 11 18  1  0  0  0  0
 11 12  2  0  0  0  0
 12 13  1  0  0  0  0
 13 14  1  0  0  0  0
 13 15  1  0  0  0  0
 14 27  1  0  0  0  0
 14 28  1  0  0  0  0
 14 29  1  0  0  0  0
 15 16  2  0  0  0  0
 15 17  1  0  0  0  0
 17 18  1  0  0  0  0
 17 30  1  0  0  0  0
 17 31  1  0  0  0  0
 18 32  1  0  0  0  0
 18 33  1  0  0  0  0
M  CHG  1   8  -1
M  END
> <s_m_source_file>
AV-unprocessed.smi

> <i_m_source_file_index>
1864

> <i_lp_mmshare_version>
43012

> <i_f3d_flags>
0

> <s_epik_input>
W0NIM11jMW5vYyhuMSlbQ0gyXVtDSDJdW05IXUMoPU8pQzI9Tk4oW0NIM10pQyg9TylbQ0gyXVtDSDJdMg==

> <s_epik_cmdline>
J2VwaWtfcHl0aG9uJywgJy1waCcsICc3LjAnLCAnLXRuJywgJzgnLCAnLW1hJywgJzIwMCcsICctbWV0YWxfYmluZGluZycsICctaW1hZScsICc8aW5maWxlLm1hZT4nLCAnLW9tYWUnLCAnPG91dGZpbGUubWFlPic=

> <r_lp_tautomer_probability>
1

> <r_epik_Ionization_Penalty>
5.04632

> <r_epik_Ionization_Penalty_Charging>
5.04632

> <r_epik_Ionization_Penalty_Neutral>
3.43742e-09

> <r_epik_State_Penalty>
5.0462

> <r_epik_Charging_Adjusted_Penalty>
10.0925

> <i_epik_Tot_Q>
-1

> <i_epik_Tot_abs_Q>
1

> <r_epik_Metal_State_Penalty>
1.15274

> <b_epik_Metal_Only>
1

> <s_epik_Chemistry_Notes>
This compound has an imine and may undergo hydrolysis.

> <s_lp_Force_Field>
OPLS_2005

> <r_lp_Energy>
22.1734

> <b_lp_Chiralities_Consistent>
1

> <s_lp_Variant>
AV-unprocessed.smi:1864-2

> <Gold.Version>
5.8.1

> <Gold.Id.Protein>
6NUR|6NUR_protein|mol2

> <Gold.PLP.Fitness>
45.9475

> <Gold.PLP.PLP>
-38.4637

> <Gold.PLP.part.hbond>
-3.0000

> <Gold.PLP.part.metal>
0.0000

> <Gold.PLP.part.buried>
-6.4383

> <Gold.PLP.part.nonpolar>
-29.7762

> <Gold.PLP.part.repulsive>
0.2305

> <Gold.PLP.ligand.clash>
0.0000

> <Gold.PLP.ligand.torsion>
0.8541

> <Gold.PLP.Chemscore.Hbond>
3.0566

> <Gold.PLP.Chemscore.CHOScore>
0.0000

> <Gold.PLP.Chemscore.Metal>
0.0000

> <Gold.Chemscore.Hbonds>
donor molecule, donor type, donor heavy atom, donor atom, acceptor molecule, acceptor atom, score
      P1  H  7989  7998       L1     3  0.99
      P1  H  7997  8008       L1     4  0.02
      P1  H  7997  8010       L1     8  1.98

> <Gold.PLP.Chemscore.Internal.Correction>
0.0224

> <Gold.Rescore>
     Score         DG    S(hbond)    S(metal)    S(lipo)     H(rot)  DE(clash)    DE(int)     intcor
     10.88     -13.08       1.61        0.00      57.89       1.77       0.07       2.12       ----

> <Gold.Chemscore.Fitness>
10.8828

> <Gold.Chemscore.DG>
-13.0780

> <Gold.Chemscore.ZeroCoef>
-5.4800

> <Gold.Chemscore.Hbond>
1.6061

> <Gold.Chemscore.Metal>
0.0000

> <Gold.Chemscore.Lipo>
57.8881

> <Gold.Chemscore.Internal_Hbond>
0.0000

> <Gold.Chemscore.DEClash>
0.0727

> <Gold.Chemscore.DEInternal>
2.1225

> <Gold.Chemscore.Rot>
1.7731

> <Gold.Chemscore.Internal.Correction>
   9.000000E+99

> <Gold.Chemscore.Hbonds>
donor molecule, donor type, donor heavy atom, donor atom, acceptor molecule, acceptor atom, score
      P1  H  7989  7998       L1     3  0.62
      P1  H  7997  8008       L1     4  0.01
      P1  H  7997  8010       L1     8  0.24

> <Gold.Chemscore.Hbond.Weighted>
-5.3644

> <Gold.Chemscore.Metal.Weighted>
-0.0000

> <Gold.Chemscore.Lipo.Weighted>
-6.7729

> <Gold.Chemscore.Internal_Hbond.Weighted>
0.0000

> <Gold.Chemscore.DEClash.Weighted>
0.0727

> <Gold.Chemscore.DEInternal.Weighted>
2.1225

> <Gold.Chemscore.Rot.Weighted>
4.5393

> <Gold.Chemscore.Internal.Correction.Weighted>
   9.000000E+99

> <Gold.Protein.RotatedTorsions>
[ 6907 6896 6895 6894 ] final -150.86 input  -60.11 | X-H torsion
[ 7974 7965 7964 7962 ] final   24.23 input  175.53 | X-H torsion
[ 8008 7997 7996 7995 ] final    4.34 input   59.86 | X-H torsion
[ 10167 10162 10161 10158 ] final -155.25 input  -65.29 | X-H torsion
[ 10718 10713 10712 10709 ] final  -96.55 input   66.30 | X-H torsion
[ 10763 10752 10751 10750 ] final -168.18 input  -60.55 | X-H torsion
[ 11005 11000 10999 10996 ] final  -59.49 input  -57.11 | X-H torsion

> <Gold.Protein.ActiveResidues>
 VAL166  LYS551  ARG553  GLY616  TRP617  ASP618  TYR619  PRO620  LYS621  CYS622 
 ASP623  PHE694  ASN695  SER759  ASP760  ASP761  ALA762  ILE779  LEU786  VAL792 
 PHE793  MET794  SER795  GLU796  ALA797  LYS798  CYS799  TRP800  GLU811  SER814 

> <Gold.Protein.RotatedAtoms>
  151.2046  133.4591  159.2596 H   0  0  0  0  0  0  0  0  0  0  0  0  # atno 6907 bound_to 6896
  151.1036  134.9986  159.8470 H   0  0  0  0  0  0  0  0  0  0  0  0  # atno 6908 bound_to 6896
  152.5445  134.1971  159.8750 H   0  0  0  0  0  0  0  0  0  0  0  0  # atno 6909 bound_to 6896
  146.1947  139.7633  142.8806 H   0  0  0  0  0  0  0  0  0  0  0  0  # atno 7974 bound_to 7965
  154.7147  140.2700  155.6596 H   0  0  0  0  0  0  0  0  0  0  0  0  # atno 8008 bound_to 7997
  156.2806  140.2746  156.1724 H   0  0  0  0  0  0  0  0  0  0  0  0  # atno 8009 bound_to 7997
  155.0587  140.0371  157.2559 H   0  0  0  0  0  0  0  0  0  0  0  0  # atno 8010 bound_to 7997
  139.6946  143.9363  152.2401 H   0  0  0  0  0  0  0  0  0  0  0  0  # atno 10167 bound_to 10162
  156.0064  130.5156  150.6243 H   0  0  0  0  0  0  0  0  0  0  0  0  # atno 10718 bound_to 10713
  154.6655  135.2931  154.9811 H   0  0  0  0  0  0  0  0  0  0  0  0  # atno 10763 bound_to 10752
  154.0856  135.6598  153.4848 H   0  0  0  0  0  0  0  0  0  0  0  0  # atno 10764 bound_to 10752
  153.0455  135.5208  154.7626 H   0  0  0  0  0  0  0  0  0  0  0  0  # atno 10765 bound_to 10752
  141.1250  133.6616  156.5080 H   0  0  0  0  0  0  0  0  0  0  0  0  # atno 11005 bound_to 11000
  145.3681  141.0338  143.3247 LP  0  0  0  0  0  0  0  0  0  0  0  0  # atno 17320 bound_to 7965
  144.8556  139.5254  143.6836 LP  0  0  0  0  0  0  0  0  0  0  0  0  # atno 17321 bound_to 7965
  139.9189  144.6812  150.8483 LP  0  0  0  0  0  0  0  0  0  0  0  0  # atno 17342 bound_to 10162
  140.7692  143.3389  151.2249 LP  0  0  0  0  0  0  0  0  0  0  0  0  # atno 17343 bound_to 10162
  157.4053  131.0816  151.1271 LP  0  0  0  0  0  0  0  0  0  0  0  0  # atno 17370 bound_to 10713
  157.1920  130.6356  149.5708 LP  0  0  0  0  0  0  0  0  0  0  0  0  # atno 17371 bound_to 10713
  140.4392  134.7031  157.4983 LP  0  0  0  0  0  0  0  0  0  0  0  0  # atno 17394 bound_to 11000
  140.0241  134.6504  155.9198 LP  0  0  0  0  0  0  0  0  0  0  0  0  # atno 17395 bound_to 11000

$$$$
