AV-unprocessed.smi:1840|AV-procd|sdf|7488|dock2
  -GOLD-   22720 9183D 1   1.00000     0.00000
 Structure written by MMmdl.
 43 44  0  0  0  0  0  0  0  0  1 V2000
  151.7637  138.3745  155.2947 C   0  0  0  0  0  0  0  0  0  0  0  0
  150.5799  139.3496  155.4394 C   0  0  2  0  0  0  0  0  0  0  0  0
  149.8702  139.6426  154.1013 C   0  0  0  0  0  0  0  0  0  0  0  0
  148.6041  140.3337  154.2673 N   0  0  0  0  0  0  0  0  0  0  0  0
  148.3848  141.6614  154.5702 C   0  0  0  0  0  0  0  0  0  0  0  0
  147.0332  141.8475  154.6253 C   0  0  0  0  0  0  0  0  0  0  0  0
  146.5028  140.5579  154.3426 C   0  0  0  0  0  0  0  0  0  0  0  0
  147.4453  139.6529  154.1334 N   0  0  0  0  0  0  0  0  0  0  0  0
  151.0343  140.6088  156.0232 N   0  0  0  0  0  0  0  0  0  0  0  0
  150.6998  141.0677  157.2376 C   0  0  0  0  0  0  0  0  0  0  0  0
  149.9470  140.4793  158.0138 O   0  0  0  0  0  0  0  0  0  0  0  0
  151.2968  142.2382  157.5039 N   0  0  0  0  0  0  0  0  0  0  0  0
  151.1773  142.9971  158.7480 C   0  0  2  0  0  0  0  0  0  0  0  0
  150.6862  144.4214  158.4221 C   0  0  0  0  0  0  0  0  0  0  0  0
  150.6048  145.2951  159.6822 C   0  0  0  0  0  0  0  0  0  0  0  0
  151.9556  145.3376  160.4094 C   0  0  0  0  0  0  0  0  0  0  0  0
  152.4424  143.9210  160.7509 C   0  0  0  0  0  0  0  0  0  0  0  0
  152.5322  143.0240  159.4994 C   0  0  1  0  0  0  0  0  0  0  0  0
  153.0238  141.6150  159.8776 C   0  0  0  0  0  0  0  0  0  0  0  0
  151.4374  137.4012  154.9278 H   0  0  0  0  0  0  0  0  0  0  0  0
  152.2564  138.2057  156.2528 H   0  0  0  0  0  0  0  0  0  0  0  0
  152.5106  138.7599  154.6002 H   0  0  0  0  0  0  0  0  0  0  0  0
  149.8484  138.8983  156.1126 H   0  0  0  0  0  0  0  0  0  0  0  0
  150.5094  140.2497  153.4582 H   0  0  0  0  0  0  0  0  0  0  0  0
  149.6826  138.7119  153.5634 H   0  0  0  0  0  0  0  0  0  0  0  0
  149.1990  142.3558  154.7163 H   0  0  0  0  0  0  0  0  0  0  0  0
  146.5040  142.7649  154.8359 H   0  0  0  0  0  0  0  0  0  0  0  0
  145.4678  140.2542  154.2854 H   0  0  0  0  0  0  0  0  0  0  0  0
  151.6600  141.1678  155.4620 H   0  0  0  0  0  0  0  0  0  0  0  0
  151.8960  142.6326  156.7939 H   0  0  0  0  0  0  0  0  0  0  0  0
  150.4394  142.5302  159.4034 H   0  0  0  0  0  0  0  0  0  0  0  0
  151.3598  144.8895  157.7028 H   0  0  0  0  0  0  0  0  0  0  0  0
  149.7067  144.3778  157.9441 H   0  0  0  0  0  0  0  0  0  0  0  0
  150.2928  146.3053  159.4157 H   0  0  0  0  0  0  0  0  0  0  0  0
  149.8397  144.9011  160.3521 H   0  0  0  0  0  0  0  0  0  0  0  0
  152.6948  145.8394  159.7834 H   0  0  0  0  0  0  0  0  0  0  0  0
  151.8679  145.9299  161.3207 H   0  0  0  0  0  0  0  0  0  0  0  0
  153.4169  143.9811  161.2370 H   0  0  0  0  0  0  0  0  0  0  0  0
  151.7640  143.4713  161.4773 H   0  0  0  0  0  0  0  0  0  0  0  0
  153.2790  143.4627  158.8356 H   0  0  0  0  0  0  0  0  0  0  0  0
  152.2994  141.1002  160.5094 H   0  0  0  0  0  0  0  0  0  0  0  0
  153.9667  141.6619  160.4231 H   0  0  0  0  0  0  0  0  0  0  0  0
  153.1928  140.9969  158.9958 H   0  0  0  0  0  0  0  0  0  0  0  0
  1  2  1  0  0  0  0
  1 20  1  0  0  0  0
  1 21  1  0  0  0  0
  1 22  1  0  0  0  0
  2  3  1  0  0  0  0
  2  9  1  0  0  0  0
  2 23  1  0  0  0  0
  3  4  1  0  0  0  0
  3 24  1  0  0  0  0
  3 25  1  0  0  0  0
  4  8  1  0  0  0  0
  4  5  1  0  0  0  0
  5  6  2  0  0  0  0
  5 26  1  0  0  0  0
  6  7  1  0  0  0  0
  6 27  1  0  0  0  0
  7  8  2  0  0  0  0
  7 28  1  0  0  0  0
  9 10  1  0  0  0  0
  9 29  1  0  0  0  0
 10 11  2  0  0  0  0
 10 12  1  0  0  0  0
 12 13  1  0  0  0  0
 12 30  1  0  0  0  0
 13 18  1  0  0  0  0
 13 14  1  0  0  0  0
 13 31  1  0  0  0  0
 14 15  1  0  0  0  0
 14 32  1  0  0  0  0
 14 33  1  0  0  0  0
 15 16  1  0  0  0  0
 15 34  1  0  0  0  0
 15 35  1  0  0  0  0
 16 17  1  0  0  0  0
 16 36  1  0  0  0  0
 16 37  1  0  0  0  0
 17 18  1  0  0  0  0
 17 38  1  0  0  0  0
 17 39  1  0  0  0  0
 18 19  1  0  0  0  0
 18 40  1  0  0  0  0
 19 41  1  0  0  0  0
 19 42  1  0  0  0  0
 19 43  1  0  0  0  0
M  END
> <s_m_source_file>
AV-unprocessed.smi

> <i_m_source_file_index>
1840

> <i_lp_mmshare_version>
43012

> <i_f3d_flags>
0

> <s_epik_input>
bjFbY0hdW2NIXVtjSF1uMVtDSDJdW0NAQEhdKFtDSDNdKVtOSF1DKD1PKVtOSF1bQ0BASF0yW0NIMl1bQ0gyXVtDSDJdW0NIMl1bQ0BIXTJbQ0gzXQ==

> <s_epik_cmdline>
J2VwaWtfcHl0aG9uJywgJy1waCcsICc3LjAnLCAnLXRuJywgJzgnLCAnLW1hJywgJzIwMCcsICctbWV0YWxfYmluZGluZycsICctaW1hZScsICc8aW5maWxlLm1hZT4nLCAnLW9tYWUnLCAnPG91dGZpbGUubWFlPic=

> <r_lp_tautomer_probability>
1

> <r_epik_Ionization_Penalty>
7.38659e-05

> <r_epik_Ionization_Penalty_Charging>
0

> <r_epik_Ionization_Penalty_Neutral>
7.38659e-05

> <r_epik_State_Penalty>
-0

> <r_epik_Charging_Adjusted_Penalty>
0

> <i_epik_Tot_Q>
0

> <i_epik_Tot_abs_Q>
0

> <r_epik_Metal_State_Penalty>
-0

> <b_epik_Metal_Only>
0

> <s_lp_Force_Field>
OPLS_2005

> <r_lp_Energy>
8.70276

> <b_lp_Chiralities_Consistent>
1

> <s_lp_Variant>
AV-unprocessed.smi:1840-1

> <Gold.Version>
5.8.1

> <Gold.Id.Protein>
6NUR|6NUR_protein|mol2

> <Gold.PLP.Fitness>
44.1386

> <Gold.PLP.PLP>
-39.2441

> <Gold.PLP.part.hbond>
0.0000

> <Gold.PLP.part.metal>
0.0000

> <Gold.PLP.part.buried>
-2.9939

> <Gold.PLP.part.nonpolar>
-37.1791

> <Gold.PLP.part.repulsive>
0.3102

> <Gold.PLP.ligand.clash>
0.0000

> <Gold.PLP.ligand.torsion>
0.3272

> <Gold.PLP.Chemscore.Hbond>
0.0000

> <Gold.PLP.Chemscore.CHOScore>
1.8409

> <Gold.PLP.Chemscore.Metal>
0.0000

> <Gold.Chemscore.Hbonds>
donor molecule, donor type, donor heavy atom, donor atom, acceptor molecule, acceptor atom, score
      L1  C     5    26       P1  8028  0.82
      L1  C     7    28       P1 10175  0.95

> <Gold.PLP.Chemscore.Internal.Correction>
0.0260

> <Gold.Rescore>
     Score         DG    S(hbond)    S(metal)    S(lipo)     H(rot)  DE(clash)    DE(int)     intcor
     14.37     -14.89       0.00        0.00     114.55       1.56       0.34       0.18       ----

> <Gold.Chemscore.Fitness>
14.3742

> <Gold.Chemscore.DG>
-14.8948

> <Gold.Chemscore.ZeroCoef>
-5.4800

> <Gold.Chemscore.Hbond>
0.0000

> <Gold.Chemscore.Metal>
0.0000

> <Gold.Chemscore.Lipo>
114.5501

> <Gold.Chemscore.Internal_Hbond>
0.0000

> <Gold.Chemscore.DEClash>
0.3415

> <Gold.Chemscore.DEInternal>
0.1792

> <Gold.Chemscore.Rot>
1.5576

> <Gold.Chemscore.Internal.Correction>
   9.000000E+99

> <Gold.Chemscore.Hbond.Weighted>
-0.0000

> <Gold.Chemscore.Metal.Weighted>
-0.0000

> <Gold.Chemscore.Lipo.Weighted>
-13.4024

> <Gold.Chemscore.Internal_Hbond.Weighted>
0.0000

> <Gold.Chemscore.DEClash.Weighted>
0.3415

> <Gold.Chemscore.DEInternal.Weighted>
0.1792

> <Gold.Chemscore.Rot.Weighted>
3.9875

> <Gold.Chemscore.Internal.Correction.Weighted>
   9.000000E+99

> <Gold.Protein.RotatedTorsions>
[ 6907 6896 6895 6894 ] final   34.67 input  -60.11 | X-H torsion
[ 7974 7965 7964 7962 ] final   32.28 input  175.53 | X-H torsion
[ 8008 7997 7996 7995 ] final  138.85 input   59.86 | X-H torsion
[ 10167 10162 10161 10158 ] final  -41.90 input  -65.29 | X-H torsion
[ 10718 10713 10712 10709 ] final  -79.54 input   66.30 | X-H torsion
[ 10763 10752 10751 10750 ] final   -0.81 input  -60.55 | X-H torsion
[ 11005 11000 10999 10996 ] final -123.37 input  -57.11 | X-H torsion

> <Gold.Protein.ActiveResidues>
 VAL166  LYS551  ARG553  GLY616  TRP617  ASP618  TYR619  PRO620  LYS621  CYS622 
 ASP623  PHE694  ASN695  SER759  ASP760  ASP761  ALA762  ILE779  LEU786  VAL792 
 PHE793  MET794  SER795  GLU796  ALA797  LYS798  CYS799  TRP800  GLU811  SER814 

> <Gold.Protein.RotatedAtoms>
  152.1055  134.9311  160.0568 H   0  0  0  0  0  0  0  0  0  0  0  0  # atno 6907 bound_to 6896
  152.0509  133.4014  159.4385 H   0  0  0  0  0  0  0  0  0  0  0  0  # atno 6908 bound_to 6896
  150.6841  134.3230  159.4838 H   0  0  0  0  0  0  0  0  0  0  0  0  # atno 6909 bound_to 6896
  146.1497  139.6547  142.9107 H   0  0  0  0  0  0  0  0  0  0  0  0  # atno 7974 bound_to 7965
  156.2994  140.2383  156.4141 H   0  0  0  0  0  0  0  0  0  0  0  0  # atno 8008 bound_to 7997
  154.8414  140.0428  157.1564 H   0  0  0  0  0  0  0  0  0  0  0  0  # atno 8009 bound_to 7997
  154.9098  140.2989  155.5276 H   0  0  0  0  0  0  0  0  0  0  0  0  # atno 8010 bound_to 7997
  140.6987  143.3068  151.3132 H   0  0  0  0  0  0  0  0  0  0  0  0  # atno 10167 bound_to 10162
  156.0090  130.4548  150.3664 H   0  0  0  0  0  0  0  0  0  0  0  0  # atno 10718 bound_to 10713
  153.3367  135.6978  153.6901 H   0  0  0  0  0  0  0  0  0  0  0  0  # atno 10763 bound_to 10752
  153.5682  135.3521  155.2827 H   0  0  0  0  0  0  0  0  0  0  0  0  # atno 10764 bound_to 10752
  154.8629  135.4266  154.2570 H   0  0  0  0  0  0  0  0  0  0  0  0  # atno 10765 bound_to 10752
  140.9924  134.0520  157.3638 H   0  0  0  0  0  0  0  0  0  0  0  0  # atno 11005 bound_to 11000
  145.4853  141.0438  143.2623 LP  0  0  0  0  0  0  0  0  0  0  0  0  # atno 17320 bound_to 7965
  144.7888  139.6370  143.7122 LP  0  0  0  0  0  0  0  0  0  0  0  0  # atno 17321 bound_to 7965
  139.6477  144.0421  152.2603 LP  0  0  0  0  0  0  0  0  0  0  0  0  # atno 17342 bound_to 10162
  139.9947  144.6336  150.7783 LP  0  0  0  0  0  0  0  0  0  0  0  0  # atno 17343 bound_to 10162
  157.1750  131.0378  151.2776 LP  0  0  0  0  0  0  0  0  0  0  0  0  # atno 17370 bound_to 10713
  157.4195  130.7430  149.6902 LP  0  0  0  0  0  0  0  0  0  0  0  0  # atno 17371 bound_to 10713
  139.8998  135.0160  156.7214 LP  0  0  0  0  0  0  0  0  0  0  0  0  # atno 17394 bound_to 11000
  140.7019  133.9298  155.8030 LP  0  0  0  0  0  0  0  0  0  0  0  0  # atno 17395 bound_to 11000

$$$$
