AV-unprocessed.smi:1769|AV-procd|sdf|7154|dock10
  -GOLD-   22720 8393D 1   1.00000     0.00000
 Structure written by MMmdl.
 42 43  0  0  0  0  0  0  0  0  2 V2000
  151.4678  137.5803  154.2118 C   0  0  0  0  0  0  0  0  0  0  0  0
  151.2686  139.0551  154.5686 C   0  0  0  0  0  0  0  0  0  0  0  0
  152.2371  139.8098  154.4752 O   0  0  0  0  0  0  0  0  0  0  0  0
  150.0476  139.4796  154.9739 N   0  0  0  0  0  0  0  0  0  0  0  0
  149.6858  140.8709  155.2742 C   0  0  0  0  0  0  0  0  0  0  0  0
  148.7512  141.3893  154.1660 C   0  0  0  0  0  0  0  0  0  0  0  0
  147.5150  140.4814  154.0142 C   0  0  0  0  0  0  0  0  0  0  0  0
  147.9135  138.9936  153.8732 C   0  0  2  0  0  0  0  0  0  0  0  0
  146.6847  138.0770  153.8645 C   0  0  0  0  0  0  0  0  0  0  0  0
  145.8174  138.1934  154.7311 O   0  0  0  0  0  0  0  0  0  0  0  0
  146.6412  137.1445  152.8988 N   0  0  0  0  0  0  0  0  0  0  0  0
  145.6185  136.1102  152.7627 C   0  0  0  0  0  0  0  0  0  0  0  0
  146.2285  134.7048  152.5871 C   0  0  0  0  0  0  0  0  0  0  0  0
  145.5181  133.8578  151.5446 C   0  0  0  0  0  0  0  0  0  0  0  0
  146.0513  132.6132  151.1398 C   0  0  0  0  0  0  0  0  0  0  0  0
  145.3480  131.8318  150.1998 C   0  0  0  0  0  0  0  0  0  0  0  0
  144.1291  132.3145  149.6814 C   0  0  0  0  0  0  0  0  0  0  0  0
  143.6531  133.5121  150.0875 N   0  3  0  0  0  0  0  0  0  0  0  0
  144.2957  134.2896  150.9863 C   0  0  0  0  0  0  0  0  0  0  0  0
  148.8768  138.5960  155.0140 C   0  0  0  0  0  0  0  0  0  0  0  0
  151.2247  136.9396  155.0599 H   0  0  0  0  0  0  0  0  0  0  0  0
  152.5055  137.3876  153.9368 H   0  0  0  0  0  0  0  0  0  0  0  0
  150.8414  137.3008  153.3644 H   0  0  0  0  0  0  0  0  0  0  0  0
  149.1754  140.9072  156.2378 H   0  0  0  0  0  0  0  0  0  0  0  0
  150.5440  141.5335  155.3760 H   0  0  0  0  0  0  0  0  0  0  0  0
  148.4385  142.4103  154.3858 H   0  0  0  0  0  0  0  0  0  0  0  0
  149.2949  141.4289  153.2211 H   0  0  0  0  0  0  0  0  0  0  0  0
  146.8756  140.6145  154.8885 H   0  0  0  0  0  0  0  0  0  0  0  0
  146.9270  140.7995  153.1523 H   0  0  0  0  0  0  0  0  0  0  0  0
  148.4404  138.8725  152.9244 H   0  0  0  0  0  0  0  0  0  0  0  0
  147.3954  137.1275  152.2270 H   0  0  0  0  0  0  0  0  0  0  0  0
  144.9448  136.1223  153.6210 H   0  0  0  0  0  0  0  0  0  0  0  0
  145.0046  136.3518  151.8947 H   0  0  0  0  0  0  0  0  0  0  0  0
  147.2784  134.7954  152.3068 H   0  0  0  0  0  0  0  0  0  0  0  0
  146.2161  134.1786  153.5425 H   0  0  0  0  0  0  0  0  0  0  0  0
  146.9802  132.2513  151.5560 H   0  0  0  0  0  0  0  0  0  0  0  0
  145.7359  130.8735  149.8862 H   0  0  0  0  0  0  0  0  0  0  0  0
  143.5239  131.7827  148.9619 H   0  0  0  0  0  0  0  0  0  0  0  0
  143.8090  135.2200  151.2398 H   0  0  0  0  0  0  0  0  0  0  0  0
  149.1481  137.5425  154.9312 H   0  0  0  0  0  0  0  0  0  0  0  0
  148.3875  138.6970  155.9845 H   0  0  0  0  0  0  0  0  0  0  0  0
  142.7680  133.8420  149.7021 H   0  0  0  0  0  0  0  0  0  0  0  0
  1  2  1  0  0  0  0
  1 21  1  0  0  0  0
  1 22  1  0  0  0  0
  1 23  1  0  0  0  0
  2  3  2  0  0  0  0
  2  4  1  0  0  0  0
  4 20  1  0  0  0  0
  4  5  1  0  0  0  0
  5  6  1  0  0  0  0
  5 24  1  0  0  0  0
  5 25  1  0  0  0  0
  6  7  1  0  0  0  0
  6 26  1  0  0  0  0
  6 27  1  0  0  0  0
  7  8  1  0  0  0  0
  7 28  1  0  0  0  0
  7 29  1  0  0  0  0
  8  9  1  0  0  0  0
  8 20  1  0  0  0  0
  8 30  1  0  0  0  0
  9 10  2  0  0  0  0
  9 11  1  0  0  0  0
 11 12  1  0  0  0  0
 11 31  1  0  0  0  0
 12 13  1  0  0  0  0
 12 32  1  0  0  0  0
 12 33  1  0  0  0  0
 13 14  1  0  0  0  0
 13 34  1  0  0  0  0
 13 35  1  0  0  0  0
 14 19  1  0  0  0  0
 14 15  2  0  0  0  0
 15 16  1  0  0  0  0
 15 36  1  0  0  0  0
 16 17  2  0  0  0  0
 16 37  1  0  0  0  0
 17 18  1  0  0  0  0
 17 38  1  0  0  0  0
 18 19  2  0  0  0  0
 18 42  1  0  0  0  0
 19 39  1  0  0  0  0
 20 40  1  0  0  0  0
 20 41  1  0  0  0  0
M  CHG  1  18   1
M  END
> <s_m_source_file>
AV-unprocessed.smi

> <i_m_source_file_index>
1769

> <i_lp_mmshare_version>
43012

> <i_f3d_flags>
0

> <s_epik_input>
W0NIM11DKD1PKU4xW0NIMl1bQ0gyXVtDSDJdW0NASF0oW0NIMl0xKUMoPU8pW05IXVtDSDJdW0NIMl1jMltjSF1bY0hdW2NIXW5bY0hdMg==

> <s_epik_cmdline>
J2VwaWtfcHl0aG9uJywgJy1waCcsICc3LjAnLCAnLXRuJywgJzgnLCAnLW1hJywgJzIwMCcsICctbWV0YWxfYmluZGluZycsICctaW1hZScsICc8aW5maWxlLm1hZT4nLCAnLW9tYWUnLCAnPG91dGZpbGUubWFlPic=

> <r_epik_Ionization_Penalty>
2.25127

> <r_epik_Ionization_Penalty_Charging>
2.25127

> <r_epik_Ionization_Penalty_Neutral>
1.02261e-06

> <r_epik_State_Penalty>
2.39841

> <r_epik_Charging_Adjusted_Penalty>
4.64968

> <i_epik_Tot_Q>
1

> <i_epik_Tot_abs_Q>
1

> <r_epik_Metal_State_Penalty>
2.41159

> <b_epik_Metal_Only>
0

> <s_lp_Force_Field>
OPLS_2005

> <r_lp_Energy>
29.6354

> <b_lp_Chiralities_Consistent>
1

> <s_lp_Variant>
AV-unprocessed.smi:1769-4

> <Gold.Version>
5.8.1

> <Gold.Id.Protein>
6NUR|6NUR_protein|mol2

> <Gold.PLP.Fitness>
47.9521

> <Gold.PLP.PLP>
-38.3513

> <Gold.PLP.part.hbond>
-3.0000

> <Gold.PLP.part.metal>
0.0000

> <Gold.PLP.part.buried>
-4.8459

> <Gold.PLP.part.nonpolar>
-31.2424

> <Gold.PLP.part.repulsive>
0.2237

> <Gold.PLP.ligand.clash>
0.0000

> <Gold.PLP.ligand.torsion>
0.7096

> <Gold.PLP.Chemscore.Hbond>
3.6640

> <Gold.PLP.Chemscore.CHOScore>
0.0000

> <Gold.PLP.Chemscore.Metal>
0.0000

> <Gold.Chemscore.Hbonds>
donor molecule, donor type, donor heavy atom, donor atom, acceptor molecule, acceptor atom, score
      L1  H    11    31       P1  7948  0.83
      L1  H    18    42       P1 10186  2.00
      P1  H  7989  7998       L1     3  0.70

> <Gold.PLP.Chemscore.Internal.Correction>
0.0280

> <Gold.Rescore>
     Score         DG    S(hbond)    S(metal)    S(lipo)     H(rot)  DE(clash)    DE(int)     intcor
     19.43     -20.50       2.70        0.00      86.58       1.61       0.10       0.98       ----

> <Gold.Chemscore.Fitness>
19.4315

> <Gold.Chemscore.DG>
-20.5038

> <Gold.Chemscore.ZeroCoef>
-5.4800

> <Gold.Chemscore.Hbond>
2.6994

> <Gold.Chemscore.Metal>
0.0000

> <Gold.Chemscore.Lipo>
86.5757

> <Gold.Chemscore.Internal_Hbond>
0.0000

> <Gold.Chemscore.DEClash>
0.0962

> <Gold.Chemscore.DEInternal>
0.9761

> <Gold.Chemscore.Rot>
1.6100

> <Gold.Chemscore.Internal.Correction>
   9.000000E+99

> <Gold.Chemscore.Hbonds>
donor molecule, donor type, donor heavy atom, donor atom, acceptor molecule, acceptor atom, score
      L1  H    11    31       P1  7948  0.83
      L1  H    18    42       P1 10186  1.00
      P1  H  7989  7998       L1     3  0.20

> <Gold.Chemscore.Hbond.Weighted>
-9.0161

> <Gold.Chemscore.Metal.Weighted>
-0.0000

> <Gold.Chemscore.Lipo.Weighted>
-10.1294

> <Gold.Chemscore.Internal_Hbond.Weighted>
0.0000

> <Gold.Chemscore.DEClash.Weighted>
0.0962

> <Gold.Chemscore.DEInternal.Weighted>
0.9761

> <Gold.Chemscore.Rot.Weighted>
4.1216

> <Gold.Chemscore.Internal.Correction.Weighted>
   9.000000E+99

> <Gold.Protein.RotatedTorsions>
[ 6907 6896 6895 6894 ] final -100.09 input  -60.11 | X-H torsion
[ 7974 7965 7964 7962 ] final   28.12 input  175.53 | X-H torsion
[ 8008 7997 7996 7995 ] final -157.37 input   59.86 | X-H torsion
[ 10167 10162 10161 10158 ] final -108.70 input  -65.29 | X-H torsion
[ 10718 10713 10712 10709 ] final  -65.34 input   66.30 | X-H torsion
[ 10763 10752 10751 10750 ] final -179.49 input  -60.55 | X-H torsion
[ 11005 11000 10999 10996 ] final  -25.89 input  -57.11 | X-H torsion

> <Gold.Protein.ActiveResidues>
 VAL166  LYS551  ARG553  GLY616  TRP617  ASP618  TYR619  PRO620  LYS621  CYS622 
 ASP623  PHE694  ASN695  SER759  ASP760  ASP761  ALA762  ILE779  LEU786  VAL792 
 PHE793  MET794  SER795  GLU796  ALA797  LYS798  CYS799  TRP800  GLU811  SER814 

> <Gold.Protein.RotatedAtoms>
  150.7103  134.0940  159.3941 H   0  0  0  0  0  0  0  0  0  0  0  0  # atno 6907 bound_to 6896
  151.8926  135.0408  160.0508 H   0  0  0  0  0  0  0  0  0  0  0  0  # atno 6908 bound_to 6896
  152.2479  133.5155  159.5345 H   0  0  0  0  0  0  0  0  0  0  0  0  # atno 6909 bound_to 6896
  146.1747  139.7099  142.8943 H   0  0  0  0  0  0  0  0  0  0  0  0  # atno 7974 bound_to 7965
  155.7313  140.0802  157.2287 H   0  0  0  0  0  0  0  0  0  0  0  0  # atno 8008 bound_to 7997
  154.4032  140.1594  156.2567 H   0  0  0  0  0  0  0  0  0  0  0  0  # atno 8009 bound_to 7997
  155.9106  140.3404  155.6098 H   0  0  0  0  0  0  0  0  0  0  0  0  # atno 8010 bound_to 7997
  140.1633  143.4103  152.1409 H   0  0  0  0  0  0  0  0  0  0  0  0  # atno 10167 bound_to 10162
  156.0675  130.4246  150.1550 H   0  0  0  0  0  0  0  0  0  0  0  0  # atno 10718 bound_to 10713
  154.5344  135.2802  155.1151 H   0  0  0  0  0  0  0  0  0  0  0  0  # atno 10763 bound_to 10752
  154.2658  135.6313  153.5295 H   0  0  0  0  0  0  0  0  0  0  0  0  # atno 10764 bound_to 10752
  152.9964  135.5616  154.5867 H   0  0  0  0  0  0  0  0  0  0  0  0  # atno 10765 bound_to 10752
  140.8979  133.7544  156.0505 H   0  0  0  0  0  0  0  0  0  0  0  0  # atno 11005 bound_to 11000
  145.4245  141.0409  143.2945 LP  0  0  0  0  0  0  0  0  0  0  0  0  # atno 17320 bound_to 7965
  144.8217  139.5780  143.6984 LP  0  0  0  0  0  0  0  0  0  0  0  0  # atno 17321 bound_to 7965
  139.5371  144.7220  151.4856 LP  0  0  0  0  0  0  0  0  0  0  0  0  # atno 17342 bound_to 10162
  140.6629  143.8460  150.6908 LP  0  0  0  0  0  0  0  0  0  0  0  0  # atno 17343 bound_to 10162
  156.9607  130.9804  151.3480 LP  0  0  0  0  0  0  0  0  0  0  0  0  # atno 17370 bound_to 10713
  157.5726  130.8321  149.8413 LP  0  0  0  0  0  0  0  0  0  0  0  0  # atno 17371 bound_to 10713
  140.8266  134.3227  157.5363 LP  0  0  0  0  0  0  0  0  0  0  0  0  # atno 17394 bound_to 11000
  139.8738  134.9340  156.3594 LP  0  0  0  0  0  0  0  0  0  0  0  0  # atno 17395 bound_to 11000

$$$$
