AV-unprocessed.smi:2229|AV-procd|sdf|9028|dock8
  -GOLD-   2272012233D 1   1.00000     0.00000
 Structure written by MMmdl.
 44 45  0  0  0  0  0  0  0  0  1 V2000
  152.0988  145.1928  158.9625 C   0  0  0  0  0  0  0  0  0  0  0  0
  151.7870  143.6861  158.9521 C   0  0  0  0  0  0  0  0  0  0  0  0
  153.0046  142.8853  159.4380 C   0  0  0  0  0  0  0  0  0  0  0  0
  151.3193  143.1836  157.5698 C   0  0  0  0  0  0  0  0  0  0  0  0
  151.2630  141.6505  157.4579 C   0  0  0  0  0  0  0  0  0  0  0  0
  151.0106  141.1293  156.0251 C   0  0  1  0  0  0  0  0  0  0  0  0
  150.8693  139.6067  155.9278 C   0  0  0  0  0  0  0  0  0  0  0  0
  150.2209  139.3801  154.5661 C   0  0  0  0  0  0  0  0  0  0  0  0
  149.2338  140.5387  154.4080 C   0  0  0  0  0  0  0  0  0  0  0  0
  149.7552  141.6845  155.2994 C   0  0  1  0  0  0  0  0  0  0  0  0
  148.7067  142.1197  156.2240 N   0  0  0  0  0  0  0  0  0  0  0  0
  148.0500  141.3296  157.0877 C   0  0  0  0  0  0  0  0  0  0  0  0
  148.3083  140.1365  157.2487 O   0  0  0  0  0  0  0  0  0  0  0  0
  146.9243  141.9879  157.8919 C   0  0  0  0  0  0  0  0  0  0  0  0
  145.8394  142.4498  157.0249 N   0  0  0  0  0  0  0  0  0  0  0  0
  145.3057  143.7198  157.0827 C   0  0  0  0  0  0  0  0  0  0  0  0
  144.3475  143.8778  156.2344 N   0  0  0  0  0  0  0  0  0  0  0  0
  144.2834  142.6658  155.6329 N   0  0  0  0  0  0  0  0  0  0  0  0
  145.1710  141.7809  156.0888 C   0  0  0  0  0  0  0  0  0  0  0  0
  145.3296  140.6174  155.7233 O   0  0  0  0  0  0  0  0  0  0  0  0
  143.5977  142.5097  154.9079 H   0  0  0  0  0  0  0  0  0  0  0  0
  152.8703  145.4432  158.2337 H   0  0  0  0  0  0  0  0  0  0  0  0
  152.4539  145.5109  159.9430 H   0  0  0  0  0  0  0  0  0  0  0  0
  151.2175  145.7918  158.7354 H   0  0  0  0  0  0  0  0  0  0  0  0
  150.9803  143.5091  159.6650 H   0  0  0  0  0  0  0  0  0  0  0  0
  153.8560  143.0143  158.7690 H   0  0  0  0  0  0  0  0  0  0  0  0
  152.7812  141.8193  159.4913 H   0  0  0  0  0  0  0  0  0  0  0  0
  153.3130  143.2038  160.4344 H   0  0  0  0  0  0  0  0  0  0  0  0
  150.3423  143.6065  157.3332 H   0  0  0  0  0  0  0  0  0  0  0  0
  152.0053  143.5641  156.8128 H   0  0  0  0  0  0  0  0  0  0  0  0
  152.1914  141.2296  157.8450 H   0  0  0  0  0  0  0  0  0  0  0  0
  150.4633  141.2853  158.1011 H   0  0  0  0  0  0  0  0  0  0  0  0
  151.8714  141.4105  155.4159 H   0  0  0  0  0  0  0  0  0  0  0  0
  151.8236  139.0872  156.0200 H   0  0  0  0  0  0  0  0  0  0  0  0
  150.2103  139.2387  156.7155 H   0  0  0  0  0  0  0  0  0  0  0  0
  150.9813  139.4373  153.7862 H   0  0  0  0  0  0  0  0  0  0  0  0
  149.7388  138.4051  154.4883 H   0  0  0  0  0  0  0  0  0  0  0  0
  149.1432  140.8445  153.3652 H   0  0  0  0  0  0  0  0  0  0  0  0
  148.2430  140.2132  154.7299 H   0  0  0  0  0  0  0  0  0  0  0  0
  150.0540  142.5198  154.6633 H   0  0  0  0  0  0  0  0  0  0  0  0
  148.4253  143.0877  156.1645 H   0  0  0  0  0  0  0  0  0  0  0  0
  146.5539  141.2703  158.6258 H   0  0  0  0  0  0  0  0  0  0  0  0
  147.3112  142.8373  158.4580 H   0  0  0  0  0  0  0  0  0  0  0  0
  145.7062  144.4428  157.7954 H   0  0  0  0  0  0  0  0  0  0  0  0
  1  2  1  0  0  0  0
  1 22  1  0  0  0  0
  1 23  1  0  0  0  0
  1 24  1  0  0  0  0
  2  3  1  0  0  0  0
  2  4  1  0  0  0  0
  2 25  1  0  0  0  0
  3 26  1  0  0  0  0
  3 27  1  0  0  0  0
  3 28  1  0  0  0  0
  4  5  1  0  0  0  0
  4 29  1  0  0  0  0
  4 30  1  0  0  0  0
  5  6  1  0  0  0  0
  5 31  1  0  0  0  0
  5 32  1  0  0  0  0
  6 10  1  0  0  0  0
  6  7  1  0  0  0  0
  6 33  1  0  0  0  0
  7  8  1  0  0  0  0
  7 34  1  0  0  0  0
  7 35  1  0  0  0  0
  8  9  1  0  0  0  0
  8 36  1  0  0  0  0
  8 37  1  0  0  0  0
  9 10  1  0  0  0  0
  9 38  1  0  0  0  0
  9 39  1  0  0  0  0
 10 11  1  0  0  0  0
 10 40  1  0  0  0  0
 11 12  1  0  0  0  0
 11 41  1  0  0  0  0
 12 13  2  0  0  0  0
 12 14  1  0  0  0  0
 14 15  1  0  0  0  0
 14 42  1  0  0  0  0
 14 43  1  0  0  0  0
 15 19  1  0  0  0  0
 15 16  1  0  0  0  0
 16 17  2  0  0  0  0
 16 44  1  0  0  0  0
 17 18  1  0  0  0  0
 18 21  1  0  0  0  0
 18 19  1  0  0  0  0
 19 20  2  0  0  0  0
M  END
> <s_m_source_file>
AV-unprocessed.smi

> <i_m_source_file_index>
2229

> <i_lp_mmshare_version>
43012

> <i_f3d_flags>
0

> <s_epik_input>
W0NIM11bQ0hdKFtDSDNdKVtDSDJdW0NIMl1bQ0BASF0xW0NIMl1bQ0gyXVtDSDJdW0NASF0xW05IXUMoPU8pW0NIMl1uMltjSF1uW25IXWMyPU8=

> <s_epik_cmdline>
J2VwaWtfcHl0aG9uJywgJy1waCcsICc3LjAnLCAnLXRuJywgJzgnLCAnLW1hJywgJzIwMCcsICctbWV0YWxfYmluZGluZycsICctaW1hZScsICc8aW5maWxlLm1hZT4nLCAnLW9tYWUnLCAnPG91dGZpbGUubWFlPic=

> <r_lp_tautomer_probability>
1

> <r_epik_Ionization_Penalty>
4.14174e-05

> <r_epik_Ionization_Penalty_Charging>
4.13165e-05

> <r_epik_Ionization_Penalty_Neutral>
1.00911e-07

> <r_epik_State_Penalty>
-0

> <r_epik_Charging_Adjusted_Penalty>
4.13165e-05

> <i_epik_Tot_Q>
0

> <i_epik_Tot_abs_Q>
0

> <r_epik_Metal_State_Penalty>
0.0399369

> <b_epik_Metal_Only>
0

> <s_lp_Force_Field>
OPLS_2005

> <r_lp_Energy>
36.1569

> <b_lp_Chiralities_Consistent>
1

> <s_lp_Variant>
AV-unprocessed.smi:2229-2

> <Gold.Version>
5.8.1

> <Gold.Id.Protein>
6NUR|6NUR_protein|mol2

> <Gold.PLP.Fitness>
41.8403

> <Gold.PLP.PLP>
-36.7700

> <Gold.PLP.part.hbond>
-1.0000

> <Gold.PLP.part.metal>
0.0000

> <Gold.PLP.part.buried>
-4.1058

> <Gold.PLP.part.nonpolar>
-31.7579

> <Gold.PLP.part.repulsive>
0.2255

> <Gold.PLP.ligand.clash>
0.0000

> <Gold.PLP.ligand.torsion>
0.2292

> <Gold.PLP.Chemscore.Hbond>
0.9920

> <Gold.PLP.Chemscore.CHOScore>
0.8373

> <Gold.PLP.Chemscore.Metal>
0.0000

> <Gold.Chemscore.Hbonds>
donor molecule, donor type, donor heavy atom, donor atom, acceptor molecule, acceptor atom, score
      L1  H    11    41       P1  8028  0.94
      L1  C    16    44       P1  8029  0.58

> <Gold.PLP.Chemscore.Internal.Correction>
0.0409

> <Gold.Rescore>
     Score         DG    S(hbond)    S(metal)    S(lipo)     H(rot)  DE(clash)    DE(int)     intcor
     10.35     -12.49       0.89        0.00      92.13       2.64       0.00       2.13       ----

> <Gold.Chemscore.Fitness>
10.3535

> <Gold.Chemscore.DG>
-12.4860

> <Gold.Chemscore.ZeroCoef>
-5.4800

> <Gold.Chemscore.Hbond>
0.8912

> <Gold.Chemscore.Metal>
0.0000

> <Gold.Chemscore.Lipo>
92.1335

> <Gold.Chemscore.Internal_Hbond>
0.0000

> <Gold.Chemscore.DEClash>
0.0009

> <Gold.Chemscore.DEInternal>
2.1317

> <Gold.Chemscore.Rot>
2.6368

> <Gold.Chemscore.Internal.Correction>
   9.000000E+99

> <Gold.Chemscore.Hbonds>
donor molecule, donor type, donor heavy atom, donor atom, acceptor molecule, acceptor atom, score
      L1  H    11    41       P1  8028  0.80

> <Gold.Chemscore.Hbond.Weighted>
-2.9765

> <Gold.Chemscore.Metal.Weighted>
-0.0000

> <Gold.Chemscore.Lipo.Weighted>
-10.7796

> <Gold.Chemscore.Internal_Hbond.Weighted>
0.0000

> <Gold.Chemscore.DEClash.Weighted>
0.0009

> <Gold.Chemscore.DEInternal.Weighted>
2.1317

> <Gold.Chemscore.Rot.Weighted>
6.7501

> <Gold.Chemscore.Internal.Correction.Weighted>
   9.000000E+99

> <Gold.Protein.RotatedTorsions>
[ 6907 6896 6895 6894 ] final   87.20 input  -60.11 | X-H torsion
[ 7974 7965 7964 7962 ] final -145.23 input  175.53 | X-H torsion
[ 8008 7997 7996 7995 ] final  -10.83 input   59.86 | X-H torsion
[ 10167 10162 10161 10158 ] final  109.50 input  -65.29 | X-H torsion
[ 10718 10713 10712 10709 ] final   -0.01 input   66.30 | X-H torsion
[ 10763 10752 10751 10750 ] final   64.28 input  -60.55 | X-H torsion
[ 11005 11000 10999 10996 ] final  -11.83 input  -57.11 | X-H torsion

> <Gold.Protein.ActiveResidues>
 VAL166  LYS551  ARG553  GLY616  TRP617  ASP618  TYR619  PRO620  LYS621  CYS622 
 ASP623  PHE694  ASN695  SER759  ASP760  ASP761  ALA762  ILE779  LEU786  VAL792 
 PHE793  MET794  SER795  GLU796  ALA797  LYS798  CYS799  TRP800  GLU811  SER814 

> <Gold.Protein.RotatedAtoms>
  152.5407  134.2313  159.8825 H   0  0  0  0  0  0  0  0  0  0  0  0  # atno 6907 bound_to 6896
  151.2285  133.4457  159.2610 H   0  0  0  0  0  0  0  0  0  0  0  0  # atno 6908 bound_to 6896
  151.0738  134.9828  159.8378 H   0  0  0  0  0  0  0  0  0  0  0  0  # atno 6909 bound_to 6896
  144.8242  140.5610  143.5558 H   0  0  0  0  0  0  0  0  0  0  0  0  # atno 7974 bound_to 7965
  154.5519  140.2318  155.8472 H   0  0  0  0  0  0  0  0  0  0  0  0  # atno 8008 bound_to 7997
  156.1954  140.3066  155.9377 H   0  0  0  0  0  0  0  0  0  0  0  0  # atno 8009 bound_to 7997
  155.3055  140.0433  157.3022 H   0  0  0  0  0  0  0  0  0  0  0  0  # atno 8010 bound_to 7997
  139.6761  144.7122  151.1599 H   0  0  0  0  0  0  0  0  0  0  0  0  # atno 10167 bound_to 10162
  156.8268  130.5475  149.5691 H   0  0  0  0  0  0  0  0  0  0  0  0  # atno 10718 bound_to 10713
  153.0049  135.5399  154.6484 H   0  0  0  0  0  0  0  0  0  0  0  0  # atno 10763 bound_to 10752
  154.5722  135.2842  155.0818 H   0  0  0  0  0  0  0  0  0  0  0  0  # atno 10764 bound_to 10752
  154.1979  135.6489  153.5131 H   0  0  0  0  0  0  0  0  0  0  0  0  # atno 10765 bound_to 10752
  140.7594  133.8527  155.9111 H   0  0  0  0  0  0  0  0  0  0  0  0  # atno 11005 bound_to 11000
  145.5037  139.1482  143.3643 LP  0  0  0  0  0  0  0  0  0  0  0  0  # atno 17320 bound_to 7965
  146.2547  140.5177  142.8878 LP  0  0  0  0  0  0  0  0  0  0  0  0  # atno 17321 bound_to 7965
  140.7636  143.5769  150.8936 LP  0  0  0  0  0  0  0  0  0  0  0  0  # atno 17342 bound_to 10162
  139.9438  143.6351  152.3047 LP  0  0  0  0  0  0  0  0  0  0  0  0  # atno 17343 bound_to 10162
  156.0957  130.5930  150.9809 LP  0  0  0  0  0  0  0  0  0  0  0  0  # atno 17370 bound_to 10713
  157.6428  131.0908  150.8216 LP  0  0  0  0  0  0  0  0  0  0  0  0  # atno 17371 bound_to 10713
  140.9677  134.1572  157.4602 LP  0  0  0  0  0  0  0  0  0  0  0  0  # atno 17394 bound_to 11000
  139.8773  134.9967  156.5811 LP  0  0  0  0  0  0  0  0  0  0  0  0  # atno 17395 bound_to 11000

$$$$
