AV-unprocessed.smi:821|AV-procd|sdf|3841|dock10
  -GOLD-   22720 1283D 1   1.00000     0.00000
 Structure written by MMmdl.
 45 46  0  0  0  0  0  0  0  0  2 V2000
  146.9150  141.4518  154.2428 C   0  0  0  0  0  0  0  0  0  0  0  0
  147.3062  142.1904  155.5299 C   0  0  1  0  0  0  0  0  0  0  0  0
  146.5774  141.6015  156.7596 C   0  0  0  0  0  0  0  0  0  0  0  0
  146.5487  142.5307  157.9175 N   0  3  0  0  0  0  0  0  0  0  0  0
  145.6094  142.1141  158.9872 C   0  0  0  0  0  0  0  0  0  0  0  0
  145.5792  143.1682  160.1059 C   0  0  0  0  0  0  0  0  0  0  0  0
  146.8932  143.3552  160.6184 O   0  0  0  0  0  0  0  0  0  0  0  0
  147.7930  143.8269  159.6227 C   0  0  0  0  0  0  0  0  0  0  0  0
  147.8913  142.7977  158.4835 C   0  0  0  0  0  0  0  0  0  0  0  0
  148.7595  142.1280  155.6906 N   0  0  0  0  0  0  0  0  0  0  0  0
  149.4715  141.0439  156.0365 C   0  0  0  0  0  0  0  0  0  0  0  0
  148.9668  139.9354  156.2188 O   0  0  0  0  0  0  0  0  0  0  0  0
  150.9878  141.2478  156.1614 C   0  0  0  0  0  0  0  0  0  0  0  0
  151.3902  141.8516  157.4432 N   0  0  0  0  0  0  0  0  0  0  0  0
  150.8133  143.0913  157.7721 C   0  0  0  0  0  0  0  0  0  0  0  0
  151.1119  143.7270  158.9131 C   0  0  0  0  0  0  0  0  0  0  0  0
  152.0511  143.1057  159.8150 C   0  0  0  0  0  0  0  0  0  0  0  0
  152.6264  141.9161  159.5235 C   0  0  0  0  0  0  0  0  0  0  0  0
  153.6197  141.2428  160.4684 C   0  0  0  0  0  0  0  0  0  0  0  0
  154.8538  141.2962  159.9661 F   0  0  0  0  0  0  0  0  0  0  0  0
  153.6411  141.8315  161.6651 F   0  0  0  0  0  0  0  0  0  0  0  0
  153.2990  139.9611  160.6506 F   0  0  0  0  0  0  0  0  0  0  0  0
  152.2945  141.2267  158.2598 C   0  0  0  0  0  0  0  0  0  0  0  0
  152.7979  140.1468  157.9449 O   0  0  0  0  0  0  0  0  0  0  0  0
  145.8402  141.5104  154.0687 H   0  0  0  0  0  0  0  0  0  0  0  0
  147.1873  140.3968  154.2897 H   0  0  0  0  0  0  0  0  0  0  0  0
  147.4115  141.8860  153.3741 H   0  0  0  0  0  0  0  0  0  0  0  0
  147.0051  143.2305  155.3977 H   0  0  0  0  0  0  0  0  0  0  0  0
  145.5586  141.3072  156.5021 H   0  0  0  0  0  0  0  0  0  0  0  0
  147.0921  140.6842  157.0497 H   0  0  0  0  0  0  0  0  0  0  0  0
  144.6053  141.9852  158.5837 H   0  0  0  0  0  0  0  0  0  0  0  0
  145.9173  141.1488  159.3922 H   0  0  0  0  0  0  0  0  0  0  0  0
  145.1784  144.1146  159.7387 H   0  0  0  0  0  0  0  0  0  0  0  0
  144.9277  142.8389  160.9153 H   0  0  0  0  0  0  0  0  0  0  0  0
  147.4605  144.7954  159.2450 H   0  0  0  0  0  0  0  0  0  0  0  0
  148.7725  143.9808  160.0757 H   0  0  0  0  0  0  0  0  0  0  0  0
  148.3260  141.8672  158.8523 H   0  0  0  0  0  0  0  0  0  0  0  0
  148.5540  143.1773  157.7051 H   0  0  0  0  0  0  0  0  0  0  0  0
  149.2636  142.9931  155.5561 H   0  0  0  0  0  0  0  0  0  0  0  0
  151.4717  140.2798  156.0252 H   0  0  0  0  0  0  0  0  0  0  0  0
  151.3427  141.8610  155.3305 H   0  0  0  0  0  0  0  0  0  0  0  0
  150.1251  143.4906  157.0413 H   0  0  0  0  0  0  0  0  0  0  0  0
  150.6633  144.6806  159.1506 H   0  0  0  0  0  0  0  0  0  0  0  0
  152.2881  143.6139  160.7377 H   0  0  0  0  0  0  0  0  0  0  0  0
  146.2126  143.4144  157.5614 H   0  0  0  0  0  0  0  0  0  0  0  0
  1  2  1  0  0  0  0
  1 25  1  0  0  0  0
  1 26  1  0  0  0  0
  1 27  1  0  0  0  0
  2  3  1  0  0  0  0
  2 10  1  0  0  0  0
  2 28  1  0  0  0  0
  3  4  1  0  0  0  0
  3 29  1  0  0  0  0
  3 30  1  0  0  0  0
  4  9  1  0  0  0  0
  4  5  1  0  0  0  0
  4 45  1  0  0  0  0
  5  6  1  0  0  0  0
  5 31  1  0  0  0  0
  5 32  1  0  0  0  0
  6  7  1  0  0  0  0
  6 33  1  0  0  0  0
  6 34  1  0  0  0  0
  7  8  1  0  0  0  0
  8  9  1  0  0  0  0
  8 35  1  0  0  0  0
  8 36  1  0  0  0  0
  9 37  1  0  0  0  0
  9 38  1  0  0  0  0
 10 11  1  0  0  0  0
 10 39  1  0  0  0  0
 11 12  2  0  0  0  0
 11 13  1  0  0  0  0
 13 14  1  0  0  0  0
 13 40  1  0  0  0  0
 13 41  1  0  0  0  0
 14 23  1  0  0  0  0
 14 15  1  0  0  0  0
 15 16  2  0  0  0  0
 15 42  1  0  0  0  0
 16 17  1  0  0  0  0
 16 43  1  0  0  0  0
 17 18  2  0  0  0  0
 17 44  1  0  0  0  0
 18 19  1  0  0  0  0
 18 23  1  0  0  0  0
 19 20  1  0  0  0  0
 19 21  1  0  0  0  0
 19 22  1  0  0  0  0
 23 24  2  0  0  0  0
M  CHG  1   4   1
M  END
> <s_m_source_file>
AV-unprocessed.smi

> <i_m_source_file_index>
821

> <i_lp_mmshare_version>
43012

> <i_f3d_flags>
0

> <s_epik_input>
W0NIMl0xW0NIMl1PW0NIMl1bQ0gyXU4xW0NIMl1bQ0BASF0oW0NIM10pW05IXUMoPU8pW0NIMl1uMltjSF1bY0hdW2NIXWMoQyhGKShGKUYpYzI9Tw==

> <s_epik_cmdline>
J2VwaWtfcHl0aG9uJywgJy1waCcsICc3LjAnLCAnLXRuJywgJzgnLCAnLW1hJywgJzIwMCcsICctbWV0YWxfYmluZGluZycsICctaW1hZScsICc8aW5maWxlLm1hZT4nLCAnLW9tYWUnLCAnPG91dGZpbGUubWFlPic=

> <r_lp_tautomer_probability>
1

> <r_epik_Ionization_Penalty>
0.656654

> <r_epik_Ionization_Penalty_Charging>
0.656653

> <r_epik_Ionization_Penalty_Neutral>
9.12373e-08

> <r_epik_State_Penalty>
0.675641

> <r_epik_Charging_Adjusted_Penalty>
1.33229

> <i_epik_Tot_Q>
1

> <i_epik_Tot_abs_Q>
1

> <r_epik_Metal_State_Penalty>
0.675695

> <b_epik_Metal_Only>
0

> <s_lp_Force_Field>
OPLS_2005

> <r_lp_Energy>
32.7589

> <b_lp_Chiralities_Consistent>
1

> <s_lp_Variant>
AV-unprocessed.smi:821-4

> <Gold.Version>
5.8.1

> <Gold.Id.Protein>
6NUR|6NUR_protein|mol2

> <Gold.PLP.Fitness>
47.3506

> <Gold.PLP.PLP>
-39.3171

> <Gold.PLP.part.hbond>
-3.0960

> <Gold.PLP.part.metal>
0.0000

> <Gold.PLP.part.buried>
-2.3525

> <Gold.PLP.part.nonpolar>
-33.0586

> <Gold.PLP.part.repulsive>
0.2272

> <Gold.PLP.ligand.clash>
0.0000

> <Gold.PLP.ligand.torsion>
0.9773

> <Gold.PLP.Chemscore.Hbond>
2.2100

> <Gold.PLP.Chemscore.CHOScore>
1.0000

> <Gold.PLP.Chemscore.Metal>
0.0000

> <Gold.Chemscore.Hbonds>
donor molecule, donor type, donor heavy atom, donor atom, acceptor molecule, acceptor atom, score
      L1  H    10    39       P1  8028  0.72
      P1  H  6933  6944       L1     7  0.32
      P1  H  7997  8010       L1    24  0.99
      L1  C    15    42       P1  8028  1.00

> <Gold.PLP.Chemscore.Internal.Correction>
0.3581

> <Gold.Rescore>
     Score         DG    S(hbond)    S(metal)    S(lipo)     H(rot)  DE(clash)    DE(int)     intcor
     11.66     -15.05       1.92        0.00      74.42       2.17       0.19       3.19       ----

> <Gold.Chemscore.Fitness>
11.6643

> <Gold.Chemscore.DG>
-15.0496

> <Gold.Chemscore.ZeroCoef>
-5.4800

> <Gold.Chemscore.Hbond>
1.9228

> <Gold.Chemscore.Metal>
0.0000

> <Gold.Chemscore.Lipo>
74.4153

> <Gold.Chemscore.Internal_Hbond>
0.0000

> <Gold.Chemscore.DEClash>
0.1916

> <Gold.Chemscore.DEInternal>
3.1937

> <Gold.Chemscore.Rot>
2.1716

> <Gold.Chemscore.Internal.Correction>
   9.000000E+99

> <Gold.Chemscore.Hbonds>
donor molecule, donor type, donor heavy atom, donor atom, acceptor molecule, acceptor atom, score
      L1  H    10    39       P1  8028  0.72
      P1  H  6933  6944       L1     7  0.01
      P1  H  7997  8010       L1    24  0.89

> <Gold.Chemscore.Hbond.Weighted>
-6.4222

> <Gold.Chemscore.Metal.Weighted>
-0.0000

> <Gold.Chemscore.Lipo.Weighted>
-8.7066

> <Gold.Chemscore.Internal_Hbond.Weighted>
0.0000

> <Gold.Chemscore.DEClash.Weighted>
0.1916

> <Gold.Chemscore.DEInternal.Weighted>
3.1937

> <Gold.Chemscore.Rot.Weighted>
5.5592

> <Gold.Chemscore.Internal.Correction.Weighted>
   9.000000E+99

> <Gold.Protein.RotatedTorsions>
[ 6907 6896 6895 6894 ] final   22.32 input  -60.11 | X-H torsion
[ 7974 7965 7964 7962 ] final   37.91 input  175.53 | X-H torsion
[ 8008 7997 7996 7995 ] final   51.21 input   59.86 | X-H torsion
[ 10167 10162 10161 10158 ] final   73.17 input  -65.29 | X-H torsion
[ 10718 10713 10712 10709 ] final   10.18 input   66.30 | X-H torsion
[ 10763 10752 10751 10750 ] final  160.31 input  -60.55 | X-H torsion
[ 11005 11000 10999 10996 ] final -120.11 input  -57.11 | X-H torsion

> <Gold.Protein.ActiveResidues>
 VAL166  LYS551  ARG553  GLY616  TRP617  ASP618  TYR619  PRO620  LYS621  CYS622 
 ASP623  PHE694  ASN695  SER759  ASP760  ASP761  ALA762  ILE779  LEU786  VAL792 
 PHE793  MET794  SER795  GLU796  ALA797  LYS798  CYS799  TRP800  GLU811  SER814 

> <Gold.Protein.RotatedAtoms>
  151.9253  135.0280  160.0524 H   0  0  0  0  0  0  0  0  0  0  0  0  # atno 6907 bound_to 6896
  152.2165  133.4946  159.5147 H   0  0  0  0  0  0  0  0  0  0  0  0  # atno 6908 bound_to 6896
  150.6989  134.1316  159.4114 H   0  0  0  0  0  0  0  0  0  0  0  0  # atno 6909 bound_to 6896
  146.1102  139.5837  142.9357 H   0  0  0  0  0  0  0  0  0  0  0  0  # atno 7974 bound_to 7965
  155.4315  140.3451  155.4280 H   0  0  0  0  0  0  0  0  0  0  0  0  # atno 8008 bound_to 7997
  156.1333  140.1520  156.9063 H   0  0  0  0  0  0  0  0  0  0  0  0  # atno 8009 bound_to 7997
  154.4912  140.0840  156.7578 H   0  0  0  0  0  0  0  0  0  0  0  0  # atno 8010 bound_to 7997
  140.0274  144.5493  150.7534 H   0  0  0  0  0  0  0  0  0  0  0  0  # atno 10167 bound_to 10162
  156.9771  130.5991  149.5673 H   0  0  0  0  0  0  0  0  0  0  0  0  # atno 10718 bound_to 10713
  154.2454  135.2773  155.2837 H   0  0  0  0  0  0  0  0  0  0  0  0  # atno 10763 bound_to 10752
  154.5510  135.5675  153.6925 H   0  0  0  0  0  0  0  0  0  0  0  0  # atno 10764 bound_to 10752
  152.9991  135.6274  154.2600 H   0  0  0  0  0  0  0  0  0  0  0  0  # atno 10765 bound_to 10752
  141.0167  134.0185  157.3340 H   0  0  0  0  0  0  0  0  0  0  0  0  # atno 11005 bound_to 11000
  145.5679  141.0397  143.2190 LP  0  0  0  0  0  0  0  0  0  0  0  0  # atno 17320 bound_to 7965
  144.7505  139.7206  143.7275 LP  0  0  0  0  0  0  0  0  0  0  0  0  # atno 17321 bound_to 7965
  140.7317  143.2697  151.3929 LP  0  0  0  0  0  0  0  0  0  0  0  0  # atno 17342 bound_to 10162
  139.6099  144.1120  152.2288 LP  0  0  0  0  0  0  0  0  0  0  0  0  # atno 17343 bound_to 10162
  156.0259  130.5353  150.8405 LP  0  0  0  0  0  0  0  0  0  0  0  0  # atno 17370 bound_to 10713
  157.5552  131.0945  150.9639 LP  0  0  0  0  0  0  0  0  0  0  0  0  # atno 17371 bound_to 10713
  139.9121  135.0192  156.7734 LP  0  0  0  0  0  0  0  0  0  0  0  0  # atno 17394 bound_to 11000
  140.6643  133.9617  155.7821 LP  0  0  0  0  0  0  0  0  0  0  0  0  # atno 17395 bound_to 11000

$$$$
