AV-unprocessed.smi:1666|AV-procd|sdf|6671|dock2
  -GOLD-   22720 7383D 1   1.00000     0.00000
 Structure written by MMmdl.
 39 40  0  0  0  0  0  0  0  0  1 V2000
  147.7487  133.0808  152.3756 C   0  0  0  0  0  0  0  0  0  0  0  0
  146.4468  133.1055  151.5912 C   0  0  0  0  0  0  0  0  0  0  0  0
  145.8700  131.8877  151.1727 C   0  0  0  0  0  0  0  0  0  0  0  0
  144.6672  131.9123  150.4462 C   0  0  0  0  0  0  0  0  0  0  0  0
  144.0888  133.1623  150.1669 C   0  0  0  0  0  0  0  0  0  0  0  0
  144.6336  134.3308  150.5625 N   0  0  0  0  0  0  0  0  0  0  0  0
  145.7947  134.3249  151.2643 C   0  0  0  0  0  0  0  0  0  0  0  0
  146.4258  135.5183  151.7157 N   0  0  0  0  0  0  0  0  0  0  0  0
  145.8534  136.6529  152.1554 C   0  0  0  0  0  0  0  0  0  0  0  0
  144.6413  136.8501  152.2466 O   0  0  0  0  0  0  0  0  0  0  0  0
  146.7803  137.5664  152.4799 N   0  0  0  0  0  0  0  0  0  0  0  0
  146.5046  138.9286  152.9268 C   0  0  0  0  0  0  0  0  0  0  0  0
  146.6736  139.0633  154.4524 C   0  0  0  0  0  0  0  0  0  0  0  0
  148.0243  139.3878  154.9112 N   0  0  0  0  0  0  0  0  0  0  0  0
  149.0330  138.4652  154.3950 C   0  0  0  0  0  0  0  0  0  0  0  0
  150.4440  138.8304  154.8874 C   0  0  0  0  0  0  0  0  0  0  0  0
  150.7473  140.1718  154.5176 O   0  0  0  0  0  0  0  0  0  0  0  0
  149.8083  141.1093  155.0343 C   0  0  0  0  0  0  0  0  0  0  0  0
  148.3960  140.7486  154.5420 C   0  0  0  0  0  0  0  0  0  0  0  0
  148.0939  132.0597  152.5403 H   0  0  0  0  0  0  0  0  0  0  0  0
  147.6168  133.5511  153.3504 H   0  0  0  0  0  0  0  0  0  0  0  0
  148.5297  133.6160  151.8349 H   0  0  0  0  0  0  0  0  0  0  0  0
  146.3412  130.9437  151.4041 H   0  0  0  0  0  0  0  0  0  0  0  0
  144.2001  130.9977  150.1120 H   0  0  0  0  0  0  0  0  0  0  0  0
  143.1647  133.2266  149.6119 H   0  0  0  0  0  0  0  0  0  0  0  0
  147.4343  135.5102  151.6856 H   0  0  0  0  0  0  0  0  0  0  0  0
  147.7518  137.3137  152.3749 H   0  0  0  0  0  0  0  0  0  0  0  0
  147.1099  139.6597  152.3897 H   0  0  0  0  0  0  0  0  0  0  0  0
  145.4711  139.1543  152.6642 H   0  0  0  0  0  0  0  0  0  0  0  0
  145.9734  139.8119  154.8258 H   0  0  0  0  0  0  0  0  0  0  0  0
  146.3636  138.1192  154.9029 H   0  0  0  0  0  0  0  0  0  0  0  0
  148.8103  137.4448  154.7031 H   0  0  0  0  0  0  0  0  0  0  0  0
  149.0179  138.4720  153.3042 H   0  0  0  0  0  0  0  0  0  0  0  0
  150.5145  138.7192  155.9706 H   0  0  0  0  0  0  0  0  0  0  0  0
  151.1842  138.1620  154.4476 H   0  0  0  0  0  0  0  0  0  0  0  0
  149.8479  141.1111  156.1247 H   0  0  0  0  0  0  0  0  0  0  0  0
  150.0826  142.1106  154.7018 H   0  0  0  0  0  0  0  0  0  0  0  0
  148.3508  140.8636  153.4579 H   0  0  0  0  0  0  0  0  0  0  0  0
  147.6785  141.4550  154.9606 H   0  0  0  0  0  0  0  0  0  0  0  0
  1  2  1  0  0  0  0
  1 20  1  0  0  0  0
  1 21  1  0  0  0  0
  1 22  1  0  0  0  0
  2  7  1  0  0  0  0
  2  3  2  0  0  0  0
  3  4  1  0  0  0  0
  3 23  1  0  0  0  0
  4  5  2  0  0  0  0
  4 24  1  0  0  0  0
  5  6  1  0  0  0  0
  5 25  1  0  0  0  0
  6  7  2  0  0  0  0
  7  8  1  0  0  0  0
  8  9  1  0  0  0  0
  8 26  1  0  0  0  0
  9 10  2  0  0  0  0
  9 11  1  0  0  0  0
 11 12  1  0  0  0  0
 11 27  1  0  0  0  0
 12 13  1  0  0  0  0
 12 28  1  0  0  0  0
 12 29  1  0  0  0  0
 13 14  1  0  0  0  0
 13 30  1  0  0  0  0
 13 31  1  0  0  0  0
 14 19  1  0  0  0  0
 14 15  1  0  0  0  0
 15 16  1  0  0  0  0
 15 32  1  0  0  0  0
 15 33  1  0  0  0  0
 16 17  1  0  0  0  0
 16 34  1  0  0  0  0
 16 35  1  0  0  0  0
 17 18  1  0  0  0  0
 18 19  1  0  0  0  0
 18 36  1  0  0  0  0
 18 37  1  0  0  0  0
 19 38  1  0  0  0  0
 19 39  1  0  0  0  0
M  END
> <s_m_source_file>
AV-unprocessed.smi

> <i_m_source_file_index>
1666

> <i_lp_mmshare_version>
43012

> <i_f3d_flags>
0

> <s_epik_input>
W0NIM11jMVtjSF1bY0hdW2NIXW5jMVtOSF1DKD1PKVtOSF1bQ0gyXVtDSDJdTjJbQ0gyXVtDSDJdT1tDSDJdW0NIMl0y

> <s_epik_cmdline>
J2VwaWtfcHl0aG9uJywgJy1waCcsICc3LjAnLCAnLXRuJywgJzgnLCAnLW1hJywgJzIwMCcsICctbWV0YWxfYmluZGluZycsICctaW1hZScsICc8aW5maWxlLm1hZT4nLCAnLW9tYWUnLCAnPG91dGZpbGUubWFlPic=

> <r_epik_Ionization_Penalty>
0.266047

> <r_epik_Ionization_Penalty_Charging>
0

> <r_epik_Ionization_Penalty_Neutral>
0.266047

> <r_epik_State_Penalty>
0.257924

> <r_epik_Charging_Adjusted_Penalty>
0.257924

> <i_epik_Tot_Q>
0

> <i_epik_Tot_abs_Q>
0

> <r_epik_Metal_State_Penalty>
0.257922

> <b_epik_Metal_Only>
0

> <s_lp_Force_Field>
OPLS_2005

> <r_lp_Energy>
28.1058

> <b_lp_Chiralities_Consistent>
1

> <s_lp_Variant>
AV-unprocessed.smi:1666-1

> <Gold.Version>
5.8.1

> <Gold.Id.Protein>
6NUR|6NUR_protein|mol2

> <Gold.PLP.Fitness>
43.4210

> <Gold.PLP.PLP>
-32.5353

> <Gold.PLP.part.hbond>
-2.9600

> <Gold.PLP.part.metal>
0.0000

> <Gold.PLP.part.buried>
-5.0659

> <Gold.PLP.part.nonpolar>
-26.1348

> <Gold.PLP.part.repulsive>
0.9824

> <Gold.PLP.ligand.clash>
0.0000

> <Gold.PLP.ligand.torsion>
0.5757

> <Gold.PLP.Chemscore.Hbond>
3.0000

> <Gold.PLP.Chemscore.CHOScore>
1.0000

> <Gold.PLP.Chemscore.Metal>
0.0000

> <Gold.Chemscore.Hbonds>
donor molecule, donor type, donor heavy atom, donor atom, acceptor molecule, acceptor atom, score
      L1  H     8    26       P1  7948  1.00
      L1  H    11    27       P1  7948  1.00
      P1  H  7989  7998       L1    17  0.98
      L1  C     5    25       P1 10186  1.00

> <Gold.PLP.Chemscore.Internal.Correction>
0.0370

> <Gold.Rescore>
     Score         DG    S(hbond)    S(metal)    S(lipo)     H(rot)  DE(clash)    DE(int)     intcor
     18.62     -20.24       2.90        0.00      75.82       1.49       0.03       1.58       ----

> <Gold.Chemscore.Fitness>
18.6160

> <Gold.Chemscore.DG>
-20.2355

> <Gold.Chemscore.ZeroCoef>
-5.4800

> <Gold.Chemscore.Hbond>
2.9026

> <Gold.Chemscore.Metal>
0.0000

> <Gold.Chemscore.Lipo>
75.8212

> <Gold.Chemscore.Internal_Hbond>
0.0000

> <Gold.Chemscore.DEClash>
0.0346

> <Gold.Chemscore.DEInternal>
1.5850

> <Gold.Chemscore.Rot>
1.4884

> <Gold.Chemscore.Internal.Correction>
   9.000000E+99

> <Gold.Chemscore.Hbonds>
donor molecule, donor type, donor heavy atom, donor atom, acceptor molecule, acceptor atom, score
      L1  H     8    26       P1  7948  0.96
      L1  H    11    27       P1  7948  0.95
      P1  H  7989  7998       L1    17  0.64

> <Gold.Chemscore.Hbond.Weighted>
-9.6948

> <Gold.Chemscore.Metal.Weighted>
-0.0000

> <Gold.Chemscore.Lipo.Weighted>
-8.8711

> <Gold.Chemscore.Internal_Hbond.Weighted>
0.0000

> <Gold.Chemscore.DEClash.Weighted>
0.0346

> <Gold.Chemscore.DEInternal.Weighted>
1.5850

> <Gold.Chemscore.Rot.Weighted>
3.8103

> <Gold.Chemscore.Internal.Correction.Weighted>
   9.000000E+99

> <Gold.Protein.RotatedTorsions>
[ 6907 6896 6895 6894 ] final  -56.17 input  -60.11 | X-H torsion
[ 7974 7965 7964 7962 ] final  119.37 input  175.53 | X-H torsion
[ 8008 7997 7996 7995 ] final -131.79 input   59.86 | X-H torsion
[ 10167 10162 10161 10158 ] final  -76.05 input  -65.29 | X-H torsion
[ 10718 10713 10712 10709 ] final  -35.41 input   66.30 | X-H torsion
[ 10763 10752 10751 10750 ] final -141.28 input  -60.55 | X-H torsion
[ 11005 11000 10999 10996 ] final  111.44 input  -57.11 | X-H torsion

> <Gold.Protein.ActiveResidues>
 VAL166  LYS551  ARG553  GLY616  TRP617  ASP618  TYR619  PRO620  LYS621  CYS622 
 ASP623  PHE694  ASN695  SER759  ASP760  ASP761  ALA762  ILE779  LEU786  VAL792 
 PHE793  MET794  SER795  GLU796  ALA797  LYS798  CYS799  TRP800  GLU811  SER814 

> <Gold.Protein.RotatedAtoms>
  150.8190  134.7387  159.6755 H   0  0  0  0  0  0  0  0  0  0  0  0  # atno 6907 bound_to 6896
  152.4307  134.5780  159.9949 H   0  0  0  0  0  0  0  0  0  0  0  0  # atno 6908 bound_to 6896
  151.5969  133.3323  159.3075 H   0  0  0  0  0  0  0  0  0  0  0  0  # atno 6909 bound_to 6896
  145.1439  139.3251  143.4601 H   0  0  0  0  0  0  0  0  0  0  0  0  # atno 7974 bound_to 7965
  155.3182  140.0461  157.3038 H   0  0  0  0  0  0  0  0  0  0  0  0  # atno 8008 bound_to 7997
  154.5395  140.2283  155.8632 H   0  0  0  0  0  0  0  0  0  0  0  0  # atno 8009 bound_to 7997
  156.1867  140.3061  155.9258 H   0  0  0  0  0  0  0  0  0  0  0  0  # atno 8010 bound_to 7997
  140.4890  143.2384  151.7937 H   0  0  0  0  0  0  0  0  0  0  0  0  # atno 10167 bound_to 10162
  156.3389  130.4290  149.7805 H   0  0  0  0  0  0  0  0  0  0  0  0  # atno 10718 bound_to 10713
  154.8550  135.3529  154.5842 H   0  0  0  0  0  0  0  0  0  0  0  0  # atno 10763 bound_to 10752
  153.6453  135.6996  153.5232 H   0  0  0  0  0  0  0  0  0  0  0  0  # atno 10764 bound_to 10752
  153.2938  135.4227  155.1149 H   0  0  0  0  0  0  0  0  0  0  0  0  # atno 10765 bound_to 10752
  139.8904  134.9508  156.6433 H   0  0  0  0  0  0  0  0  0  0  0  0  # atno 11005 bound_to 11000
  146.3502  140.1487  142.8593 LP  0  0  0  0  0  0  0  0  0  0  0  0  # atno 17320 bound_to 7965
  145.0503  140.9012  143.5000 LP  0  0  0  0  0  0  0  0  0  0  0  0  # atno 17321 bound_to 7965
  139.4847  144.4674  151.9468 LP  0  0  0  0  0  0  0  0  0  0  0  0  # atno 17342 bound_to 10162
  140.3760  144.2796  150.5914 LP  0  0  0  0  0  0  0  0  0  0  0  0  # atno 17343 bound_to 10162
  156.5049  130.8145  151.3146 LP  0  0  0  0  0  0  0  0  0  0  0  0  # atno 17370 bound_to 10713
  157.7443  130.9933  150.2666 LP  0  0  0  0  0  0  0  0  0  0  0  0  # atno 17371 bound_to 10713
  140.7576  133.8844  155.8394 LP  0  0  0  0  0  0  0  0  0  0  0  0  # atno 17394 bound_to 11000
  140.9948  134.1229  157.4374 LP  0  0  0  0  0  0  0  0  0  0  0  0  # atno 17395 bound_to 11000

$$$$
