AV-unprocessed.smi:1032|AV-procd|sdf|4483|dock7
  -GOLD-   22720 2463D 1   1.00000     0.00000
 Structure written by MMmdl.
 46 47  0  0  0  0  0  0  0  0  2 V2000
  151.5606  142.5199  158.1652 C   0  0  0  0  0  0  0  0  0  0  0  0
  150.5147  141.8244  157.2830 C   0  0  2  0  0  0  0  0  0  0  0  0
  150.8237  141.9971  155.7863 C   0  0  0  0  0  0  0  0  0  0  0  0
  149.7528  141.3224  154.9118 C   0  0  0  0  0  0  0  0  0  0  0  0
  148.3972  141.8427  155.2249 N   0  3  1  0  0  0  0  0  0  0  0  0
  147.3595  141.3111  154.3035 C   0  0  0  0  0  0  0  0  0  0  0  0
  147.5947  139.8294  153.9460 C   0  0  1  0  0  0  0  0  0  0  0  0
  147.5951  139.0997  155.1578 O   0  0  0  0  0  0  0  0  0  0  0  0
  146.4767  139.2798  153.0379 C   0  0  0  0  0  0  0  0  0  0  0  0
  146.8007  137.9516  152.5270 N   0  0  0  0  0  0  0  0  0  0  0  0
  145.9026  136.9967  152.2450 C   0  0  0  0  0  0  0  0  0  0  0  0
  144.6885  137.1571  152.3646 O   0  0  0  0  0  0  0  0  0  0  0  0
  146.5072  135.8751  151.8150 N   0  0  0  0  0  0  0  0  0  0  0  0
  145.9348  134.6259  151.4463 C   0  0  0  0  0  0  0  0  0  0  0  0
  144.5292  134.5603  151.3483 C   0  0  0  0  0  0  0  0  0  0  0  0
  143.9287  133.3424  150.9718 C   0  0  0  0  0  0  0  0  0  0  0  0
  144.6308  132.2248  150.6918 N   0  0  0  0  0  0  0  0  0  0  0  0
  145.9762  132.2906  150.7765 C   0  0  0  0  0  0  0  0  0  0  0  0
  146.6762  133.4577  151.1430 C   0  0  0  0  0  0  0  0  0  0  0  0
  148.0594  141.6550  156.6609 C   0  0  0  0  0  0  0  0  0  0  0  0
  149.0944  142.3407  157.5682 C   0  0  0  0  0  0  0  0  0  0  0  0
  151.5878  143.5941  157.9790 H   0  0  0  0  0  0  0  0  0  0  0  0
  152.5591  142.1241  157.9766 H   0  0  0  0  0  0  0  0  0  0  0  0
  151.3429  142.3711  159.2233 H   0  0  0  0  0  0  0  0  0  0  0  0
  150.5419  140.7587  157.5155 H   0  0  0  0  0  0  0  0  0  0  0  0
  150.8785  143.0584  155.5393 H   0  0  0  0  0  0  0  0  0  0  0  0
  151.8029  141.5764  155.5554 H   0  0  0  0  0  0  0  0  0  0  0  0
  149.9846  141.5066  153.8620 H   0  0  0  0  0  0  0  0  0  0  0  0
  149.7721  140.2410  155.0567 H   0  0  0  0  0  0  0  0  0  0  0  0
  146.3719  141.4048  154.7586 H   0  0  0  0  0  0  0  0  0  0  0  0
  147.3339  141.9268  153.4031 H   0  0  0  0  0  0  0  0  0  0  0  0
  148.5583  139.7054  153.4523 H   0  0  0  0  0  0  0  0  0  0  0  0
  146.7875  139.2733  155.6181 H   0  0  0  0  0  0  0  0  0  0  0  0
  145.5072  139.2965  153.5396 H   0  0  0  0  0  0  0  0  0  0  0  0
  146.3725  139.9223  152.1632 H   0  0  0  0  0  0  0  0  0  0  0  0
  147.7786  137.7404  152.3919 H   0  0  0  0  0  0  0  0  0  0  0  0
  147.5103  135.9281  151.7171 H   0  0  0  0  0  0  0  0  0  0  0  0
  143.9166  135.4248  151.5585 H   0  0  0  0  0  0  0  0  0  0  0  0
  142.8545  133.2653  150.8914 H   0  0  0  0  0  0  0  0  0  0  0  0
  146.5144  131.3849  150.5394 H   0  0  0  0  0  0  0  0  0  0  0  0
  147.7536  133.4280  151.1712 H   0  0  0  0  0  0  0  0  0  0  0  0
  147.0738  142.0655  156.8769 H   0  0  0  0  0  0  0  0  0  0  0  0
  148.0126  140.5889  156.8888 H   0  0  0  0  0  0  0  0  0  0  0  0
  148.8367  142.1668  158.6135 H   0  0  0  0  0  0  0  0  0  0  0  0
  149.0540  143.4203  157.4159 H   0  0  0  0  0  0  0  0  0  0  0  0
  148.4345  142.8386  155.0578 H   0  0  0  0  0  0  0  0  0  0  0  0
  1  2  1  0  0  0  0
  1 22  1  0  0  0  0
  1 23  1  0  0  0  0
  1 24  1  0  0  0  0
  2 21  1  0  0  0  0
  2  3  1  0  0  0  0
  2 25  1  0  0  0  0
  3  4  1  0  0  0  0
  3 26  1  0  0  0  0
  3 27  1  0  0  0  0
  4  5  1  0  0  0  0
  4 28  1  0  0  0  0
  4 29  1  0  0  0  0
  5  6  1  0  0  0  0
  5 20  1  0  0  0  0
  5 46  1  0  0  0  0
  6  7  1  0  0  0  0
  6 30  1  0  0  0  0
  6 31  1  0  0  0  0
  7  8  1  0  0  0  0
  7  9  1  0  0  0  0
  7 32  1  0  0  0  0
  8 33  1  0  0  0  0
  9 10  1  0  0  0  0
  9 34  1  0  0  0  0
  9 35  1  0  0  0  0
 10 11  1  0  0  0  0
 10 36  1  0  0  0  0
 11 12  2  0  0  0  0
 11 13  1  0  0  0  0
 13 14  1  0  0  0  0
 13 37  1  0  0  0  0
 14 19  1  0  0  0  0
 14 15  2  0  0  0  0
 15 16  1  0  0  0  0
 15 38  1  0  0  0  0
 16 17  2  0  0  0  0
 16 39  1  0  0  0  0
 17 18  1  0  0  0  0
 18 19  2  0  0  0  0
 18 40  1  0  0  0  0
 19 41  1  0  0  0  0
 20 21  1  0  0  0  0
 20 42  1  0  0  0  0
 20 43  1  0  0  0  0
 21 44  1  0  0  0  0
 21 45  1  0  0  0  0
M  CHG  1   5   1
M  END
> <s_m_source_file>
AV-unprocessed.smi

> <i_m_source_file_index>
1032

> <i_lp_mmshare_version>
43012

> <i_f3d_flags>
0

> <s_epik_input>
W0NIM11bQ0hdMVtDSDJdW0NIMl1OKFtDSDJdW0NIMl0xKVtDSDJdW0NASF0oW09IXSlbQ0gyXVtOSF1DKD1PKVtOSF1jMltjSF1bY0hdbltjSF1bY0hdMg==

> <s_epik_cmdline>
J2VwaWtfcHl0aG9uJywgJy1waCcsICc3LjAnLCAnLXRuJywgJzgnLCAnLW1hJywgJzIwMCcsICctbWV0YWxfYmluZGluZycsICctaW1hZScsICc8aW5maWxlLm1hZT4nLCAnLW9tYWUnLCAnPG91dGZpbGUubWFlPic=

> <r_epik_Ionization_Penalty>
0.11743

> <r_epik_Ionization_Penalty_Charging>
0.00147689

> <r_epik_Ionization_Penalty_Neutral>
0.115954

> <r_epik_State_Penalty>
0.105552

> <r_epik_Charging_Adjusted_Penalty>
0.107029

> <i_epik_Tot_Q>
1

> <i_epik_Tot_abs_Q>
1

> <r_epik_Metal_State_Penalty>
0.0881315

> <b_epik_Metal_Only>
0

> <s_lp_Force_Field>
OPLS_2005

> <r_lp_Energy>
24.2585

> <b_lp_Chiralities_Consistent>
1

> <s_lp_Variant>
AV-unprocessed.smi:1032-2

> <Gold.Version>
5.8.1

> <Gold.Id.Protein>
6NUR|6NUR_protein|mol2

> <Gold.PLP.Fitness>
48.6393

> <Gold.PLP.PLP>
-32.7587

> <Gold.PLP.part.hbond>
-2.7383

> <Gold.PLP.part.metal>
0.0000

> <Gold.PLP.part.buried>
-4.9262

> <Gold.PLP.part.nonpolar>
-26.4042

> <Gold.PLP.part.repulsive>
1.5910

> <Gold.PLP.ligand.clash>
0.0000

> <Gold.PLP.ligand.torsion>
0.5388

> <Gold.PLP.Chemscore.Hbond>
3.6285

> <Gold.PLP.Chemscore.CHOScore>
1.9958

> <Gold.PLP.Chemscore.Metal>
0.0000

> <Gold.Chemscore.Hbonds>
donor molecule, donor type, donor heavy atom, donor atom, acceptor molecule, acceptor atom, score
      L1  H     5    46       P1  8028  2.00
      L1  H    10    36       P1  7948  0.82
      L1  H    13    37       P1  7948  0.80
      L1  C    16    39       P1 10186  0.94
      L1  C    18    40       P1 10747  1.00

> <Gold.PLP.Chemscore.Internal.Correction>
0.0852

> <Gold.Rescore>
     Score         DG    S(hbond)    S(metal)    S(lipo)     H(rot)  DE(clash)    DE(int)     intcor
     16.36     -18.51       2.74        0.00      83.29       2.29       0.17       1.99       ----

> <Gold.Chemscore.Fitness>
16.3608

> <Gold.Chemscore.DG>
-18.5144

> <Gold.Chemscore.ZeroCoef>
-5.4800

> <Gold.Chemscore.Hbond>
2.7374

> <Gold.Chemscore.Metal>
0.0000

> <Gold.Chemscore.Lipo>
83.2920

> <Gold.Chemscore.Internal_Hbond>
0.0000

> <Gold.Chemscore.DEClash>
0.1683

> <Gold.Chemscore.DEInternal>
1.9853

> <Gold.Chemscore.Rot>
2.2865

> <Gold.Chemscore.Internal.Correction>
   9.000000E+99

> <Gold.Chemscore.Hbonds>
donor molecule, donor type, donor heavy atom, donor atom, acceptor molecule, acceptor atom, score
      L1  H     5    46       P1  8028  0.92
      L1  H    10    36       P1  7948  0.80
      L1  H    13    37       P1  7948  0.79

> <Gold.Chemscore.Hbond.Weighted>
-9.1428

> <Gold.Chemscore.Metal.Weighted>
-0.0000

> <Gold.Chemscore.Lipo.Weighted>
-9.7452

> <Gold.Chemscore.Internal_Hbond.Weighted>
0.0000

> <Gold.Chemscore.DEClash.Weighted>
0.1683

> <Gold.Chemscore.DEInternal.Weighted>
1.9853

> <Gold.Chemscore.Rot.Weighted>
5.8536

> <Gold.Chemscore.Internal.Correction.Weighted>
   9.000000E+99

> <Gold.Protein.RotatedTorsions>
[ 6907 6896 6895 6894 ] final -153.09 input  -60.11 | X-H torsion
[ 7974 7965 7964 7962 ] final  136.49 input  175.53 | X-H torsion
[ 8008 7997 7996 7995 ] final    9.55 input   59.86 | X-H torsion
[ 10167 10162 10161 10158 ] final   19.19 input  -65.29 | X-H torsion
[ 10718 10713 10712 10709 ] final  -42.95 input   66.30 | X-H torsion
[ 10763 10752 10751 10750 ] final   65.52 input  -60.55 | X-H torsion
[ 11005 11000 10999 10996 ] final   78.48 input  -57.11 | X-H torsion

> <Gold.Protein.ActiveResidues>
 VAL166  LYS551  ARG553  GLY616  TRP617  ASP618  TYR619  PRO620  LYS621  CYS622 
 ASP623  PHE694  ASN695  SER759  ASP760  ASP761  ALA762  ILE779  LEU786  VAL792 
 PHE793  MET794  SER795  GLU796  ALA797  LYS798  CYS799  TRP800  GLU811  SER814 

> <Gold.Protein.RotatedAtoms>
  151.2374  133.4418  159.2605 H   0  0  0  0  0  0  0  0  0  0  0  0  # atno 6907 bound_to 6896
  151.0737  134.9815  159.8332 H   0  0  0  0  0  0  0  0  0  0  0  0  # atno 6908 bound_to 6896
  152.5415  134.2318  159.8880 H   0  0  0  0  0  0  0  0  0  0  0  0  # atno 6909 bound_to 6896
  144.9560  139.4764  143.5503 H   0  0  0  0  0  0  0  0  0  0  0  0  # atno 7974 bound_to 7965
  154.7815  140.2820  155.6060 H   0  0  0  0  0  0  0  0  0  0  0  0  # atno 8008 bound_to 7997
  156.2950  140.2622  156.2570 H   0  0  0  0  0  0  0  0  0  0  0  0  # atno 8009 bound_to 7997
  154.9778  140.0375  157.2253 H   0  0  0  0  0  0  0  0  0  0  0  0  # atno 8010 bound_to 7997
  140.5597  143.9359  150.6634 H   0  0  0  0  0  0  0  0  0  0  0  0  # atno 10167 bound_to 10162
  156.2542  130.4191  149.8615 H   0  0  0  0  0  0  0  0  0  0  0  0  # atno 10718 bound_to 10713
  153.0100  135.5354  154.6680 H   0  0  0  0  0  0  0  0  0  0  0  0  # atno 10763 bound_to 10752
  154.5871  135.2855  155.0675 H   0  0  0  0  0  0  0  0  0  0  0  0  # atno 10764 bound_to 10752
  154.1782  135.6520  153.5079 H   0  0  0  0  0  0  0  0  0  0  0  0  # atno 10765 bound_to 10752
  139.9211  134.7767  156.1655 H   0  0  0  0  0  0  0  0  0  0  0  0  # atno 11005 bound_to 11000
  146.3337  139.8677  142.8845 LP  0  0  0  0  0  0  0  0  0  0  0  0  # atno 17320 bound_to 7965
  145.2772  141.0127  143.3738 LP  0  0  0  0  0  0  0  0  0  0  0  0  # atno 17321 bound_to 7965
  140.2807  143.3391  152.1154 LP  0  0  0  0  0  0  0  0  0  0  0  0  # atno 17342 bound_to 10162
  139.5064  144.6814  151.6000 LP  0  0  0  0  0  0  0  0  0  0  0  0  # atno 17343 bound_to 10162
  156.6153  130.8604  151.3463 LP  0  0  0  0  0  0  0  0  0  0  0  0  # atno 17370 bound_to 10713
  157.7226  130.9579  150.1501 LP  0  0  0  0  0  0  0  0  0  0  0  0  # atno 17371 bound_to 10713
  141.0732  133.6787  156.2183 LP  0  0  0  0  0  0  0  0  0  0  0  0  # atno 17394 bound_to 11000
  140.6472  134.5104  157.5574 LP  0  0  0  0  0  0  0  0  0  0  0  0  # atno 17395 bound_to 11000

$$$$
