AV-unprocessed.smi:1823|AV-procd|sdf|7392|dock2
  -GOLD-   22720 9 63D 1   1.00000     0.00000
 Structure written by MMmdl.
 43 44  0  0  0  0  0  0  0  0  1 V2000
  144.3548  144.2817  155.5624 C   0  0  0  0  0  0  0  0  0  0  0  0
  145.3737  143.2125  155.3650 C   0  0  0  0  0  0  0  0  0  0  0  0
  145.3718  142.1186  156.1167 N   0  0  0  0  0  0  0  0  0  0  0  0
  146.4530  141.3801  155.6150 O   0  0  0  0  0  0  0  0  0  0  0  0
  146.9863  142.1329  154.6222 C   0  0  0  0  0  0  0  0  0  0  0  0
  148.1306  141.5821  153.8329 C   0  0  0  0  0  0  0  0  0  0  0  0
  148.6193  140.2002  154.3103 C   0  0  0  0  0  0  0  0  0  0  0  0
  148.9844  140.1897  155.7256 N   0  0  0  0  0  0  0  0  0  0  0  0
  150.2222  140.3809  156.2093 C   0  0  0  0  0  0  0  0  0  0  0  0
  151.1963  140.6257  155.4961 O   0  0  0  0  0  0  0  0  0  0  0  0
  150.3923  140.2575  157.7314 C   0  0  1  0  0  0  0  0  0  0  0  0
  151.5780  139.3371  158.0824 C   0  0  0  0  0  0  0  0  0  0  0  0
  152.6362  140.2928  158.6084 C   0  0  0  0  0  0  0  0  0  0  0  0
  153.7814  139.9354  158.8798 O   0  0  0  0  0  0  0  0  0  0  0  0
  152.1514  141.5365  158.7050 N   0  0  0  0  0  0  0  0  0  0  0  0
  152.8708  142.7249  159.1604 C   0  0  0  0  0  0  0  0  0  0  0  0
  152.0950  143.5213  160.2338 C   0  0  0  0  0  0  0  0  0  0  0  0
  152.0730  145.0377  159.9728 C   0  0  0  0  0  0  0  0  0  0  0  0
  152.6558  143.2247  161.6328 C   0  0  0  0  0  0  0  0  0  0  0  0
  150.7324  141.6069  158.3980 C   0  0  0  0  0  0  0  0  0  0  0  0
  146.3505  143.2841  154.4190 N   0  0  0  0  0  0  0  0  0  0  0  0
  144.4263  144.6899  156.5708 H   0  0  0  0  0  0  0  0  0  0  0  0
  143.3520  143.8782  155.4205 H   0  0  0  0  0  0  0  0  0  0  0  0
  144.5033  145.0939  154.8501 H   0  0  0  0  0  0  0  0  0  0  0  0
  147.8316  141.5232  152.7860 H   0  0  0  0  0  0  0  0  0  0  0  0
  148.9530  142.2971  153.8761 H   0  0  0  0  0  0  0  0  0  0  0  0
  147.8571  139.4463  154.1065 H   0  0  0  0  0  0  0  0  0  0  0  0
  149.4953  139.9057  153.7325 H   0  0  0  0  0  0  0  0  0  0  0  0
  148.2444  139.9955  156.3848 H   0  0  0  0  0  0  0  0  0  0  0  0
  149.4710  139.8602  158.1609 H   0  0  0  0  0  0  0  0  0  0  0  0
  151.3075  138.6282  158.8652 H   0  0  0  0  0  0  0  0  0  0  0  0
  151.9617  138.7708  157.2322 H   0  0  0  0  0  0  0  0  0  0  0  0
  153.8347  142.4088  159.5618 H   0  0  0  0  0  0  0  0  0  0  0  0
  153.0995  143.3694  158.3096 H   0  0  0  0  0  0  0  0  0  0  0  0
  151.0606  143.1747  160.2227 H   0  0  0  0  0  0  0  0  0  0  0  0
  153.0831  145.4419  159.8994 H   0  0  0  0  0  0  0  0  0  0  0  0
  151.5608  145.5663  160.7771 H   0  0  0  0  0  0  0  0  0  0  0  0
  151.5469  145.2789  159.0492 H   0  0  0  0  0  0  0  0  0  0  0  0
  153.6907  143.5568  161.7233 H   0  0  0  0  0  0  0  0  0  0  0  0
  152.6281  142.1565  161.8501 H   0  0  0  0  0  0  0  0  0  0  0  0
  152.0752  143.7304  162.4052 H   0  0  0  0  0  0  0  0  0  0  0  0
  150.5134  142.4663  157.7618 H   0  0  0  0  0  0  0  0  0  0  0  0
  150.1698  141.7323  159.3243 H   0  0  0  0  0  0  0  0  0  0  0  0
  1  2  1  0  0  0  0
  1 22  1  0  0  0  0
  1 23  1  0  0  0  0
  1 24  1  0  0  0  0
  2 21  1  0  0  0  0
  2  3  2  0  0  0  0
  3  4  1  0  0  0  0
  4  5  1  0  0  0  0
  5  6  1  0  0  0  0
  5 21  2  0  0  0  0
  6  7  1  0  0  0  0
  6 25  1  0  0  0  0
  6 26  1  0  0  0  0
  7  8  1  0  0  0  0
  7 27  1  0  0  0  0
  7 28  1  0  0  0  0
  8  9  1  0  0  0  0
  8 29  1  0  0  0  0
  9 10  2  0  0  0  0
  9 11  1  0  0  0  0
 11 20  1  0  0  0  0
 11 12  1  0  0  0  0
 11 30  1  0  0  0  0
 12 13  1  0  0  0  0
 12 31  1  0  0  0  0
 12 32  1  0  0  0  0
 13 14  2  0  0  0  0
 13 15  1  0  0  0  0
 15 16  1  0  0  0  0
 15 20  1  0  0  0  0
 16 17  1  0  0  0  0
 16 33  1  0  0  0  0
 16 34  1  0  0  0  0
 17 18  1  0  0  0  0
 17 19  1  0  0  0  0
 17 35  1  0  0  0  0
 18 36  1  0  0  0  0
 18 37  1  0  0  0  0
 18 38  1  0  0  0  0
 19 39  1  0  0  0  0
 19 40  1  0  0  0  0
 19 41  1  0  0  0  0
 20 42  1  0  0  0  0
 20 43  1  0  0  0  0
M  END
> <s_m_source_file>
AV-unprocessed.smi

> <i_m_source_file_index>
1823

> <i_lp_mmshare_version>
43012

> <i_f3d_flags>
0

> <s_epik_input>
W0NIM11jMW5vYyhuMSlbQ0gyXVtDSDJdW05IXUMoPU8pW0NAQEhdMltDSDJdQyg9TylOKFtDSDJdMilbQ0gyXVtDSF0oW0NIM10pW0NIM10=

> <s_epik_cmdline>
J2VwaWtfcHl0aG9uJywgJy1waCcsICc3LjAnLCAnLXRuJywgJzgnLCAnLW1hJywgJzIwMCcsICctbWV0YWxfYmluZGluZycsICctaW1hZScsICc8aW5maWxlLm1hZT4nLCAnLW9tYWUnLCAnPG91dGZpbGUubWFlPic=

> <r_lp_tautomer_probability>
1

> <r_epik_Ionization_Penalty>
3.64678e-08

> <r_epik_Ionization_Penalty_Charging>
0

> <r_epik_Ionization_Penalty_Neutral>
3.64678e-08

> <r_epik_State_Penalty>
-0

> <r_epik_Charging_Adjusted_Penalty>
0

> <i_epik_Tot_Q>
0

> <i_epik_Tot_abs_Q>
0

> <r_epik_Metal_State_Penalty>
-0

> <b_epik_Metal_Only>
0

> <s_lp_Force_Field>
OPLS_2005

> <r_lp_Energy>
11.154

> <b_lp_Chiralities_Consistent>
1

> <s_lp_Variant>
AV-unprocessed.smi:1823-2

> <Gold.Version>
5.8.1

> <Gold.Id.Protein>
6NUR|6NUR_protein|mol2

> <Gold.PLP.Fitness>
43.8892

> <Gold.PLP.PLP>
-40.4246

> <Gold.PLP.part.hbond>
-2.0000

> <Gold.PLP.part.metal>
0.0000

> <Gold.PLP.part.buried>
-5.0038

> <Gold.PLP.part.nonpolar>
-33.7563

> <Gold.PLP.part.repulsive>
0.4621

> <Gold.PLP.ligand.clash>
0.0000

> <Gold.PLP.ligand.torsion>
1.1400

> <Gold.PLP.Chemscore.Hbond>
1.8720

> <Gold.PLP.Chemscore.CHOScore>
0.0000

> <Gold.PLP.Chemscore.Metal>
0.0000

> <Gold.Chemscore.Hbonds>
donor molecule, donor type, donor heavy atom, donor atom, acceptor molecule, acceptor atom, score
      P1  H  7989  7998       L1    10  0.78
      P1  H  7997  8010       L1    14  1.00

> <Gold.PLP.Chemscore.Internal.Correction>
0.1286

> <Gold.Rescore>
     Score         DG    S(hbond)    S(metal)    S(lipo)     H(rot)  DE(clash)    DE(int)     intcor
     13.52     -14.50       1.85        0.00      76.71       2.40       0.01       0.96       ----

> <Gold.Chemscore.Fitness>
13.5185

> <Gold.Chemscore.DG>
-14.4963

> <Gold.Chemscore.ZeroCoef>
-5.4800

> <Gold.Chemscore.Hbond>
1.8486

> <Gold.Chemscore.Metal>
0.0000

> <Gold.Chemscore.Lipo>
76.7078

> <Gold.Chemscore.Internal_Hbond>
0.0000

> <Gold.Chemscore.DEClash>
0.0137

> <Gold.Chemscore.DEInternal>
0.9641

> <Gold.Chemscore.Rot>
2.3957

> <Gold.Chemscore.Internal.Correction>
   9.000000E+99

> <Gold.Chemscore.Hbonds>
donor molecule, donor type, donor heavy atom, donor atom, acceptor molecule, acceptor atom, score
      P1  H  7989  7998       L1    10  0.75
      P1  H  7997  8010       L1    14  0.53

> <Gold.Chemscore.Hbond.Weighted>
-6.1744

> <Gold.Chemscore.Metal.Weighted>
-0.0000

> <Gold.Chemscore.Lipo.Weighted>
-8.9748

> <Gold.Chemscore.Internal_Hbond.Weighted>
0.0000

> <Gold.Chemscore.DEClash.Weighted>
0.0137

> <Gold.Chemscore.DEInternal.Weighted>
0.9641

> <Gold.Chemscore.Rot.Weighted>
6.1329

> <Gold.Chemscore.Internal.Correction.Weighted>
   9.000000E+99

> <Gold.Protein.RotatedTorsions>
[ 6907 6896 6895 6894 ] final -153.74 input  -60.11 | X-H torsion
[ 7974 7965 7964 7962 ] final -173.90 input  175.53 | X-H torsion
[ 8008 7997 7996 7995 ] final   19.15 input   59.86 | X-H torsion
[ 10167 10162 10161 10158 ] final  -82.73 input  -65.29 | X-H torsion
[ 10718 10713 10712 10709 ] final   32.79 input   66.30 | X-H torsion
[ 10763 10752 10751 10750 ] final -175.77 input  -60.55 | X-H torsion
[ 11005 11000 10999 10996 ] final    7.91 input  -57.11 | X-H torsion

> <Gold.Protein.ActiveResidues>
 VAL166  LYS551  ARG553  GLY616  TRP617  ASP618  TYR619  PRO620  LYS621  CYS622 
 ASP623  PHE694  ASN695  SER759  ASP760  ASP761  ALA762  ILE779  LEU786  VAL792 
 PHE793  MET794  SER795  GLU796  ALA797  LYS798  CYS799  TRP800  GLU811  SER814 

> <Gold.Protein.RotatedAtoms>
  151.2470  133.4369  159.2609 H   0  0  0  0  0  0  0  0  0  0  0  0  # atno 6907 bound_to 6896
  151.0652  134.9763  159.8291 H   0  0  0  0  0  0  0  0  0  0  0  0  # atno 6908 bound_to 6896
  152.5404  134.2418  159.8918 H   0  0  0  0  0  0  0  0  0  0  0  0  # atno 6909 bound_to 6896
  144.7135  140.1552  143.6381 H   0  0  0  0  0  0  0  0  0  0  0  0  # atno 7974 bound_to 7965
  154.9164  140.3021  155.5239 H   0  0  0  0  0  0  0  0  0  0  0  0  # atno 8008 bound_to 7997
  156.3012  140.2379  156.4145 H   0  0  0  0  0  0  0  0  0  0  0  0  # atno 8009 bound_to 7997
  154.8374  140.0415  157.1507 H   0  0  0  0  0  0  0  0  0  0  0  0  # atno 8010 bound_to 7997
  140.4293  143.2554  151.8782 H   0  0  0  0  0  0  0  0  0  0  0  0  # atno 10167 bound_to 10162
  157.2896  130.7296  149.6603 H   0  0  0  0  0  0  0  0  0  0  0  0  # atno 10718 bound_to 10713
  154.5804  135.2835  155.0739 H   0  0  0  0  0  0  0  0  0  0  0  0  # atno 10763 bound_to 10752
  154.2077  135.6413  153.5109 H   0  0  0  0  0  0  0  0  0  0  0  0  # atno 10764 bound_to 10752
  153.0086  135.5484  154.6456 H   0  0  0  0  0  0  0  0  0  0  0  0  # atno 10765 bound_to 10752
  140.5430  134.0356  155.7910 H   0  0  0  0  0  0  0  0  0  0  0  0  # atno 11005 bound_to 11000
  145.9081  139.2470  143.1454 LP  0  0  0  0  0  0  0  0  0  0  0  0  # atno 17320 bound_to 7965
  145.9744  140.8734  143.0146 LP  0  0  0  0  0  0  0  0  0  0  0  0  # atno 17321 bound_to 7965
  139.4784  144.5352  151.8608 LP  0  0  0  0  0  0  0  0  0  0  0  0  # atno 17342 bound_to 10162
  140.4445  144.1940  150.5893 LP  0  0  0  0  0  0  0  0  0  0  0  0  # atno 17343 bound_to 10162
  155.9666  130.4313  150.4913 LP  0  0  0  0  0  0  0  0  0  0  0  0  # atno 17370 bound_to 10713
  157.2873  131.0619  151.2158 LP  0  0  0  0  0  0  0  0  0  0  0  0  # atno 17371 bound_to 10713
  141.1216  133.9451  157.2718 LP  0  0  0  0  0  0  0  0  0  0  0  0  # atno 17394 bound_to 11000
  139.9494  135.0178  156.8950 LP  0  0  0  0  0  0  0  0  0  0  0  0  # atno 17395 bound_to 11000

$$$$
