AV-unprocessed.smi:3112|AV-procd|sdf|11839|dock6
  -GOLD-   2272017213D 1   1.00000     0.00000
 Structure written by MMmdl.
 37 37  0  0  0  0  0  0  0  0  2 V2000
  144.5373  135.6443  151.8180 C   0  0  0  0  0  0  0  0  0  0  0  0
  144.9726  136.9590  152.4798 C   0  0  0  0  0  0  0  0  0  0  0  0
  146.3609  137.4440  152.0239 C   0  0  1  0  0  0  0  0  0  0  0  0
  146.3185  137.7165  150.6367 O   0  0  0  0  0  0  0  0  0  0  0  0
  146.7891  138.7275  152.7543 C   0  0  0  0  0  0  0  0  0  0  0  0
  148.2615  138.8427  152.8105 N   0  3  0  0  0  0  0  0  0  0  0  0
  148.8168  139.2544  154.1209 C   0  0  1  0  0  0  0  0  0  0  0  0
  148.4086  138.2229  155.1858 C   0  0  0  0  0  0  0  0  0  0  0  0
  150.3557  139.4617  154.0625 C   0  0  2  0  0  0  0  0  0  0  0  0
  151.1624  138.1514  154.1206 C   0  0  0  0  0  0  0  0  0  0  0  0
  150.8398  140.4342  155.0375 N   0  0  0  0  0  0  0  0  0  0  0  0
  151.8125  140.2600  156.0012 C   0  0  0  0  0  0  0  0  0  0  0  0
  151.9436  141.4427  156.6704 C   0  0  0  0  0  0  0  0  0  0  0  0
  150.9989  142.2963  156.0365 C   0  0  0  0  0  0  0  0  0  0  0  0
  150.3433  141.6924  155.0587 N   0  0  0  0  0  0  0  0  0  0  0  0
  143.5672  135.3236  152.1982 H   0  0  0  0  0  0  0  0  0  0  0  0
  145.2521  134.8462  152.0200 H   0  0  0  0  0  0  0  0  0  0  0  0
  144.4481  135.7503  150.7366 H   0  0  0  0  0  0  0  0  0  0  0  0
  144.2253  137.7307  152.2893 H   0  0  0  0  0  0  0  0  0  0  0  0
  144.9832  136.8088  153.5600 H   0  0  0  0  0  0  0  0  0  0  0  0
  147.0948  136.6575  152.2063 H   0  0  0  0  0  0  0  0  0  0  0  0
  145.4309  137.9409  150.4002 H   0  0  0  0  0  0  0  0  0  0  0  0
  146.3554  139.6018  152.2679 H   0  0  0  0  0  0  0  0  0  0  0  0
  146.4113  138.7151  153.7775 H   0  0  0  0  0  0  0  0  0  0  0  0
  148.6488  137.9412  152.5724 H   0  0  0  0  0  0  0  0  0  0  0  0
  148.3594  140.2020  154.4108 H   0  0  0  0  0  0  0  0  0  0  0  0
  148.8014  138.4937  156.1662 H   0  0  0  0  0  0  0  0  0  0  0  0
  148.7745  137.2242  154.9448 H   0  0  0  0  0  0  0  0  0  0  0  0
  147.3235  138.1617  155.2740 H   0  0  0  0  0  0  0  0  0  0  0  0
  150.5665  139.8918  153.0820 H   0  0  0  0  0  0  0  0  0  0  0  0
  150.8392  137.4577  153.3440 H   0  0  0  0  0  0  0  0  0  0  0  0
  151.0577  137.6479  155.0820 H   0  0  0  0  0  0  0  0  0  0  0  0
  152.2250  138.3425  153.9666 H   0  0  0  0  0  0  0  0  0  0  0  0
  152.3264  139.3186  156.1297 H   0  0  0  0  0  0  0  0  0  0  0  0
  152.6127  141.6641  157.4888 H   0  0  0  0  0  0  0  0  0  0  0  0
  150.7730  143.3298  156.2544 H   0  0  0  0  0  0  0  0  0  0  0  0
  148.5640  139.5115  152.1150 H   0  0  0  0  0  0  0  0  0  0  0  0
  1  2  1  0  0  0  0
  1 16  1  0  0  0  0
  1 17  1  0  0  0  0
  1 18  1  0  0  0  0
  2  3  1  0  0  0  0
  2 19  1  0  0  0  0
  2 20  1  0  0  0  0
  3  4  1  0  0  0  0
  3  5  1  0  0  0  0
  3 21  1  0  0  0  0
  4 22  1  0  0  0  0
  5  6  1  0  0  0  0
  5 23  1  0  0  0  0
  5 24  1  0  0  0  0
  6  7  1  0  0  0  0
  6 25  1  0  0  0  0
  6 37  1  0  0  0  0
  7  8  1  0  0  0  0
  7  9  1  0  0  0  0
  7 26  1  0  0  0  0
  8 27  1  0  0  0  0
  8 28  1  0  0  0  0
  8 29  1  0  0  0  0
  9 10  1  0  0  0  0
  9 11  1  0  0  0  0
  9 30  1  0  0  0  0
 10 31  1  0  0  0  0
 10 32  1  0  0  0  0
 10 33  1  0  0  0  0
 11 15  1  0  0  0  0
 11 12  1  0  0  0  0
 12 13  2  0  0  0  0
 12 34  1  0  0  0  0
 13 14  1  0  0  0  0
 13 35  1  0  0  0  0
 14 15  2  0  0  0  0
 14 36  1  0  0  0  0
M  CHG  1   6   1
M  END
> <s_m_source_file>
AV-unprocessed.smi

> <i_m_source_file_index>
3112

> <i_lp_mmshare_version>
43012

> <i_f3d_flags>
0

> <s_epik_input>
W0NIM11bQ0gyXVtDQEhdKFtPSF0pW0NIMl1bTkhdW0NASF0oW0NIM10pW0NASF0oW0NIM10pbjFbY0hdW2NIXVtjSF1uMQ==

> <s_epik_cmdline>
J2VwaWtfcHl0aG9uJywgJy1waCcsICc3LjAnLCAnLXRuJywgJzgnLCAnLW1hJywgJzIwMCcsICctbWV0YWxfYmluZGluZycsICctaW1hZScsICc8aW5maWxlLm1hZT4nLCAnLW9tYWUnLCAnPG91dGZpbGUubWFlPic=

> <r_lp_tautomer_probability>
1

> <r_epik_Ionization_Penalty>
0.0154842

> <r_epik_Ionization_Penalty_Charging>
0.0154724

> <r_epik_Ionization_Penalty_Neutral>
1.17979e-05

> <r_epik_State_Penalty>
0.0121607

> <r_epik_Charging_Adjusted_Penalty>
0.0276331

> <i_epik_Tot_Q>
1

> <i_epik_Tot_abs_Q>
1

> <r_epik_Metal_State_Penalty>
0.0121863

> <b_epik_Metal_Only>
0

> <s_lp_Force_Field>
OPLS_2005

> <r_lp_Energy>
13.0282

> <b_lp_Chiralities_Consistent>
1

> <s_lp_Variant>
AV-unprocessed.smi:3112-4

> <Gold.Version>
5.8.1

> <Gold.Id.Protein>
6NUR|6NUR_protein|mol2

> <Gold.PLP.Fitness>
46.7459

> <Gold.PLP.PLP>
-30.9895

> <Gold.PLP.part.hbond>
-4.8136

> <Gold.PLP.part.metal>
0.0000

> <Gold.PLP.part.buried>
-0.2994

> <Gold.PLP.part.nonpolar>
-26.1824

> <Gold.PLP.part.repulsive>
0.1731

> <Gold.PLP.ligand.clash>
0.0000

> <Gold.PLP.ligand.torsion>
1.1312

> <Gold.PLP.Chemscore.Hbond>
4.9600

> <Gold.PLP.Chemscore.CHOScore>
0.9945

> <Gold.PLP.Chemscore.Metal>
0.0000

> <Gold.Chemscore.Hbonds>
donor molecule, donor type, donor heavy atom, donor atom, acceptor molecule, acceptor atom, score
      L1  H     4    22       P1 10171  1.00
      L1  H     6    25       P1  7948  2.00
      L1  H     6    37       P1  7957  0.91
      P1  H  7954  7966       L1     4  0.98
      L1  C    14    36       P1  8028  1.00

> <Gold.PLP.Chemscore.Internal.Correction>
0.1553

> <Gold.Rescore>
     Score         DG    S(hbond)    S(metal)    S(lipo)     H(rot)  DE(clash)    DE(int)     intcor
     18.39     -19.75       3.85        0.00      64.84       2.41       0.26       1.10       ----

> <Gold.Chemscore.Fitness>
18.3902

> <Gold.Chemscore.DG>
-19.7541

> <Gold.Chemscore.ZeroCoef>
-5.4800

> <Gold.Chemscore.Hbond>
3.8488

> <Gold.Chemscore.Metal>
0.0000

> <Gold.Chemscore.Lipo>
64.8351

> <Gold.Chemscore.Internal_Hbond>
0.0000

> <Gold.Chemscore.DEClash>
0.2595

> <Gold.Chemscore.DEInternal>
1.1044

> <Gold.Chemscore.Rot>
2.4089

> <Gold.Chemscore.Internal.Correction>
   9.000000E+99

> <Gold.Chemscore.Hbonds>
donor molecule, donor type, donor heavy atom, donor atom, acceptor molecule, acceptor atom, score
      L1  H     4    22       P1 10171  1.00
      L1  H     6    25       P1  7948  1.00
      L1  H     6    37       P1  7957  0.83
      P1  H  7954  7966       L1     4  0.71

> <Gold.Chemscore.Hbond.Weighted>
-12.8550

> <Gold.Chemscore.Metal.Weighted>
-0.0000

> <Gold.Chemscore.Lipo.Weighted>
-7.5857

> <Gold.Chemscore.Internal_Hbond.Weighted>
0.0000

> <Gold.Chemscore.DEClash.Weighted>
0.2595

> <Gold.Chemscore.DEInternal.Weighted>
1.1044

> <Gold.Chemscore.Rot.Weighted>
6.1667

> <Gold.Chemscore.Internal.Correction.Weighted>
   9.000000E+99

> <Gold.Protein.RotatedTorsions>
[ 6907 6896 6895 6894 ] final  -12.48 input  -60.11 | X-H torsion
[ 7974 7965 7964 7962 ] final -177.97 input  175.53 | X-H torsion
[ 8008 7997 7996 7995 ] final -165.21 input   59.86 | X-H torsion
[ 10167 10162 10161 10158 ] final -140.26 input  -65.29 | X-H torsion
[ 10718 10713 10712 10709 ] final   71.79 input   66.30 | X-H torsion
[ 10763 10752 10751 10750 ] final -137.60 input  -60.55 | X-H torsion
[ 11005 11000 10999 10996 ] final   96.50 input  -57.11 | X-H torsion

> <Gold.Protein.ActiveResidues>
 VAL166  LYS551  ARG553  GLY616  TRP617  ASP618  TYR619  PRO620  LYS621  CYS622 
 ASP623  PHE694  ASN695  SER759  ASP760  ASP761  ALA762  ILE779  LEU786  VAL792 
 PHE793  MET794  SER795  GLU796  ALA797  LYS798  CYS799  TRP800  GLU811  SER814 

> <Gold.Protein.RotatedAtoms>
  151.3698  135.0920  159.9461 H   0  0  0  0  0  0  0  0  0  0  0  0  # atno 6907 bound_to 6896
  152.5138  133.9176  159.7529 H   0  0  0  0  0  0  0  0  0  0  0  0  # atno 6908 bound_to 6896
  150.9587  133.6414  159.2787 H   0  0  0  0  0  0  0  0  0  0  0  0  # atno 6909 bound_to 6896
  144.7129  140.0938  143.6420 H   0  0  0  0  0  0  0  0  0  0  0  0  # atno 7974 bound_to 7965
  155.8465  140.0956  157.1702 H   0  0  0  0  0  0  0  0  0  0  0  0  # atno 8008 bound_to 7997
  154.3983  140.1391  156.3854 H   0  0  0  0  0  0  0  0  0  0  0  0  # atno 8009 bound_to 7997
  155.8007  140.3453  155.5404 H   0  0  0  0  0  0  0  0  0  0  0  0  # atno 8010 bound_to 7997
  139.8299  143.7461  152.2666 H   0  0  0  0  0  0  0  0  0  0  0  0  # atno 10167 bound_to 10162
  157.6469  130.9546  150.0838 H   0  0  0  0  0  0  0  0  0  0  0  0  # atno 10718 bound_to 10713
  154.8658  135.3637  154.5249 H   0  0  0  0  0  0  0  0  0  0  0  0  # atno 10763 bound_to 10752
  153.5877  135.7016  153.5441 H   0  0  0  0  0  0  0  0  0  0  0  0  # atno 10764 bound_to 10752
  153.3401  135.4100  155.1527 H   0  0  0  0  0  0  0  0  0  0  0  0  # atno 10765 bound_to 10752
  139.8781  134.8953  156.4167 H   0  0  0  0  0  0  0  0  0  0  0  0  # atno 11005 bound_to 11000
  145.9597  139.2792  143.1163 LP  0  0  0  0  0  0  0  0  0  0  0  0  # atno 17320 bound_to 7965
  145.9234  140.9099  143.0393 LP  0  0  0  0  0  0  0  0  0  0  0  0  # atno 17321 bound_to 7965
  139.7665  144.7490  151.0286 LP  0  0  0  0  0  0  0  0  0  0  0  0  # atno 17342 bound_to 10162
  140.7807  143.4692  151.0170 LP  0  0  0  0  0  0  0  0  0  0  0  0  # atno 17343 bound_to 10162
  156.1806  130.3650  149.9040 LP  0  0  0  0  0  0  0  0  0  0  0  0  # atno 17370 bound_to 10713
  156.6993  130.8927  151.3597 LP  0  0  0  0  0  0  0  0  0  0  0  0  # atno 17371 bound_to 10713
  140.9162  133.7677  155.9851 LP  0  0  0  0  0  0  0  0  0  0  0  0  # atno 17394 bound_to 11000
  140.8491  134.2976  157.5283 LP  0  0  0  0  0  0  0  0  0  0  0  0  # atno 17395 bound_to 11000

$$$$
