AV-unprocessed.smi:72|AV-procd|sdf|746|dock6
  -GOLD-   2262017 83D 1   1.00000     0.00000
 Structure written by MMmdl.
 29 30  0  0  0  0  0  0  0  0  1 V2000
  143.6641  141.3441  155.3107 N   0  0  0  0  0  0  0  0  0  0  0  0
  144.8903  141.1869  155.9217 C   0  0  0  0  0  0  0  0  0  0  0  0
  145.9327  140.7112  155.1141 N   0  0  0  0  0  0  0  0  0  0  0  0
  147.0836  140.5543  155.6874 C   0  0  0  0  0  0  0  0  0  0  0  0
  147.2743  140.8579  157.0943 N   0  0  0  0  0  0  0  0  0  0  0  0
  148.6229  140.6736  157.7607 C   0  0  1  0  0  0  0  0  0  0  0  0
  149.4427  139.9174  156.9193 O   0  0  0  0  0  0  0  0  0  0  0  0
  150.7534  140.4701  156.9111 C   0  0  1  0  0  0  0  0  0  0  0  0
  151.5323  140.0209  155.6622 C   0  0  0  0  0  0  0  0  0  0  0  0
  150.7362  140.1737  154.5064 O   0  0  0  0  0  0  0  0  0  0  0  0
  150.5248  141.9784  157.0891 C   0  0  1  0  0  0  0  0  0  0  0  0
  150.2282  142.6008  155.8499 O   0  0  0  0  0  0  0  0  0  0  0  0
  149.3449  142.0072  158.0561 C   0  0  1  0  0  0  0  0  0  0  0  0
  148.5556  143.1788  157.9429 O   0  0  0  0  0  0  0  0  0  0  0  0
  146.1763  141.3531  157.8506 C   0  0  0  0  0  0  0  0  0  0  0  0
  146.3195  141.6451  159.0378 O   0  0  0  0  0  0  0  0  0  0  0  0
  144.9529  141.4968  157.1850 N   0  0  0  0  0  0  0  0  0  0  0  0
  148.4461  140.0877  158.6634 H   0  0  0  0  0  0  0  0  0  0  0  0
  151.2591  140.0892  157.8007 H   0  0  0  0  0  0  0  0  0  0  0  0
  151.4014  142.4706  157.5119 H   0  0  0  0  0  0  0  0  0  0  0  0
  149.7219  141.9452  159.0777 H   0  0  0  0  0  0  0  0  0  0  0  0
  142.8423  141.6793  155.7918 H   0  0  0  0  0  0  0  0  0  0  0  0
  143.4976  141.1363  154.3369 H   0  0  0  0  0  0  0  0  0  0  0  0
  147.9681  140.1929  155.1614 H   0  0  0  0  0  0  0  0  0  0  0  0
  152.4262  140.6341  155.5449 H   0  0  0  0  0  0  0  0  0  0  0  0
  151.8680  138.9871  155.7459 H   0  0  0  0  0  0  0  0  0  0  0  0
  150.0034  140.7318  154.7181 H   0  0  0  0  0  0  0  0  0  0  0  0
  149.6131  143.3007  156.0085 H   0  0  0  0  0  0  0  0  0  0  0  0
  148.7283  143.5700  157.1000 H   0  0  0  0  0  0  0  0  0  0  0  0
  1  2  1  0  0  0  0
  1 22  1  0  0  0  0
  1 23  1  0  0  0  0
  2 17  2  0  0  0  0
  2  3  1  0  0  0  0
  3  4  2  0  0  0  0
  4  5  1  0  0  0  0
  4 24  1  0  0  0  0
  5  6  1  0  0  0  0
  5 15  1  0  0  0  0
  6 18  1  0  0  0  0
  6 13  1  0  0  0  0
  6  7  1  0  0  0  0
  7  8  1  0  0  0  0
  8 19  1  0  0  0  0
  8  9  1  0  0  0  0
  8 11  1  0  0  0  0
  9 10  1  0  0  0  0
  9 25  1  0  0  0  0
  9 26  1  0  0  0  0
 10 27  1  0  0  0  0
 11 20  1  0  0  0  0
 11 12  1  0  0  0  0
 11 13  1  0  0  0  0
 12 28  1  0  0  0  0
 13 21  1  0  0  0  0
 13 14  1  0  0  0  0
 14 29  1  0  0  0  0
 15 16  2  0  0  0  0
 15 17  1  0  0  0  0
M  END
> <s_m_source_file>
AV-unprocessed.smi

> <i_m_source_file_index>
72

> <i_lp_mmshare_version>
43012

> <i_f3d_flags>
0

> <s_epik_input>
W05IMl1jMW5bY0hdbihjKD1PKW4xKVtDQEBIXTJPW0NASF0oW0NIMl1bT0hdKVtDQEBIXShbT0hdKVtDQEhdMltPSF0=

> <s_epik_cmdline>
J2VwaWtfcHl0aG9uJywgJy1waCcsICc3LjAnLCAnLXRuJywgJzgnLCAnLW1hJywgJzIwMCcsICctbWV0YWxfYmluZGluZycsICctaW1hZScsICc8aW5maWxlLm1hZT4nLCAnLW9tYWUnLCAnPG91dGZpbGUubWFlPic=

> <r_lp_tautomer_probability>
4.77166e-05

> <r_epik_Ionization_Penalty>
1.3546

> <r_epik_Ionization_Penalty_Charging>
1.46833e-10

> <r_epik_Ionization_Penalty_Neutral>
1.3546

> <r_epik_State_Penalty>
3.51908

> <r_epik_Charging_Adjusted_Penalty>
3.51908

> <i_epik_Tot_Q>
0

> <i_epik_Tot_abs_Q>
0

> <r_epik_Metal_State_Penalty>
3.44088

> <b_epik_Metal_Only>
1

> <s_epik_Chemistry_Notes>
This compound contains an acetal/aminal-like group ( X-CH(R)-Y where X, Y are N, S, or O) that may be acid/base labile, releasing an aldehyde.

> <s_lp_Force_Field>
OPLS_2005

> <r_lp_Energy>
35.7585

> <b_lp_Chiralities_Consistent>
1

> <s_lp_Variant>
AV-unprocessed.smi:72-84

> <Gold.Version>
5.8.1

> <Gold.Id.Protein>
6NUR|6NUR_protein|mol2

> <Gold.PLP.Fitness>
31.5870

> <Gold.PLP.PLP>
-17.8525

> <Gold.PLP.part.hbond>
-5.9486

> <Gold.PLP.part.metal>
0.0000

> <Gold.PLP.part.buried>
-1.8818

> <Gold.PLP.part.nonpolar>
-9.5343

> <Gold.PLP.part.repulsive>
0.1004

> <Gold.PLP.ligand.clash>
0.0000

> <Gold.PLP.ligand.torsion>
0.3819

> <Gold.PLP.Chemscore.Hbond>
4.8320

> <Gold.PLP.Chemscore.CHOScore>
0.0000

> <Gold.PLP.Chemscore.Metal>
0.0000

> <Gold.Chemscore.Hbonds>
donor molecule, donor type, donor heavy atom, donor atom, acceptor molecule, acceptor atom, score
      L1  H     1    23       P1 10175  1.00
      L1  H    12    28       P1  8028  1.00
      L1  H    14    29       P1  8028  0.95
      P1  H  6934  6946       L1    16  0.80
      P1  H  7989  7998       L1    10  0.96

> <Gold.PLP.Chemscore.Internal.Correction>
0.0023

> <Gold.Rescore>
     Score         DG    S(hbond)    S(metal)    S(lipo)     H(rot)  DE(clash)    DE(int)     intcor
      9.31      -9.91       3.68        0.00      21.50       4.06       0.02       0.58       ----

> <Gold.Chemscore.Fitness>
9.3077

> <Gold.Chemscore.DG>
-9.9081

> <Gold.Chemscore.ZeroCoef>
-5.4800

> <Gold.Chemscore.Hbond>
3.6844

> <Gold.Chemscore.Metal>
0.0000

> <Gold.Chemscore.Lipo>
21.5018

> <Gold.Chemscore.Internal_Hbond>
0.0000

> <Gold.Chemscore.DEClash>
0.0234

> <Gold.Chemscore.DEInternal>
0.5769

> <Gold.Chemscore.Rot>
4.0600

> <Gold.Chemscore.Internal.Correction>
   9.000000E+99

> <Gold.Chemscore.Hbonds>
donor molecule, donor type, donor heavy atom, donor atom, acceptor molecule, acceptor atom, score
      L1  H     1    23       P1 10175  0.60
      L1  H    12    28       P1  8028  0.97
      L1  H    14    29       P1  8028  0.22
      P1  H  6934  6946       L1    16  0.79
      P1  H  7989  7998       L1    10  0.32

> <Gold.Chemscore.Hbond.Weighted>
-12.3059

> <Gold.Chemscore.Metal.Weighted>
-0.0000

> <Gold.Chemscore.Lipo.Weighted>
-2.5157

> <Gold.Chemscore.Internal_Hbond.Weighted>
0.0000

> <Gold.Chemscore.DEClash.Weighted>
0.0234

> <Gold.Chemscore.DEInternal.Weighted>
0.5769

> <Gold.Chemscore.Rot.Weighted>
10.3936

> <Gold.Chemscore.Internal.Correction.Weighted>
   9.000000E+99

> <Gold.Protein.RotatedTorsions>
[ 6907 6896 6895 6894 ] final  117.98 input  -60.11 | X-H torsion
[ 7974 7965 7964 7962 ] final -120.05 input  175.53 | X-H torsion
[ 8008 7997 7996 7995 ] final  -52.52 input   59.86 | X-H torsion
[ 10167 10162 10161 10158 ] final   58.47 input  -65.29 | X-H torsion
[ 10718 10713 10712 10709 ] final  137.36 input   66.30 | X-H torsion
[ 10763 10752 10751 10750 ] final -159.77 input  -60.55 | X-H torsion
[ 11005 11000 10999 10996 ] final  -59.24 input  -57.11 | X-H torsion

> <Gold.Protein.ActiveResidues>
 VAL166  LYS551  ARG553  GLY616  TRP617  ASP618  TYR619  PRO620  LYS621  CYS622 
 ASP623  PHE694  ASN695  SER759  ASP760  ASP761  ALA762  ILE779  LEU786  VAL792 
 PHE793  MET794  SER795  GLU796  ALA797  LYS798  CYS799  TRP800  GLU811  SER814 

> <Gold.Protein.RotatedAtoms>
  152.4575  133.7753  159.6820 H   0  0  0  0  0  0  0  0  0  0  0  0  # atno 6907 bound_to 6896
  150.8506  133.7783  159.3033 H   0  0  0  0  0  0  0  0  0  0  0  0  # atno 6908 bound_to 6896
  151.5379  135.1071  159.9971 H   0  0  0  0  0  0  0  0  0  0  0  0  # atno 6909 bound_to 6896
  145.0557  140.8252  143.4182 H   0  0  0  0  0  0  0  0  0  0  0  0  # atno 7974 bound_to 7965
  154.4109  140.1222  156.5005 H   0  0  0  0  0  0  0  0  0  0  0  0  # atno 8008 bound_to 7997
  155.6900  140.3495  155.4870 H   0  0  0  0  0  0  0  0  0  0  0  0  # atno 8009 bound_to 7997
  155.9477  140.1099  157.0993 H   0  0  0  0  0  0  0  0  0  0  0  0  # atno 8010 bound_to 7997
  140.1869  144.4125  150.6589 H   0  0  0  0  0  0  0  0  0  0  0  0  # atno 10167 bound_to 10162
  157.4369  131.1054  151.0187 H   0  0  0  0  0  0  0  0  0  0  0  0  # atno 10718 bound_to 10713
  154.7447  135.3077  154.8666 H   0  0  0  0  0  0  0  0  0  0  0  0  # atno 10763 bound_to 10752
  153.9470  135.6768  153.4748 H   0  0  0  0  0  0  0  0  0  0  0  0  # atno 10764 bound_to 10752
  153.1044  135.4896  154.8851 H   0  0  0  0  0  0  0  0  0  0  0  0  # atno 10765 bound_to 10752
  141.1240  133.6615  156.5041 H   0  0  0  0  0  0  0  0  0  0  0  0  # atno 11005 bound_to 11000
  145.1471  139.2537  143.5460 LP  0  0  0  0  0  0  0  0  0  0  0  0  # atno 17320 bound_to 7965
  146.3521  140.1164  142.8602 LP  0  0  0  0  0  0  0  0  0  0  0  0  # atno 17321 bound_to 7965
  140.6482  143.2218  151.6138 LP  0  0  0  0  0  0  0  0  0  0  0  0  # atno 17342 bound_to 10162
  139.5272  144.3023  152.1063 LP  0  0  0  0  0  0  0  0  0  0  0  0  # atno 17343 bound_to 10162
  157.1064  130.6003  149.5472 LP  0  0  0  0  0  0  0  0  0  0  0  0  # atno 17370 bound_to 10713
  155.9934  130.4994  150.7378 LP  0  0  0  0  0  0  0  0  0  0  0  0  # atno 17371 bound_to 10713
  140.4422  134.7005  157.4997 LP  0  0  0  0  0  0  0  0  0  0  0  0  # atno 17394 bound_to 11000
  140.0222  134.6531  155.9224 LP  0  0  0  0  0  0  0  0  0  0  0  0  # atno 17395 bound_to 11000

$$$$
