AV-unprocessed.smi:649|AV-procd|sdf|3178|dock1
  -GOLD-   22720 0103D 1   1.00000     0.00000
 Structure written by MMmdl.
 35 36  0  0  0  0  0  0  0  0  1 V2000
  152.2263  145.0874  159.2847 C   0  0  0  0  0  0  0  0  0  0  0  0
  152.3093  143.5753  159.3188 C   0  0  0  0  0  0  0  0  0  0  0  0
  152.8070  142.9130  160.4565 C   0  0  0  0  0  0  0  0  0  0  0  0
  152.8712  141.5081  160.4797 C   0  0  0  0  0  0  0  0  0  0  0  0
  152.4455  140.7498  159.3681 C   0  0  0  0  0  0  0  0  0  0  0  0
  152.5192  139.2347  159.4526 C   0  0  0  0  0  0  0  0  0  0  0  0
  151.9556  141.4112  158.2108 C   0  0  0  0  0  0  0  0  0  0  0  0
  151.4833  140.6338  156.9821 C   0  0  2  0  0  0  0  0  0  0  0  0
  152.4837  139.7593  156.4930 O   0  0  0  0  0  0  0  0  0  0  0  0
  151.0694  141.5955  155.8462 C   0  0  0  0  0  0  0  0  0  0  0  0
  149.9628  141.1121  155.0541 N   0  0  0  0  0  0  0  0  0  0  0  0
  148.7900  141.8357  154.9013 C   0  0  0  0  0  0  0  0  0  0  0  0
  147.7519  141.4157  154.1387 C   0  0  0  0  0  0  0  0  0  0  0  0
  146.3233  142.3763  153.9960 Cl  0  0  0  0  0  0  0  0  0  0  0  0
  147.8368  140.1425  153.4243 C   0  0  0  0  0  0  0  0  0  0  0  0
  146.9583  139.6684  152.7064 O   0  0  0  0  0  0  0  0  0  0  0  0
  149.0373  139.4491  153.6046 N   0  0  0  0  0  0  0  0  0  0  0  0
  150.1113  139.8743  154.3869 C   0  0  0  0  0  0  0  0  0  0  0  0
  151.1252  139.1810  154.4650 O   0  0  0  0  0  0  0  0  0  0  0  0
  151.8839  142.8240  158.2059 C   0  0  0  0  0  0  0  0  0  0  0  0
  149.1369  138.5667  153.1242 H   0  0  0  0  0  0  0  0  0  0  0  0
  152.6194  145.5293  160.2008 H   0  0  0  0  0  0  0  0  0  0  0  0
  151.1896  145.4050  159.1707 H   0  0  0  0  0  0  0  0  0  0  0  0
  152.8002  145.4792  158.4444 H   0  0  0  0  0  0  0  0  0  0  0  0
  153.1363  143.4772  161.3168 H   0  0  0  0  0  0  0  0  0  0  0  0
  153.2483  141.0131  161.3625 H   0  0  0  0  0  0  0  0  0  0  0  0
  151.5440  138.7927  159.2502 H   0  0  0  0  0  0  0  0  0  0  0  0
  152.8300  138.9062  160.4448 H   0  0  0  0  0  0  0  0  0  0  0  0
  153.2383  138.8438  158.7326 H   0  0  0  0  0  0  0  0  0  0  0  0
  150.6442  139.9978  157.2586 H   0  0  0  0  0  0  0  0  0  0  0  0
  152.0674  139.0992  155.9600 H   0  0  0  0  0  0  0  0  0  0  0  0
  150.7762  142.5764  156.2268 H   0  0  0  0  0  0  0  0  0  0  0  0
  151.8949  141.7790  155.1561 H   0  0  0  0  0  0  0  0  0  0  0  0
  148.6967  142.7848  155.4100 H   0  0  0  0  0  0  0  0  0  0  0  0
  151.4963  143.3431  157.3412 H   0  0  0  0  0  0  0  0  0  0  0  0
  1  2  1  0  0  0  0
  1 22  1  0  0  0  0
  1 23  1  0  0  0  0
  1 24  1  0  0  0  0
  2 20  1  0  0  0  0
  2  3  2  0  0  0  0
  3  4  1  0  0  0  0
  3 25  1  0  0  0  0
  4  5  2  0  0  0  0
  4 26  1  0  0  0  0
  5  6  1  0  0  0  0
  5  7  1  0  0  0  0
  6 27  1  0  0  0  0
  6 28  1  0  0  0  0
  6 29  1  0  0  0  0
  7  8  1  0  0  0  0
  7 20  2  0  0  0  0
  8  9  1  0  0  0  0
  8 10  1  0  0  0  0
  8 30  1  0  0  0  0
  9 31  1  0  0  0  0
 10 11  1  0  0  0  0
 10 32  1  0  0  0  0
 10 33  1  0  0  0  0
 11 18  1  0  0  0  0
 11 12  1  0  0  0  0
 12 13  2  0  0  0  0
 12 34  1  0  0  0  0
 13 14  1  0  0  0  0
 13 15  1  0  0  0  0
 15 16  2  0  0  0  0
 15 17  1  0  0  0  0
 17 21  1  0  0  0  0
 17 18  1  0  0  0  0
 18 19  2  0  0  0  0
 20 35  1  0  0  0  0
M  END
> <s_m_source_file>
AV-unprocessed.smi

> <i_m_source_file_index>
649

> <i_lp_mmshare_version>
43012

> <i_f3d_flags>
0

> <s_epik_input>
W0NIM11jMVtjSF1bY0hdYyhbQ0gzXSljKFtjSF0xKVtDQEhdKFtPSF0pW0NIMl1uMltjSF1jKENsKWMoPU8pW25IXWMyPU8=

> <s_epik_cmdline>
J2VwaWtfcHl0aG9uJywgJy1waCcsICc3LjAnLCAnLXRuJywgJzgnLCAnLW1hJywgJzIwMCcsICctbWV0YWxfYmluZGluZycsICctaW1hZScsICc8aW5maWxlLm1hZT4nLCAnLW9tYWUnLCAnPG91dGZpbGUubWFlPic=

> <r_lp_tautomer_probability>
0.999537

> <r_epik_Ionization_Penalty>
0.0292058

> <r_epik_Ionization_Penalty_Charging>
0.0292057

> <r_epik_Ionization_Penalty_Neutral>
4.85868e-08

> <r_epik_State_Penalty>
0.0240115

> <r_epik_Charging_Adjusted_Penalty>
0.0532172

> <i_epik_Tot_Q>
0

> <i_epik_Tot_abs_Q>
0

> <r_epik_Metal_State_Penalty>
2.21956

> <b_epik_Metal_Only>
0

> <s_lp_Force_Field>
OPLS_2005

> <r_lp_Energy>
13.7265

> <b_lp_Chiralities_Consistent>
1

> <s_lp_Variant>
AV-unprocessed.smi:649-1

> <Gold.Version>
5.8.1

> <Gold.Id.Protein>
6NUR|6NUR_protein|mol2

> <Gold.PLP.Fitness>
51.0895

> <Gold.PLP.PLP>
-46.0069

> <Gold.PLP.part.hbond>
-2.8960

> <Gold.PLP.part.metal>
0.0000

> <Gold.PLP.part.buried>
-2.6403

> <Gold.PLP.part.nonpolar>
-39.5727

> <Gold.PLP.part.repulsive>
0.4708

> <Gold.PLP.ligand.clash>
0.0000

> <Gold.PLP.ligand.torsion>
0.4698

> <Gold.PLP.Chemscore.Hbond>
1.0000

> <Gold.PLP.Chemscore.CHOScore>
1.0000

> <Gold.PLP.Chemscore.Metal>
0.0000

> <Gold.Chemscore.Hbonds>
donor molecule, donor type, donor heavy atom, donor atom, acceptor molecule, acceptor atom, score
      P1  H  7997  8008       L1     9  1.00
      L1  C    12    34       P1  8028  0.80

> <Gold.PLP.Chemscore.Internal.Correction>
0.0222

> <Gold.Rescore>
     Score         DG    S(hbond)    S(metal)    S(lipo)     H(rot)  DE(clash)    DE(int)     intcor
     15.04     -17.62       1.40        0.00     110.44       2.14       0.50       2.08       ----

> <Gold.Chemscore.Fitness>
15.0422

> <Gold.Chemscore.DG>
-17.6189

> <Gold.Chemscore.ZeroCoef>
-5.4800

> <Gold.Chemscore.Hbond>
1.4022

> <Gold.Chemscore.Metal>
0.0000

> <Gold.Chemscore.Lipo>
110.4393

> <Gold.Chemscore.Internal_Hbond>
0.0000

> <Gold.Chemscore.DEClash>
0.4996

> <Gold.Chemscore.DEInternal>
2.0771

> <Gold.Chemscore.Rot>
2.1351

> <Gold.Chemscore.Internal.Correction>
   9.000000E+99

> <Gold.Chemscore.Hbonds>
donor molecule, donor type, donor heavy atom, donor atom, acceptor molecule, acceptor atom, score
      P1  H  7997  8008       L1     9  0.99

> <Gold.Chemscore.Hbond.Weighted>
-4.6834

> <Gold.Chemscore.Metal.Weighted>
-0.0000

> <Gold.Chemscore.Lipo.Weighted>
-12.9214

> <Gold.Chemscore.Internal_Hbond.Weighted>
0.0000

> <Gold.Chemscore.DEClash.Weighted>
0.4996

> <Gold.Chemscore.DEInternal.Weighted>
2.0771

> <Gold.Chemscore.Rot.Weighted>
5.4660

> <Gold.Chemscore.Internal.Correction.Weighted>
   9.000000E+99

> <Gold.Protein.RotatedTorsions>
[ 6907 6896 6895 6894 ] final   37.34 input  -60.11 | X-H torsion
[ 7974 7965 7964 7962 ] final -162.57 input  175.53 | X-H torsion
[ 8008 7997 7996 7995 ] final  -52.38 input   59.86 | X-H torsion
[ 10167 10162 10161 10158 ] final  137.58 input  -65.29 | X-H torsion
[ 10718 10713 10712 10709 ] final  -88.64 input   66.30 | X-H torsion
[ 10763 10752 10751 10750 ] final  -71.66 input  -60.55 | X-H torsion
[ 11005 11000 10999 10996 ] final   20.15 input  -57.11 | X-H torsion

> <Gold.Protein.ActiveResidues>
 VAL166  LYS551  ARG553  GLY616  TRP617  ASP618  TYR619  PRO620  LYS621  CYS622 
 ASP623  PHE694  ASN695  SER759  ASP760  ASP761  ALA762  ILE779  LEU786  VAL792 
 PHE793  MET794  SER795  GLU796  ALA797  LYS798  CYS799  TRP800  GLU811  SER814 

> <Gold.Protein.RotatedAtoms>
  152.1418  134.9056  160.0553 H   0  0  0  0  0  0  0  0  0  0  0  0  # atno 6907 bound_to 6896
  152.0121  133.3860  159.4232 H   0  0  0  0  0  0  0  0  0  0  0  0  # atno 6908 bound_to 6896
  150.6866  134.3640  159.5007 H   0  0  0  0  0  0  0  0  0  0  0  0  # atno 6909 bound_to 6896
  144.7353  140.3233  143.6166 H   0  0  0  0  0  0  0  0  0  0  0  0  # atno 7974 bound_to 7965
  154.4105  140.1225  156.4982 H   0  0  0  0  0  0  0  0  0  0  0  0  # atno 8008 bound_to 7997
  155.6922  140.3495  155.4878 H   0  0  0  0  0  0  0  0  0  0  0  0  # atno 8009 bound_to 7997
  155.9459  140.1096  157.1007 H   0  0  0  0  0  0  0  0  0  0  0  0  # atno 8010 bound_to 7997
  139.5139  144.6402  151.5590 H   0  0  0  0  0  0  0  0  0  0  0  0  # atno 10167 bound_to 10162
  155.9983  130.4843  150.5050 H   0  0  0  0  0  0  0  0  0  0  0  0  # atno 10718 bound_to 10713
  154.4348  135.5955  153.6092 H   0  0  0  0  0  0  0  0  0  0  0  0  # atno 10763 bound_to 10752
  152.9801  135.5984  154.3794 H   0  0  0  0  0  0  0  0  0  0  0  0  # atno 10764 bound_to 10752
  154.3637  135.2841  155.2284 H   0  0  0  0  0  0  0  0  0  0  0  0  # atno 10765 bound_to 10752
  140.4058  134.1670  155.7665 H   0  0  0  0  0  0  0  0  0  0  0  0  # atno 11005 bound_to 11000
  145.7546  139.1805  143.2302 LP  0  0  0  0  0  0  0  0  0  0  0  0  # atno 17320 bound_to 7965
  146.1034  140.7516  142.9538 LP  0  0  0  0  0  0  0  0  0  0  0  0  # atno 17321 bound_to 7965
  140.6166  143.9338  150.6493 LP  0  0  0  0  0  0  0  0  0  0  0  0  # atno 17342 bound_to 10162
  140.2598  143.3532  152.1333 LP  0  0  0  0  0  0  0  0  0  0  0  0  # atno 17343 bound_to 10162
  157.3030  131.0649  151.2055 LP  0  0  0  0  0  0  0  0  0  0  0  0  # atno 17370 bound_to 10713
  157.3028  130.6851  149.6173 LP  0  0  0  0  0  0  0  0  0  0  0  0  # atno 17371 bound_to 10713
  141.1840  133.8353  157.1156 LP  0  0  0  0  0  0  0  0  0  0  0  0  # atno 17394 bound_to 11000
  140.0303  134.9904  157.0767 LP  0  0  0  0  0  0  0  0  0  0  0  0  # atno 17395 bound_to 11000

$$$$
