AV-unprocessed.smi:1506|AV-procd|sdf|6078|dock8
  -GOLD-   22720 6203D 1   1.00000     0.00000
 Structure written by MMmdl.
 40 42  0  0  0  0  0  0  0  0  2 V2000
  152.9817  142.6115  162.8634 C   0  0  0  0  0  0  0  0  0  0  0  0
  152.4947  143.1024  161.5156 C   0  0  0  0  0  0  0  0  0  0  0  0
  152.0125  144.4180  161.3692 C   0  0  0  0  0  0  0  0  0  0  0  0
  151.5617  144.8647  160.1135 C   0  0  0  0  0  0  0  0  0  0  0  0
  151.5891  144.0004  159.0020 C   0  0  0  0  0  0  0  0  0  0  0  0
  152.0690  142.6730  159.1373 C   0  0  0  0  0  0  0  0  0  0  0  0
  152.1280  141.7607  158.1054 O   0  0  0  0  0  0  0  0  0  0  0  0
  152.0724  140.3769  158.4265 C   0  0  0  0  0  0  0  0  0  0  0  0
  151.6733  139.5865  157.1716 C   0  0  2  0  0  0  0  0  0  0  0  0
  152.7491  138.7395  156.8186 O   0  0  0  0  0  0  0  0  0  0  0  0
  151.3106  140.5093  155.9904 C   0  0  0  0  0  0  0  0  0  0  0  0
  150.4738  139.8463  154.9798 N   0  0  0  0  0  0  0  0  0  0  0  0
  150.6390  138.6400  154.3724 C   0  0  0  0  0  0  0  0  0  0  0  0
  149.5953  138.4642  153.5151 N   0  3  0  0  0  0  0  0  0  0  0  0
  148.7516  139.5755  153.5732 C   0  0  0  0  0  0  0  0  0  0  0  0
  147.5714  139.8596  152.8928 C   0  0  0  0  0  0  0  0  0  0  0  0
  146.9549  141.0946  153.1828 C   0  0  0  0  0  0  0  0  0  0  0  0
  147.5120  141.9919  154.1170 C   0  0  0  0  0  0  0  0  0  0  0  0
  148.7078  141.6925  154.8025 C   0  0  0  0  0  0  0  0  0  0  0  0
  149.3109  140.4692  154.5113 C   0  0  0  0  0  0  0  0  0  0  0  0
  152.5193  142.2390  160.4013 C   0  0  0  0  0  0  0  0  0  0  0  0
  153.1391  143.4410  163.5536 H   0  0  0  0  0  0  0  0  0  0  0  0
  153.9257  142.0765  162.7569 H   0  0  0  0  0  0  0  0  0  0  0  0
  152.2499  141.9340  163.3039 H   0  0  0  0  0  0  0  0  0  0  0  0
  151.9864  145.0879  162.2163 H   0  0  0  0  0  0  0  0  0  0  0  0
  151.1932  145.8737  160.0017 H   0  0  0  0  0  0  0  0  0  0  0  0
  151.2353  144.3813  158.0562 H   0  0  0  0  0  0  0  0  0  0  0  0
  153.0368  140.0240  158.7960 H   0  0  0  0  0  0  0  0  0  0  0  0
  151.3308  140.2208  159.2122 H   0  0  0  0  0  0  0  0  0  0  0  0
  150.8209  138.9480  157.4080 H   0  0  0  0  0  0  0  0  0  0  0  0
  152.3958  137.9155  156.5192 H   0  0  0  0  0  0  0  0  0  0  0  0
  150.7489  141.3713  156.3526 H   0  0  0  0  0  0  0  0  0  0  0  0
  152.2042  140.9102  155.5114 H   0  0  0  0  0  0  0  0  0  0  0  0
  151.4501  137.9466  154.5418 H   0  0  0  0  0  0  0  0  0  0  0  0
  147.1431  139.1747  152.1757 H   0  0  0  0  0  0  0  0  0  0  0  0
  146.0377  141.3599  152.6774 H   0  0  0  0  0  0  0  0  0  0  0  0
  147.0131  142.9303  154.3111 H   0  0  0  0  0  0  0  0  0  0  0  0
  149.1285  142.3903  155.5111 H   0  0  0  0  0  0  0  0  0  0  0  0
  152.8879  141.2298  160.5157 H   0  0  0  0  0  0  0  0  0  0  0  0
  149.4703  137.6446  152.9346 H   0  0  0  0  0  0  0  0  0  0  0  0
  1  2  1  0  0  0  0
  1 22  1  0  0  0  0
  1 23  1  0  0  0  0
  1 24  1  0  0  0  0
  2 21  1  0  0  0  0
  2  3  2  0  0  0  0
  3  4  1  0  0  0  0
  3 25  1  0  0  0  0
  4  5  2  0  0  0  0
  4 26  1  0  0  0  0
  5  6  1  0  0  0  0
  5 27  1  0  0  0  0
  6  7  1  0  0  0  0
  6 21  2  0  0  0  0
  7  8  1  0  0  0  0
  8  9  1  0  0  0  0
  8 28  1  0  0  0  0
  8 29  1  0  0  0  0
  9 10  1  0  0  0  0
  9 11  1  0  0  0  0
  9 30  1  0  0  0  0
 10 31  1  0  0  0  0
 11 12  1  0  0  0  0
 11 32  1  0  0  0  0
 11 33  1  0  0  0  0
 12 20  1  0  0  0  0
 12 13  1  0  0  0  0
 13 14  2  0  0  0  0
 13 34  1  0  0  0  0
 14 15  1  0  0  0  0
 14 40  1  0  0  0  0
 15 20  2  0  0  0  0
 15 16  1  0  0  0  0
 16 17  2  0  0  0  0
 16 35  1  0  0  0  0
 17 18  1  0  0  0  0
 17 36  1  0  0  0  0
 18 19  2  0  0  0  0
 18 37  1  0  0  0  0
 19 20  1  0  0  0  0
 19 38  1  0  0  0  0
 21 39  1  0  0  0  0
M  CHG  1  14   1
M  END
> <s_m_source_file>
AV-unprocessed.smi

> <i_m_source_file_index>
1506

> <i_lp_mmshare_version>
43012

> <i_f3d_flags>
0

> <s_epik_input>
W0NIM11jMVtjSF1bY0hdW2NIXWMoW2NIXTEpT1tDSDJdW0NASF0oW09IXSlbQ0gyXW4oW2NIXW4yKWMoYzIzKVtjSF1bY0hdW2NIXVtjSF0z

> <s_epik_cmdline>
J2VwaWtfcHl0aG9uJywgJy1waCcsICc3LjAnLCAnLXRuJywgJzgnLCAnLW1hJywgJzIwMCcsICctbWV0YWxfYmluZGluZycsICctaW1hZScsICc8aW5maWxlLm1hZT4nLCAnLW9tYWUnLCAnPG91dGZpbGUubWFlPic=

> <r_lp_tautomer_probability>
1

> <r_epik_Ionization_Penalty>
1.37864

> <r_epik_Ionization_Penalty_Charging>
1.37864

> <r_epik_Ionization_Penalty_Neutral>
2.3993e-06

> <r_epik_State_Penalty>
1.45896

> <r_epik_Charging_Adjusted_Penalty>
2.8376

> <i_epik_Tot_Q>
1

> <i_epik_Tot_abs_Q>
1

> <r_epik_Metal_State_Penalty>
5.49899

> <b_epik_Metal_Only>
0

> <s_lp_Force_Field>
OPLS_2005

> <r_lp_Energy>
20.022

> <b_lp_Chiralities_Consistent>
1

> <s_lp_Variant>
AV-unprocessed.smi:1506-3

> <Gold.Version>
5.8.1

> <Gold.Id.Protein>
6NUR|6NUR_protein|mol2

> <Gold.PLP.Fitness>
59.5270

> <Gold.PLP.PLP>
-53.4989

> <Gold.PLP.part.hbond>
-3.0000

> <Gold.PLP.part.metal>
0.0000

> <Gold.PLP.part.buried>
2.1923

> <Gold.PLP.part.nonpolar>
-52.1279

> <Gold.PLP.part.repulsive>
0.0746

> <Gold.PLP.ligand.clash>
0.0000

> <Gold.PLP.ligand.torsion>
1.4976

> <Gold.PLP.Chemscore.Hbond>
3.0000

> <Gold.PLP.Chemscore.CHOScore>
0.0000

> <Gold.PLP.Chemscore.Metal>
0.0000

> <Gold.Chemscore.Hbonds>
donor molecule, donor type, donor heavy atom, donor atom, acceptor molecule, acceptor atom, score
      L1  H    14    40       P1  7948  2.00
      P1  H  7997  8009       L1    10  0.80

> <Gold.PLP.Chemscore.Internal.Correction>
0.0232

> <Gold.Rescore>
     Score         DG    S(hbond)    S(metal)    S(lipo)     H(rot)  DE(clash)    DE(int)     intcor
     18.94     -21.56       1.76        0.00     136.95       2.27       0.94       1.68       ----

> <Gold.Chemscore.Fitness>
18.9398

> <Gold.Chemscore.DG>
-21.5610

> <Gold.Chemscore.ZeroCoef>
-5.4800

> <Gold.Chemscore.Hbond>
1.7590

> <Gold.Chemscore.Metal>
0.0000

> <Gold.Chemscore.Lipo>
136.9494

> <Gold.Chemscore.Internal_Hbond>
0.0000

> <Gold.Chemscore.DEClash>
0.9398

> <Gold.Chemscore.DEInternal>
1.6814

> <Gold.Chemscore.Rot>
2.2723

> <Gold.Chemscore.Internal.Correction>
   9.000000E+99

> <Gold.Chemscore.Hbonds>
donor molecule, donor type, donor heavy atom, donor atom, acceptor molecule, acceptor atom, score
      L1  H    14    40       P1  7948  0.85
      P1  H  7997  8009       L1    10  0.35

> <Gold.Chemscore.Hbond.Weighted>
-5.8749

> <Gold.Chemscore.Metal.Weighted>
-0.0000

> <Gold.Chemscore.Lipo.Weighted>
-16.0231

> <Gold.Chemscore.Internal_Hbond.Weighted>
0.0000

> <Gold.Chemscore.DEClash.Weighted>
0.9398

> <Gold.Chemscore.DEInternal.Weighted>
1.6814

> <Gold.Chemscore.Rot.Weighted>
5.8170

> <Gold.Chemscore.Internal.Correction.Weighted>
   9.000000E+99

> <Gold.Protein.RotatedTorsions>
[ 6907 6896 6895 6894 ] final  166.09 input  -60.11 | X-H torsion
[ 7974 7965 7964 7962 ] final  147.83 input  175.53 | X-H torsion
[ 8008 7997 7996 7995 ] final -174.54 input   59.86 | X-H torsion
[ 10167 10162 10161 10158 ] final  169.22 input  -65.29 | X-H torsion
[ 10718 10713 10712 10709 ] final -105.05 input   66.30 | X-H torsion
[ 10763 10752 10751 10750 ] final -163.39 input  -60.55 | X-H torsion
[ 11005 11000 10999 10996 ] final   38.91 input  -57.11 | X-H torsion

> <Gold.Protein.ActiveResidues>
 VAL166  LYS551  ARG553  GLY616  TRP617  ASP618  TYR619  PRO620  LYS621  CYS622 
 ASP623  PHE694  ASN695  SER759  ASP760  ASP761  ALA762  ILE779  LEU786  VAL792 
 PHE793  MET794  SER795  GLU796  ALA797  LYS798  CYS799  TRP800  GLU811  SER814 

> <Gold.Protein.RotatedAtoms>
  151.8843  133.3502  159.3776 H   0  0  0  0  0  0  0  0  0  0  0  0  # atno 6907 bound_to 6896
  150.7119  134.4987  159.5560 H   0  0  0  0  0  0  0  0  0  0  0  0  # atno 6908 bound_to 6896
  152.2545  134.8099  160.0491 H   0  0  0  0  0  0  0  0  0  0  0  0  # atno 6909 bound_to 6896
  144.8561  139.6078  143.5952 H   0  0  0  0  0  0  0  0  0  0  0  0  # atno 7974 bound_to 7965
  155.9714  140.1163  157.0809 H   0  0  0  0  0  0  0  0  0  0  0  0  # atno 8008 bound_to 7997
  154.4157  140.1162  156.5379 H   0  0  0  0  0  0  0  0  0  0  0  0  # atno 8009 bound_to 7997
  155.6592  140.3473  155.4778 H   0  0  0  0  0  0  0  0  0  0  0  0  # atno 8010 bound_to 7997
  139.4987  144.3730  151.9704 H   0  0  0  0  0  0  0  0  0  0  0  0  # atno 10167 bound_to 10162
  156.0329  130.5545  150.7484 H   0  0  0  0  0  0  0  0  0  0  0  0  # atno 10718 bound_to 10713
  154.7126  135.3009  154.9173 H   0  0  0  0  0  0  0  0  0  0  0  0  # atno 10763 bound_to 10752
  154.0069  135.6699  153.4767 H   0  0  0  0  0  0  0  0  0  0  0  0  # atno 10764 bound_to 10752
  153.0768  135.5030  154.8334 H   0  0  0  0  0  0  0  0  0  0  0  0  # atno 10765 bound_to 10752
  140.2080  134.3790  155.8063 H   0  0  0  0  0  0  0  0  0  0  0  0  # atno 11005 bound_to 11000
  146.2824  139.6912  142.9220 LP  0  0  0  0  0  0  0  0  0  0  0  0  # atno 17320 bound_to 7965
  145.4404  141.0422  143.2861 LP  0  0  0  0  0  0  0  0  0  0  0  0  # atno 17321 bound_to 7965
  140.3166  144.3476  150.6020 LP  0  0  0  0  0  0  0  0  0  0  0  0  # atno 17342 bound_to 10162
  140.5756  143.2177  151.7521 LP  0  0  0  0  0  0  0  0  0  0  0  0  # atno 17343 bound_to 10162
  157.5034  131.0920  151.0286 LP  0  0  0  0  0  0  0  0  0  0  0  0  # atno 17370 bound_to 10713
  157.0661  130.5845  149.5394 LP  0  0  0  0  0  0  0  0  0  0  0  0  # atno 17371 bound_to 10713
  141.2227  133.7128  156.8370 LP  0  0  0  0  0  0  0  0  0  0  0  0  # atno 17394 bound_to 11000
  140.1982  134.8916  157.3138 LP  0  0  0  0  0  0  0  0  0  0  0  0  # atno 17395 bound_to 11000

$$$$
