AV-unprocessed.smi:2785|AV-procd|sdf|10746|dock2
  -GOLD-   2272015183D 1   1.00000     0.00000
 Structure written by MMmdl.
 37 38  0  0  0  0  0  0  0  0  1 V2000
  146.2564  132.5572  151.1902 C   0  0  0  0  0  0  0  0  0  0  0  0
  144.8665  133.0530  151.6192 C   0  0  0  0  0  0  0  0  0  0  0  0
  143.8426  132.9445  150.4748 C   0  0  0  0  0  0  0  0  0  0  0  0
  144.9597  134.4117  152.1717 N   0  0  0  0  0  0  0  0  0  0  0  0
  144.6430  134.7140  153.5582 C   0  0  0  0  0  0  0  0  0  0  0  0
  144.6269  136.2438  153.6356 C   0  0  0  0  0  0  0  0  0  0  0  0
  145.3099  136.7601  152.3586 C   0  0  1  0  0  0  0  0  0  0  0  0
  146.6668  137.2077  152.6653 N   0  0  0  0  0  0  0  0  0  0  0  0
  146.9790  138.2334  153.4711 C   0  0  0  0  0  0  0  0  0  0  0  0
  146.1394  138.9071  154.0688 O   0  0  0  0  0  0  0  0  0  0  0  0
  148.3098  138.4171  153.5302 N   0  0  0  0  0  0  0  0  0  0  0  0
  149.0284  139.4053  154.2546 C   0  0  0  0  0  0  0  0  0  0  0  0
  148.4394  140.6901  154.2595 C   0  0  0  0  0  0  0  0  0  0  0  0
  149.0731  141.7408  154.9513 C   0  0  0  0  0  0  0  0  0  0  0  0
  150.2810  141.4770  155.6210 C   0  0  0  0  0  0  0  0  0  0  0  0
  150.9265  142.4549  156.2996 F   0  0  0  0  0  0  0  0  0  0  0  0
  150.8013  140.1708  155.5673 C   0  0  0  0  0  0  0  0  0  0  0  0
  150.1949  139.1631  154.9042 N   0  0  0  0  0  0  0  0  0  0  0  0
  145.3565  135.4995  151.4968 C   0  0  0  0  0  0  0  0  0  0  0  0
  145.7031  135.5225  150.3160 O   0  0  0  0  0  0  0  0  0  0  0  0
  146.2098  131.5320  150.8225 H   0  0  0  0  0  0  0  0  0  0  0  0
  146.9586  132.5741  152.0245 H   0  0  0  0  0  0  0  0  0  0  0  0
  146.6700  133.1778  150.3944 H   0  0  0  0  0  0  0  0  0  0  0  0
  144.5123  132.3934  152.4134 H   0  0  0  0  0  0  0  0  0  0  0  0
  143.7332  131.9090  150.1517 H   0  0  0  0  0  0  0  0  0  0  0  0
  144.1431  133.5263  149.6031 H   0  0  0  0  0  0  0  0  0  0  0  0
  142.8586  133.2917  150.7910 H   0  0  0  0  0  0  0  0  0  0  0  0
  143.6839  134.2871  153.8545 H   0  0  0  0  0  0  0  0  0  0  0  0
  145.4186  134.3070  154.2082 H   0  0  0  0  0  0  0  0  0  0  0  0
  143.5924  136.5901  153.6501 H   0  0  0  0  0  0  0  0  0  0  0  0
  145.0931  136.6101  154.5516 H   0  0  0  0  0  0  0  0  0  0  0  0
  144.7201  137.5450  151.8818 H   0  0  0  0  0  0  0  0  0  0  0  0
  147.4203  136.7104  152.2142 H   0  0  0  0  0  0  0  0  0  0  0  0
  148.8746  137.7810  152.9874 H   0  0  0  0  0  0  0  0  0  0  0  0
  147.5101  140.8739  153.7397 H   0  0  0  0  0  0  0  0  0  0  0  0
  148.6395  142.7299  154.9673 H   0  0  0  0  0  0  0  0  0  0  0  0
  151.7265  139.9276  156.0683 H   0  0  0  0  0  0  0  0  0  0  0  0
  1  2  1  0  0  0  0
  1 21  1  0  0  0  0
  1 22  1  0  0  0  0
  1 23  1  0  0  0  0
  2  3  1  0  0  0  0
  2  4  1  0  0  0  0
  2 24  1  0  0  0  0
  3 25  1  0  0  0  0
  3 26  1  0  0  0  0
  3 27  1  0  0  0  0
  4 19  1  0  0  0  0
  4  5  1  0  0  0  0
  5  6  1  0  0  0  0
  5 28  1  0  0  0  0
  5 29  1  0  0  0  0
  6  7  1  0  0  0  0
  6 30  1  0  0  0  0
  6 31  1  0  0  0  0
  7  8  1  0  0  0  0
  7 19  1  0  0  0  0
  7 32  1  0  0  0  0
  8  9  1  0  0  0  0
  8 33  1  0  0  0  0
  9 10  2  0  0  0  0
  9 11  1  0  0  0  0
 11 12  1  0  0  0  0
 11 34  1  0  0  0  0
 12 18  1  0  0  0  0
 12 13  2  0  0  0  0
 13 14  1  0  0  0  0
 13 35  1  0  0  0  0
 14 15  2  0  0  0  0
 14 36  1  0  0  0  0
 15 16  1  0  0  0  0
 15 17  1  0  0  0  0
 17 18  2  0  0  0  0
 17 37  1  0  0  0  0
 19 20  2  0  0  0  0
M  END
> <s_m_source_file>
AV-unprocessed.smi

> <i_m_source_file_index>
2785

> <i_lp_mmshare_version>
43012

> <i_f3d_flags>
0

> <s_epik_input>
W0NIM11bQ0hdKFtDSDNdKU4xW0NIMl1bQ0gyXVtDQEhdKEMxPU8pW05IXUMoPU8pW05IXWMyW2NIXVtjSF1jKEYpW2NIXW4y

> <s_epik_cmdline>
J2VwaWtfcHl0aG9uJywgJy1waCcsICc3LjAnLCAnLXRuJywgJzgnLCAnLW1hJywgJzIwMCcsICctbWV0YWxfYmluZGluZycsICctaW1hZScsICc8aW5maWxlLm1hZT4nLCAnLW9tYWUnLCAnPG91dGZpbGUubWFlPic=

> <r_lp_tautomer_probability>
1

> <r_epik_Ionization_Penalty>
3.20266e-05

> <r_epik_Ionization_Penalty_Charging>
0

> <r_epik_Ionization_Penalty_Neutral>
3.20266e-05

> <r_epik_State_Penalty>
-0

> <r_epik_Charging_Adjusted_Penalty>
0

> <i_epik_Tot_Q>
0

> <i_epik_Tot_abs_Q>
0

> <r_epik_Metal_State_Penalty>
-0

> <b_epik_Metal_Only>
0

> <s_lp_Force_Field>
OPLS_2005

> <r_lp_Energy>
23.6271

> <b_lp_Chiralities_Consistent>
1

> <s_lp_Variant>
AV-unprocessed.smi:2785-1

> <Gold.Version>
5.8.1

> <Gold.Id.Protein>
6NUR|6NUR_protein|mol2

> <Gold.PLP.Fitness>
35.7237

> <Gold.PLP.PLP>
-30.3296

> <Gold.PLP.part.hbond>
-2.2874

> <Gold.PLP.part.metal>
0.0000

> <Gold.PLP.part.buried>
-5.5151

> <Gold.PLP.part.nonpolar>
-24.8711

> <Gold.PLP.part.repulsive>
1.7162

> <Gold.PLP.ligand.clash>
0.0000

> <Gold.PLP.ligand.torsion>
0.3412

> <Gold.PLP.Chemscore.Hbond>
2.0000

> <Gold.PLP.Chemscore.CHOScore>
0.0000

> <Gold.PLP.Chemscore.Metal>
0.0000

> <Gold.Chemscore.Hbonds>
donor molecule, donor type, donor heavy atom, donor atom, acceptor molecule, acceptor atom, score
      L1  H     8    33       P1  7948  1.00
      L1  H    11    34       P1  7948  0.99

> <Gold.PLP.Chemscore.Internal.Correction>
0.0765

> <Gold.Rescore>
     Score         DG    S(hbond)    S(metal)    S(lipo)     H(rot)  DE(clash)    DE(int)     intcor
     13.87     -15.59       1.96        0.00      58.60       1.29       0.12       1.59       ----

> <Gold.Chemscore.Fitness>
13.8721

> <Gold.Chemscore.DG>
-15.5912

> <Gold.Chemscore.ZeroCoef>
-5.4800

> <Gold.Chemscore.Hbond>
1.9614

> <Gold.Chemscore.Metal>
0.0000

> <Gold.Chemscore.Lipo>
58.5973

> <Gold.Chemscore.Internal_Hbond>
0.0000

> <Gold.Chemscore.DEClash>
0.1248

> <Gold.Chemscore.DEInternal>
1.5942

> <Gold.Chemscore.Rot>
1.2875

> <Gold.Chemscore.Internal.Correction>
   9.000000E+99

> <Gold.Chemscore.Hbonds>
donor molecule, donor type, donor heavy atom, donor atom, acceptor molecule, acceptor atom, score
      L1  H     8    33       P1  7948  0.99
      L1  H    11    34       P1  7948  0.93

> <Gold.Chemscore.Hbond.Weighted>
-6.5512

> <Gold.Chemscore.Metal.Weighted>
-0.0000

> <Gold.Chemscore.Lipo.Weighted>
-6.8559

> <Gold.Chemscore.Internal_Hbond.Weighted>
0.0000

> <Gold.Chemscore.DEClash.Weighted>
0.1248

> <Gold.Chemscore.DEInternal.Weighted>
1.5942

> <Gold.Chemscore.Rot.Weighted>
3.2959

> <Gold.Chemscore.Internal.Correction.Weighted>
   9.000000E+99

> <Gold.Protein.RotatedTorsions>
[ 6907 6896 6895 6894 ] final  170.38 input  -60.11 | X-H torsion
[ 7974 7965 7964 7962 ] final  166.34 input  175.53 | X-H torsion
[ 8008 7997 7996 7995 ] final -149.82 input   59.86 | X-H torsion
[ 10167 10162 10161 10158 ] final  -76.03 input  -65.29 | X-H torsion
[ 10718 10713 10712 10709 ] final  -13.29 input   66.30 | X-H torsion
[ 10763 10752 10751 10750 ] final   56.37 input  -60.55 | X-H torsion
[ 11005 11000 10999 10996 ] final -135.96 input  -57.11 | X-H torsion

> <Gold.Protein.ActiveResidues>
 VAL166  LYS551  ARG553  GLY616  TRP617  ASP618  TYR619  PRO620  LYS621  CYS622 
 ASP623  PHE694  ASN695  SER759  ASP760  ASP761  ALA762  ILE779  LEU786  VAL792 
 PHE793  MET794  SER795  GLU796  ALA797  LYS798  CYS799  TRP800  GLU811  SER814 

> <Gold.Protein.RotatedAtoms>
  151.8170  133.3389  159.3572 H   0  0  0  0  0  0  0  0  0  0  0  0  # atno 6907 bound_to 6896
  150.7307  134.5609  159.5851 H   0  0  0  0  0  0  0  0  0  0  0  0  # atno 6908 bound_to 6896
  152.3033  134.7586  160.0404 H   0  0  0  0  0  0  0  0  0  0  0  0  # atno 6909 bound_to 6896
  144.7466  139.8600  143.6380 H   0  0  0  0  0  0  0  0  0  0  0  0  # atno 7974 bound_to 7965
  155.6137  140.0674  157.2698 H   0  0  0  0  0  0  0  0  0  0  0  0  # atno 8008 bound_to 7997
  154.4247  140.1797  156.1347 H   0  0  0  0  0  0  0  0  0  0  0  0  # atno 8009 bound_to 7997
  156.0065  140.3331  155.6900 H   0  0  0  0  0  0  0  0  0  0  0  0  # atno 8010 bound_to 7997
  140.4892  143.2384  151.7935 H   0  0  0  0  0  0  0  0  0  0  0  0  # atno 10167 bound_to 10162
  156.6324  130.4905  149.6124 H   0  0  0  0  0  0  0  0  0  0  0  0  # atno 10718 bound_to 10713
  152.9831  135.5678  154.5219 H   0  0  0  0  0  0  0  0  0  0  0  0  # atno 10763 bound_to 10752
  154.4705  135.2784  155.1648 H   0  0  0  0  0  0  0  0  0  0  0  0  # atno 10764 bound_to 10752
  154.3198  135.6271  153.5556 H   0  0  0  0  0  0  0  0  0  0  0  0  # atno 10765 bound_to 10752
  140.8850  134.1884  157.4566 H   0  0  0  0  0  0  0  0  0  0  0  0  # atno 11005 bound_to 11000
  146.1355  139.4399  143.0142 LP  0  0  0  0  0  0  0  0  0  0  0  0  # atno 17320 bound_to 7965
  145.7098  141.0109  143.1459 LP  0  0  0  0  0  0  0  0  0  0  0  0  # atno 17321 bound_to 7965
  139.4848  144.4672  151.9469 LP  0  0  0  0  0  0  0  0  0  0  0  0  # atno 17342 bound_to 10162
  140.3758  144.2798  150.5914 LP  0  0  0  0  0  0  0  0  0  0  0  0  # atno 17343 bound_to 10162
  156.2224  130.6745  151.1382 LP  0  0  0  0  0  0  0  0  0  0  0  0  # atno 17370 bound_to 10713
  157.7196  131.0689  150.6190 LP  0  0  0  0  0  0  0  0  0  0  0  0  # atno 17371 bound_to 10713
  139.8723  134.9834  156.5195 LP  0  0  0  0  0  0  0  0  0  0  0  0  # atno 17394 bound_to 11000
  140.8416  133.8200  155.9081 LP  0  0  0  0  0  0  0  0  0  0  0  0  # atno 17395 bound_to 11000

$$$$
