AV-unprocessed.smi:753|AV-procd|sdf|3600|dock1
  -GOLD-   22720 0593D 1   1.00000     0.00000
 Structure written by MMmdl.
 43 45  0  0  0  0  0  0  0  0  1 V2000
  153.0170  141.4551  159.0196 C   0  0  0  0  0  0  0  0  0  0  0  0
  152.1885  140.9564  157.8542 C   0  0  0  0  0  0  0  0  0  0  0  0
  150.9502  141.5541  157.5377 C   0  0  0  0  0  0  0  0  0  0  0  0
  150.2213  141.0477  156.4444 C   0  0  0  0  0  0  0  0  0  0  0  0
  150.7574  139.9694  155.7111 C   0  0  0  0  0  0  0  0  0  0  0  0
  150.0102  139.3856  154.5288 C   0  0  0  0  0  0  0  0  0  0  0  0
  148.6105  138.8866  154.9200 C   0  0  0  0  0  0  0  0  0  0  0  0
  148.0496  138.0177  153.8937 N   0  0  0  0  0  0  0  0  0  0  0  0
  146.7454  137.7244  153.7589 C   0  0  0  0  0  0  0  0  0  0  0  0
  145.8721  138.1558  154.5091 O   0  0  0  0  0  0  0  0  0  0  0  0
  146.4569  136.9151  152.7247 N   0  0  0  0  0  0  0  0  0  0  0  0
  145.1416  136.4160  152.3146 C   0  0  1  0  0  0  0  0  0  0  0  0
  145.2296  135.6362  150.9839 C   0  0  0  0  0  0  0  0  0  0  0  0
  144.6618  134.2527  151.3509 C   0  0  1  0  0  0  0  0  0  0  0  0
  145.6714  133.4996  152.2377 C   0  0  0  0  0  0  0  0  0  0  0  0
  145.5581  134.2371  153.5851 C   0  0  0  0  0  0  0  0  0  0  0  0
  144.5401  135.3552  153.2731 C   0  0  2  0  0  0  0  0  0  0  0  0
  143.5736  134.6191  152.3512 C   0  0  0  0  0  0  0  0  0  0  0  0
  152.0040  139.4436  156.1105 C   0  0  0  0  0  0  0  0  0  0  0  0
  152.7092  139.9214  157.1585 N   0  0  0  0  0  0  0  0  0  0  0  0
  152.5470  142.3135  159.5004 H   0  0  0  0  0  0  0  0  0  0  0  0
  154.0080  141.7568  158.6797 H   0  0  0  0  0  0  0  0  0  0  0  0
  153.1335  140.6686  159.7656 H   0  0  0  0  0  0  0  0  0  0  0  0
  150.5646  142.3800  158.1172 H   0  0  0  0  0  0  0  0  0  0  0  0
  149.2682  141.4797  156.1762 H   0  0  0  0  0  0  0  0  0  0  0  0
  149.9376  140.1432  153.7472 H   0  0  0  0  0  0  0  0  0  0  0  0
  150.5966  138.5667  154.1097 H   0  0  0  0  0  0  0  0  0  0  0  0
  148.6639  138.3197  155.8499 H   0  0  0  0  0  0  0  0  0  0  0  0
  147.9413  139.7285  155.1061 H   0  0  0  0  0  0  0  0  0  0  0  0
  148.6967  137.6173  153.2302 H   0  0  0  0  0  0  0  0  0  0  0  0
  147.2381  136.6044  152.1654 H   0  0  0  0  0  0  0  0  0  0  0  0
  144.4485  137.2501  152.1903 H   0  0  0  0  0  0  0  0  0  0  0  0
  144.6135  136.1158  150.2222 H   0  0  0  0  0  0  0  0  0  0  0  0
  146.2441  135.5667  150.5881 H   0  0  0  0  0  0  0  0  0  0  0  0
  144.3216  133.6778  150.4891 H   0  0  0  0  0  0  0  0  0  0  0  0
  145.3887  132.4522  152.3492 H   0  0  0  0  0  0  0  0  0  0  0  0
  146.6823  133.5324  151.8298 H   0  0  0  0  0  0  0  0  0  0  0  0
  145.1627  133.5670  154.3496 H   0  0  0  0  0  0  0  0  0  0  0  0
  146.5182  134.6064  153.9455 H   0  0  0  0  0  0  0  0  0  0  0  0
  144.0796  135.7822  154.1645 H   0  0  0  0  0  0  0  0  0  0  0  0
  142.7989  135.2637  151.9320 H   0  0  0  0  0  0  0  0  0  0  0  0
  143.1030  133.7513  152.8171 H   0  0  0  0  0  0  0  0  0  0  0  0
  152.4469  138.6150  155.5775 H   0  0  0  0  0  0  0  0  0  0  0  0
  1  2  1  0  0  0  0
  1 21  1  0  0  0  0
  1 22  1  0  0  0  0
  1 23  1  0  0  0  0
  2 20  1  0  0  0  0
  2  3  2  0  0  0  0
  3  4  1  0  0  0  0
  3 24  1  0  0  0  0
  4  5  2  0  0  0  0
  4 25  1  0  0  0  0
  5  6  1  0  0  0  0
  5 19  1  0  0  0  0
  6  7  1  0  0  0  0
  6 26  1  0  0  0  0
  6 27  1  0  0  0  0
  7  8  1  0  0  0  0
  7 28  1  0  0  0  0
  7 29  1  0  0  0  0
  8  9  1  0  0  0  0
  8 30  1  0  0  0  0
  9 10  2  0  0  0  0
  9 11  1  0  0  0  0
 11 12  1  0  0  0  0
 11 31  1  0  0  0  0
 12 17  1  0  0  0  0
 12 13  1  0  0  0  0
 12 32  1  0  0  0  0
 13 14  1  0  0  0  0
 13 33  1  0  0  0  0
 13 34  1  0  0  0  0
 14 18  1  0  0  0  0
 14 15  1  0  0  0  0
 14 35  1  0  0  0  0
 15 16  1  0  0  0  0
 15 36  1  0  0  0  0
 15 37  1  0  0  0  0
 16 17  1  0  0  0  0
 16 38  1  0  0  0  0
 16 39  1  0  0  0  0
 17 18  1  0  0  0  0
 17 40  1  0  0  0  0
 18 41  1  0  0  0  0
 18 42  1  0  0  0  0
 19 20  2  0  0  0  0
 19 43  1  0  0  0  0
M  END
> <s_m_source_file>
AV-unprocessed.smi

> <i_m_source_file_index>
753

> <i_lp_mmshare_version>
43012

> <i_f3d_flags>
0

> <s_epik_input>
W0NIM11jMVtjSF1bY0hdYyhbY0hdbjEpW0NIMl1bQ0gyXVtOSF1DKD1PKVtOSF1bQ0BIXShbQ0gyXVtDQEBIXTIzKVtDQEBIXShbQ0gyXTMpW0NIMl1bQ0gyXTI=

> <s_epik_cmdline>
J2VwaWtfcHl0aG9uJywgJy1waCcsICc3LjAnLCAnLXRuJywgJzgnLCAnLW1hJywgJzIwMCcsICctbWV0YWxfYmluZGluZycsICctaW1hZScsICc8aW5maWxlLm1hZT4nLCAnLW9tYWUnLCAnPG91dGZpbGUubWFlPic=

> <r_epik_Ionization_Penalty>
0.0569047

> <r_epik_Ionization_Penalty_Charging>
0

> <r_epik_Ionization_Penalty_Neutral>
0.0569047

> <r_epik_State_Penalty>
0.0490541

> <r_epik_Charging_Adjusted_Penalty>
0.0490541

> <i_epik_Tot_Q>
0

> <i_epik_Tot_abs_Q>
0

> <r_epik_Metal_State_Penalty>
0.0447357

> <b_epik_Metal_Only>
0

> <s_lp_Force_Field>
OPLS_2005

> <r_lp_Energy>
50.4095

> <b_lp_Chiralities_Consistent>
1

> <s_lp_Variant>
AV-unprocessed.smi:753-2

> <Gold.Version>
5.8.1

> <Gold.Id.Protein>
6NUR|6NUR_protein|mol2

> <Gold.PLP.Fitness>
41.4060

> <Gold.PLP.PLP>
-33.1926

> <Gold.PLP.part.hbond>
-3.0000

> <Gold.PLP.part.metal>
0.0000

> <Gold.PLP.part.buried>
-3.7586

> <Gold.PLP.part.nonpolar>
-25.8661

> <Gold.PLP.part.repulsive>
0.1686

> <Gold.PLP.ligand.clash>
0.0000

> <Gold.PLP.ligand.torsion>
0.2739

> <Gold.PLP.Chemscore.Hbond>
2.9120

> <Gold.PLP.Chemscore.CHOScore>
0.0000

> <Gold.PLP.Chemscore.Metal>
0.0000

> <Gold.Chemscore.Hbonds>
donor molecule, donor type, donor heavy atom, donor atom, acceptor molecule, acceptor atom, score
      L1  H     8    30       P1  7948  0.93
      L1  H    11    31       P1  7948  1.00
      P1  H  7997  8009       L1    20  1.00

> <Gold.PLP.Chemscore.Internal.Correction>
0.0251

> <Gold.Rescore>
     Score         DG    S(hbond)    S(metal)    S(lipo)     H(rot)  DE(clash)    DE(int)     intcor
     20.07     -20.80       2.76        0.00      83.42       1.43       0.42       0.32       ----

> <Gold.Chemscore.Fitness>
20.0670

> <Gold.Chemscore.DG>
-20.8019

> <Gold.Chemscore.ZeroCoef>
-5.4800

> <Gold.Chemscore.Hbond>
2.7605

> <Gold.Chemscore.Metal>
0.0000

> <Gold.Chemscore.Lipo>
83.4219

> <Gold.Chemscore.Internal_Hbond>
0.0000

> <Gold.Chemscore.DEClash>
0.4166

> <Gold.Chemscore.DEInternal>
0.3183

> <Gold.Chemscore.Rot>
1.4291

> <Gold.Chemscore.Internal.Correction>
   9.000000E+99

> <Gold.Chemscore.Hbonds>
donor molecule, donor type, donor heavy atom, donor atom, acceptor molecule, acceptor atom, score
      L1  H     8    30       P1  7948  0.89
      L1  H    11    31       P1  7948  0.99
      P1  H  7997  8009       L1    20  0.37

> <Gold.Chemscore.Hbond.Weighted>
-9.2200

> <Gold.Chemscore.Metal.Weighted>
-0.0000

> <Gold.Chemscore.Lipo.Weighted>
-9.7604

> <Gold.Chemscore.Internal_Hbond.Weighted>
0.0000

> <Gold.Chemscore.DEClash.Weighted>
0.4166

> <Gold.Chemscore.DEInternal.Weighted>
0.3183

> <Gold.Chemscore.Rot.Weighted>
3.6585

> <Gold.Chemscore.Internal.Correction.Weighted>
   9.000000E+99

> <Gold.Protein.RotatedTorsions>
[ 6907 6896 6895 6894 ] final  151.26 input  -60.11 | X-H torsion
[ 7974 7965 7964 7962 ] final  -72.20 input  175.53 | X-H torsion
[ 8008 7997 7996 7995 ] final -170.46 input   59.86 | X-H torsion
[ 10167 10162 10161 10158 ] final    4.97 input  -65.29 | X-H torsion
[ 10718 10713 10712 10709 ] final  128.35 input   66.30 | X-H torsion
[ 10763 10752 10751 10750 ] final -164.61 input  -60.55 | X-H torsion
[ 11005 11000 10999 10996 ] final  -73.98 input  -57.11 | X-H torsion

> <Gold.Protein.ActiveResidues>
 VAL166  LYS551  ARG553  GLY616  TRP617  ASP618  TYR619  PRO620  LYS621  CYS622 
 ASP623  PHE694  ASN695  SER759  ASP760  ASP761  ALA762  ILE779  LEU786  VAL792 
 PHE793  MET794  SER795  GLU796  ALA797  LYS798  CYS799  TRP800  GLU811  SER814 

> <Gold.Protein.RotatedAtoms>
  152.1030  133.4260  159.4595 H   0  0  0  0  0  0  0  0  0  0  0  0  # atno 6907 bound_to 6896
  150.6864  134.2738  159.4608 H   0  0  0  0  0  0  0  0  0  0  0  0  # atno 6908 bound_to 6896
  152.0600  134.9600  160.0625 H   0  0  0  0  0  0  0  0  0  0  0  0  # atno 6909 bound_to 6896
  145.6682  140.9230  143.0897 H   0  0  0  0  0  0  0  0  0  0  0  0  # atno 7974 bound_to 7965
  155.9187  140.1070  157.1224 H   0  0  0  0  0  0  0  0  0  0  0  0  # atno 8008 bound_to 7997
  154.4050  140.1260  156.4716 H   0  0  0  0  0  0  0  0  0  0  0  0  # atno 8009 bound_to 7997
  155.7222  140.3469  155.5023 H   0  0  0  0  0  0  0  0  0  0  0  0  # atno 8010 bound_to 7997
  140.6507  143.7553  150.7570 H   0  0  0  0  0  0  0  0  0  0  0  0  # atno 10167 bound_to 10162
  157.5252  131.1098  150.9093 H   0  0  0  0  0  0  0  0  0  0  0  0  # atno 10718 bound_to 10713
  154.7011  135.2988  154.9339 H   0  0  0  0  0  0  0  0  0  0  0  0  # atno 10763 bound_to 10752
  154.0271  135.6675  153.4781 H   0  0  0  0  0  0  0  0  0  0  0  0  # atno 10764 bound_to 10752
  153.0682  135.5076  154.8156 H   0  0  0  0  0  0  0  0  0  0  0  0  # atno 10765 bound_to 10752
  141.1629  133.6896  156.7294 H   0  0  0  0  0  0  0  0  0  0  0  0  # atno 11005 bound_to 11000
  144.7066  139.8538  143.7428 LP  0  0  0  0  0  0  0  0  0  0  0  0  # atno 17320 bound_to 7965
  146.1068  139.4068  143.0313 LP  0  0  0  0  0  0  0  0  0  0  0  0  # atno 17321 bound_to 7965
  140.1203  143.4618  152.2317 LP  0  0  0  0  0  0  0  0  0  0  0  0  # atno 17342 bound_to 10162
  139.5721  144.7468  151.3862 LP  0  0  0  0  0  0  0  0  0  0  0  0  # atno 17343 bound_to 10162
  156.9691  130.5484  149.5289 LP  0  0  0  0  0  0  0  0  0  0  0  0  # atno 17370 bound_to 10713
  156.0382  130.5467  150.8706 LP  0  0  0  0  0  0  0  0  0  0  0  0  # atno 17371 bound_to 10713
  140.2756  134.8357  157.3887 LP  0  0  0  0  0  0  0  0  0  0  0  0  # atno 17394 bound_to 11000
  140.1480  134.4886  155.7982 LP  0  0  0  0  0  0  0  0  0  0  0  0  # atno 17395 bound_to 11000

$$$$
