AV-unprocessed.smi:1610|AV-procd|sdf|6473|dock4
  -GOLD-   22720 7133D 1   1.00000     0.00000
 Structure written by MMmdl.
 44 45  0  0  0  0  0  0  0  0  3 V2000
  153.2544  137.8522  159.2584 C   0  0  0  0  0  0  0  0  0  0  0  0
  152.4823  137.5804  157.6148 S   0  0  0  0  0  0  0  0  0  0  0  0
  153.3172  136.5706  156.9441 O   0  0  0  0  0  0  0  0  0  0  0  0
  151.0794  137.2278  157.8843 O   0  0  0  0  0  0  0  0  0  0  0  0
  152.6563  139.0542  156.9588 N   0  5  0  0  0  0  0  0  0  0  0  0
  152.0584  139.3879  155.6687 C   0  0  0  0  0  0  0  0  0  0  0  0
  150.8620  140.3777  155.8188 C   0  0  0  0  0  0  0  0  0  0  0  0
  149.9574  140.4780  154.5604 C   0  0  0  0  0  0  0  0  0  0  0  0
  149.4662  139.1368  154.1894 N   0  0  0  0  0  0  0  0  0  0  0  0
  148.2823  138.5841  154.5533 C   0  0  0  0  0  0  0  0  0  0  0  0
  147.5846  139.0313  155.4649 O   0  0  0  0  0  0  0  0  0  0  0  0
  147.8951  137.5426  153.7954 N   0  0  0  0  0  0  0  0  0  0  0  0
  146.5679  136.9295  153.8078 C   0  0  0  0  0  0  0  0  0  0  0  0
  145.8582  137.0644  152.4437 C   0  0  0  0  0  0  0  0  0  0  0  0
  145.3530  135.7486  151.8698 C   0  0  0  0  0  0  0  0  0  0  0  0
  146.0785  134.5510  152.0587 C   0  0  0  0  0  0  0  0  0  0  0  0
  145.5562  133.3386  151.5618 C   0  0  0  0  0  0  0  0  0  0  0  0
  144.3216  133.3502  150.8813 C   0  0  0  0  0  0  0  0  0  0  0  0
  143.6648  134.5165  150.7040 N   0  3  0  0  0  0  0  0  0  0  0  0
  144.1325  135.6980  151.1614 C   0  0  0  0  0  0  0  0  0  0  0  0
  150.6131  138.3123  153.7760 C   0  0  0  0  0  0  0  0  0  0  0  0
  151.5518  138.0791  154.9939 C   0  0  0  0  0  0  0  0  0  0  0  0
  153.2283  136.9231  159.8269 H   0  0  0  0  0  0  0  0  0  0  0  0
  152.7008  138.6212  159.7967 H   0  0  0  0  0  0  0  0  0  0  0  0
  154.2883  138.1700  159.1288 H   0  0  0  0  0  0  0  0  0  0  0  0
  152.7866  139.8471  154.9998 H   0  0  0  0  0  0  0  0  0  0  0  0
  150.2370  140.0718  156.6544 H   0  0  0  0  0  0  0  0  0  0  0  0
  151.2339  141.3717  156.0691 H   0  0  0  0  0  0  0  0  0  0  0  0
  149.1496  141.1880  154.7383 H   0  0  0  0  0  0  0  0  0  0  0  0
  150.5139  140.9032  153.7223 H   0  0  0  0  0  0  0  0  0  0  0  0
  148.5317  137.2277  153.0777 H   0  0  0  0  0  0  0  0  0  0  0  0
  146.6722  135.8756  154.0669 H   0  0  0  0  0  0  0  0  0  0  0  0
  145.9462  137.3690  154.5891 H   0  0  0  0  0  0  0  0  0  0  0  0
  145.0141  137.7473  152.5484 H   0  0  0  0  0  0  0  0  0  0  0  0
  146.5321  137.5264  151.7217 H   0  0  0  0  0  0  0  0  0  0  0  0
  147.0144  134.5569  152.5982 H   0  0  0  0  0  0  0  0  0  0  0  0
  146.0897  132.4114  151.7111 H   0  0  0  0  0  0  0  0  0  0  0  0
  143.8394  132.4702  150.4817 H   0  0  0  0  0  0  0  0  0  0  0  0
  143.5009  136.5541  150.9736 H   0  0  0  0  0  0  0  0  0  0  0  0
  150.2963  137.3519  153.3668 H   0  0  0  0  0  0  0  0  0  0  0  0
  151.1474  138.8045  152.9605 H   0  0  0  0  0  0  0  0  0  0  0  0
  152.4044  137.4729  154.6859 H   0  0  0  0  0  0  0  0  0  0  0  0
  151.0077  137.4799  155.7264 H   0  0  0  0  0  0  0  0  0  0  0  0
  142.7654  134.5037  150.2207 H   0  0  0  0  0  0  0  0  0  0  0  0
  1  2  1  0  0  0  0
  1 23  1  0  0  0  0
  1 24  1  0  0  0  0
  1 25  1  0  0  0  0
  2  3  2  0  0  0  0
  2  4  2  0  0  0  0
  2  5  1  0  0  0  0
  5  6  1  0  0  0  0
  6 22  1  0  0  0  0
  6  7  1  0  0  0  0
  6 26  1  0  0  0  0
  7  8  1  0  0  0  0
  7 27  1  0  0  0  0
  7 28  1  0  0  0  0
  8  9  1  0  0  0  0
  8 29  1  0  0  0  0
  8 30  1  0  0  0  0
  9 10  1  0  0  0  0
  9 21  1  0  0  0  0
 10 11  2  0  0  0  0
 10 12  1  0  0  0  0
 12 13  1  0  0  0  0
 12 31  1  0  0  0  0
 13 14  1  0  0  0  0
 13 32  1  0  0  0  0
 13 33  1  0  0  0  0
 14 15  1  0  0  0  0
 14 34  1  0  0  0  0
 14 35  1  0  0  0  0
 15 20  1  0  0  0  0
 15 16  2  0  0  0  0
 16 17  1  0  0  0  0
 16 36  1  0  0  0  0
 17 18  2  0  0  0  0
 17 37  1  0  0  0  0
 18 19  1  0  0  0  0
 18 38  1  0  0  0  0
 19 20  2  0  0  0  0
 19 44  1  0  0  0  0
 20 39  1  0  0  0  0
 21 22  1  0  0  0  0
 21 40  1  0  0  0  0
 21 41  1  0  0  0  0
 22 42  1  0  0  0  0
 22 43  1  0  0  0  0
M  CHG  1   5  -1
M  CHG  1  19   1
M  END
> <s_m_source_file>
AV-unprocessed.smi

> <i_m_source_file_index>
1610

> <i_lp_mmshare_version>
43012

> <i_f3d_flags>
0

> <s_epik_input>
W0NIM11TKD1PKSg9TylbTkhdW0NIXTFbQ0gyXVtDSDJdTihbQ0gyXVtDSDJdMSlDKD1PKVtOSF1bQ0gyXVtDSDJdYzJbY0hdW2NIXVtjSF1uW2NIXTI=

> <s_epik_cmdline>
J2VwaWtfcHl0aG9uJywgJy1waCcsICc3LjAnLCAnLXRuJywgJzgnLCAnLW1hJywgJzIwMCcsICctbWV0YWxfYmluZGluZycsICctaW1hZScsICc8aW5maWxlLm1hZT4nLCAnLW9tYWUnLCAnPG91dGZpbGUubWFlPic=

> <r_epik_Ionization_Penalty>
8.91489

> <r_epik_Ionization_Penalty_Charging>
8.91482

> <r_epik_Ionization_Penalty_Neutral>
6.17235e-05

> <r_epik_State_Penalty>
9.05939

> <r_epik_Charging_Adjusted_Penalty>
17.9742

> <i_epik_Tot_Q>
0

> <i_epik_Tot_abs_Q>
2

> <r_epik_Metal_State_Penalty>
4.99481

> <b_epik_Metal_Only>
1

> <s_lp_Force_Field>
OPLS_2005

> <r_lp_Energy>
23.4301

> <b_lp_Chiralities_Consistent>
1

> <s_lp_Variant>
AV-unprocessed.smi:1610-4

> <Gold.Version>
5.8.1

> <Gold.Id.Protein>
6NUR|6NUR_protein|mol2

> <Gold.PLP.Fitness>
48.7183

> <Gold.PLP.PLP>
-33.2334

> <Gold.PLP.part.hbond>
-4.0000

> <Gold.PLP.part.metal>
0.0000

> <Gold.PLP.part.buried>
-1.2246

> <Gold.PLP.part.nonpolar>
-27.0694

> <Gold.PLP.part.repulsive>
0.0215

> <Gold.PLP.ligand.clash>
0.0000

> <Gold.PLP.ligand.torsion>
1.8182

> <Gold.PLP.Chemscore.Hbond>
5.9920

> <Gold.PLP.Chemscore.CHOScore>
0.0000

> <Gold.PLP.Chemscore.Metal>
0.0000

> <Gold.Chemscore.Hbonds>
donor molecule, donor type, donor heavy atom, donor atom, acceptor molecule, acceptor atom, score
      L1  H    12    31       P1  7948  1.00
      L1  H    19    44       P1 10186  2.00
      P1  H  7997  8008       L1     5  1.82
      P1  H 10752 10765       L1     3  1.00

> <Gold.PLP.Chemscore.Internal.Correction>
1.1454

> <Gold.Rescore>
     Score         DG    S(hbond)    S(metal)    S(lipo)     H(rot)  DE(clash)    DE(int)     intcor
     17.36     -20.93       3.32        0.00      75.80       1.77       0.64       2.93       ----

> <Gold.Chemscore.Fitness>
17.3606

> <Gold.Chemscore.DG>
-20.9255

> <Gold.Chemscore.ZeroCoef>
-5.4800

> <Gold.Chemscore.Hbond>
3.3227

> <Gold.Chemscore.Metal>
0.0000

> <Gold.Chemscore.Lipo>
75.8003

> <Gold.Chemscore.Internal_Hbond>
0.0000

> <Gold.Chemscore.DEClash>
0.6381

> <Gold.Chemscore.DEInternal>
2.9268

> <Gold.Chemscore.Rot>
1.7661

> <Gold.Chemscore.Internal.Correction>
   9.000000E+99

> <Gold.Chemscore.Hbonds>
donor molecule, donor type, donor heavy atom, donor atom, acceptor molecule, acceptor atom, score
      L1  H    12    31       P1  7948  0.96
      L1  H    19    44       P1 10186  0.70
      P1  H  7997  8008       L1     5  0.20
      P1  H 10752 10765       L1     3  0.94

> <Gold.Chemscore.Hbond.Weighted>
-11.0980

> <Gold.Chemscore.Metal.Weighted>
-0.0000

> <Gold.Chemscore.Lipo.Weighted>
-8.8686

> <Gold.Chemscore.Internal_Hbond.Weighted>
0.0000

> <Gold.Chemscore.DEClash.Weighted>
0.6381

> <Gold.Chemscore.DEInternal.Weighted>
2.9268

> <Gold.Chemscore.Rot.Weighted>
4.5211

> <Gold.Chemscore.Internal.Correction.Weighted>
   9.000000E+99

> <Gold.Protein.RotatedTorsions>
[ 6907 6896 6895 6894 ] final  102.29 input  -60.11 | X-H torsion
[ 7974 7965 7964 7962 ] final -146.39 input  175.53 | X-H torsion
[ 8008 7997 7996 7995 ] final  -69.19 input   59.86 | X-H torsion
[ 10167 10162 10161 10158 ] final  112.90 input  -65.29 | X-H torsion
[ 10718 10713 10712 10709 ] final  126.52 input   66.30 | X-H torsion
[ 10763 10752 10751 10750 ] final -117.68 input  -60.55 | X-H torsion
[ 11005 11000 10999 10996 ] final -159.91 input  -57.11 | X-H torsion

> <Gold.Protein.ActiveResidues>
 VAL166  LYS551  ARG553  GLY616  TRP617  ASP618  TYR619  PRO620  LYS621  CYS622 
 ASP623  PHE694  ASN695  SER759  ASP760  ASP761  ALA762  ILE779  LEU786  VAL792 
 PHE793  MET794  SER795  GLU796  ALA797  LYS798  CYS799  TRP800  GLU811  SER814 

> <Gold.Protein.RotatedAtoms>
  152.5327  133.9998  159.7889 H   0  0  0  0  0  0  0  0  0  0  0  0  # atno 6907 bound_to 6896
  151.0219  133.5861  159.2677 H   0  0  0  0  0  0  0  0  0  0  0  0  # atno 6908 bound_to 6896
  151.2898  135.0745  159.9253 H   0  0  0  0  0  0  0  0  0  0  0  0  # atno 6909 bound_to 6896
  144.8162  140.5462  143.5609 H   0  0  0  0  0  0  0  0  0  0  0  0  # atno 7974 bound_to 7965
  154.4921  140.0858  156.7616 H   0  0  0  0  0  0  0  0  0  0  0  0  # atno 8008 bound_to 7997
  155.4206  140.3445  155.4253 H   0  0  0  0  0  0  0  0  0  0  0  0  # atno 8009 bound_to 7997
  156.1343  140.1510  156.9005 H   0  0  0  0  0  0  0  0  0  0  0  0  # atno 8010 bound_to 7997
  139.6501  144.7128  151.2065 H   0  0  0  0  0  0  0  0  0  0  0  0  # atno 10167 bound_to 10162
  157.5412  131.1097  150.8856 H   0  0  0  0  0  0  0  0  0  0  0  0  # atno 10718 bound_to 10713
  154.8563  135.4301  154.2018 H   0  0  0  0  0  0  0  0  0  0  0  0  # atno 10763 bound_to 10752
  153.3063  135.6972  153.7163 H   0  0  0  0  0  0  0  0  0  0  0  0  # atno 10764 bound_to 10752
  153.6273  135.3491  155.3004 H   0  0  0  0  0  0  0  0  0  0  0  0  # atno 10765 bound_to 10752
  140.6373  134.4588  157.5232 H   0  0  0  0  0  0  0  0  0  0  0  0  # atno 11005 bound_to 11000
  145.5208  139.1477  143.3553 LP  0  0  0  0  0  0  0  0  0  0  0  0  # atno 17320 bound_to 7965
  146.2466  140.5349  142.8911 LP  0  0  0  0  0  0  0  0  0  0  0  0  # atno 17321 bound_to 7965
  140.7533  143.6164  150.8555 LP  0  0  0  0  0  0  0  0  0  0  0  0  # atno 17342 bound_to 10162
  139.9811  143.5950  152.2942 LP  0  0  0  0  0  0  0  0  0  0  0  0  # atno 17343 bound_to 10162
  156.9408  130.5384  149.5280 LP  0  0  0  0  0  0  0  0  0  0  0  0  # atno 17370 bound_to 10713
  156.0498  130.5569  150.8963 LP  0  0  0  0  0  0  0  0  0  0  0  0  # atno 17371 bound_to 10713
  139.9093  134.8379  156.1587 LP  0  0  0  0  0  0  0  0  0  0  0  0  # atno 17394 bound_to 11000
  141.0632  133.6832  156.1993 LP  0  0  0  0  0  0  0  0  0  0  0  0  # atno 17395 bound_to 11000

$$$$
