AV-unprocessed.smi:1207|AV-procd|sdf|5060|dock4
  -GOLD-   22720 4103D 1   1.00000     0.00000
 Structure written by MMmdl.
 53 55  0  0  0  0  0  0  0  0  3 V2000
  152.7864  143.2647  160.6815 C   0  0  0  0  0  0  0  0  0  0  0  0
  152.3356  142.4557  159.4772 C   0  0  0  0  0  0  0  0  0  0  0  0
  151.3980  143.0314  158.5906 C   0  0  0  0  0  0  0  0  0  0  0  0
  151.0048  142.2670  157.4987 C   0  0  0  0  0  0  0  0  0  0  0  0
  150.1114  142.5466  156.4628 N   0  3  0  0  0  0  0  0  0  0  0  0
  150.0489  141.4823  155.6158 C   0  0  0  0  0  0  0  0  0  0  0  0
  150.8859  140.5238  156.0982 N   0  0  0  0  0  0  0  0  0  0  0  0
  151.1882  139.1893  155.5605 C   0  0  0  0  0  0  0  0  0  0  0  0
  150.0340  138.5901  154.7297 C   0  0  1  0  0  0  0  0  0  0  0  0
  150.6076  138.0481  153.5568 O   0  0  0  0  0  0  0  0  0  0  0  0
  149.2445  137.4884  155.4737 C   0  0  0  0  0  0  0  0  0  0  0  0
  148.1710  136.8546  154.6573 N   0  3  2  0  0  0  0  0  0  0  0  0
  147.0685  137.7865  154.3190 C   0  0  0  0  0  0  0  0  0  0  0  0
  147.6458  135.5980  155.2536 C   0  0  0  0  0  0  0  0  0  0  0  0
  148.7434  134.7247  155.8064 C   0  0  0  0  0  0  0  0  0  0  0  0
  149.2220  134.6652  157.1471 C   0  0  0  0  0  0  0  0  0  0  0  0
  148.7509  135.4448  158.3413 C   0  0  0  0  0  0  0  0  0  0  0  0
  150.2093  133.7967  157.2804 N   0  0  0  0  0  0  0  0  0  0  0  0
  150.4043  133.2404  156.0125 O   0  0  0  0  0  0  0  0  0  0  0  0
  149.5191  133.8060  155.1538 C   0  0  0  0  0  0  0  0  0  0  0  0
  149.5757  133.3407  153.7380 C   0  0  0  0  0  0  0  0  0  0  0  0
  151.5099  140.9719  157.2701 C   0  0  0  0  0  0  0  0  0  0  0  0
  152.4355  140.3907  158.1349 C   0  0  0  0  0  0  0  0  0  0  0  0
  152.8470  141.1515  159.2524 C   0  0  0  0  0  0  0  0  0  0  0  0
  153.8535  140.5408  160.2128 C   0  0  0  0  0  0  0  0  0  0  0  0
  152.3469  144.2627  160.6788 H   0  0  0  0  0  0  0  0  0  0  0  0
  153.8706  143.3796  160.6837 H   0  0  0  0  0  0  0  0  0  0  0  0
  152.4880  142.7708  161.6065 H   0  0  0  0  0  0  0  0  0  0  0  0
  151.0044  144.0239  158.7558 H   0  0  0  0  0  0  0  0  0  0  0  0
  149.4445  141.4122  154.7226 H   0  0  0  0  0  0  0  0  0  0  0  0
  152.0801  139.2877  154.9399 H   0  0  0  0  0  0  0  0  0  0  0  0
  151.4661  138.5279  156.3810 H   0  0  0  0  0  0  0  0  0  0  0  0
  149.3699  139.4051  154.4434 H   0  0  0  0  0  0  0  0  0  0  0  0
  149.9542  137.5427  153.0984 H   0  0  0  0  0  0  0  0  0  0  0  0
  149.9634  136.7352  155.7936 H   0  0  0  0  0  0  0  0  0  0  0  0
  148.7944  137.8867  156.3838 H   0  0  0  0  0  0  0  0  0  0  0  0
  146.5937  138.1739  155.2215 H   0  0  0  0  0  0  0  0  0  0  0  0
  146.3052  137.2838  153.7244 H   0  0  0  0  0  0  0  0  0  0  0  0
  147.4206  138.6293  153.7262 H   0  0  0  0  0  0  0  0  0  0  0  0
  146.9148  135.8508  156.0227 H   0  0  0  0  0  0  0  0  0  0  0  0
  147.0936  135.0474  154.4910 H   0  0  0  0  0  0  0  0  0  0  0  0
  148.8274  136.5170  158.1631 H   0  0  0  0  0  0  0  0  0  0  0  0
  149.3357  135.2138  159.2322 H   0  0  0  0  0  0  0  0  0  0  0  0
  147.7083  135.2203  158.5648 H   0  0  0  0  0  0  0  0  0  0  0  0
  148.7995  133.8143  153.1370 H   0  0  0  0  0  0  0  0  0  0  0  0
  149.4346  132.2613  153.6802 H   0  0  0  0  0  0  0  0  0  0  0  0
  150.5411  133.5801  153.2921 H   0  0  0  0  0  0  0  0  0  0  0  0
  152.8284  139.3984  157.9703 H   0  0  0  0  0  0  0  0  0  0  0  0
  154.0895  139.5109  159.9427 H   0  0  0  0  0  0  0  0  0  0  0  0
  153.4604  140.5343  161.2295 H   0  0  0  0  0  0  0  0  0  0  0  0
  154.7831  141.1103  160.2048 H   0  0  0  0  0  0  0  0  0  0  0  0
  148.5984  136.5860  153.7825 H   0  0  0  0  0  0  0  0  0  0  0  0
  149.5852  143.4024  156.3382 H   0  0  0  0  0  0  0  0  0  0  0  0
  1  2  1  0  0  0  0
  1 26  1  0  0  0  0
  1 27  1  0  0  0  0
  1 28  1  0  0  0  0
  2 24  1  0  0  0  0
  2  3  2  0  0  0  0
  3  4  1  0  0  0  0
  3 29  1  0  0  0  0
  4 22  2  0  0  0  0
  4  5  1  0  0  0  0
  5  6  2  0  0  0  0
  5 53  1  0  0  0  0
  6  7  1  0  0  0  0
  6 30  1  0  0  0  0
  7  8  1  0  0  0  0
  7 22  1  0  0  0  0
  8  9  1  0  0  0  0
  8 31  1  0  0  0  0
  8 32  1  0  0  0  0
  9 10  1  0  0  0  0
  9 11  1  0  0  0  0
  9 33  1  0  0  0  0
 10 34  1  0  0  0  0
 11 12  1  0  0  0  0
 11 35  1  0  0  0  0
 11 36  1  0  0  0  0
 12 13  1  0  0  0  0
 12 14  1  0  0  0  0
 12 52  1  0  0  0  0
 13 37  1  0  0  0  0
 13 38  1  0  0  0  0
 13 39  1  0  0  0  0
 14 15  1  0  0  0  0
 14 40  1  0  0  0  0
 14 41  1  0  0  0  0
 15 20  2  0  0  0  0
 15 16  1  0  0  0  0
 16 17  1  0  0  0  0
 16 18  2  0  0  0  0
 17 42  1  0  0  0  0
 17 43  1  0  0  0  0
 17 44  1  0  0  0  0
 18 19  1  0  0  0  0
 19 20  1  0  0  0  0
 20 21  1  0  0  0  0
 21 45  1  0  0  0  0
 21 46  1  0  0  0  0
 21 47  1  0  0  0  0
 22 23  1  0  0  0  0
 23 24  2  0  0  0  0
 23 48  1  0  0  0  0
 24 25  1  0  0  0  0
 25 49  1  0  0  0  0
 25 50  1  0  0  0  0
 25 51  1  0  0  0  0
M  CHG  1   5   1
M  CHG  1  12   1
M  END
> <s_m_source_file>
AV-unprocessed.smi

> <i_m_source_file_index>
1207

> <i_lp_mmshare_version>
43012

> <i_f3d_flags>
0

> <s_epik_input>
W0NIM11jKFtjSF0xKWMoW0NIM10pW2NIXWMoYzEyKW4oW2NIXW4yKVtDSDJdW0NASF0oW09IXSlbQ0gyXU4oW0NIM10pW0NIMl1jM2MoW0NIM10pbm9jM1tDSDNd

> <s_epik_cmdline>
J2VwaWtfcHl0aG9uJywgJy1waCcsICc3LjAnLCAnLXRuJywgJzgnLCAnLW1hJywgJzIwMCcsICctbWV0YWxfYmluZGluZycsICctaW1hZScsICc8aW5maWxlLm1hZT4nLCAnLW9tYWUnLCAnPG91dGZpbGUubWFlPic=

> <r_epik_Ionization_Penalty>
1.77463

> <r_epik_Ionization_Penalty_Charging>
1.77463

> <r_epik_Ionization_Penalty_Neutral>
3.70885e-06

> <r_epik_State_Penalty>
1.85225

> <r_epik_Charging_Adjusted_Penalty>
3.62688

> <i_epik_Tot_Q>
2

> <i_epik_Tot_abs_Q>
2

> <r_epik_Metal_State_Penalty>
1.92674

> <b_epik_Metal_Only>
0

> <s_lp_Force_Field>
OPLS_2005

> <r_lp_Energy>
19.6609

> <b_lp_Chiralities_Consistent>
1

> <s_lp_Variant>
AV-unprocessed.smi:1207-12

> <Gold.Version>
5.8.1

> <Gold.Id.Protein>
6NUR|6NUR_protein|mol2

> <Gold.PLP.Fitness>
58.6118

> <Gold.PLP.PLP>
-43.4672

> <Gold.PLP.part.hbond>
-5.1130

> <Gold.PLP.part.metal>
0.0000

> <Gold.PLP.part.buried>
-5.6801

> <Gold.PLP.part.nonpolar>
-33.9066

> <Gold.PLP.part.repulsive>
0.0898

> <Gold.PLP.ligand.clash>
0.0000

> <Gold.PLP.ligand.torsion>
1.5086

> <Gold.PLP.Chemscore.Hbond>
5.9920

> <Gold.PLP.Chemscore.CHOScore>
0.0000

> <Gold.PLP.Chemscore.Metal>
0.0000

> <Gold.Chemscore.Hbonds>
donor molecule, donor type, donor heavy atom, donor atom, acceptor molecule, acceptor atom, score
      L1  H     5    53       P1  8028  2.00
      L1  H    10    34       P1  7948  1.00
      L1  H    12    52       P1  7948  2.00
      P1  H  6896  6908       L1    18  0.87

> <Gold.PLP.Chemscore.Internal.Correction>
0.1859

> <Gold.Rescore>
     Score         DG    S(hbond)    S(metal)    S(lipo)     H(rot)  DE(clash)    DE(int)     intcor
     21.32     -22.98       3.27        0.00     111.60       2.54       0.34       1.32       ----

> <Gold.Chemscore.Fitness>
21.3199

> <Gold.Chemscore.DG>
-22.9787

> <Gold.Chemscore.ZeroCoef>
-5.4800

> <Gold.Chemscore.Hbond>
3.2728

> <Gold.Chemscore.Metal>
0.0000

> <Gold.Chemscore.Lipo>
111.6027

> <Gold.Chemscore.Internal_Hbond>
0.0000

> <Gold.Chemscore.DEClash>
0.3394

> <Gold.Chemscore.DEInternal>
1.3193

> <Gold.Chemscore.Rot>
2.5351

> <Gold.Chemscore.Internal.Correction>
   9.000000E+99

> <Gold.Chemscore.Hbonds>
donor molecule, donor type, donor heavy atom, donor atom, acceptor molecule, acceptor atom, score
      L1  H     5    53       P1  8028  0.99
      L1  H    10    34       P1  7948  0.29
      L1  H    12    52       P1  7948  0.98
      P1  H  6896  6908       L1    18  0.56

> <Gold.Chemscore.Hbond.Weighted>
-10.9311

> <Gold.Chemscore.Metal.Weighted>
-0.0000

> <Gold.Chemscore.Lipo.Weighted>
-13.0575

> <Gold.Chemscore.Internal_Hbond.Weighted>
0.0000

> <Gold.Chemscore.DEClash.Weighted>
0.3394

> <Gold.Chemscore.DEInternal.Weighted>
1.3193

> <Gold.Chemscore.Rot.Weighted>
6.4900

> <Gold.Chemscore.Internal.Correction.Weighted>
   9.000000E+99

> <Gold.Protein.RotatedTorsions>
[ 6907 6896 6895 6894 ] final  118.70 input  -60.11 | X-H torsion
[ 7974 7965 7964 7962 ] final  -98.14 input  175.53 | X-H torsion
[ 8008 7997 7996 7995 ] final -162.98 input   59.86 | X-H torsion
[ 10167 10162 10161 10158 ] final  163.13 input  -65.29 | X-H torsion
[ 10718 10713 10712 10709 ] final -153.47 input   66.30 | X-H torsion
[ 10763 10752 10751 10750 ] final   39.85 input  -60.55 | X-H torsion
[ 11005 11000 10999 10996 ] final   -1.70 input  -57.11 | X-H torsion

> <Gold.Protein.ActiveResidues>
 VAL166  LYS551  ARG553  GLY616  TRP617  ASP618  TYR619  PRO620  LYS621  CYS622 
 ASP623  PHE694  ASN695  SER759  ASP760  ASP761  ALA762  ILE779  LEU786  VAL792 
 PHE793  MET794  SER795  GLU796  ALA797  LYS798  CYS799  TRP800  GLU811  SER814 

> <Gold.Protein.RotatedAtoms>
  152.4524  133.7656  159.6770 H   0  0  0  0  0  0  0  0  0  0  0  0  # atno 6907 bound_to 6896
  150.8440  133.7881  159.3056 H   0  0  0  0  0  0  0  0  0  0  0  0  # atno 6908 bound_to 6896
  151.5497  135.1070  159.9998 H   0  0  0  0  0  0  0  0  0  0  0  0  # atno 6909 bound_to 6896
  145.3245  140.9428  143.2697 H   0  0  0  0  0  0  0  0  0  0  0  0  # atno 7974 bound_to 7965
  155.8146  140.0910  157.1884 H   0  0  0  0  0  0  0  0  0  0  0  0  # atno 8008 bound_to 7997
  154.3979  140.1448  156.3487 H   0  0  0  0  0  0  0  0  0  0  0  0  # atno 8009 bound_to 7997
  155.8330  140.3442  155.5586 H   0  0  0  0  0  0  0  0  0  0  0  0  # atno 8010 bound_to 7997
  139.4869  144.4368  151.9002 H   0  0  0  0  0  0  0  0  0  0  0  0  # atno 10167 bound_to 10162
  156.4862  130.8326  151.2551 H   0  0  0  0  0  0  0  0  0  0  0  0  # atno 10718 bound_to 10713
  152.9954  135.6209  154.2531 H   0  0  0  0  0  0  0  0  0  0  0  0  # atno 10763 bound_to 10752
  154.2269  135.2793  155.2906 H   0  0  0  0  0  0  0  0  0  0  0  0  # atno 10764 bound_to 10752
  154.5482  135.5741  153.6957 H   0  0  0  0  0  0  0  0  0  0  0  0  # atno 10765 bound_to 10752
  140.6503  133.9411  155.8376 H   0  0  0  0  0  0  0  0  0  0  0  0  # atno 11005 bound_to 11000
  144.8913  139.4771  143.6676 LP  0  0  0  0  0  0  0  0  0  0  0  0  # atno 17320 bound_to 7965
  146.3070  139.7613  142.9049 LP  0  0  0  0  0  0  0  0  0  0  0  0  # atno 17321 bound_to 7965
  140.3818  144.2726  150.5908 LP  0  0  0  0  0  0  0  0  0  0  0  0  # atno 17342 bound_to 10162
  140.5226  143.2262  151.8364 LP  0  0  0  0  0  0  0  0  0  0  0  0  # atno 17343 bound_to 10162
  157.7478  131.0028  150.3016 LP  0  0  0  0  0  0  0  0  0  0  0  0  # atno 17370 bound_to 10713
  156.3472  130.3825  149.7359 LP  0  0  0  0  0  0  0  0  0  0  0  0  # atno 17371 bound_to 10713
  141.0542  134.0441  157.3744 LP  0  0  0  0  0  0  0  0  0  0  0  0  # atno 17394 bound_to 11000
  139.9048  135.0176  156.7437 LP  0  0  0  0  0  0  0  0  0  0  0  0  # atno 17395 bound_to 11000

$$$$
