AV-unprocessed.smi:2022|AV-procd|sdf|8188|dock6
  -GOLD-   2272010443D 1   1.00000     0.00000
 Structure written by MMmdl.
 34 35  0  0  0  0  0  0  0  0  1 V2000
  147.0768  142.5749  153.7838 C   0  0  0  0  0  0  0  0  0  0  0  0
  146.7498  141.1224  153.7212 C   0  0  0  0  0  0  0  0  0  0  0  0
  147.2054  140.0994  152.9382 C   0  0  0  0  0  0  0  0  0  0  0  0
  146.4734  138.9801  153.4161 C   0  0  0  0  0  0  0  0  0  0  0  0
  146.6620  137.6928  152.8520 N   0  0  0  0  0  0  0  0  0  0  0  0
  145.7146  136.8218  152.4651 C   0  0  0  0  0  0  0  0  0  0  0  0
  144.5005  137.0136  152.5402 O   0  0  0  0  0  0  0  0  0  0  0  0
  146.2583  135.6966  151.9784 N   0  0  0  0  0  0  0  0  0  0  0  0
  145.5188  134.5261  151.5027 C   0  0  1  0  0  0  0  0  0  0  0  0
  146.4985  133.4528  150.9769 C   0  0  0  0  0  0  0  0  0  0  0  0
  145.8667  132.4604  149.9871 C   0  0  0  0  0  0  0  0  0  0  0  0
  144.7324  131.6012  150.5657 C   0  0  0  0  0  0  0  0  0  0  0  0
  143.4907  132.4113  150.9761 C   0  0  0  0  0  0  0  0  0  0  0  0
  143.6544  133.0688  152.2667 N   0  0  0  0  0  0  0  0  0  0  0  0
  144.5469  134.0186  152.5846 C   0  0  0  0  0  0  0  0  0  0  0  0
  144.5947  134.4728  153.7276 O   0  0  0  0  0  0  0  0  0  0  0  0
  145.6430  139.2924  154.3996 N   0  0  0  0  0  0  0  0  0  0  0  0
  145.8167  140.6668  154.6006 O   0  0  0  0  0  0  0  0  0  0  0  0
  147.7234  142.8646  152.9552 H   0  0  0  0  0  0  0  0  0  0  0  0
  147.5924  142.8138  154.7141 H   0  0  0  0  0  0  0  0  0  0  0  0
  146.1707  143.1788  153.7325 H   0  0  0  0  0  0  0  0  0  0  0  0
  147.9450  140.1469  152.1528 H   0  0  0  0  0  0  0  0  0  0  0  0
  147.6212  137.4017  152.7357 H   0  0  0  0  0  0  0  0  0  0  0  0
  147.2653  135.6250  151.9600 H   0  0  0  0  0  0  0  0  0  0  0  0
  144.8978  134.8632  150.6704 H   0  0  0  0  0  0  0  0  0  0  0  0
  147.3279  133.9377  150.4606 H   0  0  0  0  0  0  0  0  0  0  0  0
  146.9482  132.9143  151.8125 H   0  0  0  0  0  0  0  0  0  0  0  0
  145.5028  133.0021  149.1133 H   0  0  0  0  0  0  0  0  0  0  0  0
  146.6493  131.7966  149.6187 H   0  0  0  0  0  0  0  0  0  0  0  0
  144.4338  130.8820  149.8021 H   0  0  0  0  0  0  0  0  0  0  0  0
  145.0946  131.0087  151.4069 H   0  0  0  0  0  0  0  0  0  0  0  0
  143.2212  133.1381  150.2085 H   0  0  0  0  0  0  0  0  0  0  0  0
  142.6398  131.7362  151.0695 H   0  0  0  0  0  0  0  0  0  0  0  0
  143.0342  132.7618  153.0021 H   0  0  0  0  0  0  0  0  0  0  0  0
  1  2  1  0  0  0  0
  1 19  1  0  0  0  0
  1 20  1  0  0  0  0
  1 21  1  0  0  0  0
  2 18  1  0  0  0  0
  2  3  2  0  0  0  0
  3  4  1  0  0  0  0
  3 22  1  0  0  0  0
  4  5  1  0  0  0  0
  4 17  2  0  0  0  0
  5  6  1  0  0  0  0
  5 23  1  0  0  0  0
  6  7  2  0  0  0  0
  6  8  1  0  0  0  0
  8  9  1  0  0  0  0
  8 24  1  0  0  0  0
  9 15  1  0  0  0  0
  9 10  1  0  0  0  0
  9 25  1  0  0  0  0
 10 11  1  0  0  0  0
 10 26  1  0  0  0  0
 10 27  1  0  0  0  0
 11 12  1  0  0  0  0
 11 28  1  0  0  0  0
 11 29  1  0  0  0  0
 12 13  1  0  0  0  0
 12 30  1  0  0  0  0
 12 31  1  0  0  0  0
 13 14  1  0  0  0  0
 13 32  1  0  0  0  0
 13 33  1  0  0  0  0
 14 15  1  0  0  0  0
 14 34  1  0  0  0  0
 15 16  2  0  0  0  0
 17 18  1  0  0  0  0
M  END
> <s_m_source_file>
AV-unprocessed.smi

> <i_m_source_file_index>
2022

> <i_lp_mmshare_version>
43012

> <i_f3d_flags>
0

> <s_epik_input>
W0NIM11jMVtjSF1jKG5vMSlbTkhdQyg9TylbTkhdW0NAQEhdMltDSDJdW0NIMl1bQ0gyXVtDSDJdW05IXUMyPU8=

> <s_epik_cmdline>
J2VwaWtfcHl0aG9uJywgJy1waCcsICc3LjAnLCAnLXRuJywgJzgnLCAnLW1hJywgJzIwMCcsICctbWV0YWxfYmluZGluZycsICctaW1hZScsICc8aW5maWxlLm1hZT4nLCAnLW9tYWUnLCAnPG91dGZpbGUubWFlPic=

> <r_lp_tautomer_probability>
1

> <r_epik_Ionization_Penalty>
2.27343e-05

> <r_epik_Ionization_Penalty_Charging>
0

> <r_epik_Ionization_Penalty_Neutral>
2.27343e-05

> <r_epik_State_Penalty>
-0

> <r_epik_Charging_Adjusted_Penalty>
0

> <i_epik_Tot_Q>
0

> <i_epik_Tot_abs_Q>
0

> <r_epik_Metal_State_Penalty>
-0

> <b_epik_Metal_Only>
0

> <s_lp_Force_Field>
OPLS_2005

> <r_lp_Energy>
7.86792

> <b_lp_Chiralities_Consistent>
1

> <s_lp_Variant>
AV-unprocessed.smi:2022-2

> <Gold.Version>
5.8.1

> <Gold.Id.Protein>
6NUR|6NUR_protein|mol2

> <Gold.PLP.Fitness>
35.8711

> <Gold.PLP.PLP>
-27.7271

> <Gold.PLP.part.hbond>
-3.0000

> <Gold.PLP.part.metal>
0.0000

> <Gold.PLP.part.buried>
-4.1064

> <Gold.PLP.part.nonpolar>
-22.3012

> <Gold.PLP.part.repulsive>
0.5573

> <Gold.PLP.ligand.clash>
0.0000

> <Gold.PLP.ligand.torsion>
0.4167

> <Gold.PLP.Chemscore.Hbond>
2.9833

> <Gold.PLP.Chemscore.CHOScore>
0.0000

> <Gold.PLP.Chemscore.Metal>
0.0000

> <Gold.Chemscore.Hbonds>
donor molecule, donor type, donor heavy atom, donor atom, acceptor molecule, acceptor atom, score
      L1  H     5    23       P1  7948  0.99
      L1  H     8    24       P1  7948  1.00
      L1  H    14    34       P1 10957  0.94

> <Gold.PLP.Chemscore.Internal.Correction>
0.0275

> <Gold.Rescore>
     Score         DG    S(hbond)    S(metal)    S(lipo)     H(rot)  DE(clash)    DE(int)     intcor
     13.30     -17.08       1.97        0.00      64.86       1.00       0.20       3.58       ----

> <Gold.Chemscore.Fitness>
13.3046

> <Gold.Chemscore.DG>
-17.0779

> <Gold.Chemscore.ZeroCoef>
-5.4800

> <Gold.Chemscore.Hbond>
1.9667

> <Gold.Chemscore.Metal>
0.0000

> <Gold.Chemscore.Lipo>
64.8633

> <Gold.Chemscore.Internal_Hbond>
0.0000

> <Gold.Chemscore.DEClash>
0.1975

> <Gold.Chemscore.DEInternal>
3.5758

> <Gold.Chemscore.Rot>
1.0000

> <Gold.Chemscore.Internal.Correction>
   9.000000E+99

> <Gold.Chemscore.Hbonds>
donor molecule, donor type, donor heavy atom, donor atom, acceptor molecule, acceptor atom, score
      L1  H     5    23       P1  7948  0.92
      L1  H     8    24       P1  7948  0.99
      L1  H    14    34       P1 10957  0.22

> <Gold.Chemscore.Hbond.Weighted>
-6.5689

> <Gold.Chemscore.Metal.Weighted>
-0.0000

> <Gold.Chemscore.Lipo.Weighted>
-7.5890

> <Gold.Chemscore.Internal_Hbond.Weighted>
0.0000

> <Gold.Chemscore.DEClash.Weighted>
0.1975

> <Gold.Chemscore.DEInternal.Weighted>
3.5758

> <Gold.Chemscore.Rot.Weighted>
2.5600

> <Gold.Chemscore.Internal.Correction.Weighted>
   9.000000E+99

> <Gold.Protein.RotatedTorsions>
[ 6907 6896 6895 6894 ] final   54.67 input  -60.11 | X-H torsion
[ 7974 7965 7964 7962 ] final   90.61 input  175.53 | X-H torsion
[ 8008 7997 7996 7995 ] final   67.38 input   59.86 | X-H torsion
[ 10167 10162 10161 10158 ] final  114.35 input  -65.29 | X-H torsion
[ 10718 10713 10712 10709 ] final  131.17 input   66.30 | X-H torsion
[ 10763 10752 10751 10750 ] final  170.95 input  -60.55 | X-H torsion
[ 11005 11000 10999 10996 ] final  170.93 input  -57.11 | X-H torsion

> <Gold.Protein.ActiveResidues>
 VAL166  LYS551  ARG553  GLY616  TRP617  ASP618  TYR619  PRO620  LYS621  CYS622 
 ASP623  PHE694  ASN695  SER759  ASP760  ASP761  ALA762  ILE779  LEU786  VAL792 
 PHE793  MET794  SER795  GLU796  ALA797  LYS798  CYS799  TRP800  GLU811  SER814 

> <Gold.Protein.RotatedAtoms>
  152.3462  134.7068  160.0249 H   0  0  0  0  0  0  0  0  0  0  0  0  # atno 6907 bound_to 6896
  151.7437  133.3318  159.3380 H   0  0  0  0  0  0  0  0  0  0  0  0  # atno 6908 bound_to 6896
  150.7511  134.6188  159.6169 H   0  0  0  0  0  0  0  0  0  0  0  0  # atno 6909 bound_to 6896
  145.5167  139.2278  143.2694 H   0  0  0  0  0  0  0  0  0  0  0  0  # atno 7974 bound_to 7965
  155.6919  140.3496  155.4897 H   0  0  0  0  0  0  0  0  0  0  0  0  # atno 8008 bound_to 7997
  155.9516  140.1120  157.0994 H   0  0  0  0  0  0  0  0  0  0  0  0  # atno 8009 bound_to 7997
  154.4123  140.1193  156.5047 H   0  0  0  0  0  0  0  0  0  0  0  0  # atno 8010 bound_to 7997
  139.6395  144.7122  151.2266 H   0  0  0  0  0  0  0  0  0  0  0  0  # atno 10167 bound_to 10162
  157.4992  131.1093  150.9450 H   0  0  0  0  0  0  0  0  0  0  0  0  # atno 10718 bound_to 10713
  154.4049  135.2755  155.2073 H   0  0  0  0  0  0  0  0  0  0  0  0  # atno 10763 bound_to 10752
  154.4083  135.6028  153.5941 H   0  0  0  0  0  0  0  0  0  0  0  0  # atno 10764 bound_to 10752
  152.9831  135.5943  154.4322 H   0  0  0  0  0  0  0  0  0  0  0  0  # atno 10765 bound_to 10752
  140.3136  134.7496  157.4010 H   0  0  0  0  0  0  0  0  0  0  0  0  # atno 11005 bound_to 11000
  146.2132  140.5977  142.9050 LP  0  0  0  0  0  0  0  0  0  0  0  0  # atno 17320 bound_to 7965
  144.7698  140.5611  143.6678 LP  0  0  0  0  0  0  0  0  0  0  0  0  # atno 17321 bound_to 7965
  140.7483  143.6337  150.8399 LP  0  0  0  0  0  0  0  0  0  0  0  0  # atno 17342 bound_to 10162
  139.9972  143.5783  152.2889 LP  0  0  0  0  0  0  0  0  0  0  0  0  # atno 17343 bound_to 10162
  157.0126  130.5643  149.5322 LP  0  0  0  0  0  0  0  0  0  0  0  0  # atno 17370 bound_to 10713
  156.0219  130.5314  150.8299 LP  0  0  0  0  0  0  0  0  0  0  0  0  # atno 17371 bound_to 10713
  140.1003  134.5482  155.8359 LP  0  0  0  0  0  0  0  0  0  0  0  0  # atno 17394 bound_to 11000
  141.2102  133.6693  156.6496 LP  0  0  0  0  0  0  0  0  0  0  0  0  # atno 17395 bound_to 11000

$$$$
