AV-unprocessed.smi:741|AV-procd|sdf|3557|dock5
  -GOLD-   22720 0553D 1   1.00000     0.00000
 Structure written by MMmdl.
 43 44  0  0  0  0  0  0  0  0  3 V2000
  150.6175  132.8538  156.5855 C   0  0  0  0  0  0  0  0  0  0  0  0
  149.6400  133.0363  155.4150 C   0  0  0  0  0  0  0  0  0  0  0  0
  149.1926  134.4950  155.1996 C   0  0  1  0  0  0  0  0  0  0  0  0
  150.4076  135.4453  155.1208 C   0  0  0  0  0  0  0  0  0  0  0  0
  150.0975  136.7266  154.4402 N   0  3  0  0  0  0  0  0  0  0  0  0
  149.0282  137.5290  155.0703 C   0  0  0  0  0  0  0  0  0  0  0  0
  149.2597  138.9476  154.5631 C   0  0  0  0  0  0  0  0  0  0  0  0
  150.7814  139.0511  154.5281 C   0  0  0  0  0  0  0  0  0  0  0  0
  151.2637  137.6207  154.2485 C   0  0  0  0  0  0  0  0  0  0  0  0
  148.3813  134.5894  153.9831 N   0  0  0  0  0  0  0  0  0  0  0  0
  147.3434  133.8026  153.6625 C   0  0  0  0  0  0  0  0  0  0  0  0
  146.9084  132.9183  154.3991 O   0  0  0  0  0  0  0  0  0  0  0  0
  146.8363  134.1271  152.4606 N   0  0  0  0  0  0  0  0  0  0  0  0
  145.7538  133.5177  151.7697 C   0  0  0  0  0  0  0  0  0  0  0  0
  145.5060  132.1486  152.0135 C   0  0  0  0  0  0  0  0  0  0  0  0
  144.4317  131.5096  151.3613 C   0  0  0  0  0  0  0  0  0  0  0  0
  143.6424  132.2112  150.5199 N   0  3  0  0  0  0  0  0  0  0  0  0
  143.8295  133.5246  150.2680 C   0  0  0  0  0  0  0  0  0  0  0  0
  144.8889  134.2169  150.8898 C   0  0  0  0  0  0  0  0  0  0  0  0
  150.9367  131.8142  156.6628 H   0  0  0  0  0  0  0  0  0  0  0  0
  150.1626  133.1284  157.5375 H   0  0  0  0  0  0  0  0  0  0  0  0
  151.5105  133.4648  156.4513 H   0  0  0  0  0  0  0  0  0  0  0  0
  150.1195  132.6708  154.5062 H   0  0  0  0  0  0  0  0  0  0  0  0
  148.7678  132.4000  155.5723 H   0  0  0  0  0  0  0  0  0  0  0  0
  148.5908  134.7744  156.0663 H   0  0  0  0  0  0  0  0  0  0  0  0
  150.8039  135.6497  156.1167 H   0  0  0  0  0  0  0  0  0  0  0  0
  151.2054  134.9426  154.5714 H   0  0  0  0  0  0  0  0  0  0  0  0
  148.0336  137.1579  154.8247 H   0  0  0  0  0  0  0  0  0  0  0  0
  149.1369  137.5073  156.1559 H   0  0  0  0  0  0  0  0  0  0  0  0
  148.8559  139.0519  153.5551 H   0  0  0  0  0  0  0  0  0  0  0  0
  148.7954  139.7065  155.1935 H   0  0  0  0  0  0  0  0  0  0  0  0
  151.1351  139.7670  153.7856 H   0  0  0  0  0  0  0  0  0  0  0  0
  151.1474  139.3768  155.5028 H   0  0  0  0  0  0  0  0  0  0  0  0
  152.0879  137.3638  154.9156 H   0  0  0  0  0  0  0  0  0  0  0  0
  151.6224  137.5166  153.2241 H   0  0  0  0  0  0  0  0  0  0  0  0
  148.6614  135.2925  153.3143 H   0  0  0  0  0  0  0  0  0  0  0  0
  147.2381  134.9366  152.0105 H   0  0  0  0  0  0  0  0  0  0  0  0
  146.1349  131.5867  152.6891 H   0  0  0  0  0  0  0  0  0  0  0  0
  144.1803  130.4666  151.4888 H   0  0  0  0  0  0  0  0  0  0  0  0
  143.1271  133.9815  149.5861 H   0  0  0  0  0  0  0  0  0  0  0  0
  145.0085  135.2712  150.6911 H   0  0  0  0  0  0  0  0  0  0  0  0
  149.7726  136.5000  153.5114 H   0  0  0  0  0  0  0  0  0  0  0  0
  142.8687  131.7304  150.0598 H   0  0  0  0  0  0  0  0  0  0  0  0
  1  2  1  0  0  0  0
  1 20  1  0  0  0  0
  1 21  1  0  0  0  0
  1 22  1  0  0  0  0
  2  3  1  0  0  0  0
  2 23  1  0  0  0  0
  2 24  1  0  0  0  0
  3  4  1  0  0  0  0
  3 10  1  0  0  0  0
  3 25  1  0  0  0  0
  4  5  1  0  0  0  0
  4 26  1  0  0  0  0
  4 27  1  0  0  0  0
  5  9  1  0  0  0  0
  5  6  1  0  0  0  0
  5 42  1  0  0  0  0
  6  7  1  0  0  0  0
  6 28  1  0  0  0  0
  6 29  1  0  0  0  0
  7  8  1  0  0  0  0
  7 30  1  0  0  0  0
  7 31  1  0  0  0  0
  8  9  1  0  0  0  0
  8 32  1  0  0  0  0
  8 33  1  0  0  0  0
  9 34  1  0  0  0  0
  9 35  1  0  0  0  0
 10 11  1  0  0  0  0
 10 36  1  0  0  0  0
 11 12  2  0  0  0  0
 11 13  1  0  0  0  0
 13 14  1  0  0  0  0
 13 37  1  0  0  0  0
 14 19  1  0  0  0  0
 14 15  2  0  0  0  0
 15 16  1  0  0  0  0
 15 38  1  0  0  0  0
 16 17  2  0  0  0  0
 16 39  1  0  0  0  0
 17 18  1  0  0  0  0
 17 43  1  0  0  0  0
 18 19  2  0  0  0  0
 18 40  1  0  0  0  0
 19 41  1  0  0  0  0
M  CHG  1   5   1
M  CHG  1  17   1
M  END
> <s_m_source_file>
AV-unprocessed.smi

> <i_m_source_file_index>
741

> <i_lp_mmshare_version>
43012

> <i_f3d_flags>
0

> <s_epik_input>
W0NIMl0xW0NIMl1bQ0gyXVtDSDJdTjFbQ0gyXVtDQEBIXShbQ0gyXVtDSDNdKVtOSF1DKD1PKVtOSF1jMltjSF1bY0hdbltjSF1bY0hdMg==

> <s_epik_cmdline>
J2VwaWtfcHl0aG9uJywgJy1waCcsICc3LjAnLCAnLXRuJywgJzgnLCAnLW1hJywgJzIwMCcsICctbWV0YWxfYmluZGluZycsICctaW1hZScsICc8aW5maWxlLm1hZT4nLCAnLW9tYWUnLCAnPG91dGZpbGUubWFlPic=

> <r_epik_Ionization_Penalty>
1.10771

> <r_epik_Ionization_Penalty_Charging>
1.10769

> <r_epik_Ionization_Penalty_Neutral>
1.91663e-05

> <r_epik_State_Penalty>
1.16347

> <r_epik_Charging_Adjusted_Penalty>
2.27116

> <i_epik_Tot_Q>
2

> <i_epik_Tot_abs_Q>
2

> <r_epik_Metal_State_Penalty>
1.24871

> <b_epik_Metal_Only>
0

> <s_lp_Force_Field>
OPLS_2005

> <r_lp_Energy>
49.4137

> <b_lp_Chiralities_Consistent>
1

> <s_lp_Variant>
AV-unprocessed.smi:741-4

> <Gold.Version>
5.8.1

> <Gold.Id.Protein>
6NUR|6NUR_protein|mol2

> <Gold.PLP.Fitness>
45.2240

> <Gold.PLP.PLP>
-34.4701

> <Gold.PLP.part.hbond>
-3.5949

> <Gold.PLP.part.metal>
0.0000

> <Gold.PLP.part.buried>
-5.0039

> <Gold.PLP.part.nonpolar>
-27.1550

> <Gold.PLP.part.repulsive>
0.2230

> <Gold.PLP.ligand.clash>
0.0000

> <Gold.PLP.ligand.torsion>
0.5292

> <Gold.PLP.Chemscore.Hbond>
3.9120

> <Gold.PLP.Chemscore.CHOScore>
0.0000

> <Gold.PLP.Chemscore.Metal>
0.0000

> <Gold.Chemscore.Hbonds>
donor molecule, donor type, donor heavy atom, donor atom, acceptor molecule, acceptor atom, score
      L1  H     5    42       P1  7948  2.00
      L1  H    10    36       P1  7948  1.00
      L1  H    13    37       P1  7948  0.74

> <Gold.PLP.Chemscore.Internal.Correction>
0.0764

> <Gold.Rescore>
     Score         DG    S(hbond)    S(metal)    S(lipo)     H(rot)  DE(clash)    DE(int)     intcor
     16.45     -18.44       2.52        0.00      74.37       1.63       0.02       1.96       ----

> <Gold.Chemscore.Fitness>
16.4546

> <Gold.Chemscore.DG>
-18.4362

> <Gold.Chemscore.ZeroCoef>
-5.4800

> <Gold.Chemscore.Hbond>
2.5204

> <Gold.Chemscore.Metal>
0.0000

> <Gold.Chemscore.Lipo>
74.3656

> <Gold.Chemscore.Internal_Hbond>
0.0000

> <Gold.Chemscore.DEClash>
0.0180

> <Gold.Chemscore.DEInternal>
1.9637

> <Gold.Chemscore.Rot>
1.6260

> <Gold.Chemscore.Internal.Correction>
   9.000000E+99

> <Gold.Chemscore.Hbonds>
donor molecule, donor type, donor heavy atom, donor atom, acceptor molecule, acceptor atom, score
      L1  H     5    42       P1  7948  0.35
      L1  H    10    36       P1  7948  0.85
      L1  H    13    37       P1  7948  0.66
      L1  H    17    43       P1 10952  0.01

> <Gold.Chemscore.Hbond.Weighted>
-8.4180

> <Gold.Chemscore.Metal.Weighted>
-0.0000

> <Gold.Chemscore.Lipo.Weighted>
-8.7008

> <Gold.Chemscore.Internal_Hbond.Weighted>
0.0000

> <Gold.Chemscore.DEClash.Weighted>
0.0180

> <Gold.Chemscore.DEInternal.Weighted>
1.9637

> <Gold.Chemscore.Rot.Weighted>
4.1626

> <Gold.Chemscore.Internal.Correction.Weighted>
   9.000000E+99

> <Gold.Protein.RotatedTorsions>
[ 6907 6896 6895 6894 ] final  112.49 input  -60.11 | X-H torsion
[ 7974 7965 7964 7962 ] final -158.89 input  175.53 | X-H torsion
[ 8008 7997 7996 7995 ] final  158.93 input   59.86 | X-H torsion
[ 10167 10162 10161 10158 ] final  100.93 input  -65.29 | X-H torsion
[ 10718 10713 10712 10709 ] final   -0.18 input   66.30 | X-H torsion
[ 10763 10752 10751 10750 ] final -150.24 input  -60.55 | X-H torsion
[ 11005 11000 10999 10996 ] final  -65.43 input  -57.11 | X-H torsion

> <Gold.Protein.ActiveResidues>
 VAL166  LYS551  ARG553  GLY616  TRP617  ASP618  TYR619  PRO620  LYS621  CYS622 
 ASP623  PHE694  ASN695  SER759  ASP760  ASP761  ALA762  ILE779  LEU786  VAL792 
 PHE793  MET794  SER795  GLU796  ALA797  LYS798  CYS799  TRP800  GLU811  SER814 

> <Gold.Protein.RotatedAtoms>
  152.4913  133.8509  159.7200 H   0  0  0  0  0  0  0  0  0  0  0  0  # atno 6907 bound_to 6896
  150.9046  133.7065  159.2876 H   0  0  0  0  0  0  0  0  0  0  0  0  # atno 6908 bound_to 6896
  151.4494  135.1032  159.9746 H   0  0  0  0  0  0  0  0  0  0  0  0  # atno 6909 bound_to 6896
  144.7487  140.3762  143.6065 H   0  0  0  0  0  0  0  0  0  0  0  0  # atno 7974 bound_to 7965
  156.2271  140.1845  156.7335 H   0  0  0  0  0  0  0  0  0  0  0  0  # atno 8008 bound_to 7997
  154.5960  140.0643  156.9332 H   0  0  0  0  0  0  0  0  0  0  0  0  # atno 8009 bound_to 7997
  155.2255  140.3310  155.4312 H   0  0  0  0  0  0  0  0  0  0  0  0  # atno 8010 bound_to 7997
  139.7483  144.6991  151.0470 H   0  0  0  0  0  0  0  0  0  0  0  0  # atno 10167 bound_to 10162
  156.8242  130.5466  149.5694 H   0  0  0  0  0  0  0  0  0  0  0  0  # atno 10718 bound_to 10713
  154.8131  135.3289  154.7251 H   0  0  0  0  0  0  0  0  0  0  0  0  # atno 10763 bound_to 10752
  153.7897  135.6912  153.4878 H   0  0  0  0  0  0  0  0  0  0  0  0  # atno 10764 bound_to 10752
  153.1925  135.4546  155.0113 H   0  0  0  0  0  0  0  0  0  0  0  0  # atno 10765 bound_to 10752
  141.1454  133.6681  156.5985 H   0  0  0  0  0  0  0  0  0  0  0  0  # atno 11005 bound_to 11000
  145.7025  139.1665  143.2584 LP  0  0  0  0  0  0  0  0  0  0  0  0  # atno 17320 bound_to 7965
  146.1405  140.7064  142.9369 LP  0  0  0  0  0  0  0  0  0  0  0  0  # atno 17321 bound_to 7965
  140.7795  143.4839  150.9981 LP  0  0  0  0  0  0  0  0  0  0  0  0  # atno 17342 bound_to 10162
  139.8527  143.7417  152.3177 LP  0  0  0  0  0  0  0  0  0  0  0  0  # atno 17343 bound_to 10162
  156.0971  130.5940  150.9832 LP  0  0  0  0  0  0  0  0  0  0  0  0  # atno 17370 bound_to 10713
  157.6441  131.0906  150.8191 LP  0  0  0  0  0  0  0  0  0  0  0  0  # atno 17371 bound_to 10713
  140.3707  134.7608  157.4596 LP  0  0  0  0  0  0  0  0  0  0  0  0  # atno 17394 bound_to 11000
  140.0713  134.5859  155.8639 LP  0  0  0  0  0  0  0  0  0  0  0  0  # atno 17395 bound_to 11000

$$$$
