AV-unprocessed.smi:914|AV-procd|sdf|4151|dock1
  -GOLD-   22720 2 53D 1   1.00000     0.00000
 Structure written by MMmdl.
 33 34  0  0  0  0  0  0  0  0  1 V2000
  146.7784  139.3875  153.2711 O   0  0  0  0  0  0  0  0  0  0  0  0
  147.8020  139.7736  153.8321 C   0  0  0  0  0  0  0  0  0  0  0  0
  148.9580  138.9882  153.7888 N   0  0  0  0  0  0  0  0  0  0  0  0
  150.1800  139.3080  154.3816 C   0  0  0  0  0  0  0  0  0  0  0  0
  151.1281  138.5276  154.2934 O   0  0  0  0  0  0  0  0  0  0  0  0
  150.2495  140.5402  155.0711 N   0  0  0  0  0  0  0  0  0  0  0  0
  151.4851  140.8779  155.7349 C   0  0  0  0  0  0  0  0  0  0  0  0
  151.4103  140.6691  157.2556 C   0  0  0  0  0  0  0  0  0  0  0  0
  152.7299  140.5285  157.7531 O   0  0  0  0  0  0  0  0  0  0  0  0
  152.7895  140.4260  159.1645 C   0  0  0  0  0  0  0  0  0  0  0  0
  153.1399  141.8068  159.7308 C   0  0  1  0  0  0  0  0  0  0  0  0
  152.0413  142.8521  159.5430 C   0  0  0  0  0  0  0  0  0  0  0  0
  152.3708  143.8341  160.6432 C   0  0  0  0  0  0  0  0  0  0  0  0
  152.8163  142.9050  161.7697 C   0  0  0  0  0  0  0  0  0  0  0  0
  153.3415  141.7381  161.1395 O   0  0  0  0  0  0  0  0  0  0  0  0
  149.1247  141.3470  155.1476 C   0  0  0  0  0  0  0  0  0  0  0  0
  147.9394  141.0251  154.5761 C   0  0  0  0  0  0  0  0  0  0  0  0
  146.5790  142.0789  154.7259 Cl  0  0  0  0  0  0  0  0  0  0  0  0
  148.9021  138.1118  153.2904 H   0  0  0  0  0  0  0  0  0  0  0  0
  152.2843  140.2959  155.2718 H   0  0  0  0  0  0  0  0  0  0  0  0
  151.6897  141.9221  155.4930 H   0  0  0  0  0  0  0  0  0  0  0  0
  150.9057  141.5103  157.7334 H   0  0  0  0  0  0  0  0  0  0  0  0
  150.8351  139.7710  157.4835 H   0  0  0  0  0  0  0  0  0  0  0  0
  151.8336  140.0850  159.5651 H   0  0  0  0  0  0  0  0  0  0  0  0
  153.5479  139.6965  159.4519 H   0  0  0  0  0  0  0  0  0  0  0  0
  154.0656  142.1703  159.2817 H   0  0  0  0  0  0  0  0  0  0  0  0
  152.0465  143.3014  158.5493 H   0  0  0  0  0  0  0  0  0  0  0  0
  151.0571  142.4137  159.7153 H   0  0  0  0  0  0  0  0  0  0  0  0
  153.1976  144.4758  160.3353 H   0  0  0  0  0  0  0  0  0  0  0  0
  151.5289  144.4690  160.9204 H   0  0  0  0  0  0  0  0  0  0  0  0
  153.5550  143.3715  162.4215 H   0  0  0  0  0  0  0  0  0  0  0  0
  151.9629  142.6118  162.3823 H   0  0  0  0  0  0  0  0  0  0  0  0
  149.1904  142.2757  155.6971 H   0  0  0  0  0  0  0  0  0  0  0  0
  1  2  2  0  0  0  0
  2 17  1  0  0  0  0
  2  3  1  0  0  0  0
  3 19  1  0  0  0  0
  3  4  1  0  0  0  0
  4  5  2  0  0  0  0
  4  6  1  0  0  0  0
  6  7  1  0  0  0  0
  6 16  1  0  0  0  0
  7  8  1  0  0  0  0
  7 20  1  0  0  0  0
  7 21  1  0  0  0  0
  8  9  1  0  0  0  0
  8 22  1  0  0  0  0
  8 23  1  0  0  0  0
  9 10  1  0  0  0  0
 10 11  1  0  0  0  0
 10 24  1  0  0  0  0
 10 25  1  0  0  0  0
 11 15  1  0  0  0  0
 11 12  1  0  0  0  0
 11 26  1  0  0  0  0
 12 13  1  0  0  0  0
 12 27  1  0  0  0  0
 12 28  1  0  0  0  0
 13 14  1  0  0  0  0
 13 29  1  0  0  0  0
 13 30  1  0  0  0  0
 14 15  1  0  0  0  0
 14 31  1  0  0  0  0
 14 32  1  0  0  0  0
 16 17  2  0  0  0  0
 16 33  1  0  0  0  0
 17 18  1  0  0  0  0
M  END
> <s_m_source_file>
AV-unprocessed.smi

> <i_m_source_file_index>
914

> <i_lp_mmshare_version>
43012

> <i_f3d_flags>
0

> <s_epik_input>
Tz1jMVtuSF1jKD1PKW4oW2NIXWMxQ2wpW0NIMl1bQ0gyXU9bQ0gyXVtDQEBIXTJbQ0gyXVtDSDJdW0NIMl1PMg==

> <s_epik_cmdline>
J2VwaWtfcHl0aG9uJywgJy1waCcsICc3LjAnLCAnLXRuJywgJzgnLCAnLW1hJywgJzIwMCcsICctbWV0YWxfYmluZGluZycsICctaW1hZScsICc8aW5maWxlLm1hZT4nLCAnLW9tYWUnLCAnPG91dGZpbGUubWFlPic=

> <r_lp_tautomer_probability>
0.999537

> <r_epik_Ionization_Penalty>
0.030751

> <r_epik_Ionization_Penalty_Charging>
0.030751

> <r_epik_Ionization_Penalty_Neutral>
1.46719e-11

> <r_epik_State_Penalty>
0.0253757

> <r_epik_Charging_Adjusted_Penalty>
0.0561266

> <i_epik_Tot_Q>
0

> <i_epik_Tot_abs_Q>
0

> <r_epik_Metal_State_Penalty>
2.25222

> <b_epik_Metal_Only>
0

> <s_lp_Force_Field>
OPLS_2005

> <r_lp_Energy>
21.1237

> <b_lp_Chiralities_Consistent>
1

> <s_lp_Variant>
AV-unprocessed.smi:914-2

> <Gold.Version>
5.8.1

> <Gold.Id.Protein>
6NUR|6NUR_protein|mol2

> <Gold.PLP.Fitness>
40.8164

> <Gold.PLP.PLP>
-35.8505

> <Gold.PLP.part.hbond>
-2.0000

> <Gold.PLP.part.metal>
0.0000

> <Gold.PLP.part.buried>
0.0670

> <Gold.PLP.part.nonpolar>
-30.7486

> <Gold.PLP.part.repulsive>
0.4762

> <Gold.PLP.ligand.clash>
0.0000

> <Gold.PLP.ligand.torsion>
0.6021

> <Gold.PLP.Chemscore.Hbond>
1.0435

> <Gold.PLP.Chemscore.CHOScore>
1.0000

> <Gold.PLP.Chemscore.Metal>
0.0000

> <Gold.Chemscore.Hbonds>
donor molecule, donor type, donor heavy atom, donor atom, acceptor molecule, acceptor atom, score
      L1  H     3    19       P1  7948  0.23
      P1  H  7997  8009       L1     9  0.82
      L1  C    16    33       P1  8028  1.00

> <Gold.PLP.Chemscore.Internal.Correction>
0.0395

> <Gold.Rescore>
     Score         DG    S(hbond)    S(metal)    S(lipo)     H(rot)  DE(clash)    DE(int)     intcor
     14.72     -15.48       1.77        0.00      81.75       2.14       0.14       0.62       ----

> <Gold.Chemscore.Fitness>
14.7234

> <Gold.Chemscore.DG>
-15.4836

> <Gold.Chemscore.ZeroCoef>
-5.4800

> <Gold.Chemscore.Hbond>
1.7700

> <Gold.Chemscore.Metal>
0.0000

> <Gold.Chemscore.Lipo>
81.7515

> <Gold.Chemscore.Internal_Hbond>
0.0000

> <Gold.Chemscore.DEClash>
0.1417

> <Gold.Chemscore.DEInternal>
0.6185

> <Gold.Chemscore.Rot>
2.1379

> <Gold.Chemscore.Internal.Correction>
   9.000000E+99

> <Gold.Chemscore.Hbonds>
donor molecule, donor type, donor heavy atom, donor atom, acceptor molecule, acceptor atom, score
      L1  H     3    19       P1  7948  0.23
      P1  H  7997  8009       L1     9  0.67

> <Gold.Chemscore.Hbond.Weighted>
-5.9116

> <Gold.Chemscore.Metal.Weighted>
-0.0000

> <Gold.Chemscore.Lipo.Weighted>
-9.5649

> <Gold.Chemscore.Internal_Hbond.Weighted>
0.0000

> <Gold.Chemscore.DEClash.Weighted>
0.1417

> <Gold.Chemscore.DEInternal.Weighted>
0.6185

> <Gold.Chemscore.Rot.Weighted>
5.4730

> <Gold.Chemscore.Internal.Correction.Weighted>
   9.000000E+99

> <Gold.Protein.RotatedTorsions>
[ 6907 6896 6895 6894 ] final -164.18 input  -60.11 | X-H torsion
[ 7974 7965 7964 7962 ] final  -55.10 input  175.53 | X-H torsion
[ 8008 7997 7996 7995 ] final  165.33 input   59.86 | X-H torsion
[ 10167 10162 10161 10158 ] final  -39.98 input  -65.29 | X-H torsion
[ 10718 10713 10712 10709 ] final -127.77 input   66.30 | X-H torsion
[ 10763 10752 10751 10750 ] final -125.24 input  -60.55 | X-H torsion
[ 11005 11000 10999 10996 ] final   82.11 input  -57.11 | X-H torsion

> <Gold.Protein.ActiveResidues>
 VAL166  LYS551  ARG553  GLY616  TRP617  ASP618  TYR619  PRO620  LYS621  CYS622 
 ASP623  PHE694  ASN695  SER759  ASP760  ASP761  ALA762  ILE779  LEU786  VAL792 
 PHE793  MET794  SER795  GLU796  ALA797  LYS798  CYS799  TRP800  GLU811  SER814 

> <Gold.Protein.RotatedAtoms>
  151.4077  133.3737  159.2739 H   0  0  0  0  0  0  0  0  0  0  0  0  # atno 6907 bound_to 6896
  150.9386  134.8798  159.7608 H   0  0  0  0  0  0  0  0  0  0  0  0  # atno 6908 bound_to 6896
  152.5061  134.4026  159.9474 H   0  0  0  0  0  0  0  0  0  0  0  0  # atno 6909 bound_to 6896
  145.8780  140.8166  142.9854 H   0  0  0  0  0  0  0  0  0  0  0  0  # atno 7974 bound_to 7965
  156.1809  140.1673  156.8276 H   0  0  0  0  0  0  0  0  0  0  0  0  # atno 8008 bound_to 7997
  154.5359  140.0747  156.8459 H   0  0  0  0  0  0  0  0  0  0  0  0  # atno 8009 bound_to 7997
  155.3312  140.3379  155.4242 H   0  0  0  0  0  0  0  0  0  0  0  0  # atno 8010 bound_to 7997
  140.7048  143.3181  151.2859 H   0  0  0  0  0  0  0  0  0  0  0  0  # atno 10167 bound_to 10162
  156.1888  130.6781  151.0398 H   0  0  0  0  0  0  0  0  0  0  0  0  # atno 10718 bound_to 10713
  154.8733  135.4036  154.3236 H   0  0  0  0  0  0  0  0  0  0  0  0  # atno 10763 bound_to 10752
  153.4061  135.7019  153.6397 H   0  0  0  0  0  0  0  0  0  0  0  0  # atno 10764 bound_to 10752
  153.5120  135.3705  155.2562 H   0  0  0  0  0  0  0  0  0  0  0  0  # atno 10765 bound_to 10752
  139.9075  134.8047  156.2131 H   0  0  0  0  0  0  0  0  0  0  0  0  # atno 11005 bound_to 11000
  144.6726  140.1341  143.7441 LP  0  0  0  0  0  0  0  0  0  0  0  0  # atno 17320 bound_to 7965
  145.9057  139.2457  143.1467 LP  0  0  0  0  0  0  0  0  0  0  0  0  # atno 17321 bound_to 7965
  139.6626  144.0162  152.2702 LP  0  0  0  0  0  0  0  0  0  0  0  0  # atno 17342 bound_to 10162
  139.9734  144.6478  150.7968 LP  0  0  0  0  0  0  0  0  0  0  0  0  # atno 17343 bound_to 10162
  157.6916  131.0808  150.7092 LP  0  0  0  0  0  0  0  0  0  0  0  0  # atno 17370 bound_to 10713
  156.7148  130.4663  149.5538 LP  0  0  0  0  0  0  0  0  0  0  0  0  # atno 17371 bound_to 10713
  141.0453  133.6916  156.1672 LP  0  0  0  0  0  0  0  0  0  0  0  0  # atno 17394 bound_to 11000
  140.6893  134.4683  157.5589 LP  0  0  0  0  0  0  0  0  0  0  0  0  # atno 17395 bound_to 11000

$$$$
