AV-unprocessed.smi:100|AV-procd|sdf|899|dock1
  -GOLD-   2262017393D 1   1.00000     0.00000
 Structure written by MMmdl.
 31 33  0  0  0  0  0  0  0  0  1 V2000
  153.1595  140.7786  159.4540 N   0  0  0  0  0  0  0  0  0  0  0  0
  152.7429  140.2799  158.2820 C   0  0  0  0  0  0  0  0  0  0  0  0
  153.2982  139.1271  157.8394 N   0  0  0  0  0  0  0  0  0  0  0  0
  152.8995  138.6081  156.6731 C   0  0  0  0  0  0  0  0  0  0  0  0
  151.9829  139.0747  155.8198 N   0  0  0  0  0  0  0  0  0  0  0  0
  151.4284  140.2390  156.2682 C   0  0  0  0  0  0  0  0  0  0  0  0
  151.7498  140.9023  157.4843 C   0  0  0  0  0  0  0  0  0  0  0  0
  150.9826  142.0531  157.6117 N   0  0  0  0  0  0  0  0  0  0  0  0
  150.2513  142.0650  156.5288 C   0  0  0  0  0  0  0  0  0  0  0  0
  150.4605  141.0115  155.6645 N   0  0  0  0  0  0  0  0  0  0  0  0
  149.7921  140.7292  154.3601 C   0  0  2  0  0  0  0  0  0  0  0  0
  148.9442  141.8044  154.0855 O   0  0  0  0  0  0  0  0  0  0  0  0
  147.7029  141.3087  153.6066 C   0  0  2  0  0  0  0  0  0  0  0  0
  146.5931  142.3598  153.7641 C   0  0  0  0  0  0  0  0  0  0  0  0
  146.5727  142.8570  155.0854 O   0  0  0  0  0  0  0  0  0  0  0  0
  147.5109  140.0157  154.4013 C   0  0  2  0  0  0  0  0  0  0  0  0
  147.0716  140.2762  155.6346 F   0  0  0  0  0  0  0  0  0  0  0  0
  148.9251  139.4624  154.4816 C   0  0  1  0  0  0  0  0  0  0  0  0
  149.1633  138.5528  153.4261 O   0  0  0  0  0  0  0  0  0  0  0  0
  152.7608  141.6375  159.8049 H   0  0  0  0  0  0  0  0  0  0  0  0
  153.8727  140.2970  159.9818 H   0  0  0  0  0  0  0  0  0  0  0  0
  153.3854  137.6888  156.3810 H   0  0  0  0  0  0  0  0  0  0  0  0
  149.5348  142.8487  156.3296 H   0  0  0  0  0  0  0  0  0  0  0  0
  150.5940  140.6615  153.6233 H   0  0  0  0  0  0  0  0  0  0  0  0
  147.8329  141.0674  152.5497 H   0  0  0  0  0  0  0  0  0  0  0  0
  146.7248  143.1839  153.0628 H   0  0  0  0  0  0  0  0  0  0  0  0
  145.6222  141.9115  153.5514 H   0  0  0  0  0  0  0  0  0  0  0  0
  147.4209  143.2255  155.2801 H   0  0  0  0  0  0  0  0  0  0  0  0
  146.7947  139.3317  153.9444 H   0  0  0  0  0  0  0  0  0  0  0  0
  149.1079  138.9456  155.4253 H   0  0  0  0  0  0  0  0  0  0  0  0
  149.1800  139.0357  152.6136 H   0  0  0  0  0  0  0  0  0  0  0  0
  1  2  1  0  0  0  0
  1 20  1  0  0  0  0
  1 21  1  0  0  0  0
  2  7  1  0  0  0  0
  2  3  2  0  0  0  0
  3  4  1  0  0  0  0
  4  5  2  0  0  0  0
  4 22  1  0  0  0  0
  5  6  1  0  0  0  0
  6 10  1  0  0  0  0
  6  7  2  0  0  0  0
  7  8  1  0  0  0  0
  8  9  2  0  0  0  0
  9 10  1  0  0  0  0
  9 23  1  0  0  0  0
 10 11  1  0  0  0  0
 11 18  1  0  0  0  0
 11 12  1  0  0  0  0
 11 24  1  0  0  0  0
 12 13  1  0  0  0  0
 13 14  1  0  0  0  0
 13 16  1  0  0  0  0
 13 25  1  0  0  0  0
 14 15  1  0  0  0  0
 14 26  1  0  0  0  0
 14 27  1  0  0  0  0
 15 28  1  0  0  0  0
 16 17  1  0  0  0  0
 16 18  1  0  0  0  0
 16 29  1  0  0  0  0
 18 19  1  0  0  0  0
 18 30  1  0  0  0  0
 19 31  1  0  0  0  0
M  END
> <s_m_source_file>
AV-unprocessed.smi

> <i_m_source_file_index>
100

> <i_lp_mmshare_version>
43012

> <i_f3d_flags>
0

> <s_epik_input>
bjFbY0hdbmMoW05IMl0pYyhjMTIpbltjSF1uMltDQEBIXTNPW0NAQEhdKFtDSDJdW09IXSlbQ0BIXShGKVtDQEhdM1tPSF0=

> <s_epik_cmdline>
J2VwaWtfcHl0aG9uJywgJy1waCcsICc3LjAnLCAnLXRuJywgJzgnLCAnLW1hJywgJzIwMCcsICctbWV0YWxfYmluZGluZycsICctaW1hZScsICc8aW5maWxlLm1hZT4nLCAnLW9tYWUnLCAnPG91dGZpbGUubWFlPic=

> <r_lp_tautomer_probability>
1

> <r_epik_Ionization_Penalty>
0.000750324

> <r_epik_Ionization_Penalty_Charging>
0

> <r_epik_Ionization_Penalty_Neutral>
0.000750324

> <r_epik_State_Penalty>
-0

> <r_epik_Charging_Adjusted_Penalty>
0

> <i_epik_Tot_Q>
0

> <i_epik_Tot_abs_Q>
0

> <r_epik_Metal_State_Penalty>
-0

> <b_epik_Metal_Only>
0

> <s_epik_Chemistry_Notes>
This compound contains an acetal/aminal-like group ( X-CH(R)-Y where X, Y are N, S, or O) that may be acid/base labile, releasing an aldehyde.

> <s_lp_Force_Field>
OPLS_2005

> <r_lp_Energy>
28.7864

> <b_lp_Chiralities_Consistent>
1

> <s_lp_Variant>
AV-unprocessed.smi:100-3

> <Gold.Version>
5.8.1

> <Gold.Id.Protein>
6NUR|6NUR_protein|mol2

> <Gold.PLP.Fitness>
40.1410

> <Gold.PLP.PLP>
-28.9863

> <Gold.PLP.part.hbond>
-5.0160

> <Gold.PLP.part.metal>
0.0000

> <Gold.PLP.part.buried>
-0.8905

> <Gold.PLP.part.nonpolar>
-21.3028

> <Gold.PLP.part.repulsive>
0.3470

> <Gold.PLP.ligand.clash>
0.0000

> <Gold.PLP.ligand.torsion>
0.0950

> <Gold.PLP.Chemscore.Hbond>
2.7776

> <Gold.PLP.Chemscore.CHOScore>
1.0000

> <Gold.PLP.Chemscore.Metal>
0.0000

> <Gold.Chemscore.Hbonds>
donor molecule, donor type, donor heavy atom, donor atom, acceptor molecule, acceptor atom, score
      L1  H    15    28       P1  8028  0.73
      L1  H    19    31       P1  7957  1.00
      P1  H  7997  8010       L1     3  0.48
      P1  H  8011  8017       L1    12  0.48
      L1  C     9    23       P1  8028  1.00

> <Gold.PLP.Chemscore.Internal.Correction>
0.0117

> <Gold.Rescore>
     Score         DG    S(hbond)    S(metal)    S(lipo)     H(rot)  DE(clash)    DE(int)     intcor
      3.35      -5.34       1.35        0.00      30.09       3.19       0.24       1.75       ----

> <Gold.Chemscore.Fitness>
3.3466

> <Gold.Chemscore.DG>
-5.3372

> <Gold.Chemscore.ZeroCoef>
-5.4800

> <Gold.Chemscore.Hbond>
1.3482

> <Gold.Chemscore.Metal>
0.0000

> <Gold.Chemscore.Lipo>
30.0938

> <Gold.Chemscore.Internal_Hbond>
0.0000

> <Gold.Chemscore.DEClash>
0.2421

> <Gold.Chemscore.DEInternal>
1.7485

> <Gold.Chemscore.Rot>
3.1901

> <Gold.Chemscore.Internal.Correction>
   9.000000E+99

> <Gold.Chemscore.Hbonds>
donor molecule, donor type, donor heavy atom, donor atom, acceptor molecule, acceptor atom, score
      L1  H    15    28       P1  8028  0.12
      L1  H    19    31       P1  7957  0.99
      P1  H  8011  8017       L1    12  0.03

> <Gold.Chemscore.Hbond.Weighted>
-4.5029

> <Gold.Chemscore.Metal.Weighted>
-0.0000

> <Gold.Chemscore.Lipo.Weighted>
-3.5210

> <Gold.Chemscore.Internal_Hbond.Weighted>
0.0000

> <Gold.Chemscore.DEClash.Weighted>
0.2421

> <Gold.Chemscore.DEInternal.Weighted>
1.7485

> <Gold.Chemscore.Rot.Weighted>
8.1667

> <Gold.Chemscore.Internal.Correction.Weighted>
   9.000000E+99

> <Gold.Protein.RotatedTorsions>
[ 6907 6896 6895 6894 ] final -143.49 input  -60.11 | X-H torsion
[ 7974 7965 7964 7962 ] final   99.08 input  175.53 | X-H torsion
[ 8008 7997 7996 7995 ] final   19.05 input   59.86 | X-H torsion
[ 10167 10162 10161 10158 ] final  168.96 input  -65.29 | X-H torsion
[ 10718 10713 10712 10709 ] final  -28.18 input   66.30 | X-H torsion
[ 10763 10752 10751 10750 ] final   72.00 input  -60.55 | X-H torsion
[ 11005 11000 10999 10996 ] final  -52.86 input  -57.11 | X-H torsion

> <Gold.Protein.ActiveResidues>
 VAL166  LYS551  ARG553  GLY616  TRP617  ASP618  TYR619  PRO620  LYS621  CYS622 
 ASP623  PHE694  ASN695  SER759  ASP760  ASP761  ALA762  ILE779  LEU786  VAL792 
 PHE793  MET794  SER795  GLU796  ALA797  LYS798  CYS799  TRP800  GLU811  SER814 

> <Gold.Protein.RotatedAtoms>
  151.1012  133.5242  159.2609 H   0  0  0  0  0  0  0  0  0  0  0  0  # atno 6907 bound_to 6896
  151.2072  135.0466  159.8906 H   0  0  0  0  0  0  0  0  0  0  0  0  # atno 6908 bound_to 6896
  152.5443  134.0832  159.8298 H   0  0  0  0  0  0  0  0  0  0  0  0  # atno 6909 bound_to 6896
  145.4036  139.2344  143.3287 H   0  0  0  0  0  0  0  0  0  0  0  0  # atno 7974 bound_to 7965
  154.9151  140.3019  155.5245 H   0  0  0  0  0  0  0  0  0  0  0  0  # atno 8008 bound_to 7997
  156.3013  140.2382  156.4130 H   0  0  0  0  0  0  0  0  0  0  0  0  # atno 8009 bound_to 7997
  154.8386  140.0415  157.1515 H   0  0  0  0  0  0  0  0  0  0  0  0  # atno 8010 bound_to 7997
  139.4980  144.3758  151.9675 H   0  0  0  0  0  0  0  0  0  0  0  0  # atno 10167 bound_to 10162
  156.4286  130.4440  149.7133 H   0  0  0  0  0  0  0  0  0  0  0  0  # atno 10718 bound_to 10713
  153.0432  135.5116  154.7678 H   0  0  0  0  0  0  0  0  0  0  0  0  # atno 10763 bound_to 10752
  154.6599  135.2937  154.9882 H   0  0  0  0  0  0  0  0  0  0  0  0  # atno 10764 bound_to 10752
  154.0737  135.6674  153.4880 H   0  0  0  0  0  0  0  0  0  0  0  0  # atno 10765 bound_to 10752
  141.0946  133.6626  156.4087 H   0  0  0  0  0  0  0  0  0  0  0  0  # atno 11005 bound_to 11000
  146.2740  140.4737  142.8803 LP  0  0  0  0  0  0  0  0  0  0  0  0  # atno 17320 bound_to 7965
  144.8357  140.6778  143.6262 LP  0  0  0  0  0  0  0  0  0  0  0  0  # atno 17321 bound_to 7965
  140.3195  144.3445  150.6013 LP  0  0  0  0  0  0  0  0  0  0  0  0  # atno 17342 bound_to 10162
  140.5734  143.2178  151.7558 LP  0  0  0  0  0  0  0  0  0  0  0  0  # atno 17343 bound_to 10162
  156.4045  130.7691  151.2701 LP  0  0  0  0  0  0  0  0  0  0  0  0  # atno 17370 bound_to 10713
  157.7508  131.0230  150.3814 LP  0  0  0  0  0  0  0  0  0  0  0  0  # atno 17371 bound_to 10713
  140.5170  134.6341  157.5304 LP  0  0  0  0  0  0  0  0  0  0  0  0  # atno 17394 bound_to 11000
  139.9780  134.7183  155.9913 LP  0  0  0  0  0  0  0  0  0  0  0  0  # atno 17395 bound_to 11000

$$$$
