AV-unprocessed.smi:2664|AV-procd|sdf|10326|dock1
  -GOLD-   2272014343D 1   1.00000     0.00000
 Structure written by MMmdl.
 43 44  0  0  0  0  0  0  0  0  1 V2000
  144.5093  136.6180  152.1159 O   0  0  0  0  0  0  0  0  0  0  0  0
  145.7182  136.4412  151.9678 C   0  0  0  0  0  0  0  0  0  0  0  0
  146.2859  135.3336  151.4599 N   0  0  0  0  0  0  0  0  0  0  0  0
  145.6583  134.1720  150.9330 C   0  0  0  0  0  0  0  0  0  0  0  0
  146.4876  133.1041  150.5318 C   0  0  0  0  0  0  0  0  0  0  0  0
  145.8926  131.9480  149.9885 C   0  0  0  0  0  0  0  0  0  0  0  0
  144.5608  131.8082  149.8213 N   0  0  0  0  0  0  0  0  0  0  0  0
  143.7690  132.8364  150.1935 C   0  0  0  0  0  0  0  0  0  0  0  0
  144.2613  134.0353  150.7468 C   0  0  0  0  0  0  0  0  0  0  0  0
  146.6501  137.3406  152.3193 N   0  0  0  0  0  0  0  0  0  0  0  0
  146.3980  138.6615  152.9022 C   0  0  2  0  0  0  0  0  0  0  0  0
  147.6367  139.5615  152.6589 C   0  0  0  0  0  0  0  0  0  0  0  0
  147.6908  140.8456  153.5081 C   0  0  0  0  0  0  0  0  0  0  0  0
  149.0025  141.3671  153.5369 O   0  0  0  0  0  0  0  0  0  0  0  0
  146.0185  138.5165  154.4050 C   0  0  0  0  0  0  0  0  0  0  0  0
  147.1204  137.7919  155.2212 C   0  0  0  0  0  0  0  0  0  0  0  0
  146.7489  137.6399  156.7047 C   0  0  0  0  0  0  0  0  0  0  0  0
  145.4117  136.9083  156.8707 C   0  0  0  0  0  0  0  0  0  0  0  0
  144.3027  137.6256  156.0918 C   0  0  0  0  0  0  0  0  0  0  0  0
  144.6702  137.7818  154.6072 C   0  0  0  0  0  0  0  0  0  0  0  0
  147.2945  135.3038  151.4851 H   0  0  0  0  0  0  0  0  0  0  0  0
  147.5606  133.1632  150.6407 H   0  0  0  0  0  0  0  0  0  0  0  0
  146.5040  131.1139  149.6774 H   0  0  0  0  0  0  0  0  0  0  0  0
  142.7085  132.7027  150.0388 H   0  0  0  0  0  0  0  0  0  0  0  0
  143.5645  134.8189  151.0011 H   0  0  0  0  0  0  0  0  0  0  0  0
  147.6179  137.0975  152.1670 H   0  0  0  0  0  0  0  0  0  0  0  0
  145.5496  139.1287  152.3993 H   0  0  0  0  0  0  0  0  0  0  0  0
  148.5531  139.0062  152.8524 H   0  0  0  0  0  0  0  0  0  0  0  0
  147.6713  139.8395  151.6048 H   0  0  0  0  0  0  0  0  0  0  0  0
  147.0328  141.6007  153.0775 H   0  0  0  0  0  0  0  0  0  0  0  0
  147.3438  140.6724  154.5267 H   0  0  0  0  0  0  0  0  0  0  0  0
  149.4621  141.0706  152.7659 H   0  0  0  0  0  0  0  0  0  0  0  0
  145.9127  139.5207  154.8187 H   0  0  0  0  0  0  0  0  0  0  0  0
  147.3056  136.8068  154.7903 H   0  0  0  0  0  0  0  0  0  0  0  0
  148.0649  138.3323  155.1648 H   0  0  0  0  0  0  0  0  0  0  0  0
  147.5353  137.0976  157.2302 H   0  0  0  0  0  0  0  0  0  0  0  0
  146.6893  138.6247  157.1696 H   0  0  0  0  0  0  0  0  0  0  0  0
  145.5070  135.8821  156.5139 H   0  0  0  0  0  0  0  0  0  0  0  0
  145.1473  136.8475  157.9269 H   0  0  0  0  0  0  0  0  0  0  0  0
  143.3679  137.0722  156.1854 H   0  0  0  0  0  0  0  0  0  0  0  0
  144.1245  138.6087  156.5293 H   0  0  0  0  0  0  0  0  0  0  0  0
  143.8583  138.3194  154.1204 H   0  0  0  0  0  0  0  0  0  0  0  0
  144.7147  136.7976  154.1390 H   0  0  0  0  0  0  0  0  0  0  0  0
  1  2  2  0  0  0  0
  2  3  1  0  0  0  0
  2 10  1  0  0  0  0
  3  4  1  0  0  0  0
  3 21  1  0  0  0  0
  4  9  1  0  0  0  0
  4  5  2  0  0  0  0
  5  6  1  0  0  0  0
  5 22  1  0  0  0  0
  6  7  2  0  0  0  0
  6 23  1  0  0  0  0
  7  8  1  0  0  0  0
  8  9  2  0  0  0  0
  8 24  1  0  0  0  0
  9 25  1  0  0  0  0
 10 11  1  0  0  0  0
 10 26  1  0  0  0  0
 11 12  1  0  0  0  0
 11 15  1  0  0  0  0
 11 27  1  0  0  0  0
 12 13  1  0  0  0  0
 12 28  1  0  0  0  0
 12 29  1  0  0  0  0
 13 14  1  0  0  0  0
 13 30  1  0  0  0  0
 13 31  1  0  0  0  0
 14 32  1  0  0  0  0
 15 20  1  0  0  0  0
 15 16  1  0  0  0  0
 15 33  1  0  0  0  0
 16 17  1  0  0  0  0
 16 34  1  0  0  0  0
 16 35  1  0  0  0  0
 17 18  1  0  0  0  0
 17 36  1  0  0  0  0
 17 37  1  0  0  0  0
 18 19  1  0  0  0  0
 18 38  1  0  0  0  0
 18 39  1  0  0  0  0
 19 20  1  0  0  0  0
 19 40  1  0  0  0  0
 19 41  1  0  0  0  0
 20 42  1  0  0  0  0
 20 43  1  0  0  0  0
M  END
> <s_m_source_file>
AV-unprocessed.smi

> <i_m_source_file_index>
2664

> <i_lp_mmshare_version>
43012

> <i_f3d_flags>
0

> <s_epik_input>
W2NIXTFbY0hdbltjSF1bY0hdYzFbTkhdQyg9TylbTkhdW0NASF0oW0NIMl1bQ0gyXVtPSF0pW0NIXTJbQ0gyXVtDSDJdW0NIMl1bQ0gyXVtDSDJdMg==

> <s_epik_cmdline>
J2VwaWtfcHl0aG9uJywgJy1waCcsICc3LjAnLCAnLXRuJywgJzgnLCAnLW1hJywgJzIwMCcsICctbWV0YWxfYmluZGluZycsICctaW1hZScsICc8aW5maWxlLm1hZT4nLCAnLW9tYWUnLCAnPG91dGZpbGUubWFlPic=

> <r_epik_Ionization_Penalty>
0.119281

> <r_epik_Ionization_Penalty_Charging>
0

> <r_epik_Ionization_Penalty_Neutral>
0.119281

> <r_epik_State_Penalty>
0.108806

> <r_epik_Charging_Adjusted_Penalty>
0.108806

> <i_epik_Tot_Q>
0

> <i_epik_Tot_abs_Q>
0

> <r_epik_Metal_State_Penalty>
0.0904205

> <b_epik_Metal_Only>
0

> <s_lp_Force_Field>
OPLS_2005

> <r_lp_Energy>
21.6864

> <b_lp_Chiralities_Consistent>
1

> <s_lp_Variant>
AV-unprocessed.smi:2664-1

> <Gold.Version>
5.8.1

> <Gold.Id.Protein>
6NUR|6NUR_protein|mol2

> <Gold.PLP.Fitness>
41.8122

> <Gold.PLP.PLP>
-28.0292

> <Gold.PLP.part.hbond>
-5.5232

> <Gold.PLP.part.metal>
0.0000

> <Gold.PLP.part.buried>
0.0233

> <Gold.PLP.part.nonpolar>
-23.2896

> <Gold.PLP.part.repulsive>
0.5269

> <Gold.PLP.ligand.clash>
0.0000

> <Gold.PLP.ligand.torsion>
0.5076

> <Gold.PLP.Chemscore.Hbond>
3.0336

> <Gold.PLP.Chemscore.CHOScore>
1.8578

> <Gold.PLP.Chemscore.Metal>
0.0000

> <Gold.Chemscore.Hbonds>
donor molecule, donor type, donor heavy atom, donor atom, acceptor molecule, acceptor atom, score
      L1  H     3    21       P1  7948  0.98
      L1  H    10    26       P1  7948  1.00
      L1  H    14    32       P1  7957  1.00
      P1  H 10785 10796       L1     7  0.04
      L1  C     6    23       P1 10747  0.88
      L1  C     8    24       P1 10186  0.98

> <Gold.PLP.Chemscore.Internal.Correction>
0.1241

> <Gold.Rescore>
     Score         DG    S(hbond)    S(metal)    S(lipo)     H(rot)  DE(clash)    DE(int)     intcor
     12.85     -17.59       2.94        0.00      68.26       2.23       1.63       3.11       ----

> <Gold.Chemscore.Fitness>
12.8477

> <Gold.Chemscore.DG>
-17.5864

> <Gold.Chemscore.ZeroCoef>
-5.4800

> <Gold.Chemscore.Hbond>
2.9389

> <Gold.Chemscore.Metal>
0.0000

> <Gold.Chemscore.Lipo>
68.2633

> <Gold.Chemscore.Internal_Hbond>
0.0000

> <Gold.Chemscore.DEClash>
1.6276

> <Gold.Chemscore.DEInternal>
3.1111

> <Gold.Chemscore.Rot>
2.2251

> <Gold.Chemscore.Internal.Correction>
   9.000000E+99

> <Gold.Chemscore.Hbonds>
donor molecule, donor type, donor heavy atom, donor atom, acceptor molecule, acceptor atom, score
      L1  H     3    21       P1  7948  0.85
      L1  H    10    26       P1  7948  0.98
      L1  H    14    32       P1  7957  0.97
      P1  H 10785 10796       L1     7  0.05

> <Gold.Chemscore.Hbond.Weighted>
-9.8158

> <Gold.Chemscore.Metal.Weighted>
-0.0000

> <Gold.Chemscore.Lipo.Weighted>
-7.9868

> <Gold.Chemscore.Internal_Hbond.Weighted>
0.0000

> <Gold.Chemscore.DEClash.Weighted>
1.6276

> <Gold.Chemscore.DEInternal.Weighted>
3.1111

> <Gold.Chemscore.Rot.Weighted>
5.6962

> <Gold.Chemscore.Internal.Correction.Weighted>
   9.000000E+99

> <Gold.Protein.RotatedTorsions>
[ 6907 6896 6895 6894 ] final  144.83 input  -60.11 | X-H torsion
[ 7974 7965 7964 7962 ] final  174.64 input  175.53 | X-H torsion
[ 8008 7997 7996 7995 ] final  -58.00 input   59.86 | X-H torsion
[ 10167 10162 10161 10158 ] final  -10.01 input  -65.29 | X-H torsion
[ 10718 10713 10712 10709 ] final   94.53 input   66.30 | X-H torsion
[ 10763 10752 10751 10750 ] final  138.69 input  -60.55 | X-H torsion
[ 11005 11000 10999 10996 ] final -163.92 input  -57.11 | X-H torsion

> <Gold.Protein.ActiveResidues>
 VAL166  LYS551  ARG553  GLY616  TRP617  ASP618  TYR619  PRO620  LYS621  CYS622 
 ASP623  PHE694  ASN695  SER759  ASP760  ASP761  ALA762  ILE779  LEU786  VAL792 
 PHE793  MET794  SER795  GLU796  ALA797  LYS798  CYS799  TRP800  GLU811  SER814 

> <Gold.Protein.RotatedAtoms>
  152.1887  133.4757  159.4995 H   0  0  0  0  0  0  0  0  0  0  0  0  # atno 6907 bound_to 6896
  150.6947  134.1741  159.4232 H   0  0  0  0  0  0  0  0  0  0  0  0  # atno 6908 bound_to 6896
  151.9655  135.0102  160.0600 H   0  0  0  0  0  0  0  0  0  0  0  0  # atno 6909 bound_to 6896
  144.7217  139.9827  143.6439 H   0  0  0  0  0  0  0  0  0  0  0  0  # atno 7974 bound_to 7965
  154.4290  140.1094  156.5887 H   0  0  0  0  0  0  0  0  0  0  0  0  # atno 8008 bound_to 7997
  155.6035  140.3493  155.4582 H   0  0  0  0  0  0  0  0  0  0  0  0  # atno 8009 bound_to 7997
  156.0155  140.1228  157.0400 H   0  0  0  0  0  0  0  0  0  0  0  0  # atno 8010 bound_to 7997
  140.7103  143.5795  150.9007 H   0  0  0  0  0  0  0  0  0  0  0  0  # atno 10167 bound_to 10162
  157.6947  131.0515  150.4200 H   0  0  0  0  0  0  0  0  0  0  0  0  # atno 10718 bound_to 10713
  153.8938  135.3030  155.3448 H   0  0  0  0  0  0  0  0  0  0  0  0  # atno 10763 bound_to 10752
  154.7704  135.4889  153.9640 H   0  0  0  0  0  0  0  0  0  0  0  0  # atno 10764 bound_to 10752
  153.1283  135.6798  153.9319 H   0  0  0  0  0  0  0  0  0  0  0  0  # atno 10765 bound_to 10752
  140.5927  134.5028  157.5195 H   0  0  0  0  0  0  0  0  0  0  0  0  # atno 11005 bound_to 11000
  146.0474  139.3479  143.0660 LP  0  0  0  0  0  0  0  0  0  0  0  0  # atno 17320 bound_to 7965
  145.8258  140.9656  143.0875 LP  0  0  0  0  0  0  0  0  0  0  0  0  # atno 17321 bound_to 7965
  139.9521  143.6261  152.3026 LP  0  0  0  0  0  0  0  0  0  0  0  0  # atno 17342 bound_to 10162
  139.6783  144.7657  151.1656 LP  0  0  0  0  0  0  0  0  0  0  0  0  # atno 17343 bound_to 10162
  156.4576  130.4025  149.6596 LP  0  0  0  0  0  0  0  0  0  0  0  0  # atno 17370 bound_to 10713
  156.3723  130.7537  151.2521 LP  0  0  0  0  0  0  0  0  0  0  0  0  # atno 17371 bound_to 10713
  139.9267  134.8042  156.1048 LP  0  0  0  0  0  0  0  0  0  0  0  0  # atno 17394 bound_to 11000
  141.0924  133.6709  156.2570 LP  0  0  0  0  0  0  0  0  0  0  0  0  # atno 17395 bound_to 11000

$$$$
