AV-unprocessed.smi:99|AV-procd|sdf|868|dock2
  -GOLD-   2262017323D 1   1.00000     0.00000
 Structure written by MMmdl.
 53 56  0  0  0  0  0  0  0  0  1 V2000
  147.3436  132.1565  159.1709 O   0  0  0  0  0  0  0  0  0  0  0  0
  147.4105  133.3864  159.1176 C   0  0  0  0  0  0  0  0  0  0  0  0
  147.4298  134.0823  157.9641 O   0  0  0  0  0  0  0  0  0  0  0  0
  147.6931  133.4161  156.7408 C   0  0  0  0  0  0  0  0  0  0  0  0
  148.2358  134.4316  155.7197 C   0  0  1  0  0  0  0  0  0  0  0  0
  148.9284  135.4631  156.4196 O   0  0  0  0  0  0  0  0  0  0  0  0
  150.3004  135.1873  156.4862 C   0  0  2  0  0  0  0  0  0  0  0  0
  151.0622  136.3925  155.9845 N   0  0  0  0  0  0  0  0  0  0  0  0
  150.8165  136.9264  154.7262 C   0  0  0  0  0  0  0  0  0  0  0  0
  151.4861  137.9950  154.2337 C   0  0  0  0  0  0  0  0  0  0  0  0
  152.5261  138.6452  155.0242 C   0  0  0  0  0  0  0  0  0  0  0  0
  153.1827  139.6203  154.6661 O   0  0  0  0  0  0  0  0  0  0  0  0
  152.7501  138.0663  156.2767 N   0  0  0  0  0  0  0  0  0  0  0  0
  152.0709  136.9616  156.7928 C   0  0  0  0  0  0  0  0  0  0  0  0
  152.3677  136.5218  157.9028 O   0  0  0  0  0  0  0  0  0  0  0  0
  150.5953  133.9661  155.5997 C   0  0  1  0  0  0  0  0  0  0  0  0
  150.8137  132.8131  156.3915 O   0  0  0  0  0  0  0  0  0  0  0  0
  149.3118  133.8810  154.7832 C   0  0  1  0  0  0  0  0  0  0  0  0
  149.0337  132.5901  154.2507 O   0  0  0  0  0  0  0  0  0  0  0  0
  147.8967  132.3545  153.5621 C   0  0  0  0  0  0  0  0  0  0  0  0
  147.0683  133.2265  153.2928 O   0  0  0  0  0  0  0  0  0  0  0  0
  147.7529  130.9275  153.1538 C   0  0  0  0  0  0  0  0  0  0  0  0
  146.5874  130.5184  152.4648 C   0  0  0  0  0  0  0  0  0  0  0  0
  146.4233  129.1777  152.0655 C   0  0  0  0  0  0  0  0  0  0  0  0
  147.4227  128.2294  152.3513 C   0  0  0  0  0  0  0  0  0  0  0  0
  148.5866  128.6235  153.0365 C   0  0  0  0  0  0  0  0  0  0  0  0
  148.7531  129.9640  153.4358 C   0  0  0  0  0  0  0  0  0  0  0  0
  147.4821  134.2597  160.3247 C   0  0  0  0  0  0  0  0  0  0  0  0
  147.3467  133.6798  161.6078 C   0  0  0  0  0  0  0  0  0  0  0  0
  147.4138  134.4777  162.7665 C   0  0  0  0  0  0  0  0  0  0  0  0
  147.6158  135.8657  162.6563 C   0  0  0  0  0  0  0  0  0  0  0  0
  147.7501  136.4550  161.3857 C   0  0  0  0  0  0  0  0  0  0  0  0
  147.6843  135.6585  160.2256 C   0  0  0  0  0  0  0  0  0  0  0  0
  153.4675  138.4792  156.8549 H   0  0  0  0  0  0  0  0  0  0  0  0
  148.3999  132.6010  156.8995 H   0  0  0  0  0  0  0  0  0  0  0  0
  146.7623  132.9790  156.3769 H   0  0  0  0  0  0  0  0  0  0  0  0
  147.4109  134.8495  155.1419 H   0  0  0  0  0  0  0  0  0  0  0  0
  150.5724  135.0526  157.5349 H   0  0  0  0  0  0  0  0  0  0  0  0
  150.0617  136.4784  154.0970 H   0  0  0  0  0  0  0  0  0  0  0  0
  151.2521  138.3709  153.2480 H   0  0  0  0  0  0  0  0  0  0  0  0
  151.4718  134.1323  154.9715 H   0  0  0  0  0  0  0  0  0  0  0  0
  151.7423  132.7267  156.5450 H   0  0  0  0  0  0  0  0  0  0  0  0
  149.3922  134.5902  153.9576 H   0  0  0  0  0  0  0  0  0  0  0  0
  145.8061  131.2284  152.2343 H   0  0  0  0  0  0  0  0  0  0  0  0
  145.5294  128.8772  151.5391 H   0  0  0  0  0  0  0  0  0  0  0  0
  147.2964  127.2013  152.0450 H   0  0  0  0  0  0  0  0  0  0  0  0
  149.3544  127.8965  153.2565 H   0  0  0  0  0  0  0  0  0  0  0  0
  149.6591  130.2321  153.9596 H   0  0  0  0  0  0  0  0  0  0  0  0
  147.1919  132.6161  161.7175 H   0  0  0  0  0  0  0  0  0  0  0  0
  147.3105  134.0232  163.7409 H   0  0  0  0  0  0  0  0  0  0  0  0
  147.6675  136.4774  163.5450 H   0  0  0  0  0  0  0  0  0  0  0  0
  147.9041  137.5206  161.2999 H   0  0  0  0  0  0  0  0  0  0  0  0
  147.7915  136.1427  159.2659 H   0  0  0  0  0  0  0  0  0  0  0  0
  1  2  2  0  0  0  0
  2  3  1  0  0  0  0
  2 28  1  0  0  0  0
  3  4  1  0  0  0  0
  4  5  1  0  0  0  0
  4 35  1  0  0  0  0
  4 36  1  0  0  0  0
  5 18  1  0  0  0  0
  5  6  1  0  0  0  0
  5 37  1  0  0  0  0
  6  7  1  0  0  0  0
  7  8  1  0  0  0  0
  7 16  1  0  0  0  0
  7 38  1  0  0  0  0
  8 14  1  0  0  0  0
  8  9  1  0  0  0  0
  9 10  2  0  0  0  0
  9 39  1  0  0  0  0
 10 11  1  0  0  0  0
 10 40  1  0  0  0  0
 11 12  2  0  0  0  0
 11 13  1  0  0  0  0
 13 34  1  0  0  0  0
 13 14  1  0  0  0  0
 14 15  2  0  0  0  0
 16 17  1  0  0  0  0
 16 18  1  0  0  0  0
 16 41  1  0  0  0  0
 17 42  1  0  0  0  0
 18 19  1  0  0  0  0
 18 43  1  0  0  0  0
 19 20  1  0  0  0  0
 20 21  2  0  0  0  0
 20 22  1  0  0  0  0
 22 27  1  0  0  0  0
 22 23  2  0  0  0  0
 23 24  1  0  0  0  0
 23 44  1  0  0  0  0
 24 25  2  0  0  0  0
 24 45  1  0  0  0  0
 25 26  1  0  0  0  0
 25 46  1  0  0  0  0
 26 27  2  0  0  0  0
 26 47  1  0  0  0  0
 27 48  1  0  0  0  0
 28 33  1  0  0  0  0
 28 29  2  0  0  0  0
 29 30  1  0  0  0  0
 29 49  1  0  0  0  0
 30 31  2  0  0  0  0
 30 50  1  0  0  0  0
 31 32  1  0  0  0  0
 31 51  1  0  0  0  0
 32 33  2  0  0  0  0
 32 52  1  0  0  0  0
 33 53  1  0  0  0  0
M  END
> <s_m_source_file>
AV-unprocessed.smi

> <i_m_source_file_index>
99

> <i_lp_mmshare_version>
43012

> <i_f3d_flags>
0

> <s_epik_input>
W2NIXTFbY0hdW2NIXVtjSF1bY0hdYzFDKD1PKU9bQ0gyXVtDQEBIXTJPW0NAQEhdKG4zW2NIXVtjSF1jKD1PKVtuSF1jMz1PKVtDQEBIXShbT0hdKVtDQEhdMk9DKD1PKWM0W2NIXVtjSF1bY0hdW2NIXVtjSF00

> <s_epik_cmdline>
J2VwaWtfcHl0aG9uJywgJy1waCcsICc3LjAnLCAnLXRuJywgJzgnLCAnLW1hJywgJzIwMCcsICctbWV0YWxfYmluZGluZycsICctaW1hZScsICc8aW5maWxlLm1hZT4nLCAnLW9tYWUnLCAnPG91dGZpbGUubWFlPic=

> <r_lp_tautomer_probability>
1

> <r_epik_Ionization_Penalty>
0.00454555

> <r_epik_Ionization_Penalty_Charging>
0.0045191

> <r_epik_Ionization_Penalty_Neutral>
2.64449e-05

> <r_epik_State_Penalty>
-0

> <r_epik_Charging_Adjusted_Penalty>
0.0045191

> <i_epik_Tot_Q>
0

> <i_epik_Tot_abs_Q>
0

> <r_epik_Metal_State_Penalty>
1.27877

> <b_epik_Metal_Only>
0

> <s_epik_Chemistry_Notes>
This compound has an ester and may undergo hydrolysis at high or low pH. This compound contains an acetal/aminal-like group ( X-CH(R)-Y where X, Y are N, S, or O) that may be acid/base labile, releasing an aldehyde.

> <s_lp_Force_Field>
OPLS_2005

> <r_lp_Energy>
39.5306

> <b_lp_Chiralities_Consistent>
1

> <s_lp_Variant>
AV-unprocessed.smi:99-4

> <Gold.Version>
5.8.1

> <Gold.Id.Protein>
6NUR|6NUR_protein|mol2

> <Gold.PLP.Fitness>
58.6434

> <Gold.PLP.PLP>
-53.7412

> <Gold.PLP.part.hbond>
-2.4779

> <Gold.PLP.part.metal>
0.0000

> <Gold.PLP.part.buried>
-7.0463

> <Gold.PLP.part.nonpolar>
-44.3974

> <Gold.PLP.part.repulsive>
0.3660

> <Gold.PLP.ligand.clash>
0.0000

> <Gold.PLP.ligand.torsion>
0.8406

> <Gold.PLP.Chemscore.Hbond>
1.1352

> <Gold.PLP.Chemscore.CHOScore>
1.0028

> <Gold.PLP.Chemscore.Metal>
0.0000

> <Gold.Chemscore.Hbonds>
donor molecule, donor type, donor heavy atom, donor atom, acceptor molecule, acceptor atom, score
      P1  H  7989  7998       L1    12  0.13
      P1  H  7997  8010       L1    12  1.00
      L1  C     9    39       P1  7948  1.00
      L1  C     9    39       P1  7949  0.01

> <Gold.PLP.Chemscore.Internal.Correction>
0.1695

> <Gold.Rescore>
     Score         DG    S(hbond)    S(metal)    S(lipo)     H(rot)  DE(clash)    DE(int)     intcor
     13.39     -14.91       1.13        0.00     118.04       3.19       0.09       1.43       ----

> <Gold.Chemscore.Fitness>
13.3886

> <Gold.Chemscore.DG>
-14.9130

> <Gold.Chemscore.ZeroCoef>
-5.4800

> <Gold.Chemscore.Hbond>
1.1344

> <Gold.Chemscore.Metal>
0.0000

> <Gold.Chemscore.Lipo>
118.0447

> <Gold.Chemscore.Internal_Hbond>
0.0000

> <Gold.Chemscore.DEClash>
0.0932

> <Gold.Chemscore.DEInternal>
1.4312

> <Gold.Chemscore.Rot>
3.1903

> <Gold.Chemscore.Internal.Correction>
   9.000000E+99

> <Gold.Chemscore.Hbonds>
donor molecule, donor type, donor heavy atom, donor atom, acceptor molecule, acceptor atom, score
      P1  H  7989  7998       L1    12  0.06
      P1  H  7997  8010       L1    12  0.97

> <Gold.Chemscore.Hbond.Weighted>
-3.7889

> <Gold.Chemscore.Metal.Weighted>
-0.0000

> <Gold.Chemscore.Lipo.Weighted>
-13.8112

> <Gold.Chemscore.Internal_Hbond.Weighted>
0.0000

> <Gold.Chemscore.DEClash.Weighted>
0.0932

> <Gold.Chemscore.DEInternal.Weighted>
1.4312

> <Gold.Chemscore.Rot.Weighted>
8.1671

> <Gold.Chemscore.Internal.Correction.Weighted>
   9.000000E+99

> <Gold.Protein.RotatedTorsions>
[ 6907 6896 6895 6894 ] final  111.61 input  -60.11 | X-H torsion
[ 7974 7965 7964 7962 ] final  -97.64 input  175.53 | X-H torsion
[ 8008 7997 7996 7995 ] final  114.11 input   59.86 | X-H torsion
[ 10167 10162 10161 10158 ] final -103.93 input  -65.29 | X-H torsion
[ 10718 10713 10712 10709 ] final  -25.12 input   66.30 | X-H torsion
[ 10763 10752 10751 10750 ] final -159.48 input  -60.55 | X-H torsion
[ 11005 11000 10999 10996 ] final  -65.28 input  -57.11 | X-H torsion

> <Gold.Protein.ActiveResidues>
 VAL166  LYS551  ARG553  GLY616  TRP617  ASP618  TYR619  PRO620  LYS621  CYS622 
 ASP623  PHE694  ASN695  SER759  ASP760  ASP761  ALA762  ILE779  LEU786  VAL792 
 PHE793  MET794  SER795  GLU796  ALA797  LYS798  CYS799  TRP800  GLU811  SER814 

> <Gold.Protein.RotatedAtoms>
  152.4960  133.8632  159.7260 H   0  0  0  0  0  0  0  0  0  0  0  0  # atno 6907 bound_to 6896
  150.9138  133.6955  159.2855 H   0  0  0  0  0  0  0  0  0  0  0  0  # atno 6908 bound_to 6896
  151.4355  135.1019  159.9707 H   0  0  0  0  0  0  0  0  0  0  0  0  # atno 6909 bound_to 6896
  145.3311  140.9441  143.2661 H   0  0  0  0  0  0  0  0  0  0  0  0  # atno 7974 bound_to 7965
  156.2300  140.2966  156.0165 H   0  0  0  0  0  0  0  0  0  0  0  0  # atno 8008 bound_to 7997
  155.2250  140.0417  157.2971 H   0  0  0  0  0  0  0  0  0  0  0  0  # atno 8009 bound_to 7997
  154.5980  140.2419  155.7838 H   0  0  0  0  0  0  0  0  0  0  0  0  # atno 8010 bound_to 7997
  140.2147  143.3720  152.1020 H   0  0  0  0  0  0  0  0  0  0  0  0  # atno 10167 bound_to 10162
  156.4685  130.4519  149.6884 H   0  0  0  0  0  0  0  0  0  0  0  0  # atno 10718 bound_to 10713
  154.7471  135.3083  154.8624 H   0  0  0  0  0  0  0  0  0  0  0  0  # atno 10763 bound_to 10752
  153.9422  135.6773  153.4748 H   0  0  0  0  0  0  0  0  0  0  0  0  # atno 10764 bound_to 10752
  153.1068  135.4885  154.8891 H   0  0  0  0  0  0  0  0  0  0  0  0  # atno 10765 bound_to 10752
  141.1449  133.6679  156.5961 H   0  0  0  0  0  0  0  0  0  0  0  0  # atno 11005 bound_to 11000
  144.8864  139.4834  143.6699 LP  0  0  0  0  0  0  0  0  0  0  0  0  # atno 17320 bound_to 7965
  146.3045  139.7535  142.9066 LP  0  0  0  0  0  0  0  0  0  0  0  0  # atno 17321 bound_to 7965
  139.5166  144.6980  151.5575 LP  0  0  0  0  0  0  0  0  0  0  0  0  # atno 17342 bound_to 10162
  140.6298  143.9098  150.6595 LP  0  0  0  0  0  0  0  0  0  0  0  0  # atno 17343 bound_to 10162
  156.3642  130.7497  151.2473 LP  0  0  0  0  0  0  0  0  0  0  0  0  # atno 17370 bound_to 10713
  157.7493  131.0341  150.4304 LP  0  0  0  0  0  0  0  0  0  0  0  0  # atno 17371 bound_to 10713
  140.3725  134.7593  157.4608 LP  0  0  0  0  0  0  0  0  0  0  0  0  # atno 17394 bound_to 11000
  140.0700  134.5876  155.8653 LP  0  0  0  0  0  0  0  0  0  0  0  0  # atno 17395 bound_to 11000

$$$$
