AV-unprocessed.smi:82|AV-procd|sdf|799|dock8
  -GOLD-   2262017183D 1   1.00000     0.00000
 Structure written by MMmdl.
 58 61  0  0  0  0  0  0  0  0  1 V2000
  151.8322  143.8820  158.8969 C   0  0  0  0  0  0  0  0  0  0  0  0
  150.5441  143.3577  158.6253 O   0  0  0  0  0  0  0  0  0  0  0  0
  150.5893  142.0238  158.1472 C   0  0  0  0  0  0  0  0  0  0  0  0
  149.2888  141.7338  157.3796 C   0  0  0  0  0  0  0  0  0  0  0  0
  149.2162  140.4173  156.7313 N   0  0  0  0  0  0  0  0  0  0  0  0
  148.5148  139.4547  157.5905 C   0  0  0  0  0  0  0  0  0  0  0  0
  148.4380  138.0506  156.9750 C   0  0  0  0  0  0  0  0  0  0  0  0
  147.7898  138.1207  155.6694 N   0  0  0  0  0  0  0  0  0  0  0  0
  147.3954  136.9595  155.0873 C   0  0  0  0  0  0  0  0  0  0  0  0
  147.6705  135.7696  155.6864 N   0  0  0  0  0  0  0  0  0  0  0  0
  147.2970  134.6219  155.1132 C   0  0  0  0  0  0  0  0  0  0  0  0
  146.6427  134.4369  153.9655 N   0  0  0  0  0  0  0  0  0  0  0  0
  146.3504  135.6262  153.3653 C   0  0  0  0  0  0  0  0  0  0  0  0
  146.6912  136.9208  153.8505 C   0  0  0  0  0  0  0  0  0  0  0  0
  146.2309  137.8913  152.9682 N   0  0  0  0  0  0  0  0  0  0  0  0
  145.6661  137.2096  152.0095 C   0  0  0  0  0  0  0  0  0  0  0  0
  145.6660  135.8440  152.1821 N   0  0  0  0  0  0  0  0  0  0  0  0
  145.1483  134.8659  151.2710 C   0  0  0  0  0  0  0  0  0  0  0  0
  144.2612  133.7199  151.7614 C   0  0  0  0  0  0  0  0  0  0  0  0
  144.8420  132.8074  150.6570 C   0  0  0  0  0  0  0  0  0  0  0  0
  145.1758  131.3642  151.0727 C   0  0  0  0  0  0  0  0  0  0  0  0
  146.1626  130.7901  150.2407 O   0  0  0  0  0  0  0  0  0  0  0  0
  144.0877  132.7889  149.3106 C   0  0  0  0  0  0  0  0  0  0  0  0
  142.8586  132.0972  149.3945 O   0  0  0  0  0  0  0  0  0  0  0  0
  146.0470  133.7746  150.6840 C   0  0  0  0  0  0  0  0  0  0  0  0
  148.4398  139.0716  154.7727 C   0  0  0  0  0  0  0  0  0  0  0  0
  148.5347  140.4724  155.4205 C   0  0  2  0  0  0  0  0  0  0  0  0
  149.1969  141.4176  154.3979 C   0  0  0  0  0  0  0  0  0  0  0  0
  151.7430  144.9093  159.2498 H   0  0  0  0  0  0  0  0  0  0  0  0
  152.4530  143.8873  158.0003 H   0  0  0  0  0  0  0  0  0  0  0  0
  152.3388  143.3032  159.6704 H   0  0  0  0  0  0  0  0  0  0  0  0
  151.4497  141.8944  157.4886 H   0  0  0  0  0  0  0  0  0  0  0  0
  150.7080  141.3445  158.9917 H   0  0  0  0  0  0  0  0  0  0  0  0
  148.4337  141.8702  158.0434 H   0  0  0  0  0  0  0  0  0  0  0  0
  149.2125  142.5139  156.6244 H   0  0  0  0  0  0  0  0  0  0  0  0
  149.0212  139.3636  158.5503 H   0  0  0  0  0  0  0  0  0  0  0  0
  147.5063  139.8131  157.8038 H   0  0  0  0  0  0  0  0  0  0  0  0
  149.4394  137.6313  156.8682 H   0  0  0  0  0  0  0  0  0  0  0  0
  147.8759  137.3918  157.6383 H   0  0  0  0  0  0  0  0  0  0  0  0
  147.5589  133.7232  155.6521 H   0  0  0  0  0  0  0  0  0  0  0  0
  145.2235  137.6898  151.1488 H   0  0  0  0  0  0  0  0  0  0  0  0
  144.6503  135.4268  150.4782 H   0  0  0  0  0  0  0  0  0  0  0  0
  144.5272  133.3847  152.7659 H   0  0  0  0  0  0  0  0  0  0  0  0
  143.1909  133.9145  151.6878 H   0  0  0  0  0  0  0  0  0  0  0  0
  145.5137  131.3172  152.1082 H   0  0  0  0  0  0  0  0  0  0  0  0
  144.2912  130.7295  151.0112 H   0  0  0  0  0  0  0  0  0  0  0  0
  147.0116  130.9584  150.6196 H   0  0  0  0  0  0  0  0  0  0  0  0
  143.8688  133.8006  148.9688 H   0  0  0  0  0  0  0  0  0  0  0  0
  144.6931  132.3317  148.5273 H   0  0  0  0  0  0  0  0  0  0  0  0
  142.1583  132.7305  149.4276 H   0  0  0  0  0  0  0  0  0  0  0  0
  146.4668  134.0143  149.7064 H   0  0  0  0  0  0  0  0  0  0  0  0
  146.8319  133.4685  151.3782 H   0  0  0  0  0  0  0  0  0  0  0  0
  149.4377  138.7013  154.5321 H   0  0  0  0  0  0  0  0  0  0  0  0
  147.9003  139.1450  153.8292 H   0  0  0  0  0  0  0  0  0  0  0  0
  147.5147  140.8279  155.5764 H   0  0  0  0  0  0  0  0  0  0  0  0
  148.7345  141.3168  153.4156 H   0  0  0  0  0  0  0  0  0  0  0  0
  150.2592  141.1987  154.2851 H   0  0  0  0  0  0  0  0  0  0  0  0
  149.0933  142.4659  154.6760 H   0  0  0  0  0  0  0  0  0  0  0  0
  1  2  1  0  0  0  0
  1 29  1  0  0  0  0
  1 30  1  0  0  0  0
  1 31  1  0  0  0  0
  2  3  1  0  0  0  0
  3  4  1  0  0  0  0
  3 32  1  0  0  0  0
  3 33  1  0  0  0  0
  4  5  1  0  0  0  0
  4 34  1  0  0  0  0
  4 35  1  0  0  0  0
  5 27  1  0  0  0  0
  5  6  1  0  0  0  0
  6  7  1  0  0  0  0
  6 36  1  0  0  0  0
  6 37  1  0  0  0  0
  7  8  1  0  0  0  0
  7 38  1  0  0  0  0
  7 39  1  0  0  0  0
  8  9  1  0  0  0  0
  8 26  1  0  0  0  0
  9 14  1  0  0  0  0
  9 10  2  0  0  0  0
 10 11  1  0  0  0  0
 11 12  2  0  0  0  0
 11 40  1  0  0  0  0
 12 13  1  0  0  0  0
 13 17  1  0  0  0  0
 13 14  2  0  0  0  0
 14 15  1  0  0  0  0
 15 16  2  0  0  0  0
 16 17  1  0  0  0  0
 16 41  1  0  0  0  0
 17 18  1  0  0  0  0
 18 25  1  0  0  0  0
 18 19  1  0  0  0  0
 18 42  1  0  0  0  0
 19 20  1  0  0  0  0
 19 43  1  0  0  0  0
 19 44  1  0  0  0  0
 20 21  1  0  0  0  0
 20 23  1  0  0  0  0
 20 25  1  0  0  0  0
 21 22  1  0  0  0  0
 21 45  1  0  0  0  0
 21 46  1  0  0  0  0
 22 47  1  0  0  0  0
 23 24  1  0  0  0  0
 23 48  1  0  0  0  0
 23 49  1  0  0  0  0
 24 50  1  0  0  0  0
 25 51  1  0  0  0  0
 25 52  1  0  0  0  0
 26 27  1  0  0  0  0
 26 53  1  0  0  0  0
 26 54  1  0  0  0  0
 27 28  1  0  0  0  0
 27 55  1  0  0  0  0
 28 56  1  0  0  0  0
 28 57  1  0  0  0  0
 28 58  1  0  0  0  0
M  END
> <s_m_source_file>
AV-unprocessed.smi

> <i_m_source_file_index>
82

> <i_lp_mmshare_version>
43012

> <i_f3d_flags>
0

> <s_epik_input>
W0NIM11PW0NIMl1bQ0gyXU4xW0NIMl1bQ0gyXU4oW0NIMl1bQ0BIXTFbQ0gzXSljKG5bY0hdbjIpYyhjMjMpbltjSF1uM1tDSF0oW0NIMl00KVtDSDJdQzQoW0NIMl1bT0hdKVtDSDJdW09IXQ==

> <s_epik_cmdline>
J2VwaWtfcHl0aG9uJywgJy1waCcsICc3LjAnLCAnLXRuJywgJzgnLCAnLW1hJywgJzIwMCcsICctbWV0YWxfYmluZGluZycsICctaW1hZScsICc8aW5maWxlLm1hZT4nLCAnLW9tYWUnLCAnPG91dGZpbGUubWFlPic=

> <r_lp_tautomer_probability>
1

> <r_epik_Ionization_Penalty>
0.549054

> <r_epik_Ionization_Penalty_Charging>
0

> <r_epik_Ionization_Penalty_Neutral>
0.549054

> <r_epik_State_Penalty>
0.552556

> <r_epik_Charging_Adjusted_Penalty>
0.552556

> <i_epik_Tot_Q>
0

> <i_epik_Tot_abs_Q>
0

> <r_epik_Metal_State_Penalty>
0.545162

> <b_epik_Metal_Only>
0

> <s_lp_Force_Field>
OPLS_2005

> <r_lp_Energy>
68.3354

> <b_lp_Chiralities_Consistent>
1

> <s_lp_Variant>
AV-unprocessed.smi:82-6

> <Gold.Version>
5.8.1

> <Gold.Id.Protein>
6NUR|6NUR_protein|mol2

> <Gold.PLP.Fitness>
44.8020

> <Gold.PLP.PLP>
-35.1451

> <Gold.PLP.part.hbond>
-3.8446

> <Gold.PLP.part.metal>
0.0000

> <Gold.PLP.part.buried>
-0.7934

> <Gold.PLP.part.nonpolar>
-30.0595

> <Gold.PLP.part.repulsive>
0.5509

> <Gold.PLP.ligand.clash>
0.0000

> <Gold.PLP.ligand.torsion>
1.1498

> <Gold.PLP.Chemscore.Hbond>
2.7165

> <Gold.PLP.Chemscore.CHOScore>
1.0000

> <Gold.PLP.Chemscore.Metal>
0.0000

> <Gold.Chemscore.Hbonds>
donor molecule, donor type, donor heavy atom, donor atom, acceptor molecule, acceptor atom, score
      L1  H    22    47       P1 10747  0.85
      L1  H    24    50       P1 10186  0.98
      P1  H 10785 10796       L1    24  0.86
      L1  C    16    41       P1 10171  1.00

> <Gold.PLP.Chemscore.Internal.Correction>
0.8069

> <Gold.Rescore>
     Score         DG    S(hbond)    S(metal)    S(lipo)     H(rot)  DE(clash)    DE(int)     intcor
     12.28     -13.78       2.42        0.00      86.00       3.84       0.33       1.18       ----

> <Gold.Chemscore.Fitness>
12.2777

> <Gold.Chemscore.DG>
-13.7838

> <Gold.Chemscore.ZeroCoef>
-5.4800

> <Gold.Chemscore.Hbond>
2.4195

> <Gold.Chemscore.Metal>
0.0000

> <Gold.Chemscore.Lipo>
85.9965

> <Gold.Chemscore.Internal_Hbond>
0.0000

> <Gold.Chemscore.DEClash>
0.3267

> <Gold.Chemscore.DEInternal>
1.1794

> <Gold.Chemscore.Rot>
3.8434

> <Gold.Chemscore.Internal.Correction>
   9.000000E+99

> <Gold.Chemscore.Hbonds>
donor molecule, donor type, donor heavy atom, donor atom, acceptor molecule, acceptor atom, score
      L1  H    22    47       P1 10747  0.82
      L1  H    24    50       P1 10186  0.92
      P1  H 10785 10796       L1    24  0.55

> <Gold.Chemscore.Hbond.Weighted>
-8.0813

> <Gold.Chemscore.Metal.Weighted>
-0.0000

> <Gold.Chemscore.Lipo.Weighted>
-10.0616

> <Gold.Chemscore.Internal_Hbond.Weighted>
0.0000

> <Gold.Chemscore.DEClash.Weighted>
0.3267

> <Gold.Chemscore.DEInternal.Weighted>
1.1794

> <Gold.Chemscore.Rot.Weighted>
9.8391

> <Gold.Chemscore.Internal.Correction.Weighted>
   9.000000E+99

> <Gold.Protein.RotatedTorsions>
[ 6907 6896 6895 6894 ] final  102.77 input  -60.11 | X-H torsion
[ 7974 7965 7964 7962 ] final  133.51 input  175.53 | X-H torsion
[ 8008 7997 7996 7995 ] final   53.94 input   59.86 | X-H torsion
[ 10167 10162 10161 10158 ] final   -5.48 input  -65.29 | X-H torsion
[ 10718 10713 10712 10709 ] final -130.01 input   66.30 | X-H torsion
[ 10763 10752 10751 10750 ] final -149.24 input  -60.55 | X-H torsion
[ 11005 11000 10999 10996 ] final  -82.49 input  -57.11 | X-H torsion

> <Gold.Protein.ActiveResidues>
 VAL166  LYS551  ARG553  GLY616  TRP617  ASP618  TYR619  PRO620  LYS621  CYS622 
 ASP623  PHE694  ASN695  SER759  ASP760  ASP761  ALA762  ILE779  LEU786  VAL792 
 PHE793  MET794  SER795  GLU796  ALA797  LYS798  CYS799  TRP800  GLU811  SER814 

> <Gold.Protein.RotatedAtoms>
  152.5314  133.9925  159.7857 H   0  0  0  0  0  0  0  0  0  0  0  0  # atno 6907 bound_to 6896
  151.0158  133.5914  159.2684 H   0  0  0  0  0  0  0  0  0  0  0  0  # atno 6908 bound_to 6896
  151.2972  135.0765  159.9279 H   0  0  0  0  0  0  0  0  0  0  0  0  # atno 6909 bound_to 6896
  144.9858  139.4457  143.5363 H   0  0  0  0  0  0  0  0  0  0  0  0  # atno 7974 bound_to 7965
  155.4766  140.3467  155.4333 H   0  0  0  0  0  0  0  0  0  0  0  0  # atno 8008 bound_to 7997
  156.1066  140.1449  156.9424 H   0  0  0  0  0  0  0  0  0  0  0  0  # atno 8009 bound_to 7997
  154.4728  140.0895  156.7167 H   0  0  0  0  0  0  0  0  0  0  0  0  # atno 8010 bound_to 7997
  140.6964  143.6303  150.8529 H   0  0  0  0  0  0  0  0  0  0  0  0  # atno 10167 bound_to 10162
  156.2102  130.6914  151.0641 H   0  0  0  0  0  0  0  0  0  0  0  0  # atno 10718 bound_to 10713
  154.8188  135.3314  154.7098 H   0  0  0  0  0  0  0  0  0  0  0  0  # atno 10763 bound_to 10752
  153.7734  135.6924  153.4906 H   0  0  0  0  0  0  0  0  0  0  0  0  # atno 10764 bound_to 10752
  153.2029  135.4509  155.0236 H   0  0  0  0  0  0  0  0  0  0  0  0  # atno 10765 bound_to 10752
  141.1663  133.7247  156.8579 H   0  0  0  0  0  0  0  0  0  0  0  0  # atno 11005 bound_to 11000
  146.3419  139.9159  142.8773 LP  0  0  0  0  0  0  0  0  0  0  0  0  # atno 17320 bound_to 7965
  145.2355  140.9989  143.3966 LP  0  0  0  0  0  0  0  0  0  0  0  0  # atno 17321 bound_to 7965
  140.0021  143.5732  152.2871 LP  0  0  0  0  0  0  0  0  0  0  0  0  # atno 17342 bound_to 10162
  139.6426  144.7656  151.2308 LP  0  0  0  0  0  0  0  0  0  0  0  0  # atno 17343 bound_to 10162
  157.7034  131.0766  150.6745 LP  0  0  0  0  0  0  0  0  0  0  0  0  # atno 17370 bound_to 10713
  156.6805  130.4565  149.5629 LP  0  0  0  0  0  0  0  0  0  0  0  0  # atno 17371 bound_to 10713
  140.1869  134.8993  157.3015 LP  0  0  0  0  0  0  0  0  0  0  0  0  # atno 17394 bound_to 11000
  140.2332  134.3883  155.7512 LP  0  0  0  0  0  0  0  0  0  0  0  0  # atno 17395 bound_to 11000

$$$$
