AV-unprocessed.smi:2570|AV-procd|sdf|10107|dock6
  -GOLD-   2272014123D 1   1.00000     0.00000
 Structure written by MMmdl.
 32 33  0  0  0  0  0  0  0  0  1 V2000
  145.4608  142.3787  156.0004 C   0  0  0  0  0  0  0  0  0  0  0  0
  145.9760  142.1259  154.6946 O   0  0  0  0  0  0  0  0  0  0  0  0
  147.1928  141.4707  154.6201 C   0  0  0  0  0  0  0  0  0  0  0  0
  147.2641  140.2269  153.8827 C   0  0  0  0  0  0  0  0  0  0  0  0
  148.4434  139.5719  153.8150 C   0  0  0  0  0  0  0  0  0  0  0  0
  149.6476  140.0839  154.4687 C   0  0  0  0  0  0  0  0  0  0  0  0
  150.7306  139.5002  154.4412 O   0  0  0  0  0  0  0  0  0  0  0  0
  149.4575  141.2662  155.1253 N   0  0  0  0  0  0  0  0  0  0  0  0
  150.5523  141.9034  155.8698 C   0  0  0  0  0  0  0  0  0  0  0  0
  151.1508  140.9802  156.9572 C   0  0  1  0  0  0  0  0  0  0  0  0
  152.2546  140.2887  156.4097 O   0  0  0  0  0  0  0  0  0  0  0  0
  151.5075  141.7204  158.2428 C   0  0  0  0  0  0  0  0  0  0  0  0
  151.1629  143.0829  158.3801 C   0  0  0  0  0  0  0  0  0  0  0  0
  151.5135  143.7931  159.5442 C   0  0  0  0  0  0  0  0  0  0  0  0
  152.2118  143.1454  160.5804 C   0  0  0  0  0  0  0  0  0  0  0  0
  152.5518  143.8287  161.6989 F   0  0  0  0  0  0  0  0  0  0  0  0
  152.5587  141.7875  160.4518 C   0  0  0  0  0  0  0  0  0  0  0  0
  152.2101  141.0751  159.2877 C   0  0  0  0  0  0  0  0  0  0  0  0
  152.5668  139.7730  159.1768 F   0  0  0  0  0  0  0  0  0  0  0  0
  148.2535  141.9472  155.1906 N   0  0  0  0  0  0  0  0  0  0  0  0
  144.4981  142.8819  155.9125 H   0  0  0  0  0  0  0  0  0  0  0  0
  146.1178  143.0317  156.5776 H   0  0  0  0  0  0  0  0  0  0  0  0
  145.2953  141.4544  156.5573 H   0  0  0  0  0  0  0  0  0  0  0  0
  146.3807  139.8375  153.3986 H   0  0  0  0  0  0  0  0  0  0  0  0
  148.5004  138.6434  153.2664 H   0  0  0  0  0  0  0  0  0  0  0  0
  151.3345  142.2311  155.1827 H   0  0  0  0  0  0  0  0  0  0  0  0
  150.1810  142.8192  156.3343 H   0  0  0  0  0  0  0  0  0  0  0  0
  150.4109  140.2173  157.2018 H   0  0  0  0  0  0  0  0  0  0  0  0
  151.9374  139.5077  155.9825 H   0  0  0  0  0  0  0  0  0  0  0  0
  150.6355  143.5931  157.5873 H   0  0  0  0  0  0  0  0  0  0  0  0
  151.2493  144.8358  159.6402 H   0  0  0  0  0  0  0  0  0  0  0  0
  153.0977  141.2915  161.2454 H   0  0  0  0  0  0  0  0  0  0  0  0
  1  2  1  0  0  0  0
  1 21  1  0  0  0  0
  1 22  1  0  0  0  0
  1 23  1  0  0  0  0
  2  3  1  0  0  0  0
  3 20  2  0  0  0  0
  3  4  1  0  0  0  0
  4  5  2  0  0  0  0
  4 24  1  0  0  0  0
  5  6  1  0  0  0  0
  5 25  1  0  0  0  0
  6  7  2  0  0  0  0
  6  8  1  0  0  0  0
  8  9  1  0  0  0  0
  8 20  1  0  0  0  0
  9 10  1  0  0  0  0
  9 26  1  0  0  0  0
  9 27  1  0  0  0  0
 10 11  1  0  0  0  0
 10 12  1  0  0  0  0
 10 28  1  0  0  0  0
 11 29  1  0  0  0  0
 12 18  1  0  0  0  0
 12 13  2  0  0  0  0
 13 14  1  0  0  0  0
 13 30  1  0  0  0  0
 14 15  2  0  0  0  0
 14 31  1  0  0  0  0
 15 16  1  0  0  0  0
 15 17  1  0  0  0  0
 17 18  2  0  0  0  0
 17 32  1  0  0  0  0
 18 19  1  0  0  0  0
M  END
> <s_m_source_file>
AV-unprocessed.smi

> <i_m_source_file_index>
2570

> <i_lp_mmshare_version>
43012

> <i_f3d_flags>
0

> <s_epik_input>
W0NIM11PYzFbY0hdW2NIXWMoPU8pbihuMSlbQ0gyXVtDQEhdKFtPSF0pYzJbY0hdW2NIXWMoRilbY0hdYzJG

> <s_epik_cmdline>
J2VwaWtfcHl0aG9uJywgJy1waCcsICc3LjAnLCAnLXRuJywgJzgnLCAnLW1hJywgJzIwMCcsICctbWV0YWxfYmluZGluZycsICctaW1hZScsICc8aW5maWxlLm1hZT4nLCAnLW9tYWUnLCAnPG91dGZpbGUubWFlPic=

> <r_lp_tautomer_probability>
1

> <r_epik_Ionization_Penalty>
6.40224e-06

> <r_epik_Ionization_Penalty_Charging>
4.38647e-06

> <r_epik_Ionization_Penalty_Neutral>
2.01577e-06

> <r_epik_State_Penalty>
-0

> <r_epik_Charging_Adjusted_Penalty>
4.38647e-06

> <i_epik_Tot_Q>
0

> <i_epik_Tot_abs_Q>
0

> <r_epik_Metal_State_Penalty>
-0

> <b_epik_Metal_Only>
0

> <s_lp_Force_Field>
OPLS_2005

> <r_lp_Energy>
26.7666

> <b_lp_Chiralities_Consistent>
1

> <s_lp_Variant>
AV-unprocessed.smi:2570-2

> <Gold.Version>
5.8.1

> <Gold.Id.Protein>
6NUR|6NUR_protein|mol2

> <Gold.PLP.Fitness>
42.2173

> <Gold.PLP.PLP>
-38.0548

> <Gold.PLP.part.hbond>
-2.0000

> <Gold.PLP.part.metal>
0.0000

> <Gold.PLP.part.buried>
-2.3372

> <Gold.PLP.part.nonpolar>
-34.3072

> <Gold.PLP.part.repulsive>
1.8273

> <Gold.PLP.ligand.clash>
0.0000

> <Gold.PLP.ligand.torsion>
0.6476

> <Gold.PLP.Chemscore.Hbond>
1.8100

> <Gold.PLP.Chemscore.CHOScore>
0.0000

> <Gold.PLP.Chemscore.Metal>
0.0000

> <Gold.Chemscore.Hbonds>
donor molecule, donor type, donor heavy atom, donor atom, acceptor molecule, acceptor atom, score
      P1  H  7989  7998       L1     7  0.75
      P1  H  7997  8008       L1    11  0.86

> <Gold.PLP.Chemscore.Internal.Correction>
0.0278

> <Gold.Rescore>
     Score         DG    S(hbond)    S(metal)    S(lipo)     H(rot)  DE(clash)    DE(int)     intcor
      9.52     -12.52       0.98        0.00      85.81       2.45       1.19       1.82       ----

> <Gold.Chemscore.Fitness>
9.5172

> <Gold.Chemscore.DG>
-12.5243

> <Gold.Chemscore.ZeroCoef>
-5.4800

> <Gold.Chemscore.Hbond>
0.9833

> <Gold.Chemscore.Metal>
0.0000

> <Gold.Chemscore.Lipo>
85.8147

> <Gold.Chemscore.Internal_Hbond>
0.0000

> <Gold.Chemscore.DEClash>
1.1894

> <Gold.Chemscore.DEInternal>
1.8176

> <Gold.Chemscore.Rot>
2.4533

> <Gold.Chemscore.Internal.Correction>
   9.000000E+99

> <Gold.Chemscore.Hbonds>
donor molecule, donor type, donor heavy atom, donor atom, acceptor molecule, acceptor atom, score
      P1  H  7989  7998       L1     7  0.09
      P1  H  7997  8008       L1    11  0.40

> <Gold.Chemscore.Hbond.Weighted>
-3.2843

> <Gold.Chemscore.Metal.Weighted>
-0.0000

> <Gold.Chemscore.Lipo.Weighted>
-10.0403

> <Gold.Chemscore.Internal_Hbond.Weighted>
0.0000

> <Gold.Chemscore.DEClash.Weighted>
1.1894

> <Gold.Chemscore.DEInternal.Weighted>
1.8176

> <Gold.Chemscore.Rot.Weighted>
6.2804

> <Gold.Chemscore.Internal.Correction.Weighted>
   9.000000E+99

> <Gold.Protein.RotatedTorsions>
[ 6907 6896 6895 6894 ] final    4.00 input  -60.11 | X-H torsion
[ 7974 7965 7964 7962 ] final  160.08 input  175.53 | X-H torsion
[ 8008 7997 7996 7995 ] final  -39.11 input   59.86 | X-H torsion
[ 10167 10162 10161 10158 ] final   12.58 input  -65.29 | X-H torsion
[ 10718 10713 10712 10709 ] final  174.30 input   66.30 | X-H torsion
[ 10763 10752 10751 10750 ] final  -71.30 input  -60.55 | X-H torsion
[ 11005 11000 10999 10996 ] final  127.58 input  -57.11 | X-H torsion

> <Gold.Protein.ActiveResidues>
 VAL166  LYS551  ARG553  GLY616  TRP617  ASP618  TYR619  PRO620  LYS621  CYS622 
 ASP623  PHE694  ASN695  SER759  ASP760  ASP761  ALA762  ILE779  LEU786  VAL792 
 PHE793  MET794  SER795  GLU796  ALA797  LYS798  CYS799  TRP800  GLU811  SER814 

> <Gold.Protein.RotatedAtoms>
  151.6342  135.1020  160.0127 H   0  0  0  0  0  0  0  0  0  0  0  0  # atno 6907 bound_to 6896
  152.4090  133.6929  159.6389 H   0  0  0  0  0  0  0  0  0  0  0  0  # atno 6908 bound_to 6896
  150.7981  133.8575  159.3263 H   0  0  0  0  0  0  0  0  0  0  0  0  # atno 6909 bound_to 6896
  144.7756  139.7707  143.6280 H   0  0  0  0  0  0  0  0  0  0  0  0  # atno 7974 bound_to 7965
  154.4027  140.1560  156.2810 H   0  0  0  0  0  0  0  0  0  0  0  0  # atno 8008 bound_to 7997
  155.8870  140.3441  155.5906 H   0  0  0  0  0  0  0  0  0  0  0  0  # atno 8009 bound_to 7997
  155.7602  140.0816  157.2149 H   0  0  0  0  0  0  0  0  0  0  0  0  # atno 8010 bound_to 7997
  140.6058  143.8510  150.7012 H   0  0  0  0  0  0  0  0  0  0  0  0  # atno 10167 bound_to 10162
  156.9516  131.0033  151.2947 H   0  0  0  0  0  0  0  0  0  0  0  0  # atno 10718 bound_to 10713
  154.4298  135.5966  153.6061 H   0  0  0  0  0  0  0  0  0  0  0  0  # atno 10763 bound_to 10752
  152.9798  135.5972  154.3853 H   0  0  0  0  0  0  0  0  0  0  0  0  # atno 10764 bound_to 10752
  154.3690  135.2841  155.2256 H   0  0  0  0  0  0  0  0  0  0  0  0  # atno 10765 bound_to 10752
  139.9515  134.9621  156.8876 H   0  0  0  0  0  0  0  0  0  0  0  0  # atno 11005 bound_to 11000
  146.1932  139.5184  142.9791 LP  0  0  0  0  0  0  0  0  0  0  0  0  # atno 17320 bound_to 7965
  145.6197  141.0325  143.1921 LP  0  0  0  0  0  0  0  0  0  0  0  0  # atno 17321 bound_to 7965
  140.2067  143.3916  152.1750 LP  0  0  0  0  0  0  0  0  0  0  0  0  # atno 17342 bound_to 10162
  139.5324  144.7173  151.5009 LP  0  0  0  0  0  0  0  0  0  0  0  0  # atno 17343 bound_to 10162
  157.5718  130.8316  149.8402 LP  0  0  0  0  0  0  0  0  0  0  0  0  # atno 17370 bound_to 10713
  156.0360  130.3751  150.1558 LP  0  0  0  0  0  0  0  0  0  0  0  0  # atno 17371 bound_to 10713
  140.5708  134.0445  155.7430 LP  0  0  0  0  0  0  0  0  0  0  0  0  # atno 17394 bound_to 11000
  141.1179  133.9510  157.2787 LP  0  0  0  0  0  0  0  0  0  0  0  0  # atno 17395 bound_to 11000

$$$$
