AV-unprocessed.smi:234|AV-procd|sdf|1791|dock3
  -GOLD-   2262020353D 1   1.00000     0.00000
 Structure written by MMmdl.
 59 62  0  0  0  0  0  0  0  0  1 V2000
  152.0921  143.6621  161.0852 C   0  0  0  0  0  0  0  0  0  0  0  0
  152.0354  143.8729  159.5664 C   0  0  0  0  0  0  0  0  0  0  0  0
  152.5133  142.7451  158.8469 O   0  0  0  0  0  0  0  0  0  0  0  0
  151.6852  141.5924  158.9264 C   0  0  2  0  0  0  0  0  0  0  0  0
  152.3884  140.3503  158.3794 C   0  0  0  0  0  0  0  0  0  0  0  0
  151.0173  139.9571  157.8166 C   0  0  2  0  0  0  0  0  0  0  0  0
  151.0651  139.2940  156.5111 N   0  0  0  0  0  0  0  0  0  0  0  0
  152.2921  139.4453  155.7393 C   0  0  0  0  0  0  0  0  0  0  0  0
  149.9753  139.4333  155.7208 C   0  0  0  0  0  0  0  0  0  0  0  0
  150.0709  140.3104  154.6903 N   0  0  0  0  0  0  0  0  0  0  0  0
  149.0310  140.5004  153.8731 C   0  0  0  0  0  0  0  0  0  0  0  0
  147.8240  139.9326  153.9115 N   0  0  0  0  0  0  0  0  0  0  0  0
  147.7188  139.0612  154.9556 C   0  0  0  0  0  0  0  0  0  0  0  0
  148.7368  138.7520  155.9017 C   0  0  0  0  0  0  0  0  0  0  0  0
  148.2583  137.8265  156.8224 N   0  0  0  0  0  0  0  0  0  0  0  0
  147.0336  137.5950  156.4370 C   0  0  0  0  0  0  0  0  0  0  0  0
  146.6239  138.3018  155.3295 N   0  0  0  0  0  0  0  0  0  0  0  0
  145.3154  138.2486  154.6965 C   0  0  0  0  0  0  0  0  0  0  0  0
  145.0922  136.9710  153.8528 C   0  0  2  0  0  0  0  0  0  0  0  0
  145.3693  135.8390  154.6616 O   0  0  0  0  0  0  0  0  0  0  0  0
  145.9585  136.8922  152.6042 C   0  0  0  0  0  0  0  0  0  0  0  0
  145.1588  135.9575  151.7053 C   0  0  0  0  0  0  0  0  0  0  0  0
  143.7993  136.2794  151.9670 O   0  0  0  0  0  0  0  0  0  0  0  0
  143.6707  136.8823  153.2540 C   0  0  1  0  0  0  0  0  0  0  0  0
  142.6132  136.1522  154.0976 C   0  0  0  0  0  0  0  0  0  0  0  0
  150.6553  141.4673  157.7719 C   0  0  0  0  0  0  0  0  0  0  0  0
  149.2098  141.8142  158.1305 C   0  0  0  0  0  0  0  0  0  0  0  0
  151.0041  142.2438  156.4894 C   0  0  0  0  0  0  0  0  0  0  0  0
  151.6105  144.4892  161.6068 H   0  0  0  0  0  0  0  0  0  0  0  0
  153.1191  143.6068  161.4440 H   0  0  0  0  0  0  0  0  0  0  0  0
  151.5813  142.7430  161.3729 H   0  0  0  0  0  0  0  0  0  0  0  0
  150.9990  144.0343  159.2697 H   0  0  0  0  0  0  0  0  0  0  0  0
  152.5837  144.7702  159.2761 H   0  0  0  0  0  0  0  0  0  0  0  0
  151.2585  141.4012  159.9144 H   0  0  0  0  0  0  0  0  0  0  0  0
  153.1361  140.5753  157.6167 H   0  0  0  0  0  0  0  0  0  0  0  0
  152.7795  139.6766  159.1419 H   0  0  0  0  0  0  0  0  0  0  0  0
  150.4137  139.4268  158.5555 H   0  0  0  0  0  0  0  0  0  0  0  0
  152.2691  138.8384  154.8334 H   0  0  0  0  0  0  0  0  0  0  0  0
  153.1592  139.1333  156.3188 H   0  0  0  0  0  0  0  0  0  0  0  0
  152.4350  140.4869  155.4498 H   0  0  0  0  0  0  0  0  0  0  0  0
  149.1881  141.2103  153.0744 H   0  0  0  0  0  0  0  0  0  0  0  0
  146.3883  136.9036  156.9588 H   0  0  0  0  0  0  0  0  0  0  0  0
  144.5514  138.3279  155.4711 H   0  0  0  0  0  0  0  0  0  0  0  0
  145.2094  139.1371  154.0727 H   0  0  0  0  0  0  0  0  0  0  0  0
  145.5888  135.1143  154.0964 H   0  0  0  0  0  0  0  0  0  0  0  0
  146.0267  137.8725  152.1308 H   0  0  0  0  0  0  0  0  0  0  0  0
  146.9735  136.5401  152.7933 H   0  0  0  0  0  0  0  0  0  0  0  0
  145.4026  136.0776  150.6498 H   0  0  0  0  0  0  0  0  0  0  0  0
  145.3355  134.9166  151.9793 H   0  0  0  0  0  0  0  0  0  0  0  0
  143.3107  137.8942  153.0627 H   0  0  0  0  0  0  0  0  0  0  0  0
  142.5228  136.6014  155.0867 H   0  0  0  0  0  0  0  0  0  0  0  0
  142.8570  135.0974  154.2258 H   0  0  0  0  0  0  0  0  0  0  0  0
  141.6351  136.2046  153.6192 H   0  0  0  0  0  0  0  0  0  0  0  0
  148.5113  141.4583  157.3737 H   0  0  0  0  0  0  0  0  0  0  0  0
  149.0645  142.8903  158.2235 H   0  0  0  0  0  0  0  0  0  0  0  0
  148.9138  141.3636  159.0781 H   0  0  0  0  0  0  0  0  0  0  0  0
  150.3100  142.0219  155.6791 H   0  0  0  0  0  0  0  0  0  0  0  0
  152.0053  142.0111  156.1263 H   0  0  0  0  0  0  0  0  0  0  0  0
  150.9686  143.3206  156.6565 H   0  0  0  0  0  0  0  0  0  0  0  0
  1  2  1  0  0  0  0
  1 29  1  0  0  0  0
  1 30  1  0  0  0  0
  1 31  1  0  0  0  0
  2  3  1  0  0  0  0
  2 32  1  0  0  0  0
  2 33  1  0  0  0  0
  3  4  1  0  0  0  0
  4 26  1  0  0  0  0
  4  5  1  0  0  0  0
  4 34  1  0  0  0  0
  5  6  1  0  0  0  0
  5 35  1  0  0  0  0
  5 36  1  0  0  0  0
  6  7  1  0  0  0  0
  6 26  1  0  0  0  0
  6 37  1  0  0  0  0
  7  8  1  0  0  0  0
  7  9  1  0  0  0  0
  8 38  1  0  0  0  0
  8 39  1  0  0  0  0
  8 40  1  0  0  0  0
  9 14  1  0  0  0  0
  9 10  2  0  0  0  0
 10 11  1  0  0  0  0
 11 12  2  0  0  0  0
 11 41  1  0  0  0  0
 12 13  1  0  0  0  0
 13 17  1  0  0  0  0
 13 14  2  0  0  0  0
 14 15  1  0  0  0  0
 15 16  2  0  0  0  0
 16 17  1  0  0  0  0
 16 42  1  0  0  0  0
 17 18  1  0  0  0  0
 18 19  1  0  0  0  0
 18 43  1  0  0  0  0
 18 44  1  0  0  0  0
 19 24  1  0  0  0  0
 19 20  1  0  0  0  0
 19 21  1  0  0  0  0
 20 45  1  0  0  0  0
 21 22  1  0  0  0  0
 21 46  1  0  0  0  0
 21 47  1  0  0  0  0
 22 23  1  0  0  0  0
 22 48  1  0  0  0  0
 22 49  1  0  0  0  0
 23 24  1  0  0  0  0
 24 25  1  0  0  0  0
 24 50  1  0  0  0  0
 25 51  1  0  0  0  0
 25 52  1  0  0  0  0
 25 53  1  0  0  0  0
 26 27  1  0  0  0  0
 26 28  1  0  0  0  0
 27 54  1  0  0  0  0
 27 55  1  0  0  0  0
 27 56  1  0  0  0  0
 28 57  1  0  0  0  0
 28 58  1  0  0  0  0
 28 59  1  0  0  0  0
M  END
> <s_m_source_file>
AV-unprocessed.smi

> <i_m_source_file_index>
234

> <i_lp_mmshare_version>
43012

> <i_f3d_flags>
0

> <s_epik_input>
W0NIM11bQ0gyXU9bQ0BASF0oQzEoW0NIM10pW0NIM10pW0NIMl1bQ0BIXTFOKFtDSDNdKWMobltjSF1uMiljKGMyMyluW2NIXW4zW0NIMl1bQ0BAXTQoW09IXSlbQ0gyXVtDSDJdT1tDQEhdNFtDSDNd

> <s_epik_cmdline>
J2VwaWtfcHl0aG9uJywgJy1waCcsICc3LjAnLCAnLXRuJywgJzgnLCAnLW1hJywgJzIwMCcsICctbWV0YWxfYmluZGluZycsICctaW1hZScsICc8aW5maWxlLm1hZT4nLCAnLW9tYWUnLCAnPG91dGZpbGUubWFlPic=

> <r_lp_tautomer_probability>
1

> <r_epik_Ionization_Penalty>
0.00349132

> <r_epik_Ionization_Penalty_Charging>
0

> <r_epik_Ionization_Penalty_Neutral>
0.00349132

> <r_epik_State_Penalty>
0.00242418

> <r_epik_Charging_Adjusted_Penalty>
0.00242418

> <i_epik_Tot_Q>
0

> <i_epik_Tot_abs_Q>
0

> <r_epik_Metal_State_Penalty>
-0

> <b_epik_Metal_Only>
0

> <s_lp_Force_Field>
OPLS_2005

> <r_lp_Energy>
50.4374

> <b_lp_Chiralities_Consistent>
1

> <s_lp_Variant>
AV-unprocessed.smi:234-7

> <Gold.Version>
5.8.1

> <Gold.Id.Protein>
6NUR|6NUR_protein|mol2

> <Gold.PLP.Fitness>
35.6780

> <Gold.PLP.PLP>
-33.3918

> <Gold.PLP.part.hbond>
-1.0000

> <Gold.PLP.part.metal>
0.0000

> <Gold.PLP.part.buried>
-4.4599

> <Gold.PLP.part.nonpolar>
-28.6729

> <Gold.PLP.part.repulsive>
0.6004

> <Gold.PLP.ligand.clash>
0.0000

> <Gold.PLP.ligand.torsion>
1.6687

> <Gold.PLP.Chemscore.Hbond>
0.9920

> <Gold.PLP.Chemscore.CHOScore>
0.5361

> <Gold.PLP.Chemscore.Metal>
0.0000

> <Gold.Chemscore.Hbonds>
donor molecule, donor type, donor heavy atom, donor atom, acceptor molecule, acceptor atom, score
      P1  H  7989  7998       L1    10  0.99
      L1  C    11    41       P1  7957  0.58

> <Gold.PLP.Chemscore.Internal.Correction>
1.0393

> <Gold.Rescore>
     Score         DG    S(hbond)    S(metal)    S(lipo)     H(rot)  DE(clash)    DE(int)     intcor
      6.44     -11.54       0.70        0.00      89.20       2.62       1.49       3.61       ----

> <Gold.Chemscore.Fitness>
6.4435

> <Gold.Chemscore.DG>
-11.5387

> <Gold.Chemscore.ZeroCoef>
-5.4800

> <Gold.Chemscore.Hbond>
0.6988

> <Gold.Chemscore.Metal>
0.0000

> <Gold.Chemscore.Lipo>
89.2024

> <Gold.Chemscore.Internal_Hbond>
0.0000

> <Gold.Chemscore.DEClash>
1.4899

> <Gold.Chemscore.DEInternal>
3.6054

> <Gold.Chemscore.Rot>
2.6219

> <Gold.Chemscore.Internal.Correction>
   9.000000E+99

> <Gold.Chemscore.Hbonds>
donor molecule, donor type, donor heavy atom, donor atom, acceptor molecule, acceptor atom, score
      P1  H  7989  7998       L1    10  0.26

> <Gold.Chemscore.Hbond.Weighted>
-2.3342

> <Gold.Chemscore.Metal.Weighted>
-0.0000

> <Gold.Chemscore.Lipo.Weighted>
-10.4367

> <Gold.Chemscore.Internal_Hbond.Weighted>
0.0000

> <Gold.Chemscore.DEClash.Weighted>
1.4899

> <Gold.Chemscore.DEInternal.Weighted>
3.6054

> <Gold.Chemscore.Rot.Weighted>
6.7121

> <Gold.Chemscore.Internal.Correction.Weighted>
   9.000000E+99

> <Gold.Protein.RotatedTorsions>
[ 6907 6896 6895 6894 ] final   28.32 input  -60.11 | X-H torsion
[ 7974 7965 7964 7962 ] final   50.46 input  175.53 | X-H torsion
[ 8008 7997 7996 7995 ] final  -58.59 input   59.86 | X-H torsion
[ 10167 10162 10161 10158 ] final  -84.89 input  -65.29 | X-H torsion
[ 10718 10713 10712 10709 ] final   21.56 input   66.30 | X-H torsion
[ 10763 10752 10751 10750 ] final -104.58 input  -60.55 | X-H torsion
[ 11005 11000 10999 10996 ] final  -72.72 input  -57.11 | X-H torsion

> <Gold.Protein.ActiveResidues>
 VAL166  LYS551  ARG553  GLY616  TRP617  ASP618  TYR619  PRO620  LYS621  CYS622 
 ASP623  PHE694  ASN695  SER759  ASP760  ASP761  ALA762  ILE779  LEU786  VAL792 
 PHE793  MET794  SER795  GLU796  ALA797  LYS798  CYS799  TRP800  GLU811  SER814 

> <Gold.Protein.RotatedAtoms>
  152.0153  134.9853  160.0568 H   0  0  0  0  0  0  0  0  0  0  0  0  # atno 6907 bound_to 6896
  152.1389  133.4447  159.4765 H   0  0  0  0  0  0  0  0  0  0  0  0  # atno 6908 bound_to 6896
  150.6863  134.2247  159.4454 H   0  0  0  0  0  0  0  0  0  0  0  0  # atno 6909 bound_to 6896
  146.0010  139.4439  143.0015 H   0  0  0  0  0  0  0  0  0  0  0  0  # atno 7974 bound_to 7965
  154.4315  140.1081  156.5981 H   0  0  0  0  0  0  0  0  0  0  0  0  # atno 8008 bound_to 7997
  155.5941  140.3492  155.4556 H   0  0  0  0  0  0  0  0  0  0  0  0  # atno 8009 bound_to 7997
  156.0224  140.1242  157.0333 H   0  0  0  0  0  0  0  0  0  0  0  0  # atno 8010 bound_to 7997
  140.4090  143.2631  151.9043 H   0  0  0  0  0  0  0  0  0  0  0  0  # atno 10167 bound_to 10162
  157.1401  130.6629  149.5978 H   0  0  0  0  0  0  0  0  0  0  0  0  # atno 10718 bound_to 10713
  154.7888  135.4781  154.0006 H   0  0  0  0  0  0  0  0  0  0  0  0  # atno 10763 bound_to 10752
  153.1600  135.6807  153.8764 H   0  0  0  0  0  0  0  0  0  0  0  0  # atno 10764 bound_to 10752
  153.8381  135.3183  155.3402 H   0  0  0  0  0  0  0  0  0  0  0  0  # atno 10765 bound_to 10752
  141.1613  133.6856  156.7103 H   0  0  0  0  0  0  0  0  0  0  0  0  # atno 11005 bound_to 11000
  145.7487  140.9980  143.1262 LP  0  0  0  0  0  0  0  0  0  0  0  0  # atno 17320 bound_to 7965
  144.6919  139.9188  143.7467 LP  0  0  0  0  0  0  0  0  0  0  0  0  # atno 17321 bound_to 7965
  139.4783  144.5557  151.8318 LP  0  0  0  0  0  0  0  0  0  0  0  0  # atno 17342 bound_to 10162
  140.4659  144.1656  150.5911 LP  0  0  0  0  0  0  0  0  0  0  0  0  # atno 17343 bound_to 10162
  155.9790  130.4780  150.6690 LP  0  0  0  0  0  0  0  0  0  0  0  0  # atno 17370 bound_to 10713
  157.4315  131.0850  151.1034 LP  0  0  0  0  0  0  0  0  0  0  0  0  # atno 17371 bound_to 10713
  140.2892  134.8254  157.4002 LP  0  0  0  0  0  0  0  0  0  0  0  0  # atno 17394 bound_to 11000
  140.1362  134.5031  155.8067 LP  0  0  0  0  0  0  0  0  0  0  0  0  # atno 17395 bound_to 11000

$$$$
