AV-unprocessed.smi:48|AV-procd|sdf|447|dock4
  -GOLD-   2262016313D 1   1.00000     0.00000
 Structure written by MMmdl.
 30 32  0  0  0  0  0  0  0  0  1 V2000
  148.9197  137.0269  154.4458 O   0  0  0  0  0  0  0  0  0  0  0  0
  148.8652  138.3321  154.9807 C   0  0  0  0  0  0  0  0  0  0  0  0
  150.2154  139.0386  154.7864 C   0  0  1  0  0  0  0  0  0  0  0  0
  150.1959  140.3017  155.4402 O   0  0  0  0  0  0  0  0  0  0  0  0
  151.5024  140.7059  155.7093 C   0  0  1  0  0  0  0  0  0  0  0  0
  151.5147  141.3442  157.0599 N   0  0  0  0  0  0  0  0  0  0  0  0
  150.7791  142.3950  157.4766 C   0  0  0  0  0  0  0  0  0  0  0  0
  150.9451  142.8004  158.7349 N   0  0  0  0  0  0  0  0  0  0  0  0
  151.8941  141.9009  159.1919 C   0  0  0  0  0  0  0  0  0  0  0  0
  152.5370  141.7371  160.4429 C   0  0  0  0  0  0  0  0  0  0  0  0
  152.1842  142.7856  161.7671 Cl  0  0  0  0  0  0  0  0  0  0  0  0
  153.4391  140.7359  160.5783 N   0  0  0  0  0  0  0  0  0  0  0  0
  153.6938  139.9372  159.5347 C   0  0  0  0  0  0  0  0  0  0  0  0
  153.1717  139.9714  158.3033 N   0  0  0  0  0  0  0  0  0  0  0  0
  152.2627  140.9818  158.1686 C   0  0  0  0  0  0  0  0  0  0  0  0
  152.3997  139.4565  155.6760 C   0  0  2  0  0  0  0  0  0  0  0  0
  153.3257  139.5315  154.6073 O   0  0  0  0  0  0  0  0  0  0  0  0
  151.3805  138.3337  155.4828 C   0  0  2  0  0  0  0  0  0  0  0  0
  151.8810  137.2347  154.7439 O   0  0  0  0  0  0  0  0  0  0  0  0
  150.4462  139.1791  153.7283 H   0  0  0  0  0  0  0  0  0  0  0  0
  151.8149  141.4920  155.0198 H   0  0  0  0  0  0  0  0  0  0  0  0
  152.9518  139.3385  156.6096 H   0  0  0  0  0  0  0  0  0  0  0  0
  151.0570  137.9721  156.4591 H   0  0  0  0  0  0  0  0  0  0  0  0
  148.8615  137.0855  153.5044 H   0  0  0  0  0  0  0  0  0  0  0  0
  148.0520  138.8976  154.5247 H   0  0  0  0  0  0  0  0  0  0  0  0
  148.6397  138.2401  156.0435 H   0  0  0  0  0  0  0  0  0  0  0  0
  150.0829  142.8938  156.8182 H   0  0  0  0  0  0  0  0  0  0  0  0
  154.4222  139.1593  159.7097 H   0  0  0  0  0  0  0  0  0  0  0  0
  153.5169  138.6548  154.3116 H   0  0  0  0  0  0  0  0  0  0  0  0
  151.6564  137.3584  153.8345 H   0  0  0  0  0  0  0  0  0  0  0  0
  1  2  1  0  0  0  0
  1 24  1  0  0  0  0
  2  3  1  0  0  0  0
  2 25  1  0  0  0  0
  2 26  1  0  0  0  0
  3 20  1  0  0  0  0
  3 18  1  0  0  0  0
  3  4  1  0  0  0  0
  4  5  1  0  0  0  0
  5 21  1  0  0  0  0
  5  6  1  0  0  0  0
  5 16  1  0  0  0  0
  6 15  1  0  0  0  0
  6  7  1  0  0  0  0
  7  8  2  0  0  0  0
  7 27  1  0  0  0  0
  8  9  1  0  0  0  0
  9 15  2  0  0  0  0
  9 10  1  0  0  0  0
 10 11  1  0  0  0  0
 10 12  2  0  0  0  0
 12 13  1  0  0  0  0
 13 14  2  0  0  0  0
 13 28  1  0  0  0  0
 14 15  1  0  0  0  0
 16 22  1  0  0  0  0
 16 17  1  0  0  0  0
 16 18  1  0  0  0  0
 17 29  1  0  0  0  0
 18 23  1  0  0  0  0
 18 19  1  0  0  0  0
 19 30  1  0  0  0  0
M  END
> <s_m_source_file>
AV-unprocessed.smi

> <i_m_source_file_index>
48

> <i_lp_mmshare_version>
43012

> <i_f3d_flags>
0

> <s_epik_input>
W09IXVtDSDJdW0NASF0xT1tDQEhdKFtDQEhdKFtPSF0pW0NAQEhdMVtPSF0pbihbY0hdbjIpYyhjMjMpbltjSF1uYzNDbA==

> <s_epik_cmdline>
J2VwaWtfcHl0aG9uJywgJy1waCcsICc3LjAnLCAnLXRuJywgJzgnLCAnLW1hJywgJzIwMCcsICctbWV0YWxfYmluZGluZycsICctaW1hZScsICc8aW5maWxlLm1hZT4nLCAnLW9tYWUnLCAnPG91dGZpbGUubWFlPic=

> <r_lp_tautomer_probability>
1

> <r_epik_Ionization_Penalty>
3.45505e-06

> <r_epik_Ionization_Penalty_Charging>
0

> <r_epik_Ionization_Penalty_Neutral>
3.45505e-06

> <r_epik_State_Penalty>
-0

> <r_epik_Charging_Adjusted_Penalty>
0

> <i_epik_Tot_Q>
0

> <i_epik_Tot_abs_Q>
0

> <r_epik_Metal_State_Penalty>
-0

> <b_epik_Metal_Only>
0

> <s_epik_Chemistry_Notes>
This compound contains an acetal/aminal-like group ( X-CH(R)-Y where X, Y are N, S, or O) that may be acid/base labile, releasing an aldehyde.

> <s_lp_Force_Field>
OPLS_2005

> <r_lp_Energy>
36.5243

> <b_lp_Chiralities_Consistent>
1

> <s_lp_Variant>
AV-unprocessed.smi:48-1

> <Gold.Version>
5.8.1

> <Gold.Id.Protein>
6NUR|6NUR_protein|mol2

> <Gold.PLP.Fitness>
46.4451

> <Gold.PLP.PLP>
-32.1171

> <Gold.PLP.part.hbond>
-5.0000

> <Gold.PLP.part.metal>
0.0000

> <Gold.PLP.part.buried>
-3.0639

> <Gold.PLP.part.nonpolar>
-23.2578

> <Gold.PLP.part.repulsive>
0.0963

> <Gold.PLP.ligand.clash>
0.0000

> <Gold.PLP.ligand.torsion>
0.0328

> <Gold.PLP.Chemscore.Hbond>
3.7953

> <Gold.PLP.Chemscore.CHOScore>
0.9973

> <Gold.PLP.Chemscore.Metal>
0.0000

> <Gold.Chemscore.Hbonds>
donor molecule, donor type, donor heavy atom, donor atom, acceptor molecule, acceptor atom, score
      L1  H     1    24       P1  7948  0.96
      P1  H  7989  7998       L1    17  0.01
      P1  H  7997  8008       L1    14  0.98
      P1  H  7997  8009       L1    17  0.86
      P1  H 10752 10764       L1    19  0.86
      L1  C     7    27       P1  8028  1.00

> <Gold.PLP.Chemscore.Internal.Correction>
0.0159

> <Gold.Rescore>
     Score         DG    S(hbond)    S(metal)    S(lipo)     H(rot)  DE(clash)    DE(int)     intcor
      6.74      -8.41       2.01        0.00      50.89       3.80       0.06       1.62       ----

> <Gold.Chemscore.Fitness>
6.7382

> <Gold.Chemscore.DG>
-8.4126

> <Gold.Chemscore.ZeroCoef>
-5.4800

> <Gold.Chemscore.Hbond>
2.0094

> <Gold.Chemscore.Metal>
0.0000

> <Gold.Chemscore.Lipo>
50.8853

> <Gold.Chemscore.Internal_Hbond>
0.0000

> <Gold.Chemscore.DEClash>
0.0561

> <Gold.Chemscore.DEInternal>
1.6184

> <Gold.Chemscore.Rot>
3.8017

> <Gold.Chemscore.Internal.Correction>
   9.000000E+99

> <Gold.Chemscore.Hbonds>
donor molecule, donor type, donor heavy atom, donor atom, acceptor molecule, acceptor atom, score
      L1  H     1    24       P1  7948  0.92
      P1  H  7997  8008       L1    14  0.35
      P1  H  7997  8009       L1    17  0.22
      P1  H 10752 10764       L1    19  0.29

> <Gold.Chemscore.Hbond.Weighted>
-6.7115

> <Gold.Chemscore.Metal.Weighted>
-0.0000

> <Gold.Chemscore.Lipo.Weighted>
-5.9536

> <Gold.Chemscore.Internal_Hbond.Weighted>
0.0000

> <Gold.Chemscore.DEClash.Weighted>
0.0561

> <Gold.Chemscore.DEInternal.Weighted>
1.6184

> <Gold.Chemscore.Rot.Weighted>
9.7324

> <Gold.Chemscore.Internal.Correction.Weighted>
   9.000000E+99

> <Gold.Protein.RotatedTorsions>
[ 6907 6896 6895 6894 ] final  -99.30 input  -60.11 | X-H torsion
[ 7974 7965 7964 7962 ] final  -47.32 input  175.53 | X-H torsion
[ 8008 7997 7996 7995 ] final  -98.78 input   59.86 | X-H torsion
[ 10167 10162 10161 10158 ] final -138.65 input  -65.29 | X-H torsion
[ 10718 10713 10712 10709 ] final  102.43 input   66.30 | X-H torsion
[ 10763 10752 10751 10750 ] final  -53.85 input  -60.55 | X-H torsion
[ 11005 11000 10999 10996 ] final -104.51 input  -57.11 | X-H torsion

> <Gold.Protein.ActiveResidues>
 VAL166  LYS551  ARG553  GLY616  TRP617  ASP618  TYR619  PRO620  LYS621  CYS622 
 ASP623  PHE694  ASN695  SER759  ASP760  ASP761  ALA762  ILE779  LEU786  VAL792 
 PHE793  MET794  SER795  GLU796  ALA797  LYS798  CYS799  TRP800  GLU811  SER814 

> <Gold.Protein.RotatedAtoms>
  150.7075  134.1061  159.3982 H   0  0  0  0  0  0  0  0  0  0  0  0  # atno 6907 bound_to 6896
  151.9047  135.0361  160.0518 H   0  0  0  0  0  0  0  0  0  0  0  0  # atno 6908 bound_to 6896
  152.2385  133.5080  159.5293 H   0  0  0  0  0  0  0  0  0  0  0  0  # atno 6909 bound_to 6896
  145.9629  140.7461  142.9449 H   0  0  0  0  0  0  0  0  0  0  0  0  # atno 7974 bound_to 7965
  154.8058  140.0452  157.1306 H   0  0  0  0  0  0  0  0  0  0  0  0  # atno 8008 bound_to 7997
  154.9425  140.3054  155.5094 H   0  0  0  0  0  0  0  0  0  0  0  0  # atno 8009 bound_to 7997
  156.2966  140.2303  156.4496 H   0  0  0  0  0  0  0  0  0  0  0  0  # atno 8010 bound_to 7997
  139.8457  143.7263  152.2661 H   0  0  0  0  0  0  0  0  0  0  0  0  # atno 10167 bound_to 10162
  157.6802  131.0752  150.5402 H   0  0  0  0  0  0  0  0  0  0  0  0  # atno 10718 bound_to 10713
  154.1654  135.6468  153.4996 H   0  0  0  0  0  0  0  0  0  0  0  0  # atno 10763 bound_to 10752
  153.0099  135.5370  154.6668 H   0  0  0  0  0  0  0  0  0  0  0  0  # atno 10764 bound_to 10752
  154.5993  135.2942  155.0525 H   0  0  0  0  0  0  0  0  0  0  0  0  # atno 10765 bound_to 10752
  141.1097  133.8730  157.1620 H   0  0  0  0  0  0  0  0  0  0  0  0  # atno 11005 bound_to 11000
  144.6819  140.2620  143.7317 LP  0  0  0  0  0  0  0  0  0  0  0  0  # atno 17320 bound_to 7965
  145.8015  139.1966  143.2045 LP  0  0  0  0  0  0  0  0  0  0  0  0  # atno 17321 bound_to 7965
  139.7514  144.7533  151.0500 LP  0  0  0  0  0  0  0  0  0  0  0  0  # atno 17342 bound_to 10162
  140.7793  143.4855  150.9961 LP  0  0  0  0  0  0  0  0  0  0  0  0  # atno 17343 bound_to 10162
  156.5709  130.4279  149.6020 LP  0  0  0  0  0  0  0  0  0  0  0  0  # atno 17370 bound_to 10713
  156.2741  130.7034  151.1840 LP  0  0  0  0  0  0  0  0  0  0  0  0  # atno 17371 bound_to 10713
  139.9984  135.0037  157.0135 LP  0  0  0  0  0  0  0  0  0  0  0  0  # atno 17394 bound_to 11000
  140.4809  134.1291  155.7217 LP  0  0  0  0  0  0  0  0  0  0  0  0  # atno 17395 bound_to 11000

$$$$
