AV-unprocessed.smi:2038|AV-procd|sdf|8280|dock4
  -GOLD-   2272010543D 1   1.00000     0.00000
 Structure written by MMmdl.
 33 34  0  0  0  0  0  0  0  0  1 V2000
  145.1447  136.1584  154.1428 O   0  0  0  0  0  0  0  0  0  0  0  0
  144.2866  135.2865  154.0030 C   0  0  0  0  0  0  0  0  0  0  0  0
  143.8755  134.4574  154.9801 N   0  0  0  0  0  0  0  0  0  0  0  0
  144.2989  134.4133  156.3357 C   0  0  0  0  0  0  0  0  0  0  0  0
  145.4837  135.0922  156.6840 C   0  0  0  0  0  0  0  0  0  0  0  0
  145.9349  135.0467  158.0166 C   0  0  0  0  0  0  0  0  0  0  0  0
  145.1910  134.3115  158.9605 C   0  0  0  0  0  0  0  0  0  0  0  0
  145.6373  134.2707  160.2651 O   0  0  0  0  0  0  0  0  0  0  0  0
  146.6071  135.2284  160.6822 C   0  0  0  0  0  0  0  0  0  0  0  0
  146.8058  135.1196  162.1985 C   0  0  0  0  0  0  0  0  0  0  0  0
  145.6241  135.2205  162.8061 F   0  0  0  0  0  0  0  0  0  0  0  0
  147.3472  133.9421  162.5091 F   0  0  0  0  0  0  0  0  0  0  0  0
  147.5941  136.1030  162.6318 F   0  0  0  0  0  0  0  0  0  0  0  0
  144.0591  133.6409  158.6326 N   0  0  0  0  0  0  0  0  0  0  0  0
  143.6300  133.6904  157.3533 C   0  0  0  0  0  0  0  0  0  0  0  0
  143.6200  135.0873  152.6367 C   0  0  2  0  0  0  0  0  0  0  0  0
  143.8501  133.6909  152.0290 C   0  0  0  0  0  0  0  0  0  0  0  0
  144.7952  133.9533  150.8732 C   0  0  0  0  0  0  0  0  0  0  0  0
  144.4086  135.3693  150.4721 C   0  0  0  0  0  0  0  0  0  0  0  0
  144.2035  136.0124  151.7204 O   0  0  0  0  0  0  0  0  0  0  0  0
  143.2274  133.7346  154.7023 H   0  0  0  0  0  0  0  0  0  0  0  0
  146.0401  135.6469  155.9425 H   0  0  0  0  0  0  0  0  0  0  0  0
  146.8360  135.5651  158.3093 H   0  0  0  0  0  0  0  0  0  0  0  0
  147.5570  135.0508  160.1749 H   0  0  0  0  0  0  0  0  0  0  0  0
  146.2756  136.2366  160.4273 H   0  0  0  0  0  0  0  0  0  0  0  0
  142.7407  133.1133  157.1530 H   0  0  0  0  0  0  0  0  0  0  0  0
  142.5487  135.2844  152.7060 H   0  0  0  0  0  0  0  0  0  0  0  0
  144.2549  132.9593  152.7300 H   0  0  0  0  0  0  0  0  0  0  0  0
  142.9055  133.2939  151.6551 H   0  0  0  0  0  0  0  0  0  0  0  0
  145.8289  133.9328  151.2213 H   0  0  0  0  0  0  0  0  0  0  0  0
  144.6906  133.2338  150.0609 H   0  0  0  0  0  0  0  0  0  0  0  0
  145.1795  135.8680  149.8842 H   0  0  0  0  0  0  0  0  0  0  0  0
  143.4788  135.3731  149.9013 H   0  0  0  0  0  0  0  0  0  0  0  0
  1  2  2  0  0  0  0
  2  3  1  0  0  0  0
  2 16  1  0  0  0  0
  3  4  1  0  0  0  0
  3 21  1  0  0  0  0
  4 15  1  0  0  0  0
  4  5  2  0  0  0  0
  5  6  1  0  0  0  0
  5 22  1  0  0  0  0
  6  7  2  0  0  0  0
  6 23  1  0  0  0  0
  7  8  1  0  0  0  0
  7 14  1  0  0  0  0
  8  9  1  0  0  0  0
  9 10  1  0  0  0  0
  9 24  1  0  0  0  0
  9 25  1  0  0  0  0
 10 11  1  0  0  0  0
 10 12  1  0  0  0  0
 10 13  1  0  0  0  0
 14 15  2  0  0  0  0
 15 26  1  0  0  0  0
 16 20  1  0  0  0  0
 16 17  1  0  0  0  0
 16 27  1  0  0  0  0
 17 18  1  0  0  0  0
 17 28  1  0  0  0  0
 17 29  1  0  0  0  0
 18 19  1  0  0  0  0
 18 30  1  0  0  0  0
 18 31  1  0  0  0  0
 19 20  1  0  0  0  0
 19 32  1  0  0  0  0
 19 33  1  0  0  0  0
M  END
> <s_m_source_file>
AV-unprocessed.smi

> <i_m_source_file_index>
2038

> <i_lp_mmshare_version>
43012

> <i_f3d_flags>
0

> <s_epik_input>
TzFbQ0gyXVtDSDJdW0NIMl1bQ0BIXTFDKD1PKVtOSF1jMltjSF1bY0hdYyhuW2NIXTIpT1tDSDJdQyhGKShGKUY=

> <s_epik_cmdline>
J2VwaWtfcHl0aG9uJywgJy1waCcsICc3LjAnLCAnLXRuJywgJzgnLCAnLW1hJywgJzIwMCcsICctbWV0YWxfYmluZGluZycsICctaW1hZScsICc8aW5maWxlLm1hZT4nLCAnLW9tYWUnLCAnPG91dGZpbGUubWFlPic=

> <r_lp_tautomer_probability>
1

> <r_epik_Ionization_Penalty>
2.73305e-06

> <r_epik_Ionization_Penalty_Charging>
0

> <r_epik_Ionization_Penalty_Neutral>
2.73305e-06

> <r_epik_State_Penalty>
-0

> <r_epik_Charging_Adjusted_Penalty>
0

> <i_epik_Tot_Q>
0

> <i_epik_Tot_abs_Q>
0

> <r_epik_Metal_State_Penalty>
-0

> <b_epik_Metal_Only>
0

> <s_lp_Force_Field>
OPLS_2005

> <r_lp_Energy>
22.8429

> <b_lp_Chiralities_Consistent>
1

> <s_lp_Variant>
AV-unprocessed.smi:2038-1

> <Gold.Version>
5.8.1

> <Gold.Id.Protein>
6NUR|6NUR_protein|mol2

> <Gold.PLP.Fitness>
33.3611

> <Gold.PLP.PLP>
-27.4876

> <Gold.PLP.part.hbond>
-1.0000

> <Gold.PLP.part.metal>
0.0000

> <Gold.PLP.part.buried>
-4.5877

> <Gold.PLP.part.nonpolar>
-23.0971

> <Gold.PLP.part.repulsive>
0.2438

> <Gold.PLP.ligand.clash>
0.0000

> <Gold.PLP.ligand.torsion>
0.3001

> <Gold.PLP.Chemscore.Hbond>
0.9675

> <Gold.PLP.Chemscore.CHOScore>
1.1835

> <Gold.PLP.Chemscore.Metal>
0.0000

> <Gold.Chemscore.Hbonds>
donor molecule, donor type, donor heavy atom, donor atom, acceptor molecule, acceptor atom, score
      L1  H     3    21       P1 10957  0.94
      L1  C    15    26       P1 10957  0.48
      L1  C    15    26       P1 11000  0.78

> <Gold.PLP.Chemscore.Internal.Correction>
0.0208

> <Gold.Rescore>
     Score         DG    S(hbond)    S(metal)    S(lipo)     H(rot)  DE(clash)    DE(int)     intcor
      7.68      -9.20       1.00        0.00      40.36       1.69       0.00       1.52       ----

> <Gold.Chemscore.Fitness>
7.6772

> <Gold.Chemscore.DG>
-9.1999

> <Gold.Chemscore.ZeroCoef>
-5.4800

> <Gold.Chemscore.Hbond>
0.9968

> <Gold.Chemscore.Metal>
0.0000

> <Gold.Chemscore.Lipo>
40.3580

> <Gold.Chemscore.Internal_Hbond>
0.0000

> <Gold.Chemscore.DEClash>
0.0000

> <Gold.Chemscore.DEInternal>
1.5227

> <Gold.Chemscore.Rot>
1.6919

> <Gold.Chemscore.Internal.Correction>
   9.000000E+99

> <Gold.Chemscore.Hbonds>
donor molecule, donor type, donor heavy atom, donor atom, acceptor molecule, acceptor atom, score
      L1  H     3    21       P1 10957  0.85

> <Gold.Chemscore.Hbond.Weighted>
-3.3293

> <Gold.Chemscore.Metal.Weighted>
-0.0000

> <Gold.Chemscore.Lipo.Weighted>
-4.7219

> <Gold.Chemscore.Internal_Hbond.Weighted>
0.0000

> <Gold.Chemscore.DEClash.Weighted>
0.0000

> <Gold.Chemscore.DEInternal.Weighted>
1.5227

> <Gold.Chemscore.Rot.Weighted>
4.3313

> <Gold.Chemscore.Internal.Correction.Weighted>
   9.000000E+99

> <Gold.Protein.RotatedTorsions>
[ 6907 6896 6895 6894 ] final   95.94 input  -60.11 | X-H torsion
[ 7974 7965 7964 7962 ] final  125.73 input  175.53 | X-H torsion
[ 8008 7997 7996 7995 ] final  -77.28 input   59.86 | X-H torsion
[ 10167 10162 10161 10158 ] final   51.68 input  -65.29 | X-H torsion
[ 10718 10713 10712 10709 ] final  143.86 input   66.30 | X-H torsion
[ 10763 10752 10751 10750 ] final   97.23 input  -60.55 | X-H torsion
[ 11005 11000 10999 10996 ] final   64.01 input  -57.11 | X-H torsion

> <Gold.Protein.ActiveResidues>
 VAL166  LYS551  ARG553  GLY616  TRP617  ASP618  TYR619  PRO620  LYS621  CYS622 
 ASP623  PHE694  ASN695  SER759  ASP760  ASP761  ALA762  ILE779  LEU786  VAL792 
 PHE793  MET794  SER795  GLU796  ALA797  LYS798  CYS799  TRP800  GLU811  SER814 

> <Gold.Protein.RotatedAtoms>
  152.5439  134.0963  159.8298 H   0  0  0  0  0  0  0  0  0  0  0  0  # atno 6907 bound_to 6896
  151.1046  133.5210  159.2615 H   0  0  0  0  0  0  0  0  0  0  0  0  # atno 6908 bound_to 6896
  151.1952  135.0428  159.8903 H   0  0  0  0  0  0  0  0  0  0  0  0  # atno 6909 bound_to 6896
  145.0696  139.3740  143.4964 H   0  0  0  0  0  0  0  0  0  0  0  0  # atno 7974 bound_to 7965
  154.5582  140.0713  156.8777 H   0  0  0  0  0  0  0  0  0  0  0  0  # atno 8008 bound_to 7997
  155.2862  140.3375  155.4237 H   0  0  0  0  0  0  0  0  0  0  0  0  # atno 8009 bound_to 7997
  156.2020  140.1725  156.7865 H   0  0  0  0  0  0  0  0  0  0  0  0  # atno 8010 bound_to 7997
  140.2594  144.3390  150.6323 H   0  0  0  0  0  0  0  0  0  0  0  0  # atno 10167 bound_to 10162
  157.3640  131.0969  151.0889 H   0  0  0  0  0  0  0  0  0  0  0  0  # atno 10718 bound_to 10713
  153.2744  135.4190  155.1019 H   0  0  0  0  0  0  0  0  0  0  0  0  # atno 10763 bound_to 10752
  154.8467  135.3480  154.6199 H   0  0  0  0  0  0  0  0  0  0  0  0  # atno 10764 bound_to 10752
  153.6619  135.7048  153.5232 H   0  0  0  0  0  0  0  0  0  0  0  0  # atno 10765 bound_to 10752
  139.9987  134.6477  155.9967 H   0  0  0  0  0  0  0  0  0  0  0  0  # atno 11005 bound_to 11000
  146.3528  140.0435  142.8641 LP  0  0  0  0  0  0  0  0  0  0  0  0  # atno 17320 bound_to 7965
  145.1308  140.9517  143.4545 LP  0  0  0  0  0  0  0  0  0  0  0  0  # atno 17321 bound_to 7965
  140.5978  143.2167  151.7130 LP  0  0  0  0  0  0  0  0  0  0  0  0  # atno 17342 bound_to 10162
  139.5021  144.3840  152.0347 LP  0  0  0  0  0  0  0  0  0  0  0  0  # atno 17343 bound_to 10162
  157.2018  130.6398  149.5741 LP  0  0  0  0  0  0  0  0  0  0  0  0  # atno 17370 bound_to 10713
  155.9742  130.4688  150.6373 LP  0  0  0  0  0  0  0  0  0  0  0  0  # atno 17371 bound_to 10713
  141.1624  133.6538  156.4365 LP  0  0  0  0  0  0  0  0  0  0  0  0  # atno 17394 bound_to 11000
  140.4769  134.6700  157.5154 LP  0  0  0  0  0  0  0  0  0  0  0  0  # atno 17395 bound_to 11000

$$$$
