AV-unprocessed.smi:701|AV-procd|sdf|3408|dock10
  -GOLD-   22720 0393D 1   1.00000     0.00000
 Structure written by MMmdl.
 49 51  0  0  0  0  0  0  0  0  1 V2000
  151.3213  131.1541  158.5518 C   0  0  0  0  0  0  0  0  0  0  0  0
  151.2750  131.4452  157.0503 C   0  0  0  0  0  0  0  0  0  0  0  0
  149.9204  131.5769  156.6539 O   0  0  0  0  0  0  0  0  0  0  0  0
  149.7438  131.5538  155.2424 C   0  0  2  0  0  0  0  0  0  0  0  0
  150.0249  132.9200  154.6026 C   0  0  0  0  0  0  0  0  0  0  0  0
  148.5497  133.2358  154.8521 C   0  0  1  0  0  0  0  0  0  0  0  0
  147.9415  133.9949  153.7656 N   0  0  0  0  0  0  0  0  0  0  0  0
  146.6402  133.9458  153.4469 C   0  0  0  0  0  0  0  0  0  0  0  0
  145.8269  133.2404  154.0452 O   0  0  0  0  0  0  0  0  0  0  0  0
  146.1997  134.8015  152.2517 C   0  0  0  0  0  0  0  0  0  0  0  0
  145.4729  134.0229  151.2389 N   0  0  0  0  0  0  0  0  0  0  0  0
  146.0716  132.9284  150.6312 C   0  0  0  0  0  0  0  0  0  0  0  0
  145.4527  132.1594  149.7041 C   0  0  0  0  0  0  0  0  0  0  0  0
  144.0857  132.4576  149.2905 C   0  0  0  0  0  0  0  0  0  0  0  0
  143.4414  131.8214  148.4597 O   0  0  0  0  0  0  0  0  0  0  0  0
  143.5177  133.5655  149.9251 N   0  0  0  0  0  0  0  0  0  0  0  0
  144.1492  134.3608  150.8827 C   0  0  0  0  0  0  0  0  0  0  0  0
  143.5544  135.3141  151.3843 O   0  0  0  0  0  0  0  0  0  0  0  0
  148.2564  131.7129  154.8247 C   0  0  0  0  0  0  0  0  0  0  0  0
  147.8901  131.0891  153.4571 C   0  0  0  0  0  0  0  0  0  0  0  0
  147.8330  129.5515  153.4946 C   0  0  0  0  0  0  0  0  0  0  0  0
  146.8478  129.0558  154.5611 C   0  0  0  0  0  0  0  0  0  0  0  0
  147.1412  129.6887  155.9274 C   0  0  0  0  0  0  0  0  0  0  0  0
  147.1957  131.2218  155.8262 C   0  0  0  0  0  0  0  0  0  0  0  0
  142.5715  133.8097  149.6719 H   0  0  0  0  0  0  0  0  0  0  0  0
  152.3497  131.0489  158.8972 H   0  0  0  0  0  0  0  0  0  0  0  0
  150.7923  130.2302  158.7878 H   0  0  0  0  0  0  0  0  0  0  0  0
  150.8580  131.9608  159.1203 H   0  0  0  0  0  0  0  0  0  0  0  0
  151.8286  132.3591  156.8329 H   0  0  0  0  0  0  0  0  0  0  0  0
  151.7492  130.6327  156.4982 H   0  0  0  0  0  0  0  0  0  0  0  0
  150.2518  130.7182  154.7591 H   0  0  0  0  0  0  0  0  0  0  0  0
  150.7210  133.5581  155.1472 H   0  0  0  0  0  0  0  0  0  0  0  0
  150.2898  132.8476  153.5465 H   0  0  0  0  0  0  0  0  0  0  0  0
  148.3998  133.6766  155.8407 H   0  0  0  0  0  0  0  0  0  0  0  0
  148.5477  134.5918  153.2221 H   0  0  0  0  0  0  0  0  0  0  0  0
  145.5895  135.6409  152.5915 H   0  0  0  0  0  0  0  0  0  0  0  0
  147.0912  135.2531  151.8146 H   0  0  0  0  0  0  0  0  0  0  0  0
  147.0823  132.6670  150.9108 H   0  0  0  0  0  0  0  0  0  0  0  0
  145.9711  131.3180  149.2674 H   0  0  0  0  0  0  0  0  0  0  0  0
  146.9221  131.4645  153.1222 H   0  0  0  0  0  0  0  0  0  0  0  0
  148.6021  131.3912  152.6890 H   0  0  0  0  0  0  0  0  0  0  0  0
  147.5429  129.1670  152.5165 H   0  0  0  0  0  0  0  0  0  0  0  0
  148.8251  129.1487  153.6993 H   0  0  0  0  0  0  0  0  0  0  0  0
  145.8310  129.3081  154.2574 H   0  0  0  0  0  0  0  0  0  0  0  0
  146.8884  127.9688  154.6337 H   0  0  0  0  0  0  0  0  0  0  0  0
  146.3776  129.3898  156.6459 H   0  0  0  0  0  0  0  0  0  0  0  0
  148.0908  129.3136  156.3110 H   0  0  0  0  0  0  0  0  0  0  0  0
  147.3783  131.6374  156.8174 H   0  0  0  0  0  0  0  0  0  0  0  0
  146.2126  131.5949  155.5365 H   0  0  0  0  0  0  0  0  0  0  0  0
  1  2  1  0  0  0  0
  1 26  1  0  0  0  0
  1 27  1  0  0  0  0
  1 28  1  0  0  0  0
  2  3  1  0  0  0  0
  2 29  1  0  0  0  0
  2 30  1  0  0  0  0
  3  4  1  0  0  0  0
  4 19  1  0  0  0  0
  4  5  1  0  0  0  0
  4 31  1  0  0  0  0
  5  6  1  0  0  0  0
  5 32  1  0  0  0  0
  5 33  1  0  0  0  0
  6  7  1  0  0  0  0
  6 19  1  0  0  0  0
  6 34  1  0  0  0  0
  7  8  1  0  0  0  0
  7 35  1  0  0  0  0
  8  9  2  0  0  0  0
  8 10  1  0  0  0  0
 10 11  1  0  0  0  0
 10 36  1  0  0  0  0
 10 37  1  0  0  0  0
 11 17  1  0  0  0  0
 11 12  1  0  0  0  0
 12 13  2  0  0  0  0
 12 38  1  0  0  0  0
 13 14  1  0  0  0  0
 13 39  1  0  0  0  0
 14 15  2  0  0  0  0
 14 16  1  0  0  0  0
 16 25  1  0  0  0  0
 16 17  1  0  0  0  0
 17 18  2  0  0  0  0
 19 24  1  0  0  0  0
 19 20  1  0  0  0  0
 20 21  1  0  0  0  0
 20 40  1  0  0  0  0
 20 41  1  0  0  0  0
 21 22  1  0  0  0  0
 21 42  1  0  0  0  0
 21 43  1  0  0  0  0
 22 23  1  0  0  0  0
 22 44  1  0  0  0  0
 22 45  1  0  0  0  0
 23 24  1  0  0  0  0
 23 46  1  0  0  0  0
 23 47  1  0  0  0  0
 24 48  1  0  0  0  0
 24 49  1  0  0  0  0
M  END
> <s_m_source_file>
AV-unprocessed.smi

> <i_m_source_file_index>
701

> <i_lp_mmshare_version>
43012

> <i_f3d_flags>
0

> <s_epik_input>
W0NIMl0xW0NIMl1bQ0gyXVtDSDJdW0NIMl1DMTJbQ0BIXShPW0NIMl1bQ0gzXSlbQ0gyXVtDQEhdMltOSF1DKD1PKVtDSDJdbjNbY0hdW2NIXWMoPU8pW25IXWMzPU8=

> <s_epik_cmdline>
J2VwaWtfcHl0aG9uJywgJy1waCcsICc3LjAnLCAnLXRuJywgJzgnLCAnLW1hJywgJzIwMCcsICctbWV0YWxfYmluZGluZycsICctaW1hZScsICc8aW5maWxlLm1hZT4nLCAnLW9tYWUnLCAnPG91dGZpbGUubWFlPic=

> <r_lp_tautomer_probability>
0.999537

> <r_epik_Ionization_Penalty>
0.00304597

> <r_epik_Ionization_Penalty_Charging>
0.00304595

> <r_epik_Ionization_Penalty_Neutral>
1.88422e-08

> <r_epik_State_Penalty>
0.00214084

> <r_epik_Charging_Adjusted_Penalty>
0.00518679

> <i_epik_Tot_Q>
0

> <i_epik_Tot_abs_Q>
0

> <r_epik_Metal_State_Penalty>
0.361872

> <b_epik_Metal_Only>
0

> <s_lp_Force_Field>
OPLS_2005

> <r_lp_Energy>
27.2214

> <b_lp_Chiralities_Consistent>
1

> <s_lp_Variant>
AV-unprocessed.smi:701-1

> <Gold.Version>
5.8.1

> <Gold.Id.Protein>
6NUR|6NUR_protein|mol2

> <Gold.PLP.Fitness>
40.2739

> <Gold.PLP.PLP>
-30.8913

> <Gold.PLP.part.hbond>
-2.9298

> <Gold.PLP.part.metal>
0.0000

> <Gold.PLP.part.buried>
-4.5026

> <Gold.PLP.part.nonpolar>
-24.8600

> <Gold.PLP.part.repulsive>
0.6633

> <Gold.PLP.ligand.clash>
0.0000

> <Gold.PLP.ligand.torsion>
0.4189

> <Gold.PLP.Chemscore.Hbond>
2.6240

> <Gold.PLP.Chemscore.CHOScore>
0.6691

> <Gold.PLP.Chemscore.Metal>
0.0000

> <Gold.Chemscore.Hbonds>
donor molecule, donor type, donor heavy atom, donor atom, acceptor molecule, acceptor atom, score
      L1  H     7    35       P1  7948  0.75
      L1  H    16    25       P1 10186  1.00
      P1  H 10785 10796       L1    15  0.69
      L1  C    12    38       P1 10747  0.60

> <Gold.PLP.Chemscore.Internal.Correction>
0.3410

> <Gold.Rescore>
     Score         DG    S(hbond)    S(metal)    S(lipo)     H(rot)  DE(clash)    DE(int)     intcor
     13.17     -15.30       2.21        0.00      66.57       2.09       0.35       1.79       ----

> <Gold.Chemscore.Fitness>
13.1660

> <Gold.Chemscore.DG>
-15.3033

> <Gold.Chemscore.ZeroCoef>
-5.4800

> <Gold.Chemscore.Hbond>
2.2137

> <Gold.Chemscore.Metal>
0.0000

> <Gold.Chemscore.Lipo>
66.5674

> <Gold.Chemscore.Internal_Hbond>
0.0000

> <Gold.Chemscore.DEClash>
0.3472

> <Gold.Chemscore.DEInternal>
1.7901

> <Gold.Chemscore.Rot>
2.0933

> <Gold.Chemscore.Internal.Correction>
   9.000000E+99

> <Gold.Chemscore.Hbonds>
donor molecule, donor type, donor heavy atom, donor atom, acceptor molecule, acceptor atom, score
      L1  H     7    35       P1  7948  0.29
      L1  H    16    25       P1 10186  1.00
      P1  H 10785 10796       L1    15  0.66

> <Gold.Chemscore.Hbond.Weighted>
-7.3937

> <Gold.Chemscore.Metal.Weighted>
-0.0000

> <Gold.Chemscore.Lipo.Weighted>
-7.7884

> <Gold.Chemscore.Internal_Hbond.Weighted>
0.0000

> <Gold.Chemscore.DEClash.Weighted>
0.3472

> <Gold.Chemscore.DEInternal.Weighted>
1.7901

> <Gold.Chemscore.Rot.Weighted>
5.3588

> <Gold.Chemscore.Internal.Correction.Weighted>
   9.000000E+99

> <Gold.Protein.RotatedTorsions>
[ 6907 6896 6895 6894 ] final   49.90 input  -60.11 | X-H torsion
[ 7974 7965 7964 7962 ] final   77.15 input  175.53 | X-H torsion
[ 8008 7997 7996 7995 ] final  124.74 input   59.86 | X-H torsion
[ 10167 10162 10161 10158 ] final -106.44 input  -65.29 | X-H torsion
[ 10718 10713 10712 10709 ] final  -18.22 input   66.30 | X-H torsion
[ 10763 10752 10751 10750 ] final  -14.68 input  -60.55 | X-H torsion
[ 11005 11000 10999 10996 ] final  104.53 input  -57.11 | X-H torsion

> <Gold.Protein.ActiveResidues>
 VAL166  LYS551  ARG553  GLY616  TRP617  ASP618  TYR619  PRO620  LYS621  CYS622 
 ASP623  PHE694  ASN695  SER759  ASP760  ASP761  ALA762  ILE779  LEU786  VAL792 
 PHE793  MET794  SER795  GLU796  ALA797  LYS798  CYS799  TRP800  GLU811  SER814 

> <Gold.Protein.RotatedAtoms>
  152.2959  134.7668  160.0367 H   0  0  0  0  0  0  0  0  0  0  0  0  # atno 6907 bound_to 6896
  151.8198  133.3388  159.3589 H   0  0  0  0  0  0  0  0  0  0  0  0  # atno 6908 bound_to 6896
  150.7251  134.5514  159.5841 H   0  0  0  0  0  0  0  0  0  0  0  0  # atno 6909 bound_to 6896
  145.6937  139.2560  143.1745 H   0  0  0  0  0  0  0  0  0  0  0  0  # atno 7974 bound_to 7965
  156.2811  140.2732  156.1837 H   0  0  0  0  0  0  0  0  0  0  0  0  # atno 8008 bound_to 7997
  155.0530  140.0386  157.2568 H   0  0  0  0  0  0  0  0  0  0  0  0  # atno 8009 bound_to 7997
  154.7180  140.2682  155.6573 H   0  0  0  0  0  0  0  0  0  0  0  0  # atno 8010 bound_to 7997
  140.1877  143.3916  152.1231 H   0  0  0  0  0  0  0  0  0  0  0  0  # atno 10167 bound_to 10162
  156.5625  130.4729  149.6400 H   0  0  0  0  0  0  0  0  0  0  0  0  # atno 10718 bound_to 10713
  153.5319  135.7014  153.5679 H   0  0  0  0  0  0  0  0  0  0  0  0  # atno 10763 bound_to 10752
  153.3682  135.3951  155.1769 H   0  0  0  0  0  0  0  0  0  0  0  0  # atno 10764 bound_to 10752
  154.8683  135.3805  154.4817 H   0  0  0  0  0  0  0  0  0  0  0  0  # atno 10765 bound_to 10752
  139.8793  134.9303  156.5375 H   0  0  0  0  0  0  0  0  0  0  0  0  # atno 11005 bound_to 11000
  146.0859  140.7711  142.9619 LP  0  0  0  0  0  0  0  0  0  0  0  0  # atno 17320 bound_to 7965
  144.6989  140.3562  143.7172 LP  0  0  0  0  0  0  0  0  0  0  0  0  # atno 17321 bound_to 7965
  139.5269  144.7113  151.5197 LP  0  0  0  0  0  0  0  0  0  0  0  0  # atno 17342 bound_to 10162
  140.6477  143.8761  150.6753 LP  0  0  0  0  0  0  0  0  0  0  0  0  # atno 17343 bound_to 10162
  156.2786  130.7058  151.1875 LP  0  0  0  0  0  0  0  0  0  0  0  0  # atno 17370 bound_to 10713
  157.7365  131.0561  150.5408 LP  0  0  0  0  0  0  0  0  0  0  0  0  # atno 17371 bound_to 10713
  140.8335  133.8260  155.9006 LP  0  0  0  0  0  0  0  0  0  0  0  0  # atno 17394 bound_to 11000
  140.9306  134.2027  157.4866 LP  0  0  0  0  0  0  0  0  0  0  0  0  # atno 17395 bound_to 11000

$$$$
