AV-unprocessed.smi:3110|AV-procd|sdf|11829|dock8
  -GOLD-   2272017203D 1   1.00000     0.00000
 Structure written by MMmdl.
 34 35  0  0  0  0  0  0  0  0  2 V2000
  152.4388  140.2338  156.9064 O   0  0  0  0  0  0  0  0  0  0  0  0
  151.4683  140.5319  157.6031 C   0  0  0  0  0  0  0  0  0  0  0  0
  151.6660  141.2548  158.9396 C   0  0  0  0  0  0  0  0  0  0  0  0
  152.3874  142.6109  158.7953 C   0  0  1  0  0  0  0  0  0  0  0  0
  151.5832  143.6040  157.9971 C   0  0  0  0  0  0  0  0  0  0  0  0
  151.4561  144.7775  158.6129 C   0  0  0  0  0  0  0  0  0  0  0  0
  152.1479  144.8045  159.9474 C   0  0  0  0  0  0  0  0  0  0  0  0
  152.6396  143.3526  160.1359 C   0  0  0  0  0  0  0  0  0  0  0  0
  150.2027  140.2512  157.2566 N   0  0  0  0  0  0  0  0  0  0  0  0
  149.8091  139.5529  156.0391 C   0  0  0  0  0  0  0  0  0  0  0  0
  149.4370  140.5397  154.9199 C   0  0  0  0  0  0  0  0  0  0  0  0
  148.2160  140.1332  154.2233 N   0  0  0  0  0  0  0  0  0  0  0  0
  147.9730  138.9389  153.5954 C   0  0  0  0  0  0  0  0  0  0  0  0
  146.6994  139.0146  153.0927 C   0  0  0  0  0  0  0  0  0  0  0  0
  146.2193  140.2502  153.4365 N   0  3  0  0  0  0  0  0  0  0  0  0
  147.1436  140.9290  154.1241 C   0  0  0  0  0  0  0  0  0  0  0  0
  150.6827  141.4071  159.3858 H   0  0  0  0  0  0  0  0  0  0  0  0
  152.2206  140.6137  159.6268 H   0  0  0  0  0  0  0  0  0  0  0  0
  153.3319  142.4743  158.2664 H   0  0  0  0  0  0  0  0  0  0  0  0
  151.1802  143.3676  157.0233 H   0  0  0  0  0  0  0  0  0  0  0  0
  150.9350  145.6364  158.2163 H   0  0  0  0  0  0  0  0  0  0  0  0
  152.9778  145.5112  159.9178 H   0  0  0  0  0  0  0  0  0  0  0  0
  151.4586  145.1068  160.7366 H   0  0  0  0  0  0  0  0  0  0  0  0
  152.0762  142.8877  160.9460 H   0  0  0  0  0  0  0  0  0  0  0  0
  153.6920  143.3183  160.4195 H   0  0  0  0  0  0  0  0  0  0  0  0
  149.4636  140.5358  157.8832 H   0  0  0  0  0  0  0  0  0  0  0  0
  150.6423  138.9258  155.7210 H   0  0  0  0  0  0  0  0  0  0  0  0
  148.9769  138.8791  156.2512 H   0  0  0  0  0  0  0  0  0  0  0  0
  149.2797  141.5443  155.3157 H   0  0  0  0  0  0  0  0  0  0  0  0
  150.2385  140.6077  154.1830 H   0  0  0  0  0  0  0  0  0  0  0  0
  148.7047  138.1450  153.5542 H   0  0  0  0  0  0  0  0  0  0  0  0
  146.1138  138.3004  152.5321 H   0  0  0  0  0  0  0  0  0  0  0  0
  147.0432  141.9235  154.5217 H   0  0  0  0  0  0  0  0  0  0  0  0
  145.2987  140.6020  153.2051 H   0  0  0  0  0  0  0  0  0  0  0  0
  1  2  2  0  0  0  0
  2  3  1  0  0  0  0
  2  9  1  0  0  0  0
  3  4  1  0  0  0  0
  3 17  1  0  0  0  0
  3 18  1  0  0  0  0
  4  8  1  0  0  0  0
  4  5  1  0  0  0  0
  4 19  1  0  0  0  0
  5  6  2  0  0  0  0
  5 20  1  0  0  0  0
  6  7  1  0  0  0  0
  6 21  1  0  0  0  0
  7  8  1  0  0  0  0
  7 22  1  0  0  0  0
  7 23  1  0  0  0  0
  8 24  1  0  0  0  0
  8 25  1  0  0  0  0
  9 10  1  0  0  0  0
  9 26  1  0  0  0  0
 10 11  1  0  0  0  0
 10 27  1  0  0  0  0
 10 28  1  0  0  0  0
 11 12  1  0  0  0  0
 11 29  1  0  0  0  0
 11 30  1  0  0  0  0
 12 16  1  0  0  0  0
 12 13  1  0  0  0  0
 13 14  2  0  0  0  0
 13 31  1  0  0  0  0
 14 15  1  0  0  0  0
 14 32  1  0  0  0  0
 15 16  2  0  0  0  0
 15 34  1  0  0  0  0
 16 33  1  0  0  0  0
M  CHG  1  15   1
M  END
> <s_m_source_file>
AV-unprocessed.smi

> <i_m_source_file_index>
3110

> <i_lp_mmshare_version>
43012

> <i_f3d_flags>
0

> <s_epik_input>
W0NIMl0xW0NIMl1bQ0hdPVtDSF1bQ0BIXTFbQ0gyXUMoPU8pW05IXVtDSDJdW0NIMl1uMltjSF1bY0hdbltjSF0y

> <s_epik_cmdline>
J2VwaWtfcHl0aG9uJywgJy1waCcsICc3LjAnLCAnLXRuJywgJzgnLCAnLW1hJywgJzIwMCcsICctbWV0YWxfYmluZGluZycsICctaW1hZScsICc8aW5maWxlLm1hZT4nLCAnLW9tYWUnLCAnPG91dGZpbGUubWFlPic=

> <r_lp_tautomer_probability>
1

> <r_epik_Ionization_Penalty>
0.271094

> <r_epik_Ionization_Penalty_Charging>
0

> <r_epik_Ionization_Penalty_Neutral>
0.271094

> <r_epik_State_Penalty>
0.263241

> <r_epik_Charging_Adjusted_Penalty>
0.263241

> <i_epik_Tot_Q>
1

> <i_epik_Tot_abs_Q>
1

> <r_epik_Metal_State_Penalty>
0.547832

> <b_epik_Metal_Only>
0

> <s_lp_Force_Field>
OPLS_2005

> <r_lp_Energy>
18.3702

> <b_lp_Chiralities_Consistent>
1

> <s_lp_Variant>
AV-unprocessed.smi:3110-2

> <Gold.Version>
5.8.1

> <Gold.Id.Protein>
6NUR|6NUR_protein|mol2

> <Gold.PLP.Fitness>
46.2802

> <Gold.PLP.PLP>
-35.3850

> <Gold.PLP.part.hbond>
-2.0000

> <Gold.PLP.part.metal>
0.0000

> <Gold.PLP.part.buried>
-1.8747

> <Gold.PLP.part.nonpolar>
-31.7476

> <Gold.PLP.part.repulsive>
0.0354

> <Gold.PLP.ligand.clash>
0.0000

> <Gold.PLP.ligand.torsion>
0.5035

> <Gold.PLP.Chemscore.Hbond>
2.9840

> <Gold.PLP.Chemscore.CHOScore>
0.9709

> <Gold.PLP.Chemscore.Metal>
0.0000

> <Gold.Chemscore.Hbonds>
donor molecule, donor type, donor heavy atom, donor atom, acceptor molecule, acceptor atom, score
      L1  H    15    34       P1 10175  2.00
      P1  H  7997  8010       L1     1  1.00
      L1  C    13    31       P1  7948  0.96

> <Gold.PLP.Chemscore.Internal.Correction>
0.0376

> <Gold.Rescore>
     Score         DG    S(hbond)    S(metal)    S(lipo)     H(rot)  DE(clash)    DE(int)     intcor
     16.94     -17.44       1.98        0.00      91.43       2.10       0.03       0.46       ----

> <Gold.Chemscore.Fitness>
16.9434

> <Gold.Chemscore.DG>
-17.4381

> <Gold.Chemscore.ZeroCoef>
-5.4800

> <Gold.Chemscore.Hbond>
1.9842

> <Gold.Chemscore.Metal>
0.0000

> <Gold.Chemscore.Lipo>
91.4295

> <Gold.Chemscore.Internal_Hbond>
0.0000

> <Gold.Chemscore.DEClash>
0.0327

> <Gold.Chemscore.DEInternal>
0.4619

> <Gold.Chemscore.Rot>
2.0963

> <Gold.Chemscore.Internal.Correction>
   9.000000E+99

> <Gold.Chemscore.Hbonds>
donor molecule, donor type, donor heavy atom, donor atom, acceptor molecule, acceptor atom, score
      L1  H    15    34       P1 10175  0.88
      P1  H  7997  8010       L1     1  0.95

> <Gold.Chemscore.Hbond.Weighted>
-6.6273

> <Gold.Chemscore.Metal.Weighted>
-0.0000

> <Gold.Chemscore.Lipo.Weighted>
-10.6973

> <Gold.Chemscore.Internal_Hbond.Weighted>
0.0000

> <Gold.Chemscore.DEClash.Weighted>
0.0327

> <Gold.Chemscore.DEInternal.Weighted>
0.4619

> <Gold.Chemscore.Rot.Weighted>
5.3665

> <Gold.Chemscore.Internal.Correction.Weighted>
   9.000000E+99

> <Gold.Protein.RotatedTorsions>
[ 6907 6896 6895 6894 ] final  104.79 input  -60.11 | X-H torsion
[ 7974 7965 7964 7962 ] final  -27.63 input  175.53 | X-H torsion
[ 8008 7997 7996 7995 ] final   64.32 input   59.86 | X-H torsion
[ 10167 10162 10161 10158 ] final  -14.63 input  -65.29 | X-H torsion
[ 10718 10713 10712 10709 ] final -155.94 input   66.30 | X-H torsion
[ 10763 10752 10751 10750 ] final -101.59 input  -60.55 | X-H torsion
[ 11005 11000 10999 10996 ] final  -62.85 input  -57.11 | X-H torsion

> <Gold.Protein.ActiveResidues>
 VAL166  LYS551  ARG553  GLY616  TRP617  ASP618  TYR619  PRO620  LYS621  CYS622 
 ASP623  PHE694  ASN695  SER759  ASP760  ASP761  ALA762  ILE779  LEU786  VAL792 
 PHE793  MET794  SER795  GLU796  ALA797  LYS798  CYS799  TRP800  GLU811  SER814 

> <Gold.Protein.RotatedAtoms>
  152.5252  133.9624  159.7722 H   0  0  0  0  0  0  0  0  0  0  0  0  # atno 6907 bound_to 6896
  150.9912  133.6140  159.2715 H   0  0  0  0  0  0  0  0  0  0  0  0  # atno 6908 bound_to 6896
  151.3282  135.0841  159.9383 H   0  0  0  0  0  0  0  0  0  0  0  0  # atno 6909 bound_to 6896
  146.1344  140.5177  142.8679 H   0  0  0  0  0  0  0  0  0  0  0  0  # atno 7974 bound_to 7965
  155.6441  140.3497  155.4725 H   0  0  0  0  0  0  0  0  0  0  0  0  # atno 8008 bound_to 7997
  155.9902  140.1192  157.0669 H   0  0  0  0  0  0  0  0  0  0  0  0  # atno 8009 bound_to 7997
  154.4217  140.1121  156.5540 H   0  0  0  0  0  0  0  0  0  0  0  0  # atno 8010 bound_to 7997
  140.7204  143.5302  150.9529 H   0  0  0  0  0  0  0  0  0  0  0  0  # atno 10167 bound_to 10162
  156.5197  130.8472  151.2677 H   0  0  0  0  0  0  0  0  0  0  0  0  # atno 10718 bound_to 10713
  154.7669  135.4892  153.9572 H   0  0  0  0  0  0  0  0  0  0  0  0  # atno 10763 bound_to 10752
  153.1319  135.6754  153.9172 H   0  0  0  0  0  0  0  0  0  0  0  0  # atno 10764 bound_to 10752
  153.8873  135.3125  155.3425 H   0  0  0  0  0  0  0  0  0  0  0  0  # atno 10765 bound_to 10752
  141.1374  133.6645  156.5591 H   0  0  0  0  0  0  0  0  0  0  0  0  # atno 11005 bound_to 11000
  144.7724  140.5667  143.6661 LP  0  0  0  0  0  0  0  0  0  0  0  0  # atno 17320 bound_to 7965
  145.5188  139.1477  143.3564 LP  0  0  0  0  0  0  0  0  0  0  0  0  # atno 17321 bound_to 7965
  139.9021  143.6822  152.3129 LP  0  0  0  0  0  0  0  0  0  0  0  0  # atno 17342 bound_to 10162
  139.7176  144.7609  151.1009 LP  0  0  0  0  0  0  0  0  0  0  0  0  # atno 17343 bound_to 10162
  157.7438  130.9921  150.2626 LP  0  0  0  0  0  0  0  0  0  0  0  0  # atno 17370 bound_to 10713
  156.3161  130.3779  149.7617 LP  0  0  0  0  0  0  0  0  0  0  0  0  # atno 17371 bound_to 10713
  140.4003  134.7363  157.4775 LP  0  0  0  0  0  0  0  0  0  0  0  0  # atno 17394 bound_to 11000
  140.0501  134.6143  155.8872 LP  0  0  0  0  0  0  0  0  0  0  0  0  # atno 17395 bound_to 11000

$$$$
