AV-unprocessed.smi:1464|AV-procd|sdf|5935|dock5
  -GOLD-   22720 6 13D 1   1.00000     0.00000
 Structure written by MMmdl.
 40 41  0  0  0  0  0  0  0  0  2 V2000
  151.6384  145.7591  160.1045 C   0  0  0  0  0  0  0  0  0  0  0  0
  151.8266  144.2335  160.1833 C   0  0  2  0  0  0  0  0  0  0  0  0
  152.3002  143.8387  161.5974 C   0  0  0  0  0  0  0  0  0  0  0  0
  152.4938  142.3232  161.7442 C   0  0  0  0  0  0  0  0  0  0  0  0
  153.4596  141.7835  160.6784 C   0  0  0  0  0  0  0  0  0  0  0  0
  153.0054  142.1503  159.2536 C   0  0  1  0  0  0  0  0  0  0  0  0
  151.7902  141.4043  158.9209 N   0  0  0  0  0  0  0  0  0  0  0  0
  151.6269  140.5676  157.8843 C   0  0  0  0  0  0  0  0  0  0  0  0
  152.5204  140.2972  157.0813 O   0  0  0  0  0  0  0  0  0  0  0  0
  150.2368  139.9330  157.7452 C   0  0  0  0  0  0  0  0  0  0  0  0
  149.4708  140.4832  156.6183 N   0  0  0  0  0  0  0  0  0  0  0  0
  148.1875  141.0653  157.0004 N   0  5  0  0  0  0  0  0  0  0  0  0
  147.3831  141.5858  156.0358 C   0  0  0  0  0  0  0  0  0  0  0  0
  146.2807  142.0717  156.2778 O   0  0  0  0  0  0  0  0  0  0  0  0
  147.8597  141.5657  154.6627 C   0  0  0  0  0  0  0  0  0  0  0  0
  149.0607  141.0455  154.3424 C   0  0  0  0  0  0  0  0  0  0  0  0
  149.9515  140.4688  155.3417 C   0  0  0  0  0  0  0  0  0  0  0  0
  151.0552  140.0023  155.0571 O   0  0  0  0  0  0  0  0  0  0  0  0
  152.8065  143.6847  159.1086 C   0  0  1  0  0  0  0  0  0  0  0  0
  152.4136  144.0826  157.6715 C   0  0  0  0  0  0  0  0  0  0  0  0
  152.5925  146.2812  160.1810 H   0  0  0  0  0  0  0  0  0  0  0  0
  150.9993  146.1168  160.9120 H   0  0  0  0  0  0  0  0  0  0  0  0
  151.1631  146.0595  159.1711 H   0  0  0  0  0  0  0  0  0  0  0  0
  150.8484  143.7792  160.0193 H   0  0  0  0  0  0  0  0  0  0  0  0
  153.2399  144.3447  161.8231 H   0  0  0  0  0  0  0  0  0  0  0  0
  151.5807  144.1831  162.3412 H   0  0  0  0  0  0  0  0  0  0  0  0
  152.8763  142.0940  162.7392 H   0  0  0  0  0  0  0  0  0  0  0  0
  151.5298  141.8198  161.6635 H   0  0  0  0  0  0  0  0  0  0  0  0
  154.4538  142.1960  160.8549 H   0  0  0  0  0  0  0  0  0  0  0  0
  153.5589  140.7016  160.7775 H   0  0  0  0  0  0  0  0  0  0  0  0
  153.8042  141.8433  158.5760 H   0  0  0  0  0  0  0  0  0  0  0  0
  150.9934  141.5566  159.5219 H   0  0  0  0  0  0  0  0  0  0  0  0
  150.3697  138.8557  157.6323 H   0  0  0  0  0  0  0  0  0  0  0  0
  149.6681  140.0632  158.6681 H   0  0  0  0  0  0  0  0  0  0  0  0
  147.2383  141.9803  153.8825 H   0  0  0  0  0  0  0  0  0  0  0  0
  149.3759  141.0535  153.3095 H   0  0  0  0  0  0  0  0  0  0  0  0
  153.7794  144.1423  159.2958 H   0  0  0  0  0  0  0  0  0  0  0  0
  151.3891  143.7926  157.4383 H   0  0  0  0  0  0  0  0  0  0  0  0
  153.0684  143.6060  156.9415 H   0  0  0  0  0  0  0  0  0  0  0  0
  152.4974  145.1575  157.5149 H   0  0  0  0  0  0  0  0  0  0  0  0
  1  2  1  0  0  0  0
  1 21  1  0  0  0  0
  1 22  1  0  0  0  0
  1 23  1  0  0  0  0
  2 19  1  0  0  0  0
  2  3  1  0  0  0  0
  2 24  1  0  0  0  0
  3  4  1  0  0  0  0
  3 25  1  0  0  0  0
  3 26  1  0  0  0  0
  4  5  1  0  0  0  0
  4 27  1  0  0  0  0
  4 28  1  0  0  0  0
  5  6  1  0  0  0  0
  5 29  1  0  0  0  0
  5 30  1  0  0  0  0
  6  7  1  0  0  0  0
  6 19  1  0  0  0  0
  6 31  1  0  0  0  0
  7  8  1  0  0  0  0
  7 32  1  0  0  0  0
  8  9  2  0  0  0  0
  8 10  1  0  0  0  0
 10 33  1  0  0  0  0
 10 34  1  0  0  0  0
 10 11  1  0  0  0  0
 11 12  1  0  0  0  0
 11 17  1  0  0  0  0
 12 13  1  0  0  0  0
 13 14  2  0  0  0  0
 13 15  1  0  0  0  0
 15 35  1  0  0  0  0
 15 16  2  0  0  0  0
 16 36  1  0  0  0  0
 16 17  1  0  0  0  0
 17 18  2  0  0  0  0
 19 20  1  0  0  0  0
 19 37  1  0  0  0  0
 20 38  1  0  0  0  0
 20 39  1  0  0  0  0
 20 40  1  0  0  0  0
M  CHG  1  12  -1
M  END
> <s_m_source_file>
AV-unprocessed.smi

> <i_m_source_file_index>
1464

> <i_lp_mmshare_version>
43012

> <i_f3d_flags>
0

> <s_epik_input>
W0NIM11bQ0BASF0xW0NIMl1bQ0gyXVtDSDJdW0NASF0oW0NASF0xW0NIM10pW05IXUMoPU8pW0NIMl1uMltuSF1jKD1PKVtjSF1bY0hdYzI9Tw==

> <s_epik_cmdline>
J2VwaWtfcHl0aG9uJywgJy1waCcsICc3LjAnLCAnLXRuJywgJzgnLCAnLW1hJywgJzIwMCcsICctbWV0YWxfYmluZGluZycsICctaW1hZScsICc8aW5maWxlLm1hZT4nLCAnLW9tYWUnLCAnPG91dGZpbGUubWFlPic=

> <r_lp_tautomer_probability>
1

> <r_epik_Ionization_Penalty>
0.101366

> <r_epik_Ionization_Penalty_Charging>
0.101366

> <r_epik_Ionization_Penalty_Neutral>
1.90469e-08

> <r_epik_State_Penalty>
0.035861

> <r_epik_Charging_Adjusted_Penalty>
0.137227

> <i_epik_Tot_Q>
-1

> <i_epik_Tot_abs_Q>
1

> <r_epik_Metal_State_Penalty>
0.035861

> <b_epik_Metal_Only>
0

> <s_lp_Force_Field>
OPLS_2005

> <r_lp_Energy>
26.1624

> <b_lp_Chiralities_Consistent>
1

> <s_lp_Variant>
AV-unprocessed.smi:1464-1

> <Gold.Version>
5.8.1

> <Gold.Id.Protein>
6NUR|6NUR_protein|mol2

> <Gold.PLP.Fitness>
50.8765

> <Gold.PLP.PLP>
-45.3717

> <Gold.PLP.part.hbond>
-2.0000

> <Gold.PLP.part.metal>
0.0000

> <Gold.PLP.part.buried>
-3.5462

> <Gold.PLP.part.nonpolar>
-40.5292

> <Gold.PLP.part.repulsive>
0.3446

> <Gold.PLP.ligand.clash>
0.0000

> <Gold.PLP.ligand.torsion>
0.1682

> <Gold.PLP.Chemscore.Hbond>
1.9440

> <Gold.PLP.Chemscore.CHOScore>
0.0000

> <Gold.PLP.Chemscore.Metal>
0.0000

> <Gold.Chemscore.Hbonds>
donor molecule, donor type, donor heavy atom, donor atom, acceptor molecule, acceptor atom, score
      P1  H  7989  7998       L1    18  1.00
      P1  H  7997  8010       L1     9  0.99

> <Gold.PLP.Chemscore.Internal.Correction>
0.0093

> <Gold.Rescore>
     Score         DG    S(hbond)    S(metal)    S(lipo)     H(rot)  DE(clash)    DE(int)     intcor
     18.69     -20.42       1.85        0.00     110.86       1.64       0.01       1.71       ----

> <Gold.Chemscore.Fitness>
18.6904

> <Gold.Chemscore.DG>
-20.4162

> <Gold.Chemscore.ZeroCoef>
-5.4800

> <Gold.Chemscore.Hbond>
1.8483

> <Gold.Chemscore.Metal>
0.0000

> <Gold.Chemscore.Lipo>
110.8622

> <Gold.Chemscore.Internal_Hbond>
0.0000

> <Gold.Chemscore.DEClash>
0.0144

> <Gold.Chemscore.DEInternal>
1.7113

> <Gold.Chemscore.Rot>
1.6438

> <Gold.Chemscore.Internal.Correction>
   9.000000E+99

> <Gold.Chemscore.Hbonds>
donor molecule, donor type, donor heavy atom, donor atom, acceptor molecule, acceptor atom, score
      P1  H  7989  7998       L1    18  0.60
      P1  H  7997  8010       L1     9  0.94

> <Gold.Chemscore.Hbond.Weighted>
-6.1733

> <Gold.Chemscore.Metal.Weighted>
-0.0000

> <Gold.Chemscore.Lipo.Weighted>
-12.9709

> <Gold.Chemscore.Internal_Hbond.Weighted>
0.0000

> <Gold.Chemscore.DEClash.Weighted>
0.0144

> <Gold.Chemscore.DEInternal.Weighted>
1.7113

> <Gold.Chemscore.Rot.Weighted>
4.2080

> <Gold.Chemscore.Internal.Correction.Weighted>
   9.000000E+99

> <Gold.Protein.RotatedTorsions>
[ 6907 6896 6895 6894 ] final  -51.40 input  -60.11 | X-H torsion
[ 7974 7965 7964 7962 ] final  152.26 input  175.53 | X-H torsion
[ 8008 7997 7996 7995 ] final   60.12 input   59.86 | X-H torsion
[ 10167 10162 10161 10158 ] final  -37.31 input  -65.29 | X-H torsion
[ 10718 10713 10712 10709 ] final   37.50 input   66.30 | X-H torsion
[ 10763 10752 10751 10750 ] final   68.06 input  -60.55 | X-H torsion
[ 11005 11000 10999 10996 ] final    2.19 input  -57.11 | X-H torsion

> <Gold.Protein.ActiveResidues>
 VAL166  LYS551  ARG553  GLY616  TRP617  ASP618  TYR619  PRO620  LYS621  CYS622 
 ASP623  PHE694  ASN695  SER759  ASP760  ASP761  ALA762  ILE779  LEU786  VAL792 
 PHE793  MET794  SER795  GLU796  ALA797  LYS798  CYS799  TRP800  GLU811  SER814 

> <Gold.Protein.RotatedAtoms>
  150.8615  134.7967  159.7085 H   0  0  0  0  0  0  0  0  0  0  0  0  # atno 6907 bound_to 6896
  152.4650  134.5093  159.9758 H   0  0  0  0  0  0  0  0  0  0  0  0  # atno 6908 bound_to 6896
  151.5196  133.3431  159.2934 H   0  0  0  0  0  0  0  0  0  0  0  0  # atno 6909 bound_to 6896
  144.8235  139.6645  143.6090 H   0  0  0  0  0  0  0  0  0  0  0  0  # atno 7974 bound_to 7965
  155.5772  140.3491  155.4530 H   0  0  0  0  0  0  0  0  0  0  0  0  # atno 8008 bound_to 7997
  156.0401  140.1294  157.0191 H   0  0  0  0  0  0  0  0  0  0  0  0  # atno 8009 bound_to 7997
  154.4388  140.1026  156.6209 H   0  0  0  0  0  0  0  0  0  0  0  0  # atno 8010 bound_to 7997
  140.7121  143.3350  151.2483 H   0  0  0  0  0  0  0  0  0  0  0  0  # atno 10167 bound_to 10162
  157.3476  130.7581  149.6956 H   0  0  0  0  0  0  0  0  0  0  0  0  # atno 10718 bound_to 10713
  153.0216  135.5261  154.7075 H   0  0  0  0  0  0  0  0  0  0  0  0  # atno 10763 bound_to 10752
  154.6167  135.2884  155.0374 H   0  0  0  0  0  0  0  0  0  0  0  0  # atno 10764 bound_to 10752
  154.1376  135.6583  153.4987 H   0  0  0  0  0  0  0  0  0  0  0  0  # atno 10765 bound_to 10752
  140.6070  133.9783  155.8159 H   0  0  0  0  0  0  0  0  0  0  0  0  # atno 11005 bound_to 11000
  146.2540  139.6262  142.9407 LP  0  0  0  0  0  0  0  0  0  0  0  0  # atno 17320 bound_to 7965
  145.5053  141.0437  143.2518 LP  0  0  0  0  0  0  0  0  0  0  0  0  # atno 17321 bound_to 7965
  139.6843  143.9801  152.2825 LP  0  0  0  0  0  0  0  0  0  0  0  0  # atno 17342 bound_to 10162
  139.9441  144.6662  150.8236 LP  0  0  0  0  0  0  0  0  0  0  0  0  # atno 17343 bound_to 10162
  155.9716  130.4150  150.4158 LP  0  0  0  0  0  0  0  0  0  0  0  0  # atno 17370 bound_to 10713
  157.2216  131.0484  151.2543 LP  0  0  0  0  0  0  0  0  0  0  0  0  # atno 17371 bound_to 10713
  141.0834  134.0028  157.3351 LP  0  0  0  0  0  0  0  0  0  0  0  0  # atno 17394 bound_to 11000
  139.9208  135.0200  156.8056 LP  0  0  0  0  0  0  0  0  0  0  0  0  # atno 17395 bound_to 11000

$$$$
