AV-unprocessed.smi:3068|AV-procd|sdf|11699|dock5
  -GOLD-   2272017103D 1   1.00000     0.00000
 Structure written by MMmdl.
 40 42  0  0  0  0  0  0  0  0  2 V2000
  145.8014  142.8151  157.5337 N   0  0  0  0  0  0  0  0  0  0  0  0
  146.5644  142.2959  156.8355 C   0  0  0  0  0  0  0  0  0  0  0  0
  147.5239  141.6420  155.9548 C   0  0  0  0  0  0  0  0  0  0  0  0
  147.3335  141.7986  154.6244 N   0  0  0  0  0  0  0  0  0  0  0  0
  148.2185  141.2010  153.7984 C   0  0  0  0  0  0  0  0  0  0  0  0
  149.2973  140.4446  154.2960 C   0  0  0  0  0  0  0  0  0  0  0  0
  149.4952  140.2824  155.6217 N   0  0  0  0  0  0  0  0  0  0  0  0
  148.6131  140.8784  156.4625 C   0  0  0  0  0  0  0  0  0  0  0  0
  148.8093  140.7193  157.8458 N   0  0  0  0  0  0  0  0  0  0  0  0
  150.0557  140.1802  158.3710 C   0  0  0  0  0  0  0  0  0  0  0  0
  151.2809  140.8372  157.7050 C   0  0  1  0  0  0  0  0  0  0  0  0
  151.1048  142.3501  157.4759 C   0  0  0  0  0  0  0  0  0  0  0  0
  151.1596  143.1002  158.7530 N   0  3  2  0  0  0  0  0  0  0  0  0
  150.9544  144.5579  158.5554 C   0  0  0  0  0  0  0  0  0  0  0  0
  150.9284  145.3031  159.8993 C   0  0  0  0  0  0  0  0  0  0  0  0
  152.2103  145.0327  160.6965 C   0  0  0  0  0  0  0  0  0  0  0  0
  152.4113  143.5213  160.8668 C   0  0  0  0  0  0  0  0  0  0  0  0
  152.4065  142.7957  159.5060 C   0  0  1  0  0  0  0  0  0  0  0  0
  152.5539  141.2734  159.6915 C   0  0  0  0  0  0  0  0  0  0  0  0
  152.4876  140.6096  158.4338 O   0  0  0  0  0  0  0  0  0  0  0  0
  148.0655  141.3278  152.7369 H   0  0  0  0  0  0  0  0  0  0  0  0
  150.0026  139.9700  153.6300 H   0  0  0  0  0  0  0  0  0  0  0  0
  148.1257  141.0856  158.4936 H   0  0  0  0  0  0  0  0  0  0  0  0
  150.0827  140.3699  159.4448 H   0  0  0  0  0  0  0  0  0  0  0  0
  150.0758  139.0975  158.2466 H   0  0  0  0  0  0  0  0  0  0  0  0
  151.4133  140.3695  156.7285 H   0  0  0  0  0  0  0  0  0  0  0  0
  151.8952  142.7127  156.8169 H   0  0  0  0  0  0  0  0  0  0  0  0
  150.1587  142.5452  156.9694 H   0  0  0  0  0  0  0  0  0  0  0  0
  151.7489  144.9566  157.9222 H   0  0  0  0  0  0  0  0  0  0  0  0
  150.0146  144.7259  158.0281 H   0  0  0  0  0  0  0  0  0  0  0  0
  150.8145  146.3741  159.7294 H   0  0  0  0  0  0  0  0  0  0  0  0
  150.0601  144.9865  160.4790 H   0  0  0  0  0  0  0  0  0  0  0  0
  153.0674  145.4641  160.1776 H   0  0  0  0  0  0  0  0  0  0  0  0
  152.1578  145.5186  161.6714 H   0  0  0  0  0  0  0  0  0  0  0  0
  153.3502  143.3326  161.3884 H   0  0  0  0  0  0  0  0  0  0  0  0
  151.6197  143.1208  161.5021 H   0  0  0  0  0  0  0  0  0  0  0  0
  153.2527  143.1532  158.9161 H   0  0  0  0  0  0  0  0  0  0  0  0
  153.5182  141.0456  160.1464 H   0  0  0  0  0  0  0  0  0  0  0  0
  151.7968  140.8819  160.3713 H   0  0  0  0  0  0  0  0  0  0  0  0
  150.3901  142.7714  159.3187 H   0  0  0  0  0  0  0  0  0  0  0  0
  1  2  3  0  0  0  0
  2  3  1  0  0  0  0
  3  8  1  0  0  0  0
  3  4  2  0  0  0  0
  4  5  1  0  0  0  0
  5  6  2  0  0  0  0
  5 21  1  0  0  0  0
  6  7  1  0  0  0  0
  6 22  1  0  0  0  0
  7  8  2  0  0  0  0
  8  9  1  0  0  0  0
  9 10  1  0  0  0  0
  9 23  1  0  0  0  0
 10 11  1  0  0  0  0
 10 24  1  0  0  0  0
 10 25  1  0  0  0  0
 11 20  1  0  0  0  0
 11 12  1  0  0  0  0
 11 26  1  0  0  0  0
 12 13  1  0  0  0  0
 12 27  1  0  0  0  0
 12 28  1  0  0  0  0
 13 18  1  0  0  0  0
 13 14  1  0  0  0  0
 13 40  1  0  0  0  0
 14 15  1  0  0  0  0
 14 29  1  0  0  0  0
 14 30  1  0  0  0  0
 15 16  1  0  0  0  0
 15 31  1  0  0  0  0
 15 32  1  0  0  0  0
 16 17  1  0  0  0  0
 16 33  1  0  0  0  0
 16 34  1  0  0  0  0
 17 18  1  0  0  0  0
 17 35  1  0  0  0  0
 17 36  1  0  0  0  0
 18 19  1  0  0  0  0
 18 37  1  0  0  0  0
 19 20  1  0  0  0  0
 19 38  1  0  0  0  0
 19 39  1  0  0  0  0
M  CHG  1  13   1
M  END
> <s_m_source_file>
AV-unprocessed.smi

> <i_m_source_file_index>
3068

> <i_lp_mmshare_version>
43012

> <i_f3d_flags>
0

> <s_epik_input>
TiNDYzFuW2NIXVtjSF1uYzFbTkhdW0NIMl1bQ0BIXShbQ0gyXTIpT1tDSDJdW0NAQEhdKE4yMylbQ0gyXVtDSDJdW0NIMl1bQ0gyXTM=

> <s_epik_cmdline>
J2VwaWtfcHl0aG9uJywgJy1waCcsICc3LjAnLCAnLXRuJywgJzgnLCAnLW1hJywgJzIwMCcsICctbWV0YWxfYmluZGluZycsICctaW1hZScsICc8aW5maWxlLm1hZT4nLCAnLW9tYWUnLCAnPG91dGZpbGUubWFlPic=

> <r_epik_Ionization_Penalty>
0.0804321

> <r_epik_Ionization_Penalty_Charging>
0.0803403

> <r_epik_Ionization_Penalty_Neutral>
9.17277e-05

> <r_epik_State_Penalty>
0.0711481

> <r_epik_Charging_Adjusted_Penalty>
0.151488

> <i_epik_Tot_Q>
1

> <i_epik_Tot_abs_Q>
1

> <r_epik_Metal_State_Penalty>
0.0711481

> <b_epik_Metal_Only>
0

> <s_lp_Force_Field>
OPLS_2005

> <r_lp_Energy>
40.024

> <b_lp_Chiralities_Consistent>
1

> <s_lp_Variant>
AV-unprocessed.smi:3068-2

> <Gold.Version>
5.8.1

> <Gold.Id.Protein>
6NUR|6NUR_protein|mol2

> <Gold.PLP.Fitness>
38.0724

> <Gold.PLP.PLP>
-33.9310

> <Gold.PLP.part.hbond>
0.0000

> <Gold.PLP.part.metal>
0.0000

> <Gold.PLP.part.buried>
-5.1226

> <Gold.PLP.part.nonpolar>
-29.8042

> <Gold.PLP.part.repulsive>
0.5245

> <Gold.PLP.ligand.clash>
0.0000

> <Gold.PLP.ligand.torsion>
0.2756

> <Gold.PLP.Chemscore.Hbond>
0.0000

> <Gold.PLP.Chemscore.CHOScore>
1.5621

> <Gold.PLP.Chemscore.Metal>
0.0000

> <Gold.Chemscore.Hbonds>
donor molecule, donor type, donor heavy atom, donor atom, acceptor molecule, acceptor atom, score
      L1  C     5    21       P1  7957  0.76
      L1  C     6    22       P1  7957  0.80

> <Gold.PLP.Chemscore.Internal.Correction>
0.0063

> <Gold.Rescore>
     Score         DG    S(hbond)    S(metal)    S(lipo)     H(rot)  DE(clash)    DE(int)     intcor
     11.99     -13.55       0.00        0.00      97.81       1.32       0.02       1.53       ----

> <Gold.Chemscore.Fitness>
11.9926

> <Gold.Chemscore.DG>
-13.5460

> <Gold.Chemscore.ZeroCoef>
-5.4800

> <Gold.Chemscore.Hbond>
0.0000

> <Gold.Chemscore.Metal>
0.0000

> <Gold.Chemscore.Lipo>
97.8070

> <Gold.Chemscore.Internal_Hbond>
0.0000

> <Gold.Chemscore.DEClash>
0.0234

> <Gold.Chemscore.DEInternal>
1.5300

> <Gold.Chemscore.Rot>
1.3193

> <Gold.Chemscore.Internal.Correction>
   9.000000E+99

> <Gold.Chemscore.Hbond.Weighted>
-0.0000

> <Gold.Chemscore.Metal.Weighted>
-0.0000

> <Gold.Chemscore.Lipo.Weighted>
-11.4434

> <Gold.Chemscore.Internal_Hbond.Weighted>
0.0000

> <Gold.Chemscore.DEClash.Weighted>
0.0234

> <Gold.Chemscore.DEInternal.Weighted>
1.5300

> <Gold.Chemscore.Rot.Weighted>
3.3774

> <Gold.Chemscore.Internal.Correction.Weighted>
   9.000000E+99

> <Gold.Protein.RotatedTorsions>
[ 6907 6896 6895 6894 ] final  -89.30 input  -60.11 | X-H torsion
[ 7974 7965 7964 7962 ] final   41.77 input  175.53 | X-H torsion
[ 8008 7997 7996 7995 ] final -138.17 input   59.86 | X-H torsion
[ 10167 10162 10161 10158 ] final   50.42 input  -65.29 | X-H torsion
[ 10718 10713 10712 10709 ] final   61.06 input   66.30 | X-H torsion
[ 10763 10752 10751 10750 ] final   67.71 input  -60.55 | X-H torsion
[ 11005 11000 10999 10996 ] final  -47.35 input  -57.11 | X-H torsion

> <Gold.Protein.ActiveResidues>
 VAL166  LYS551  ARG553  GLY616  TRP617  ASP618  TYR619  PRO620  LYS621  CYS622 
 ASP623  PHE694  ASN695  SER759  ASP760  ASP761  ALA762  ILE779  LEU786  VAL792 
 PHE793  MET794  SER795  GLU796  ALA797  LYS798  CYS799  TRP800  GLU811  SER814 

> <Gold.Protein.RotatedAtoms>
  150.6873  134.2608  159.4548 H   0  0  0  0  0  0  0  0  0  0  0  0  # atno 6907 bound_to 6896
  152.0538  134.9635  160.0584 H   0  0  0  0  0  0  0  0  0  0  0  0  # atno 6908 bound_to 6896
  152.1089  133.4255  159.4658 H   0  0  0  0  0  0  0  0  0  0  0  0  # atno 6909 bound_to 6896
  146.0796  139.5377  142.9545 H   0  0  0  0  0  0  0  0  0  0  0  0  # atno 7974 bound_to 7965
  155.4240  140.0520  157.3023 H   0  0  0  0  0  0  0  0  0  0  0  0  # atno 8008 bound_to 7997
  154.4890  140.2112  155.9550 H   0  0  0  0  0  0  0  0  0  0  0  0  # atno 8009 bound_to 7997
  156.1315  140.3171  155.8361 H   0  0  0  0  0  0  0  0  0  0  0  0  # atno 8010 bound_to 7997
  140.2726  144.3248  150.6286 H   0  0  0  0  0  0  0  0  0  0  0  0  # atno 10167 bound_to 10162
  157.5800  130.8974  149.9414 H   0  0  0  0  0  0  0  0  0  0  0  0  # atno 10718 bound_to 10713
  153.0199  135.5274  154.7021 H   0  0  0  0  0  0  0  0  0  0  0  0  # atno 10763 bound_to 10752
  154.6127  135.2880  155.0417 H   0  0  0  0  0  0  0  0  0  0  0  0  # atno 10764 bound_to 10752
  154.1432  135.6574  153.4999 H   0  0  0  0  0  0  0  0  0  0  0  0  # atno 10765 bound_to 10752
  141.0635  133.6701  156.3284 H   0  0  0  0  0  0  0  0  0  0  0  0  # atno 11005 bound_to 11000
  145.6243  141.0316  143.1898 LP  0  0  0  0  0  0  0  0  0  0  0  0  # atno 17320 bound_to 7965
  144.7284  139.7802  143.7356 LP  0  0  0  0  0  0  0  0  0  0  0  0  # atno 17321 bound_to 7965
  140.5877  143.2169  151.7311 LP  0  0  0  0  0  0  0  0  0  0  0  0  # atno 17342 bound_to 10162
  139.4984  144.3986  152.0205 LP  0  0  0  0  0  0  0  0  0  0  0  0  # atno 17343 bound_to 10162
  156.0845  130.3669  150.0514 LP  0  0  0  0  0  0  0  0  0  0  0  0  # atno 17370 bound_to 10713
  156.8654  130.9506  151.3614 LP  0  0  0  0  0  0  0  0  0  0  0  0  # atno 17371 bound_to 10713
  140.5821  134.5735  157.5481 LP  0  0  0  0  0  0  0  0  0  0  0  0  # atno 17394 bound_to 11000
  139.9454  134.7711  156.0574 LP  0  0  0  0  0  0  0  0  0  0  0  0  # atno 17395 bound_to 11000

$$$$
