AV-unprocessed.smi:1879|AV-procd|sdf|7632|dock7
  -GOLD-   22720 9353D 1   1.00000     0.00000
 Structure written by MMmdl.
 46 48  0  0  0  0  0  0  0  0  1 V2000
  149.5434  134.6627  155.9861 O   0  0  0  0  0  0  0  0  0  0  0  0
  149.3728  135.0724  154.8376 C   0  0  0  0  0  0  0  0  0  0  0  0
  148.9507  134.3253  153.8039 N   0  0  0  0  0  0  0  0  0  0  0  0
  148.6028  132.9450  153.8056 C   0  0  0  0  0  0  0  0  0  0  0  0
  149.3000  132.0107  154.6102 C   0  0  0  0  0  0  0  0  0  0  0  0
  148.9715  130.6469  154.5268 C   0  0  0  0  0  0  0  0  0  0  0  0
  147.9650  130.2603  153.6266 C   0  0  0  0  0  0  0  0  0  0  0  0
  147.3016  131.1345  152.8441 N   0  0  0  0  0  0  0  0  0  0  0  0
  147.5962  132.4559  152.9234 C   0  0  0  0  0  0  0  0  0  0  0  0
  146.8553  133.3245  152.0885 N   0  0  0  0  0  0  0  0  0  0  0  0
  146.0742  132.7948  150.9756 C   0  0  0  0  0  0  0  0  0  0  0  0
  145.1424  133.9327  150.5694 C   0  0  0  0  0  0  0  0  0  0  0  0
  144.8249  134.5870  151.9102 C   0  0  0  0  0  0  0  0  0  0  0  0
  146.1218  134.4236  152.7100 C   0  0  0  0  0  0  0  0  0  0  0  0
  149.5694  136.3455  154.4668 N   0  0  0  0  0  0  0  0  0  0  0  0
  150.0160  137.4206  155.3477 C   0  0  2  0  0  0  0  0  0  0  0  0
  150.0650  138.7611  154.5875 C   0  0  0  0  0  0  0  0  0  0  0  0
  150.5934  139.8975  155.4805 C   0  0  0  0  0  0  0  0  0  0  0  0
  151.9588  139.5616  156.1098 C   0  0  2  0  0  0  0  0  0  0  0  0
  152.9646  139.5651  155.1161 O   0  0  0  0  0  0  0  0  0  0  0  0
  151.9322  138.1998  156.8295 C   0  0  0  0  0  0  0  0  0  0  0  0
  151.3992  137.0731  155.9272 C   0  0  0  0  0  0  0  0  0  0  0  0
  148.7574  134.8192  152.9449 H   0  0  0  0  0  0  0  0  0  0  0  0
  150.0970  132.3151  155.2714 H   0  0  0  0  0  0  0  0  0  0  0  0
  149.4886  129.9143  155.1285 H   0  0  0  0  0  0  0  0  0  0  0  0
  147.6890  129.2210  153.5266 H   0  0  0  0  0  0  0  0  0  0  0  0
  146.7162  132.4825  150.1517 H   0  0  0  0  0  0  0  0  0  0  0  0
  145.4802  131.9369  151.2934 H   0  0  0  0  0  0  0  0  0  0  0  0
  145.6713  134.6372  149.9257 H   0  0  0  0  0  0  0  0  0  0  0  0
  144.2543  133.5870  150.0398 H   0  0  0  0  0  0  0  0  0  0  0  0
  144.5145  135.6278  151.8143 H   0  0  0  0  0  0  0  0  0  0  0  0
  144.0195  134.0404  152.4022 H   0  0  0  0  0  0  0  0  0  0  0  0
  145.9184  134.2390  153.7657 H   0  0  0  0  0  0  0  0  0  0  0  0
  146.7200  135.3316  152.6343 H   0  0  0  0  0  0  0  0  0  0  0  0
  149.3981  136.5912  153.5027 H   0  0  0  0  0  0  0  0  0  0  0  0
  149.3150  137.5124  156.1798 H   0  0  0  0  0  0  0  0  0  0  0  0
  150.7012  138.6639  153.7066 H   0  0  0  0  0  0  0  0  0  0  0  0
  149.0718  139.0223  154.2202 H   0  0  0  0  0  0  0  0  0  0  0  0
  150.6574  140.8243  154.9091 H   0  0  0  0  0  0  0  0  0  0  0  0
  149.8719  140.0824  156.2772 H   0  0  0  0  0  0  0  0  0  0  0  0
  152.2205  140.3393  156.8280 H   0  0  0  0  0  0  0  0  0  0  0  0
  152.6491  139.0826  154.3675 H   0  0  0  0  0  0  0  0  0  0  0  0
  152.9266  137.9462  157.1982 H   0  0  0  0  0  0  0  0  0  0  0  0
  151.2935  138.2772  157.7103 H   0  0  0  0  0  0  0  0  0  0  0  0
  151.3418  136.1457  156.4985 H   0  0  0  0  0  0  0  0  0  0  0  0
  152.1059  136.8911  155.1162 H   0  0  0  0  0  0  0  0  0  0  0  0
  1  2  2  0  0  0  0
  2  3  1  0  0  0  0
  2 15  1  0  0  0  0
  3  4  1  0  0  0  0
  3 23  1  0  0  0  0
  4  9  1  0  0  0  0
  4  5  2  0  0  0  0
  5  6  1  0  0  0  0
  5 24  1  0  0  0  0
  6  7  2  0  0  0  0
  6 25  1  0  0  0  0
  7  8  1  0  0  0  0
  7 26  1  0  0  0  0
  8  9  2  0  0  0  0
  9 10  1  0  0  0  0
 10 14  1  0  0  0  0
 10 11  1  0  0  0  0
 11 12  1  0  0  0  0
 11 27  1  0  0  0  0
 11 28  1  0  0  0  0
 12 13  1  0  0  0  0
 12 29  1  0  0  0  0
 12 30  1  0  0  0  0
 13 14  1  0  0  0  0
 13 31  1  0  0  0  0
 13 32  1  0  0  0  0
 14 33  1  0  0  0  0
 14 34  1  0  0  0  0
 15 16  1  0  0  0  0
 15 35  1  0  0  0  0
 16 22  1  0  0  0  0
 16 17  1  0  0  0  0
 16 36  1  0  0  0  0
 17 18  1  0  0  0  0
 17 37  1  0  0  0  0
 17 38  1  0  0  0  0
 18 19  1  0  0  0  0
 18 39  1  0  0  0  0
 18 40  1  0  0  0  0
 19 20  1  0  0  0  0
 19 21  1  0  0  0  0
 19 41  1  0  0  0  0
 20 42  1  0  0  0  0
 21 22  1  0  0  0  0
 21 43  1  0  0  0  0
 21 44  1  0  0  0  0
 22 45  1  0  0  0  0
 22 46  1  0  0  0  0
M  END
> <s_m_source_file>
AV-unprocessed.smi

> <i_m_source_file_index>
1879

> <i_lp_mmshare_version>
43012

> <i_f3d_flags>
0

> <s_epik_input>
W0NIMl0xW0NIMl1bQ0BIXShbT0hdKVtDSDJdW0NIMl1bQ0BIXTFbTkhdQyg9TylbTkhdYzJbY0hdW2NIXVtjSF1uYzJOM1tDSDJdW0NIMl1bQ0gyXVtDSDJdMw==

> <s_epik_cmdline>
J2VwaWtfcHl0aG9uJywgJy1waCcsICc3LjAnLCAnLXRuJywgJzgnLCAnLW1hJywgJzIwMCcsICctbWV0YWxfYmluZGluZycsICctaW1hZScsICc8aW5maWxlLm1hZT4nLCAnLW9tYWUnLCAnPG91dGZpbGUubWFlPic=

> <r_lp_tautomer_probability>
1

> <r_epik_Ionization_Penalty>
0.104121

> <r_epik_Ionization_Penalty_Charging>
0

> <r_epik_Ionization_Penalty_Neutral>
0.104121

> <r_epik_State_Penalty>
0.0934704

> <r_epik_Charging_Adjusted_Penalty>
0.0934704

> <i_epik_Tot_Q>
0

> <i_epik_Tot_abs_Q>
0

> <r_epik_Metal_State_Penalty>
0.0794466

> <b_epik_Metal_Only>
0

> <s_lp_Force_Field>
OPLS_2005

> <r_lp_Energy>
39.1778

> <b_lp_Chiralities_Consistent>
1

> <s_lp_Variant>
AV-unprocessed.smi:1879-2

> <Gold.Version>
5.8.1

> <Gold.Id.Protein>
6NUR|6NUR_protein|mol2

> <Gold.PLP.Fitness>
43.0722

> <Gold.PLP.PLP>
-34.9126

> <Gold.PLP.part.hbond>
-4.0739

> <Gold.PLP.part.metal>
0.0000

> <Gold.PLP.part.buried>
-2.9214

> <Gold.PLP.part.nonpolar>
-28.7750

> <Gold.PLP.part.repulsive>
0.6711

> <Gold.PLP.ligand.clash>
0.0000

> <Gold.PLP.ligand.torsion>
0.4388

> <Gold.PLP.Chemscore.Hbond>
2.9000

> <Gold.PLP.Chemscore.CHOScore>
0.0000

> <Gold.PLP.Chemscore.Metal>
0.0000

> <Gold.Chemscore.Hbonds>
donor molecule, donor type, donor heavy atom, donor atom, acceptor molecule, acceptor atom, score
      L1  H     3    23       P1  7948  0.90
      L1  H    15    35       P1  7948  1.00
      P1  H  7997  8009       L1    20  1.00

> <Gold.PLP.Chemscore.Internal.Correction>
0.3373

> <Gold.Rescore>
     Score         DG    S(hbond)    S(metal)    S(lipo)     H(rot)  DE(clash)    DE(int)     intcor
     14.18     -17.15       2.25        0.00      72.21       1.67       0.05       2.91       ----

> <Gold.Chemscore.Fitness>
14.1823

> <Gold.Chemscore.DG>
-17.1498

> <Gold.Chemscore.ZeroCoef>
-5.4800

> <Gold.Chemscore.Hbond>
2.2462

> <Gold.Chemscore.Metal>
0.0000

> <Gold.Chemscore.Lipo>
72.2103

> <Gold.Chemscore.Internal_Hbond>
0.0000

> <Gold.Chemscore.DEClash>
0.0544

> <Gold.Chemscore.DEInternal>
2.9131

> <Gold.Chemscore.Rot>
1.6723

> <Gold.Chemscore.Internal.Correction>
   9.000000E+99

> <Gold.Chemscore.Hbonds>
donor molecule, donor type, donor heavy atom, donor atom, acceptor molecule, acceptor atom, score
      L1  H     3    23       P1  7948  0.17
      L1  H    15    35       P1  7948  0.83
      P1  H  7997  8009       L1    20  0.60

> <Gold.Chemscore.Hbond.Weighted>
-7.5024

> <Gold.Chemscore.Metal.Weighted>
-0.0000

> <Gold.Chemscore.Lipo.Weighted>
-8.4486

> <Gold.Chemscore.Internal_Hbond.Weighted>
0.0000

> <Gold.Chemscore.DEClash.Weighted>
0.0544

> <Gold.Chemscore.DEInternal.Weighted>
2.9131

> <Gold.Chemscore.Rot.Weighted>
4.2812

> <Gold.Chemscore.Internal.Correction.Weighted>
   9.000000E+99

> <Gold.Protein.RotatedTorsions>
[ 6907 6896 6895 6894 ] final  -69.05 input  -60.11 | X-H torsion
[ 7974 7965 7964 7962 ] final    6.30 input  175.53 | X-H torsion
[ 8008 7997 7996 7995 ] final -136.05 input   59.86 | X-H torsion
[ 10167 10162 10161 10158 ] final -118.77 input  -65.29 | X-H torsion
[ 10718 10713 10712 10709 ] final -178.24 input   66.30 | X-H torsion
[ 10763 10752 10751 10750 ] final  176.16 input  -60.55 | X-H torsion
[ 11005 11000 10999 10996 ] final   87.85 input  -57.11 | X-H torsion

> <Gold.Protein.ActiveResidues>
 VAL166  LYS551  ARG553  GLY616  TRP617  ASP618  TYR619  PRO620  LYS621  CYS622 
 ASP623  PHE694  ASN695  SER759  ASP760  ASP761  ALA762  ILE779  LEU786  VAL792 
 PHE793  MET794  SER795  GLU796  ALA797  LYS798  CYS799  TRP800  GLU811  SER814 

> <Gold.Protein.RotatedAtoms>
  150.7325  134.5652  159.5862 H   0  0  0  0  0  0  0  0  0  0  0  0  # atno 6907 bound_to 6896
  152.3105  134.7499  160.0346 H   0  0  0  0  0  0  0  0  0  0  0  0  # atno 6908 bound_to 6896
  151.8049  133.3339  159.3574 H   0  0  0  0  0  0  0  0  0  0  0  0  # atno 6909 bound_to 6896
  146.2435  140.0254  142.8394 H   0  0  0  0  0  0  0  0  0  0  0  0  # atno 7974 bound_to 7965
  155.3888  140.0498  157.3041 H   0  0  0  0  0  0  0  0  0  0  0  0  # atno 8008 bound_to 7997
  154.5046  140.2169  155.9238 H   0  0  0  0  0  0  0  0  0  0  0  0  # atno 8009 bound_to 7997
  156.1510  140.3136  155.8653 H   0  0  0  0  0  0  0  0  0  0  0  0  # atno 8010 bound_to 7997
  140.0539  143.5033  152.2067 H   0  0  0  0  0  0  0  0  0  0  0  0  # atno 10167 bound_to 10162
  156.8414  130.9687  151.3099 H   0  0  0  0  0  0  0  0  0  0  0  0  # atno 10718 bound_to 10713
  154.4774  135.2773  155.1597 H   0  0  0  0  0  0  0  0  0  0  0  0  # atno 10763 bound_to 10752
  154.3321  135.6188  153.5560 H   0  0  0  0  0  0  0  0  0  0  0  0  # atno 10764 bound_to 10752
  152.9871  135.5768  154.5168 H   0  0  0  0  0  0  0  0  0  0  0  0  # atno 10765 bound_to 10752
  139.8910  134.8449  156.2917 H   0  0  0  0  0  0  0  0  0  0  0  0  # atno 11005 bound_to 11000
  145.1203  140.9458  143.4604 LP  0  0  0  0  0  0  0  0  0  0  0  0  # atno 17320 bound_to 7965
  145.0488  139.3199  143.5939 LP  0  0  0  0  0  0  0  0  0  0  0  0  # atno 17321 bound_to 7965
  139.5936  144.7559  151.3341 LP  0  0  0  0  0  0  0  0  0  0  0  0  # atno 17342 bound_to 10162
  140.7204  143.7152  150.7738 LP  0  0  0  0  0  0  0  0  0  0  0  0  # atno 17343 bound_to 10162
  157.6353  130.8762  149.9349 LP  0  0  0  0  0  0  0  0  0  0  0  0  # atno 17370 bound_to 10713
  156.0879  130.3666  150.0452 LP  0  0  0  0  0  0  0  0  0  0  0  0  # atno 17371 bound_to 10713
  140.9972  133.7173  156.0904 LP  0  0  0  0  0  0  0  0  0  0  0  0  # atno 17394 bound_to 11000
  140.7547  134.4006  157.5536 LP  0  0  0  0  0  0  0  0  0  0  0  0  # atno 17395 bound_to 11000

$$$$
