AV-unprocessed.smi:992|AV-procd|sdf|4334|dock6
  -GOLD-   22720 2233D 1   1.00000     0.00000
 Structure written by MMmdl.
 33 34  0  0  0  0  0  0  0  0  2 V2000
  152.1939  145.0539  158.6459 C   0  0  0  0  0  0  0  0  0  0  0  0
  151.3800  143.9209  159.2960 C   0  0  1  0  0  0  0  0  0  0  0  0
  150.6347  143.0332  158.2789 C   0  0  0  0  0  0  0  0  0  0  0  0
  151.5614  142.1412  157.5945 N   0  0  0  0  0  0  0  0  0  0  0  0
  150.9517  141.3881  156.5827 C   0  0  0  0  0  0  0  0  0  0  0  0
  151.1773  140.0038  156.3960 C   0  0  0  0  0  0  0  0  0  0  0  0
  150.5178  139.3314  155.3460 C   0  0  0  0  0  0  0  0  0  0  0  0
  149.6459  140.0530  154.5037 C   0  0  0  0  0  0  0  0  0  0  0  0
  148.9831  139.4147  153.4572 N   0  0  0  0  0  0  0  0  0  0  0  0
  149.4552  141.4305  154.7357 C   0  0  0  0  0  0  0  0  0  0  0  0
  150.1055  142.0375  155.7524 N   0  3  0  0  0  0  0  0  0  0  0  0
  152.3455  141.3378  158.5217 C   0  0  0  0  0  0  0  0  0  0  0  0
  153.1082  142.2538  159.4952 C   0  0  2  0  0  0  0  0  0  0  0  0
  153.8660  141.4538  160.5598 C   0  0  0  0  0  0  0  0  0  0  0  0
  152.1805  143.1109  160.1613 O   0  0  0  0  0  0  0  0  0  0  0  0
  151.5415  145.7293  158.0920 H   0  0  0  0  0  0  0  0  0  0  0  0
  152.9411  144.6804  157.9463 H   0  0  0  0  0  0  0  0  0  0  0  0
  152.7104  145.6439  159.4034 H   0  0  0  0  0  0  0  0  0  0  0  0
  150.6319  144.3965  159.9308 H   0  0  0  0  0  0  0  0  0  0  0  0
  149.8848  142.4370  158.8009 H   0  0  0  0  0  0  0  0  0  0  0  0
  150.1021  143.6508  157.5543 H   0  0  0  0  0  0  0  0  0  0  0  0
  151.8459  139.4593  157.0465 H   0  0  0  0  0  0  0  0  0  0  0  0
  150.6819  138.2748  155.1921 H   0  0  0  0  0  0  0  0  0  0  0  0
  149.1076  138.4287  153.2754 H   0  0  0  0  0  0  0  0  0  0  0  0
  148.3215  139.9049  152.8720 H   0  0  0  0  0  0  0  0  0  0  0  0
  148.8083  142.0633  154.1450 H   0  0  0  0  0  0  0  0  0  0  0  0
  151.6875  140.6693  159.0783 H   0  0  0  0  0  0  0  0  0  0  0  0
  153.0466  140.7131  157.9664 H   0  0  0  0  0  0  0  0  0  0  0  0
  153.8330  142.8531  158.9437 H   0  0  0  0  0  0  0  0  0  0  0  0
  154.5957  140.7849  160.1025 H   0  0  0  0  0  0  0  0  0  0  0  0
  153.1852  140.8481  161.1586 H   0  0  0  0  0  0  0  0  0  0  0  0
  154.4034  142.1183  161.2370 H   0  0  0  0  0  0  0  0  0  0  0  0
  149.9516  143.0354  155.8990 H   0  0  0  0  0  0  0  0  0  0  0  0
  1  2  1  0  0  0  0
  1 16  1  0  0  0  0
  1 17  1  0  0  0  0
  1 18  1  0  0  0  0
  2 15  1  0  0  0  0
  2  3  1  0  0  0  0
  2 19  1  0  0  0  0
  3  4  1  0  0  0  0
  3 20  1  0  0  0  0
  3 21  1  0  0  0  0
  4  5  1  0  0  0  0
  4 12  1  0  0  0  0
  5 11  1  0  0  0  0
  5  6  2  0  0  0  0
  6  7  1  0  0  0  0
  6 22  1  0  0  0  0
  7  8  2  0  0  0  0
  7 23  1  0  0  0  0
  8  9  1  0  0  0  0
  8 10  1  0  0  0  0
  9 24  1  0  0  0  0
  9 25  1  0  0  0  0
 10 11  2  0  0  0  0
 10 26  1  0  0  0  0
 11 33  1  0  0  0  0
 12 13  1  0  0  0  0
 12 27  1  0  0  0  0
 12 28  1  0  0  0  0
 13 14  1  0  0  0  0
 13 15  1  0  0  0  0
 13 29  1  0  0  0  0
 14 30  1  0  0  0  0
 14 31  1  0  0  0  0
 14 32  1  0  0  0  0
M  CHG  1  11   1
M  END
> <s_m_source_file>
AV-unprocessed.smi

> <i_m_source_file_index>
992

> <i_lp_mmshare_version>
43012

> <i_f3d_flags>
0

> <s_epik_input>
W0NIM11bQ0BASF0xW0NIMl1OKFtDSDJdW0NASF0oTzEpW0NIM10pYzJbY0hdW2NIXWMoW05IMl0pW2NIXW4y

> <s_epik_cmdline>
J2VwaWtfcHl0aG9uJywgJy1waCcsICc3LjAnLCAnLXRuJywgJzgnLCAnLW1hJywgJzIwMCcsICctbWV0YWxfYmluZGluZycsICctaW1hZScsICc8aW5maWxlLm1hZT4nLCAnLW9tYWUnLCAnPG91dGZpbGUubWFlPic=

> <r_lp_tautomer_probability>
0.999846

> <r_epik_Ionization_Penalty>
2.28753

> <r_epik_Ionization_Penalty_Charging>
2.28753

> <r_epik_Ionization_Penalty_Neutral>
1.09395e-07

> <r_epik_State_Penalty>
2.43729

> <r_epik_Charging_Adjusted_Penalty>
4.72482

> <i_epik_Tot_Q>
1

> <i_epik_Tot_abs_Q>
1

> <r_epik_Metal_State_Penalty>
6.52028

> <b_epik_Metal_Only>
0

> <s_lp_Force_Field>
OPLS_2005

> <r_lp_Energy>
28.0905

> <b_lp_Chiralities_Consistent>
1

> <s_lp_Variant>
AV-unprocessed.smi:992-6

> <Gold.Version>
5.8.1

> <Gold.Id.Protein>
6NUR|6NUR_protein|mol2

> <Gold.PLP.Fitness>
40.6174

> <Gold.PLP.PLP>
-34.9906

> <Gold.PLP.part.hbond>
-1.7641

> <Gold.PLP.part.metal>
0.0000

> <Gold.PLP.part.buried>
-3.8947

> <Gold.PLP.part.nonpolar>
-29.1641

> <Gold.PLP.part.repulsive>
0.3224

> <Gold.PLP.ligand.clash>
0.0000

> <Gold.PLP.ligand.torsion>
0.2320

> <Gold.PLP.Chemscore.Hbond>
2.0000

> <Gold.PLP.Chemscore.CHOScore>
0.0000

> <Gold.PLP.Chemscore.Metal>
0.0000

> <Gold.Chemscore.Hbonds>
donor molecule, donor type, donor heavy atom, donor atom, acceptor molecule, acceptor atom, score
      L1  H    11    33       P1  8028  2.00

> <Gold.PLP.Chemscore.Internal.Correction>
0.0908

> <Gold.Rescore>
     Score         DG    S(hbond)    S(metal)    S(lipo)     H(rot)  DE(clash)    DE(int)     intcor
     16.45     -16.70       0.99        0.00      89.55       1.00       0.05       0.20       ----

> <Gold.Chemscore.Fitness>
16.4472

> <Gold.Chemscore.DG>
-16.7029

> <Gold.Chemscore.ZeroCoef>
-5.4800

> <Gold.Chemscore.Hbond>
0.9898

> <Gold.Chemscore.Metal>
0.0000

> <Gold.Chemscore.Lipo>
89.5482

> <Gold.Chemscore.Internal_Hbond>
0.0000

> <Gold.Chemscore.DEClash>
0.0510

> <Gold.Chemscore.DEInternal>
0.2047

> <Gold.Chemscore.Rot>
1.0000

> <Gold.Chemscore.Internal.Correction>
   9.000000E+99

> <Gold.Chemscore.Hbonds>
donor molecule, donor type, donor heavy atom, donor atom, acceptor molecule, acceptor atom, score
      L1  H     9    25       P1  7957  0.02
      L1  H    11    33       P1  8028  0.92

> <Gold.Chemscore.Hbond.Weighted>
-3.3058

> <Gold.Chemscore.Metal.Weighted>
-0.0000

> <Gold.Chemscore.Lipo.Weighted>
-10.4771

> <Gold.Chemscore.Internal_Hbond.Weighted>
0.0000

> <Gold.Chemscore.DEClash.Weighted>
0.0510

> <Gold.Chemscore.DEInternal.Weighted>
0.2047

> <Gold.Chemscore.Rot.Weighted>
2.5600

> <Gold.Chemscore.Internal.Correction.Weighted>
   9.000000E+99

> <Gold.Protein.RotatedTorsions>
[ 6907 6896 6895 6894 ] final -166.87 input  -60.11 | X-H torsion
[ 7974 7965 7964 7962 ] final -116.81 input  175.53 | X-H torsion
[ 8008 7997 7996 7995 ] final  -17.43 input   59.86 | X-H torsion
[ 10167 10162 10161 10158 ] final -135.73 input  -65.29 | X-H torsion
[ 10718 10713 10712 10709 ] final   97.56 input   66.30 | X-H torsion
[ 10763 10752 10751 10750 ] final  -74.73 input  -60.55 | X-H torsion
[ 11005 11000 10999 10996 ] final   90.42 input  -57.11 | X-H torsion

> <Gold.Protein.ActiveResidues>
 VAL166  LYS551  ARG553  GLY616  TRP617  ASP618  TYR619  PRO620  LYS621  CYS622 
 ASP623  PHE694  ASN695  SER759  ASP760  ASP761  ALA762  ILE779  LEU786  VAL792 
 PHE793  MET794  SER795  GLU796  ALA797  LYS798  CYS799  TRP800  GLU811  SER814 

> <Gold.Protein.RotatedAtoms>
  151.4505  133.3619  159.2794 H   0  0  0  0  0  0  0  0  0  0  0  0  # atno 6907 bound_to 6896
  150.9094  134.8512  159.7425 H   0  0  0  0  0  0  0  0  0  0  0  0  # atno 6908 bound_to 6896
  152.4924  134.4434  159.9603 H   0  0  0  0  0  0  0  0  0  0  0  0  # atno 6909 bound_to 6896
  145.0924  140.8499  143.3974 H   0  0  0  0  0  0  0  0  0  0  0  0  # atno 7974 bound_to 7965
  154.4979  140.2143  155.9409 H   0  0  0  0  0  0  0  0  0  0  0  0  # atno 8008 bound_to 7997
  156.1394  140.3182  155.8440 H   0  0  0  0  0  0  0  0  0  0  0  0  # atno 8009 bound_to 7997
  155.4148  140.0493  157.3020 H   0  0  0  0  0  0  0  0  0  0  0  0  # atno 8010 bound_to 7997
  139.8749  143.6911  152.2635 H   0  0  0  0  0  0  0  0  0  0  0  0  # atno 10167 bound_to 10162
  157.6910  131.0613  150.4662 H   0  0  0  0  0  0  0  0  0  0  0  0  # atno 10718 bound_to 10713
  154.4770  135.5855  153.6362 H   0  0  0  0  0  0  0  0  0  0  0  0  # atno 10763 bound_to 10752
  152.9842  135.6080  154.3294 H   0  0  0  0  0  0  0  0  0  0  0  0  # atno 10764 bound_to 10752
  154.3182  135.2844  155.2512 H   0  0  0  0  0  0  0  0  0  0  0  0  # atno 10765 bound_to 10752
  139.8856  134.8612  156.3282 H   0  0  0  0  0  0  0  0  0  0  0  0  # atno 11005 bound_to 11000
  145.1050  139.2796  143.5667 LP  0  0  0  0  0  0  0  0  0  0  0  0  # atno 17320 bound_to 7965
  146.3531  140.0629  142.8628 LP  0  0  0  0  0  0  0  0  0  0  0  0  # atno 17321 bound_to 7965
  139.7249  144.7595  151.0895 LP  0  0  0  0  0  0  0  0  0  0  0  0  # atno 17342 bound_to 10162
  140.7754  143.5160  150.9594 LP  0  0  0  0  0  0  0  0  0  0  0  0  # atno 17343 bound_to 10162
  156.5003  130.4115  149.6357 LP  0  0  0  0  0  0  0  0  0  0  0  0  # atno 17370 bound_to 10713
  156.3334  130.7344  151.2277 LP  0  0  0  0  0  0  0  0  0  0  0  0  # atno 17371 bound_to 10713
  140.9740  133.7309  156.0576 LP  0  0  0  0  0  0  0  0  0  0  0  0  # atno 17394 bound_to 11000
  140.7834  134.3700  157.5482 LP  0  0  0  0  0  0  0  0  0  0  0  0  # atno 17395 bound_to 11000

$$$$
