AV-unprocessed.smi:2087|AV-procd|sdf|8524|dock10
  -GOLD-   2272011243D 1   1.00000     0.00000
 Structure written by MMmdl.
 50 51  0  0  0  0  0  0  0  0  1 V2000
  154.7841  141.2534  161.9698 C   0  0  0  0  0  0  0  0  0  0  0  0
  153.9756  141.5334  160.6946 C   0  0  0  0  0  0  0  0  0  0  0  0
  154.7738  141.1136  159.4494 C   0  0  0  0  0  0  0  0  0  0  0  0
  153.5601  143.0193  160.6361 C   0  0  0  0  0  0  0  0  0  0  0  0
  152.3566  143.3151  159.8570 N   0  0  0  0  0  0  0  0  0  0  0  0
  152.0371  144.7406  159.8247 C   0  0  0  0  0  0  0  0  0  0  0  0
  150.7785  145.0262  158.9874 C   0  0  0  0  0  0  0  0  0  0  0  0
  150.9458  144.5101  157.6714 O   0  0  0  0  0  0  0  0  0  0  0  0
  151.2238  143.1118  157.6496 C   0  0  1  0  0  0  0  0  0  0  0  0
  151.3310  142.6349  156.1882 C   0  0  0  0  0  0  0  0  0  0  0  0
  150.0420  142.6248  155.5018 N   0  0  0  0  0  0  0  0  0  0  0  0
  149.7816  141.9840  154.3523 C   0  0  0  0  0  0  0  0  0  0  0  0
  150.6232  141.3245  153.7403 O   0  0  0  0  0  0  0  0  0  0  0  0
  148.3408  142.0915  153.8343 C   0  0  0  0  0  0  0  0  0  0  0  0
  147.7690  140.7940  153.4514 N   0  0  0  0  0  0  0  0  0  0  0  0
  147.8383  140.3760  152.1350 C   0  0  0  0  0  0  0  0  0  0  0  0
  147.3276  139.2040  151.6979 C   0  0  0  0  0  0  0  0  0  0  0  0
  146.6571  138.2894  152.6146 C   0  0  0  0  0  0  0  0  0  0  0  0
  146.1807  137.2121  152.2556 O   0  0  0  0  0  0  0  0  0  0  0  0
  146.5991  138.7432  153.9550 N   0  0  0  0  0  0  0  0  0  0  0  0
  145.9544  137.9178  154.9552 C   0  0  0  0  0  0  0  0  0  0  0  0
  147.1336  139.9702  154.4049 C   0  0  0  0  0  0  0  0  0  0  0  0
  147.0529  140.3189  155.5857 O   0  0  0  0  0  0  0  0  0  0  0  0
  152.4898  142.8316  158.4874 C   0  0  0  0  0  0  0  0  0  0  0  0
  155.7080  141.8324  161.9891 H   0  0  0  0  0  0  0  0  0  0  0  0
  155.0512  140.1987  162.0426 H   0  0  0  0  0  0  0  0  0  0  0  0
  154.2122  141.5085  162.8625 H   0  0  0  0  0  0  0  0  0  0  0  0
  153.0827  140.9114  160.7497 H   0  0  0  0  0  0  0  0  0  0  0  0
  155.6824  141.7067  159.3428 H   0  0  0  0  0  0  0  0  0  0  0  0
  154.1857  141.2393  158.5400 H   0  0  0  0  0  0  0  0  0  0  0  0
  155.0651  140.0644  159.5046 H   0  0  0  0  0  0  0  0  0  0  0  0
  153.4307  143.3972  161.6515 H   0  0  0  0  0  0  0  0  0  0  0  0
  154.3975  143.5799  160.2181 H   0  0  0  0  0  0  0  0  0  0  0  0
  151.8718  145.1178  160.8329 H   0  0  0  0  0  0  0  0  0  0  0  0
  152.8791  145.3001  159.4143 H   0  0  0  0  0  0  0  0  0  0  0  0
  149.8982  144.5781  159.4507 H   0  0  0  0  0  0  0  0  0  0  0  0
  150.5980  146.0996  158.9281 H   0  0  0  0  0  0  0  0  0  0  0  0
  150.3785  142.5936  158.1062 H   0  0  0  0  0  0  0  0  0  0  0  0
  151.9905  143.3058  155.6376 H   0  0  0  0  0  0  0  0  0  0  0  0
  151.7995  141.6502  156.1457 H   0  0  0  0  0  0  0  0  0  0  0  0
  149.2902  143.1391  155.9376 H   0  0  0  0  0  0  0  0  0  0  0  0
  147.7325  142.5480  154.6165 H   0  0  0  0  0  0  0  0  0  0  0  0
  148.3019  142.7827  152.9904 H   0  0  0  0  0  0  0  0  0  0  0  0
  148.3223  141.0202  151.4152 H   0  0  0  0  0  0  0  0  0  0  0  0
  147.4157  138.9398  150.6542 H   0  0  0  0  0  0  0  0  0  0  0  0
  146.7036  137.6867  155.7147 H   0  0  0  0  0  0  0  0  0  0  0  0
  145.5709  136.9942  154.5232 H   0  0  0  0  0  0  0  0  0  0  0  0
  145.1307  138.5001  155.3722 H   0  0  0  0  0  0  0  0  0  0  0  0
  153.3557  143.3022  158.0191 H   0  0  0  0  0  0  0  0  0  0  0  0
  152.6848  141.7585  158.4937 H   0  0  0  0  0  0  0  0  0  0  0  0
  1  2  1  0  0  0  0
  1 25  1  0  0  0  0
  1 26  1  0  0  0  0
  1 27  1  0  0  0  0
  2  3  1  0  0  0  0
  2  4  1  0  0  0  0
  2 28  1  0  0  0  0
  3 29  1  0  0  0  0
  3 30  1  0  0  0  0
  3 31  1  0  0  0  0
  4  5  1  0  0  0  0
  4 32  1  0  0  0  0
  4 33  1  0  0  0  0
  5 24  1  0  0  0  0
  5  6  1  0  0  0  0
  6  7  1  0  0  0  0
  6 34  1  0  0  0  0
  6 35  1  0  0  0  0
  7  8  1  0  0  0  0
  7 36  1  0  0  0  0
  7 37  1  0  0  0  0
  8  9  1  0  0  0  0
  9 10  1  0  0  0  0
  9 24  1  0  0  0  0
  9 38  1  0  0  0  0
 10 11  1  0  0  0  0
 10 39  1  0  0  0  0
 10 40  1  0  0  0  0
 11 12  1  0  0  0  0
 11 41  1  0  0  0  0
 12 13  2  0  0  0  0
 12 14  1  0  0  0  0
 14 15  1  0  0  0  0
 14 42  1  0  0  0  0
 14 43  1  0  0  0  0
 15 22  1  0  0  0  0
 15 16  1  0  0  0  0
 16 17  2  0  0  0  0
 16 44  1  0  0  0  0
 17 18  1  0  0  0  0
 17 45  1  0  0  0  0
 18 19  2  0  0  0  0
 18 20  1  0  0  0  0
 20 21  1  0  0  0  0
 20 22  1  0  0  0  0
 21 46  1  0  0  0  0
 21 47  1  0  0  0  0
 21 48  1  0  0  0  0
 22 23  2  0  0  0  0
 24 49  1  0  0  0  0
 24 50  1  0  0  0  0
M  END
> <s_m_source_file>
AV-unprocessed.smi

> <i_m_source_file_index>
2087

> <i_lp_mmshare_version>
43012

> <i_f3d_flags>
0

> <s_epik_input>
W0NIM11bQ0hdKFtDSDNdKVtDSDJdTjFbQ0gyXVtDSDJdT1tDQEhdKFtDSDJdMSlbQ0gyXVtOSF1DKD1PKVtDSDJdbjJbY0hdW2NIXWMoPU8pbihbQ0gzXSljMj1P

> <s_epik_cmdline>
J2VwaWtfcHl0aG9uJywgJy1waCcsICc3LjAnLCAnLXRuJywgJzgnLCAnLW1hJywgJzIwMCcsICctbWV0YWxfYmluZGluZycsICctaW1hZScsICc8aW5maWxlLm1hZT4nLCAnLW9tYWUnLCAnPG91dGZpbGUubWFlPic=

> <r_lp_tautomer_probability>
1

> <r_epik_Ionization_Penalty>
1.11669

> <r_epik_Ionization_Penalty_Charging>
1.16423e-08

> <r_epik_Ionization_Penalty_Neutral>
1.11669

> <r_epik_State_Penalty>
1.17516

> <r_epik_Charging_Adjusted_Penalty>
1.17516

> <i_epik_Tot_Q>
0

> <i_epik_Tot_abs_Q>
0

> <r_epik_Metal_State_Penalty>
1.17513

> <b_epik_Metal_Only>
0

> <s_lp_Force_Field>
OPLS_2005

> <r_lp_Energy>
34.2639

> <b_lp_Chiralities_Consistent>
1

> <s_lp_Variant>
AV-unprocessed.smi:2087-5

> <Gold.Version>
5.8.1

> <Gold.Id.Protein>
6NUR|6NUR_protein|mol2

> <Gold.PLP.Fitness>
47.5824

> <Gold.PLP.PLP>
-41.8962

> <Gold.PLP.part.hbond>
-2.0000

> <Gold.PLP.part.metal>
0.0000

> <Gold.PLP.part.buried>
-3.9784

> <Gold.PLP.part.nonpolar>
-36.3753

> <Gold.PLP.part.repulsive>
1.5919

> <Gold.PLP.ligand.clash>
0.0000

> <Gold.PLP.ligand.torsion>
0.9326

> <Gold.PLP.Chemscore.Hbond>
1.4720

> <Gold.PLP.Chemscore.CHOScore>
1.0000

> <Gold.PLP.Chemscore.Metal>
0.0000

> <Gold.Chemscore.Hbonds>
donor molecule, donor type, donor heavy atom, donor atom, acceptor molecule, acceptor atom, score
      L1  H    11    41       P1  8028  0.53

> <Gold.PLP.Chemscore.Internal.Correction>
0.1355

> <Gold.Rescore>
     Score         DG    S(hbond)    S(metal)    S(lipo)     H(rot)  DE(clash)    DE(int)     intcor
     13.47     -14.27       0.89        0.00      96.98       2.16       0.01       0.79       ----

> <Gold.Chemscore.Fitness>
13.4725

> <Gold.Chemscore.DG>
-14.2685

> <Gold.Chemscore.ZeroCoef>
-5.4800

> <Gold.Chemscore.Hbond>
0.8924

> <Gold.Chemscore.Metal>
0.0000

> <Gold.Chemscore.Lipo>
96.9841

> <Gold.Chemscore.Internal_Hbond>
0.0000

> <Gold.Chemscore.DEClash>
0.0076

> <Gold.Chemscore.DEInternal>
0.7884

> <Gold.Chemscore.Rot>
2.1638

> <Gold.Chemscore.Internal.Correction>
   9.000000E+99

> <Gold.Chemscore.Hbonds>
donor molecule, donor type, donor heavy atom, donor atom, acceptor molecule, acceptor atom, score
      L1  H    11    41       P1  8028  0.54

> <Gold.Chemscore.Hbond.Weighted>
-2.9806

> <Gold.Chemscore.Metal.Weighted>
-0.0000

> <Gold.Chemscore.Lipo.Weighted>
-11.3471

> <Gold.Chemscore.Internal_Hbond.Weighted>
0.0000

> <Gold.Chemscore.DEClash.Weighted>
0.0076

> <Gold.Chemscore.DEInternal.Weighted>
0.7884

> <Gold.Chemscore.Rot.Weighted>
5.5393

> <Gold.Chemscore.Internal.Correction.Weighted>
   9.000000E+99

> <Gold.Protein.RotatedTorsions>
[ 6907 6896 6895 6894 ] final  169.48 input  -60.11 | X-H torsion
[ 7974 7965 7964 7962 ] final  111.64 input  175.53 | X-H torsion
[ 8008 7997 7996 7995 ] final  -65.45 input   59.86 | X-H torsion
[ 10167 10162 10161 10158 ] final -101.78 input  -65.29 | X-H torsion
[ 10718 10713 10712 10709 ] final -102.09 input   66.30 | X-H torsion
[ 10763 10752 10751 10750 ] final  -73.01 input  -60.55 | X-H torsion
[ 11005 11000 10999 10996 ] final  173.19 input  -57.11 | X-H torsion

> <Gold.Protein.ActiveResidues>
 VAL166  LYS551  ARG553  GLY616  TRP617  ASP618  TYR619  PRO620  LYS621  CYS622 
 ASP623  PHE694  ASN695  SER759  ASP760  ASP761  ALA762  ILE779  LEU786  VAL792 
 PHE793  MET794  SER795  GLU796  ALA797  LYS798  CYS799  TRP800  GLU811  SER814 

> <Gold.Protein.RotatedAtoms>
  151.8313  133.3409  159.3613 H   0  0  0  0  0  0  0  0  0  0  0  0  # atno 6907 bound_to 6896
  150.7263  134.5480  159.5790 H   0  0  0  0  0  0  0  0  0  0  0  0  # atno 6908 bound_to 6896
  152.2934  134.7696  160.0424 H   0  0  0  0  0  0  0  0  0  0  0  0  # atno 6909 bound_to 6896
  145.2396  139.2784  143.4125 H   0  0  0  0  0  0  0  0  0  0  0  0  # atno 7974 bound_to 7965
  154.4673  140.0933  156.7053 H   0  0  0  0  0  0  0  0  0  0  0  0  # atno 8008 bound_to 7997
  155.4823  140.3468  155.4323 H   0  0  0  0  0  0  0  0  0  0  0  0  # atno 8009 bound_to 7997
  156.0978  140.1414  156.9496 H   0  0  0  0  0  0  0  0  0  0  0  0  # atno 8010 bound_to 7997
  140.2376  143.3561  152.0830 H   0  0  0  0  0  0  0  0  0  0  0  0  # atno 10167 bound_to 10162
  156.0216  130.5404  150.7058 H   0  0  0  0  0  0  0  0  0  0  0  0  # atno 10718 bound_to 10713
  154.4536  135.5911  153.6208 H   0  0  0  0  0  0  0  0  0  0  0  0  # atno 10763 bound_to 10752
  152.9816  135.6027  154.3574 H   0  0  0  0  0  0  0  0  0  0  0  0  # atno 10764 bound_to 10752
  154.3438  135.2841  155.2387 H   0  0  0  0  0  0  0  0  0  0  0  0  # atno 10765 bound_to 10752
  140.3378  134.7302  157.4180 H   0  0  0  0  0  0  0  0  0  0  0  0  # atno 11005 bound_to 11000
  146.3332  140.2756  142.8608 LP  0  0  0  0  0  0  0  0  0  0  0  0  # atno 17320 bound_to 7965
  144.9601  140.8266  143.5519 LP  0  0  0  0  0  0  0  0  0  0  0  0  # atno 17321 bound_to 7965
  139.5088  144.6856  151.5895 LP  0  0  0  0  0  0  0  0  0  0  0  0  # atno 17342 bound_to 10162
  140.6138  143.9387  150.6473 LP  0  0  0  0  0  0  0  0  0  0  0  0  # atno 17343 bound_to 10162
  157.4707  131.0893  151.0645 LP  0  0  0  0  0  0  0  0  0  0  0  0  # atno 17370 bound_to 10713
  157.1106  130.6020  149.5481 LP  0  0  0  0  0  0  0  0  0  0  0  0  # atno 17371 bound_to 10713
  140.0806  134.5736  155.8544 LP  0  0  0  0  0  0  0  0  0  0  0  0  # atno 17394 bound_to 11000
  141.2046  133.6641  156.6134 LP  0  0  0  0  0  0  0  0  0  0  0  0  # atno 17395 bound_to 11000

$$$$
