AV-unprocessed.smi:2228|AV-procd|sdf|9026|dock8
  -GOLD-   2272012233D 1   1.00000     0.00000
 Structure written by MMmdl.
 40 41  0  0  0  0  0  0  0  0  1 V2000
  146.2003  141.9228  154.3185 C   0  0  0  0  0  0  0  0  0  0  0  0
  146.4573  140.5270  154.3099 O   0  0  0  0  0  0  0  0  0  0  0  0
  147.6721  140.1672  154.9536 C   0  0  1  0  0  0  0  0  0  0  0  0
  147.9252  138.6683  154.7709 C   0  0  0  0  0  0  0  0  0  0  0  0
  149.4417  138.5304  154.8455 C   0  0  0  0  0  0  0  0  0  0  0  0
  149.9598  139.7684  154.1131 C   0  0  0  0  0  0  0  0  0  0  0  0
  148.9092  140.8705  154.3496 C   0  0  2  0  0  0  0  0  0  0  0  0
  149.4187  141.8857  155.2682 N   0  0  0  0  0  0  0  0  0  0  0  0
  150.1774  141.6438  156.3464 C   0  0  0  0  0  0  0  0  0  0  0  0
  150.5121  140.5137  156.7029 O   0  0  0  0  0  0  0  0  0  0  0  0
  150.5158  142.7881  156.9662 N   0  0  0  0  0  0  0  0  0  0  0  0
  151.3326  142.9554  158.1156 C   0  0  0  0  0  0  0  0  0  0  0  0
  151.3607  144.2654  158.6444 C   0  0  0  0  0  0  0  0  0  0  0  0
  152.1445  144.5381  159.7835 C   0  0  0  0  0  0  0  0  0  0  0  0
  152.1892  145.9354  160.3657 C   0  0  0  0  0  0  0  0  0  0  0  0
  152.8797  143.4880  160.3656 C   0  0  0  0  0  0  0  0  0  0  0  0
  152.7952  142.2110  159.7769 C   0  0  0  0  0  0  0  0  0  0  0  0
  153.5559  141.0354  160.3531 C   0  0  0  0  0  0  0  0  0  0  0  0
  152.0447  141.9515  158.6852 N   0  0  0  0  0  0  0  0  0  0  0  0
  145.2404  142.1185  153.8410 H   0  0  0  0  0  0  0  0  0  0  0  0
  146.9625  142.4773  153.7700 H   0  0  0  0  0  0  0  0  0  0  0  0
  146.1534  142.3097  155.3370 H   0  0  0  0  0  0  0  0  0  0  0  0
  147.6001  140.3637  156.0257 H   0  0  0  0  0  0  0  0  0  0  0  0
  147.4076  138.0609  155.5141 H   0  0  0  0  0  0  0  0  0  0  0  0
  147.5836  138.3494  153.7849 H   0  0  0  0  0  0  0  0  0  0  0  0
  149.7628  138.5552  155.8876 H   0  0  0  0  0  0  0  0  0  0  0  0
  149.8021  137.6002  154.4058 H   0  0  0  0  0  0  0  0  0  0  0  0
  150.9633  140.0468  154.4383 H   0  0  0  0  0  0  0  0  0  0  0  0
  150.0188  139.5545  153.0450 H   0  0  0  0  0  0  0  0  0  0  0  0
  148.6468  141.3179  153.3889 H   0  0  0  0  0  0  0  0  0  0  0  0
  149.1882  142.8449  155.0543 H   0  0  0  0  0  0  0  0  0  0  0  0
  150.1620  143.6404  156.5581 H   0  0  0  0  0  0  0  0  0  0  0  0
  150.7884  145.0567  158.1817 H   0  0  0  0  0  0  0  0  0  0  0  0
  152.8904  145.9961  161.1985 H   0  0  0  0  0  0  0  0  0  0  0  0
  151.2028  146.2246  160.7286 H   0  0  0  0  0  0  0  0  0  0  0  0
  152.5001  146.6526  159.6058 H   0  0  0  0  0  0  0  0  0  0  0  0
  153.4912  143.6563  161.2402 H   0  0  0  0  0  0  0  0  0  0  0  0
  154.2250  141.3519  161.1537 H   0  0  0  0  0  0  0  0  0  0  0  0
  154.1561  140.5533  159.5808 H   0  0  0  0  0  0  0  0  0  0  0  0
  152.8617  140.2992  160.7591 H   0  0  0  0  0  0  0  0  0  0  0  0
  1  2  1  0  0  0  0
  1 20  1  0  0  0  0
  1 21  1  0  0  0  0
  1 22  1  0  0  0  0
  2  3  1  0  0  0  0
  3  7  1  0  0  0  0
  3  4  1  0  0  0  0
  3 23  1  0  0  0  0
  4  5  1  0  0  0  0
  4 24  1  0  0  0  0
  4 25  1  0  0  0  0
  5  6  1  0  0  0  0
  5 26  1  0  0  0  0
  5 27  1  0  0  0  0
  6  7  1  0  0  0  0
  6 28  1  0  0  0  0
  6 29  1  0  0  0  0
  7  8  1  0  0  0  0
  7 30  1  0  0  0  0
  8  9  1  0  0  0  0
  8 31  1  0  0  0  0
  9 10  2  0  0  0  0
  9 11  1  0  0  0  0
 11 12  1  0  0  0  0
 11 32  1  0  0  0  0
 12 19  1  0  0  0  0
 12 13  2  0  0  0  0
 13 14  1  0  0  0  0
 13 33  1  0  0  0  0
 14 15  1  0  0  0  0
 14 16  2  0  0  0  0
 15 34  1  0  0  0  0
 15 35  1  0  0  0  0
 15 36  1  0  0  0  0
 16 17  1  0  0  0  0
 16 37  1  0  0  0  0
 17 18  1  0  0  0  0
 17 19  2  0  0  0  0
 18 38  1  0  0  0  0
 18 39  1  0  0  0  0
 18 40  1  0  0  0  0
M  END
> <s_m_source_file>
AV-unprocessed.smi

> <i_m_source_file_index>
2228

> <i_lp_mmshare_version>
43012

> <i_f3d_flags>
0

> <s_epik_input>
W0NIM11PW0NAQEhdMVtDSDJdW0NIMl1bQ0gyXVtDQEhdMVtOSF1DKD1PKVtOSF1jMltjSF1jKFtDSDNdKVtjSF1jKG4yKVtDSDNd

> <s_epik_cmdline>
J2VwaWtfcHl0aG9uJywgJy1waCcsICc3LjAnLCAnLXRuJywgJzgnLCAnLW1hJywgJzIwMCcsICctbWV0YWxfYmluZGluZycsICctaW1hZScsICc8aW5maWxlLm1hZT4nLCAnLW9tYWUnLCAnPG91dGZpbGUubWFlPic=

> <r_lp_tautomer_probability>
1

> <r_epik_Ionization_Penalty>
0.000275391

> <r_epik_Ionization_Penalty_Charging>
0

> <r_epik_Ionization_Penalty_Neutral>
0.000275391

> <r_epik_State_Penalty>
-0

> <r_epik_Charging_Adjusted_Penalty>
0

> <i_epik_Tot_Q>
0

> <i_epik_Tot_abs_Q>
0

> <r_epik_Metal_State_Penalty>
-0

> <b_epik_Metal_Only>
0

> <s_lp_Force_Field>
OPLS_2005

> <r_lp_Energy>
19.8708

> <b_lp_Chiralities_Consistent>
1

> <s_lp_Variant>
AV-unprocessed.smi:2228-4

> <Gold.Version>
5.8.1

> <Gold.Id.Protein>
6NUR|6NUR_protein|mol2

> <Gold.PLP.Fitness>
43.1226

> <Gold.PLP.PLP>
-37.7632

> <Gold.PLP.part.hbond>
-2.0000

> <Gold.PLP.part.metal>
0.0000

> <Gold.PLP.part.buried>
-2.3570

> <Gold.PLP.part.nonpolar>
-34.7861

> <Gold.PLP.part.repulsive>
0.3769

> <Gold.PLP.ligand.clash>
0.0000

> <Gold.PLP.ligand.torsion>
0.3108

> <Gold.PLP.Chemscore.Hbond>
1.9920

> <Gold.PLP.Chemscore.CHOScore>
0.0000

> <Gold.PLP.Chemscore.Metal>
0.0000

> <Gold.Chemscore.Hbonds>
donor molecule, donor type, donor heavy atom, donor atom, acceptor molecule, acceptor atom, score
      L1  H     8    31       P1  8028  1.00
      L1  H    11    32       P1  8028  1.00

> <Gold.PLP.Chemscore.Internal.Correction>
0.0050

> <Gold.Rescore>
     Score         DG    S(hbond)    S(metal)    S(lipo)     H(rot)  DE(clash)    DE(int)     intcor
     14.52     -20.89       1.95        0.00     102.67       1.21       2.37       4.00       ----

> <Gold.Chemscore.Fitness>
14.5171

> <Gold.Chemscore.DG>
-20.8891

> <Gold.Chemscore.ZeroCoef>
-5.4800

> <Gold.Chemscore.Hbond>
1.9460

> <Gold.Chemscore.Metal>
0.0000

> <Gold.Chemscore.Lipo>
102.6686

> <Gold.Chemscore.Internal_Hbond>
0.0000

> <Gold.Chemscore.DEClash>
2.3734

> <Gold.Chemscore.DEInternal>
3.9986

> <Gold.Chemscore.Rot>
1.2119

> <Gold.Chemscore.Internal.Correction>
   9.000000E+99

> <Gold.Chemscore.Hbonds>
donor molecule, donor type, donor heavy atom, donor atom, acceptor molecule, acceptor atom, score
      L1  H     8    31       P1  8028  0.93
      L1  H    11    32       P1  8028  0.98

> <Gold.Chemscore.Hbond.Weighted>
-6.4995

> <Gold.Chemscore.Metal.Weighted>
-0.0000

> <Gold.Chemscore.Lipo.Weighted>
-12.0122

> <Gold.Chemscore.Internal_Hbond.Weighted>
0.0000

> <Gold.Chemscore.DEClash.Weighted>
2.3734

> <Gold.Chemscore.DEInternal.Weighted>
3.9986

> <Gold.Chemscore.Rot.Weighted>
3.1026

> <Gold.Chemscore.Internal.Correction.Weighted>
   9.000000E+99

> <Gold.Protein.RotatedTorsions>
[ 6907 6896 6895 6894 ] final -168.62 input  -60.11 | X-H torsion
[ 7974 7965 7964 7962 ] final  -73.45 input  175.53 | X-H torsion
[ 8008 7997 7996 7995 ] final -107.75 input   59.86 | X-H torsion
[ 10167 10162 10161 10158 ] final   23.30 input  -65.29 | X-H torsion
[ 10718 10713 10712 10709 ] final  -39.37 input   66.30 | X-H torsion
[ 10763 10752 10751 10750 ] final  116.85 input  -60.55 | X-H torsion
[ 11005 11000 10999 10996 ] final  163.35 input  -57.11 | X-H torsion

> <Gold.Protein.ActiveResidues>
 VAL166  LYS551  ARG553  GLY616  TRP617  ASP618  TYR619  PRO620  LYS621  CYS622 
 ASP623  PHE694  ASN695  SER759  ASP760  ASP761  ALA762  ILE779  LEU786  VAL792 
 PHE793  MET794  SER795  GLU796  ALA797  LYS798  CYS799  TRP800  GLU811  SER814 

> <Gold.Protein.RotatedAtoms>
  151.4785  133.3552  159.2834 H   0  0  0  0  0  0  0  0  0  0  0  0  # atno 6907 bound_to 6896
  150.8913  134.8319  159.7306 H   0  0  0  0  0  0  0  0  0  0  0  0  # atno 6908 bound_to 6896
  152.4824  134.4695  159.9683 H   0  0  0  0  0  0  0  0  0  0  0  0  # atno 6909 bound_to 6896
  145.6520  140.9279  143.0979 H   0  0  0  0  0  0  0  0  0  0  0  0  # atno 7974 bound_to 7965
  154.9340  140.0404  157.2063 H   0  0  0  0  0  0  0  0  0  0  0  0  # atno 8008 bound_to 7997
  154.8133  140.2871  155.5816 H   0  0  0  0  0  0  0  0  0  0  0  0  # atno 8009 bound_to 7997
  156.2973  140.2533  156.3026 H   0  0  0  0  0  0  0  0  0  0  0  0  # atno 8010 bound_to 7997
  140.5280  143.9891  150.6450 H   0  0  0  0  0  0  0  0  0  0  0  0  # atno 10167 bound_to 10162
  156.2933  130.4231  149.8217 H   0  0  0  0  0  0  0  0  0  0  0  0  # atno 10718 bound_to 10713
  153.5434  135.3554  155.2728 H   0  0  0  0  0  0  0  0  0  0  0  0  # atno 10763 bound_to 10752
  154.8715  135.4096  154.3018 H   0  0  0  0  0  0  0  0  0  0  0  0  # atno 10764 bound_to 10752
  153.3730  135.7065  153.6691 H   0  0  0  0  0  0  0  0  0  0  0  0  # atno 10765 bound_to 10752
  140.2349  134.8095  157.3354 H   0  0  0  0  0  0  0  0  0  0  0  0  # atno 11005 bound_to 11000
  144.7119  139.8339  143.7411 LP  0  0  0  0  0  0  0  0  0  0  0  0  # atno 17320 bound_to 7965
  146.1196  139.4212  143.0237 LP  0  0  0  0  0  0  0  0  0  0  0  0  # atno 17321 bound_to 7965
  140.3258  143.3109  152.0738 LP  0  0  0  0  0  0  0  0  0  0  0  0  # atno 17342 bound_to 10162
  139.4944  144.6543  151.6607 LP  0  0  0  0  0  0  0  0  0  0  0  0  # atno 17343 bound_to 10162
  156.5622  130.8388  151.3332 LP  0  0  0  0  0  0  0  0  0  0  0  0  # atno 17370 bound_to 10713
  157.7348  130.9752  150.2049 LP  0  0  0  0  0  0  0  0  0  0  0  0  # atno 17371 bound_to 10713
  140.1712  134.4606  155.7830 LP  0  0  0  0  0  0  0  0  0  0  0  0  # atno 17394 bound_to 11000
  141.2215  133.6943  156.7711 LP  0  0  0  0  0  0  0  0  0  0  0  0  # atno 17395 bound_to 11000

$$$$
