AV-unprocessed.smi:3240|AV-procd|sdf|12383|dock2
  -GOLD-   2272018243D 1   1.00000     0.00000
 Structure written by MMmdl.
 43 44  0  0  0  0  0  0  0  0  1 V2000
  153.5812  142.7390  162.8341 C   0  0  0  0  0  0  0  0  0  0  0  0
  152.8942  143.0341  161.5323 C   0  0  0  0  0  0  0  0  0  0  0  0
  152.3136  144.2635  161.1095 C   0  0  0  0  0  0  0  0  0  0  0  0
  151.7842  144.1932  159.8991 N   0  0  0  0  0  0  0  0  0  0  0  0
  152.0001  142.9184  159.5091 N   0  0  0  0  0  0  0  0  0  0  0  0
  151.5406  142.4689  158.2044 C   0  0  0  0  0  0  0  0  0  0  0  0
  150.5365  141.2905  158.2707 C   0  0  2  0  0  0  0  0  0  0  0  0
  151.2393  139.9293  158.3936 C   0  0  0  0  0  0  0  0  0  0  0  0
  149.6169  141.2582  157.1283 N   0  0  0  0  0  0  0  0  0  0  0  0
  150.2441  141.1724  155.8072 C   0  0  0  0  0  0  0  0  0  0  0  0
  149.2483  140.7298  154.7115 C   0  0  0  0  0  0  0  0  0  0  0  0
  149.9667  140.6755  153.4919 O   0  0  0  0  0  0  0  0  0  0  0  0
  148.7469  139.2994  155.0220 C   0  0  0  0  0  0  0  0  0  0  0  0
  147.6742  138.8066  154.0340 C   0  0  0  0  0  0  0  0  0  0  0  0
  146.4947  139.7857  153.9594 C   0  0  0  0  0  0  0  0  0  0  0  0
  146.9767  141.1947  153.5888 C   0  0  0  0  0  0  0  0  0  0  0  0
  148.0468  141.7000  154.5731 C   0  0  0  0  0  0  0  0  0  0  0  0
  152.6752  142.1999  160.4733 C   0  0  0  0  0  0  0  0  0  0  0  0
  153.0146  143.1208  163.6835 H   0  0  0  0  0  0  0  0  0  0  0  0
  154.5714  143.1929  162.8771 H   0  0  0  0  0  0  0  0  0  0  0  0
  153.7110  141.6679  162.9912 H   0  0  0  0  0  0  0  0  0  0  0  0
  152.2627  145.2008  161.6438 H   0  0  0  0  0  0  0  0  0  0  0  0
  151.0702  143.3132  157.6978 H   0  0  0  0  0  0  0  0  0  0  0  0
  152.4110  142.2197  157.5983 H   0  0  0  0  0  0  0  0  0  0  0  0
  149.9471  141.4224  159.1787 H   0  0  0  0  0  0  0  0  0  0  0  0
  151.9353  139.9218  159.2327 H   0  0  0  0  0  0  0  0  0  0  0  0
  151.8014  139.6817  157.4923 H   0  0  0  0  0  0  0  0  0  0  0  0
  150.5164  139.1298  158.5598 H   0  0  0  0  0  0  0  0  0  0  0  0
  149.0104  142.0720  157.1567 H   0  0  0  0  0  0  0  0  0  0  0  0
  150.6782  142.1364  155.5384 H   0  0  0  0  0  0  0  0  0  0  0  0
  151.0685  140.4609  155.8331 H   0  0  0  0  0  0  0  0  0  0  0  0
  149.5663  140.0223  152.9390 H   0  0  0  0  0  0  0  0  0  0  0  0
  149.5835  138.5995  155.0338 H   0  0  0  0  0  0  0  0  0  0  0  0
  148.3245  139.2785  156.0277 H   0  0  0  0  0  0  0  0  0  0  0  0
  148.1111  138.6821  153.0425 H   0  0  0  0  0  0  0  0  0  0  0  0
  147.3182  137.8213  154.3370 H   0  0  0  0  0  0  0  0  0  0  0  0
  145.7652  139.4365  153.2280 H   0  0  0  0  0  0  0  0  0  0  0  0
  145.9809  139.8151  154.9212 H   0  0  0  0  0  0  0  0  0  0  0  0
  147.3798  141.1891  152.5754 H   0  0  0  0  0  0  0  0  0  0  0  0
  146.1315  141.8834  153.5778 H   0  0  0  0  0  0  0  0  0  0  0  0
  147.5839  141.8371  155.5510 H   0  0  0  0  0  0  0  0  0  0  0  0
  148.3826  142.6881  154.2568 H   0  0  0  0  0  0  0  0  0  0  0  0
  152.9377  141.1625  160.3289 H   0  0  0  0  0  0  0  0  0  0  0  0
  1  2  1  0  0  0  0
  1 19  1  0  0  0  0
  1 20  1  0  0  0  0
  1 21  1  0  0  0  0
  2 18  2  0  0  0  0
  2  3  1  0  0  0  0
  3  4  2  0  0  0  0
  3 22  1  0  0  0  0
  4  5  1  0  0  0  0
  5  6  1  0  0  0  0
  5 18  1  0  0  0  0
  6  7  1  0  0  0  0
  6 23  1  0  0  0  0
  6 24  1  0  0  0  0
  7  8  1  0  0  0  0
  7  9  1  0  0  0  0
  7 25  1  0  0  0  0
  8 26  1  0  0  0  0
  8 27  1  0  0  0  0
  8 28  1  0  0  0  0
  9 10  1  0  0  0  0
  9 29  1  0  0  0  0
 10 11  1  0  0  0  0
 10 30  1  0  0  0  0
 10 31  1  0  0  0  0
 11 17  1  0  0  0  0
 11 12  1  0  0  0  0
 11 13  1  0  0  0  0
 12 32  1  0  0  0  0
 13 14  1  0  0  0  0
 13 33  1  0  0  0  0
 13 34  1  0  0  0  0
 14 15  1  0  0  0  0
 14 35  1  0  0  0  0
 14 36  1  0  0  0  0
 15 16  1  0  0  0  0
 15 37  1  0  0  0  0
 15 38  1  0  0  0  0
 16 17  1  0  0  0  0
 16 39  1  0  0  0  0
 16 40  1  0  0  0  0
 17 41  1  0  0  0  0
 17 42  1  0  0  0  0
 18 43  1  0  0  0  0
M  END
> <s_m_source_file>
AV-unprocessed.smi

> <i_m_source_file_index>
3240

> <i_lp_mmshare_version>
43012

> <i_f3d_flags>
0

> <s_epik_input>
W0NIM11jMVtjSF1ubihbY0hdMSlbQ0gyXVtDQEhdKFtDSDNdKVtOSF1bQ0gyXUMyKFtPSF0pW0NIMl1bQ0gyXVtDSDJdW0NIMl1bQ0gyXTI=

> <s_epik_cmdline>
J2VwaWtfcHl0aG9uJywgJy1waCcsICc3LjAnLCAnLXRuJywgJzgnLCAnLW1hJywgJzIwMCcsICctbWV0YWxfYmluZGluZycsICctaW1hZScsICc8aW5maWxlLm1hZT4nLCAnLW9tYWUnLCAnPG91dGZpbGUubWFlPic=

> <r_lp_tautomer_probability>
1

> <r_epik_Ionization_Penalty>
2.35969

> <r_epik_Ionization_Penalty_Charging>
0

> <r_epik_Ionization_Penalty_Neutral>
2.35969

> <r_epik_State_Penalty>
2.51455

> <r_epik_Charging_Adjusted_Penalty>
2.51455

> <i_epik_Tot_Q>
0

> <i_epik_Tot_abs_Q>
0

> <r_epik_Metal_State_Penalty>
2.51446

> <b_epik_Metal_Only>
0

> <s_lp_Force_Field>
OPLS_2005

> <r_lp_Energy>
22.0798

> <b_lp_Chiralities_Consistent>
1

> <s_lp_Variant>
AV-unprocessed.smi:3240-3

> <Gold.Version>
5.8.1

> <Gold.Id.Protein>
6NUR|6NUR_protein|mol2

> <Gold.PLP.Fitness>
45.2153

> <Gold.PLP.PLP>
-40.0968

> <Gold.PLP.part.hbond>
-2.0276

> <Gold.PLP.part.metal>
0.0000

> <Gold.PLP.part.buried>
-3.9701

> <Gold.PLP.part.nonpolar>
-33.9432

> <Gold.PLP.part.repulsive>
0.0591

> <Gold.PLP.ligand.clash>
0.0000

> <Gold.PLP.ligand.torsion>
0.3768

> <Gold.PLP.Chemscore.Hbond>
1.9260

> <Gold.PLP.Chemscore.CHOScore>
0.0000

> <Gold.PLP.Chemscore.Metal>
0.0000

> <Gold.Chemscore.Hbonds>
donor molecule, donor type, donor heavy atom, donor atom, acceptor molecule, acceptor atom, score
      L1  H    12    32       P1  7957  0.48
      P1  H  7989  7998       L1    12  0.42
      P1  H  8011  8017       L1    12  0.84

> <Gold.PLP.Chemscore.Internal.Correction>
0.0941

> <Gold.Rescore>
     Score         DG    S(hbond)    S(metal)    S(lipo)     H(rot)  DE(clash)    DE(int)     intcor
     16.06     -16.66       1.22        0.00     105.35       2.04       0.09       0.51       ----

> <Gold.Chemscore.Fitness>
16.0622

> <Gold.Chemscore.DG>
-16.6582

> <Gold.Chemscore.ZeroCoef>
-5.4800

> <Gold.Chemscore.Hbond>
1.2235

> <Gold.Chemscore.Metal>
0.0000

> <Gold.Chemscore.Lipo>
105.3520

> <Gold.Chemscore.Internal_Hbond>
0.0000

> <Gold.Chemscore.DEClash>
0.0904

> <Gold.Chemscore.DEInternal>
0.5056

> <Gold.Chemscore.Rot>
2.0447

> <Gold.Chemscore.Internal.Correction>
   9.000000E+99

> <Gold.Chemscore.Hbonds>
donor molecule, donor type, donor heavy atom, donor atom, acceptor molecule, acceptor atom, score
      L1  H    12    32       P1  7957  0.48
      P1  H  7989  7998       L1    12  0.40
      P1  H  8011  8017       L1    12  0.25

> <Gold.Chemscore.Hbond.Weighted>
-4.0864

> <Gold.Chemscore.Metal.Weighted>
-0.0000

> <Gold.Chemscore.Lipo.Weighted>
-12.3262

> <Gold.Chemscore.Internal_Hbond.Weighted>
0.0000

> <Gold.Chemscore.DEClash.Weighted>
0.0904

> <Gold.Chemscore.DEInternal.Weighted>
0.5056

> <Gold.Chemscore.Rot.Weighted>
5.2344

> <Gold.Chemscore.Internal.Correction.Weighted>
   9.000000E+99

> <Gold.Protein.RotatedTorsions>
[ 6907 6896 6895 6894 ] final  139.66 input  -60.11 | X-H torsion
[ 7974 7965 7964 7962 ] final   25.91 input  175.53 | X-H torsion
[ 8008 7997 7996 7995 ] final   89.73 input   59.86 | X-H torsion
[ 10167 10162 10161 10158 ] final  175.01 input  -65.29 | X-H torsion
[ 10718 10713 10712 10709 ] final   17.09 input   66.30 | X-H torsion
[ 10763 10752 10751 10750 ] final -172.54 input  -60.55 | X-H torsion
[ 11005 11000 10999 10996 ] final  161.12 input  -57.11 | X-H torsion

> <Gold.Protein.ActiveResidues>
 VAL166  LYS551  ARG553  GLY616  TRP617  ASP618  TYR619  PRO620  LYS621  CYS622 
 ASP623  PHE694  ASN695  SER759  ASP760  ASP761  ALA762  ILE779  LEU786  VAL792 
 PHE793  MET794  SER795  GLU796  ALA797  LYS798  CYS799  TRP800  GLU811  SER814 

> <Gold.Protein.RotatedAtoms>
  152.2523  133.5225  159.5332 H   0  0  0  0  0  0  0  0  0  0  0  0  # atno 6907 bound_to 6896
  150.7097  134.0944  159.3952 H   0  0  0  0  0  0  0  0  0  0  0  0  # atno 6908 bound_to 6896
  151.8863  135.0434  160.0544 H   0  0  0  0  0  0  0  0  0  0  0  0  # atno 6909 bound_to 6896
  146.1865  139.7401  142.8863 H   0  0  0  0  0  0  0  0  0  0  0  0  # atno 7974 bound_to 7965
  156.0035  140.3357  155.6869 H   0  0  0  0  0  0  0  0  0  0  0  0  # atno 8008 bound_to 7997
  155.6257  140.0679  157.2682 H   0  0  0  0  0  0  0  0  0  0  0  0  # atno 8009 bound_to 7997
  154.4257  140.1768  156.1406 H   0  0  0  0  0  0  0  0  0  0  0  0  # atno 8010 bound_to 7997
  139.5162  144.3081  152.0317 H   0  0  0  0  0  0  0  0  0  0  0  0  # atno 10167 bound_to 10162
  157.0772  130.6373  149.5818 H   0  0  0  0  0  0  0  0  0  0  0  0  # atno 10718 bound_to 10713
  154.6181  135.2872  155.0357 H   0  0  0  0  0  0  0  0  0  0  0  0  # atno 10763 bound_to 10752
  154.1562  135.6495  153.4979 H   0  0  0  0  0  0  0  0  0  0  0  0  # atno 10764 bound_to 10752
  153.0224  135.5367  154.6960 H   0  0  0  0  0  0  0  0  0  0  0  0  # atno 10765 bound_to 10752
  140.2126  134.8256  157.3137 H   0  0  0  0  0  0  0  0  0  0  0  0  # atno 11005 bound_to 11000
  145.3923  141.0374  143.3117 LP  0  0  0  0  0  0  0  0  0  0  0  0  # atno 17320 bound_to 7965
  144.8406  139.5478  143.6902 LP  0  0  0  0  0  0  0  0  0  0  0  0  # atno 17321 bound_to 7965
  140.2527  144.4152  150.6216 LP  0  0  0  0  0  0  0  0  0  0  0  0  # atno 17342 bound_to 10162
  140.6213  143.2176  151.6687 LP  0  0  0  0  0  0  0  0  0  0  0  0  # atno 17343 bound_to 10162
  155.9933  130.4994  150.7377 LP  0  0  0  0  0  0  0  0  0  0  0  0  # atno 17370 bound_to 10713
  157.4829  131.0904  151.0515 LP  0  0  0  0  0  0  0  0  0  0  0  0  # atno 17371 bound_to 10713
  140.1934  134.4343  155.7703 LP  0  0  0  0  0  0  0  0  0  0  0  0  # atno 17394 bound_to 11000
  141.2226  133.7038  156.8065 LP  0  0  0  0  0  0  0  0  0  0  0  0  # atno 17395 bound_to 11000

$$$$
