AV-unprocessed.smi:2337|AV-procd|sdf|9333|dock1
  -GOLD-   2272012553D 1   1.00000     0.00000
 Structure written by MMmdl.
 45 46  0  0  0  0  0  0  0  0  1 V2000
  157.3424  138.2514  166.0750 C   0  0  0  0  0  0  0  0  0  0  0  0
  157.0010  137.0253  165.4415 O   0  0  0  0  0  0  0  0  0  0  0  0
  156.0604  137.1156  164.3706 C   0  0  0  0  0  0  0  0  0  0  0  0
  156.6386  137.8666  163.1632 C   0  0  0  0  0  0  0  0  0  0  0  0
  155.5888  138.1884  162.2058 N   0  0  0  0  0  0  0  0  0  0  0  0
  155.2716  139.4294  161.8156 C   0  0  0  0  0  0  0  0  0  0  0  0
  155.8394  140.4378  162.2364 O   0  0  0  0  0  0  0  0  0  0  0  0
  154.2724  139.4161  160.9167 N   0  0  0  0  0  0  0  0  0  0  0  0
  153.6425  140.5248  160.2926 C   0  0  0  0  0  0  0  0  0  0  0  0
  153.7701  141.7533  160.9711 C   0  0  0  0  0  0  0  0  0  0  0  0
  153.1750  142.8949  160.4085 C   0  0  0  0  0  0  0  0  0  0  0  0
  152.4813  142.7411  159.1869 C   0  0  0  0  0  0  0  0  0  0  0  0
  151.7905  143.9075  158.4575 C   0  0  0  0  0  0  0  0  0  0  0  0
  150.7779  144.5880  159.4021 C   0  0  0  0  0  0  0  0  0  0  0  0
  151.0637  143.3788  157.2037 C   0  0  0  0  0  0  0  0  0  0  0  0
  152.7916  144.9898  157.9937 C   0  0  0  0  0  0  0  0  0  0  0  0
  152.3942  141.5318  158.5806 N   0  0  0  0  0  0  0  0  0  0  0  0
  152.9608  140.4495  159.1221 N   0  0  0  0  0  0  0  0  0  0  0  0
  155.4800  135.7095  164.1269 C   0  0  0  0  0  0  0  0  0  0  0  0
  154.0851  136.3359  164.0766 C   0  0  0  0  0  0  0  0  0  0  0  0
  154.6584  137.5017  164.8838 C   0  0  0  0  0  0  0  0  0  0  0  0
  157.9838  138.0442  166.9313 H   0  0  0  0  0  0  0  0  0  0  0  0
  156.4625  138.7801  166.4418 H   0  0  0  0  0  0  0  0  0  0  0  0
  157.8959  138.9118  165.4081 H   0  0  0  0  0  0  0  0  0  0  0  0
  157.1170  138.7907  163.4915 H   0  0  0  0  0  0  0  0  0  0  0  0
  157.4170  137.2858  162.6682 H   0  0  0  0  0  0  0  0  0  0  0  0
  155.0781  137.4115  161.8120 H   0  0  0  0  0  0  0  0  0  0  0  0
  153.9175  138.5090  160.6528 H   0  0  0  0  0  0  0  0  0  0  0  0
  154.3120  141.8239  161.9029 H   0  0  0  0  0  0  0  0  0  0  0  0
  153.2643  143.8429  160.9155 H   0  0  0  0  0  0  0  0  0  0  0  0
  150.2855  145.4311  158.9161 H   0  0  0  0  0  0  0  0  0  0  0  0
  151.2677  144.9662  160.3002 H   0  0  0  0  0  0  0  0  0  0  0  0
  149.9939  143.9001  159.7208 H   0  0  0  0  0  0  0  0  0  0  0  0
  150.2874  142.6570  157.4598 H   0  0  0  0  0  0  0  0  0  0  0  0
  151.7588  142.8858  156.5230 H   0  0  0  0  0  0  0  0  0  0  0  0
  150.5810  144.1868  156.6530 H   0  0  0  0  0  0  0  0  0  0  0  0
  152.2815  145.8065  157.4814 H   0  0  0  0  0  0  0  0  0  0  0  0
  153.5264  144.5872  157.2954 H   0  0  0  0  0  0  0  0  0  0  0  0
  153.3296  145.4285  158.8350 H   0  0  0  0  0  0  0  0  0  0  0  0
  155.7940  135.2357  163.1962 H   0  0  0  0  0  0  0  0  0  0  0  0
  155.6052  135.0377  164.9780 H   0  0  0  0  0  0  0  0  0  0  0  0
  153.7848  136.6244  163.0680 H   0  0  0  0  0  0  0  0  0  0  0  0
  153.3079  135.7650  164.5852 H   0  0  0  0  0  0  0  0  0  0  0  0
  154.5357  137.3598  165.9591 H   0  0  0  0  0  0  0  0  0  0  0  0
  154.3100  138.4853  164.5674 H   0  0  0  0  0  0  0  0  0  0  0  0
  1  2  1  0  0  0  0
  1 22  1  0  0  0  0
  1 23  1  0  0  0  0
  1 24  1  0  0  0  0
  2  3  1  0  0  0  0
  3 21  1  0  0  0  0
  3  4  1  0  0  0  0
  3 19  1  0  0  0  0
  4  5  1  0  0  0  0
  4 25  1  0  0  0  0
  4 26  1  0  0  0  0
  5  6  1  0  0  0  0
  5 27  1  0  0  0  0
  6  7  2  0  0  0  0
  6  8  1  0  0  0  0
  8  9  1  0  0  0  0
  8 28  1  0  0  0  0
  9 18  1  0  0  0  0
  9 10  2  0  0  0  0
 10 11  1  0  0  0  0
 10 29  1  0  0  0  0
 11 12  2  0  0  0  0
 11 30  1  0  0  0  0
 12 13  1  0  0  0  0
 12 17  1  0  0  0  0
 13 14  1  0  0  0  0
 13 15  1  0  0  0  0
 13 16  1  0  0  0  0
 14 31  1  0  0  0  0
 14 32  1  0  0  0  0
 14 33  1  0  0  0  0
 15 34  1  0  0  0  0
 15 35  1  0  0  0  0
 15 36  1  0  0  0  0
 16 37  1  0  0  0  0
 16 38  1  0  0  0  0
 16 39  1  0  0  0  0
 17 18  2  0  0  0  0
 19 20  1  0  0  0  0
 19 40  1  0  0  0  0
 19 41  1  0  0  0  0
 20 21  1  0  0  0  0
 20 42  1  0  0  0  0
 20 43  1  0  0  0  0
 21 44  1  0  0  0  0
 21 45  1  0  0  0  0
M  END
> <s_m_source_file>
AV-unprocessed.smi

> <i_m_source_file_index>
2337

> <i_lp_mmshare_version>
43012

> <i_f3d_flags>
0

> <s_epik_input>
W0NIMl0xW0NIMl1bQ0gyXUMxKE9bQ0gzXSlbQ0gyXVtOSF1DKD1PKVtOSF1jMltjSF1bY0hdYyhubjIpQyhbQ0gzXSkoW0NIM10pW0NIM10=

> <s_epik_cmdline>
J2VwaWtfcHl0aG9uJywgJy1waCcsICc3LjAnLCAnLXRuJywgJzgnLCAnLW1hJywgJzIwMCcsICctbWV0YWxfYmluZGluZycsICctaW1hZScsICc8aW5maWxlLm1hZT4nLCAnLW9tYWUnLCAnPG91dGZpbGUubWFlPic=

> <r_lp_tautomer_probability>
1

> <r_epik_Ionization_Penalty>
0.00977348

> <r_epik_Ionization_Penalty_Charging>
0

> <r_epik_Ionization_Penalty_Neutral>
0.00977348

> <r_epik_State_Penalty>
-0

> <r_epik_Charging_Adjusted_Penalty>
0

> <i_epik_Tot_Q>
0

> <i_epik_Tot_abs_Q>
0

> <r_epik_Metal_State_Penalty>
-0

> <b_epik_Metal_Only>
0

> <s_lp_Force_Field>
OPLS_2005

> <r_lp_Energy>
23.2497

> <b_lp_Chiralities_Consistent>
1

> <s_lp_Variant>
AV-unprocessed.smi:2337-1

> <Gold.Version>
5.8.1

> <Gold.Id.Protein>
6NUR|6NUR_protein|mol2

> <Gold.PLP.Fitness>
40.0644

> <Gold.PLP.PLP>
-40.5889

> <Gold.PLP.part.hbond>
-1.0000

> <Gold.PLP.part.metal>
0.0000

> <Gold.PLP.part.buried>
-3.6815

> <Gold.PLP.part.nonpolar>
-35.5237

> <Gold.PLP.part.repulsive>
0.0922

> <Gold.PLP.ligand.clash>
0.0000

> <Gold.PLP.ligand.torsion>
0.4279

> <Gold.PLP.Chemscore.Hbond>
0.0000

> <Gold.PLP.Chemscore.CHOScore>
0.0000

> <Gold.PLP.Chemscore.Metal>
0.0000

> <Gold.PLP.Chemscore.Internal.Correction>
0.3314

> <Gold.Rescore>
     Score         DG    S(hbond)    S(metal)    S(lipo)     H(rot)  DE(clash)    DE(int)     intcor
     11.84     -14.79       0.00        0.00     113.74       1.56       0.17       2.78       ----

> <Gold.Chemscore.Fitness>
11.8418

> <Gold.Chemscore.DG>
-14.7946

> <Gold.Chemscore.ZeroCoef>
-5.4800

> <Gold.Chemscore.Hbond>
0.0000

> <Gold.Chemscore.Metal>
0.0000

> <Gold.Chemscore.Lipo>
113.7429

> <Gold.Chemscore.Internal_Hbond>
0.0000

> <Gold.Chemscore.DEClash>
0.1713

> <Gold.Chemscore.DEInternal>
2.7815

> <Gold.Chemscore.Rot>
1.5599

> <Gold.Chemscore.Internal.Correction>
   9.000000E+99

> <Gold.Chemscore.Hbond.Weighted>
-0.0000

> <Gold.Chemscore.Metal.Weighted>
-0.0000

> <Gold.Chemscore.Lipo.Weighted>
-13.3079

> <Gold.Chemscore.Internal_Hbond.Weighted>
0.0000

> <Gold.Chemscore.DEClash.Weighted>
0.1713

> <Gold.Chemscore.DEInternal.Weighted>
2.7815

> <Gold.Chemscore.Rot.Weighted>
3.9933

> <Gold.Chemscore.Internal.Correction.Weighted>
   9.000000E+99

> <Gold.Protein.RotatedTorsions>
[ 6907 6896 6895 6894 ] final  -21.46 input  -60.11 | X-H torsion
[ 7974 7965 7964 7962 ] final  -48.82 input  175.53 | X-H torsion
[ 8008 7997 7996 7995 ] final -116.82 input   59.86 | X-H torsion
[ 10167 10162 10161 10158 ] final   44.92 input  -65.29 | X-H torsion
[ 10718 10713 10712 10709 ] final   37.68 input   66.30 | X-H torsion
[ 10763 10752 10751 10750 ] final   68.19 input  -60.55 | X-H torsion
[ 11005 11000 10999 10996 ] final -128.25 input  -57.11 | X-H torsion

> <Gold.Protein.ActiveResidues>
 VAL166  LYS551  ARG553  GLY616  TRP617  ASP618  TYR619  PRO620  LYS621  CYS622 
 ASP623  PHE694  ASN695  SER759  ASP760  ASP761  ALA762  ILE779  LEU786  VAL792 
 PHE793  MET794  SER795  GLU796  ALA797  LYS798  CYS799  TRP800  GLU811  SER814 

> <Gold.Protein.RotatedAtoms>
  151.2330  135.0561  159.8994 H   0  0  0  0  0  0  0  0  0  0  0  0  # atno 6907 bound_to 6896
  152.5402  134.0517  159.8123 H   0  0  0  0  0  0  0  0  0  0  0  0  # atno 6908 bound_to 6896
  151.0699  133.5426  159.2659 H   0  0  0  0  0  0  0  0  0  0  0  0  # atno 6909 bound_to 6896
  145.9471  140.7608  142.9523 H   0  0  0  0  0  0  0  0  0  0  0  0  # atno 7974 bound_to 7965
  155.0738  140.0393  157.2617 H   0  0  0  0  0  0  0  0  0  0  0  0  # atno 8008 bound_to 7997
  154.6961  140.2663  155.6740 H   0  0  0  0  0  0  0  0  0  0  0  0  # atno 8009 bound_to 7997
  156.2745  140.2750  156.1556 H   0  0  0  0  0  0  0  0  0  0  0  0  # atno 8010 bound_to 7997
  140.3294  144.2607  150.6170 H   0  0  0  0  0  0  0  0  0  0  0  0  # atno 10167 bound_to 10162
  157.3498  130.7592  149.6970 H   0  0  0  0  0  0  0  0  0  0  0  0  # atno 10718 bound_to 10713
  153.0223  135.5256  154.7096 H   0  0  0  0  0  0  0  0  0  0  0  0  # atno 10763 bound_to 10752
  154.6182  135.2886  155.0358 H   0  0  0  0  0  0  0  0  0  0  0  0  # atno 10764 bound_to 10752
  154.1354  135.6586  153.4983 H   0  0  0  0  0  0  0  0  0  0  0  0  # atno 10765 bound_to 10752
  140.9532  134.1038  157.4042 H   0  0  0  0  0  0  0  0  0  0  0  0  # atno 11005 bound_to 11000
  144.6789  140.2374  143.7348 LP  0  0  0  0  0  0  0  0  0  0  0  0  # atno 17320 bound_to 7965
  145.8222  139.2048  143.1931 LP  0  0  0  0  0  0  0  0  0  0  0  0  # atno 17321 bound_to 7965
  140.5411  143.2223  151.8083 LP  0  0  0  0  0  0  0  0  0  0  0  0  # atno 17342 bound_to 10162
  139.4859  144.4599  151.9554 LP  0  0  0  0  0  0  0  0  0  0  0  0  # atno 17343 bound_to 10162
  155.9720  130.4144  150.4129 LP  0  0  0  0  0  0  0  0  0  0  0  0  # atno 17370 bound_to 10713
  157.2190  131.0478  151.2557 LP  0  0  0  0  0  0  0  0  0  0  0  0  # atno 17371 bound_to 10713
  139.8854  135.0072  156.6431 LP  0  0  0  0  0  0  0  0  0  0  0  0  # atno 17394 bound_to 11000
  140.7573  133.8846  155.8392 LP  0  0  0  0  0  0  0  0  0  0  0  0  # atno 17395 bound_to 11000

$$$$
