AV-unprocessed.smi:1512|AV-procd|sdf|6105|dock1
  -GOLD-   22720 6233D 1   1.00000     0.00000
 Structure written by MMmdl.
 44 46  0  0  0  0  0  0  0  0  3 V2000
  144.9529  136.1758  152.5736 C   0  0  0  0  0  0  0  0  0  0  0  0
  146.0328  135.1352  152.2340 C   0  0  1  0  0  0  0  0  0  0  0  0
  147.1795  135.2988  153.1207 N   0  0  0  0  0  0  0  0  0  0  0  0
  147.1420  135.3998  154.4602 C   0  0  0  0  0  0  0  0  0  0  0  0
  146.1103  135.2547  155.1141 O   0  0  0  0  0  0  0  0  0  0  0  0
  148.4534  135.7427  155.1895 C   0  0  0  0  0  0  0  0  0  0  0  0
  149.0651  137.0229  154.7823 N   0  0  0  0  0  0  0  0  0  0  0  0
  148.1881  138.0849  154.4925 C   0  0  0  0  0  0  0  0  0  0  0  0
  148.6366  139.2986  154.1421 C   0  0  0  0  0  0  0  0  0  0  0  0
  150.0626  139.5082  154.0795 C   0  0  0  0  0  0  0  0  0  0  0  0
  150.9250  138.5030  154.3543 C   0  0  0  0  0  0  0  0  0  0  0  0
  152.3400  138.7868  154.3022 N   0  3  0  0  0  0  0  0  0  0  0  0
  153.1279  137.8502  154.2109 O   0  0  0  0  0  0  0  0  0  0  0  0
  152.7057  139.9564  154.3688 O   0  5  0  0  0  0  0  0  0  0  0  0
  150.4267  137.1591  154.7110 C   0  0  0  0  0  0  0  0  0  0  0  0
  151.1760  136.2081  154.9406 O   0  0  0  0  0  0  0  0  0  0  0  0
  145.5143  133.6834  152.3624 C   0  0  2  0  0  0  0  0  0  0  0  0
  146.5733  132.5840  152.1098 C   0  0  0  0  0  0  0  0  0  0  0  0
  145.8604  131.6377  151.1268 C   0  0  2  0  0  0  0  0  0  0  0  0
  145.8141  132.3014  149.7386 C   0  0  0  0  0  0  0  0  0  0  0  0
  144.7578  133.4055  149.9277 C   0  0  0  0  0  0  0  0  0  0  0  0
  144.3670  133.2575  151.4131 C   0  0  1  0  0  0  0  0  0  0  0  0
  144.4061  131.7407  151.5740 C   0  0  0  0  0  0  0  0  0  0  0  0
  144.1037  136.0992  151.8945 H   0  0  0  0  0  0  0  0  0  0  0  0
  145.3424  137.1910  152.4912 H   0  0  0  0  0  0  0  0  0  0  0  0
  144.5803  136.0437  153.5898 H   0  0  0  0  0  0  0  0  0  0  0  0
  146.3737  135.3044  151.2126 H   0  0  0  0  0  0  0  0  0  0  0  0
  148.0755  135.4180  152.6709 H   0  0  0  0  0  0  0  0  0  0  0  0
  148.2619  135.7487  156.2640 H   0  0  0  0  0  0  0  0  0  0  0  0
  149.1490  134.9174  155.0330 H   0  0  0  0  0  0  0  0  0  0  0  0
  147.1364  137.8519  154.5750 H   0  0  0  0  0  0  0  0  0  0  0  0
  147.9482  140.1019  153.9236 H   0  0  0  0  0  0  0  0  0  0  0  0
  150.4338  140.4912  153.8280 H   0  0  0  0  0  0  0  0  0  0  0  0
  145.1502  133.5583  153.3842 H   0  0  0  0  0  0  0  0  0  0  0  0
  147.5034  132.9707  151.6906 H   0  0  0  0  0  0  0  0  0  0  0  0
  146.8217  132.0718  153.0403 H   0  0  0  0  0  0  0  0  0  0  0  0
  146.2718  130.6281  151.1155 H   0  0  0  0  0  0  0  0  0  0  0  0
  146.7836  132.7002  149.4377 H   0  0  0  0  0  0  0  0  0  0  0  0
  145.4938  131.5902  148.9763 H   0  0  0  0  0  0  0  0  0  0  0  0
  145.1285  134.3963  149.6693 H   0  0  0  0  0  0  0  0  0  0  0  0
  143.8950  133.2114  149.2894 H   0  0  0  0  0  0  0  0  0  0  0  0
  143.4058  133.7101  151.6578 H   0  0  0  0  0  0  0  0  0  0  0  0
  143.7120  131.2165  150.9148 H   0  0  0  0  0  0  0  0  0  0  0  0
  144.2441  131.4066  152.6006 H   0  0  0  0  0  0  0  0  0  0  0  0
  1  2  1  0  0  0  0
  1 24  1  0  0  0  0
  1 25  1  0  0  0  0
  1 26  1  0  0  0  0
  2  3  1  0  0  0  0
  2 17  1  0  0  0  0
  2 27  1  0  0  0  0
  3  4  1  0  0  0  0
  3 28  1  0  0  0  0
  4  5  2  0  0  0  0
  4  6  1  0  0  0  0
  6  7  1  0  0  0  0
  6 29  1  0  0  0  0
  6 30  1  0  0  0  0
  7 15  1  0  0  0  0
  7  8  1  0  0  0  0
  8  9  2  0  0  0  0
  8 31  1  0  0  0  0
  9 10  1  0  0  0  0
  9 32  1  0  0  0  0
 10 11  2  0  0  0  0
 10 33  1  0  0  0  0
 11 12  1  0  0  0  0
 11 15  1  0  0  0  0
 12 13  2  0  0  0  0
 12 14  1  0  0  0  0
 15 16  2  0  0  0  0
 17 22  1  0  0  0  0
 17 18  1  0  0  0  0
 17 34  1  0  0  0  0
 18 19  1  0  0  0  0
 18 35  1  0  0  0  0
 18 36  1  0  0  0  0
 19 23  1  0  0  0  0
 19 20  1  0  0  0  0
 19 37  1  0  0  0  0
 20 21  1  0  0  0  0
 20 38  1  0  0  0  0
 20 39  1  0  0  0  0
 21 22  1  0  0  0  0
 21 40  1  0  0  0  0
 21 41  1  0  0  0  0
 22 23  1  0  0  0  0
 22 42  1  0  0  0  0
 23 43  1  0  0  0  0
 23 44  1  0  0  0  0
M  CHG  1  12   1
M  CHG  1  14  -1
M  END
> <s_m_source_file>
AV-unprocessed.smi

> <i_m_source_file_index>
1512

> <i_lp_mmshare_version>
43012

> <i_f3d_flags>
0

> <s_epik_input>
W0NIMl0xW0NIMl1bQ0BIXShbQ0gyXTIpW0NAQEhdKFtDSDJdW0NAQEhdMTIpW0NASF0oW0NIM10pW05IXUMoPU8pW0NIMl1uM1tjSF1bY0hdW2NIXWMoW04rXSg9TylbTy1dKWMzPU8=

> <s_epik_cmdline>
J2VwaWtfcHl0aG9uJywgJy1waCcsICc3LjAnLCAnLXRuJywgJzgnLCAnLW1hJywgJzIwMCcsICctbWV0YWxfYmluZGluZycsICctaW1hZScsICc8aW5maWxlLm1hZT4nLCAnLW9tYWUnLCAnPG91dGZpbGUubWFlPic=

> <r_lp_tautomer_probability>
1

> <r_epik_Ionization_Penalty>
2.17697e-08

> <r_epik_Ionization_Penalty_Charging>
1.42735e-10

> <r_epik_Ionization_Penalty_Neutral>
2.16269e-08

> <r_epik_State_Penalty>
-0

> <r_epik_Charging_Adjusted_Penalty>
1.42735e-10

> <i_epik_Tot_Q>
0

> <i_epik_Tot_abs_Q>
2

> <r_epik_Metal_State_Penalty>
-0

> <b_epik_Metal_Only>
0

> <s_lp_Force_Field>
OPLS_2005

> <r_lp_Energy>
64.4109

> <b_lp_Chiralities_Consistent>
1

> <s_lp_Variant>
AV-unprocessed.smi:1512-6

> <Gold.Version>
5.8.1

> <Gold.Id.Protein>
6NUR|6NUR_protein|mol2

> <Gold.PLP.Fitness>
44.7803

> <Gold.PLP.PLP>
-36.0525

> <Gold.PLP.part.hbond>
-4.4042

> <Gold.PLP.part.metal>
0.0000

> <Gold.PLP.part.buried>
-2.4942

> <Gold.PLP.part.nonpolar>
-29.2878

> <Gold.PLP.part.repulsive>
0.2397

> <Gold.PLP.ligand.clash>
0.0000

> <Gold.PLP.ligand.torsion>
0.6442

> <Gold.PLP.Chemscore.Hbond>
3.3225

> <Gold.PLP.Chemscore.CHOScore>
0.0000

> <Gold.PLP.Chemscore.Metal>
0.0000

> <Gold.Chemscore.Hbonds>
donor molecule, donor type, donor heavy atom, donor atom, acceptor molecule, acceptor atom, score
      L1  H     3    28       P1  7948  0.73
      P1  H  7989  7998       L1    14  0.35
      P1  H  7997  8010       L1    14  0.29
      P1  H 10752 10765       L1    16  1.00

> <Gold.PLP.Chemscore.Internal.Correction>
0.0487

> <Gold.Rescore>
     Score         DG    S(hbond)    S(metal)    S(lipo)     H(rot)  DE(clash)    DE(int)     intcor
     17.09     -20.20       3.16        0.00      73.82       1.75       0.03       3.08       ----

> <Gold.Chemscore.Fitness>
17.0897

> <Gold.Chemscore.DG>
-20.2011

> <Gold.Chemscore.ZeroCoef>
-5.4800

> <Gold.Chemscore.Hbond>
3.1609

> <Gold.Chemscore.Metal>
0.0000

> <Gold.Chemscore.Lipo>
73.8200

> <Gold.Chemscore.Internal_Hbond>
0.0000

> <Gold.Chemscore.DEClash>
0.0291

> <Gold.Chemscore.DEInternal>
3.0823

> <Gold.Chemscore.Rot>
1.7474

> <Gold.Chemscore.Internal.Correction>
   9.000000E+99

> <Gold.Chemscore.Hbonds>
donor molecule, donor type, donor heavy atom, donor atom, acceptor molecule, acceptor atom, score
      L1  H     3    28       P1  7948  0.69
      P1  H  7989  7998       L1    14  0.25
      P1  H  7997  8010       L1    14  0.24
      P1  H 10752 10765       L1    16  1.00

> <Gold.Chemscore.Hbond.Weighted>
-10.5575

> <Gold.Chemscore.Metal.Weighted>
-0.0000

> <Gold.Chemscore.Lipo.Weighted>
-8.6369

> <Gold.Chemscore.Internal_Hbond.Weighted>
0.0000

> <Gold.Chemscore.DEClash.Weighted>
0.0291

> <Gold.Chemscore.DEInternal.Weighted>
3.0823

> <Gold.Chemscore.Rot.Weighted>
4.4733

> <Gold.Chemscore.Internal.Correction.Weighted>
   9.000000E+99

> <Gold.Protein.RotatedTorsions>
[ 6907 6896 6895 6894 ] final -149.01 input  -60.11 | X-H torsion
[ 7974 7965 7964 7962 ] final   95.23 input  175.53 | X-H torsion
[ 8008 7997 7996 7995 ] final  107.84 input   59.86 | X-H torsion
[ 10167 10162 10161 10158 ] final  -66.60 input  -65.29 | X-H torsion
[ 10718 10713 10712 10709 ] final    2.41 input   66.30 | X-H torsion
[ 10763 10752 10751 10750 ] final  174.45 input  -60.55 | X-H torsion
[ 11005 11000 10999 10996 ] final    2.68 input  -57.11 | X-H torsion

> <Gold.Protein.ActiveResidues>
 VAL166  LYS551  ARG553  GLY616  TRP617  ASP618  TYR619  PRO620  LYS621  CYS622 
 ASP623  PHE694  ASN695  SER759  ASP760  ASP761  ALA762  ILE779  LEU786  VAL792 
 PHE793  MET794  SER795  GLU796  ALA797  LYS798  CYS799  TRP800  GLU811  SER814 

> <Gold.Protein.RotatedAtoms>
  151.1781  133.4742  159.2593 H   0  0  0  0  0  0  0  0  0  0  0  0  # atno 6907 bound_to 6896
  151.1287  135.0119  159.8582 H   0  0  0  0  0  0  0  0  0  0  0  0  # atno 6908 bound_to 6896
  152.5459  134.1685  159.8640 H   0  0  0  0  0  0  0  0  0  0  0  0  # atno 6909 bound_to 6896
  145.4550  139.2290  143.3019 H   0  0  0  0  0  0  0  0  0  0  0  0  # atno 7974 bound_to 7965
  156.1856  140.3087  155.9232 H   0  0  0  0  0  0  0  0  0  0  0  0  # atno 8008 bound_to 7997
  155.3288  140.0459  157.3059 H   0  0  0  0  0  0  0  0  0  0  0  0  # atno 8009 bound_to 7997
  154.5392  140.2256  155.8679 H   0  0  0  0  0  0  0  0  0  0  0  0  # atno 8010 bound_to 7997
  140.5645  143.2314  151.6662 H   0  0  0  0  0  0  0  0  0  0  0  0  # atno 10167 bound_to 10162
  156.8627  130.5592  149.5662 H   0  0  0  0  0  0  0  0  0  0  0  0  # atno 10718 bound_to 10713
  154.4540  135.2765  155.1761 H   0  0  0  0  0  0  0  0  0  0  0  0  # atno 10763 bound_to 10752
  154.3576  135.6136  153.5678 H   0  0  0  0  0  0  0  0  0  0  0  0  # atno 10764 bound_to 10752
  152.9849  135.5826  154.4890 H   0  0  0  0  0  0  0  0  0  0  0  0  # atno 10765 bound_to 10752
  140.6016  133.9830  155.8135 H   0  0  0  0  0  0  0  0  0  0  0  0  # atno 11005 bound_to 11000
  146.2483  140.5313  142.8904 LP  0  0  0  0  0  0  0  0  0  0  0  0  # atno 17320 bound_to 7965
  144.8038  140.6262  143.6460 LP  0  0  0  0  0  0  0  0  0  0  0  0  # atno 17321 bound_to 7965
  139.5086  144.3605  152.0567 LP  0  0  0  0  0  0  0  0  0  0  0  0  # atno 17342 bound_to 10162
  140.2735  144.3938  150.6143 LP  0  0  0  0  0  0  0  0  0  0  0  0  # atno 17343 bound_to 10162
  156.0768  130.5788  150.9489 LP  0  0  0  0  0  0  0  0  0  0  0  0  # atno 17370 bound_to 10713
  157.6241  131.0927  150.8567 LP  0  0  0  0  0  0  0  0  0  0  0  0  # atno 17371 bound_to 10713
  141.0868  133.9978  157.3300 LP  0  0  0  0  0  0  0  0  0  0  0  0  # atno 17394 bound_to 11000
  139.9230  135.0201  156.8133 LP  0  0  0  0  0  0  0  0  0  0  0  0  # atno 17395 bound_to 11000

$$$$
