AV-unprocessed.smi:148|AV-procd|sdf|1223|dock3
  -GOLD-   2262018413D 1   1.00000     0.00000
 Structure written by MMmdl.
 63 67  0  0  0  0  0  0  0  0  1 V2000
  147.9370  131.3382  152.8420 O   0  0  0  0  0  0  0  0  0  0  0  0
  147.7494  132.7311  152.9820 C   0  0  0  0  0  0  0  0  0  0  0  0
  146.2498  133.0861  153.1446 C   0  0  1  0  0  0  0  0  0  0  0  0
  146.0339  134.4211  153.9085 C   0  0  0  0  0  0  0  0  0  0  0  0
  146.1497  134.2791  155.3487 N   0  0  0  0  0  0  0  0  0  0  0  0
  145.1949  133.7853  156.2087 C   0  0  0  0  0  0  0  0  0  0  0  0
  145.5276  133.7914  157.4706 N   0  0  0  0  0  0  0  0  0  0  0  0
  146.8123  134.3216  157.4775 C   0  0  0  0  0  0  0  0  0  0  0  0
  147.7510  134.6431  158.4979 C   0  0  0  0  0  0  0  0  0  0  0  0
  147.5338  134.4810  159.8206 N   0  0  0  0  0  0  0  0  0  0  0  0
  147.4168  135.8001  160.4458 C   0  0  0  0  0  0  0  0  0  0  0  0
  146.8981  135.6968  161.8830 C   0  0  0  0  0  0  0  0  0  0  0  0
  147.8012  134.7666  162.6930 C   0  0  0  0  0  0  0  0  0  0  0  0
  147.8910  133.3996  162.0039 C   0  0  0  0  0  0  0  0  0  0  0  0
  148.3790  133.4965  160.5320 C   0  0  1  0  0  0  0  0  0  0  0  0
  148.3929  132.0695  159.8768 C   0  0  1  0  0  0  0  0  0  0  0  0
  149.2714  131.8707  158.6213 C   0  0  0  0  0  0  0  0  0  0  0  0
  149.5962  130.3731  158.5273 C   0  0  0  0  0  0  0  0  0  0  0  0
  149.1006  129.7461  159.8330 C   0  0  0  0  0  0  0  0  0  0  0  0
  148.8788  130.9207  160.7872 C   0  0  1  0  0  0  0  0  0  0  0  0
  150.1142  131.2379  161.4040 O   0  0  0  0  0  0  0  0  0  0  0  0
  148.9543  135.1438  158.1239 N   0  0  0  0  0  0  0  0  0  0  0  0
  149.2170  135.3496  156.8297 C   0  0  0  0  0  0  0  0  0  0  0  0
  148.4317  135.1301  155.7725 N   0  0  0  0  0  0  0  0  0  0  0  0
  147.2278  134.6107  156.1484 C   0  0  0  0  0  0  0  0  0  0  0  0
  145.4955  133.0193  151.7869 C   0  0  1  0  0  0  0  0  0  0  0  0
  145.5297  131.6915  151.0520 C   0  0  0  0  0  0  0  0  0  0  0  0
  144.4309  131.9007  150.0173 C   0  0  0  0  0  0  0  0  0  0  0  0
  143.4259  132.6441  150.6976 O   0  0  0  0  0  0  0  0  0  0  0  0
  143.9930  133.3291  151.8130 C   0  0  0  0  0  0  0  0  0  0  0  0
  148.1584  131.1531  151.9421 H   0  0  0  0  0  0  0  0  0  0  0  0
  148.3280  133.0355  153.8539 H   0  0  0  0  0  0  0  0  0  0  0  0
  148.1800  133.2425  152.1208 H   0  0  0  0  0  0  0  0  0  0  0  0
  145.8170  132.3061  153.7730 H   0  0  0  0  0  0  0  0  0  0  0  0
  146.7529  135.1742  153.5882 H   0  0  0  0  0  0  0  0  0  0  0  0
  145.0443  134.8286  153.7047 H   0  0  0  0  0  0  0  0  0  0  0  0
  144.2304  133.4351  155.8704 H   0  0  0  0  0  0  0  0  0  0  0  0
  148.3908  136.2921  160.4454 H   0  0  0  0  0  0  0  0  0  0  0  0
  146.7426  136.4322  159.8651 H   0  0  0  0  0  0  0  0  0  0  0  0
  146.8656  136.6850  162.3423 H   0  0  0  0  0  0  0  0  0  0  0  0
  145.8756  135.3166  161.8822 H   0  0  0  0  0  0  0  0  0  0  0  0
  148.7975  135.2008  162.7835 H   0  0  0  0  0  0  0  0  0  0  0  0
  147.4136  134.6536  163.7058 H   0  0  0  0  0  0  0  0  0  0  0  0
  148.5558  132.7740  162.5977 H   0  0  0  0  0  0  0  0  0  0  0  0
  146.9114  132.9201  162.0317 H   0  0  0  0  0  0  0  0  0  0  0  0
  149.3994  133.8810  160.5486 H   0  0  0  0  0  0  0  0  0  0  0  0
  147.3660  131.8290  159.5951 H   0  0  0  0  0  0  0  0  0  0  0  0
  148.7813  132.2070  157.7087 H   0  0  0  0  0  0  0  0  0  0  0  0
  150.2021  132.4299  158.7221 H   0  0  0  0  0  0  0  0  0  0  0  0
  149.1091  129.9103  157.6683 H   0  0  0  0  0  0  0  0  0  0  0  0
  150.6709  130.2285  158.4092 H   0  0  0  0  0  0  0  0  0  0  0  0
  148.1468  129.2494  159.6501 H   0  0  0  0  0  0  0  0  0  0  0  0
  149.7849  128.9941  160.2280 H   0  0  0  0  0  0  0  0  0  0  0  0
  148.1505  130.6642  161.5571 H   0  0  0  0  0  0  0  0  0  0  0  0
  150.4940  130.4405  161.7399 H   0  0  0  0  0  0  0  0  0  0  0  0
  150.1931  135.7565  156.6102 H   0  0  0  0  0  0  0  0  0  0  0  0
  145.9568  133.7435  151.1133 H   0  0  0  0  0  0  0  0  0  0  0  0
  146.4995  131.4738  150.6040 H   0  0  0  0  0  0  0  0  0  0  0  0
  145.2543  130.8600  151.6994 H   0  0  0  0  0  0  0  0  0  0  0  0
  144.8023  132.4938  149.1805 H   0  0  0  0  0  0  0  0  0  0  0  0
  144.0386  130.9630  149.6231 H   0  0  0  0  0  0  0  0  0  0  0  0
  143.5100  132.9580  152.7156 H   0  0  0  0  0  0  0  0  0  0  0  0
  143.7998  134.4005  151.7505 H   0  0  0  0  0  0  0  0  0  0  0  0
  1  2  1  0  0  0  0
  1 31  1  0  0  0  0
  2  3  1  0  0  0  0
  2 32  1  0  0  0  0
  2 33  1  0  0  0  0
  3  4  1  0  0  0  0
  3 26  1  0  0  0  0
  3 34  1  0  0  0  0
  4  5  1  0  0  0  0
  4 35  1  0  0  0  0
  4 36  1  0  0  0  0
  5 25  1  0  0  0  0
  5  6  1  0  0  0  0
  6  7  2  0  0  0  0
  6 37  1  0  0  0  0
  7  8  1  0  0  0  0
  8 25  2  0  0  0  0
  8  9  1  0  0  0  0
  9 10  1  0  0  0  0
  9 22  2  0  0  0  0
 10 15  1  0  0  0  0
 10 11  1  0  0  0  0
 11 12  1  0  0  0  0
 11 38  1  0  0  0  0
 11 39  1  0  0  0  0
 12 13  1  0  0  0  0
 12 40  1  0  0  0  0
 12 41  1  0  0  0  0
 13 14  1  0  0  0  0
 13 42  1  0  0  0  0
 13 43  1  0  0  0  0
 14 15  1  0  0  0  0
 14 44  1  0  0  0  0
 14 45  1  0  0  0  0
 15 16  1  0  0  0  0
 15 46  1  0  0  0  0
 16 20  1  0  0  0  0
 16 17  1  0  0  0  0
 16 47  1  0  0  0  0
 17 18  1  0  0  0  0
 17 48  1  0  0  0  0
 17 49  1  0  0  0  0
 18 19  1  0  0  0  0
 18 50  1  0  0  0  0
 18 51  1  0  0  0  0
 19 20  1  0  0  0  0
 19 52  1  0  0  0  0
 19 53  1  0  0  0  0
 20 21  1  0  0  0  0
 20 54  1  0  0  0  0
 21 55  1  0  0  0  0
 22 23  1  0  0  0  0
 23 24  2  0  0  0  0
 23 56  1  0  0  0  0
 24 25  1  0  0  0  0
 26 30  1  0  0  0  0
 26 27  1  0  0  0  0
 26 57  1  0  0  0  0
 27 28  1  0  0  0  0
 27 58  1  0  0  0  0
 27 59  1  0  0  0  0
 28 29  1  0  0  0  0
 28 60  1  0  0  0  0
 28 61  1  0  0  0  0
 29 30  1  0  0  0  0
 30 62  1  0  0  0  0
 30 63  1  0  0  0  0
M  END
> <s_m_source_file>
AV-unprocessed.smi

> <i_m_source_file_index>
148

> <i_lp_mmshare_version>
43012

> <i_f3d_flags>
0

> <s_epik_input>
W0NIMl0xT1tDSDJdW0NIMl1bQ0BIXTFbQ0BIXShbQ0gyXVtPSF0pW0NIMl1uKFtjSF1uMiljKGMyMyluW2NIXW5jM040W0NIMl1bQ0gyXVtDSDJdW0NIMl1bQ0BIXTRbQ0BASF01W0NIMl1bQ0gyXVtDSDJdW0NASF01W09IXQ==

> <s_epik_cmdline>
J2VwaWtfcHl0aG9uJywgJy1waCcsICc3LjAnLCAnLXRuJywgJzgnLCAnLW1hJywgJzIwMCcsICctbWV0YWxfYmluZGluZycsICctaW1hZScsICc8aW5maWxlLm1hZT4nLCAnLW9tYWUnLCAnPG91dGZpbGUubWFlPic=

> <r_lp_tautomer_probability>
1

> <r_epik_Ionization_Penalty>
0.00556303

> <r_epik_Ionization_Penalty_Charging>
0

> <r_epik_Ionization_Penalty_Neutral>
0.00556303

> <r_epik_State_Penalty>
0.00401767

> <r_epik_Charging_Adjusted_Penalty>
0.00401767

> <i_epik_Tot_Q>
0

> <i_epik_Tot_abs_Q>
0

> <r_epik_Metal_State_Penalty>
-0

> <b_epik_Metal_Only>
0

> <s_lp_Force_Field>
OPLS_2005

> <r_lp_Energy>
70.5845

> <b_lp_Chiralities_Consistent>
1

> <s_lp_Variant>
AV-unprocessed.smi:148-22

> <Gold.Version>
5.8.1

> <Gold.Id.Protein>
6NUR|6NUR_protein|mol2

> <Gold.PLP.Fitness>
41.4819

> <Gold.PLP.PLP>
-35.8056

> <Gold.PLP.part.hbond>
-1.9859

> <Gold.PLP.part.metal>
0.0000

> <Gold.PLP.part.buried>
-6.2848

> <Gold.PLP.part.nonpolar>
-28.0153

> <Gold.PLP.part.repulsive>
0.2622

> <Gold.PLP.ligand.clash>
0.0000

> <Gold.PLP.ligand.torsion>
1.2173

> <Gold.PLP.Chemscore.Hbond>
2.0000

> <Gold.PLP.Chemscore.CHOScore>
0.4868

> <Gold.PLP.Chemscore.Metal>
0.0000

> <Gold.Chemscore.Hbonds>
donor molecule, donor type, donor heavy atom, donor atom, acceptor molecule, acceptor atom, score
      L1  H     1    31       P1 10747  1.00
      P1  H  6896  6909       L1    22  0.36
      L1  C     6    37       P1 10957  1.00

> <Gold.PLP.Chemscore.Internal.Correction>
0.6504

> <Gold.Rescore>
     Score         DG    S(hbond)    S(metal)    S(lipo)     H(rot)  DE(clash)    DE(int)     intcor
     12.90     -14.30       1.86        0.00      94.95       3.32       0.07       1.34       ----

> <Gold.Chemscore.Fitness>
12.9000

> <Gold.Chemscore.DG>
-14.3046

> <Gold.Chemscore.ZeroCoef>
-5.4800

> <Gold.Chemscore.Hbond>
1.8607

> <Gold.Chemscore.Metal>
0.0000

> <Gold.Chemscore.Lipo>
94.9543

> <Gold.Chemscore.Internal_Hbond>
0.0000

> <Gold.Chemscore.DEClash>
0.0673

> <Gold.Chemscore.DEInternal>
1.3373

> <Gold.Chemscore.Rot>
3.3203

> <Gold.Chemscore.Internal.Correction>
   9.000000E+99

> <Gold.Chemscore.Hbonds>
donor molecule, donor type, donor heavy atom, donor atom, acceptor molecule, acceptor atom, score
      L1  H     1    31       P1 10747  1.00
      P1  H  6896  6909       L1    22  0.28

> <Gold.Chemscore.Hbond.Weighted>
-6.2149

> <Gold.Chemscore.Metal.Weighted>
-0.0000

> <Gold.Chemscore.Lipo.Weighted>
-11.1097

> <Gold.Chemscore.Internal_Hbond.Weighted>
0.0000

> <Gold.Chemscore.DEClash.Weighted>
0.0673

> <Gold.Chemscore.DEInternal.Weighted>
1.3373

> <Gold.Chemscore.Rot.Weighted>
8.5000

> <Gold.Chemscore.Internal.Correction.Weighted>
   9.000000E+99

> <Gold.Protein.RotatedTorsions>
[ 6907 6896 6895 6894 ] final   31.28 input  -60.11 | X-H torsion
[ 7974 7965 7964 7962 ] final   67.48 input  175.53 | X-H torsion
[ 8008 7997 7996 7995 ] final  165.94 input   59.86 | X-H torsion
[ 10167 10162 10161 10158 ] final   35.11 input  -65.29 | X-H torsion
[ 10718 10713 10712 10709 ] final  -33.46 input   66.30 | X-H torsion
[ 10763 10752 10751 10750 ] final -136.89 input  -60.55 | X-H torsion
[ 11005 11000 10999 10996 ] final -136.50 input  -57.11 | X-H torsion

> <Gold.Protein.ActiveResidues>
 VAL166  LYS551  ARG553  GLY616  TRP617  ASP618  TYR619  PRO620  LYS621  CYS622 
 ASP623  PHE694  ASN695  SER759  ASP760  ASP761  ALA762  ILE779  LEU786  VAL792 
 PHE793  MET794  SER795  GLU796  ALA797  LYS798  CYS799  TRP800  GLU811  SER814 

> <Gold.Protein.RotatedAtoms>
  152.0580  134.9612  160.0574 H   0  0  0  0  0  0  0  0  0  0  0  0  # atno 6907 bound_to 6896
  152.0987  133.4233  159.4585 H   0  0  0  0  0  0  0  0  0  0  0  0  # atno 6908 bound_to 6896
  150.6839  134.2705  159.4630 H   0  0  0  0  0  0  0  0  0  0  0  0  # atno 6909 bound_to 6896
  145.8142  139.3049  143.1081 H   0  0  0  0  0  0  0  0  0  0  0  0  # atno 7974 bound_to 7965
  156.1759  140.1656  156.8363 H   0  0  0  0  0  0  0  0  0  0  0  0  # atno 8008 bound_to 7997
  154.5306  140.0757  156.8372 H   0  0  0  0  0  0  0  0  0  0  0  0  # atno 8009 bound_to 7997
  155.3414  140.3385  155.4241 H   0  0  0  0  0  0  0  0  0  0  0  0  # atno 8010 bound_to 7997
  140.4253  144.1402  150.6152 H   0  0  0  0  0  0  0  0  0  0  0  0  # atno 10167 bound_to 10162
  156.3624  130.4326  149.7613 H   0  0  0  0  0  0  0  0  0  0  0  0  # atno 10718 bound_to 10713
  154.8674  135.3659  154.5135 H   0  0  0  0  0  0  0  0  0  0  0  0  # atno 10763 bound_to 10752
  153.5768  135.7019  153.5485 H   0  0  0  0  0  0  0  0  0  0  0  0  # atno 10764 bound_to 10752
  153.3492  135.4076  155.1595 H   0  0  0  0  0  0  0  0  0  0  0  0  # atno 10765 bound_to 10752
  140.8799  134.1945  157.4598 H   0  0  0  0  0  0  0  0  0  0  0  0  # atno 11005 bound_to 11000
  145.9745  140.8733  143.0145 LP  0  0  0  0  0  0  0  0  0  0  0  0  # atno 17320 bound_to 7965
  144.6754  140.1993  143.7389 LP  0  0  0  0  0  0  0  0  0  0  0  0  # atno 17321 bound_to 7965
  140.4488  143.2495  151.9375 LP  0  0  0  0  0  0  0  0  0  0  0  0  # atno 17342 bound_to 10162
  139.4783  144.5582  151.8280 LP  0  0  0  0  0  0  0  0  0  0  0  0  # atno 17343 bound_to 10162
  156.4772  130.8024  151.3040 LP  0  0  0  0  0  0  0  0  0  0  0  0  # atno 17370 bound_to 10713
  157.7475  131.0017  150.2974 LP  0  0  0  0  0  0  0  0  0  0  0  0  # atno 17371 bound_to 10713
  139.8719  134.9812  156.5108 LP  0  0  0  0  0  0  0  0  0  0  0  0  # atno 17394 bound_to 11000
  140.8474  133.8158  155.9134 LP  0  0  0  0  0  0  0  0  0  0  0  0  # atno 17395 bound_to 11000

$$$$
