AV-unprocessed.smi:3154|AV-procd|sdf|12022|dock10
  -GOLD-   2272017433D 1   1.00000     0.00000
 Structure written by MMmdl.
 35 36  0  0  0  0  0  0  0  0  2 V2000
  144.0047  136.7192  152.5667 C   0  0  0  0  0  0  0  0  0  0  0  0
  145.4907  136.4081  152.8139 C   0  0  1  0  0  0  0  0  0  0  0  0
  145.7728  134.8891  152.8816 C   0  0  0  0  0  0  0  0  0  0  0  0
  145.0957  134.1396  151.8386 N   0  0  0  0  0  0  0  0  0  0  0  0
  144.1432  133.1507  151.9703 C   0  0  0  0  0  0  0  0  0  0  0  0
  143.7954  132.7525  150.7114 C   0  0  0  0  0  0  0  0  0  0  0  0
  144.5934  133.5716  149.8646 C   0  0  0  0  0  0  0  0  0  0  0  0
  145.3681  134.4033  150.5426 N   0  0  0  0  0  0  0  0  0  0  0  0
  146.3065  137.0575  151.7640 N   0  3  0  0  0  0  0  0  0  0  0  0
  146.4809  138.5201  151.9063 C   0  0  0  0  0  0  0  0  0  0  0  0
  147.2199  138.8928  153.1931 C   0  0  0  0  0  0  0  0  0  0  0  0
  146.7340  139.7003  153.9863 O   0  0  0  0  0  0  0  0  0  0  0  0
  148.4026  138.2901  153.3835 N   0  0  0  0  0  0  0  0  0  0  0  0
  149.2599  138.4826  154.5084 C   0  0  0  0  0  0  0  0  0  0  0  0
  149.9136  139.8380  154.6702 C   0  0  0  0  0  0  0  0  0  0  0  0
  150.7397  138.6565  154.2423 C   0  0  0  0  0  0  0  0  0  0  0  0
  143.3752  136.3420  153.3731 H   0  0  0  0  0  0  0  0  0  0  0  0
  143.6553  136.2722  151.6353 H   0  0  0  0  0  0  0  0  0  0  0  0
  143.8345  137.7945  152.5043 H   0  0  0  0  0  0  0  0  0  0  0  0
  145.7603  136.8615  153.7691 H   0  0  0  0  0  0  0  0  0  0  0  0
  146.8445  134.7020  152.7969 H   0  0  0  0  0  0  0  0  0  0  0  0
  145.4600  134.4747  153.8400 H   0  0  0  0  0  0  0  0  0  0  0  0
  143.7973  132.8144  152.9367 H   0  0  0  0  0  0  0  0  0  0  0  0
  143.0777  131.9937  150.4366 H   0  0  0  0  0  0  0  0  0  0  0  0
  144.6312  133.5875  148.7854 H   0  0  0  0  0  0  0  0  0  0  0  0
  147.2150  136.6178  151.7282 H   0  0  0  0  0  0  0  0  0  0  0  0
  147.0439  138.9047  151.0548 H   0  0  0  0  0  0  0  0  0  0  0  0
  145.5096  139.0147  151.9090 H   0  0  0  0  0  0  0  0  0  0  0  0
  148.7236  137.6423  152.6784 H   0  0  0  0  0  0  0  0  0  0  0  0
  149.0000  137.9648  155.4308 H   0  0  0  0  0  0  0  0  0  0  0  0
  149.7018  140.5995  153.9217 H   0  0  0  0  0  0  0  0  0  0  0  0
  150.0556  140.2090  155.6834 H   0  0  0  0  0  0  0  0  0  0  0  0
  151.4320  138.2376  154.9702 H   0  0  0  0  0  0  0  0  0  0  0  0
  151.0797  138.6304  153.2086 H   0  0  0  0  0  0  0  0  0  0  0  0
  145.8463  136.9018  150.8784 H   0  0  0  0  0  0  0  0  0  0  0  0
  1  2  1  0  0  0  0
  1 17  1  0  0  0  0
  1 18  1  0  0  0  0
  1 19  1  0  0  0  0
  2  3  1  0  0  0  0
  2  9  1  0  0  0  0
  2 20  1  0  0  0  0
  3  4  1  0  0  0  0
  3 21  1  0  0  0  0
  3 22  1  0  0  0  0
  4  8  1  0  0  0  0
  4  5  1  0  0  0  0
  5  6  2  0  0  0  0
  5 23  1  0  0  0  0
  6  7  1  0  0  0  0
  6 24  1  0  0  0  0
  7  8  2  0  0  0  0
  7 25  1  0  0  0  0
  9 10  1  0  0  0  0
  9 26  1  0  0  0  0
  9 35  1  0  0  0  0
 10 11  1  0  0  0  0
 10 27  1  0  0  0  0
 10 28  1  0  0  0  0
 11 12  2  0  0  0  0
 11 13  1  0  0  0  0
 13 14  1  0  0  0  0
 13 29  1  0  0  0  0
 14 16  1  0  0  0  0
 14 15  1  0  0  0  0
 14 30  1  0  0  0  0
 15 16  1  0  0  0  0
 15 31  1  0  0  0  0
 15 32  1  0  0  0  0
 16 33  1  0  0  0  0
 16 34  1  0  0  0  0
M  CHG  1   9   1
M  END
> <s_m_source_file>
AV-unprocessed.smi

> <i_m_source_file_index>
3154

> <i_lp_mmshare_version>
43012

> <i_f3d_flags>
0

> <s_epik_input>
bjFbY0hdW2NIXVtjSF1uMVtDSDJdW0NAQEhdKFtDSDNdKVtOSF1bQ0gyXUMoPU8pW05IXVtDSF0yW0NIMl1bQ0gyXTI=

> <s_epik_cmdline>
J2VwaWtfcHl0aG9uJywgJy1waCcsICc3LjAnLCAnLXRuJywgJzgnLCAnLW1hJywgJzIwMCcsICctbWV0YWxfYmluZGluZycsICctaW1hZScsICc8aW5maWxlLm1hZT4nLCAnLW9tYWUnLCAnPG91dGZpbGUubWFlPic=

> <r_lp_tautomer_probability>
1

> <r_epik_Ionization_Penalty>
0.12065

> <r_epik_Ionization_Penalty_Charging>
0.120646

> <r_epik_Ionization_Penalty_Neutral>
4.1343e-06

> <r_epik_State_Penalty>
0.110186

> <r_epik_Charging_Adjusted_Penalty>
0.230832

> <i_epik_Tot_Q>
1

> <i_epik_Tot_abs_Q>
1

> <r_epik_Metal_State_Penalty>
0.110197

> <b_epik_Metal_Only>
0

> <s_lp_Force_Field>
OPLS_2005

> <r_lp_Energy>
15.3554

> <b_lp_Chiralities_Consistent>
1

> <s_lp_Variant>
AV-unprocessed.smi:3154-2

> <Gold.Version>
5.8.1

> <Gold.Id.Protein>
6NUR|6NUR_protein|mol2

> <Gold.PLP.Fitness>
42.8648

> <Gold.PLP.PLP>
-29.1383

> <Gold.PLP.part.hbond>
-3.0000

> <Gold.PLP.part.metal>
0.0000

> <Gold.PLP.part.buried>
-2.4049

> <Gold.PLP.part.nonpolar>
-24.3346

> <Gold.PLP.part.repulsive>
1.0386

> <Gold.PLP.ligand.clash>
0.0000

> <Gold.PLP.ligand.torsion>
0.4721

> <Gold.PLP.Chemscore.Hbond>
3.0000

> <Gold.PLP.Chemscore.CHOScore>
1.8655

> <Gold.PLP.Chemscore.Metal>
0.0000

> <Gold.Chemscore.Hbonds>
donor molecule, donor type, donor heavy atom, donor atom, acceptor molecule, acceptor atom, score
      L1  H     9    26       P1  7948  2.00
      L1  H    13    29       P1  7948  1.00
      L1  C     5    23       P1 10957  1.00
      L1  C     7    25       P1  7921  0.87

> <Gold.PLP.Chemscore.Internal.Correction>
0.0743

> <Gold.Rescore>
     Score         DG    S(hbond)    S(metal)    S(lipo)     H(rot)  DE(clash)    DE(int)     intcor
     13.30     -14.09       1.95        0.00      66.03       2.20       0.18       0.61       ----

> <Gold.Chemscore.Fitness>
13.2973

> <Gold.Chemscore.DG>
-14.0860

> <Gold.Chemscore.ZeroCoef>
-5.4800

> <Gold.Chemscore.Hbond>
1.9529

> <Gold.Chemscore.Metal>
0.0000

> <Gold.Chemscore.Lipo>
66.0339

> <Gold.Chemscore.Internal_Hbond>
0.0000

> <Gold.Chemscore.DEClash>
0.1771

> <Gold.Chemscore.DEInternal>
0.6116

> <Gold.Chemscore.Rot>
2.2042

> <Gold.Chemscore.Internal.Correction>
   9.000000E+99

> <Gold.Chemscore.Hbonds>
donor molecule, donor type, donor heavy atom, donor atom, acceptor molecule, acceptor atom, score
      L1  H     9    26       P1  7948  1.00
      L1  H    13    29       P1  7948  0.99

> <Gold.Chemscore.Hbond.Weighted>
-6.5227

> <Gold.Chemscore.Metal.Weighted>
-0.0000

> <Gold.Chemscore.Lipo.Weighted>
-7.7260

> <Gold.Chemscore.Internal_Hbond.Weighted>
0.0000

> <Gold.Chemscore.DEClash.Weighted>
0.1771

> <Gold.Chemscore.DEInternal.Weighted>
0.6116

> <Gold.Chemscore.Rot.Weighted>
5.6427

> <Gold.Chemscore.Internal.Correction.Weighted>
   9.000000E+99

> <Gold.Protein.RotatedTorsions>
[ 6907 6896 6895 6894 ] final   45.38 input  -60.11 | X-H torsion
[ 7974 7965 7964 7962 ] final -145.93 input  175.53 | X-H torsion
[ 8008 7997 7996 7995 ] final -145.43 input   59.86 | X-H torsion
[ 10167 10162 10161 10158 ] final  105.31 input  -65.29 | X-H torsion
[ 10718 10713 10712 10709 ] final  179.99 input   66.30 | X-H torsion
[ 10763 10752 10751 10750 ] final  149.37 input  -60.55 | X-H torsion
[ 11005 11000 10999 10996 ] final   56.60 input  -57.11 | X-H torsion

> <Gold.Protein.ActiveResidues>
 VAL166  LYS551  ARG553  GLY616  TRP617  ASP618  TYR619  PRO620  LYS621  CYS622 
 ASP623  PHE694  ASN695  SER759  ASP760  ASP761  ALA762  ILE779  LEU786  VAL792 
 PHE793  MET794  SER795  GLU796  ALA797  LYS798  CYS799  TRP800  GLU811  SER814 

> <Gold.Protein.RotatedAtoms>
  152.2439  134.8201  160.0456 H   0  0  0  0  0  0  0  0  0  0  0  0  # atno 6907 bound_to 6896
  151.8906  133.3510  159.3805 H   0  0  0  0  0  0  0  0  0  0  0  0  # atno 6908 bound_to 6896
  150.7062  134.4854  159.5534 H   0  0  0  0  0  0  0  0  0  0  0  0  # atno 6909 bound_to 6896
  144.8194  140.5521  143.5589 H   0  0  0  0  0  0  0  0  0  0  0  0  # atno 7974 bound_to 7965
  155.5431  140.0610  157.2866 H   0  0  0  0  0  0  0  0  0  0  0  0  # atno 8008 bound_to 7997
  154.4445  140.1915  156.0655 H   0  0  0  0  0  0  0  0  0  0  0  0  # atno 8009 bound_to 7997
  156.0570  140.3277  155.7421 H   0  0  0  0  0  0  0  0  0  0  0  0  # atno 8010 bound_to 7997
  139.7103  144.7079  151.1038 H   0  0  0  0  0  0  0  0  0  0  0  0  # atno 10167 bound_to 10162
  156.8675  130.9772  151.3077 H   0  0  0  0  0  0  0  0  0  0  0  0  # atno 10718 bound_to 10713
  154.0701  135.2867  155.3310 H   0  0  0  0  0  0  0  0  0  0  0  0  # atno 10763 bound_to 10752
  154.6752  135.5284  153.8194 H   0  0  0  0  0  0  0  0  0  0  0  0  # atno 10764 bound_to 10752
  153.0489  135.6568  154.0883 H   0  0  0  0  0  0  0  0  0  0  0  0  # atno 10765 bound_to 10752
  140.0516  134.5728  155.9256 H   0  0  0  0  0  0  0  0  0  0  0  0  # atno 11005 bound_to 11000
  145.5140  139.1478  143.3589 LP  0  0  0  0  0  0  0  0  0  0  0  0  # atno 17320 bound_to 7965
  146.2499  140.5280  142.8898 LP  0  0  0  0  0  0  0  0  0  0  0  0  # atno 17321 bound_to 7965
  140.7731  143.5302  150.9432 LP  0  0  0  0  0  0  0  0  0  0  0  0  # atno 17342 bound_to 10162
  139.8986  143.6863  152.3135 LP  0  0  0  0  0  0  0  0  0  0  0  0  # atno 17343 bound_to 10162
  157.6214  130.8658  149.9116 LP  0  0  0  0  0  0  0  0  0  0  0  0  # atno 17370 bound_to 10713
  156.0744  130.3681  150.0709 LP  0  0  0  0  0  0  0  0  0  0  0  0  # atno 17371 bound_to 10713
  141.1933  133.6578  156.5542 LP  0  0  0  0  0  0  0  0  0  0  0  0  # atno 17394 bound_to 11000
  140.3908  134.7442  157.4720 LP  0  0  0  0  0  0  0  0  0  0  0  0  # atno 17395 bound_to 11000

$$$$
