AV-unprocessed.smi:1111|AV-procd|sdf|4793|dock2
  -GOLD-   22720 3343D 1   1.00000     0.00000
 Structure written by MMmdl.
 32 33  0  0  0  0  0  0  0  0  1 V2000
  149.0190  139.3280  158.3274 C   0  0  0  0  0  0  0  0  0  0  0  0
  149.8763  139.5919  157.0721 C   0  0  2  0  0  0  0  0  0  0  0  0
  150.2150  141.0160  156.9640 N   0  0  0  0  0  0  0  0  0  0  0  0
  150.6835  141.8400  157.9172 C   0  0  0  0  0  0  0  0  0  0  0  0
  150.8136  141.5257  159.0994 O   0  0  0  0  0  0  0  0  0  0  0  0
  151.0975  143.2339  157.4484 C   0  0  0  0  0  0  0  0  0  0  0  0
  151.3166  144.1095  158.5849 N   0  0  0  0  0  0  0  0  0  0  0  0
  152.1552  143.8850  159.6700 C   0  0  0  0  0  0  0  0  0  0  0  0
  152.0214  144.9738  160.5017 C   0  0  0  0  0  0  0  0  0  0  0  0
  151.1133  145.8754  159.9520 N   0  0  0  0  0  0  0  0  0  0  0  0
  150.7370  145.2952  158.8197 C   0  0  0  0  0  0  0  0  0  0  0  0
  149.0877  139.2164  155.7948 C   0  0  0  0  0  0  0  0  0  0  0  0
  150.0484  139.1346  154.6001 C   0  0  0  0  0  0  0  0  0  0  0  0
  151.6543  138.5886  155.2890 S   0  0  0  0  0  0  0  0  0  0  0  0
  151.8829  137.1742  154.9568 O   0  0  0  0  0  0  0  0  0  0  0  0
  152.6686  139.6115  154.9923 O   0  0  0  0  0  0  0  0  0  0  0  0
  151.1531  138.7213  157.0474 C   0  0  0  0  0  0  0  0  0  0  0  0
  148.6749  138.2937  158.3605 H   0  0  0  0  0  0  0  0  0  0  0  0
  148.1358  139.9673  158.3448 H   0  0  0  0  0  0  0  0  0  0  0  0
  149.5765  139.5066  159.2468 H   0  0  0  0  0  0  0  0  0  0  0  0
  150.1494  141.4040  156.0341 H   0  0  0  0  0  0  0  0  0  0  0  0
  152.0127  143.1766  156.8574 H   0  0  0  0  0  0  0  0  0  0  0  0
  150.3244  143.6641  156.8104 H   0  0  0  0  0  0  0  0  0  0  0  0
  152.7562  142.9925  159.7617 H   0  0  0  0  0  0  0  0  0  0  0  0
  152.5032  145.1750  161.4471 H   0  0  0  0  0  0  0  0  0  0  0  0
  150.0189  145.7412  158.1467 H   0  0  0  0  0  0  0  0  0  0  0  0
  148.6358  138.2329  155.9325 H   0  0  0  0  0  0  0  0  0  0  0  0
  148.2668  139.9076  155.5988 H   0  0  0  0  0  0  0  0  0  0  0  0
  149.7121  138.4399  153.8305 H   0  0  0  0  0  0  0  0  0  0  0  0
  150.1926  140.1153  154.1461 H   0  0  0  0  0  0  0  0  0  0  0  0
  151.9802  139.1037  157.6451 H   0  0  0  0  0  0  0  0  0  0  0  0
  150.9330  137.7121  157.3965 H   0  0  0  0  0  0  0  0  0  0  0  0
  1  2  1  0  0  0  0
  1 18  1  0  0  0  0
  1 19  1  0  0  0  0
  1 20  1  0  0  0  0
  2 17  1  0  0  0  0
  2  3  1  0  0  0  0
  2 12  1  0  0  0  0
  3  4  1  0  0  0  0
  3 21  1  0  0  0  0
  4  5  2  0  0  0  0
  4  6  1  0  0  0  0
  6  7  1  0  0  0  0
  6 22  1  0  0  0  0
  6 23  1  0  0  0  0
  7 11  1  0  0  0  0
  7  8  1  0  0  0  0
  8  9  2  0  0  0  0
  8 24  1  0  0  0  0
  9 10  1  0  0  0  0
  9 25  1  0  0  0  0
 10 11  2  0  0  0  0
 11 26  1  0  0  0  0
 12 13  1  0  0  0  0
 12 27  1  0  0  0  0
 12 28  1  0  0  0  0
 13 14  1  0  0  0  0
 13 29  1  0  0  0  0
 13 30  1  0  0  0  0
 14 15  2  0  0  0  0
 14 16  2  0  0  0  0
 14 17  1  0  0  0  0
 17 31  1  0  0  0  0
 17 32  1  0  0  0  0
M  END
> <s_m_source_file>
AV-unprocessed.smi

> <i_m_source_file_index>
1111

> <i_lp_mmshare_version>
43012

> <i_f3d_flags>
0

> <s_epik_input>
Tz1TKD1PKShbQ0gyXTEpW0NIMl1bQ0gyXVtDQEBdMShbQ0gzXSlbTkhdQyg9TylbQ0gyXW4yW2NIXVtjSF1uW2NIXTI=

> <s_epik_cmdline>
J2VwaWtfcHl0aG9uJywgJy1waCcsICc3LjAnLCAnLXRuJywgJzgnLCAnLW1hJywgJzIwMCcsICctbWV0YWxfYmluZGluZycsICctaW1hZScsICc8aW5maWxlLm1hZT4nLCAnLW9tYWUnLCAnPG91dGZpbGUubWFlPic=

> <r_lp_tautomer_probability>
1

> <r_epik_Ionization_Penalty>
0.246342

> <r_epik_Ionization_Penalty_Charging>
0.246341

> <r_epik_Ionization_Penalty_Neutral>
5.91248e-07

> <r_epik_State_Penalty>
0.237514

> <r_epik_Charging_Adjusted_Penalty>
0.483856

> <i_epik_Tot_Q>
0

> <i_epik_Tot_abs_Q>
0

> <r_epik_Metal_State_Penalty>
0.166715

> <b_epik_Metal_Only>
0

> <s_lp_Force_Field>
OPLS_2005

> <r_lp_Energy>
5.38439

> <b_lp_Chiralities_Consistent>
1

> <s_lp_Variant>
AV-unprocessed.smi:1111-2

> <Gold.Version>
5.8.1

> <Gold.Id.Protein>
6NUR|6NUR_protein|mol2

> <Gold.PLP.Fitness>
41.7214

> <Gold.PLP.PLP>
-32.7928

> <Gold.PLP.part.hbond>
-4.2912

> <Gold.PLP.part.metal>
0.0000

> <Gold.PLP.part.buried>
-5.5174

> <Gold.PLP.part.nonpolar>
-24.1002

> <Gold.PLP.part.repulsive>
0.4010

> <Gold.PLP.ligand.clash>
0.0000

> <Gold.PLP.ligand.torsion>
0.4342

> <Gold.PLP.Chemscore.Hbond>
2.2598

> <Gold.PLP.Chemscore.CHOScore>
0.9992

> <Gold.PLP.Chemscore.Metal>
0.0000

> <Gold.Chemscore.Hbonds>
donor molecule, donor type, donor heavy atom, donor atom, acceptor molecule, acceptor atom, score
      P1  H  7989  7998       L1    16  0.36
      P1  H  7997  8008       L1    16  0.84
      P1  H 10752 10763       L1    15  0.94
      L1  C    11    26       P1  8029  1.00

> <Gold.PLP.Chemscore.Internal.Correction>
0.0201

> <Gold.Rescore>
     Score         DG    S(hbond)    S(metal)    S(lipo)     H(rot)  DE(clash)    DE(int)     intcor
     12.05     -13.40       1.76        0.00      55.35       1.73       0.00       1.35       ----

> <Gold.Chemscore.Fitness>
12.0476

> <Gold.Chemscore.DG>
-13.4033

> <Gold.Chemscore.ZeroCoef>
-5.4800

> <Gold.Chemscore.Hbond>
1.7617

> <Gold.Chemscore.Metal>
0.0000

> <Gold.Chemscore.Lipo>
55.3453

> <Gold.Chemscore.Internal_Hbond>
0.0000

> <Gold.Chemscore.DEClash>
0.0048

> <Gold.Chemscore.DEInternal>
1.3509

> <Gold.Chemscore.Rot>
1.7328

> <Gold.Chemscore.Internal.Correction>
   9.000000E+99

> <Gold.Chemscore.Hbonds>
donor molecule, donor type, donor heavy atom, donor atom, acceptor molecule, acceptor atom, score
      P1  H  7989  7998       L1    16  0.14
      P1  H  7997  8008       L1    16  0.82
      P1  H 10752 10763       L1    15  0.90

> <Gold.Chemscore.Hbond.Weighted>
-5.8839

> <Gold.Chemscore.Metal.Weighted>
-0.0000

> <Gold.Chemscore.Lipo.Weighted>
-6.4754

> <Gold.Chemscore.Internal_Hbond.Weighted>
0.0000

> <Gold.Chemscore.DEClash.Weighted>
0.0048

> <Gold.Chemscore.DEInternal.Weighted>
1.3509

> <Gold.Chemscore.Rot.Weighted>
4.4360

> <Gold.Chemscore.Internal.Correction.Weighted>
   9.000000E+99

> <Gold.Protein.RotatedTorsions>
[ 6907 6896 6895 6894 ] final  -87.93 input  -60.11 | X-H torsion
[ 7974 7965 7964 7962 ] final -100.96 input  175.53 | X-H torsion
[ 8008 7997 7996 7995 ] final   -9.53 input   59.86 | X-H torsion
[ 10167 10162 10161 10158 ] final  -99.35 input  -65.29 | X-H torsion
[ 10718 10713 10712 10709 ] final  143.39 input   66.30 | X-H torsion
[ 10763 10752 10751 10750 ] final   47.72 input  -60.55 | X-H torsion
[ 11005 11000 10999 10996 ] final -155.28 input  -57.11 | X-H torsion

> <Gold.Protein.ActiveResidues>
 VAL166  LYS551  ARG553  GLY616  TRP617  ASP618  TYR619  PRO620  LYS621  CYS622 
 ASP623  PHE694  ASN695  SER759  ASP760  ASP761  ALA762  ILE779  LEU786  VAL792 
 PHE793  MET794  SER795  GLU796  ALA797  LYS798  CYS799  TRP800  GLU811  SER814 

> <Gold.Protein.RotatedAtoms>
  150.6867  134.2820  159.4631 H   0  0  0  0  0  0  0  0  0  0  0  0  # atno 6907 bound_to 6896
  152.0733  134.9516  160.0583 H   0  0  0  0  0  0  0  0  0  0  0  0  # atno 6908 bound_to 6896
  152.0897  133.4159  159.4575 H   0  0  0  0  0  0  0  0  0  0  0  0  # atno 6909 bound_to 6896
  145.2877  140.9344  143.2895 H   0  0  0  0  0  0  0  0  0  0  0  0  # atno 7974 bound_to 7965
  154.5638  140.2352  155.8294 H   0  0  0  0  0  0  0  0  0  0  0  0  # atno 8008 bound_to 7997
  156.2052  140.3041  155.9570 H   0  0  0  0  0  0  0  0  0  0  0  0  # atno 8009 bound_to 7997
  155.2838  140.0423  157.3008 H   0  0  0  0  0  0  0  0  0  0  0  0  # atno 8010 bound_to 7997
  140.2634  143.3392  152.0604 H   0  0  0  0  0  0  0  0  0  0  0  0  # atno 10167 bound_to 10162
  157.3695  131.0977  151.0841 H   0  0  0  0  0  0  0  0  0  0  0  0  # atno 10718 bound_to 10713
  152.9797  135.5967  154.3808 H   0  0  0  0  0  0  0  0  0  0  0  0  # atno 10763 bound_to 10752
  154.3473  135.2767  155.2393 H   0  0  0  0  0  0  0  0  0  0  0  0  # atno 10764 bound_to 10752
  154.4448  135.6004  153.6208 H   0  0  0  0  0  0  0  0  0  0  0  0  # atno 10765 bound_to 10752
  140.6882  134.4071  157.5221 H   0  0  0  0  0  0  0  0  0  0  0  0  # atno 11005 bound_to 11000
  144.9199  139.4425  143.6546 LP  0  0  0  0  0  0  0  0  0  0  0  0  # atno 17320 bound_to 7965
  146.3195  139.8053  142.8957 LP  0  0  0  0  0  0  0  0  0  0  0  0  # atno 17321 bound_to 7965
  139.5010  144.6704  151.6257 LP  0  0  0  0  0  0  0  0  0  0  0  0  # atno 17342 bound_to 10162
  140.5948  143.9716  150.6347 LP  0  0  0  0  0  0  0  0  0  0  0  0  # atno 17343 bound_to 10162
  157.1951  130.6369  149.5718 LP  0  0  0  0  0  0  0  0  0  0  0  0  # atno 17370 bound_to 10713
  155.9753  130.4709  150.6447 LP  0  0  0  0  0  0  0  0  0  0  0  0  # atno 17371 bound_to 10713
  139.8931  134.8738  156.2238 LP  0  0  0  0  0  0  0  0  0  0  0  0  # atno 17394 bound_to 11000
  141.0263  133.7013  156.1353 LP  0  0  0  0  0  0  0  0  0  0  0  0  # atno 17395 bound_to 11000

$$$$
