AV-unprocessed.smi:1535|AV-procd|sdf|6183|dock6
  -GOLD-   22720 6343D 1   1.00000     0.00000
 Structure written by MMmdl.
 47 48  0  0  0  0  0  0  0  0  2 V2000
  152.6591  142.9752  161.0774 C   0  0  0  0  0  0  0  0  0  0  0  0
  152.0972  142.5654  159.7273 C   0  0  0  0  0  0  0  0  0  0  0  0
  152.5542  141.3708  159.1265 C   0  0  0  0  0  0  0  0  0  0  0  0
  152.0562  140.9546  157.8727 C   0  0  0  0  0  0  0  0  0  0  0  0
  152.3570  139.8382  157.1114 N   0  0  0  0  0  0  0  0  0  0  0  0
  151.5695  140.0132  156.0546 C   0  0  0  0  0  0  0  0  0  0  0  0
  150.7800  141.1048  156.0484 N   0  0  0  0  0  0  0  0  0  0  0  0
  149.8323  141.4960  155.0205 C   0  0  0  0  0  0  0  0  0  0  0  0
  148.8868  140.3457  154.6212 C   0  0  1  0  0  0  0  0  0  0  0  0
  147.9272  140.8615  153.7209 O   0  0  0  0  0  0  0  0  0  0  0  0
  149.6033  139.1513  153.9556 C   0  0  0  0  0  0  0  0  0  0  0  0
  149.0110  137.8556  154.3766 N   0  3  2  0  0  0  0  0  0  0  0  0
  147.5293  137.8868  154.3819 C   0  0  0  0  0  0  0  0  0  0  0  0
  149.5604  137.3452  155.6581 C   0  0  0  0  0  0  0  0  0  0  0  0
  149.1047  135.9044  155.9623 C   0  0  1  0  0  0  0  0  0  0  0  0
  149.9083  134.8791  155.1526 C   0  0  0  0  0  0  0  0  0  0  0  0
  149.1833  135.6109  157.4025 C   0  0  0  0  0  0  0  0  0  0  0  0
  149.2488  135.3827  158.5342 N   0  0  0  0  0  0  0  0  0  0  0  0
  151.0786  141.7709  157.2324 C   0  0  0  0  0  0  0  0  0  0  0  0
  150.6194  142.9637  157.8182 C   0  0  0  0  0  0  0  0  0  0  0  0
  151.1286  143.3660  159.0703 C   0  0  0  0  0  0  0  0  0  0  0  0
  150.6271  144.6566  159.6936 C   0  0  0  0  0  0  0  0  0  0  0  0
  153.3718  142.2398  161.4520 H   0  0  0  0  0  0  0  0  0  0  0  0
  151.8592  143.0695  161.8122 H   0  0  0  0  0  0  0  0  0  0  0  0
  153.1748  143.9326  161.0009 H   0  0  0  0  0  0  0  0  0  0  0  0
  153.2942  140.7624  159.6257 H   0  0  0  0  0  0  0  0  0  0  0  0
  151.5578  139.3001  155.2433 H   0  0  0  0  0  0  0  0  0  0  0  0
  149.2595  142.3467  155.3931 H   0  0  0  0  0  0  0  0  0  0  0  0
  150.3893  141.8493  154.1513 H   0  0  0  0  0  0  0  0  0  0  0  0
  148.3542  140.0099  155.5105 H   0  0  0  0  0  0  0  0  0  0  0  0
  147.7098  141.7448  153.9784 H   0  0  0  0  0  0  0  0  0  0  0  0
  149.5562  139.2745  152.8737 H   0  0  0  0  0  0  0  0  0  0  0  0
  150.6662  139.1392  154.2000 H   0  0  0  0  0  0  0  0  0  0  0  0
  147.1558  138.5574  155.1570 H   0  0  0  0  0  0  0  0  0  0  0  0
  147.1240  136.8918  154.5686 H   0  0  0  0  0  0  0  0  0  0  0  0
  147.1342  138.2239  153.4237 H   0  0  0  0  0  0  0  0  0  0  0  0
  150.6493  137.4152  155.6431 H   0  0  0  0  0  0  0  0  0  0  0  0
  149.2219  137.9858  156.4742 H   0  0  0  0  0  0  0  0  0  0  0  0
  148.0561  135.7859  155.6925 H   0  0  0  0  0  0  0  0  0  0  0  0
  149.5600  133.8653  155.3515 H   0  0  0  0  0  0  0  0  0  0  0  0
  150.9687  134.9210  155.4030 H   0  0  0  0  0  0  0  0  0  0  0  0
  149.8096  135.0581  154.0816 H   0  0  0  0  0  0  0  0  0  0  0  0
  149.8827  143.5663  157.3081 H   0  0  0  0  0  0  0  0  0  0  0  0
  149.9143  145.1623  159.0418 H   0  0  0  0  0  0  0  0  0  0  0  0
  151.4558  145.3412  159.8756 H   0  0  0  0  0  0  0  0  0  0  0  0
  150.1295  144.4545  160.6421 H   0  0  0  0  0  0  0  0  0  0  0  0
  149.2775  137.1804  153.6735 H   0  0  0  0  0  0  0  0  0  0  0  0
  1  2  1  0  0  0  0
  1 23  1  0  0  0  0
  1 24  1  0  0  0  0
  1 25  1  0  0  0  0
  2 21  1  0  0  0  0
  2  3  2  0  0  0  0
  3  4  1  0  0  0  0
  3 26  1  0  0  0  0
  4 19  2  0  0  0  0
  4  5  1  0  0  0  0
  5  6  2  0  0  0  0
  6  7  1  0  0  0  0
  6 27  1  0  0  0  0
  7  8  1  0  0  0  0
  7 19  1  0  0  0  0
  8  9  1  0  0  0  0
  8 28  1  0  0  0  0
  8 29  1  0  0  0  0
  9 10  1  0  0  0  0
  9 11  1  0  0  0  0
  9 30  1  0  0  0  0
 10 31  1  0  0  0  0
 11 12  1  0  0  0  0
 11 32  1  0  0  0  0
 11 33  1  0  0  0  0
 12 13  1  0  0  0  0
 12 14  1  0  0  0  0
 12 47  1  0  0  0  0
 13 34  1  0  0  0  0
 13 35  1  0  0  0  0
 13 36  1  0  0  0  0
 14 15  1  0  0  0  0
 14 37  1  0  0  0  0
 14 38  1  0  0  0  0
 15 16  1  0  0  0  0
 15 17  1  0  0  0  0
 15 39  1  0  0  0  0
 16 40  1  0  0  0  0
 16 41  1  0  0  0  0
 16 42  1  0  0  0  0
 17 18  3  0  0  0  0
 19 20  1  0  0  0  0
 20 21  2  0  0  0  0
 20 43  1  0  0  0  0
 21 22  1  0  0  0  0
 22 44  1  0  0  0  0
 22 45  1  0  0  0  0
 22 46  1  0  0  0  0
M  CHG  1  12   1
M  END
> <s_m_source_file>
AV-unprocessed.smi

> <i_m_source_file_index>
1535

> <i_lp_mmshare_version>
43012

> <i_f3d_flags>
0

> <s_epik_input>
W0NIM11jKFtjSF0xKWMoW0NIM10pW2NIXWMoYzEyKW4oW2NIXW4yKVtDSDJdW0NASF0oW09IXSlbQ0gyXU4oW0NIM10pW0NIMl1bQ0BIXShbQ0gzXSlDI04=

> <s_epik_cmdline>
J2VwaWtfcHl0aG9uJywgJy1waCcsICc3LjAnLCAnLXRuJywgJzgnLCAnLW1hJywgJzIwMCcsICctbWV0YWxfYmluZGluZycsICctaW1hZScsICc8aW5maWxlLm1hZT4nLCAnLW9tYWUnLCAnPG91dGZpbGUubWFlPic=

> <r_epik_Ionization_Penalty>
2.21058

> <r_epik_Ionization_Penalty_Charging>
2.12381

> <r_epik_Ionization_Penalty_Neutral>
0.0867699

> <r_epik_State_Penalty>
2.36208

> <r_epik_Charging_Adjusted_Penalty>
4.48589

> <i_epik_Tot_Q>
1

> <i_epik_Tot_abs_Q>
1

> <r_epik_Metal_State_Penalty>
2.2818

> <b_epik_Metal_Only>
0

> <s_lp_Force_Field>
OPLS_2005

> <r_lp_Energy>
13.4259

> <b_lp_Chiralities_Consistent>
1

> <s_lp_Variant>
AV-unprocessed.smi:1535-14

> <Gold.Version>
5.8.1

> <Gold.Id.Protein>
6NUR|6NUR_protein|mol2

> <Gold.PLP.Fitness>
50.2556

> <Gold.PLP.PLP>
-40.2190

> <Gold.PLP.part.hbond>
-3.3830

> <Gold.PLP.part.metal>
0.0000

> <Gold.PLP.part.buried>
-2.7376

> <Gold.PLP.part.nonpolar>
-33.6666

> <Gold.PLP.part.repulsive>
0.0000

> <Gold.PLP.ligand.clash>
0.0000

> <Gold.PLP.ligand.torsion>
1.0505

> <Gold.PLP.Chemscore.Hbond>
4.0000

> <Gold.PLP.Chemscore.CHOScore>
0.0000

> <Gold.PLP.Chemscore.Metal>
0.0000

> <Gold.Chemscore.Hbonds>
donor molecule, donor type, donor heavy atom, donor atom, acceptor molecule, acceptor atom, score
      L1  H    12    47       P1  7948  1.92
      P1  H  6896  6908       L1    18  1.00
      P1  H  7997  8008       L1     5  0.84

> <Gold.PLP.Chemscore.Internal.Correction>
0.1376

> <Gold.Rescore>
     Score         DG    S(hbond)    S(metal)    S(lipo)     H(rot)  DE(clash)    DE(int)     intcor
     17.74     -20.13       2.69        0.00     105.52       2.60       1.42       0.97       ----

> <Gold.Chemscore.Fitness>
17.7449

> <Gold.Chemscore.DG>
-20.1315

> <Gold.Chemscore.ZeroCoef>
-5.4800

> <Gold.Chemscore.Hbond>
2.6854

> <Gold.Chemscore.Metal>
0.0000

> <Gold.Chemscore.Lipo>
105.5231

> <Gold.Chemscore.Internal_Hbond>
0.0000

> <Gold.Chemscore.DEClash>
1.4200

> <Gold.Chemscore.DEInternal>
0.9666

> <Gold.Chemscore.Rot>
2.6031

> <Gold.Chemscore.Internal.Correction>
   9.000000E+99

> <Gold.Chemscore.Hbonds>
donor molecule, donor type, donor heavy atom, donor atom, acceptor molecule, acceptor atom, score
      L1  H    12    47       P1  7948  0.85
      P1  H  6896  6908       L1    18  0.98
      P1  H  7997  8008       L1     5  0.29

> <Gold.Chemscore.Hbond.Weighted>
-8.9692

> <Gold.Chemscore.Metal.Weighted>
-0.0000

> <Gold.Chemscore.Lipo.Weighted>
-12.3462

> <Gold.Chemscore.Internal_Hbond.Weighted>
0.0000

> <Gold.Chemscore.DEClash.Weighted>
1.4200

> <Gold.Chemscore.DEInternal.Weighted>
0.9666

> <Gold.Chemscore.Rot.Weighted>
6.6640

> <Gold.Chemscore.Internal.Correction.Weighted>
   9.000000E+99

> <Gold.Protein.RotatedTorsions>
[ 6907 6896 6895 6894 ] final  152.40 input  -60.11 | X-H torsion
[ 7974 7965 7964 7962 ] final  -16.76 input  175.53 | X-H torsion
[ 8008 7997 7996 7995 ] final  -52.59 input   59.86 | X-H torsion
[ 10167 10162 10161 10158 ] final  -26.31 input  -65.29 | X-H torsion
[ 10718 10713 10712 10709 ] final  161.41 input   66.30 | X-H torsion
[ 10763 10752 10751 10750 ] final   71.33 input  -60.55 | X-H torsion
[ 11005 11000 10999 10996 ] final -143.69 input  -57.11 | X-H torsion

> <Gold.Protein.ActiveResidues>
 VAL166  LYS551  ARG553  GLY616  TRP617  ASP618  TYR619  PRO620  LYS621  CYS622 
 ASP623  PHE694  ASN695  SER759  ASP760  ASP761  ALA762  ILE779  LEU786  VAL792 
 PHE793  MET794  SER795  GLU796  ALA797  LYS798  CYS799  TRP800  GLU811  SER814 

> <Gold.Protein.RotatedAtoms>
  152.0872  133.4182  159.4527 H   0  0  0  0  0  0  0  0  0  0  0  0  # atno 6907 bound_to 6896
  150.6862  134.2914  159.4677 H   0  0  0  0  0  0  0  0  0  0  0  0  # atno 6908 bound_to 6896
  152.0761  134.9501  160.0624 H   0  0  0  0  0  0  0  0  0  0  0  0  # atno 6909 bound_to 6896
  146.1973  140.3682  142.8436 H   0  0  0  0  0  0  0  0  0  0  0  0  # atno 7974 bound_to 7965
  154.4110  140.1220  156.5015 H   0  0  0  0  0  0  0  0  0  0  0  0  # atno 8008 bound_to 7997
  155.6890  140.3495  155.4866 H   0  0  0  0  0  0  0  0  0  0  0  0  # atno 8009 bound_to 7997
  155.9486  140.1100  157.0986 H   0  0  0  0  0  0  0  0  0  0  0  0  # atno 8010 bound_to 7997
  140.7283  143.4189  151.0983 H   0  0  0  0  0  0  0  0  0  0  0  0  # atno 10167 bound_to 10162
  157.1369  131.0530  151.2345 H   0  0  0  0  0  0  0  0  0  0  0  0  # atno 10718 bound_to 10713
  153.0393  135.5141  154.7577 H   0  0  0  0  0  0  0  0  0  0  0  0  # atno 10763 bound_to 10752
  154.6528  135.2927  154.9968 H   0  0  0  0  0  0  0  0  0  0  0  0  # atno 10764 bound_to 10752
  154.0846  135.6659  153.4895 H   0  0  0  0  0  0  0  0  0  0  0  0  # atno 10765 bound_to 10752
  140.8099  134.2756  157.4945 H   0  0  0  0  0  0  0  0  0  0  0  0  # atno 11005 bound_to 11000
  144.8607  140.7135  143.6109 LP  0  0  0  0  0  0  0  0  0  0  0  0  # atno 17320 bound_to 7965
  145.3602  139.1683  143.4387 LP  0  0  0  0  0  0  0  0  0  0  0  0  # atno 17321 bound_to 7965
  139.7832  143.8325  152.3141 LP  0  0  0  0  0  0  0  0  0  0  0  0  # atno 17342 bound_to 10162
  139.8283  144.7265  150.9483 LP  0  0  0  0  0  0  0  0  0  0  0  0  # atno 17343 bound_to 10162
  157.4342  130.7508  149.7015 LP  0  0  0  0  0  0  0  0  0  0  0  0  # atno 17370 bound_to 10713
  155.9796  130.4038  150.3575 LP  0  0  0  0  0  0  0  0  0  0  0  0  # atno 17371 bound_to 10713
  139.8715  134.9477  156.3976 LP  0  0  0  0  0  0  0  0  0  0  0  0  # atno 17394 bound_to 11000
  140.9208  133.7646  155.9904 LP  0  0  0  0  0  0  0  0  0  0  0  0  # atno 17395 bound_to 11000

$$$$
