AV-unprocessed.smi:204|AV-procd|sdf|1599|dock5
  -GOLD-   2262019503D 1   1.00000     0.00000
 Structure written by MMmdl.
 53 56  0  0  0  0  0  0  0  0  1 V2000
  151.9092  138.7775  155.4475 C   0  0  0  0  0  0  0  0  0  0  0  0
  151.0450  140.0267  155.5817 C   0  0  0  0  0  0  0  0  0  0  0  0
  150.3266  140.3851  154.6489 O   0  0  0  0  0  0  0  0  0  0  0  0
  151.1234  140.6806  156.7488 N   0  0  0  0  0  0  0  0  0  0  0  0
  150.3721  141.8883  157.0680 C   0  0  0  0  0  0  0  0  0  0  0  0
  151.1407  142.7950  158.0470 C   0  0  1  0  0  0  0  0  0  0  0  0
  150.2774  143.9553  158.5874 C   0  0  0  0  0  0  0  0  0  0  0  0
  151.0778  144.8059  159.5852 C   0  0  0  0  0  0  0  0  0  0  0  0
  151.6544  143.9375  160.7139 C   0  0  0  0  0  0  0  0  0  0  0  0
  152.4303  142.8239  160.1665 N   0  0  0  0  0  0  0  0  0  0  0  0
  153.2692  142.1630  161.0054 C   0  0  0  0  0  0  0  0  0  0  0  0
  153.8712  141.0143  160.5956 N   0  0  0  0  0  0  0  0  0  0  0  0
  154.7057  140.3607  161.4088 C   0  0  0  0  0  0  0  0  0  0  0  0
  155.0695  140.6705  162.6542 N   0  0  0  0  0  0  0  0  0  0  0  0
  154.4625  141.8156  163.0776 C   0  0  0  0  0  0  0  0  0  0  0  0
  153.5604  142.6187  162.3230 C   0  0  0  0  0  0  0  0  0  0  0  0
  153.1463  143.7051  163.0849 N   0  0  0  0  0  0  0  0  0  0  0  0
  153.7794  143.5614  164.2167 C   0  0  0  0  0  0  0  0  0  0  0  0
  154.5794  142.4443  164.3055 N   0  0  0  0  0  0  0  0  0  0  0  0
  155.3843  142.0413  165.4490 C   0  0  0  0  0  0  0  0  0  0  0  0
  155.9078  143.2179  166.2993 C   0  0  0  0  0  0  0  0  0  0  0  0
  156.4196  144.3577  165.4010 C   0  0  0  0  0  0  0  0  0  0  0  0
  157.5520  143.9602  164.6538 O   0  0  0  0  0  0  0  0  0  0  0  0
  154.9949  143.6809  167.4439 C   0  0  0  0  0  0  0  0  0  0  0  0
  156.0707  143.6119  168.4031 O   0  0  0  0  0  0  0  0  0  0  0  0
  156.8431  142.8427  167.4572 C   0  0  0  0  0  0  0  0  0  0  0  0
  151.7064  141.9727  159.2221 C   0  0  0  0  0  0  0  0  0  0  0  0
  151.7093  138.0848  156.2656 H   0  0  0  0  0  0  0  0  0  0  0  0
  152.9664  139.0430  155.4683 H   0  0  0  0  0  0  0  0  0  0  0  0
  151.7042  138.2627  154.5081 H   0  0  0  0  0  0  0  0  0  0  0  0
  151.7413  140.3202  157.4613 H   0  0  0  0  0  0  0  0  0  0  0  0
  150.1514  142.4306  156.1470 H   0  0  0  0  0  0  0  0  0  0  0  0
  149.4141  141.6023  157.5060 H   0  0  0  0  0  0  0  0  0  0  0  0
  151.9867  143.2249  157.5080 H   0  0  0  0  0  0  0  0  0  0  0  0
  149.9268  144.5892  157.7727 H   0  0  0  0  0  0  0  0  0  0  0  0
  149.3878  143.5572  159.0775 H   0  0  0  0  0  0  0  0  0  0  0  0
  151.8915  145.3108  159.0629 H   0  0  0  0  0  0  0  0  0  0  0  0
  150.4446  145.5891  160.0030 H   0  0  0  0  0  0  0  0  0  0  0  0
  152.2827  144.5540  161.3584 H   0  0  0  0  0  0  0  0  0  0  0  0
  150.8450  143.5438  161.3308 H   0  0  0  0  0  0  0  0  0  0  0  0
  155.1444  139.4606  161.0037 H   0  0  0  0  0  0  0  0  0  0  0  0
  153.6709  144.2656  165.0289 H   0  0  0  0  0  0  0  0  0  0  0  0
  154.7801  141.3694  166.0601 H   0  0  0  0  0  0  0  0  0  0  0  0
  156.2122  141.4323  165.0842 H   0  0  0  0  0  0  0  0  0  0  0  0
  155.6464  144.7137  164.7204 H   0  0  0  0  0  0  0  0  0  0  0  0
  156.7066  145.2195  166.0046 H   0  0  0  0  0  0  0  0  0  0  0  0
  157.3601  144.0721  163.7351 H   0  0  0  0  0  0  0  0  0  0  0  0
  154.6026  144.6910  167.3207 H   0  0  0  0  0  0  0  0  0  0  0  0
  154.1966  142.9810  167.6928 H   0  0  0  0  0  0  0  0  0  0  0  0
  156.8411  141.7794  167.7028 H   0  0  0  0  0  0  0  0  0  0  0  0
  157.8627  143.2139  167.3463 H   0  0  0  0  0  0  0  0  0  0  0  0
  150.8933  141.4785  159.7557 H   0  0  0  0  0  0  0  0  0  0  0  0
  152.3444  141.1805  158.8322 H   0  0  0  0  0  0  0  0  0  0  0  0
  1  2  1  0  0  0  0
  1 28  1  0  0  0  0
  1 29  1  0  0  0  0
  1 30  1  0  0  0  0
  2  3  2  0  0  0  0
  2  4  1  0  0  0  0
  4  5  1  0  0  0  0
  4 31  1  0  0  0  0
  5  6  1  0  0  0  0
  5 32  1  0  0  0  0
  5 33  1  0  0  0  0
  6 27  1  0  0  0  0
  6  7  1  0  0  0  0
  6 34  1  0  0  0  0
  7  8  1  0  0  0  0
  7 35  1  0  0  0  0
  7 36  1  0  0  0  0
  8  9  1  0  0  0  0
  8 37  1  0  0  0  0
  8 38  1  0  0  0  0
  9 10  1  0  0  0  0
  9 39  1  0  0  0  0
  9 40  1  0  0  0  0
 10 11  1  0  0  0  0
 10 27  1  0  0  0  0
 11 16  1  0  0  0  0
 11 12  2  0  0  0  0
 12 13  1  0  0  0  0
 13 14  2  0  0  0  0
 13 41  1  0  0  0  0
 14 15  1  0  0  0  0
 15 19  1  0  0  0  0
 15 16  2  0  0  0  0
 16 17  1  0  0  0  0
 17 18  2  0  0  0  0
 18 19  1  0  0  0  0
 18 42  1  0  0  0  0
 19 20  1  0  0  0  0
 20 21  1  0  0  0  0
 20 43  1  0  0  0  0
 20 44  1  0  0  0  0
 21 26  1  0  0  0  0
 21 22  1  0  0  0  0
 21 24  1  0  0  0  0
 22 23  1  0  0  0  0
 22 45  1  0  0  0  0
 22 46  1  0  0  0  0
 23 47  1  0  0  0  0
 24 25  1  0  0  0  0
 24 48  1  0  0  0  0
 24 49  1  0  0  0  0
 25 26  1  0  0  0  0
 26 50  1  0  0  0  0
 26 51  1  0  0  0  0
 27 52  1  0  0  0  0
 27 53  1  0  0  0  0
M  END
> <s_m_source_file>
AV-unprocessed.smi

> <i_m_source_file_index>
204

> <i_lp_mmshare_version>
43012

> <i_f3d_flags>
0

> <s_epik_input>
W0NIM11DKD1PKVtOSF1bQ0gyXVtDQEBIXTFbQ0gyXVtDSDJdW0NIMl1OKFtDSDJdMSljKG5bY0hdbjIpYyhjMjMpbltjSF1uM1tDSDJdQzQoW0NIMl1bT0hdKVtDSDJdT1tDSDJdNA==

> <s_epik_cmdline>
J2VwaWtfcHl0aG9uJywgJy1waCcsICc3LjAnLCAnLXRuJywgJzgnLCAnLW1hJywgJzIwMCcsICctbWV0YWxfYmluZGluZycsICctaW1hZScsICc8aW5maWxlLm1hZT4nLCAnLW9tYWUnLCAnPG91dGZpbGUubWFlPic=

> <r_lp_tautomer_probability>
1

> <r_epik_Ionization_Penalty>
0.00166599

> <r_epik_Ionization_Penalty_Charging>
0

> <r_epik_Ionization_Penalty_Neutral>
0.00166599

> <r_epik_State_Penalty>
0.000989951

> <r_epik_Charging_Adjusted_Penalty>
0.000989951

> <i_epik_Tot_Q>
0

> <i_epik_Tot_abs_Q>
0

> <r_epik_Metal_State_Penalty>
-0

> <b_epik_Metal_Only>
0

> <s_lp_Force_Field>
OPLS_2005

> <r_lp_Energy>
35.563

> <b_lp_Chiralities_Consistent>
1

> <s_lp_Variant>
AV-unprocessed.smi:204-2

> <Gold.Version>
5.8.1

> <Gold.Id.Protein>
6NUR|6NUR_protein|mol2

> <Gold.PLP.Fitness>
50.9958

> <Gold.PLP.PLP>
-50.0759

> <Gold.PLP.part.hbond>
-4.0000

> <Gold.PLP.part.metal>
0.0000

> <Gold.PLP.part.buried>
0.7741

> <Gold.PLP.part.nonpolar>
-46.6469

> <Gold.PLP.part.repulsive>
0.4423

> <Gold.PLP.ligand.clash>
0.0000

> <Gold.PLP.ligand.torsion>
1.4416

> <Gold.PLP.Chemscore.Hbond>
1.0000

> <Gold.PLP.Chemscore.CHOScore>
0.0000

> <Gold.PLP.Chemscore.Metal>
0.0000

> <Gold.Chemscore.Hbonds>
donor molecule, donor type, donor heavy atom, donor atom, acceptor molecule, acceptor atom, score
      P1  H  7989  7998       L1     3  0.95

> <Gold.PLP.Chemscore.Internal.Correction>
0.8030

> <Gold.Rescore>
     Score         DG    S(hbond)    S(metal)    S(lipo)     H(rot)  DE(clash)    DE(int)     intcor
      6.53     -12.64       0.96        0.00     106.62       3.33       3.54       2.57       ----

> <Gold.Chemscore.Fitness>
6.5300

> <Gold.Chemscore.DG>
-12.6422

> <Gold.Chemscore.ZeroCoef>
-5.4800

> <Gold.Chemscore.Hbond>
0.9587

> <Gold.Chemscore.Metal>
0.0000

> <Gold.Chemscore.Lipo>
106.6235

> <Gold.Chemscore.Internal_Hbond>
0.0000

> <Gold.Chemscore.DEClash>
3.5420

> <Gold.Chemscore.DEInternal>
2.5703

> <Gold.Chemscore.Rot>
3.3261

> <Gold.Chemscore.Internal.Correction>
   9.000000E+99

> <Gold.Chemscore.Hbonds>
donor molecule, donor type, donor heavy atom, donor atom, acceptor molecule, acceptor atom, score
      P1  H  7989  7998       L1     3  0.21

> <Gold.Chemscore.Hbond.Weighted>
-3.2021

> <Gold.Chemscore.Metal.Weighted>
-0.0000

> <Gold.Chemscore.Lipo.Weighted>
-12.4749

> <Gold.Chemscore.Internal_Hbond.Weighted>
0.0000

> <Gold.Chemscore.DEClash.Weighted>
3.5420

> <Gold.Chemscore.DEInternal.Weighted>
2.5703

> <Gold.Chemscore.Rot.Weighted>
8.5149

> <Gold.Chemscore.Internal.Correction.Weighted>
   9.000000E+99

> <Gold.Protein.RotatedTorsions>
[ 6907 6896 6895 6894 ] final -162.88 input  -60.11 | X-H torsion
[ 7974 7965 7964 7962 ] final   39.86 input  175.53 | X-H torsion
[ 8008 7997 7996 7995 ] final    3.19 input   59.86 | X-H torsion
[ 10167 10162 10161 10158 ] final  -92.40 input  -65.29 | X-H torsion
[ 10718 10713 10712 10709 ] final -176.58 input   66.30 | X-H torsion
[ 10763 10752 10751 10750 ] final -166.99 input  -60.55 | X-H torsion
[ 11005 11000 10999 10996 ] final   50.75 input  -57.11 | X-H torsion

> <Gold.Protein.ActiveResidues>
 VAL166  LYS551  ARG553  GLY616  TRP617  ASP618  TYR619  PRO620  LYS621  CYS622 
 ASP623  PHE694  ASN695  SER759  ASP760  ASP761  ALA762  ILE779  LEU786  VAL792 
 PHE793  MET794  SER795  GLU796  ALA797  LYS798  CYS799  TRP800  GLU811  SER814 

> <Gold.Protein.RotatedAtoms>
  151.3873  133.3801  159.2716 H   0  0  0  0  0  0  0  0  0  0  0  0  # atno 6907 bound_to 6896
  150.9532  134.8930  159.7695 H   0  0  0  0  0  0  0  0  0  0  0  0  # atno 6908 bound_to 6896
  152.5120  134.3829  159.9409 H   0  0  0  0  0  0  0  0  0  0  0  0  # atno 6909 bound_to 6896
  146.0951  139.5601  142.9451 H   0  0  0  0  0  0  0  0  0  0  0  0  # atno 7974 bound_to 7965
  154.7007  140.2672  155.6722 H   0  0  0  0  0  0  0  0  0  0  0  0  # atno 8008 bound_to 7997
  156.2764  140.2773  156.1540 H   0  0  0  0  0  0  0  0  0  0  0  0  # atno 8009 bound_to 7997
  155.0769  140.0372  157.2616 H   0  0  0  0  0  0  0  0  0  0  0  0  # atno 8010 bound_to 7997
  140.3351  143.2973  151.9898 H   0  0  0  0  0  0  0  0  0  0  0  0  # atno 10167 bound_to 10162
  156.8168  130.9605  151.3113 H   0  0  0  0  0  0  0  0  0  0  0  0  # atno 10718 bound_to 10713
  154.6777  135.2949  154.9656 H   0  0  0  0  0  0  0  0  0  0  0  0  # atno 10763 bound_to 10752
  154.0661  135.6624  153.4822 H   0  0  0  0  0  0  0  0  0  0  0  0  # atno 10764 bound_to 10752
  153.0527  135.5164  154.7805 H   0  0  0  0  0  0  0  0  0  0  0  0  # atno 10765 bound_to 10752
  140.0991  134.5105  155.8779 H   0  0  0  0  0  0  0  0  0  0  0  0  # atno 11005 bound_to 11000
  145.5965  141.0362  143.2042 LP  0  0  0  0  0  0  0  0  0  0  0  0  # atno 17320 bound_to 7965
  144.7389  139.7506  143.7318 LP  0  0  0  0  0  0  0  0  0  0  0  0  # atno 17321 bound_to 7965
  139.4850  144.6203  151.7268 LP  0  0  0  0  0  0  0  0  0  0  0  0  # atno 17342 bound_to 10162
  140.5361  144.0654  150.6071 LP  0  0  0  0  0  0  0  0  0  0  0  0  # atno 17343 bound_to 10162
  157.6477  130.8858  149.9572 LP  0  0  0  0  0  0  0  0  0  0  0  0  # atno 17370 bound_to 10713
  156.1012  130.3655  150.0215 LP  0  0  0  0  0  0  0  0  0  0  0  0  # atno 17371 bound_to 10713
  141.2100  133.6690  156.6482 LP  0  0  0  0  0  0  0  0  0  0  0  0  # atno 17394 bound_to 11000
  140.3245  134.7980  157.4278 LP  0  0  0  0  0  0  0  0  0  0  0  0  # atno 17395 bound_to 11000

$$$$
