AV-unprocessed.smi:2562|AV-procd|sdf|10054|dock1
  -GOLD-   2272014 93D 1   1.00000     0.00000
 Structure written by MMmdl.
 29 30  0  0  0  0  0  0  0  0  2 V2000
  153.1343  143.0306  162.9986 C   0  0  0  0  0  0  0  0  0  0  0  0
  152.4398  143.0852  161.6335 C   0  0  0  0  0  0  0  0  0  0  0  0
  153.0853  142.1477  160.6039 C   0  0  0  0  0  0  0  0  0  0  0  0
  152.1964  141.9298  159.3990 C   0  0  0  0  0  0  0  0  0  0  0  0
  150.9591  142.4296  159.2331 N   0  5  0  0  0  0  0  0  0  0  0  0
  150.4896  142.0731  158.0549 N   0  0  0  0  0  0  0  0  0  0  0  0
  151.4685  141.3567  157.4809 C   0  0  0  0  0  0  0  0  0  0  0  0
  151.3645  140.7040  156.1168 C   0  0  2  0  0  0  0  0  0  0  0  0
  150.0217  141.0469  155.4402 C   0  0  0  0  0  0  0  0  0  0  0  0
  149.9234  140.4051  154.1291 N   0  0  0  0  0  0  0  0  0  0  0  0
  150.1363  138.9631  154.2283 C   0  0  0  0  0  0  0  0  0  0  0  0
  151.4752  138.6694  154.9259 C   0  0  0  0  0  0  0  0  0  0  0  0
  151.4860  139.2857  156.2083 O   0  0  0  0  0  0  0  0  0  0  0  0
  152.5247  141.2557  158.3016 N   0  0  0  0  0  0  0  0  0  0  0  0
  152.6522  143.7054  163.7061 H   0  0  0  0  0  0  0  0  0  0  0  0
  154.1817  143.3229  162.9189 H   0  0  0  0  0  0  0  0  0  0  0  0
  153.0968  142.0256  163.4195 H   0  0  0  0  0  0  0  0  0  0  0  0
  151.3875  142.8248  161.7529 H   0  0  0  0  0  0  0  0  0  0  0  0
  152.4643  144.1088  161.2579 H   0  0  0  0  0  0  0  0  0  0  0  0
  154.0382  142.5569  160.2667 H   0  0  0  0  0  0  0  0  0  0  0  0
  153.3006  141.1800  161.0582 H   0  0  0  0  0  0  0  0  0  0  0  0
  152.1888  141.0881  155.5127 H   0  0  0  0  0  0  0  0  0  0  0  0
  149.1974  140.7193  156.0753 H   0  0  0  0  0  0  0  0  0  0  0  0
  149.9227  142.1272  155.3326 H   0  0  0  0  0  0  0  0  0  0  0  0
  149.0073  140.5870  153.7323 H   0  0  0  0  0  0  0  0  0  0  0  0
  149.3223  138.5056  154.7918 H   0  0  0  0  0  0  0  0  0  0  0  0
  150.1237  138.5133  153.2354 H   0  0  0  0  0  0  0  0  0  0  0  0
  151.6043  137.5943  155.0506 H   0  0  0  0  0  0  0  0  0  0  0  0
  152.3161  139.0241  154.3275 H   0  0  0  0  0  0  0  0  0  0  0  0
  1  2  1  0  0  0  0
  1 15  1  0  0  0  0
  1 16  1  0  0  0  0
  1 17  1  0  0  0  0
  2  3  1  0  0  0  0
  2 18  1  0  0  0  0
  2 19  1  0  0  0  0
  3 20  1  0  0  0  0
  3 21  1  0  0  0  0
  3  4  1  0  0  0  0
  4 14  2  0  0  0  0
  4  5  1  0  0  0  0
  5  6  1  0  0  0  0
  6  7  2  0  0  0  0
  7 14  1  0  0  0  0
  7  8  1  0  0  0  0
  8 13  1  0  0  0  0
  8  9  1  0  0  0  0
  8 22  1  0  0  0  0
  9 10  1  0  0  0  0
  9 23  1  0  0  0  0
  9 24  1  0  0  0  0
 10 11  1  0  0  0  0
 10 25  1  0  0  0  0
 11 12  1  0  0  0  0
 11 26  1  0  0  0  0
 11 27  1  0  0  0  0
 12 13  1  0  0  0  0
 12 28  1  0  0  0  0
 12 29  1  0  0  0  0
M  CHG  1   5  -1
M  END
> <s_m_source_file>
AV-unprocessed.smi

> <i_m_source_file_index>
2562

> <i_lp_mmshare_version>
43012

> <i_f3d_flags>
0

> <s_epik_input>
W0NIM11bQ0gyXVtDSDJdYzFuW25IXWMobjEpW0NAQEhdMltDSDJdW05IXVtDSDJdW0NIMl1PMg==

> <s_epik_cmdline>
J2VwaWtfcHl0aG9uJywgJy1waCcsICc3LjAnLCAnLXRuJywgJzgnLCAnLW1hJywgJzIwMCcsICctbWV0YWxfYmluZGluZycsICctaW1hZScsICc8aW5maWxlLm1hZT4nLCAnLW9tYWUnLCAnPG91dGZpbGUubWFlPic=

> <r_epik_Ionization_Penalty>
15.949

> <r_epik_Ionization_Penalty_Charging>
14.3757

> <r_epik_Ionization_Penalty_Neutral>
1.5733

> <r_epik_State_Penalty>
7.02775

> <r_epik_Charging_Adjusted_Penalty>
21.4034

> <i_epik_Tot_Q>
-1

> <i_epik_Tot_abs_Q>
1

> <r_epik_Metal_State_Penalty>
3.10311

> <b_epik_Metal_Only>
1

> <s_lp_Force_Field>
OPLS_2005

> <r_lp_Energy>
11.5852

> <b_lp_Chiralities_Consistent>
1

> <s_lp_Variant>
AV-unprocessed.smi:2562-13

> <Gold.Version>
5.8.1

> <Gold.Id.Protein>
6NUR|6NUR_protein|mol2

> <Gold.PLP.Fitness>
34.8955

> <Gold.PLP.PLP>
-32.9739

> <Gold.PLP.part.hbond>
-2.1950

> <Gold.PLP.part.metal>
0.0000

> <Gold.PLP.part.buried>
-3.8492

> <Gold.PLP.part.nonpolar>
-26.3240

> <Gold.PLP.part.repulsive>
0.0895

> <Gold.PLP.ligand.clash>
0.0000

> <Gold.PLP.ligand.torsion>
0.0833

> <Gold.PLP.Chemscore.Hbond>
0.6912

> <Gold.PLP.Chemscore.CHOScore>
0.0000

> <Gold.PLP.Chemscore.Metal>
0.0000

> <Gold.Chemscore.Hbonds>
donor molecule, donor type, donor heavy atom, donor atom, acceptor molecule, acceptor atom, score
      P1  H  7989  7998       L1    10  0.64

> <Gold.PLP.Chemscore.Internal.Correction>
0.0145

> <Gold.Rescore>
     Score         DG    S(hbond)    S(metal)    S(lipo)     H(rot)  DE(clash)    DE(int)     intcor
      9.72      -9.89       0.10        0.00      66.51       1.44       0.12       0.05       ----

> <Gold.Chemscore.Fitness>
9.7190

> <Gold.Chemscore.DG>
-9.8915

> <Gold.Chemscore.ZeroCoef>
-5.4800

> <Gold.Chemscore.Hbond>
0.0980

> <Gold.Chemscore.Metal>
0.0000

> <Gold.Chemscore.Lipo>
66.5059

> <Gold.Chemscore.Internal_Hbond>
0.0000

> <Gold.Chemscore.DEClash>
0.1246

> <Gold.Chemscore.DEInternal>
0.0480

> <Gold.Chemscore.Rot>
1.4441

> <Gold.Chemscore.Internal.Correction>
   9.000000E+99

> <Gold.Chemscore.Hbonds>
donor molecule, donor type, donor heavy atom, donor atom, acceptor molecule, acceptor atom, score
      P1  H  7989  7998       L1    10  0.02

> <Gold.Chemscore.Hbond.Weighted>
-0.3272

> <Gold.Chemscore.Metal.Weighted>
-0.0000

> <Gold.Chemscore.Lipo.Weighted>
-7.7812

> <Gold.Chemscore.Internal_Hbond.Weighted>
0.0000

> <Gold.Chemscore.DEClash.Weighted>
0.1246

> <Gold.Chemscore.DEInternal.Weighted>
0.0480

> <Gold.Chemscore.Rot.Weighted>
3.6969

> <Gold.Chemscore.Internal.Correction.Weighted>
   9.000000E+99

> <Gold.Protein.RotatedTorsions>
[ 6907 6896 6895 6894 ] final -124.49 input  -60.11 | X-H torsion
[ 7974 7965 7964 7962 ] final  -67.88 input  175.53 | X-H torsion
[ 8008 7997 7996 7995 ] final   21.46 input   59.86 | X-H torsion
[ 10167 10162 10161 10158 ] final  -85.28 input  -65.29 | X-H torsion
[ 10718 10713 10712 10709 ] final   63.72 input   66.30 | X-H torsion
[ 10763 10752 10751 10750 ] final   39.86 input  -60.55 | X-H torsion
[ 11005 11000 10999 10996 ] final  -53.58 input  -57.11 | X-H torsion

> <Gold.Protein.ActiveResidues>
 VAL166  LYS551  ARG553  GLY616  TRP617  ASP618  TYR619  PRO620  LYS621  CYS622 
 ASP623  PHE694  ASN695  SER759  ASP760  ASP761  ALA762  ILE779  LEU786  VAL792 
 PHE793  MET794  SER795  GLU796  ALA797  LYS798  CYS799  TRP800  GLU811  SER814 

> <Gold.Protein.RotatedAtoms>
  150.8774  133.7420  159.2942 H   0  0  0  0  0  0  0  0  0  0  0  0  # atno 6907 bound_to 6896
  151.5013  135.1060  159.9839 H   0  0  0  0  0  0  0  0  0  0  0  0  # atno 6908 bound_to 6896
  152.4736  133.8042  159.7024 H   0  0  0  0  0  0  0  0  0  0  0  0  # atno 6909 bound_to 6896
  145.7236  140.9028  143.0617 H   0  0  0  0  0  0  0  0  0  0  0  0  # atno 7974 bound_to 7965
  154.9510  140.3065  155.5075 H   0  0  0  0  0  0  0  0  0  0  0  0  # atno 8008 bound_to 7997
  156.2987  140.2319  156.4525 H   0  0  0  0  0  0  0  0  0  0  0  0  # atno 8009 bound_to 7997
  154.8055  140.0431  157.1293 H   0  0  0  0  0  0  0  0  0  0  0  0  # atno 8010 bound_to 7997
  140.4053  143.2645  151.9089 H   0  0  0  0  0  0  0  0  0  0  0  0  # atno 10167 bound_to 10162
  157.5991  130.9121  149.9752 H   0  0  0  0  0  0  0  0  0  0  0  0  # atno 10718 bound_to 10713
  152.9954  135.6208  154.2532 H   0  0  0  0  0  0  0  0  0  0  0  0  # atno 10763 bound_to 10752
  154.2270  135.2793  155.2905 H   0  0  0  0  0  0  0  0  0  0  0  0  # atno 10764 bound_to 10752
  154.5481  135.5741  153.6956 H   0  0  0  0  0  0  0  0  0  0  0  0  # atno 10765 bound_to 10752
  141.0983  133.6621  156.4193 H   0  0  0  0  0  0  0  0  0  0  0  0  # atno 11005 bound_to 11000
  144.6910  139.9235  143.7469 LP  0  0  0  0  0  0  0  0  0  0  0  0  # atno 17320 bound_to 7965
  146.0603  139.3597  143.0585 LP  0  0  0  0  0  0  0  0  0  0  0  0  # atno 17321 bound_to 7965
  139.4783  144.5593  151.8265 LP  0  0  0  0  0  0  0  0  0  0  0  0  # atno 17342 bound_to 10162
  140.4697  144.1605  150.5916 LP  0  0  0  0  0  0  0  0  0  0  0  0  # atno 17343 bound_to 10162
  156.1059  130.3652  150.0134 LP  0  0  0  0  0  0  0  0  0  0  0  0  # atno 17370 bound_to 10713
  156.8241  130.9369  151.3640 LP  0  0  0  0  0  0  0  0  0  0  0  0  # atno 17371 bound_to 10713
  140.5085  134.6418  157.5275 LP  0  0  0  0  0  0  0  0  0  0  0  0  # atno 17394 bound_to 11000
  139.9826  134.7112  155.9831 LP  0  0  0  0  0  0  0  0  0  0  0  0  # atno 17395 bound_to 11000

$$$$
