AV-unprocessed.smi:1349|AV-procd|sdf|5519|dock2
  -GOLD-   22720 5103D 1   1.00000     0.00000
 Structure written by MMmdl.
 43 45  0  0  0  0  0  0  0  0  2 V2000
  151.2506  135.5120  155.6180 O   0  0  0  0  0  0  0  0  0  0  0  0
  151.1778  136.5712  156.5488 C   0  0  0  0  0  0  0  0  0  0  0  0
  152.0786  137.7345  156.1096 C   0  0  0  0  0  0  0  0  0  0  0  0
  151.9147  138.1000  154.6255 C   0  0  0  0  0  0  0  0  0  0  0  0
  150.6842  138.9157  154.3955 C   0  0  0  0  0  0  0  0  0  0  0  0
  149.6528  138.5870  153.5674 N   0  3  0  0  0  0  0  0  0  0  0  0
  148.6751  139.5818  153.6122 C   0  0  0  0  0  0  0  0  0  0  0  0
  147.4581  139.6948  152.9472 C   0  0  0  0  0  0  0  0  0  0  0  0
  146.6932  140.8484  153.2189 C   0  0  0  0  0  0  0  0  0  0  0  0
  147.1460  141.8342  154.1200 C   0  0  0  0  0  0  0  0  0  0  0  0
  148.3815  141.7082  154.7889 C   0  0  0  0  0  0  0  0  0  0  0  0
  149.1301  140.5637  154.5157 C   0  0  0  0  0  0  0  0  0  0  0  0
  150.3691  140.1085  154.9786 N   0  0  0  0  0  0  0  0  0  0  0  0
  151.1164  140.9243  155.9471 C   0  0  0  0  0  0  0  0  0  0  0  0
  150.2436  141.3609  157.1322 C   0  0  0  0  0  0  0  0  0  0  0  0
  150.8513  142.4785  157.7668 O   0  0  0  0  0  0  0  0  0  0  0  0
  151.7565  142.2464  158.7789 C   0  0  0  0  0  0  0  0  0  0  0  0
  152.4520  141.0201  158.7438 C   0  0  0  0  0  0  0  0  0  0  0  0
  153.3990  140.6999  159.7356 C   0  0  0  0  0  0  0  0  0  0  0  0
  153.6594  141.6080  160.7783 C   0  0  0  0  0  0  0  0  0  0  0  0
  152.9706  142.8343  160.8272 C   0  0  0  0  0  0  0  0  0  0  0  0
  152.0234  143.1545  159.8347 C   0  0  0  0  0  0  0  0  0  0  0  0
  151.0604  134.7022  156.0669 H   0  0  0  0  0  0  0  0  0  0  0  0
  150.1423  136.8972  156.6522 H   0  0  0  0  0  0  0  0  0  0  0  0
  151.4976  136.1973  157.5218 H   0  0  0  0  0  0  0  0  0  0  0  0
  151.8423  138.6088  156.7171 H   0  0  0  0  0  0  0  0  0  0  0  0
  153.1200  137.4891  156.3227 H   0  0  0  0  0  0  0  0  0  0  0  0
  152.7818  138.6572  154.2702 H   0  0  0  0  0  0  0  0  0  0  0  0
  151.8585  137.1953  154.0193 H   0  0  0  0  0  0  0  0  0  0  0  0
  147.1106  138.9416  152.2554 H   0  0  0  0  0  0  0  0  0  0  0  0
  145.7411  140.9800  152.7256 H   0  0  0  0  0  0  0  0  0  0  0  0
  146.5335  142.7055  154.3022 H   0  0  0  0  0  0  0  0  0  0  0  0
  148.7206  142.4695  155.4757 H   0  0  0  0  0  0  0  0  0  0  0  0
  151.9885  140.3641  156.2854 H   0  0  0  0  0  0  0  0  0  0  0  0
  151.4974  141.8006  155.4224 H   0  0  0  0  0  0  0  0  0  0  0  0
  149.2467  141.6253  156.7761 H   0  0  0  0  0  0  0  0  0  0  0  0
  150.1423  140.5337  157.8362 H   0  0  0  0  0  0  0  0  0  0  0  0
  152.2575  140.3171  157.9469 H   0  0  0  0  0  0  0  0  0  0  0  0
  153.9248  139.7572  159.6960 H   0  0  0  0  0  0  0  0  0  0  0  0
  154.3857  141.3643  161.5397 H   0  0  0  0  0  0  0  0  0  0  0  0
  153.1688  143.5317  161.6277 H   0  0  0  0  0  0  0  0  0  0  0  0
  151.5142  144.1034  159.9066 H   0  0  0  0  0  0  0  0  0  0  0  0
  149.6248  137.7436  153.0092 H   0  0  0  0  0  0  0  0  0  0  0  0
  1  2  1  0  0  0  0
  1 23  1  0  0  0  0
  2  3  1  0  0  0  0
  2 24  1  0  0  0  0
  2 25  1  0  0  0  0
  3  4  1  0  0  0  0
  3 26  1  0  0  0  0
  3 27  1  0  0  0  0
  4  5  1  0  0  0  0
  4 28  1  0  0  0  0
  4 29  1  0  0  0  0
  5 13  1  0  0  0  0
  5  6  2  0  0  0  0
  6  7  1  0  0  0  0
  6 43  1  0  0  0  0
  7 12  2  0  0  0  0
  7  8  1  0  0  0  0
  8  9  2  0  0  0  0
  8 30  1  0  0  0  0
  9 10  1  0  0  0  0
  9 31  1  0  0  0  0
 10 11  2  0  0  0  0
 10 32  1  0  0  0  0
 11 12  1  0  0  0  0
 11 33  1  0  0  0  0
 12 13  1  0  0  0  0
 13 14  1  0  0  0  0
 14 15  1  0  0  0  0
 14 34  1  0  0  0  0
 14 35  1  0  0  0  0
 15 16  1  0  0  0  0
 15 36  1  0  0  0  0
 15 37  1  0  0  0  0
 16 17  1  0  0  0  0
 17 22  1  0  0  0  0
 17 18  2  0  0  0  0
 18 19  1  0  0  0  0
 18 38  1  0  0  0  0
 19 20  2  0  0  0  0
 19 39  1  0  0  0  0
 20 21  1  0  0  0  0
 20 40  1  0  0  0  0
 21 22  2  0  0  0  0
 21 41  1  0  0  0  0
 22 42  1  0  0  0  0
M  CHG  1   6   1
M  END
> <s_m_source_file>
AV-unprocessed.smi

> <i_m_source_file_index>
1349

> <i_lp_mmshare_version>
43012

> <i_f3d_flags>
0

> <s_epik_input>
W09IXVtDSDJdW0NIMl1bQ0gyXWMobjEpbihjKGMxMilbY0hdW2NIXVtjSF1bY0hdMilbQ0gyXVtDSDJdT2MzW2NIXVtjSF1bY0hdW2NIXVtjSF0z

> <s_epik_cmdline>
J2VwaWtfcHl0aG9uJywgJy1waCcsICc3LjAnLCAnLXRuJywgJzgnLCAnLW1hJywgJzIwMCcsICctbWV0YWxfYmluZGluZycsICctaW1hZScsICc8aW5maWxlLm1hZT4nLCAnLW9tYWUnLCAnPG91dGZpbGUubWFlPic=

> <r_lp_tautomer_probability>
1

> <r_epik_Ionization_Penalty>
0.856072

> <r_epik_Ionization_Penalty_Charging>
0.856072

> <r_epik_Ionization_Penalty_Neutral>
1.64909e-07

> <r_epik_State_Penalty>
0.892118

> <r_epik_Charging_Adjusted_Penalty>
1.74819

> <i_epik_Tot_Q>
1

> <i_epik_Tot_abs_Q>
1

> <r_epik_Metal_State_Penalty>
4.83641

> <b_epik_Metal_Only>
0

> <s_lp_Force_Field>
OPLS_2005

> <r_lp_Energy>
19.1857

> <b_lp_Chiralities_Consistent>
1

> <s_lp_Variant>
AV-unprocessed.smi:1349-2

> <Gold.Version>
5.8.1

> <Gold.Id.Protein>
6NUR|6NUR_protein|mol2

> <Gold.PLP.Fitness>
54.7330

> <Gold.PLP.PLP>
-47.3864

> <Gold.PLP.part.hbond>
-3.0000

> <Gold.PLP.part.metal>
0.0000

> <Gold.PLP.part.buried>
3.2429

> <Gold.PLP.part.nonpolar>
-47.2115

> <Gold.PLP.part.repulsive>
0.1765

> <Gold.PLP.ligand.clash>
0.0000

> <Gold.PLP.ligand.torsion>
0.8773

> <Gold.PLP.Chemscore.Hbond>
3.0000

> <Gold.PLP.Chemscore.CHOScore>
0.0000

> <Gold.PLP.Chemscore.Metal>
0.0000

> <Gold.Chemscore.Hbonds>
donor molecule, donor type, donor heavy atom, donor atom, acceptor molecule, acceptor atom, score
      L1  H     6    43       P1  7948  2.00
      P1  H 10752 10763       L1     1  1.00

> <Gold.PLP.Chemscore.Internal.Correction>
0.1012

> <Gold.Rescore>
     Score         DG    S(hbond)    S(metal)    S(lipo)     H(rot)  DE(clash)    DE(int)     intcor
     18.29     -19.49       1.65        0.00     127.74       2.51       0.39       0.82       ----

> <Gold.Chemscore.Fitness>
18.2905

> <Gold.Chemscore.DG>
-19.4947

> <Gold.Chemscore.ZeroCoef>
-5.4800

> <Gold.Chemscore.Hbond>
1.6467

> <Gold.Chemscore.Metal>
0.0000

> <Gold.Chemscore.Lipo>
127.7436

> <Gold.Chemscore.Internal_Hbond>
0.0000

> <Gold.Chemscore.DEClash>
0.3854

> <Gold.Chemscore.DEInternal>
0.8188

> <Gold.Chemscore.Rot>
2.5123

> <Gold.Chemscore.Internal.Correction>
   9.000000E+99

> <Gold.Chemscore.Hbonds>
donor molecule, donor type, donor heavy atom, donor atom, acceptor molecule, acceptor atom, score
      L1  H     6    43       P1  7948  0.73
      P1  H 10752 10763       L1     1  0.57

> <Gold.Chemscore.Hbond.Weighted>
-5.5001

> <Gold.Chemscore.Metal.Weighted>
-0.0000

> <Gold.Chemscore.Lipo.Weighted>
-14.9460

> <Gold.Chemscore.Internal_Hbond.Weighted>
0.0000

> <Gold.Chemscore.DEClash.Weighted>
0.3854

> <Gold.Chemscore.DEInternal.Weighted>
0.8188

> <Gold.Chemscore.Rot.Weighted>
6.4314

> <Gold.Chemscore.Internal.Correction.Weighted>
   9.000000E+99

> <Gold.Protein.RotatedTorsions>
[ 6907 6896 6895 6894 ] final -139.95 input  -60.11 | X-H torsion
[ 7974 7965 7964 7962 ] final  123.70 input  175.53 | X-H torsion
[ 8008 7997 7996 7995 ] final   45.80 input   59.86 | X-H torsion
[ 10167 10162 10161 10158 ] final -137.13 input  -65.29 | X-H torsion
[ 10718 10713 10712 10709 ] final -130.67 input   66.30 | X-H torsion
[ 10763 10752 10751 10750 ] final   72.66 input  -60.55 | X-H torsion
[ 11005 11000 10999 10996 ] final   -9.02 input  -57.11 | X-H torsion

> <Gold.Protein.ActiveResidues>
 VAL166  LYS551  ARG553  GLY616  TRP617  ASP618  TYR619  PRO620  LYS621  CYS622 
 ASP623  PHE694  ASN695  SER759  ASP760  ASP761  ALA762  ILE779  LEU786  VAL792 
 PHE793  MET794  SER795  GLU796  ALA797  LYS798  CYS799  TRP800  GLU811  SER814 

> <Gold.Protein.RotatedAtoms>
  151.0544  133.5596  159.2639 H   0  0  0  0  0  0  0  0  0  0  0  0  # atno 6907 bound_to 6896
  151.2595  135.0648  159.9102 H   0  0  0  0  0  0  0  0  0  0  0  0  # atno 6908 bound_to 6896
  152.5387  134.0292  159.8071 H   0  0  0  0  0  0  0  0  0  0  0  0  # atno 6909 bound_to 6896
  145.0928  139.3574  143.4852 H   0  0  0  0  0  0  0  0  0  0  0  0  # atno 7974 bound_to 7965
  155.3418  140.3408  155.4239 H   0  0  0  0  0  0  0  0  0  0  0  0  # atno 8008 bound_to 7997
  156.1809  140.1664  156.8312 H   0  0  0  0  0  0  0  0  0  0  0  0  # atno 8009 bound_to 7997
  154.5333  140.0740  156.8366 H   0  0  0  0  0  0  0  0  0  0  0  0  # atno 8010 bound_to 7997
  139.8609  143.7079  152.2650 H   0  0  0  0  0  0  0  0  0  0  0  0  # atno 10167 bound_to 10162
  156.2168  130.6953  151.0711 H   0  0  0  0  0  0  0  0  0  0  0  0  # atno 10718 bound_to 10713
  153.0473  135.5091  154.7778 H   0  0  0  0  0  0  0  0  0  0  0  0  # atno 10763 bound_to 10752
  154.6668  135.2947  154.9797 H   0  0  0  0  0  0  0  0  0  0  0  0  # atno 10764 bound_to 10752
  154.0629  135.6688  153.4867 H   0  0  0  0  0  0  0  0  0  0  0  0  # atno 10765 bound_to 10752
  140.7297  133.8759  155.8883 H   0  0  0  0  0  0  0  0  0  0  0  0  # atno 11005 bound_to 11000
  146.3531  140.0771  142.8620 LP  0  0  0  0  0  0  0  0  0  0  0  0  # atno 17320 bound_to 7965
  145.1045  140.9367  143.4693 LP  0  0  0  0  0  0  0  0  0  0  0  0  # atno 17321 bound_to 7965
  139.7375  144.7568  151.0705 LP  0  0  0  0  0  0  0  0  0  0  0  0  # atno 17342 bound_to 10162
  140.7775  143.5013  150.9768 LP  0  0  0  0  0  0  0  0  0  0  0  0  # atno 17343 bound_to 10162
  157.7067  131.0753  150.6642 LP  0  0  0  0  0  0  0  0  0  0  0  0  # atno 17370 bound_to 10713
  156.6704  130.4538  149.5659 LP  0  0  0  0  0  0  0  0  0  0  0  0  # atno 17371 bound_to 10713
  140.9932  134.1250  157.4388 LP  0  0  0  0  0  0  0  0  0  0  0  0  # atno 17394 bound_to 11000
  139.8829  135.0046  156.6263 LP  0  0  0  0  0  0  0  0  0  0  0  0  # atno 17395 bound_to 11000

$$$$
