AV-unprocessed.smi:1047|AV-procd|sdf|4567|dock2
  -GOLD-   22720 3 13D 1   1.00000     0.00000
 Structure written by MMmdl.
 57 59  0  0  0  0  0  0  0  0  3 V2000
  146.5372  133.3997  151.0646 C   0  0  0  0  0  0  0  0  0  0  0  0
  145.8740  134.7598  151.3258 C   0  0  0  0  0  0  0  0  0  0  0  0
  146.5517  135.5297  152.3991 N   0  3  2  0  0  0  0  0  0  0  0  0
  146.6511  134.7632  153.6643 C   0  0  0  0  0  0  0  0  0  0  0  0
  147.4157  135.5706  154.7266 C   0  0  0  0  0  0  0  0  0  0  0  0
  146.7706  136.8213  154.9355 O   0  0  0  0  0  0  0  0  0  0  0  0
  146.7288  137.6105  153.7517 C   0  0  2  0  0  0  0  0  0  0  0  0
  146.1423  138.9914  154.0936 C   0  0  0  0  0  0  0  0  0  0  0  0
  146.4772  140.0091  153.0754 N   0  3  0  0  0  0  0  0  0  0  0  0
  147.3771  141.0749  153.5607 C   0  0  0  0  0  0  0  0  0  0  0  0
  148.5328  140.4909  154.3891 C   0  0  1  0  0  0  0  0  0  0  0  0
  149.1618  139.4708  153.6362 O   0  0  0  0  0  0  0  0  0  0  0  0
  149.5698  141.5644  154.7728 C   0  0  0  0  0  0  0  0  0  0  0  0
  150.4597  141.1222  155.8316 N   0  0  0  0  0  0  0  0  0  0  0  0
  150.9350  139.8763  156.0223 C   0  0  0  0  0  0  0  0  0  0  0  0
  151.7479  139.6863  157.0572 N   0  0  0  0  0  0  0  0  0  0  0  0
  151.8041  140.9565  157.6047 C   0  0  0  0  0  0  0  0  0  0  0  0
  152.5038  141.4380  158.7327 C   0  0  0  0  0  0  0  0  0  0  0  0
  152.4133  142.7948  159.1172 C   0  0  0  0  0  0  0  0  0  0  0  0
  153.1809  143.2681  160.3391 C   0  0  0  0  0  0  0  0  0  0  0  0
  151.6113  143.6933  158.3686 C   0  0  0  0  0  0  0  0  0  0  0  0
  151.4922  145.1535  158.7674 C   0  0  0  0  0  0  0  0  0  0  0  0
  150.9092  143.2300  157.2363 C   0  0  0  0  0  0  0  0  0  0  0  0
  151.0070  141.8775  156.8637 C   0  0  0  0  0  0  0  0  0  0  0  0
  145.9479  136.8623  152.6500 C   0  0  0  0  0  0  0  0  0  0  0  0
  145.9531  132.8206  150.3487 H   0  0  0  0  0  0  0  0  0  0  0  0
  146.6096  132.8128  151.9808 H   0  0  0  0  0  0  0  0  0  0  0  0
  147.5392  133.5051  150.6500 H   0  0  0  0  0  0  0  0  0  0  0  0
  145.8326  135.3492  150.4086 H   0  0  0  0  0  0  0  0  0  0  0  0
  144.8404  134.5755  151.6218 H   0  0  0  0  0  0  0  0  0  0  0  0
  145.6505  134.5210  154.0262 H   0  0  0  0  0  0  0  0  0  0  0  0
  147.1647  133.8176  153.4863 H   0  0  0  0  0  0  0  0  0  0  0  0
  147.4382  135.0237  155.6695 H   0  0  0  0  0  0  0  0  0  0  0  0
  148.4529  135.7270  154.4257 H   0  0  0  0  0  0  0  0  0  0  0  0
  147.7527  137.7673  153.4069 H   0  0  0  0  0  0  0  0  0  0  0  0
  145.0570  138.9168  154.1736 H   0  0  0  0  0  0  0  0  0  0  0  0
  146.5102  139.3198  155.0666 H   0  0  0  0  0  0  0  0  0  0  0  0
  146.9170  139.5545  152.2881 H   0  0  0  0  0  0  0  0  0  0  0  0
  147.7638  141.6498  152.7177 H   0  0  0  0  0  0  0  0  0  0  0  0
  146.7937  141.7618  154.1752 H   0  0  0  0  0  0  0  0  0  0  0  0
  148.1337  140.0436  155.3009 H   0  0  0  0  0  0  0  0  0  0  0  0
  149.1560  139.7181  152.7237 H   0  0  0  0  0  0  0  0  0  0  0  0
  150.1691  141.8463  153.9062 H   0  0  0  0  0  0  0  0  0  0  0  0
  149.0664  142.4716  155.1095 H   0  0  0  0  0  0  0  0  0  0  0  0
  150.6721  139.0634  155.3613 H   0  0  0  0  0  0  0  0  0  0  0  0
  153.1126  140.7526  159.3038 H   0  0  0  0  0  0  0  0  0  0  0  0
  152.4915  143.5844  161.1218 H   0  0  0  0  0  0  0  0  0  0  0  0
  153.8276  144.1082  160.0861 H   0  0  0  0  0  0  0  0  0  0  0  0
  153.8096  142.4755  160.7454 H   0  0  0  0  0  0  0  0  0  0  0  0
  150.7934  145.6864  158.1221 H   0  0  0  0  0  0  0  0  0  0  0  0
  152.4605  145.6490  158.6954 H   0  0  0  0  0  0  0  0  0  0  0  0
  151.1321  145.2418  159.7927 H   0  0  0  0  0  0  0  0  0  0  0  0
  150.2974  143.9058  156.6573 H   0  0  0  0  0  0  0  0  0  0  0  0
  145.9559  137.4581  151.7379 H   0  0  0  0  0  0  0  0  0  0  0  0
  144.9040  136.7334  152.9394 H   0  0  0  0  0  0  0  0  0  0  0  0
  145.6204  140.4420  152.7590 H   0  0  0  0  0  0  0  0  0  0  0  0
  147.4998  135.6845  152.0862 H   0  0  0  0  0  0  0  0  0  0  0  0
  1  2  1  0  0  0  0
  1 26  1  0  0  0  0
  1 27  1  0  0  0  0
  1 28  1  0  0  0  0
  2  3  1  0  0  0  0
  2 29  1  0  0  0  0
  2 30  1  0  0  0  0
  3 25  1  0  0  0  0
  3  4  1  0  0  0  0
  3 57  1  0  0  0  0
  4  5  1  0  0  0  0
  4 31  1  0  0  0  0
  4 32  1  0  0  0  0
  5  6  1  0  0  0  0
  5 33  1  0  0  0  0
  5 34  1  0  0  0  0
  6  7  1  0  0  0  0
  7  8  1  0  0  0  0
  7 25  1  0  0  0  0
  7 35  1  0  0  0  0
  8  9  1  0  0  0  0
  8 36  1  0  0  0  0
  8 37  1  0  0  0  0
  9 10  1  0  0  0  0
  9 38  1  0  0  0  0
  9 56  1  0  0  0  0
 10 11  1  0  0  0  0
 10 39  1  0  0  0  0
 10 40  1  0  0  0  0
 11 12  1  0  0  0  0
 11 13  1  0  0  0  0
 11 41  1  0  0  0  0
 12 42  1  0  0  0  0
 13 14  1  0  0  0  0
 13 43  1  0  0  0  0
 13 44  1  0  0  0  0
 14 24  1  0  0  0  0
 14 15  1  0  0  0  0
 15 16  2  0  0  0  0
 15 45  1  0  0  0  0
 16 17  1  0  0  0  0
 17 24  2  0  0  0  0
 17 18  1  0  0  0  0
 18 19  2  0  0  0  0
 18 46  1  0  0  0  0
 19 20  1  0  0  0  0
 19 21  1  0  0  0  0
 20 47  1  0  0  0  0
 20 48  1  0  0  0  0
 20 49  1  0  0  0  0
 21 22  1  0  0  0  0
 21 23  2  0  0  0  0
 22 50  1  0  0  0  0
 22 51  1  0  0  0  0
 22 52  1  0  0  0  0
 23 24  1  0  0  0  0
 23 53  1  0  0  0  0
 25 54  1  0  0  0  0
 25 55  1  0  0  0  0
M  CHG  1   3   1
M  CHG  1   9   1
M  END
> <s_m_source_file>
AV-unprocessed.smi

> <i_m_source_file_index>
1047

> <i_lp_mmshare_version>
43012

> <i_f3d_flags>
0

> <s_epik_input>
W0NIM11bQ0gyXU4xW0NIMl1bQ0gyXU9bQ0BIXShbQ0gyXTEpW0NIMl1bTkhdW0NIMl1bQ0BIXShbT0hdKVtDSDJdbihbY0hdbjIpYyhjMjMpW2NIXWMoW0NIM10pYyhbY0hdMylbQ0gzXQ==

> <s_epik_cmdline>
J2VwaWtfcHl0aG9uJywgJy1waCcsICc3LjAnLCAnLXRuJywgJzgnLCAnLW1hJywgJzIwMCcsICctbWV0YWxfYmluZGluZycsICctaW1hZScsICc8aW5maWxlLm1hZT4nLCAnLW9tYWUnLCAnPG91dGZpbGUubWFlPic=

> <r_epik_Ionization_Penalty>
0.528991

> <r_epik_Ionization_Penalty_Charging>
0.438567

> <r_epik_Ionization_Penalty_Neutral>
0.0904237

> <r_epik_State_Penalty>
0.533036

> <r_epik_Charging_Adjusted_Penalty>
0.971603

> <i_epik_Tot_Q>
2

> <i_epik_Tot_abs_Q>
2

> <r_epik_Metal_State_Penalty>
0.448985

> <b_epik_Metal_Only>
0

> <s_lp_Force_Field>
OPLS_2005

> <r_lp_Energy>
32.051

> <b_lp_Chiralities_Consistent>
1

> <s_lp_Variant>
AV-unprocessed.smi:1047-8

> <Gold.Version>
5.8.1

> <Gold.Id.Protein>
6NUR|6NUR_protein|mol2

> <Gold.PLP.Fitness>
60.7627

> <Gold.PLP.PLP>
-47.6147

> <Gold.PLP.part.hbond>
-2.8812

> <Gold.PLP.part.metal>
0.0000

> <Gold.PLP.part.buried>
-4.0338

> <Gold.PLP.part.nonpolar>
-41.3919

> <Gold.PLP.part.repulsive>
0.0900

> <Gold.PLP.ligand.clash>
0.0000

> <Gold.PLP.ligand.torsion>
1.0673

> <Gold.PLP.Chemscore.Hbond>
4.9840

> <Gold.PLP.Chemscore.CHOScore>
0.0000

> <Gold.PLP.Chemscore.Metal>
0.0000

> <Gold.Chemscore.Hbonds>
donor molecule, donor type, donor heavy atom, donor atom, acceptor molecule, acceptor atom, score
      L1  H     3    57       P1  7948  2.00
      L1  H     9    56       P1 10175  2.00
      L1  H    12    42       P1  7957  1.00

> <Gold.PLP.Chemscore.Internal.Correction>
0.3307

> <Gold.Rescore>
     Score         DG    S(hbond)    S(metal)    S(lipo)     H(rot)  DE(clash)    DE(int)     intcor
     22.03     -23.15       2.96        0.00     125.67       2.70       0.03       1.09       ----

> <Gold.Chemscore.Fitness>
22.0283

> <Gold.Chemscore.DG>
-23.1492

> <Gold.Chemscore.ZeroCoef>
-5.4800

> <Gold.Chemscore.Hbond>
2.9563

> <Gold.Chemscore.Metal>
0.0000

> <Gold.Chemscore.Lipo>
125.6702

> <Gold.Chemscore.Internal_Hbond>
0.0000

> <Gold.Chemscore.DEClash>
0.0314

> <Gold.Chemscore.DEInternal>
1.0894

> <Gold.Chemscore.Rot>
2.6985

> <Gold.Chemscore.Internal.Correction>
   9.000000E+99

> <Gold.Chemscore.Hbonds>
donor molecule, donor type, donor heavy atom, donor atom, acceptor molecule, acceptor atom, score
      L1  H     3    57       P1  7948  0.94
      L1  H     9    56       P1 10175  0.76
      L1  H    12    42       P1  7957  1.00

> <Gold.Chemscore.Hbond.Weighted>
-9.8739

> <Gold.Chemscore.Metal.Weighted>
-0.0000

> <Gold.Chemscore.Lipo.Weighted>
-14.7034

> <Gold.Chemscore.Internal_Hbond.Weighted>
0.0000

> <Gold.Chemscore.DEClash.Weighted>
0.0314

> <Gold.Chemscore.DEInternal.Weighted>
1.0894

> <Gold.Chemscore.Rot.Weighted>
6.9081

> <Gold.Chemscore.Internal.Correction.Weighted>
   9.000000E+99

> <Gold.Protein.RotatedTorsions>
[ 6907 6896 6895 6894 ] final   -8.64 input  -60.11 | X-H torsion
[ 7974 7965 7964 7962 ] final  103.87 input  175.53 | X-H torsion
[ 8008 7997 7996 7995 ] final   33.80 input   59.86 | X-H torsion
[ 10167 10162 10161 10158 ] final  120.56 input  -65.29 | X-H torsion
[ 10718 10713 10712 10709 ] final  -59.96 input   66.30 | X-H torsion
[ 10763 10752 10751 10750 ] final -162.99 input  -60.55 | X-H torsion
[ 11005 11000 10999 10996 ] final  127.46 input  -57.11 | X-H torsion

> <Gold.Protein.ActiveResidues>
 VAL166  LYS551  ARG553  GLY616  TRP617  ASP618  TYR619  PRO620  LYS621  CYS622 
 ASP623  PHE694  ASN695  SER759  ASP760  ASP761  ALA762  ILE779  LEU786  VAL792 
 PHE793  MET794  SER795  GLU796  ALA797  LYS798  CYS799  TRP800  GLU811  SER814 

> <Gold.Protein.RotatedAtoms>
  151.4304  135.1009  159.9640 H   0  0  0  0  0  0  0  0  0  0  0  0  # atno 6907 bound_to 6896
  152.4958  133.8623  159.7267 H   0  0  0  0  0  0  0  0  0  0  0  0  # atno 6908 bound_to 6896
  150.9159  133.6881  159.2871 H   0  0  0  0  0  0  0  0  0  0  0  0  # atno 6909 bound_to 6896
  145.3403  139.2464  143.3613 H   0  0  0  0  0  0  0  0  0  0  0  0  # atno 7974 bound_to 7965
  155.1445  140.3269  155.4444 H   0  0  0  0  0  0  0  0  0  0  0  0  # atno 8008 bound_to 7997
  156.2594  140.1987  156.6509 H   0  0  0  0  0  0  0  0  0  0  0  0  # atno 8009 bound_to 7997
  154.6518  140.0557  156.9950 H   0  0  0  0  0  0  0  0  0  0  0  0  # atno 8010 bound_to 7997
  139.5974  144.7046  151.3143 H   0  0  0  0  0  0  0  0  0  0  0  0  # atno 10167 bound_to 10162
  156.1024  130.4184  150.0787 H   0  0  0  0  0  0  0  0  0  0  0  0  # atno 10718 bound_to 10713
  154.7164  135.3016  154.9117 H   0  0  0  0  0  0  0  0  0  0  0  0  # atno 10763 bound_to 10752
  154.0003  135.6707  153.4763 H   0  0  0  0  0  0  0  0  0  0  0  0  # atno 10764 bound_to 10752
  153.0797  135.5016  154.8392 H   0  0  0  0  0  0  0  0  0  0  0  0  # atno 10765 bound_to 10752
  139.9509  134.9622  156.8858 H   0  0  0  0  0  0  0  0  0  0  0  0  # atno 11005 bound_to 11000
  146.3010  140.3998  142.8704 LP  0  0  0  0  0  0  0  0  0  0  0  0  # atno 17320 bound_to 7965
  144.8796  140.7382  143.5995 LP  0  0  0  0  0  0  0  0  0  0  0  0  # atno 17321 bound_to 7965
  140.7223  143.7102  150.7775 LP  0  0  0  0  0  0  0  0  0  0  0  0  # atno 17342 bound_to 10162
  140.0671  143.5097  152.2598 LP  0  0  0  0  0  0  0  0  0  0  0  0  # atno 17343 bound_to 10162
  156.8771  130.9544  151.3603 LP  0  0  0  0  0  0  0  0  0  0  0  0  # atno 17370 bound_to 10713
  157.6196  130.8645  149.9087 LP  0  0  0  0  0  0  0  0  0  0  0  0  # atno 17371 bound_to 10713
  140.5722  134.0432  155.7434 LP  0  0  0  0  0  0  0  0  0  0  0  0  # atno 17394 bound_to 11000
  141.1171  133.9522  157.2802 LP  0  0  0  0  0  0  0  0  0  0  0  0  # atno 17395 bound_to 11000

$$$$
