AV-unprocessed.smi:3|AV-procd|sdf|29|dock5
  -GOLD-   2262015143D 1   1.00000     0.00000
 Structure written by MMmdl.
 34 36  0  0  0  0  0  0  0  0  2 V2000
  151.1675  142.2609  156.5139 C   0  0  0  0  0  0  0  0  0  0  0  0
  151.8095  140.9661  156.6934 N   0  0  0  0  0  0  0  0  0  0  0  0
  152.3026  140.6311  158.0315 C   0  0  0  0  0  0  0  0  0  0  0  0
  152.7258  141.8687  158.8224 C   0  0  1  0  0  0  0  0  0  0  0  0
  151.6667  142.7869  159.4516 C   0  0  0  0  0  0  0  0  0  0  0  0
  152.6134  143.0083  160.6352 C   0  0  1  0  0  0  0  0  0  0  0  0
  152.0368  143.0745  161.9201 O   0  0  0  0  0  0  0  0  0  0  0  0
  153.2912  141.6926  160.2387 C   0  0  0  0  0  0  0  0  0  0  0  0
  151.6868  139.9712  155.6913 C   0  0  0  0  0  0  0  0  0  0  0  0
  152.8012  139.2495  155.3840 N   0  0  0  0  0  0  0  0  0  0  0  0
  152.8164  138.2805  154.4599 C   0  0  0  0  0  0  0  0  0  0  0  0
  151.7349  137.9420  153.7550 N   0  3  0  0  0  0  0  0  0  0  0  0
  150.5983  138.6343  154.0142 C   0  0  0  0  0  0  0  0  0  0  0  0
  149.3603  138.4844  153.4266 N   0  0  0  0  0  0  0  0  0  0  0  0
  148.4673  139.3884  153.9707 C   0  0  0  0  0  0  0  0  0  0  0  0
  149.1146  140.1373  154.9205 C   0  0  0  0  0  0  0  0  0  0  0  0
  150.4836  139.6765  154.9744 C   0  0  0  0  0  0  0  0  0  0  0  0
  153.4302  142.4782  158.2523 H   0  0  0  0  0  0  0  0  0  0  0  0
  153.2716  143.8643  160.4767 H   0  0  0  0  0  0  0  0  0  0  0  0
  149.1100  137.8250  152.7033 H   0  0  0  0  0  0  0  0  0  0  0  0
  151.6480  142.8173  155.7092 H   0  0  0  0  0  0  0  0  0  0  0  0
  151.2448  142.8645  157.4189 H   0  0  0  0  0  0  0  0  0  0  0  0
  150.1073  142.1411  156.2901 H   0  0  0  0  0  0  0  0  0  0  0  0
  151.5772  140.0408  158.5913 H   0  0  0  0  0  0  0  0  0  0  0  0
  153.1604  139.9688  157.9107 H   0  0  0  0  0  0  0  0  0  0  0  0
  151.4452  143.6815  158.8690 H   0  0  0  0  0  0  0  0  0  0  0  0
  150.7547  142.2594  159.7362 H   0  0  0  0  0  0  0  0  0  0  0  0
  151.7316  143.9606  162.0412 H   0  0  0  0  0  0  0  0  0  0  0  0
  152.8769  140.8271  160.7592 H   0  0  0  0  0  0  0  0  0  0  0  0
  154.3801  141.7072  160.2940 H   0  0  0  0  0  0  0  0  0  0  0  0
  153.7252  137.7341  154.2545 H   0  0  0  0  0  0  0  0  0  0  0  0
  147.4403  139.4269  153.6367 H   0  0  0  0  0  0  0  0  0  0  0  0
  148.6704  140.9234  155.5113 H   0  0  0  0  0  0  0  0  0  0  0  0
  151.7552  137.2030  153.0524 H   0  0  0  0  0  0  0  0  0  0  0  0
  1  2  1  0  0  0  0
  1 21  1  0  0  0  0
  1 22  1  0  0  0  0
  1 23  1  0  0  0  0
  2  3  1  0  0  0  0
  2  9  1  0  0  0  0
  3  4  1  0  0  0  0
  3 24  1  0  0  0  0
  3 25  1  0  0  0  0
  4 18  1  0  0  0  0
  4  8  1  0  0  0  0
  4  5  1  0  0  0  0
  5  6  1  0  0  0  0
  5 26  1  0  0  0  0
  5 27  1  0  0  0  0
  6 19  1  0  0  0  0
  6  7  1  0  0  0  0
  6  8  1  0  0  0  0
  7 28  1  0  0  0  0
  8 29  1  0  0  0  0
  8 30  1  0  0  0  0
  9 17  1  0  0  0  0
  9 10  2  0  0  0  0
 10 11  1  0  0  0  0
 11 12  2  0  0  0  0
 11 31  1  0  0  0  0
 12 13  1  0  0  0  0
 12 34  1  0  0  0  0
 13 17  2  0  0  0  0
 13 14  1  0  0  0  0
 14 20  1  0  0  0  0
 14 15  1  0  0  0  0
 15 16  2  0  0  0  0
 15 32  1  0  0  0  0
 16 17  1  0  0  0  0
 16 33  1  0  0  0  0
M  CHG  1  12   1
M  END
> <s_m_source_file>
AV-unprocessed.smi

> <i_m_source_file_index>
3

> <i_lp_mmshare_version>
43012

> <i_f3d_flags>
0

> <s_epik_input>
W25IXTFbY0hdW2NIXWMoYzEyKWMobltjSF1uMilOKFtDSDNdKVtDSDJdW0NASF0zW0NIMl1bQ0BASF0oW09IXSlbQ0gyXTM=

> <s_epik_cmdline>
J2VwaWtfcHl0aG9uJywgJy1waCcsICc3LjAnLCAnLXRuJywgJzgnLCAnLW1hJywgJzIwMCcsICctbWV0YWxfYmluZGluZycsICctaW1hZScsICc8aW5maWxlLm1hZT4nLCAnLW9tYWUnLCAnPG91dGZpbGUubWFlPic=

> <r_lp_tautomer_probability>
1.75997e-05

> <r_epik_Ionization_Penalty>
2.28439

> <r_epik_Ionization_Penalty_Charging>
2.28438

> <r_epik_Ionization_Penalty_Neutral>
1.03791e-05

> <r_epik_State_Penalty>
2.43392

> <r_epik_Charging_Adjusted_Penalty>
4.7183

> <i_epik_Tot_Q>
1

> <i_epik_Tot_abs_Q>
1

> <r_epik_Metal_State_Penalty>
2.4464

> <b_epik_Metal_Only>
0

> <s_lp_Force_Field>
OPLS_2005

> <r_lp_Energy>
16.7386

> <b_lp_Chiralities_Consistent>
1

> <s_lp_Variant>
AV-unprocessed.smi:3-3

> <Gold.Version>
5.8.1

> <Gold.Id.Protein>
6NUR|6NUR_protein|mol2

> <Gold.PLP.Fitness>
51.8096

> <Gold.PLP.PLP>
-37.7816

> <Gold.PLP.part.hbond>
-5.8507

> <Gold.PLP.part.metal>
0.0000

> <Gold.PLP.part.buried>
-3.3676

> <Gold.PLP.part.nonpolar>
-29.7729

> <Gold.PLP.part.repulsive>
0.2192

> <Gold.PLP.ligand.clash>
0.0000

> <Gold.PLP.ligand.torsion>
1.1992

> <Gold.PLP.Chemscore.Hbond>
5.4077

> <Gold.PLP.Chemscore.CHOScore>
0.0000

> <Gold.PLP.Chemscore.Metal>
0.0000

> <Gold.Chemscore.Hbonds>
donor molecule, donor type, donor heavy atom, donor atom, acceptor molecule, acceptor atom, score
      L1  H    12    34       P1  7949  1.85
      L1  H    14    20       P1  7948  2.00
      P1  H  6933  6945       L1     7  0.06
      P1  H  7997  8009       L1    10  1.00

> <Gold.PLP.Chemscore.Internal.Correction>
0.2034

> <Gold.Rescore>
     Score         DG    S(hbond)    S(metal)    S(lipo)     H(rot)  DE(clash)    DE(int)     intcor
     16.71     -18.08       2.56        0.00      75.47       1.86       0.09       1.28       ----

> <Gold.Chemscore.Fitness>
16.7150

> <Gold.Chemscore.DG>
-18.0836

> <Gold.Chemscore.ZeroCoef>
-5.4800

> <Gold.Chemscore.Hbond>
2.5588

> <Gold.Chemscore.Metal>
0.0000

> <Gold.Chemscore.Lipo>
75.4721

> <Gold.Chemscore.Internal_Hbond>
0.0000

> <Gold.Chemscore.DEClash>
0.0866

> <Gold.Chemscore.DEInternal>
1.2820

> <Gold.Chemscore.Rot>
1.8645

> <Gold.Chemscore.Internal.Correction>
   9.000000E+99

> <Gold.Chemscore.Hbonds>
donor molecule, donor type, donor heavy atom, donor atom, acceptor molecule, acceptor atom, score
      L1  H    12    34       P1  7949  0.87
      L1  H    14    20       P1  7948  0.98
      P1  H  6933  6945       L1     7  0.03
      P1  H  7997  8009       L1    10  0.69

> <Gold.Chemscore.Hbond.Weighted>
-8.5464

> <Gold.Chemscore.Metal.Weighted>
-0.0000

> <Gold.Chemscore.Lipo.Weighted>
-8.8302

> <Gold.Chemscore.Internal_Hbond.Weighted>
0.0000

> <Gold.Chemscore.DEClash.Weighted>
0.0866

> <Gold.Chemscore.DEInternal.Weighted>
1.2820

> <Gold.Chemscore.Rot.Weighted>
4.7730

> <Gold.Chemscore.Internal.Correction.Weighted>
   9.000000E+99

> <Gold.Protein.RotatedTorsions>
[ 6907 6896 6895 6894 ] final -143.41 input  -60.11 | X-H torsion
[ 7974 7965 7964 7962 ] final   50.94 input  175.53 | X-H torsion
[ 8008 7997 7996 7995 ] final -148.79 input   59.86 | X-H torsion
[ 10167 10162 10161 10158 ] final    6.72 input  -65.29 | X-H torsion
[ 10718 10713 10712 10709 ] final -171.83 input   66.30 | X-H torsion
[ 10763 10752 10751 10750 ] final   26.36 input  -60.55 | X-H torsion
[ 11005 11000 10999 10996 ] final -134.88 input  -57.11 | X-H torsion

> <Gold.Protein.ActiveResidues>
 VAL166  LYS551  ARG553  GLY616  TRP617  ASP618  TYR619  PRO620  LYS621  CYS622 
 ASP623  PHE694  ASN695  SER759  ASP760  ASP761  ALA762  ILE779  LEU786  VAL792 
 PHE793  MET794  SER795  GLU796  ALA797  LYS798  CYS799  TRP800  GLU811  SER814 

> <Gold.Protein.RotatedAtoms>
  151.1000  133.5250  159.2610 H   0  0  0  0  0  0  0  0  0  0  0  0  # atno 6907 bound_to 6896
  151.2085  135.0471  159.8911 H   0  0  0  0  0  0  0  0  0  0  0  0  # atno 6908 bound_to 6896
  152.5442  134.0819  159.8293 H   0  0  0  0  0  0  0  0  0  0  0  0  # atno 6909 bound_to 6896
  145.9962  139.4391  143.0043 H   0  0  0  0  0  0  0  0  0  0  0  0  # atno 7974 bound_to 7965
  155.5972  140.0658  157.2743 H   0  0  0  0  0  0  0  0  0  0  0  0  # atno 8008 bound_to 7997
  154.4289  140.1825  156.1183 H   0  0  0  0  0  0  0  0  0  0  0  0  # atno 8009 bound_to 7997
  156.0187  140.3319  155.7019 H   0  0  0  0  0  0  0  0  0  0  0  0  # atno 8010 bound_to 7997
  140.6412  143.7770  150.7431 H   0  0  0  0  0  0  0  0  0  0  0  0  # atno 10167 bound_to 10162
  156.7467  130.9362  151.3113 H   0  0  0  0  0  0  0  0  0  0  0  0  # atno 10718 bound_to 10713
  153.0628  135.6562  154.0424 H   0  0  0  0  0  0  0  0  0  0  0  0  # atno 10763 bound_to 10752
  154.0087  135.2930  155.3396 H   0  0  0  0  0  0  0  0  0  0  0  0  # atno 10764 bound_to 10752
  154.6973  135.5258  153.8545 H   0  0  0  0  0  0  0  0  0  0  0  0  # atno 10765 bound_to 10752
  140.8949  134.1764  157.4501 H   0  0  0  0  0  0  0  0  0  0  0  0  # atno 11005 bound_to 11000
  145.7556  140.9955  143.1227 LP  0  0  0  0  0  0  0  0  0  0  0  0  # atno 17320 bound_to 7965
  144.6904  139.9267  143.7470 LP  0  0  0  0  0  0  0  0  0  0  0  0  # atno 17321 bound_to 7965
  140.1401  143.4448  152.2199 LP  0  0  0  0  0  0  0  0  0  0  0  0  # atno 17342 bound_to 10162
  139.5621  144.7412  151.4125 LP  0  0  0  0  0  0  0  0  0  0  0  0  # atno 17343 bound_to 10162
  157.6795  130.9126  150.0232 LP  0  0  0  0  0  0  0  0  0  0  0  0  # atno 17370 bound_to 10713
  156.1429  130.3642  149.9555 LP  0  0  0  0  0  0  0  0  0  0  0  0  # atno 17371 bound_to 10713
  139.8734  134.9874  156.5367 LP  0  0  0  0  0  0  0  0  0  0  0  0  # atno 17394 bound_to 11000
  140.8301  133.8286  155.8976 LP  0  0  0  0  0  0  0  0  0  0  0  0  # atno 17395 bound_to 11000

$$$$
