AV-unprocessed.smi:157|AV-procd|sdf|1295|dock10
  -GOLD-   2262018583D 1   1.00000     0.00000
 Structure written by MMmdl.
 35 37  0  0  0  0  0  0  0  0  1 V2000
  147.2543  142.4397  154.8936 O   0  0  0  0  0  0  0  0  0  0  0  0
  147.6672  141.1211  154.6040 C   0  0  0  0  0  0  0  0  0  0  0  0
  149.2012  141.0381  154.5874 C   0  0  1  0  0  0  0  0  0  0  0  0
  149.7303  141.8959  155.5892 O   0  0  0  0  0  0  0  0  0  0  0  0
  150.9954  141.4288  155.9058 C   0  0  1  0  0  0  0  0  0  0  0  0
  151.3929  141.9790  157.2407 N   0  0  0  0  0  0  0  0  0  0  0  0
  150.9892  143.1531  157.7404 C   0  0  0  0  0  0  0  0  0  0  0  0
  151.4668  143.4344  158.9404 N   0  0  0  0  0  0  0  0  0  0  0  0
  152.2510  142.3270  159.2581 C   0  0  0  0  0  0  0  0  0  0  0  0
  152.2144  141.4060  158.2205 C   0  0  0  0  0  0  0  0  0  0  0  0
  152.7769  140.1676  157.9722 N   0  0  0  0  0  0  0  0  0  0  0  0
  153.2397  139.4923  158.9762 C   0  0  0  0  0  0  0  0  0  0  0  0
  153.3647  139.8452  160.3119 N   0  0  0  0  0  0  0  0  0  0  0  0
  153.9351  141.1058  160.7546 C   0  0  0  0  0  0  0  0  0  0  0  0
  152.9959  142.3023  160.5618 C   0  0  2  0  0  0  0  0  0  0  0  0
  152.0284  142.3051  161.5915 O   0  0  0  0  0  0  0  0  0  0  0  0
  150.8936  139.9058  155.9256 C   0  0  0  0  0  0  0  0  0  0  0  0
  149.7442  139.6427  154.9581 C   0  0  2  0  0  0  0  0  0  0  0  0
  150.2094  138.9623  153.8098 O   0  0  0  0  0  0  0  0  0  0  0  0
  149.6002  141.3483  153.6189 H   0  0  0  0  0  0  0  0  0  0  0  0
  151.7309  141.8030  155.1913 H   0  0  0  0  0  0  0  0  0  0  0  0
  153.5772  143.2183  160.6726 H   0  0  0  0  0  0  0  0  0  0  0  0
  148.9837  139.0358  155.4515 H   0  0  0  0  0  0  0  0  0  0  0  0
  148.0229  142.9731  155.0258 H   0  0  0  0  0  0  0  0  0  0  0  0
  147.2412  140.4210  155.3237 H   0  0  0  0  0  0  0  0  0  0  0  0
  147.2673  140.8631  153.6230 H   0  0  0  0  0  0  0  0  0  0  0  0
  150.3317  143.8233  157.2064 H   0  0  0  0  0  0  0  0  0  0  0  0
  153.6091  138.4822  158.7940 H   0  0  0  0  0  0  0  0  0  0  0  0
  153.5208  139.1137  160.9903 H   0  0  0  0  0  0  0  0  0  0  0  0
  154.2516  141.0248  161.7949 H   0  0  0  0  0  0  0  0  0  0  0  0
  154.8425  141.2737  160.1724 H   0  0  0  0  0  0  0  0  0  0  0  0
  152.1890  143.0537  162.1459 H   0  0  0  0  0  0  0  0  0  0  0  0
  151.8445  139.4567  155.6361 H   0  0  0  0  0  0  0  0  0  0  0  0
  150.6334  139.5532  156.9238 H   0  0  0  0  0  0  0  0  0  0  0  0
  150.1293  139.5396  153.0658 H   0  0  0  0  0  0  0  0  0  0  0  0
  1  2  1  0  0  0  0
  1 24  1  0  0  0  0
  2  3  1  0  0  0  0
  2 25  1  0  0  0  0
  2 26  1  0  0  0  0
  3 20  1  0  0  0  0
  3 18  1  0  0  0  0
  3  4  1  0  0  0  0
  4  5  1  0  0  0  0
  5 21  1  0  0  0  0
  5  6  1  0  0  0  0
  5 17  1  0  0  0  0
  6 10  1  0  0  0  0
  6  7  1  0  0  0  0
  7  8  2  0  0  0  0
  7 27  1  0  0  0  0
  8  9  1  0  0  0  0
  9 15  1  0  0  0  0
  9 10  2  0  0  0  0
 10 11  1  0  0  0  0
 11 12  2  0  0  0  0
 12 13  1  0  0  0  0
 12 28  1  0  0  0  0
 13 14  1  0  0  0  0
 13 29  1  0  0  0  0
 14 15  1  0  0  0  0
 14 30  1  0  0  0  0
 14 31  1  0  0  0  0
 15 22  1  0  0  0  0
 15 16  1  0  0  0  0
 16 32  1  0  0  0  0
 17 18  1  0  0  0  0
 17 33  1  0  0  0  0
 17 34  1  0  0  0  0
 18 23  1  0  0  0  0
 18 19  1  0  0  0  0
 19 35  1  0  0  0  0
M  END
> <s_m_source_file>
AV-unprocessed.smi

> <i_m_source_file_index>
157

> <i_lp_mmshare_version>
43012

> <i_f3d_flags>
0

> <s_epik_input>
W09IXVtDSDJdW0NASF0xT1tDQEhdKFtDSDJdW0NAQEhdMVtPSF0pbihbY0hdbjIpYyhjMjMpTj1bQ0hdW05IXVtDSDJdW0NASF0zW09IXQ==

> <s_epik_cmdline>
J2VwaWtfcHl0aG9uJywgJy1waCcsICc3LjAnLCAnLXRuJywgJzgnLCAnLW1hJywgJzIwMCcsICctbWV0YWxfYmluZGluZycsICctaW1hZScsICc8aW5maWxlLm1hZT4nLCAnLW9tYWUnLCAnPG91dGZpbGUubWFlPic=

> <r_lp_tautomer_probability>
1

> <r_epik_Ionization_Penalty>
0.0357149

> <r_epik_Ionization_Penalty_Charging>
0.0355056

> <r_epik_Ionization_Penalty_Neutral>
0.000209255

> <r_epik_State_Penalty>
0.0296046

> <r_epik_Charging_Adjusted_Penalty>
0.0651102

> <i_epik_Tot_Q>
0

> <i_epik_Tot_abs_Q>
0

> <r_epik_Metal_State_Penalty>
3.03559e-05

> <b_epik_Metal_Only>
0

> <s_epik_Chemistry_Notes>
This compound has an imine and may undergo hydrolysis. This compound contains an acetal/aminal-like group ( X-CH(R)-Y where X, Y are N, S, or O) that may be acid/base labile, releasing an aldehyde.

> <s_lp_Force_Field>
OPLS_2005

> <r_lp_Energy>
44.773

> <b_lp_Chiralities_Consistent>
1

> <s_lp_Variant>
AV-unprocessed.smi:157-5

> <Gold.Version>
5.8.1

> <Gold.Id.Protein>
6NUR|6NUR_protein|mol2

> <Gold.PLP.Fitness>
44.9411

> <Gold.PLP.PLP>
-33.8922

> <Gold.PLP.part.hbond>
-4.2444

> <Gold.PLP.part.metal>
0.0000

> <Gold.PLP.part.buried>
-5.4124

> <Gold.PLP.part.nonpolar>
-25.2146

> <Gold.PLP.part.repulsive>
1.4315

> <Gold.PLP.ligand.clash>
0.0000

> <Gold.PLP.ligand.torsion>
1.0347

> <Gold.PLP.Chemscore.Hbond>
3.3677

> <Gold.PLP.Chemscore.CHOScore>
1.0000

> <Gold.PLP.Chemscore.Metal>
0.0000

> <Gold.Chemscore.Hbonds>
donor molecule, donor type, donor heavy atom, donor atom, acceptor molecule, acceptor atom, score
      L1  H     1    24       P1  8028  0.98
      L1  H    19    35       P1  7957  1.00
      P1  H  6933  6945       L1    16  0.50
      P1  H  7997  8010       L1    11  0.83
      L1  C     7    27       P1  8028  1.00

> <Gold.PLP.Chemscore.Internal.Correction>
0.0153

> <Gold.Rescore>
     Score         DG    S(hbond)    S(metal)    S(lipo)     H(rot)  DE(clash)    DE(int)     intcor
      7.17     -10.02       2.22        0.00      55.06       3.64       0.40       2.45       ----

> <Gold.Chemscore.Fitness>
7.1691

> <Gold.Chemscore.DG>
-10.0197

> <Gold.Chemscore.ZeroCoef>
-5.4800

> <Gold.Chemscore.Hbond>
2.2175

> <Gold.Chemscore.Metal>
0.0000

> <Gold.Chemscore.Lipo>
55.0579

> <Gold.Chemscore.Internal_Hbond>
0.0000

> <Gold.Chemscore.DEClash>
0.4031

> <Gold.Chemscore.DEInternal>
2.4475

> <Gold.Chemscore.Rot>
3.6362

> <Gold.Chemscore.Internal.Correction>
   9.000000E+99

> <Gold.Chemscore.Hbonds>
donor molecule, donor type, donor heavy atom, donor atom, acceptor molecule, acceptor atom, score
      L1  H     1    24       P1  8028  0.82
      L1  H    19    35       P1  7957  0.90
      P1  H  6933  6945       L1    16  0.15
      P1  H  7997  8010       L1    11  0.19

> <Gold.Chemscore.Hbond.Weighted>
-7.4066

> <Gold.Chemscore.Metal.Weighted>
-0.0000

> <Gold.Chemscore.Lipo.Weighted>
-6.4418

> <Gold.Chemscore.Internal_Hbond.Weighted>
0.0000

> <Gold.Chemscore.DEClash.Weighted>
0.4031

> <Gold.Chemscore.DEInternal.Weighted>
2.4475

> <Gold.Chemscore.Rot.Weighted>
9.3087

> <Gold.Chemscore.Internal.Correction.Weighted>
   9.000000E+99

> <Gold.Protein.RotatedTorsions>
[ 6907 6896 6895 6894 ] final  -11.79 input  -60.11 | X-H torsion
[ 7974 7965 7964 7962 ] final   16.00 input  175.53 | X-H torsion
[ 8008 7997 7996 7995 ] final   57.77 input   59.86 | X-H torsion
[ 10167 10162 10161 10158 ] final  158.65 input  -65.29 | X-H torsion
[ 10718 10713 10712 10709 ] final  -73.60 input   66.30 | X-H torsion
[ 10763 10752 10751 10750 ] final   94.59 input  -60.55 | X-H torsion
[ 11005 11000 10999 10996 ] final  141.87 input  -57.11 | X-H torsion

> <Gold.Protein.ActiveResidues>
 VAL166  LYS551  ARG553  GLY616  TRP617  ASP618  TYR619  PRO620  LYS621  CYS622 
 ASP623  PHE694  ASN695  SER759  ASP760  ASP761  ALA762  ILE779  LEU786  VAL792 
 PHE793  MET794  SER795  GLU796  ALA797  LYS798  CYS799  TRP800  GLU811  SER814 

> <Gold.Protein.RotatedAtoms>
  151.3807  135.0939  159.9494 H   0  0  0  0  0  0  0  0  0  0  0  0  # atno 6907 bound_to 6896
  152.5109  133.9075  159.7482 H   0  0  0  0  0  0  0  0  0  0  0  0  # atno 6908 bound_to 6896
  150.9507  133.6497  159.2801 H   0  0  0  0  0  0  0  0  0  0  0  0  # atno 6909 bound_to 6896
  146.2262  139.8812  142.8570 H   0  0  0  0  0  0  0  0  0  0  0  0  # atno 7974 bound_to 7965
  155.5392  140.3484  155.4443 H   0  0  0  0  0  0  0  0  0  0  0  0  # atno 8008 bound_to 7997
  156.0663  140.1352  156.9908 H   0  0  0  0  0  0  0  0  0  0  0  0  # atno 8009 bound_to 7997
  154.4505  140.0975  156.6577 H   0  0  0  0  0  0  0  0  0  0  0  0  # atno 8010 bound_to 7997
  139.4828  144.4804  151.8452 H   0  0  0  0  0  0  0  0  0  0  0  0  # atno 10167 bound_to 10162
  156.0274  130.4398  150.2767 H   0  0  0  0  0  0  0  0  0  0  0  0  # atno 10718 bound_to 10713
  153.2434  135.4284  155.0722 H   0  0  0  0  0  0  0  0  0  0  0  0  # atno 10763 bound_to 10752
  154.8350  135.3408  154.6617 H   0  0  0  0  0  0  0  0  0  0  0  0  # atno 10764 bound_to 10752
  153.7040  135.7027  153.5112 H   0  0  0  0  0  0  0  0  0  0  0  0  # atno 10765 bound_to 10752
  140.0434  134.9293  157.0885 H   0  0  0  0  0  0  0  0  0  0  0  0  # atno 11005 bound_to 11000
  145.2510  141.0044  143.3881 LP  0  0  0  0  0  0  0  0  0  0  0  0  # atno 17320 bound_to 7965
  144.9374  139.4228  143.6465 LP  0  0  0  0  0  0  0  0  0  0  0  0  # atno 17321 bound_to 7965
  140.4280  144.2154  150.5887 LP  0  0  0  0  0  0  0  0  0  0  0  0  # atno 17342 bound_to 10162
  140.4808  143.2380  151.8958 LP  0  0  0  0  0  0  0  0  0  0  0  0  # atno 17343 bound_to 10162
  157.0870  131.0159  151.3136 LP  0  0  0  0  0  0  0  0  0  0  0  0  # atno 17370 bound_to 10713
  157.4883  130.7807  149.7482 LP  0  0  0  0  0  0  0  0  0  0  0  0  # atno 17371 bound_to 10713
  140.4033  134.2059  155.7163 LP  0  0  0  0  0  0  0  0  0  0  0  0  # atno 17394 bound_to 11000
  141.1894  133.8238  157.0956 LP  0  0  0  0  0  0  0  0  0  0  0  0  # atno 17395 bound_to 11000

$$$$
