AV-unprocessed.smi:3282|AV-procd|sdf|12563|dock5
  -GOLD-   2272018483D 1   1.00000     0.00000
 Structure written by MMmdl.
 34 35  0  0  0  0  0  0  0  0  1 V2000
  145.4689  129.9516  151.6639 C   0  0  0  0  0  0  0  0  0  0  0  0
  145.4766  131.4544  151.9880 C   0  0  0  0  0  0  0  0  0  0  0  0
  144.8627  132.3293  150.8821 C   0  0  0  0  0  0  0  0  0  0  0  0
  144.3434  131.7996  149.8984 O   0  0  0  0  0  0  0  0  0  0  0  0
  144.9150  133.6697  151.0277 N   0  0  0  0  0  0  0  0  0  0  0  0
  144.3856  134.6078  150.0415 C   0  0  0  0  0  0  0  0  0  0  0  0
  144.8666  135.9916  150.4771 C   0  0  0  0  0  0  0  0  0  0  0  0
  145.1167  135.8586  151.9765 C   0  0  2  0  0  0  0  0  0  0  0  0
  146.1711  136.7612  152.4279 N   0  0  0  0  0  0  0  0  0  0  0  0
  146.0184  137.7391  153.3329 C   0  0  0  0  0  0  0  0  0  0  0  0
  144.9292  137.9645  153.8697 O   0  0  0  0  0  0  0  0  0  0  0  0
  147.2088  138.4279  153.5055 N   0  0  0  0  0  0  0  0  0  0  0  0
  147.1709  139.7047  153.7347 C   0  0  0  0  0  0  0  0  0  0  0  0
  146.1242  140.6183  153.8306 N   0  0  0  0  0  0  0  0  0  0  0  0
  146.6580  141.8524  154.0765 C   0  0  0  0  0  0  0  0  0  0  0  0
  147.9804  141.7255  154.1335 C   0  0  0  0  0  0  0  0  0  0  0  0
  148.3238  140.4230  153.9277 O   0  0  0  0  0  0  0  0  0  0  0  0
  145.4933  134.3826  152.1652 C   0  0  0  0  0  0  0  0  0  0  0  0
  145.9269  129.3815  152.4723 H   0  0  0  0  0  0  0  0  0  0  0  0
  146.0289  129.7373  150.7528 H   0  0  0  0  0  0  0  0  0  0  0  0
  144.4530  129.5769  151.5330 H   0  0  0  0  0  0  0  0  0  0  0  0
  144.9274  131.6231  152.9147 H   0  0  0  0  0  0  0  0  0  0  0  0
  146.5046  131.7727  152.1638 H   0  0  0  0  0  0  0  0  0  0  0  0
  144.7203  134.3729  149.0299 H   0  0  0  0  0  0  0  0  0  0  0  0
  143.2958  134.5601  150.0576 H   0  0  0  0  0  0  0  0  0  0  0  0
  145.7989  136.2215  149.9583 H   0  0  0  0  0  0  0  0  0  0  0  0
  144.1526  136.7801  150.2376 H   0  0  0  0  0  0  0  0  0  0  0  0
  144.1838  136.0656  152.5045 H   0  0  0  0  0  0  0  0  0  0  0  0
  147.0850  136.6379  152.0164 H   0  0  0  0  0  0  0  0  0  0  0  0
  145.1330  140.4460  153.7426 H   0  0  0  0  0  0  0  0  0  0  0  0
  146.0159  142.7136  154.1877 H   0  0  0  0  0  0  0  0  0  0  0  0
  148.7784  142.4331  154.3039 H   0  0  0  0  0  0  0  0  0  0  0  0
  145.1212  134.0068  153.1194 H   0  0  0  0  0  0  0  0  0  0  0  0
  146.5762  134.2477  152.1467 H   0  0  0  0  0  0  0  0  0  0  0  0
  1  2  1  0  0  0  0
  1 19  1  0  0  0  0
  1 20  1  0  0  0  0
  1 21  1  0  0  0  0
  2  3  1  0  0  0  0
  2 22  1  0  0  0  0
  2 23  1  0  0  0  0
  3  4  2  0  0  0  0
  3  5  1  0  0  0  0
  5 18  1  0  0  0  0
  5  6  1  0  0  0  0
  6  7  1  0  0  0  0
  6 24  1  0  0  0  0
  6 25  1  0  0  0  0
  7  8  1  0  0  0  0
  7 26  1  0  0  0  0
  7 27  1  0  0  0  0
  8  9  1  0  0  0  0
  8 18  1  0  0  0  0
  8 28  1  0  0  0  0
  9 29  1  0  0  0  0
  9 10  1  0  0  0  0
 10 12  1  0  0  0  0
 10 11  2  0  0  0  0
 12 13  2  0  0  0  0
 13 17  1  0  0  0  0
 13 14  1  0  0  0  0
 14 30  1  0  0  0  0
 14 15  1  0  0  0  0
 15 31  1  0  0  0  0
 15 16  2  0  0  0  0
 16 32  1  0  0  0  0
 16 17  1  0  0  0  0
 18 33  1  0  0  0  0
 18 34  1  0  0  0  0
M  END
> <s_m_source_file>
AV-unprocessed.smi

> <i_m_source_file_index>
3282

> <i_lp_mmshare_version>
43012

> <i_f3d_flags>
0

> <s_epik_input>
W0NIM11bQ0gyXUMoPU8pTjFbQ0gyXVtDSDJdW0NASF0oW0NIMl0xKVtOSF1DKD1PKVtOSF1jMm5bY0hdW2NIXW8y

> <s_epik_cmdline>
J2VwaWtfcHl0aG9uJywgJy1waCcsICc3LjAnLCAnLXRuJywgJzgnLCAnLW1hJywgJzIwMCcsICctbWV0YWxfYmluZGluZycsICctaW1hZScsICc8aW5maWxlLm1hZT4nLCAnLW9tYWUnLCAnPG91dGZpbGUubWFlPic=

> <r_lp_tautomer_probability>
0.107061

> <r_epik_Ionization_Penalty>
0.434703

> <r_epik_Ionization_Penalty_Charging>
0.434345

> <r_epik_Ionization_Penalty_Neutral>
0.000358141

> <r_epik_State_Penalty>
2.49584

> <r_epik_Charging_Adjusted_Penalty>
2.93019

> <i_epik_Tot_Q>
0

> <i_epik_Tot_abs_Q>
0

> <r_epik_Metal_State_Penalty>
4.06361

> <b_epik_Metal_Only>
0

> <s_lp_Force_Field>
OPLS_2005

> <r_lp_Energy>
50.3275

> <b_lp_Chiralities_Consistent>
1

> <s_lp_Variant>
AV-unprocessed.smi:3282-4

> <Gold.Version>
5.8.1

> <Gold.Id.Protein>
6NUR|6NUR_protein|mol2

> <Gold.PLP.Fitness>
37.1322

> <Gold.PLP.PLP>
-29.3234

> <Gold.PLP.part.hbond>
-2.8856

> <Gold.PLP.part.metal>
0.0000

> <Gold.PLP.part.buried>
-3.0368

> <Gold.PLP.part.nonpolar>
-24.8119

> <Gold.PLP.part.repulsive>
1.3690

> <Gold.PLP.ligand.clash>
0.0000

> <Gold.PLP.ligand.torsion>
0.2706

> <Gold.PLP.Chemscore.Hbond>
2.0738

> <Gold.PLP.Chemscore.CHOScore>
0.7055

> <Gold.PLP.Chemscore.Metal>
0.0000

> <Gold.Chemscore.Hbonds>
donor molecule, donor type, donor heavy atom, donor atom, acceptor molecule, acceptor atom, score
      L1  H     9    29       P1  7948  1.00
      L1  H    14    30       P1 10175  0.85
      P1  H 10785 10796       L1     4  0.18
      L1  C    16    32       P1  8028  0.73

> <Gold.PLP.Chemscore.Internal.Correction>
0.0119

> <Gold.Rescore>
     Score         DG    S(hbond)    S(metal)    S(lipo)     H(rot)  DE(clash)    DE(int)     intcor
     15.48     -15.95       2.27        0.00      53.50       1.32       0.18       0.29       ----

> <Gold.Chemscore.Fitness>
15.4780

> <Gold.Chemscore.DG>
-15.9533

> <Gold.Chemscore.ZeroCoef>
-5.4800

> <Gold.Chemscore.Hbond>
2.2733

> <Gold.Chemscore.Metal>
0.0000

> <Gold.Chemscore.Lipo>
53.5008

> <Gold.Chemscore.Internal_Hbond>
0.0000

> <Gold.Chemscore.DEClash>
0.1827

> <Gold.Chemscore.DEInternal>
0.2926

> <Gold.Chemscore.Rot>
1.3199

> <Gold.Chemscore.Internal.Correction>
   9.000000E+99

> <Gold.Chemscore.Hbonds>
donor molecule, donor type, donor heavy atom, donor atom, acceptor molecule, acceptor atom, score
      L1  H     9    29       P1  7948  1.00
      L1  H    14    30       P1 10175  0.84
      P1  H 10785 10796       L1     4  0.17

> <Gold.Chemscore.Hbond.Weighted>
-7.5927

> <Gold.Chemscore.Metal.Weighted>
-0.0000

> <Gold.Chemscore.Lipo.Weighted>
-6.2596

> <Gold.Chemscore.Internal_Hbond.Weighted>
0.0000

> <Gold.Chemscore.DEClash.Weighted>
0.1827

> <Gold.Chemscore.DEInternal.Weighted>
0.2926

> <Gold.Chemscore.Rot.Weighted>
3.3789

> <Gold.Chemscore.Internal.Correction.Weighted>
   9.000000E+99

> <Gold.Protein.RotatedTorsions>
[ 6907 6896 6895 6894 ] final  -38.68 input  -60.11 | X-H torsion
[ 7974 7965 7964 7962 ] final   78.85 input  175.53 | X-H torsion
[ 8008 7997 7996 7995 ] final  124.19 input   59.86 | X-H torsion
[ 10167 10162 10161 10158 ] final  121.40 input  -65.29 | X-H torsion
[ 10718 10713 10712 10709 ] final  176.01 input   66.30 | X-H torsion
[ 10763 10752 10751 10750 ] final -175.48 input  -60.55 | X-H torsion
[ 11005 11000 10999 10996 ] final  115.14 input  -57.11 | X-H torsion

> <Gold.Protein.ActiveResidues>
 VAL166  LYS551  ARG553  GLY616  TRP617  ASP618  TYR619  PRO620  LYS621  CYS622 
 ASP623  PHE694  ASN695  SER759  ASP760  ASP761  ALA762  ILE779  LEU786  VAL792 
 PHE793  MET794  SER795  GLU796  ALA797  LYS798  CYS799  TRP800  GLU811  SER814 

> <Gold.Protein.RotatedAtoms>
  150.9994  134.9310  159.7945 H   0  0  0  0  0  0  0  0  0  0  0  0  # atno 6907 bound_to 6896
  152.5274  134.3174  159.9146 H   0  0  0  0  0  0  0  0  0  0  0  0  # atno 6908 bound_to 6896
  151.3180  133.4011  159.2686 H   0  0  0  0  0  0  0  0  0  0  0  0  # atno 6909 bound_to 6896
  145.6719  139.2499  143.1864 H   0  0  0  0  0  0  0  0  0  0  0  0  # atno 7974 bound_to 7965
  156.2793  140.2745  156.1748 H   0  0  0  0  0  0  0  0  0  0  0  0  # atno 8008 bound_to 7997
  155.0617  140.0386  157.2597 H   0  0  0  0  0  0  0  0  0  0  0  0  # atno 8009 bound_to 7997
  154.7111  140.2669  155.6633 H   0  0  0  0  0  0  0  0  0  0  0  0  # atno 8010 bound_to 7997
  139.5922  144.7029  151.3262 H   0  0  0  0  0  0  0  0  0  0  0  0  # atno 10167 bound_to 10162
  156.9264  130.9957  151.2995 H   0  0  0  0  0  0  0  0  0  0  0  0  # atno 10718 bound_to 10713
  154.5839  135.2839  155.0704 H   0  0  0  0  0  0  0  0  0  0  0  0  # atno 10763 bound_to 10752
  154.2030  135.6421  153.5096 H   0  0  0  0  0  0  0  0  0  0  0  0  # atno 10764 bound_to 10752
  153.0098  135.5473  154.6502 H   0  0  0  0  0  0  0  0  0  0  0  0  # atno 10765 bound_to 10752
  139.9001  134.9579  156.7000 H   0  0  0  0  0  0  0  0  0  0  0  0  # atno 11005 bound_to 11000
  146.1038  140.7511  142.9536 LP  0  0  0  0  0  0  0  0  0  0  0  0  # atno 17320 bound_to 7965
  144.7054  140.3830  143.7122 LP  0  0  0  0  0  0  0  0  0  0  0  0  # atno 17321 bound_to 7965
  140.7182  143.7207  150.7698 LP  0  0  0  0  0  0  0  0  0  0  0  0  # atno 17342 bound_to 10162
  140.0765  143.5010  152.2552 LP  0  0  0  0  0  0  0  0  0  0  0  0  # atno 17343 bound_to 10162
  157.5875  130.8420  149.8610 LP  0  0  0  0  0  0  0  0  0  0  0  0  # atno 17370 bound_to 10713
  156.0467  130.3726  150.1300 LP  0  0  0  0  0  0  0  0  0  0  0  0  # atno 17371 bound_to 10713
  140.7158  133.9183  155.8114 LP  0  0  0  0  0  0  0  0  0  0  0  0  # atno 17394 bound_to 11000
  141.0265  134.0816  157.4062 LP  0  0  0  0  0  0  0  0  0  0  0  0  # atno 17395 bound_to 11000

$$$$
