AV-unprocessed.smi:1359|AV-procd|sdf|5550|dock3
  -GOLD-   22720 5143D 1   1.00000     0.00000
 Structure written by MMmdl.
 34 35  0  0  0  0  0  0  0  0  1 V2000
  151.8690  145.4323  159.9067 C   0  0  0  0  0  0  0  0  0  0  0  0
  151.7325  144.6153  158.6176 C   0  0  0  0  0  0  0  0  0  0  0  0
  150.6050  143.5734  158.6988 C   0  0  0  0  0  0  0  0  0  0  0  0
  150.3512  142.9551  157.4029 N   0  0  0  0  0  0  0  0  0  0  0  0
  150.7537  141.7259  157.0429 C   0  0  0  0  0  0  0  0  0  0  0  0
  151.4047  140.9838  157.7780 O   0  0  0  0  0  0  0  0  0  0  0  0
  150.3681  141.2611  155.6371 C   0  0  0  0  0  0  0  0  0  0  0  0
  148.9086  141.5064  155.3797 C   0  0  0  0  0  0  0  0  0  0  0  0
  148.2484  141.3822  154.1814 C   0  0  0  0  0  0  0  0  0  0  0  0
  146.5545  141.7632  154.3250 S   0  0  0  0  0  0  0  0  0  0  0  0
  146.8096  142.0954  156.0408 C   0  0  0  0  0  0  0  0  0  0  0  0
  145.8205  142.5211  156.9766 N   0  0  0  0  0  0  0  0  0  0  0  0
  144.6430  143.2756  156.5582 C   0  0  0  0  0  0  0  0  0  0  0  0
  143.8686  143.4945  157.8542 C   0  0  0  0  0  0  0  0  0  0  0  0
  144.7138  142.8426  158.8265 N   0  0  0  0  0  0  0  0  0  0  0  0
  145.8153  142.2971  158.3058 C   0  0  0  0  0  0  0  0  0  0  0  0
  146.6634  141.6989  158.9651 O   0  0  0  0  0  0  0  0  0  0  0  0
  148.0772  141.9155  156.4279 N   0  0  0  0  0  0  0  0  0  0  0  0
  152.6729  146.1634  159.8197 H   0  0  0  0  0  0  0  0  0  0  0  0
  152.0935  144.7901  160.7588 H   0  0  0  0  0  0  0  0  0  0  0  0
  150.9491  145.9743  160.1276 H   0  0  0  0  0  0  0  0  0  0  0  0
  151.5507  145.2955  157.7847 H   0  0  0  0  0  0  0  0  0  0  0  0
  152.6789  144.1161  158.4059 H   0  0  0  0  0  0  0  0  0  0  0  0
  150.8780  142.7854  159.4014 H   0  0  0  0  0  0  0  0  0  0  0  0
  149.6898  144.0276  159.0822 H   0  0  0  0  0  0  0  0  0  0  0  0
  149.8200  143.4950  156.7347 H   0  0  0  0  0  0  0  0  0  0  0  0
  150.9898  141.7834  154.9084 H   0  0  0  0  0  0  0  0  0  0  0  0
  150.5977  140.1999  155.5316 H   0  0  0  0  0  0  0  0  0  0  0  0
  148.6555  141.0855  153.2260 H   0  0  0  0  0  0  0  0  0  0  0  0
  144.9335  144.2236  156.1032 H   0  0  0  0  0  0  0  0  0  0  0  0
  144.0568  142.7067  155.8352 H   0  0  0  0  0  0  0  0  0  0  0  0
  143.7551  144.5528  158.0912 H   0  0  0  0  0  0  0  0  0  0  0  0
  142.8836  143.0273  157.8277 H   0  0  0  0  0  0  0  0  0  0  0  0
  144.4823  142.8102  159.8090 H   0  0  0  0  0  0  0  0  0  0  0  0
  1  2  1  0  0  0  0
  1 19  1  0  0  0  0
  1 20  1  0  0  0  0
  1 21  1  0  0  0  0
  2  3  1  0  0  0  0
  2 22  1  0  0  0  0
  2 23  1  0  0  0  0
  3  4  1  0  0  0  0
  3 24  1  0  0  0  0
  3 25  1  0  0  0  0
  4  5  1  0  0  0  0
  4 26  1  0  0  0  0
  5  6  2  0  0  0  0
  5  7  1  0  0  0  0
  7  8  1  0  0  0  0
  7 27  1  0  0  0  0
  7 28  1  0  0  0  0
  8 18  1  0  0  0  0
  8  9  2  0  0  0  0
  9 10  1  0  0  0  0
  9 29  1  0  0  0  0
 10 11  1  0  0  0  0
 11 12  1  0  0  0  0
 11 18  2  0  0  0  0
 12 16  1  0  0  0  0
 12 13  1  0  0  0  0
 13 14  1  0  0  0  0
 13 30  1  0  0  0  0
 13 31  1  0  0  0  0
 14 15  1  0  0  0  0
 14 32  1  0  0  0  0
 14 33  1  0  0  0  0
 15 16  1  0  0  0  0
 15 34  1  0  0  0  0
 16 17  2  0  0  0  0
M  END
> <s_m_source_file>
AV-unprocessed.smi

> <i_m_source_file_index>
1359

> <i_lp_mmshare_version>
43012

> <i_f3d_flags>
0

> <s_epik_input>
W0NIM11bQ0gyXVtDSDJdW05IXUMoPU8pW0NIMl1jMVtjSF1zYyhuMSlOMltDSDJdW0NIMl1bTkhdQzI9Tw==

> <s_epik_cmdline>
J2VwaWtfcHl0aG9uJywgJy1waCcsICc3LjAnLCAnLXRuJywgJzgnLCAnLW1hJywgJzIwMCcsICctbWV0YWxfYmluZGluZycsICctaW1hZScsICc8aW5maWxlLm1hZT4nLCAnLW9tYWUnLCAnPG91dGZpbGUubWFlPic=

> <r_lp_tautomer_probability>
1

> <r_epik_Ionization_Penalty>
0.000119828

> <r_epik_Ionization_Penalty_Charging>
0

> <r_epik_Ionization_Penalty_Neutral>
0.000119828

> <r_epik_State_Penalty>
-0

> <r_epik_Charging_Adjusted_Penalty>
0

> <i_epik_Tot_Q>
0

> <i_epik_Tot_abs_Q>
0

> <r_epik_Metal_State_Penalty>
-0

> <b_epik_Metal_Only>
0

> <s_lp_Force_Field>
OPLS_2005

> <r_lp_Energy>
29.9012

> <b_lp_Chiralities_Consistent>
1

> <s_lp_Variant>
AV-unprocessed.smi:1359-1

> <Gold.Version>
5.8.1

> <Gold.Id.Protein>
6NUR|6NUR_protein|mol2

> <Gold.PLP.Fitness>
38.4140

> <Gold.PLP.PLP>
-31.4482

> <Gold.PLP.part.hbond>
-2.0000

> <Gold.PLP.part.metal>
0.0000

> <Gold.PLP.part.buried>
-4.7585

> <Gold.PLP.part.nonpolar>
-26.1583

> <Gold.PLP.part.repulsive>
1.3853

> <Gold.PLP.ligand.clash>
0.0000

> <Gold.PLP.ligand.torsion>
0.6515

> <Gold.PLP.Chemscore.Hbond>
1.7454

> <Gold.PLP.Chemscore.CHOScore>
1.0000

> <Gold.PLP.Chemscore.Metal>
0.0000

> <Gold.Chemscore.Hbonds>
donor molecule, donor type, donor heavy atom, donor atom, acceptor molecule, acceptor atom, score
      L1  H     4    26       P1  8028  1.00
      P1  H  6934  6946       L1    17  0.69
      L1  C     9    29       P1  7957  1.00

> <Gold.PLP.Chemscore.Internal.Correction>
0.0325

> <Gold.Rescore>
     Score         DG    S(hbond)    S(metal)    S(lipo)     H(rot)  DE(clash)    DE(int)     intcor
     11.38     -14.57       1.87        0.00      63.82       1.81       0.02       3.17       ----

> <Gold.Chemscore.Fitness>
11.3787

> <Gold.Chemscore.DG>
-14.5666

> <Gold.Chemscore.ZeroCoef>
-5.4800

> <Gold.Chemscore.Hbond>
1.8688

> <Gold.Chemscore.Metal>
0.0000

> <Gold.Chemscore.Lipo>
63.8226

> <Gold.Chemscore.Internal_Hbond>
0.0000

> <Gold.Chemscore.DEClash>
0.0193

> <Gold.Chemscore.DEInternal>
3.1686

> <Gold.Chemscore.Rot>
1.8057

> <Gold.Chemscore.Internal.Correction>
   9.000000E+99

> <Gold.Chemscore.Hbonds>
donor molecule, donor type, donor heavy atom, donor atom, acceptor molecule, acceptor atom, score
      L1  H     4    26       P1  8028  1.00
      P1  H  6934  6946       L1    17  0.69

> <Gold.Chemscore.Hbond.Weighted>
-6.2419

> <Gold.Chemscore.Metal.Weighted>
-0.0000

> <Gold.Chemscore.Lipo.Weighted>
-7.4672

> <Gold.Chemscore.Internal_Hbond.Weighted>
0.0000

> <Gold.Chemscore.DEClash.Weighted>
0.0193

> <Gold.Chemscore.DEInternal.Weighted>
3.1686

> <Gold.Chemscore.Rot.Weighted>
4.6226

> <Gold.Chemscore.Internal.Correction.Weighted>
   9.000000E+99

> <Gold.Protein.RotatedTorsions>
[ 6907 6896 6895 6894 ] final -146.43 input  -60.11 | X-H torsion
[ 7974 7965 7964 7962 ] final  120.40 input  175.53 | X-H torsion
[ 8008 7997 7996 7995 ] final -150.05 input   59.86 | X-H torsion
[ 10167 10162 10161 10158 ] final -112.21 input  -65.29 | X-H torsion
[ 10718 10713 10712 10709 ] final -170.31 input   66.30 | X-H torsion
[ 10763 10752 10751 10750 ] final -171.06 input  -60.55 | X-H torsion
[ 11005 11000 10999 10996 ] final  -22.23 input  -57.11 | X-H torsion

> <Gold.Protein.ActiveResidues>
 VAL166  LYS551  ARG553  GLY616  TRP617  ASP618  TYR619  PRO620  LYS621  CYS622 
 ASP623  PHE694  ASN695  SER759  ASP760  ASP761  ALA762  ILE779  LEU786  VAL792 
 PHE793  MET794  SER795  GLU796  ALA797  LYS798  CYS799  TRP800  GLU811  SER814 

> <Gold.Protein.RotatedAtoms>
  151.1416  133.4968  159.2596 H   0  0  0  0  0  0  0  0  0  0  0  0  # atno 6907 bound_to 6896
  151.1649  135.0290  159.8736 H   0  0  0  0  0  0  0  0  0  0  0  0  # atno 6908 bound_to 6896
  152.5462  134.1285  159.8482 H   0  0  0  0  0  0  0  0  0  0  0  0  # atno 6909 bound_to 6896
  145.1316  139.3324  143.4662 H   0  0  0  0  0  0  0  0  0  0  0  0  # atno 7974 bound_to 7965
  155.6174  140.0678  157.2688 H   0  0  0  0  0  0  0  0  0  0  0  0  # atno 8008 bound_to 7997
  154.4238  140.1790  156.1384 H   0  0  0  0  0  0  0  0  0  0  0  0  # atno 8009 bound_to 7997
  156.0037  140.3333  155.6874 H   0  0  0  0  0  0  0  0  0  0  0  0  # atno 8010 bound_to 7997
  140.1252  143.4409  152.1665 H   0  0  0  0  0  0  0  0  0  0  0  0  # atno 10167 bound_to 10162
  156.7243  130.9282  151.3100 H   0  0  0  0  0  0  0  0  0  0  0  0  # atno 10718 bound_to 10713
  154.6347  135.2891  155.0175 H   0  0  0  0  0  0  0  0  0  0  0  0  # atno 10763 bound_to 10752
  154.1323  135.6531  153.4928 H   0  0  0  0  0  0  0  0  0  0  0  0  # atno 10764 bound_to 10752
  153.0296  135.5313  154.7188 H   0  0  0  0  0  0  0  0  0  0  0  0  # atno 10765 bound_to 10752
  140.8637  133.7770  156.0104 H   0  0  0  0  0  0  0  0  0  0  0  0  # atno 11005 bound_to 11000
  146.3513  140.1317  142.8597 LP  0  0  0  0  0  0  0  0  0  0  0  0  # atno 17320 bound_to 7965
  145.0629  140.9101  143.4928 LP  0  0  0  0  0  0  0  0  0  0  0  0  # atno 17321 bound_to 7965
  139.5548  144.7365  151.4327 LP  0  0  0  0  0  0  0  0  0  0  0  0  # atno 17342 bound_to 10162
  140.6849  143.7996  150.7172 LP  0  0  0  0  0  0  0  0  0  0  0  0  # atno 17343 bound_to 10162
  157.6885  130.9209  150.0450 LP  0  0  0  0  0  0  0  0  0  0  0  0  # atno 17370 bound_to 10713
  156.1573  130.3643  149.9351 LP  0  0  0  0  0  0  0  0  0  0  0  0  # atno 17371 bound_to 10713
  140.8653  134.2791  157.5216 LP  0  0  0  0  0  0  0  0  0  0  0  0  # atno 17394 bound_to 11000
  139.8708  134.9539  156.4161 LP  0  0  0  0  0  0  0  0  0  0  0  0  # atno 17395 bound_to 11000

$$$$
