AV-unprocessed.smi:1492|AV-procd|sdf|6038|dock10
  -GOLD-   22720 6143D 1   1.00000     0.00000
 Structure written by MMmdl.
 53 54  0  0  0  0  0  0  0  0  2 V2000
  143.1813  135.7670  152.5763 C   0  0  0  0  0  0  0  0  0  0  0  0
  143.8238  136.5428  151.4119 C   0  0  0  0  0  0  0  0  0  0  0  0
  145.3701  136.7308  151.4989 C   0  0  1  0  0  0  0  0  0  0  0  0
  145.8123  137.4984  150.2252 C   0  0  0  0  0  0  0  0  0  0  0  0
  145.7114  137.5787  152.7638 C   0  0  0  0  0  0  0  0  0  0  0  0
  147.1447  137.7923  152.9569 N   0  0  0  0  0  0  0  0  0  0  0  0
  147.7018  138.7571  153.7055 C   0  0  0  0  0  0  0  0  0  0  0  0
  147.0517  139.5854  154.3419 O   0  0  0  0  0  0  0  0  0  0  0  0
  149.2295  138.7787  153.7523 C   0  0  0  0  0  0  0  0  0  0  0  0
  149.8401  139.6942  154.8117 C   0  0  0  0  0  0  0  0  0  0  0  0
  150.7333  139.2570  155.7471 C   0  0  0  0  0  0  0  0  0  0  0  0
  151.2056  137.8156  155.8247 C   0  0  0  0  0  0  0  0  0  0  0  0
  151.2813  140.1252  156.7020 N   0  0  0  0  0  0  0  0  0  0  0  0
  150.9258  141.3676  156.6892 C   0  0  0  0  0  0  0  0  0  0  0  0
  151.4467  142.4051  157.6612 C   0  0  0  0  0  0  0  0  0  0  0  0
  150.0141  141.8763  155.7657 N   0  0  0  0  0  0  0  0  0  0  0  0
  149.4325  141.1127  154.8140 C   0  0  0  0  0  0  0  0  0  0  0  0
  148.6175  141.6035  154.0340 O   0  0  0  0  0  0  0  0  0  0  0  0
  146.0584  135.3890  151.5566 N   0  3  0  0  0  0  0  0  0  0  0  0
  145.9851  134.6712  152.8612 C   0  0  0  0  0  0  0  0  0  0  0  0
  146.8822  133.4217  152.8428 C   0  0  0  0  0  0  0  0  0  0  0  0
  146.5008  132.5698  151.7720 O   0  0  0  0  0  0  0  0  0  0  0  0
  146.6511  133.2099  150.5131 C   0  0  0  0  0  0  0  0  0  0  0  0
  145.7352  134.4427  150.4510 C   0  0  0  0  0  0  0  0  0  0  0  0
  149.7688  142.8547  155.8080 H   0  0  0  0  0  0  0  0  0  0  0  0
  142.1032  135.6922  152.4330 H   0  0  0  0  0  0  0  0  0  0  0  0
  143.3460  136.2588  153.5348 H   0  0  0  0  0  0  0  0  0  0  0  0
  143.5671  134.7506  152.6478 H   0  0  0  0  0  0  0  0  0  0  0  0
  143.5713  136.0161  150.4908 H   0  0  0  0  0  0  0  0  0  0  0  0
  143.3263  137.5073  151.3130 H   0  0  0  0  0  0  0  0  0  0  0  0
  145.1683  138.3552  150.0254 H   0  0  0  0  0  0  0  0  0  0  0  0
  145.7841  136.8642  149.3389 H   0  0  0  0  0  0  0  0  0  0  0  0
  146.8246  137.8927  150.3152 H   0  0  0  0  0  0  0  0  0  0  0  0
  145.2703  138.5719  152.6876 H   0  0  0  0  0  0  0  0  0  0  0  0
  145.2823  137.1331  153.6615 H   0  0  0  0  0  0  0  0  0  0  0  0
  147.7664  137.1575  152.4764 H   0  0  0  0  0  0  0  0  0  0  0  0
  149.5824  137.7601  153.9151 H   0  0  0  0  0  0  0  0  0  0  0  0
  149.6054  139.0409  152.7623 H   0  0  0  0  0  0  0  0  0  0  0  0
  150.3591  137.1378  155.9337 H   0  0  0  0  0  0  0  0  0  0  0  0
  151.8673  137.6607  156.6777 H   0  0  0  0  0  0  0  0  0  0  0  0
  151.7552  137.5440  154.9232 H   0  0  0  0  0  0  0  0  0  0  0  0
  152.5281  142.5016  157.5626 H   0  0  0  0  0  0  0  0  0  0  0  0
  151.2211  142.1073  158.6854 H   0  0  0  0  0  0  0  0  0  0  0  0
  150.9994  143.3842  157.4842 H   0  0  0  0  0  0  0  0  0  0  0  0
  146.3151  135.2993  153.6865 H   0  0  0  0  0  0  0  0  0  0  0  0
  144.9577  134.3746  153.0729 H   0  0  0  0  0  0  0  0  0  0  0  0
  147.9335  133.6980  152.7476 H   0  0  0  0  0  0  0  0  0  0  0  0
  146.7816  132.8745  153.7803 H   0  0  0  0  0  0  0  0  0  0  0  0
  147.6937  133.4885  150.3513 H   0  0  0  0  0  0  0  0  0  0  0  0
  146.3842  132.5042  149.7261 H   0  0  0  0  0  0  0  0  0  0  0  0
  144.6967  134.1183  150.5199 H   0  0  0  0  0  0  0  0  0  0  0  0
  145.8632  134.9059  149.4749 H   0  0  0  0  0  0  0  0  0  0  0  0
  147.0373  135.6077  151.4366 H   0  0  0  0  0  0  0  0  0  0  0  0
  1  2  1  0  0  0  0
  1 26  1  0  0  0  0
  1 27  1  0  0  0  0
  1 28  1  0  0  0  0
  2  3  1  0  0  0  0
  2 29  1  0  0  0  0
  2 30  1  0  0  0  0
  3  4  1  0  0  0  0
  3  5  1  0  0  0  0
  3 19  1  0  0  0  0
  4 31  1  0  0  0  0
  4 32  1  0  0  0  0
  4 33  1  0  0  0  0
  5  6  1  0  0  0  0
  5 34  1  0  0  0  0
  5 35  1  0  0  0  0
  6  7  1  0  0  0  0
  6 36  1  0  0  0  0
  7  8  2  0  0  0  0
  7  9  1  0  0  0  0
  9 10  1  0  0  0  0
  9 37  1  0  0  0  0
  9 38  1  0  0  0  0
 10 17  1  0  0  0  0
 10 11  2  0  0  0  0
 11 12  1  0  0  0  0
 11 13  1  0  0  0  0
 12 39  1  0  0  0  0
 12 40  1  0  0  0  0
 12 41  1  0  0  0  0
 13 14  2  0  0  0  0
 14 15  1  0  0  0  0
 14 16  1  0  0  0  0
 15 42  1  0  0  0  0
 15 43  1  0  0  0  0
 15 44  1  0  0  0  0
 16 25  1  0  0  0  0
 16 17  1  0  0  0  0
 17 18  2  0  0  0  0
 19 24  1  0  0  0  0
 19 20  1  0  0  0  0
 19 53  1  0  0  0  0
 20 21  1  0  0  0  0
 20 45  1  0  0  0  0
 20 46  1  0  0  0  0
 21 22  1  0  0  0  0
 21 47  1  0  0  0  0
 21 48  1  0  0  0  0
 22 23  1  0  0  0  0
 23 24  1  0  0  0  0
 23 49  1  0  0  0  0
 23 50  1  0  0  0  0
 24 51  1  0  0  0  0
 24 52  1  0  0  0  0
M  CHG  1  19   1
M  END
> <s_m_source_file>
AV-unprocessed.smi

> <i_m_source_file_index>
1492

> <i_lp_mmshare_version>
43012

> <i_f3d_flags>
0

> <s_epik_input>
W0NIMl0xW0NIMl1PW0NIMl1bQ0gyXU4xW0NAQF0oW0NIM10pKFtDSDJdW0NIM10pW0NIMl1bTkhdQyg9TylbQ0gyXWMyYyhbQ0gzXSluYyhbQ0gzXSlbbkhdYzI9Tw==

> <s_epik_cmdline>
J2VwaWtfcHl0aG9uJywgJy1waCcsICc3LjAnLCAnLXRuJywgJzgnLCAnLW1hJywgJzIwMCcsICctbWV0YWxfYmluZGluZycsICctaW1hZScsICc8aW5maWxlLm1hZT4nLCAnLW9tYWUnLCAnPG91dGZpbGUubWFlPic=

> <r_lp_tautomer_probability>
0.839158

> <r_epik_Ionization_Penalty>
0.506959

> <r_epik_Ionization_Penalty_Charging>
0.506936

> <r_epik_Ionization_Penalty_Neutral>
2.27768e-05

> <r_epik_State_Penalty>
0.6046

> <r_epik_Charging_Adjusted_Penalty>
1.11154

> <i_epik_Tot_Q>
1

> <i_epik_Tot_abs_Q>
1

> <r_epik_Metal_State_Penalty>
0.783136

> <b_epik_Metal_Only>
0

> <s_lp_Force_Field>
OPLS_2005

> <r_lp_Energy>
29.8272

> <b_lp_Chiralities_Consistent>
1

> <s_lp_Variant>
AV-unprocessed.smi:1492-3

> <Gold.Version>
5.8.1

> <Gold.Id.Protein>
6NUR|6NUR_protein|mol2

> <Gold.PLP.Fitness>
47.3866

> <Gold.PLP.PLP>
-35.2769

> <Gold.PLP.part.hbond>
-4.0000

> <Gold.PLP.part.metal>
0.0000

> <Gold.PLP.part.buried>
1.7494

> <Gold.PLP.part.nonpolar>
-33.9007

> <Gold.PLP.part.repulsive>
0.6462

> <Gold.PLP.ligand.clash>
0.0000

> <Gold.PLP.ligand.torsion>
0.4621

> <Gold.PLP.Chemscore.Hbond>
4.2937

> <Gold.PLP.Chemscore.CHOScore>
0.0000

> <Gold.PLP.Chemscore.Metal>
0.0000

> <Gold.Chemscore.Hbonds>
donor molecule, donor type, donor heavy atom, donor atom, acceptor molecule, acceptor atom, score
      L1  H     6    36       P1  7948  1.00
      L1  H    16    25       P1  8028  0.91
      L1  H    19    53       P1  7948  2.00
      P1  H  8011  8017       L1    18  0.33

> <Gold.PLP.Chemscore.Internal.Correction>
0.1527

> <Gold.Rescore>
     Score         DG    S(hbond)    S(metal)    S(lipo)     H(rot)  DE(clash)    DE(int)     intcor
     17.56     -20.07       3.37        0.00      76.37       2.19       1.53       0.97       ----

> <Gold.Chemscore.Fitness>
17.5621

> <Gold.Chemscore.DG>
-20.0662

> <Gold.Chemscore.ZeroCoef>
-5.4800

> <Gold.Chemscore.Hbond>
3.3723

> <Gold.Chemscore.Metal>
0.0000

> <Gold.Chemscore.Lipo>
76.3716

> <Gold.Chemscore.Internal_Hbond>
0.0000

> <Gold.Chemscore.DEClash>
1.5344

> <Gold.Chemscore.DEInternal>
0.9697

> <Gold.Chemscore.Rot>
2.1926

> <Gold.Chemscore.Internal.Correction>
   9.000000E+99

> <Gold.Chemscore.Hbonds>
donor molecule, donor type, donor heavy atom, donor atom, acceptor molecule, acceptor atom, score
      L1  H     6    36       P1  7948  0.99
      L1  H    16    25       P1  8028  0.87
      L1  H    19    53       P1  7948  0.93
      P1  H  8011  8017       L1    18  0.20

> <Gold.Chemscore.Hbond.Weighted>
-11.2636

> <Gold.Chemscore.Metal.Weighted>
-0.0000

> <Gold.Chemscore.Lipo.Weighted>
-8.9355

> <Gold.Chemscore.Internal_Hbond.Weighted>
0.0000

> <Gold.Chemscore.DEClash.Weighted>
1.5344

> <Gold.Chemscore.DEInternal.Weighted>
0.9697

> <Gold.Chemscore.Rot.Weighted>
5.6129

> <Gold.Chemscore.Internal.Correction.Weighted>
   9.000000E+99

> <Gold.Protein.RotatedTorsions>
[ 6907 6896 6895 6894 ] final -140.60 input  -60.11 | X-H torsion
[ 7974 7965 7964 7962 ] final -165.11 input  175.53 | X-H torsion
[ 8008 7997 7996 7995 ] final   -5.02 input   59.86 | X-H torsion
[ 10167 10162 10161 10158 ] final  -38.55 input  -65.29 | X-H torsion
[ 10718 10713 10712 10709 ] final  -34.68 input   66.30 | X-H torsion
[ 10763 10752 10751 10750 ] final   20.75 input  -60.55 | X-H torsion
[ 11005 11000 10999 10996 ] final   82.21 input  -57.11 | X-H torsion

> <Gold.Protein.ActiveResidues>
 VAL166  LYS551  ARG553  GLY616  TRP617  ASP618  TYR619  PRO620  LYS621  CYS622 
 ASP623  PHE694  ASN695  SER759  ASP760  ASP761  ALA762  ILE779  LEU786  VAL792 
 PHE793  MET794  SER795  GLU796  ALA797  LYS798  CYS799  TRP800  GLU811  SER814 

> <Gold.Protein.RotatedAtoms>
  151.0629  133.5529  159.2632 H   0  0  0  0  0  0  0  0  0  0  0  0  # atno 6907 bound_to 6896
  151.2498  135.0617  159.9067 H   0  0  0  0  0  0  0  0  0  0  0  0  # atno 6908 bound_to 6896
  152.5400  134.0391  159.8113 H   0  0  0  0  0  0  0  0  0  0  0  0  # atno 6909 bound_to 6896
  144.7278  140.2861  143.6228 H   0  0  0  0  0  0  0  0  0  0  0  0  # atno 7974 bound_to 7965
  154.6082  140.2469  155.7703 H   0  0  0  0  0  0  0  0  0  0  0  0  # atno 8008 bound_to 7997
  156.2354  140.2952  156.0250 H   0  0  0  0  0  0  0  0  0  0  0  0  # atno 8009 bound_to 7997
  155.2096  140.0397  157.2921 H   0  0  0  0  0  0  0  0  0  0  0  0  # atno 8010 bound_to 7997
  140.7089  143.3270  151.2657 H   0  0  0  0  0  0  0  0  0  0  0  0  # atno 10167 bound_to 10162
  156.3476  130.4303  149.7732 H   0  0  0  0  0  0  0  0  0  0  0  0  # atno 10718 bound_to 10713
  153.1051  135.6682  153.9601 H   0  0  0  0  0  0  0  0  0  0  0  0  # atno 10763 bound_to 10752
  153.9160  135.3020  155.3449 H   0  0  0  0  0  0  0  0  0  0  0  0  # atno 10764 bound_to 10752
  154.7472  135.5052  153.9302 H   0  0  0  0  0  0  0  0  0  0  0  0  # atno 10765 bound_to 10752
  139.9071  134.8054  156.2144 H   0  0  0  0  0  0  0  0  0  0  0  0  # atno 11005 bound_to 11000
  145.7901  139.1924  143.2108 LP  0  0  0  0  0  0  0  0  0  0  0  0  # atno 17320 bound_to 7965
  146.0763  140.7814  142.9663 LP  0  0  0  0  0  0  0  0  0  0  0  0  # atno 17321 bound_to 7965
  139.6741  143.9968  152.2770 LP  0  0  0  0  0  0  0  0  0  0  0  0  # atno 17342 bound_to 10162
  139.9577  144.6579  150.8110 LP  0  0  0  0  0  0  0  0  0  0  0  0  # atno 17343 bound_to 10162
  156.4945  130.8100  151.3108 LP  0  0  0  0  0  0  0  0  0  0  0  0  # atno 17370 bound_to 10713
  157.7456  130.9965  150.2781 LP  0  0  0  0  0  0  0  0  0  0  0  0  # atno 17371 bound_to 10713
  141.0445  133.6920  156.1658 LP  0  0  0  0  0  0  0  0  0  0  0  0  # atno 17394 bound_to 11000
  140.6904  134.4671  157.5588 LP  0  0  0  0  0  0  0  0  0  0  0  0  # atno 17395 bound_to 11000

$$$$
