AV-unprocessed.smi:1848|AV-procd|sdf|7519|dock1
  -GOLD-   22720 9223D 1   1.00000     0.00000
 Structure written by MMmdl.
 31 31  0  0  0  0  0  0  0  0  1 V2000
  151.8457  145.4875  159.9300 C   0  0  0  0  0  0  0  0  0  0  0  0
  150.9493  144.7557  159.5402 C   0  0  0  0  0  0  0  0  0  0  0  0
  149.8568  143.8856  159.0724 C   0  0  0  0  0  0  0  0  0  0  0  0
  150.0673  143.3974  157.7142 N   0  0  0  0  0  0  0  0  0  0  0  0
  150.7238  142.2737  157.3851 C   0  0  0  0  0  0  0  0  0  0  0  0
  151.2401  141.5262  158.2171 O   0  0  0  0  0  0  0  0  0  0  0  0
  150.8258  141.9709  155.8833 C   0  0  0  0  0  0  0  0  0  0  0  0
  149.6585  141.2440  155.3556 N   0  0  0  0  0  0  0  0  0  0  0  0
  148.3910  141.8169  155.5825 C   0  0  0  0  0  0  0  0  0  0  0  0
  147.2507  141.2422  155.1397 C   0  0  0  0  0  0  0  0  0  0  0  0
  145.9183  141.8158  155.3509 C   0  0  0  0  0  0  0  0  0  0  0  0
  144.8758  141.1598  155.3537 O   0  0  0  0  0  0  0  0  0  0  0  0
  145.9130  143.1459  155.5458 N   0  0  0  0  0  0  0  0  0  0  0  0
  144.7161  143.9415  155.7734 C   0  0  0  0  0  0  0  0  0  0  0  0
  147.3755  139.9930  154.4134 C   0  0  0  0  0  0  0  0  0  0  0  0
  148.5848  139.4434  154.1882 C   0  0  0  0  0  0  0  0  0  0  0  0
  149.8183  140.0747  154.6645 C   0  0  0  0  0  0  0  0  0  0  0  0
  150.9273  139.5825  154.4554 O   0  0  0  0  0  0  0  0  0  0  0  0
  152.6274  146.1301  160.2678 H   0  0  0  0  0  0  0  0  0  0  0  0
  149.7399  143.0607  159.7770 H   0  0  0  0  0  0  0  0  0  0  0  0
  148.9328  144.4632  159.0998 H   0  0  0  0  0  0  0  0  0  0  0  0
  149.6814  143.9559  156.9667 H   0  0  0  0  0  0  0  0  0  0  0  0
  150.9692  142.9038  155.3347 H   0  0  0  0  0  0  0  0  0  0  0  0
  151.7399  141.4003  155.7137 H   0  0  0  0  0  0  0  0  0  0  0  0
  148.4278  142.7493  156.1275 H   0  0  0  0  0  0  0  0  0  0  0  0
  146.7963  143.6347  155.5313 H   0  0  0  0  0  0  0  0  0  0  0  0
  144.9851  144.9906  155.8957 H   0  0  0  0  0  0  0  0  0  0  0  0
  144.1980  143.6144  156.6757 H   0  0  0  0  0  0  0  0  0  0  0  0
  144.0306  143.8619  154.9287 H   0  0  0  0  0  0  0  0  0  0  0  0
  146.4964  139.4870  154.0403 H   0  0  0  0  0  0  0  0  0  0  0  0
  148.6486  138.5135  153.6424 H   0  0  0  0  0  0  0  0  0  0  0  0
  1  2  3  0  0  0  0
  1 19  1  0  0  0  0
  2  3  1  0  0  0  0
  3  4  1  0  0  0  0
  3 20  1  0  0  0  0
  3 21  1  0  0  0  0
  4  5  1  0  0  0  0
  4 22  1  0  0  0  0
  5  6  2  0  0  0  0
  5  7  1  0  0  0  0
  7  8  1  0  0  0  0
  7 23  1  0  0  0  0
  7 24  1  0  0  0  0
  8 17  1  0  0  0  0
  8  9  1  0  0  0  0
  9 10  2  0  0  0  0
  9 25  1  0  0  0  0
 10 11  1  0  0  0  0
 10 15  1  0  0  0  0
 11 12  2  0  0  0  0
 11 13  1  0  0  0  0
 13 14  1  0  0  0  0
 13 26  1  0  0  0  0
 14 27  1  0  0  0  0
 14 28  1  0  0  0  0
 14 29  1  0  0  0  0
 15 16  2  0  0  0  0
 15 30  1  0  0  0  0
 16 17  1  0  0  0  0
 16 31  1  0  0  0  0
 17 18  2  0  0  0  0
M  END
> <s_m_source_file>
AV-unprocessed.smi

> <i_m_source_file_index>
1848

> <i_lp_mmshare_version>
43012

> <i_f3d_flags>
0

> <s_epik_input>
W0NIXSNDW0NIMl1bTkhdQyg9TylbQ0gyXW4xW2NIXWMoQyg9TylbTkhdW0NIM10pW2NIXVtjSF1jMT1P

> <s_epik_cmdline>
J2VwaWtfcHl0aG9uJywgJy1waCcsICc3LjAnLCAnLXRuJywgJzgnLCAnLW1hJywgJzIwMCcsICctbWV0YWxfYmluZGluZycsICctaW1hZScsICc8aW5maWxlLm1hZT4nLCAnLW9tYWUnLCAnPG91dGZpbGUubWFlPic=

> <r_lp_tautomer_probability>
1

> <r_epik_Ionization_Penalty>
5.04952e-07

> <r_epik_Ionization_Penalty_Charging>
3.86163e-08

> <r_epik_Ionization_Penalty_Neutral>
4.66336e-07

> <r_epik_State_Penalty>
-0

> <r_epik_Charging_Adjusted_Penalty>
3.86163e-08

> <i_epik_Tot_Q>
0

> <i_epik_Tot_abs_Q>
0

> <r_epik_Metal_State_Penalty>
-0

> <b_epik_Metal_Only>
0

> <s_lp_Force_Field>
OPLS_2005

> <r_lp_Energy>
14.316

> <b_lp_Chiralities_Consistent>
1

> <s_lp_Variant>
AV-unprocessed.smi:1848-1

> <Gold.Version>
5.8.1

> <Gold.Id.Protein>
6NUR|6NUR_protein|mol2

> <Gold.PLP.Fitness>
37.1478

> <Gold.PLP.PLP>
-29.7516

> <Gold.PLP.part.hbond>
-2.0794

> <Gold.PLP.part.metal>
0.0000

> <Gold.PLP.part.buried>
-3.4484

> <Gold.PLP.part.nonpolar>
-24.4525

> <Gold.PLP.part.repulsive>
0.3350

> <Gold.PLP.ligand.clash>
0.0000

> <Gold.PLP.ligand.torsion>
0.8267

> <Gold.PLP.Chemscore.Hbond>
2.0000

> <Gold.PLP.Chemscore.CHOScore>
1.0000

> <Gold.PLP.Chemscore.Metal>
0.0000

> <Gold.Chemscore.Hbonds>
donor molecule, donor type, donor heavy atom, donor atom, acceptor molecule, acceptor atom, score
      L1  H     4    22       P1  8028  1.00
      P1  H  7989  7998       L1    18  1.00
      L1  C     9    25       P1  8028  1.00

> <Gold.PLP.Chemscore.Internal.Correction>
0.0495

> <Gold.Rescore>
     Score         DG    S(hbond)    S(metal)    S(lipo)     H(rot)  DE(clash)    DE(int)     intcor
     10.32     -13.10       1.39        0.00      60.97       1.62       1.98       0.81       ----

> <Gold.Chemscore.Fitness>
10.3217

> <Gold.Chemscore.DG>
-13.1037

> <Gold.Chemscore.ZeroCoef>
-5.4800

> <Gold.Chemscore.Hbond>
1.3909

> <Gold.Chemscore.Metal>
0.0000

> <Gold.Chemscore.Lipo>
60.9739

> <Gold.Chemscore.Internal_Hbond>
0.0000

> <Gold.Chemscore.DEClash>
1.9766

> <Gold.Chemscore.DEInternal>
0.8054

> <Gold.Chemscore.Rot>
1.6233

> <Gold.Chemscore.Internal.Correction>
   9.000000E+99

> <Gold.Chemscore.Hbonds>
donor molecule, donor type, donor heavy atom, donor atom, acceptor molecule, acceptor atom, score
      L1  H     4    22       P1  8028  0.85
      P1  H  7989  7998       L1    18  0.26

> <Gold.Chemscore.Hbond.Weighted>
-4.6455

> <Gold.Chemscore.Metal.Weighted>
-0.0000

> <Gold.Chemscore.Lipo.Weighted>
-7.1339

> <Gold.Chemscore.Internal_Hbond.Weighted>
0.0000

> <Gold.Chemscore.DEClash.Weighted>
1.9766

> <Gold.Chemscore.DEInternal.Weighted>
0.8054

> <Gold.Chemscore.Rot.Weighted>
4.1557

> <Gold.Chemscore.Internal.Correction.Weighted>
   9.000000E+99

> <Gold.Protein.RotatedTorsions>
[ 6907 6896 6895 6894 ] final  126.83 input  -60.11 | X-H torsion
[ 7974 7965 7964 7962 ] final   43.52 input  175.53 | X-H torsion
[ 8008 7997 7996 7995 ] final -175.83 input   59.86 | X-H torsion
[ 10167 10162 10161 10158 ] final  -82.14 input  -65.29 | X-H torsion
[ 10718 10713 10712 10709 ] final  105.92 input   66.30 | X-H torsion
[ 10763 10752 10751 10750 ] final -120.83 input  -60.55 | X-H torsion
[ 11005 11000 10999 10996 ] final   31.46 input  -57.11 | X-H torsion

> <Gold.Protein.ActiveResidues>
 VAL166  LYS551  ARG553  GLY616  TRP617  ASP618  TYR619  PRO620  LYS621  CYS622 
 ASP623  PHE694  ASN695  SER759  ASP760  ASP761  ALA762  ILE779  LEU786  VAL792 
 PHE793  MET794  SER795  GLU796  ALA797  LYS798  CYS799  TRP800  GLU811  SER814 

> <Gold.Protein.RotatedAtoms>
  152.3868  133.6622  159.6204 H   0  0  0  0  0  0  0  0  0  0  0  0  # atno 6907 bound_to 6896
  150.7785  133.9022  159.3353 H   0  0  0  0  0  0  0  0  0  0  0  0  # atno 6908 bound_to 6896
  151.6817  135.0962  160.0268 H   0  0  0  0  0  0  0  0  0  0  0  0  # atno 6909 bound_to 6896
  146.0648  139.5177  142.9635 H   0  0  0  0  0  0  0  0  0  0  0  0  # atno 7974 bound_to 7965
  155.9875  140.1194  157.0670 H   0  0  0  0  0  0  0  0  0  0  0  0  # atno 8008 bound_to 7997
  154.4201  140.1132  156.5587 H   0  0  0  0  0  0  0  0  0  0  0  0  # atno 8009 bound_to 7997
  155.6388  140.3473  155.4710 H   0  0  0  0  0  0  0  0  0  0  0  0  # atno 8010 bound_to 7997
  140.4347  143.2536  151.8710 H   0  0  0  0  0  0  0  0  0  0  0  0  # atno 10167 bound_to 10162
  157.6688  131.0839  150.5929 H   0  0  0  0  0  0  0  0  0  0  0  0  # atno 10718 bound_to 10713
  154.8654  135.4189  154.2523 H   0  0  0  0  0  0  0  0  0  0  0  0  # atno 10763 bound_to 10752
  153.3467  135.6996  153.6828 H   0  0  0  0  0  0  0  0  0  0  0  0  # atno 10764 bound_to 10752
  153.5784  135.3577  155.2838 H   0  0  0  0  0  0  0  0  0  0  0  0  # atno 10765 bound_to 10752
  140.2837  134.2943  155.7794 H   0  0  0  0  0  0  0  0  0  0  0  0  # atno 11005 bound_to 11000
  145.6497  141.0266  143.1767 LP  0  0  0  0  0  0  0  0  0  0  0  0  # atno 17320 bound_to 7965
  144.7196  139.8077  143.7386 LP  0  0  0  0  0  0  0  0  0  0  0  0  # atno 17321 bound_to 7965
  139.4786  144.5295  151.8686 LP  0  0  0  0  0  0  0  0  0  0  0  0  # atno 17342 bound_to 10162
  140.4387  144.2016  150.5890 LP  0  0  0  0  0  0  0  0  0  0  0  0  # atno 17343 bound_to 10162
  156.6229  130.4411  149.5815 LP  0  0  0  0  0  0  0  0  0  0  0  0  # atno 17370 bound_to 10713
  156.2341  130.6812  151.1493 LP  0  0  0  0  0  0  0  0  0  0  0  0  # atno 17371 bound_to 10713
  141.2158  133.7541  156.9519 LP  0  0  0  0  0  0  0  0  0  0  0  0  # atno 17394 bound_to 11000
  140.1259  134.9387  157.2270 LP  0  0  0  0  0  0  0  0  0  0  0  0  # atno 17395 bound_to 11000

$$$$
