AV-unprocessed.smi:558|AV-procd|sdf|2922|dock4
  -GOLD-   2262023413D 1   1.00000     0.00000
 Structure written by MMmdl.
 36 37  0  0  0  0  0  0  0  0  1 V2000
  154.6299  140.2221  160.4199 C   0  0  0  0  0  0  0  0  0  0  0  0
  153.6812  141.3745  160.2707 C   0  0  0  0  0  0  0  0  0  0  0  0
  153.3938  142.4071  161.2063 C   0  0  0  0  0  0  0  0  0  0  0  0
  152.4659  143.1866  160.5753 C   0  0  0  0  0  0  0  0  0  0  0  0
  151.7710  144.4223  161.0454 C   0  0  0  0  0  0  0  0  0  0  0  0
  152.2388  142.6161  159.3344 N   0  0  0  0  0  0  0  0  0  0  0  0
  151.3296  143.0374  158.2768 C   0  0  0  0  0  0  0  0  0  0  0  0
  150.8681  141.8534  157.4217 C   0  0  0  0  0  0  0  0  0  0  0  0
  151.0212  140.7029  157.8302 O   0  0  0  0  0  0  0  0  0  0  0  0
  150.3052  142.1493  156.2406 N   0  0  0  0  0  0  0  0  0  0  0  0
  149.7126  141.1873  155.3217 C   0  0  0  0  0  0  0  0  0  0  0  0
  148.3893  141.7321  154.7598 C   0  0  2  0  0  0  0  0  0  0  0  0
  147.2634  141.8271  155.7721 C   0  0  0  0  0  0  0  0  0  0  0  0
  146.0357  141.9098  154.8702 C   0  0  0  0  0  0  0  0  0  0  0  0
  146.3667  141.1828  153.6894 O   0  0  0  0  0  0  0  0  0  0  0  0
  147.7505  140.8441  153.6933 C   0  0  0  0  0  0  0  0  0  0  0  0
  152.9881  141.5064  159.1522 N   0  0  0  0  0  0  0  0  0  0  0  0
  155.2428  140.3301  161.3149 H   0  0  0  0  0  0  0  0  0  0  0  0
  155.3022  140.1508  159.5643 H   0  0  0  0  0  0  0  0  0  0  0  0
  154.0893  139.2786  160.5001 H   0  0  0  0  0  0  0  0  0  0  0  0
  153.8065  142.5525  162.1936 H   0  0  0  0  0  0  0  0  0  0  0  0
  152.0699  144.6733  162.0631 H   0  0  0  0  0  0  0  0  0  0  0  0
  150.6894  144.2888  161.0391 H   0  0  0  0  0  0  0  0  0  0  0  0
  152.0137  145.2718  160.4065 H   0  0  0  0  0  0  0  0  0  0  0  0
  150.4630  143.5324  158.7150 H   0  0  0  0  0  0  0  0  0  0  0  0
  151.8337  143.7759  157.6513 H   0  0  0  0  0  0  0  0  0  0  0  0
  150.2313  143.1233  155.9860 H   0  0  0  0  0  0  0  0  0  0  0  0
  150.4159  140.9950  154.5107 H   0  0  0  0  0  0  0  0  0  0  0  0
  149.5368  140.2345  155.8245 H   0  0  0  0  0  0  0  0  0  0  0  0
  148.5565  142.7222  154.3316 H   0  0  0  0  0  0  0  0  0  0  0  0
  147.2207  140.9222  156.3802 H   0  0  0  0  0  0  0  0  0  0  0  0
  147.3556  142.6829  156.4422 H   0  0  0  0  0  0  0  0  0  0  0  0
  145.1414  141.5090  155.3480 H   0  0  0  0  0  0  0  0  0  0  0  0
  145.8362  142.9458  154.5939 H   0  0  0  0  0  0  0  0  0  0  0  0
  148.1977  140.9849  152.7091 H   0  0  0  0  0  0  0  0  0  0  0  0
  147.8446  139.7904  153.9591 H   0  0  0  0  0  0  0  0  0  0  0  0
  1  2  1  0  0  0  0
  1 18  1  0  0  0  0
  1 19  1  0  0  0  0
  1 20  1  0  0  0  0
  2 17  2  0  0  0  0
  2  3  1  0  0  0  0
  3  4  2  0  0  0  0
  3 21  1  0  0  0  0
  4  5  1  0  0  0  0
  4  6  1  0  0  0  0
  5 22  1  0  0  0  0
  5 23  1  0  0  0  0
  5 24  1  0  0  0  0
  6  7  1  0  0  0  0
  6 17  1  0  0  0  0
  7  8  1  0  0  0  0
  7 25  1  0  0  0  0
  7 26  1  0  0  0  0
  8  9  2  0  0  0  0
  8 10  1  0  0  0  0
 10 11  1  0  0  0  0
 10 27  1  0  0  0  0
 11 12  1  0  0  0  0
 11 28  1  0  0  0  0
 11 29  1  0  0  0  0
 12 16  1  0  0  0  0
 12 13  1  0  0  0  0
 12 30  1  0  0  0  0
 13 14  1  0  0  0  0
 13 31  1  0  0  0  0
 13 32  1  0  0  0  0
 14 15  1  0  0  0  0
 14 33  1  0  0  0  0
 14 34  1  0  0  0  0
 15 16  1  0  0  0  0
 16 35  1  0  0  0  0
 16 36  1  0  0  0  0
M  END
> <s_m_source_file>
AV-unprocessed.smi

> <i_m_source_file_index>
558

> <i_lp_mmshare_version>
43012

> <i_f3d_flags>
0

> <s_epik_input>
W0NIM11jMVtjSF1jKFtDSDNdKW4objEpW0NIMl1DKD1PKVtOSF1bQ0gyXVtDQEBIXTJbQ0gyXVtDSDJdT1tDSDJdMg==

> <s_epik_cmdline>
J2VwaWtfcHl0aG9uJywgJy1waCcsICc3LjAnLCAnLXRuJywgJzgnLCAnLW1hJywgJzIwMCcsICctbWV0YWxfYmluZGluZycsICctaW1hZScsICc8aW5maWxlLm1hZT4nLCAnLW9tYWUnLCAnPG91dGZpbGUubWFlPic=

> <r_lp_tautomer_probability>
1

> <r_epik_Ionization_Penalty>
0.000376629

> <r_epik_Ionization_Penalty_Charging>
0

> <r_epik_Ionization_Penalty_Neutral>
0.000376629

> <r_epik_State_Penalty>
-0

> <r_epik_Charging_Adjusted_Penalty>
0

> <i_epik_Tot_Q>
0

> <i_epik_Tot_abs_Q>
0

> <r_epik_Metal_State_Penalty>
-0

> <b_epik_Metal_Only>
0

> <s_lp_Force_Field>
OPLS_2005

> <r_lp_Energy>
17.1643

> <b_lp_Chiralities_Consistent>
1

> <s_lp_Variant>
AV-unprocessed.smi:558-1

> <Gold.Version>
5.8.1

> <Gold.Id.Protein>
6NUR|6NUR_protein|mol2

> <Gold.PLP.Fitness>
38.0716

> <Gold.PLP.PLP>
-37.0182

> <Gold.PLP.part.hbond>
-1.0000

> <Gold.PLP.part.metal>
0.0000

> <Gold.PLP.part.buried>
-1.0710

> <Gold.PLP.part.nonpolar>
-35.1344

> <Gold.PLP.part.repulsive>
0.5515

> <Gold.PLP.ligand.clash>
0.0000

> <Gold.PLP.ligand.torsion>
0.7156

> <Gold.PLP.Chemscore.Hbond>
0.8247

> <Gold.PLP.Chemscore.CHOScore>
0.0000

> <Gold.PLP.Chemscore.Metal>
0.0000

> <Gold.Chemscore.Hbonds>
donor molecule, donor type, donor heavy atom, donor atom, acceptor molecule, acceptor atom, score
      L1  H    10    27       P1  8028  0.71

> <Gold.PLP.Chemscore.Internal.Correction>
0.0104

> <Gold.Rescore>
     Score         DG    S(hbond)    S(metal)    S(lipo)     H(rot)  DE(clash)    DE(int)     intcor
     12.87     -15.31       0.92        0.00      91.35       1.54       0.09       2.35       ----

> <Gold.Chemscore.Fitness>
12.8716

> <Gold.Chemscore.DG>
-15.3145

> <Gold.Chemscore.ZeroCoef>
-5.4800

> <Gold.Chemscore.Hbond>
0.9238

> <Gold.Chemscore.Metal>
0.0000

> <Gold.Chemscore.Lipo>
91.3535

> <Gold.Chemscore.Internal_Hbond>
0.0000

> <Gold.Chemscore.DEClash>
0.0893

> <Gold.Chemscore.DEInternal>
2.3536

> <Gold.Chemscore.Rot>
1.5387

> <Gold.Chemscore.Internal.Correction>
   9.000000E+99

> <Gold.Chemscore.Hbonds>
donor molecule, donor type, donor heavy atom, donor atom, acceptor molecule, acceptor atom, score
      L1  H    10    27       P1  8028  0.69

> <Gold.Chemscore.Hbond.Weighted>
-3.0854

> <Gold.Chemscore.Metal.Weighted>
-0.0000

> <Gold.Chemscore.Lipo.Weighted>
-10.6884

> <Gold.Chemscore.Internal_Hbond.Weighted>
0.0000

> <Gold.Chemscore.DEClash.Weighted>
0.0893

> <Gold.Chemscore.DEInternal.Weighted>
2.3536

> <Gold.Chemscore.Rot.Weighted>
3.9392

> <Gold.Chemscore.Internal.Correction.Weighted>
   9.000000E+99

> <Gold.Protein.RotatedTorsions>
[ 6907 6896 6895 6894 ] final   20.40 input  -60.11 | X-H torsion
[ 7974 7965 7964 7962 ] final  153.44 input  175.53 | X-H torsion
[ 8008 7997 7996 7995 ] final  143.59 input   59.86 | X-H torsion
[ 10167 10162 10161 10158 ] final  139.64 input  -65.29 | X-H torsion
[ 10718 10713 10712 10709 ] final   54.32 input   66.30 | X-H torsion
[ 10763 10752 10751 10750 ] final -158.70 input  -60.55 | X-H torsion
[ 11005 11000 10999 10996 ] final  140.08 input  -57.11 | X-H torsion

> <Gold.Protein.ActiveResidues>
 VAL166  LYS551  ARG553  GLY616  TRP617  ASP618  TYR619  PRO620  LYS621  CYS622 
 ASP623  PHE694  ASN695  SER759  ASP760  ASP761  ALA762  ILE779  LEU786  VAL792 
 PHE793  MET794  SER795  GLU796  ALA797  LYS798  CYS799  TRP800  GLU811  SER814 

> <Gold.Protein.RotatedAtoms>
  151.8958  135.0398  160.0501 H   0  0  0  0  0  0  0  0  0  0  0  0  # atno 6907 bound_to 6896
  152.2399  133.5122  159.5272 H   0  0  0  0  0  0  0  0  0  0  0  0  # atno 6908 bound_to 6896
  150.7050  134.1019  159.4011 H   0  0  0  0  0  0  0  0  0  0  0  0  # atno 6909 bound_to 6896
  144.8154  139.6801  143.6123 H   0  0  0  0  0  0  0  0  0  0  0  0  # atno 7974 bound_to 7965
  156.2927  140.2258  156.4915 H   0  0  0  0  0  0  0  0  0  0  0  0  # atno 8008 bound_to 7997
  154.7767  140.0463  157.1116 H   0  0  0  0  0  0  0  0  0  0  0  0  # atno 8009 bound_to 7997
  154.9808  140.3078  155.4950 H   0  0  0  0  0  0  0  0  0  0  0  0  # atno 8010 bound_to 7997
  139.5073  144.6283  151.5883 H   0  0  0  0  0  0  0  0  0  0  0  0  # atno 10167 bound_to 10162
  157.5246  130.8588  149.8605 H   0  0  0  0  0  0  0  0  0  0  0  0  # atno 10718 bound_to 10713
  154.7535  135.3098  154.8513 H   0  0  0  0  0  0  0  0  0  0  0  0  # atno 10763 bound_to 10752
  153.9293  135.6787  153.4750 H   0  0  0  0  0  0  0  0  0  0  0  0  # atno 10764 bound_to 10752
  153.1132  135.4857  154.8999 H   0  0  0  0  0  0  0  0  0  0  0  0  # atno 10765 bound_to 10752
  140.0301  134.9356  157.0646 H   0  0  0  0  0  0  0  0  0  0  0  0  # atno 11005 bound_to 11000
  146.2457  139.6093  142.9461 LP  0  0  0  0  0  0  0  0  0  0  0  0  # atno 17320 bound_to 7965
  145.5226  141.0431  143.2427 LP  0  0  0  0  0  0  0  0  0  0  0  0  # atno 17321 bound_to 7965
  140.6007  143.9615  150.6384 LP  0  0  0  0  0  0  0  0  0  0  0  0  # atno 17342 bound_to 10162
  140.2826  143.3379  152.1137 LP  0  0  0  0  0  0  0  0  0  0  0  0  # atno 17343 bound_to 10162
  156.0378  130.3747  150.1515 LP  0  0  0  0  0  0  0  0  0  0  0  0  # atno 17370 bound_to 10713
  156.9702  130.9832  151.3460 LP  0  0  0  0  0  0  0  0  0  0  0  0  # atno 17371 bound_to 10713
  140.4239  134.1851  155.7165 LP  0  0  0  0  0  0  0  0  0  0  0  0  # atno 17394 bound_to 11000
  141.1826  133.8381  157.1203 LP  0  0  0  0  0  0  0  0  0  0  0  0  # atno 17395 bound_to 11000

$$$$
