AV-unprocessed.smi:2973|AV-procd|sdf|11340|dock8
  -GOLD-   2272016253D 1   1.00000     0.00000
 Structure written by MMmdl.
 49 51  0  0  0  0  0  0  0  0  1 V2000
  148.5053  142.8898  158.8526 C   0  0  0  0  0  0  0  0  0  0  0  0
  149.7284  143.8141  158.6740 C   0  0  1  0  0  0  0  0  0  0  0  0
  150.2423  144.3098  160.0430 C   0  0  0  0  0  0  0  0  0  0  0  0
  151.3984  145.3100  159.8866 C   0  0  0  0  0  0  0  0  0  0  0  0
  152.5522  144.7122  159.0695 C   0  0  0  0  0  0  0  0  0  0  0  0
  152.0628  144.2092  157.6994 C   0  0  0  0  0  0  0  0  0  0  0  0
  150.8786  143.2148  157.8032 C   0  0  2  0  0  0  0  0  0  0  0  0
  150.4065  142.8785  156.4711 N   0  0  0  0  0  0  0  0  0  0  0  0
  150.5521  141.5823  156.1697 C   0  0  0  0  0  0  0  0  0  0  0  0
  150.2346  141.0632  155.1008 O   0  0  0  0  0  0  0  0  0  0  0  0
  151.0964  140.9609  157.2302 N   0  0  0  0  0  0  0  0  0  0  0  0
  151.4197  139.5285  157.2706 C   0  0  0  0  0  0  0  0  0  0  0  0
  150.6014  138.7427  158.3050 C   0  0  0  0  0  0  0  0  0  0  0  0
  151.1066  138.3641  159.3631 O   0  0  0  0  0  0  0  0  0  0  0  0
  149.3207  138.5125  157.9799 N   0  0  0  0  0  0  0  0  0  0  0  0
  148.3613  137.7902  158.8071 C   0  0  0  0  0  0  0  0  0  0  0  0
  148.9912  136.5431  159.4500 C   0  0  0  0  0  0  0  0  0  0  0  0
  148.2993  136.1518  160.7422 C   0  0  0  0  0  0  0  0  0  0  0  0
  148.1146  134.7933  161.0785 C   0  0  0  0  0  0  0  0  0  0  0  0
  147.4701  134.4844  162.2920 C   0  0  0  0  0  0  0  0  0  0  0  0
  147.0388  135.5395  163.1189 C   0  0  0  0  0  0  0  0  0  0  0  0
  147.2724  136.8625  162.6937 C   0  0  0  0  0  0  0  0  0  0  0  0
  147.8886  137.1696  161.5319 N   0  0  0  0  0  0  0  0  0  0  0  0
  151.3355  141.8183  158.2321 C   0  0  0  0  0  0  0  0  0  0  0  0
  151.8354  141.5506  159.3249 O   0  0  0  0  0  0  0  0  0  0  0  0
  148.7557  141.9898  159.4149 H   0  0  0  0  0  0  0  0  0  0  0  0
  148.0901  142.5802  157.8934 H   0  0  0  0  0  0  0  0  0  0  0  0
  147.7101  143.4008  159.3959 H   0  0  0  0  0  0  0  0  0  0  0  0
  149.3623  144.6940  158.1425 H   0  0  0  0  0  0  0  0  0  0  0  0
  149.4297  144.7875  160.5913 H   0  0  0  0  0  0  0  0  0  0  0  0
  150.5646  143.4683  160.6565 H   0  0  0  0  0  0  0  0  0  0  0  0
  151.0344  146.2137  159.3962 H   0  0  0  0  0  0  0  0  0  0  0  0
  151.7592  145.6166  160.8688 H   0  0  0  0  0  0  0  0  0  0  0  0
  153.3307  145.4624  158.9288 H   0  0  0  0  0  0  0  0  0  0  0  0
  153.0152  143.8985  159.6277 H   0  0  0  0  0  0  0  0  0  0  0  0
  151.7589  145.0675  157.0983 H   0  0  0  0  0  0  0  0  0  0  0  0
  152.8980  143.7535  157.1649 H   0  0  0  0  0  0  0  0  0  0  0  0
  150.0190  143.5658  155.8412 H   0  0  0  0  0  0  0  0  0  0  0  0
  151.2605  139.0791  156.2890 H   0  0  0  0  0  0  0  0  0  0  0  0
  152.4816  139.3978  157.4864 H   0  0  0  0  0  0  0  0  0  0  0  0
  148.9873  138.8588  157.0918 H   0  0  0  0  0  0  0  0  0  0  0  0
  148.0096  138.4690  159.5844 H   0  0  0  0  0  0  0  0  0  0  0  0
  147.4865  137.5180  158.2139 H   0  0  0  0  0  0  0  0  0  0  0  0
  148.9494  135.6985  158.7606 H   0  0  0  0  0  0  0  0  0  0  0  0
  150.0485  136.7217  159.6499 H   0  0  0  0  0  0  0  0  0  0  0  0
  148.4583  134.0054  160.4243 H   0  0  0  0  0  0  0  0  0  0  0  0
  147.3096  133.4568  162.5833 H   0  0  0  0  0  0  0  0  0  0  0  0
  146.5409  135.3402  164.0563 H   0  0  0  0  0  0  0  0  0  0  0  0
  146.9565  137.6963  163.3032 H   0  0  0  0  0  0  0  0  0  0  0  0
  1  2  1  0  0  0  0
  1 26  1  0  0  0  0
  1 27  1  0  0  0  0
  1 28  1  0  0  0  0
  2  7  1  0  0  0  0
  2  3  1  0  0  0  0
  2 29  1  0  0  0  0
  3  4  1  0  0  0  0
  3 30  1  0  0  0  0
  3 31  1  0  0  0  0
  4  5  1  0  0  0  0
  4 32  1  0  0  0  0
  4 33  1  0  0  0  0
  5  6  1  0  0  0  0
  5 34  1  0  0  0  0
  5 35  1  0  0  0  0
  6  7  1  0  0  0  0
  6 36  1  0  0  0  0
  6 37  1  0  0  0  0
  7 24  1  0  0  0  0
  7  8  1  0  0  0  0
  8  9  1  0  0  0  0
  8 38  1  0  0  0  0
  9 10  2  0  0  0  0
  9 11  1  0  0  0  0
 11 12  1  0  0  0  0
 11 24  1  0  0  0  0
 12 13  1  0  0  0  0
 12 39  1  0  0  0  0
 12 40  1  0  0  0  0
 13 14  2  0  0  0  0
 13 15  1  0  0  0  0
 15 16  1  0  0  0  0
 15 41  1  0  0  0  0
 16 17  1  0  0  0  0
 16 42  1  0  0  0  0
 16 43  1  0  0  0  0
 17 18  1  0  0  0  0
 17 44  1  0  0  0  0
 17 45  1  0  0  0  0
 18 23  1  0  0  0  0
 18 19  2  0  0  0  0
 19 20  1  0  0  0  0
 19 46  1  0  0  0  0
 20 21  2  0  0  0  0
 20 47  1  0  0  0  0
 21 22  1  0  0  0  0
 21 48  1  0  0  0  0
 22 23  2  0  0  0  0
 22 49  1  0  0  0  0
 24 25  2  0  0  0  0
M  END
> <s_m_source_file>
AV-unprocessed.smi

> <i_m_source_file_index>
2973

> <i_lp_mmshare_version>
43012

> <i_f3d_flags>
0

> <s_epik_input>
W0NIMl0xW0NIMl1bQ0gyXVtDSDJdW0NAQEhdKFtDSDNdKVtDQF0xMltOSF1DKD1PKU4oQzI9TylbQ0gyXUMoPU8pW05IXVtDSDJdW0NIMl1jM1tjSF1bY0hdW2NIXVtjSF1uMw==

> <s_epik_cmdline>
J2VwaWtfcHl0aG9uJywgJy1waCcsICc3LjAnLCAnLXRuJywgJzgnLCAnLW1hJywgJzIwMCcsICctbWV0YWxfYmluZGluZycsICctaW1hZScsICc8aW5maWxlLm1hZT4nLCAnLW9tYWUnLCAnPG91dGZpbGUubWFlPic=

> <r_lp_tautomer_probability>
1

> <r_epik_Ionization_Penalty>
0.0245152

> <r_epik_Ionization_Penalty_Charging>
0

> <r_epik_Ionization_Penalty_Neutral>
0.0245152

> <r_epik_State_Penalty>
0.0198648

> <r_epik_Charging_Adjusted_Penalty>
0.0198648

> <i_epik_Tot_Q>
0

> <i_epik_Tot_abs_Q>
0

> <r_epik_Metal_State_Penalty>
0.0400162

> <b_epik_Metal_Only>
0

> <s_lp_Force_Field>
OPLS_2005

> <r_lp_Energy>
16.769

> <b_lp_Chiralities_Consistent>
1

> <s_lp_Variant>
AV-unprocessed.smi:2973-4

> <Gold.Version>
5.8.1

> <Gold.Id.Protein>
6NUR|6NUR_protein|mol2

> <Gold.PLP.Fitness>
58.2065

> <Gold.PLP.PLP>
-49.8810

> <Gold.PLP.part.hbond>
-4.2770

> <Gold.PLP.part.metal>
0.0000

> <Gold.PLP.part.buried>
-4.8919

> <Gold.PLP.part.nonpolar>
-40.6470

> <Gold.PLP.part.repulsive>
0.2854

> <Gold.PLP.ligand.clash>
0.0000

> <Gold.PLP.ligand.torsion>
0.8005

> <Gold.PLP.Chemscore.Hbond>
3.3040

> <Gold.PLP.Chemscore.CHOScore>
0.0000

> <Gold.PLP.Chemscore.Metal>
0.0000

> <Gold.Chemscore.Hbonds>
donor molecule, donor type, donor heavy atom, donor atom, acceptor molecule, acceptor atom, score
      L1  H     8    38       P1  8028  0.91
      P1  H  6931  6943       L1    23  1.00
      P1  H  6934  6947       L1    23  0.63
      P1  H  7989  7998       L1    10  0.53

> <Gold.PLP.Chemscore.Internal.Correction>
0.0145

> <Gold.Rescore>
     Score         DG    S(hbond)    S(metal)    S(lipo)     H(rot)  DE(clash)    DE(int)     intcor
     20.41     -22.63       2.50        0.00     115.85       1.86       0.12       2.09       ----

> <Gold.Chemscore.Fitness>
20.4085

> <Gold.Chemscore.DG>
-22.6252

> <Gold.Chemscore.ZeroCoef>
-5.4800

> <Gold.Chemscore.Hbond>
2.4970

> <Gold.Chemscore.Metal>
0.0000

> <Gold.Chemscore.Lipo>
115.8542

> <Gold.Chemscore.Internal_Hbond>
0.0000

> <Gold.Chemscore.DEClash>
0.1221

> <Gold.Chemscore.DEInternal>
2.0946

> <Gold.Chemscore.Rot>
1.8553

> <Gold.Chemscore.Internal.Correction>
   9.000000E+99

> <Gold.Chemscore.Hbonds>
donor molecule, donor type, donor heavy atom, donor atom, acceptor molecule, acceptor atom, score
      L1  H     8    38       P1  8028  0.89
      P1  H  6931  6943       L1    23  0.49
      P1  H  6934  6947       L1    23  0.36
      P1  H  7989  7998       L1    10  0.51

> <Gold.Chemscore.Hbond.Weighted>
-8.3399

> <Gold.Chemscore.Metal.Weighted>
-0.0000

> <Gold.Chemscore.Lipo.Weighted>
-13.5549

> <Gold.Chemscore.Internal_Hbond.Weighted>
0.0000

> <Gold.Chemscore.DEClash.Weighted>
0.1221

> <Gold.Chemscore.DEInternal.Weighted>
2.0946

> <Gold.Chemscore.Rot.Weighted>
4.7497

> <Gold.Chemscore.Internal.Correction.Weighted>
   9.000000E+99

> <Gold.Protein.RotatedTorsions>
[ 6907 6896 6895 6894 ] final -155.45 input  -60.11 | X-H torsion
[ 7974 7965 7964 7962 ] final  -56.09 input  175.53 | X-H torsion
[ 8008 7997 7996 7995 ] final  130.81 input   59.86 | X-H torsion
[ 10167 10162 10161 10158 ] final -155.04 input  -65.29 | X-H torsion
[ 10718 10713 10712 10709 ] final  146.85 input   66.30 | X-H torsion
[ 10763 10752 10751 10750 ] final   52.65 input  -60.55 | X-H torsion
[ 11005 11000 10999 10996 ] final  -70.87 input  -57.11 | X-H torsion

> <Gold.Protein.ActiveResidues>
 VAL166  LYS551  ARG553  GLY616  TRP617  ASP618  TYR619  PRO620  LYS621  CYS622 
 ASP623  PHE694  ASN695  SER759  ASP760  ASP761  ALA762  ILE779  LEU786  VAL792 
 PHE793  MET794  SER795  GLU796  ALA797  LYS798  CYS799  TRP800  GLU811  SER814 

> <Gold.Protein.RotatedAtoms>
  151.2728  133.4247  159.2621 H   0  0  0  0  0  0  0  0  0  0  0  0  # atno 6907 bound_to 6896
  151.0430  134.9621  159.8182 H   0  0  0  0  0  0  0  0  0  0  0  0  # atno 6908 bound_to 6896
  152.5369  134.2685  159.9015 H   0  0  0  0  0  0  0  0  0  0  0  0  # atno 6909 bound_to 6896
  145.8667  140.8246  142.9909 H   0  0  0  0  0  0  0  0  0  0  0  0  # atno 7974 bound_to 7965
  156.2960  140.2587  156.2823 H   0  0  0  0  0  0  0  0  0  0  0  0  # atno 8008 bound_to 7997
  154.9590  140.0393  157.2199 H   0  0  0  0  0  0  0  0  0  0  0  0  # atno 8009 bound_to 7997
  154.7965  140.2821  155.5957 H   0  0  0  0  0  0  0  0  0  0  0  0  # atno 8010 bound_to 7997
  139.6964  143.9335  152.2409 H   0  0  0  0  0  0  0  0  0  0  0  0  # atno 10167 bound_to 10162
  157.3281  131.0915  151.1185 H   0  0  0  0  0  0  0  0  0  0  0  0  # atno 10718 bound_to 10713
  152.9790  135.5805  154.4614 H   0  0  0  0  0  0  0  0  0  0  0  0  # atno 10763 bound_to 10752
  154.4189  135.2771  155.1990 H   0  0  0  0  0  0  0  0  0  0  0  0  # atno 10764 bound_to 10752
  154.3748  135.6160  153.5813 H   0  0  0  0  0  0  0  0  0  0  0  0  # atno 10765 bound_to 10752
  141.1582  133.6801  156.6818 H   0  0  0  0  0  0  0  0  0  0  0  0  # atno 11005 bound_to 11000
  144.6726  140.1177  143.7451 LP  0  0  0  0  0  0  0  0  0  0  0  0  # atno 17320 bound_to 7965
  145.9185  139.2531  143.1395 LP  0  0  0  0  0  0  0  0  0  0  0  0  # atno 17321 bound_to 7965
  139.9166  144.6825  150.8506 LP  0  0  0  0  0  0  0  0  0  0  0  0  # atno 17342 bound_to 10162
  140.7697  143.3405  151.2218 LP  0  0  0  0  0  0  0  0  0  0  0  0  # atno 17343 bound_to 10162
  157.2444  130.6584  149.5904 LP  0  0  0  0  0  0  0  0  0  0  0  0  # atno 17370 bound_to 10713
  155.9693  130.4558  150.5901 LP  0  0  0  0  0  0  0  0  0  0  0  0  # atno 17371 bound_to 10713
  140.3097  134.8096  157.4166 LP  0  0  0  0  0  0  0  0  0  0  0  0  # atno 17394 bound_to 11000
  140.1190  134.5245  155.8200 LP  0  0  0  0  0  0  0  0  0  0  0  0  # atno 17395 bound_to 11000

$$$$
