AV-unprocessed.smi:566|AV-procd|sdf|2955|dock9
  -GOLD-   2262023453D 1   1.00000     0.00000
 Structure written by MMmdl.
 39 40  0  0  0  0  0  0  0  0  1 V2000
  147.0007  136.9443  154.1654 C   0  0  0  0  0  0  0  0  0  0  0  0
  148.1815  137.8602  154.4642 C   0  0  0  0  0  0  0  0  0  0  0  0
  149.2853  137.3169  155.2210 C   0  0  0  0  0  0  0  0  0  0  0  0
  150.3785  138.0517  155.4806 C   0  0  0  0  0  0  0  0  0  0  0  0
  151.5419  137.4625  156.2708 C   0  0  0  0  0  0  0  0  0  0  0  0
  150.4676  139.3975  155.0296 N   0  0  0  0  0  0  0  0  0  0  0  0
  151.6893  140.1839  155.3201 C   0  0  0  0  0  0  0  0  0  0  0  0
  151.4757  141.2107  156.4490 C   0  0  0  0  0  0  0  0  0  0  0  0
  152.1065  140.7588  157.6393 O   0  0  0  0  0  0  0  0  0  0  0  0
  152.3377  141.6714  158.6456 C   0  0  0  0  0  0  0  0  0  0  0  0
  152.9653  141.1888  159.8126 C   0  0  0  0  0  0  0  0  0  0  0  0
  153.2417  142.0503  160.8915 C   0  0  0  0  0  0  0  0  0  0  0  0
  152.8882  143.4101  160.8139 C   0  0  0  0  0  0  0  0  0  0  0  0
  152.2589  143.9051  159.6566 C   0  0  0  0  0  0  0  0  0  0  0  0
  151.9163  145.2130  159.5810 F   0  0  0  0  0  0  0  0  0  0  0  0
  151.9844  143.0431  158.5766 C   0  0  0  0  0  0  0  0  0  0  0  0
  149.4495  140.0019  154.3359 C   0  0  0  0  0  0  0  0  0  0  0  0
  149.5340  141.1922  154.0167 O   0  0  0  0  0  0  0  0  0  0  0  0
  148.2706  139.1456  154.0283 C   0  0  0  0  0  0  0  0  0  0  0  0
  147.1857  139.7707  153.2465 C   0  0  0  0  0  0  0  0  0  0  0  0
  146.0430  139.9719  153.9173 N   0  0  0  0  0  0  0  0  0  0  0  0
  147.2949  140.1714  152.0887 O   0  0  0  0  0  0  0  0  0  0  0  0
  147.2184  135.9146  154.4506 H   0  0  0  0  0  0  0  0  0  0  0  0
  146.7637  136.9442  153.1009 H   0  0  0  0  0  0  0  0  0  0  0  0
  146.1186  137.2618  154.7218 H   0  0  0  0  0  0  0  0  0  0  0  0
  149.2333  136.2976  155.5756 H   0  0  0  0  0  0  0  0  0  0  0  0
  151.2501  136.5234  156.7418 H   0  0  0  0  0  0  0  0  0  0  0  0
  151.8798  138.1195  157.0702 H   0  0  0  0  0  0  0  0  0  0  0  0
  152.3815  137.2475  155.6093 H   0  0  0  0  0  0  0  0  0  0  0  0
  152.5197  139.5289  155.5778 H   0  0  0  0  0  0  0  0  0  0  0  0
  152.0589  140.6970  154.4307 H   0  0  0  0  0  0  0  0  0  0  0  0
  151.8666  142.1870  156.1610 H   0  0  0  0  0  0  0  0  0  0  0  0
  150.4051  141.3184  156.6284 H   0  0  0  0  0  0  0  0  0  0  0  0
  153.2397  140.1461  159.8795 H   0  0  0  0  0  0  0  0  0  0  0  0
  153.7250  141.6676  161.7781 H   0  0  0  0  0  0  0  0  0  0  0  0
  153.0987  144.0720  161.6410 H   0  0  0  0  0  0  0  0  0  0  0  0
  151.4995  143.4587  157.7067 H   0  0  0  0  0  0  0  0  0  0  0  0
  145.2577  140.4092  153.4573 H   0  0  0  0  0  0  0  0  0  0  0  0
  145.9768  139.6988  154.8872 H   0  0  0  0  0  0  0  0  0  0  0  0
  1  2  1  0  0  0  0
  1 23  1  0  0  0  0
  1 24  1  0  0  0  0
  1 25  1  0  0  0  0
  2 19  2  0  0  0  0
  2  3  1  0  0  0  0
  3  4  2  0  0  0  0
  3 26  1  0  0  0  0
  4  5  1  0  0  0  0
  4  6  1  0  0  0  0
  5 27  1  0  0  0  0
  5 28  1  0  0  0  0
  5 29  1  0  0  0  0
  6  7  1  0  0  0  0
  6 17  1  0  0  0  0
  7  8  1  0  0  0  0
  7 30  1  0  0  0  0
  7 31  1  0  0  0  0
  8  9  1  0  0  0  0
  8 32  1  0  0  0  0
  8 33  1  0  0  0  0
  9 10  1  0  0  0  0
 10 16  1  0  0  0  0
 10 11  2  0  0  0  0
 11 12  1  0  0  0  0
 11 34  1  0  0  0  0
 12 13  2  0  0  0  0
 12 35  1  0  0  0  0
 13 14  1  0  0  0  0
 13 36  1  0  0  0  0
 14 15  1  0  0  0  0
 14 16  2  0  0  0  0
 16 37  1  0  0  0  0
 17 18  2  0  0  0  0
 17 19  1  0  0  0  0
 19 20  1  0  0  0  0
 20 21  1  0  0  0  0
 20 22  2  0  0  0  0
 21 38  1  0  0  0  0
 21 39  1  0  0  0  0
M  END
> <s_m_source_file>
AV-unprocessed.smi

> <i_m_source_file_index>
566

> <i_lp_mmshare_version>
43012

> <i_f3d_flags>
0

> <s_epik_input>
W0NIM11jMVtjSF1jKFtDSDNdKW4oYyg9TyljMUMoPU8pW05IMl0pW0NIMl1bQ0gyXU9jMltjSF1bY0hdW2NIXWMoRilbY0hdMg==

> <s_epik_cmdline>
J2VwaWtfcHl0aG9uJywgJy1waCcsICc3LjAnLCAnLXRuJywgJzgnLCAnLW1hJywgJzIwMCcsICctbWV0YWxfYmluZGluZycsICctaW1hZScsICc8aW5maWxlLm1hZT4nLCAnLW9tYWUnLCAnPG91dGZpbGUubWFlPic=

> <r_lp_tautomer_probability>
1

> <r_epik_Ionization_Penalty>
1.93248e-07

> <r_epik_Ionization_Penalty_Charging>
2.77691e-08

> <r_epik_Ionization_Penalty_Neutral>
1.65479e-07

> <r_epik_State_Penalty>
-0

> <r_epik_Charging_Adjusted_Penalty>
2.77691e-08

> <i_epik_Tot_Q>
0

> <i_epik_Tot_abs_Q>
0

> <r_epik_Metal_State_Penalty>
-0

> <b_epik_Metal_Only>
0

> <s_lp_Force_Field>
OPLS_2005

> <r_lp_Energy>
41.2098

> <b_lp_Chiralities_Consistent>
1

> <s_lp_Variant>
AV-unprocessed.smi:566-1

> <Gold.Version>
5.8.1

> <Gold.Id.Protein>
6NUR|6NUR_protein|mol2

> <Gold.PLP.Fitness>
41.3563

> <Gold.PLP.PLP>
-39.5061

> <Gold.PLP.part.hbond>
-3.0000

> <Gold.PLP.part.metal>
0.0000

> <Gold.PLP.part.buried>
-4.2406

> <Gold.PLP.part.nonpolar>
-34.9385

> <Gold.PLP.part.repulsive>
3.9674

> <Gold.PLP.ligand.clash>
0.0000

> <Gold.PLP.ligand.torsion>
1.8294

> <Gold.PLP.Chemscore.Hbond>
1.7281

> <Gold.PLP.Chemscore.CHOScore>
0.0000

> <Gold.PLP.Chemscore.Metal>
0.0000

> <Gold.Chemscore.Hbonds>
donor molecule, donor type, donor heavy atom, donor atom, acceptor molecule, acceptor atom, score
      L1  H    21    38       P1 10175  1.00
      P1  H  7989  7998       L1    18  0.12
      P1  H  8011  8017       L1    18  0.68

> <Gold.PLP.Chemscore.Internal.Correction>
0.3246

> <Gold.Rescore>
     Score         DG    S(hbond)    S(metal)    S(lipo)     H(rot)  DE(clash)    DE(int)     intcor
     13.94     -18.96       1.76        0.00     101.88       1.69       3.11       1.91       ----

> <Gold.Chemscore.Fitness>
13.9430

> <Gold.Chemscore.DG>
-18.9563

> <Gold.Chemscore.ZeroCoef>
-5.4800

> <Gold.Chemscore.Hbond>
1.7595

> <Gold.Chemscore.Metal>
0.0000

> <Gold.Chemscore.Lipo>
101.8821

> <Gold.Chemscore.Internal_Hbond>
0.0000

> <Gold.Chemscore.DEClash>
3.1074

> <Gold.Chemscore.DEInternal>
1.9059

> <Gold.Chemscore.Rot>
1.6878

> <Gold.Chemscore.Internal.Correction>
   9.000000E+99

> <Gold.Chemscore.Hbonds>
donor molecule, donor type, donor heavy atom, donor atom, acceptor molecule, acceptor atom, score
      L1  H    21    38       P1 10175  0.98
      P1  H  7989  7998       L1    18  0.01
      P1  H  8011  8017       L1    18  0.65

> <Gold.Chemscore.Hbond.Weighted>
-5.8767

> <Gold.Chemscore.Metal.Weighted>
-0.0000

> <Gold.Chemscore.Lipo.Weighted>
-11.9202

> <Gold.Chemscore.Internal_Hbond.Weighted>
0.0000

> <Gold.Chemscore.DEClash.Weighted>
3.1074

> <Gold.Chemscore.DEInternal.Weighted>
1.9059

> <Gold.Chemscore.Rot.Weighted>
4.3207

> <Gold.Chemscore.Internal.Correction.Weighted>
   9.000000E+99

> <Gold.Protein.RotatedTorsions>
[ 6907 6896 6895 6894 ] final   37.32 input  -60.11 | X-H torsion
[ 7974 7965 7964 7962 ] final   46.05 input  175.53 | X-H torsion
[ 8008 7997 7996 7995 ] final -134.11 input   59.86 | X-H torsion
[ 10167 10162 10161 10158 ] final  -71.39 input  -65.29 | X-H torsion
[ 10718 10713 10712 10709 ] final  141.71 input   66.30 | X-H torsion
[ 10763 10752 10751 10750 ] final  -99.22 input  -60.55 | X-H torsion
[ 11005 11000 10999 10996 ] final  104.23 input  -57.11 | X-H torsion

> <Gold.Protein.ActiveResidues>
 VAL166  LYS551  ARG553  GLY616  TRP617  ASP618  TYR619  PRO620  LYS621  CYS622 
 ASP623  PHE694  ASN695  SER759  ASP760  ASP761  ALA762  ILE779  LEU786  VAL792 
 PHE793  MET794  SER795  GLU796  ALA797  LYS798  CYS799  TRP800  GLU811  SER814 

> <Gold.Protein.RotatedAtoms>
  152.1416  134.9058  160.0553 H   0  0  0  0  0  0  0  0  0  0  0  0  # atno 6907 bound_to 6896
  152.0124  133.3861  159.4233 H   0  0  0  0  0  0  0  0  0  0  0  0  # atno 6908 bound_to 6896
  150.6866  134.3637  159.5005 H   0  0  0  0  0  0  0  0  0  0  0  0  # atno 6909 bound_to 6896
  146.0425  139.4898  142.9769 H   0  0  0  0  0  0  0  0  0  0  0  0  # atno 7974 bound_to 7965
  155.3566  140.0480  157.3046 H   0  0  0  0  0  0  0  0  0  0  0  0  # atno 8008 bound_to 7997
  154.5199  140.2221  155.8959 H   0  0  0  0  0  0  0  0  0  0  0  0  # atno 8009 bound_to 7997
  156.1678  140.3102  155.8926 H   0  0  0  0  0  0  0  0  0  0  0  0  # atno 8010 bound_to 7997
  140.5277  143.2324  151.7319 H   0  0  0  0  0  0  0  0  0  0  0  0  # atno 10167 bound_to 10162
  157.3889  131.1002  151.0666 H   0  0  0  0  0  0  0  0  0  0  0  0  # atno 10718 bound_to 10713
  154.7480  135.4980  153.9239 H   0  0  0  0  0  0  0  0  0  0  0  0  # atno 10763 bound_to 10752
  153.1113  135.6710  153.9504 H   0  0  0  0  0  0  0  0  0  0  0  0  # atno 10764 bound_to 10752
  153.9262  135.3083  155.3426 H   0  0  0  0  0  0  0  0  0  0  0  0  # atno 10765 bound_to 10752
  139.8790  134.9293  156.5330 H   0  0  0  0  0  0  0  0  0  0  0  0  # atno 11005 bound_to 11000
  145.6860  141.0178  143.1581 LP  0  0  0  0  0  0  0  0  0  0  0  0  # atno 17320 bound_to 7965
  144.7081  139.8477  143.7423 LP  0  0  0  0  0  0  0  0  0  0  0  0  # atno 17321 bound_to 7965
  139.4943  144.4162  152.0028 LP  0  0  0  0  0  0  0  0  0  0  0  0  # atno 17342 bound_to 10162
  140.3262  144.3370  150.5998 LP  0  0  0  0  0  0  0  0  0  0  0  0  # atno 17343 bound_to 10162
  157.1707  130.6266  149.5640 LP  0  0  0  0  0  0  0  0  0  0  0  0  # atno 17370 bound_to 10713
  155.9793  130.4786  150.6709 LP  0  0  0  0  0  0  0  0  0  0  0  0  # atno 17371 bound_to 10713
  140.8366  133.8237  155.9035 LP  0  0  0  0  0  0  0  0  0  0  0  0  # atno 17394 bound_to 11000
  140.9277  134.2061  157.4884 LP  0  0  0  0  0  0  0  0  0  0  0  0  # atno 17395 bound_to 11000

$$$$
