AV-unprocessed.smi:1697|AV-procd|sdf|6805|dock2
  -GOLD-   22720 7573D 1   1.00000     0.00000
 Structure written by MMmdl.
 54 56  0  0  0  0  0  0  0  0  2 V2000
  141.6990  143.1897  155.6843 C   0  0  0  0  0  0  0  0  0  0  0  0
  142.9718  142.4003  155.3489 C   0  0  0  0  0  0  0  0  0  0  0  0
  143.9501  142.5092  156.3752 O   0  0  0  0  0  0  0  0  0  0  0  0
  144.9019  143.5544  156.2021 C   0  0  2  0  0  0  0  0  0  0  0  0
  145.6048  143.3606  154.8500 C   0  0  0  0  0  0  0  0  0  0  0  0
  146.4752  142.0918  154.8360 C   0  0  0  0  0  0  0  0  0  0  0  0
  147.4621  142.1024  155.9466 N   0  3  2  0  0  0  0  0  0  0  0  0
  148.4077  140.9596  155.8687 C   0  0  0  0  0  0  0  0  0  0  0  0
  149.5995  141.2315  154.9234 C   0  0  2  0  0  0  0  0  0  0  0  0
  149.1109  141.3229  153.5991 O   0  0  0  0  0  0  0  0  0  0  0  0
  150.6944  140.1434  154.9869 C   0  0  0  0  0  0  0  0  0  0  0  0
  151.3484  140.0482  156.2821 N   0  0  0  0  0  0  0  0  0  0  0  0
  151.8344  138.9360  156.8668 C   0  0  0  0  0  0  0  0  0  0  0  0
  152.3863  139.0706  158.0688 N   0  0  0  0  0  0  0  0  0  0  0  0
  152.2506  140.4305  158.2875 C   0  0  0  0  0  0  0  0  0  0  0  0
  152.6314  141.2237  159.3916 C   0  0  0  0  0  0  0  0  0  0  0  0
  152.3858  142.6151  159.4035 C   0  0  0  0  0  0  0  0  0  0  0  0
  152.8054  143.4282  160.6154 C   0  0  0  0  0  0  0  0  0  0  0  0
  151.7562  143.2349  158.2943 C   0  0  0  0  0  0  0  0  0  0  0  0
  151.4856  144.7291  158.2826 C   0  0  0  0  0  0  0  0  0  0  0  0
  151.3700  142.4573  157.1827 C   0  0  0  0  0  0  0  0  0  0  0  0
  151.6126  141.0722  157.1860 C   0  0  0  0  0  0  0  0  0  0  0  0
  146.7906  142.2232  157.2679 C   0  0  0  0  0  0  0  0  0  0  0  0
  145.9335  143.4987  157.3404 C   0  0  0  0  0  0  0  0  0  0  0  0
  140.9381  143.0371  154.9187 H   0  0  0  0  0  0  0  0  0  0  0  0
  141.8916  144.2607  155.7447 H   0  0  0  0  0  0  0  0  0  0  0  0
  141.2796  142.8688  156.6381 H   0  0  0  0  0  0  0  0  0  0  0  0
  142.7169  141.3452  155.2476 H   0  0  0  0  0  0  0  0  0  0  0  0
  143.3856  142.7105  154.3884 H   0  0  0  0  0  0  0  0  0  0  0  0
  144.4176  144.5326  156.2037 H   0  0  0  0  0  0  0  0  0  0  0  0
  144.8667  143.3171  154.0484 H   0  0  0  0  0  0  0  0  0  0  0  0
  146.2320  144.2285  154.6416 H   0  0  0  0  0  0  0  0  0  0  0  0
  145.8493  141.2011  154.9128 H   0  0  0  0  0  0  0  0  0  0  0  0
  146.9957  142.0306  153.8795 H   0  0  0  0  0  0  0  0  0  0  0  0
  148.7617  140.7190  156.8722 H   0  0  0  0  0  0  0  0  0  0  0  0
  147.8752  140.0759  155.5140 H   0  0  0  0  0  0  0  0  0  0  0  0
  150.0690  142.1836  155.1671 H   0  0  0  0  0  0  0  0  0  0  0  0
  149.4128  140.5699  153.1134 H   0  0  0  0  0  0  0  0  0  0  0  0
  150.2732  139.1677  154.7404 H   0  0  0  0  0  0  0  0  0  0  0  0
  151.4569  140.3429  154.2330 H   0  0  0  0  0  0  0  0  0  0  0  0
  151.7718  137.9707  156.3857 H   0  0  0  0  0  0  0  0  0  0  0  0
  153.1143  140.7516  160.2348 H   0  0  0  0  0  0  0  0  0  0  0  0
  153.5669  144.1578  160.3392 H   0  0  0  0  0  0  0  0  0  0  0  0
  153.2190  142.7920  161.3982 H   0  0  0  0  0  0  0  0  0  0  0  0
  151.9510  143.9599  161.0350 H   0  0  0  0  0  0  0  0  0  0  0  0
  151.0742  145.0514  157.3258 H   0  0  0  0  0  0  0  0  0  0  0  0
  152.4059  145.2877  158.4541 H   0  0  0  0  0  0  0  0  0  0  0  0
  150.7704  144.9921  159.0621 H   0  0  0  0  0  0  0  0  0  0  0  0
  150.8887  142.9182  156.3331 H   0  0  0  0  0  0  0  0  0  0  0  0
  146.1701  141.3432  157.4437 H   0  0  0  0  0  0  0  0  0  0  0  0
  147.5267  142.2503  158.0702 H   0  0  0  0  0  0  0  0  0  0  0  0
  146.5840  144.3723  157.2807 H   0  0  0  0  0  0  0  0  0  0  0  0
  145.4329  143.5562  158.3071 H   0  0  0  0  0  0  0  0  0  0  0  0
  148.0199  142.9350  155.8183 H   0  0  0  0  0  0  0  0  0  0  0  0
  1  2  1  0  0  0  0
  1 25  1  0  0  0  0
  1 26  1  0  0  0  0
  1 27  1  0  0  0  0
  2  3  1  0  0  0  0
  2 28  1  0  0  0  0
  2 29  1  0  0  0  0
  3  4  1  0  0  0  0
  4 24  1  0  0  0  0
  4  5  1  0  0  0  0
  4 30  1  0  0  0  0
  5  6  1  0  0  0  0
  5 31  1  0  0  0  0
  5 32  1  0  0  0  0
  6  7  1  0  0  0  0
  6 33  1  0  0  0  0
  6 34  1  0  0  0  0
  7  8  1  0  0  0  0
  7 23  1  0  0  0  0
  7 54  1  0  0  0  0
  8  9  1  0  0  0  0
  8 35  1  0  0  0  0
  8 36  1  0  0  0  0
  9 10  1  0  0  0  0
  9 11  1  0  0  0  0
  9 37  1  0  0  0  0
 10 38  1  0  0  0  0
 11 12  1  0  0  0  0
 11 39  1  0  0  0  0
 11 40  1  0  0  0  0
 12 22  1  0  0  0  0
 12 13  1  0  0  0  0
 13 14  2  0  0  0  0
 13 41  1  0  0  0  0
 14 15  1  0  0  0  0
 15 22  2  0  0  0  0
 15 16  1  0  0  0  0
 16 17  2  0  0  0  0
 16 42  1  0  0  0  0
 17 18  1  0  0  0  0
 17 19  1  0  0  0  0
 18 43  1  0  0  0  0
 18 44  1  0  0  0  0
 18 45  1  0  0  0  0
 19 20  1  0  0  0  0
 19 21  2  0  0  0  0
 20 46  1  0  0  0  0
 20 47  1  0  0  0  0
 20 48  1  0  0  0  0
 21 22  1  0  0  0  0
 21 49  1  0  0  0  0
 23 24  1  0  0  0  0
 23 50  1  0  0  0  0
 23 51  1  0  0  0  0
 24 52  1  0  0  0  0
 24 53  1  0  0  0  0
M  CHG  1   7   1
M  END
> <s_m_source_file>
AV-unprocessed.smi

> <i_m_source_file_index>
1697

> <i_lp_mmshare_version>
43012

> <i_f3d_flags>
0

> <s_epik_input>
W0NIM11bQ0gyXU9bQ0hdMVtDSDJdW0NIMl1OKFtDSDJdW0NIMl0xKVtDSDJdW0NASF0oW09IXSlbQ0gyXW4oW2NIXW4yKWMoYzIzKVtjSF1jKFtDSDNdKWMoW2NIXTMpW0NIM10=

> <s_epik_cmdline>
J2VwaWtfcHl0aG9uJywgJy1waCcsICc3LjAnLCAnLXRuJywgJzgnLCAnLW1hJywgJzIwMCcsICctbWV0YWxfYmluZGluZycsICctaW1hZScsICc8aW5maWxlLm1hZT4nLCAnLW9tYWUnLCAnPG91dGZpbGUubWFlPic=

> <r_epik_Ionization_Penalty>
0.112476

> <r_epik_Ionization_Penalty_Charging>
0.0244612

> <r_epik_Ionization_Penalty_Neutral>
0.0880147

> <r_epik_State_Penalty>
0.0961447

> <r_epik_Charging_Adjusted_Penalty>
0.120606

> <i_epik_Tot_Q>
1

> <i_epik_Tot_abs_Q>
1

> <r_epik_Metal_State_Penalty>
0.0206204

> <b_epik_Metal_Only>
0

> <s_lp_Force_Field>
OPLS_2005

> <r_lp_Energy>
22.8908

> <b_lp_Chiralities_Consistent>
1

> <s_lp_Variant>
AV-unprocessed.smi:1697-3

> <Gold.Version>
5.8.1

> <Gold.Id.Protein>
6NUR|6NUR_protein|mol2

> <Gold.PLP.Fitness>
51.3449

> <Gold.PLP.PLP>
-43.5375

> <Gold.PLP.part.hbond>
-4.0000

> <Gold.PLP.part.metal>
0.0000

> <Gold.PLP.part.buried>
-2.6738

> <Gold.PLP.part.nonpolar>
-35.9518

> <Gold.PLP.part.repulsive>
0.0891

> <Gold.PLP.ligand.clash>
0.0000

> <Gold.PLP.ligand.torsion>
0.9558

> <Gold.PLP.Chemscore.Hbond>
3.1840

> <Gold.PLP.Chemscore.CHOScore>
0.0000

> <Gold.PLP.Chemscore.Metal>
0.0000

> <Gold.Chemscore.Hbonds>
donor molecule, donor type, donor heavy atom, donor atom, acceptor molecule, acceptor atom, score
      L1  H     7    54       P1  8028  2.00
      L1  H    10    38       P1  7957  0.74
      P1  H  8011  8017       L1    10  0.45

> <Gold.PLP.Chemscore.Internal.Correction>
0.1670

> <Gold.Rescore>
     Score         DG    S(hbond)    S(metal)    S(lipo)     H(rot)  DE(clash)    DE(int)     intcor
     16.13     -18.87       1.57        0.00     119.26       2.27       1.67       1.07       ----

> <Gold.Chemscore.Fitness>
16.1322

> <Gold.Chemscore.DG>
-18.8720

> <Gold.Chemscore.ZeroCoef>
-5.4800

> <Gold.Chemscore.Hbond>
1.5726

> <Gold.Chemscore.Metal>
0.0000

> <Gold.Chemscore.Lipo>
119.2582

> <Gold.Chemscore.Internal_Hbond>
0.0000

> <Gold.Chemscore.DEClash>
1.6668

> <Gold.Chemscore.DEInternal>
1.0730

> <Gold.Chemscore.Rot>
2.2710

> <Gold.Chemscore.Internal.Correction>
   9.000000E+99

> <Gold.Chemscore.Hbonds>
donor molecule, donor type, donor heavy atom, donor atom, acceptor molecule, acceptor atom, score
      L1  H     7    54       P1  8028  0.73
      L1  H    10    38       P1  7957  0.69
      P1  H  8011  8017       L1    10  0.02

> <Gold.Chemscore.Hbond.Weighted>
-5.2525

> <Gold.Chemscore.Metal.Weighted>
-0.0000

> <Gold.Chemscore.Lipo.Weighted>
-13.9532

> <Gold.Chemscore.Internal_Hbond.Weighted>
0.0000

> <Gold.Chemscore.DEClash.Weighted>
1.6668

> <Gold.Chemscore.DEInternal.Weighted>
1.0730

> <Gold.Chemscore.Rot.Weighted>
5.8137

> <Gold.Chemscore.Internal.Correction.Weighted>
   9.000000E+99

> <Gold.Protein.RotatedTorsions>
[ 6907 6896 6895 6894 ] final   11.33 input  -60.11 | X-H torsion
[ 7974 7965 7964 7962 ] final  130.41 input  175.53 | X-H torsion
[ 8008 7997 7996 7995 ] final  155.17 input   59.86 | X-H torsion
[ 10167 10162 10161 10158 ] final  -84.68 input  -65.29 | X-H torsion
[ 10718 10713 10712 10709 ] final  110.17 input   66.30 | X-H torsion
[ 10763 10752 10751 10750 ] final -177.62 input  -60.55 | X-H torsion
[ 11005 11000 10999 10996 ] final   85.91 input  -57.11 | X-H torsion

> <Gold.Protein.ActiveResidues>
 VAL166  LYS551  ARG553  GLY616  TRP617  ASP618  TYR619  PRO620  LYS621  CYS622 
 ASP623  PHE694  ASN695  SER759  ASP760  ASP761  ALA762  ILE779  LEU786  VAL792 
 PHE793  MET794  SER795  GLU796  ALA797  LYS798  CYS799  TRP800  GLU811  SER814 

> <Gold.Protein.RotatedAtoms>
  151.7527  135.0829  160.0333 H   0  0  0  0  0  0  0  0  0  0  0  0  # atno 6907 bound_to 6896
  152.3406  133.6058  159.5882 H   0  0  0  0  0  0  0  0  0  0  0  0  # atno 6908 bound_to 6896
  150.7477  133.9644  159.3567 H   0  0  0  0  0  0  0  0  0  0  0  0  # atno 6909 bound_to 6896
  145.0182  139.4156  143.5211 H   0  0  0  0  0  0  0  0  0  0  0  0  # atno 7974 bound_to 7965
  156.2492  140.1947  156.6760 H   0  0  0  0  0  0  0  0  0  0  0  0  # atno 8008 bound_to 7997
  154.6357  140.0590  156.9812 H   0  0  0  0  0  0  0  0  0  0  0  0  # atno 8009 bound_to 7997
  155.1640  140.3262  155.4408 H   0  0  0  0  0  0  0  0  0  0  0  0  # atno 8010 bound_to 7997
  140.4110  143.2623  151.9018 H   0  0  0  0  0  0  0  0  0  0  0  0  # atno 10167 bound_to 10162
  157.6507  131.0927  150.6562 H   0  0  0  0  0  0  0  0  0  0  0  0  # atno 10718 bound_to 10713
  154.5579  135.2818  155.0947 H   0  0  0  0  0  0  0  0  0  0  0  0  # atno 10763 bound_to 10752
  154.2368  135.6364  153.5197 H   0  0  0  0  0  0  0  0  0  0  0  0  # atno 10764 bound_to 10752
  153.0021  135.5550  154.6164 H   0  0  0  0  0  0  0  0  0  0  0  0  # atno 10765 bound_to 10752
  139.8958  134.8319  156.2648 H   0  0  0  0  0  0  0  0  0  0  0  0  # atno 11005 bound_to 11000
  146.3481  139.9664  142.8711 LP  0  0  0  0  0  0  0  0  0  0  0  0  # atno 17320 bound_to 7965
  145.1931  140.9821  143.4199 LP  0  0  0  0  0  0  0  0  0  0  0  0  # atno 17321 bound_to 7965
  139.4782  144.5537  151.8346 LP  0  0  0  0  0  0  0  0  0  0  0  0  # atno 17342 bound_to 10162
  140.4638  144.1684  150.5909 LP  0  0  0  0  0  0  0  0  0  0  0  0  # atno 17343 bound_to 10162
  156.6873  130.4585  149.5610 LP  0  0  0  0  0  0  0  0  0  0  0  0  # atno 17370 bound_to 10713
  156.1886  130.6545  151.1035 LP  0  0  0  0  0  0  0  0  0  0  0  0  # atno 17371 bound_to 10713
  141.0139  133.7079  156.1157 LP  0  0  0  0  0  0  0  0  0  0  0  0  # atno 17394 bound_to 11000
  140.7329  134.4235  157.5564 LP  0  0  0  0  0  0  0  0  0  0  0  0  # atno 17395 bound_to 11000

$$$$
