AV-unprocessed.smi:1958|AV-procd|sdf|7907|dock7
  -GOLD-   2272010 63D 1   1.00000     0.00000
 Structure written by MMmdl.
 47 48  0  0  0  0  0  0  0  0  1 V2000
  154.2679  140.2133  159.8249 C   0  0  0  0  0  0  0  0  0  0  0  0
  154.3968  139.1817  158.8629 O   0  0  0  0  0  0  0  0  0  0  0  0
  153.1420  138.7110  158.3982 C   0  0  0  0  0  0  0  0  0  0  0  0
  153.3635  137.5469  157.4186 C   0  0  0  0  0  0  0  0  0  0  0  0
  152.4068  137.5802  156.3065 N   0  0  0  0  0  0  0  0  0  0  0  0
  151.4260  136.6052  156.3781 N   0  0  0  0  0  0  0  0  0  0  0  0
  150.5308  136.5128  155.4483 C   0  0  0  0  0  0  0  0  0  0  0  0
  149.4648  135.4737  155.4851 C   0  0  0  0  0  0  0  0  0  0  0  0
  149.2699  134.7784  156.4835 O   0  0  0  0  0  0  0  0  0  0  0  0
  148.7446  135.3513  154.3548 N   0  0  0  0  0  0  0  0  0  0  0  0
  147.6495  134.4101  154.1327 C   0  0  0  0  0  0  0  0  0  0  0  0
  147.8013  133.6055  152.8105 C   0  0  1  0  0  0  0  0  0  0  0  0
  148.7406  132.3977  153.0587 C   0  0  0  0  0  0  0  0  0  0  0  0
  146.5034  133.2066  152.2158 N   0  0  0  0  0  0  0  0  0  0  0  0
  146.6641  132.4298  150.9805 C   0  0  0  0  0  0  0  0  0  0  0  0
  145.3215  132.0354  150.3409 C   0  0  0  0  0  0  0  0  0  0  0  0
  144.5511  133.2018  150.0872 O   0  0  0  0  0  0  0  0  0  0  0  0
  144.3020  133.9431  151.2733 C   0  0  0  0  0  0  0  0  0  0  0  0
  145.6372  134.3537  151.9179 C   0  0  0  0  0  0  0  0  0  0  0  0
  150.5321  137.4301  154.3211 C   0  0  0  0  0  0  0  0  0  0  0  0
  151.4945  138.3767  154.2652 C   0  0  0  0  0  0  0  0  0  0  0  0
  152.5235  138.4972  155.2993 C   0  0  0  0  0  0  0  0  0  0  0  0
  153.4163  139.3436  155.2648 O   0  0  0  0  0  0  0  0  0  0  0  0
  155.2570  140.5366  160.1491 H   0  0  0  0  0  0  0  0  0  0  0  0
  153.7215  139.8682  160.7035 H   0  0  0  0  0  0  0  0  0  0  0  0
  153.7508  141.0785  159.4078 H   0  0  0  0  0  0  0  0  0  0  0  0
  152.5478  138.3658  159.2454 H   0  0  0  0  0  0  0  0  0  0  0  0
  152.5838  139.5171  157.9194 H   0  0  0  0  0  0  0  0  0  0  0  0
  154.3871  137.5769  157.0406 H   0  0  0  0  0  0  0  0  0  0  0  0
  153.2817  136.5978  157.9511 H   0  0  0  0  0  0  0  0  0  0  0  0
  148.9764  135.9639  153.5858 H   0  0  0  0  0  0  0  0  0  0  0  0
  147.5286  133.7270  154.9751 H   0  0  0  0  0  0  0  0  0  0  0  0
  146.7583  135.0346  154.1154 H   0  0  0  0  0  0  0  0  0  0  0  0
  148.3080  134.2594  152.0988 H   0  0  0  0  0  0  0  0  0  0  0  0
  149.6823  132.6915  153.5198 H   0  0  0  0  0  0  0  0  0  0  0  0
  149.0267  131.8961  152.1355 H   0  0  0  0  0  0  0  0  0  0  0  0
  148.2711  131.6622  153.7127 H   0  0  0  0  0  0  0  0  0  0  0  0
  147.2546  132.9983  150.2601 H   0  0  0  0  0  0  0  0  0  0  0  0
  147.2051  131.5055  151.1746 H   0  0  0  0  0  0  0  0  0  0  0  0
  145.4902  131.5098  149.4009 H   0  0  0  0  0  0  0  0  0  0  0  0
  144.7675  131.3570  150.9915 H   0  0  0  0  0  0  0  0  0  0  0  0
  143.7149  134.8269  151.0236 H   0  0  0  0  0  0  0  0  0  0  0  0
  143.7054  133.3477  151.9664 H   0  0  0  0  0  0  0  0  0  0  0  0
  145.3912  134.8984  152.8272 H   0  0  0  0  0  0  0  0  0  0  0  0
  146.1584  135.0504  151.2595 H   0  0  0  0  0  0  0  0  0  0  0  0
  149.7858  137.3636  153.5429 H   0  0  0  0  0  0  0  0  0  0  0  0
  151.5072  139.0652  153.4330 H   0  0  0  0  0  0  0  0  0  0  0  0
  1  2  1  0  0  0  0
  1 24  1  0  0  0  0
  1 25  1  0  0  0  0
  1 26  1  0  0  0  0
  2  3  1  0  0  0  0
  3  4  1  0  0  0  0
  3 27  1  0  0  0  0
  3 28  1  0  0  0  0
  4  5  1  0  0  0  0
  4 29  1  0  0  0  0
  4 30  1  0  0  0  0
  5 22  1  0  0  0  0
  5  6  1  0  0  0  0
  6  7  2  0  0  0  0
  7  8  1  0  0  0  0
  7 20  1  0  0  0  0
  8  9  2  0  0  0  0
  8 10  1  0  0  0  0
 10 11  1  0  0  0  0
 10 31  1  0  0  0  0
 11 12  1  0  0  0  0
 11 32  1  0  0  0  0
 11 33  1  0  0  0  0
 12 13  1  0  0  0  0
 12 14  1  0  0  0  0
 12 34  1  0  0  0  0
 13 35  1  0  0  0  0
 13 36  1  0  0  0  0
 13 37  1  0  0  0  0
 14 19  1  0  0  0  0
 14 15  1  0  0  0  0
 15 16  1  0  0  0  0
 15 38  1  0  0  0  0
 15 39  1  0  0  0  0
 16 17  1  0  0  0  0
 16 40  1  0  0  0  0
 16 41  1  0  0  0  0
 17 18  1  0  0  0  0
 18 19  1  0  0  0  0
 18 42  1  0  0  0  0
 18 43  1  0  0  0  0
 19 44  1  0  0  0  0
 19 45  1  0  0  0  0
 20 21  2  0  0  0  0
 20 46  1  0  0  0  0
 21 22  1  0  0  0  0
 21 47  1  0  0  0  0
 22 23  2  0  0  0  0
M  END
> <s_m_source_file>
AV-unprocessed.smi

> <i_m_source_file_index>
1958

> <i_lp_mmshare_version>
43012

> <i_f3d_flags>
0

> <s_epik_input>
W0NIM11PW0NIMl1bQ0gyXW4xbmMoW2NIXVtjSF1jMT1PKUMoPU8pW05IXVtDSDJdW0NASF0oW0NIM10pTjJbQ0gyXVtDSDJdT1tDSDJdW0NIMl0y

> <s_epik_cmdline>
J2VwaWtfcHl0aG9uJywgJy1waCcsICc3LjAnLCAnLXRuJywgJzgnLCAnLW1hJywgJzIwMCcsICctbWV0YWxfYmluZGluZycsICctaW1hZScsICc8aW5maWxlLm1hZT4nLCAnLW9tYWUnLCAnPG91dGZpbGUubWFlPic=

> <r_lp_tautomer_probability>
1

> <r_epik_Ionization_Penalty>
0.206669

> <r_epik_Ionization_Penalty_Charging>
5.75808e-09

> <r_epik_Ionization_Penalty_Neutral>
0.206669

> <r_epik_State_Penalty>
0.196651

> <r_epik_Charging_Adjusted_Penalty>
0.196651

> <i_epik_Tot_Q>
0

> <i_epik_Tot_abs_Q>
0

> <r_epik_Metal_State_Penalty>
0.198415

> <b_epik_Metal_Only>
0

> <s_lp_Force_Field>
OPLS_2005

> <r_lp_Energy>
50.1951

> <b_lp_Chiralities_Consistent>
1

> <s_lp_Variant>
AV-unprocessed.smi:1958-2

> <Gold.Version>
5.8.1

> <Gold.Id.Protein>
6NUR|6NUR_protein|mol2

> <Gold.PLP.Fitness>
39.7883

> <Gold.PLP.PLP>
-32.6052

> <Gold.PLP.part.hbond>
-2.8318

> <Gold.PLP.part.metal>
0.0000

> <Gold.PLP.part.buried>
-3.5067

> <Gold.PLP.part.nonpolar>
-26.5426

> <Gold.PLP.part.repulsive>
0.2729

> <Gold.PLP.ligand.clash>
0.2955

> <Gold.PLP.ligand.torsion>
0.8343

> <Gold.PLP.Chemscore.Hbond>
3.0000

> <Gold.PLP.Chemscore.CHOScore>
0.0000

> <Gold.PLP.Chemscore.Metal>
0.0000

> <Gold.Chemscore.Hbonds>
donor molecule, donor type, donor heavy atom, donor atom, acceptor molecule, acceptor atom, score
      L1  H    10    31       P1  7948  0.94
      P1  H  7997  8008       L1    23  0.98
      P1  H  7997  8010       L1     2  1.00

> <Gold.PLP.Chemscore.Internal.Correction>
0.1473

> <Gold.Rescore>
     Score         DG    S(hbond)    S(metal)    S(lipo)     H(rot)  DE(clash)    DE(int)     intcor
     17.50     -18.75       2.78        0.00      78.74       2.04       0.16       1.08       ----

> <Gold.Chemscore.Fitness>
17.5003

> <Gold.Chemscore.DG>
-18.7459

> <Gold.Chemscore.ZeroCoef>
-5.4800

> <Gold.Chemscore.Hbond>
2.7782

> <Gold.Chemscore.Metal>
0.0000

> <Gold.Chemscore.Lipo>
78.7393

> <Gold.Chemscore.Internal_Hbond>
0.0000

> <Gold.Chemscore.DEClash>
0.1635

> <Gold.Chemscore.DEInternal>
1.0822

> <Gold.Chemscore.Rot>
2.0413

> <Gold.Chemscore.Internal.Correction>
   9.000000E+99

> <Gold.Chemscore.Hbonds>
donor molecule, donor type, donor heavy atom, donor atom, acceptor molecule, acceptor atom, score
      L1  H    10    31       P1  7948  0.87
      P1  H  7997  8008       L1    23  0.89
      P1  H  7997  8010       L1     2  0.20

> <Gold.Chemscore.Hbond.Weighted>
-9.2790

> <Gold.Chemscore.Metal.Weighted>
-0.0000

> <Gold.Chemscore.Lipo.Weighted>
-9.2125

> <Gold.Chemscore.Internal_Hbond.Weighted>
0.0000

> <Gold.Chemscore.DEClash.Weighted>
0.1635

> <Gold.Chemscore.DEInternal.Weighted>
1.0822

> <Gold.Chemscore.Rot.Weighted>
5.2257

> <Gold.Chemscore.Internal.Correction.Weighted>
   9.000000E+99

> <Gold.Protein.RotatedTorsions>
[ 6907 6896 6895 6894 ] final  152.11 input  -60.11 | X-H torsion
[ 7974 7965 7964 7962 ] final    5.86 input  175.53 | X-H torsion
[ 8008 7997 7996 7995 ] final   -2.46 input   59.86 | X-H torsion
[ 10167 10162 10161 10158 ] final   -6.09 input  -65.29 | X-H torsion
[ 10718 10713 10712 10709 ] final   93.09 input   66.30 | X-H torsion
[ 10763 10752 10751 10750 ] final  128.13 input  -60.55 | X-H torsion
[ 11005 11000 10999 10996 ] final   97.51 input  -57.11 | X-H torsion

> <Gold.Protein.ActiveResidues>
 VAL166  LYS551  ARG553  GLY616  TRP617  ASP618  TYR619  PRO620  LYS621  CYS622 
 ASP623  PHE694  ASN695  SER759  ASP760  ASP761  ALA762  ILE779  LEU786  VAL792 
 PHE793  MET794  SER795  GLU796  ALA797  LYS798  CYS799  TRP800  GLU811  SER814 

> <Gold.Protein.RotatedAtoms>
  152.0913  133.4202  159.4544 H   0  0  0  0  0  0  0  0  0  0  0  0  # atno 6907 bound_to 6896
  150.6862  134.2868  159.4659 H   0  0  0  0  0  0  0  0  0  0  0  0  # atno 6908 bound_to 6896
  152.0720  134.9527  160.0625 H   0  0  0  0  0  0  0  0  0  0  0  0  # atno 6909 bound_to 6896
  146.2438  140.0320  142.8389 H   0  0  0  0  0  0  0  0  0  0  0  0  # atno 7974 bound_to 7965
  154.6355  140.2534  155.7384 H   0  0  0  0  0  0  0  0  0  0  0  0  # atno 8008 bound_to 7997
  156.2502  140.2898  156.0645 H   0  0  0  0  0  0  0  0  0  0  0  0  # atno 8009 bound_to 7997
  155.1678  140.0386  157.2847 H   0  0  0  0  0  0  0  0  0  0  0  0  # atno 8010 bound_to 7997
  140.6985  143.6233  150.8591 H   0  0  0  0  0  0  0  0  0  0  0  0  # atno 10167 bound_to 10162
  157.6956  131.0466  150.3980 H   0  0  0  0  0  0  0  0  0  0  0  0  # atno 10718 bound_to 10713
  153.7206  135.3254  155.3266 H   0  0  0  0  0  0  0  0  0  0  0  0  # atno 10763 bound_to 10752
  154.8357  135.4498  154.1221 H   0  0  0  0  0  0  0  0  0  0  0  0  # atno 10764 bound_to 10752
  153.2341  135.6963  153.7937 H   0  0  0  0  0  0  0  0  0  0  0  0  # atno 10765 bound_to 10752
  139.8775  134.9004  156.4319 H   0  0  0  0  0  0  0  0  0  0  0  0  # atno 11005 bound_to 11000
  145.1147  140.9426  143.4636 LP  0  0  0  0  0  0  0  0  0  0  0  0  # atno 17320 bound_to 7965
  145.0541  139.3158  143.5913 LP  0  0  0  0  0  0  0  0  0  0  0  0  # atno 17321 bound_to 7965
  139.9954  143.5802  152.2895 LP  0  0  0  0  0  0  0  0  0  0  0  0  # atno 17342 bound_to 10162
  139.6472  144.7659  151.2220 LP  0  0  0  0  0  0  0  0  0  0  0  0  # atno 17343 bound_to 10162
  156.4377  130.3985  149.6718 LP  0  0  0  0  0  0  0  0  0  0  0  0  # atno 17370 bound_to 10713
  156.3913  130.7628  151.2629 LP  0  0  0  0  0  0  0  0  0  0  0  0  # atno 17371 bound_to 10713
  140.9061  133.7745  155.9736 LP  0  0  0  0  0  0  0  0  0  0  0  0  # atno 17394 bound_to 11000
  140.8598  134.2854  157.5239 LP  0  0  0  0  0  0  0  0  0  0  0  0  # atno 17395 bound_to 11000

$$$$
