AV-unprocessed.smi:1229|AV-procd|sdf|5150|dock2
  -GOLD-   22720 4223D 1   1.00000     0.00000
 Structure written by MMmdl.
 46 47  0  0  0  0  0  0  0  0  2 V2000
  145.1469  133.1357  150.0590 C   0  0  0  0  0  0  0  0  0  0  0  0
  145.9025  132.3018  151.0809 C   0  0  0  0  0  0  0  0  0  0  0  0
  145.7419  130.8998  151.0818 C   0  0  0  0  0  0  0  0  0  0  0  0
  146.4411  130.1300  152.0270 C   0  0  0  0  0  0  0  0  0  0  0  0
  147.2758  130.7995  152.9382 C   0  0  0  0  0  0  0  0  0  0  0  0
  147.4348  132.1388  152.9449 N   0  0  0  0  0  0  0  0  0  0  0  0
  146.7678  132.8966  152.0381 C   0  0  0  0  0  0  0  0  0  0  0  0
  146.8862  134.3145  151.9867 N   0  0  0  0  0  0  0  0  0  0  0  0
  145.9773  135.2430  152.3333 C   0  0  0  0  0  0  0  0  0  0  0  0
  144.8516  135.0124  152.7761 O   0  0  0  0  0  0  0  0  0  0  0  0
  146.4467  136.4830  152.1296 N   0  0  0  0  0  0  0  0  0  0  0  0
  145.7087  137.7121  152.4061 C   0  0  0  0  0  0  0  0  0  0  0  0
  146.5518  138.9707  152.1135 C   0  0  2  0  0  0  0  0  0  0  0  0
  147.7420  138.5622  151.4681 O   0  0  0  0  0  0  0  0  0  0  0  0
  146.9515  139.7012  153.4115 C   0  0  0  0  0  0  0  0  0  0  0  0
  145.9589  140.7323  153.8098 N   0  3  0  0  0  0  0  0  0  0  0  0
  146.4363  142.1131  153.5384 C   0  0  0  0  0  0  0  0  0  0  0  0
  145.3326  143.1475  153.8190 C   0  0  0  0  0  0  0  0  0  0  0  0
  144.8103  143.0217  155.2560 C   0  0  0  0  0  0  0  0  0  0  0  0
  144.3587  141.5805  155.5255 C   0  0  0  0  0  0  0  0  0  0  0  0
  145.4873  140.5837  155.2132 C   0  0  0  0  0  0  0  0  0  0  0  0
  144.5502  132.5077  149.3970 H   0  0  0  0  0  0  0  0  0  0  0  0
  145.8416  133.7068  149.4421 H   0  0  0  0  0  0  0  0  0  0  0  0
  144.4725  133.8317  150.5585 H   0  0  0  0  0  0  0  0  0  0  0  0
  145.0915  130.4164  150.3676 H   0  0  0  0  0  0  0  0  0  0  0  0
  146.3398  129.0550  152.0531 H   0  0  0  0  0  0  0  0  0  0  0  0
  147.8309  130.2461  153.6811 H   0  0  0  0  0  0  0  0  0  0  0  0
  147.7689  134.6600  151.6408 H   0  0  0  0  0  0  0  0  0  0  0  0
  147.3826  136.5855  151.7649 H   0  0  0  0  0  0  0  0  0  0  0  0
  144.8079  137.7129  151.7897 H   0  0  0  0  0  0  0  0  0  0  0  0
  145.3631  137.7038  153.4408 H   0  0  0  0  0  0  0  0  0  0  0  0
  146.0024  139.6433  151.4560 H   0  0  0  0  0  0  0  0  0  0  0  0
  148.3979  139.2313  151.5971 H   0  0  0  0  0  0  0  0  0  0  0  0
  147.0735  138.9919  154.2316 H   0  0  0  0  0  0  0  0  0  0  0  0
  147.9302  140.1607  153.2625 H   0  0  0  0  0  0  0  0  0  0  0  0
  147.3161  142.3229  154.1489 H   0  0  0  0  0  0  0  0  0  0  0  0
  146.7450  142.1984  152.4957 H   0  0  0  0  0  0  0  0  0  0  0  0
  145.7130  144.1549  153.6474 H   0  0  0  0  0  0  0  0  0  0  0  0
  144.5104  143.0036  153.1166 H   0  0  0  0  0  0  0  0  0  0  0  0
  145.5951  143.3006  155.9603 H   0  0  0  0  0  0  0  0  0  0  0  0
  143.9834  143.7135  155.4194 H   0  0  0  0  0  0  0  0  0  0  0  0
  144.0462  141.4765  156.5650 H   0  0  0  0  0  0  0  0  0  0  0  0
  143.4852  141.3480  154.9149 H   0  0  0  0  0  0  0  0  0  0  0  0
  145.1230  139.5726  155.3906 H   0  0  0  0  0  0  0  0  0  0  0  0
  146.3231  140.7399  155.8973 H   0  0  0  0  0  0  0  0  0  0  0  0
  145.1573  140.5916  153.2112 H   0  0  0  0  0  0  0  0  0  0  0  0
  1  2  1  0  0  0  0
  1 22  1  0  0  0  0
  1 23  1  0  0  0  0
  1 24  1  0  0  0  0
  2  7  1  0  0  0  0
  2  3  2  0  0  0  0
  3  4  1  0  0  0  0
  3 25  1  0  0  0  0
  4  5  2  0  0  0  0
  4 26  1  0  0  0  0
  5  6  1  0  0  0  0
  5 27  1  0  0  0  0
  6  7  2  0  0  0  0
  7  8  1  0  0  0  0
  8  9  1  0  0  0  0
  8 28  1  0  0  0  0
  9 10  2  0  0  0  0
  9 11  1  0  0  0  0
 11 12  1  0  0  0  0
 11 29  1  0  0  0  0
 12 13  1  0  0  0  0
 12 30  1  0  0  0  0
 12 31  1  0  0  0  0
 13 14  1  0  0  0  0
 13 15  1  0  0  0  0
 13 32  1  0  0  0  0
 14 33  1  0  0  0  0
 15 16  1  0  0  0  0
 15 34  1  0  0  0  0
 15 35  1  0  0  0  0
 16 21  1  0  0  0  0
 16 17  1  0  0  0  0
 16 46  1  0  0  0  0
 17 18  1  0  0  0  0
 17 36  1  0  0  0  0
 17 37  1  0  0  0  0
 18 19  1  0  0  0  0
 18 38  1  0  0  0  0
 18 39  1  0  0  0  0
 19 20  1  0  0  0  0
 19 40  1  0  0  0  0
 19 41  1  0  0  0  0
 20 21  1  0  0  0  0
 20 42  1  0  0  0  0
 20 43  1  0  0  0  0
 21 44  1  0  0  0  0
 21 45  1  0  0  0  0
M  CHG  1  16   1
M  END
> <s_m_source_file>
AV-unprocessed.smi

> <i_m_source_file_index>
1229

> <i_lp_mmshare_version>
43012

> <i_f3d_flags>
0

> <s_epik_input>
W0NIM11jMVtjSF1bY0hdW2NIXW5jMVtOSF1DKD1PKVtOSF1bQ0gyXVtDQEhdKFtPSF0pW0NIMl1OMltDSDJdW0NIMl1bQ0gyXVtDSDJdW0NIMl0y

> <s_epik_cmdline>
J2VwaWtfcHl0aG9uJywgJy1waCcsICc3LjAnLCAnLXRuJywgJzgnLCAnLW1hJywgJzIwMCcsICctbWV0YWxfYmluZGluZycsICctaW1hZScsICc8aW5maWxlLm1hZT4nLCAnLW9tYWUnLCAnPG91dGZpbGUubWFlPic=

> <r_epik_Ionization_Penalty>
0.00511007

> <r_epik_Ionization_Penalty_Charging>
0.00506051

> <r_epik_Ionization_Penalty_Neutral>
4.95577e-05

> <r_epik_State_Penalty>
0.00368188

> <r_epik_Charging_Adjusted_Penalty>
0.0087424

> <i_epik_Tot_Q>
1

> <i_epik_Tot_abs_Q>
1

> <r_epik_Metal_State_Penalty>
-0

> <b_epik_Metal_Only>
0

> <s_lp_Force_Field>
OPLS_2005

> <r_lp_Energy>
20.9384

> <b_lp_Chiralities_Consistent>
1

> <s_lp_Variant>
AV-unprocessed.smi:1229-1

> <Gold.Version>
5.8.1

> <Gold.Id.Protein>
6NUR|6NUR_protein|mol2

> <Gold.PLP.Fitness>
50.5140

> <Gold.PLP.PLP>
-37.8938

> <Gold.PLP.part.hbond>
-5.5397

> <Gold.PLP.part.metal>
0.0000

> <Gold.PLP.part.buried>
-3.9401

> <Gold.PLP.part.nonpolar>
-27.7582

> <Gold.PLP.part.repulsive>
0.2425

> <Gold.PLP.ligand.clash>
0.0000

> <Gold.PLP.ligand.torsion>
2.4377

> <Gold.PLP.Chemscore.Hbond>
5.7840

> <Gold.PLP.Chemscore.CHOScore>
0.0000

> <Gold.PLP.Chemscore.Metal>
0.0000

> <Gold.Chemscore.Hbonds>
donor molecule, donor type, donor heavy atom, donor atom, acceptor molecule, acceptor atom, score
      L1  H     8    28       P1  7948  0.78
      L1  H    11    29       P1  7948  1.00
      L1  H    14    33       P1  7957  0.88
      L1  H    16    46       P1 10175  2.00
      P1  H  7954  7966       L1    14  0.93

> <Gold.PLP.Chemscore.Internal.Correction>
0.1437

> <Gold.Rescore>
     Score         DG    S(hbond)    S(metal)    S(lipo)     H(rot)  DE(clash)    DE(int)     intcor
     18.25     -20.82       3.74        0.00      74.88       2.31       0.24       2.33       ----

> <Gold.Chemscore.Fitness>
18.2541

> <Gold.Chemscore.DG>
-20.8250

> <Gold.Chemscore.ZeroCoef>
-5.4800

> <Gold.Chemscore.Hbond>
3.7416

> <Gold.Chemscore.Metal>
0.0000

> <Gold.Chemscore.Lipo>
74.8759

> <Gold.Chemscore.Internal_Hbond>
0.0000

> <Gold.Chemscore.DEClash>
0.2407

> <Gold.Chemscore.DEInternal>
2.3302

> <Gold.Chemscore.Rot>
2.3095

> <Gold.Chemscore.Internal.Correction>
   9.000000E+99

> <Gold.Chemscore.Hbonds>
donor molecule, donor type, donor heavy atom, donor atom, acceptor molecule, acceptor atom, score
      L1  H     8    28       P1  7948  0.17
      L1  H    11    29       P1  7948  0.93
      L1  H    14    33       P1  7957  0.76
      L1  H    16    46       P1 10175  0.92
      P1  H  7954  7966       L1    14  0.31

> <Gold.Chemscore.Hbond.Weighted>
-12.4970

> <Gold.Chemscore.Metal.Weighted>
-0.0000

> <Gold.Chemscore.Lipo.Weighted>
-8.7605

> <Gold.Chemscore.Internal_Hbond.Weighted>
0.0000

> <Gold.Chemscore.DEClash.Weighted>
0.2407

> <Gold.Chemscore.DEInternal.Weighted>
2.3302

> <Gold.Chemscore.Rot.Weighted>
5.9124

> <Gold.Chemscore.Internal.Correction.Weighted>
   9.000000E+99

> <Gold.Protein.RotatedTorsions>
[ 6907 6896 6895 6894 ] final  -40.63 input  -60.11 | X-H torsion
[ 7974 7965 7964 7962 ] final   49.84 input  175.53 | X-H torsion
[ 8008 7997 7996 7995 ] final -127.27 input   59.86 | X-H torsion
[ 10167 10162 10161 10158 ] final  137.67 input  -65.29 | X-H torsion
[ 10718 10713 10712 10709 ] final  115.81 input   66.30 | X-H torsion
[ 10763 10752 10751 10750 ] final   -8.79 input  -60.55 | X-H torsion
[ 11005 11000 10999 10996 ] final -173.80 input  -57.11 | X-H torsion

> <Gold.Protein.ActiveResidues>
 VAL166  LYS551  ARG553  GLY616  TRP617  ASP618  TYR619  PRO620  LYS621  CYS622 
 ASP623  PHE694  ASN695  SER759  ASP760  ASP761  ALA762  ILE779  LEU786  VAL792 
 PHE793  MET794  SER795  GLU796  ALA797  LYS798  CYS799  TRP800  GLU811  SER814 

> <Gold.Protein.RotatedAtoms>
  150.9761  134.9125  159.7816 H   0  0  0  0  0  0  0  0  0  0  0  0  # atno 6907 bound_to 6896
  152.5207  134.3473  159.9248 H   0  0  0  0  0  0  0  0  0  0  0  0  # atno 6908 bound_to 6896
  151.3481  133.3895  159.2712 H   0  0  0  0  0  0  0  0  0  0  0  0  # atno 6909 bound_to 6896
  146.0069  139.4500  142.9980 H   0  0  0  0  0  0  0  0  0  0  0  0  # atno 7974 bound_to 7965
  155.2433  140.0429  157.2978 H   0  0  0  0  0  0  0  0  0  0  0  0  # atno 8008 bound_to 7997
  154.5814  140.2402  155.8018 H   0  0  0  0  0  0  0  0  0  0  0  0  # atno 8009 bound_to 7997
  156.2196  140.2974  155.9928 H   0  0  0  0  0  0  0  0  0  0  0  0  # atno 8010 bound_to 7997
  139.5136  144.6397  151.5603 H   0  0  0  0  0  0  0  0  0  0  0  0  # atno 10167 bound_to 10162
  157.6199  131.1017  150.7383 H   0  0  0  0  0  0  0  0  0  0  0  0  # atno 10718 bound_to 10713
  153.4454  135.7014  153.6142 H   0  0  0  0  0  0  0  0  0  0  0  0  # atno 10763 bound_to 10752
  153.4499  135.3760  155.2278 H   0  0  0  0  0  0  0  0  0  0  0  0  # atno 10764 bound_to 10752
  154.8728  135.3994  154.3859 H   0  0  0  0  0  0  0  0  0  0  0  0  # atno 10765 bound_to 10752
  140.4817  134.6069  157.4922 H   0  0  0  0  0  0  0  0  0  0  0  0  # atno 11005 bound_to 11000
  145.7401  141.0011  143.1305 LP  0  0  0  0  0  0  0  0  0  0  0  0  # atno 17320 bound_to 7965
  144.6939  139.9089  143.7462 LP  0  0  0  0  0  0  0  0  0  0  0  0  # atno 17321 bound_to 7965
  140.6159  143.9350  150.6488 LP  0  0  0  0  0  0  0  0  0  0  0  0  # atno 17342 bound_to 10162
  140.2608  143.3525  152.1324 LP  0  0  0  0  0  0  0  0  0  0  0  0  # atno 17343 bound_to 10162
  156.7743  130.4839  149.5412 LP  0  0  0  0  0  0  0  0  0  0  0  0  # atno 17370 bound_to 10713
  156.1339  130.6197  151.0373 LP  0  0  0  0  0  0  0  0  0  0  0  0  # atno 17371 bound_to 10713
  139.9822  134.7118  155.9838 LP  0  0  0  0  0  0  0  0  0  0  0  0  # atno 17394 bound_to 11000
  141.1528  133.6546  156.4066 LP  0  0  0  0  0  0  0  0  0  0  0  0  # atno 17395 bound_to 11000

$$$$
