AV-unprocessed.smi:2796|AV-procd|sdf|10782|dock4
  -GOLD-   2272015213D 1   1.00000     0.00000
 Structure written by MMmdl.
 27 28  0  0  0  0  0  0  0  0  1 V2000
  153.2856  143.1961  163.2341 N   0  0  0  0  0  0  0  0  0  0  0  0
  152.8572  143.1177  162.1620 C   0  0  0  0  0  0  0  0  0  0  0  0
  152.3190  143.0180  160.8160 C   0  0  0  0  0  0  0  0  0  0  0  0
  152.6964  141.9350  159.9948 C   0  0  0  0  0  0  0  0  0  0  0  0
  152.1664  141.8563  158.6925 C   0  0  0  0  0  0  0  0  0  0  0  0
  151.2758  142.8629  158.2526 C   0  0  0  0  0  0  0  0  0  0  0  0
  150.6978  142.8781  156.9753 N   0  0  0  0  0  0  0  0  0  0  0  0
  151.0196  141.8444  156.0023 C   0  0  0  0  0  0  0  0  0  0  0  0
  149.8000  141.3159  155.2735 C   0  0  0  0  0  0  0  0  0  0  0  0
  148.5572  141.8227  155.4092 C   0  0  0  0  0  0  0  0  0  0  0  0
  147.4772  141.3844  154.6856 O   0  0  0  0  0  0  0  0  0  0  0  0
  147.8124  140.5647  153.5711 C   0  0  0  0  0  0  0  0  0  0  0  0
  148.9205  139.5683  153.9483 C   0  0  0  0  0  0  0  0  0  0  0  0
  150.0680  140.2492  154.4477 O   0  0  0  0  0  0  0  0  0  0  0  0
  150.9641  143.9011  159.1555 C   0  0  0  0  0  0  0  0  0  0  0  0
  151.4682  143.9834  160.4054 N   0  0  0  0  0  0  0  0  0  0  0  0
  153.3793  141.1767  160.3507 H   0  0  0  0  0  0  0  0  0  0  0  0
  152.4507  141.0312  158.0569 H   0  0  0  0  0  0  0  0  0  0  0  0
  149.8734  143.4404  156.8176 H   0  0  0  0  0  0  0  0  0  0  0  0
  151.7061  142.2459  155.2564 H   0  0  0  0  0  0  0  0  0  0  0  0
  151.5247  141.0187  156.5051 H   0  0  0  0  0  0  0  0  0  0  0  0
  148.3052  142.6517  156.0537 H   0  0  0  0  0  0  0  0  0  0  0  0
  146.9206  140.0347  153.2356 H   0  0  0  0  0  0  0  0  0  0  0  0
  148.1377  141.1995  152.7457 H   0  0  0  0  0  0  0  0  0  0  0  0
  148.5615  138.8741  154.7092 H   0  0  0  0  0  0  0  0  0  0  0  0
  149.2084  138.9724  153.0822 H   0  0  0  0  0  0  0  0  0  0  0  0
  150.2884  144.6934  158.8678 H   0  0  0  0  0  0  0  0  0  0  0  0
  1  2  3  0  0  0  0
  2  3  1  0  0  0  0
  3 16  1  0  0  0  0
  3  4  2  0  0  0  0
  4  5  1  0  0  0  0
  4 17  1  0  0  0  0
  5  6  2  0  0  0  0
  5 18  1  0  0  0  0
  6  7  1  0  0  0  0
  6 15  1  0  0  0  0
  7  8  1  0  0  0  0
  7 19  1  0  0  0  0
  8  9  1  0  0  0  0
  8 20  1  0  0  0  0
  8 21  1  0  0  0  0
  9 14  1  0  0  0  0
  9 10  2  0  0  0  0
 10 11  1  0  0  0  0
 10 22  1  0  0  0  0
 11 12  1  0  0  0  0
 12 13  1  0  0  0  0
 12 23  1  0  0  0  0
 12 24  1  0  0  0  0
 13 14  1  0  0  0  0
 13 25  1  0  0  0  0
 13 26  1  0  0  0  0
 15 16  2  0  0  0  0
 15 27  1  0  0  0  0
M  END
> <s_m_source_file>
AV-unprocessed.smi

> <i_m_source_file_index>
2796

> <i_lp_mmshare_version>
43012

> <i_f3d_flags>
0

> <s_epik_input>
TiNDYzFbY0hdW2NIXWMoW2NIXW4xKVtOSF1bQ0gyXUMyPVtDSF1PW0NIMl1bQ0gyXU8y

> <s_epik_cmdline>
J2VwaWtfcHl0aG9uJywgJy1waCcsICc3LjAnLCAnLXRuJywgJzgnLCAnLW1hJywgJzIwMCcsICctbWV0YWxfYmluZGluZycsICctaW1hZScsICc8aW5maWxlLm1hZT4nLCAnLW9tYWUnLCAnPG91dGZpbGUubWFlPic=

> <r_lp_tautomer_probability>
1

> <r_epik_Ionization_Penalty>
1.57619e-06

> <r_epik_Ionization_Penalty_Charging>
0

> <r_epik_Ionization_Penalty_Neutral>
1.57619e-06

> <r_epik_State_Penalty>
-0

> <r_epik_Charging_Adjusted_Penalty>
0

> <i_epik_Tot_Q>
0

> <i_epik_Tot_abs_Q>
0

> <r_epik_Metal_State_Penalty>
-0

> <b_epik_Metal_Only>
0

> <s_lp_Force_Field>
OPLS_2005

> <r_lp_Energy>
3.17898

> <b_lp_Chiralities_Consistent>
1

> <s_lp_Variant>
AV-unprocessed.smi:2796-1

> <Gold.Version>
5.8.1

> <Gold.Id.Protein>
6NUR|6NUR_protein|mol2

> <Gold.PLP.Fitness>
39.9881

> <Gold.PLP.PLP>
-31.5338

> <Gold.PLP.part.hbond>
-2.0000

> <Gold.PLP.part.metal>
0.0000

> <Gold.PLP.part.buried>
-1.5066

> <Gold.PLP.part.nonpolar>
-27.0099

> <Gold.PLP.part.repulsive>
0.4742

> <Gold.PLP.ligand.clash>
0.0000

> <Gold.PLP.ligand.torsion>
0.1357

> <Gold.PLP.Chemscore.Hbond>
2.0000

> <Gold.PLP.Chemscore.CHOScore>
0.9083

> <Gold.PLP.Chemscore.Metal>
0.0000

> <Gold.Chemscore.Hbonds>
donor molecule, donor type, donor heavy atom, donor atom, acceptor molecule, acceptor atom, score
      L1  H     7    19       P1  8028  0.98
      P1  H  7989  7998       L1    14  0.99
      L1  C    10    22       P1  8028  0.88

> <Gold.PLP.Chemscore.Internal.Correction>
0.0008

> <Gold.Rescore>
     Score         DG    S(hbond)    S(metal)    S(lipo)     H(rot)  DE(clash)    DE(int)     intcor
     17.02     -17.42       1.58        0.00      84.38       1.26       0.32       0.08       ----

> <Gold.Chemscore.Fitness>
17.0177

> <Gold.Chemscore.DG>
-17.4192

> <Gold.Chemscore.ZeroCoef>
-5.4800

> <Gold.Chemscore.Hbond>
1.5810

> <Gold.Chemscore.Metal>
0.0000

> <Gold.Chemscore.Lipo>
84.3818

> <Gold.Chemscore.Internal_Hbond>
0.0000

> <Gold.Chemscore.DEClash>
0.3212

> <Gold.Chemscore.DEInternal>
0.0803

> <Gold.Chemscore.Rot>
1.2554

> <Gold.Chemscore.Internal.Correction>
   9.000000E+99

> <Gold.Chemscore.Hbonds>
donor molecule, donor type, donor heavy atom, donor atom, acceptor molecule, acceptor atom, score
      L1  H     7    19       P1  8028  0.91
      P1  H  7989  7998       L1    14  0.32

> <Gold.Chemscore.Hbond.Weighted>
-5.2805

> <Gold.Chemscore.Metal.Weighted>
-0.0000

> <Gold.Chemscore.Lipo.Weighted>
-9.8727

> <Gold.Chemscore.Internal_Hbond.Weighted>
0.0000

> <Gold.Chemscore.DEClash.Weighted>
0.3212

> <Gold.Chemscore.DEInternal.Weighted>
0.0803

> <Gold.Chemscore.Rot.Weighted>
3.2139

> <Gold.Chemscore.Internal.Correction.Weighted>
   9.000000E+99

> <Gold.Protein.RotatedTorsions>
[ 6907 6896 6895 6894 ] final   23.28 input  -60.11 | X-H torsion
[ 7974 7965 7964 7962 ] final    3.04 input  175.53 | X-H torsion
[ 8008 7997 7996 7995 ] final -163.81 input   59.86 | X-H torsion
[ 10167 10162 10161 10158 ] final  -75.47 input  -65.29 | X-H torsion
[ 10718 10713 10712 10709 ] final  -68.69 input   66.30 | X-H torsion
[ 10763 10752 10751 10750 ] final  162.60 input  -60.55 | X-H torsion
[ 11005 11000 10999 10996 ] final   92.26 input  -57.11 | X-H torsion

> <Gold.Protein.ActiveResidues>
 VAL166  LYS551  ARG553  GLY616  TRP617  ASP618  TYR619  PRO620  LYS621  CYS622 
 ASP623  PHE694  ASN695  SER759  ASP760  ASP761  ALA762  ILE779  LEU786  VAL792 
 PHE793  MET794  SER795  GLU796  ALA797  LYS798  CYS799  TRP800  GLU811  SER814 

> <Gold.Protein.RotatedAtoms>
  151.9399  135.0218  160.0534 H   0  0  0  0  0  0  0  0  0  0  0  0  # atno 6907 bound_to 6896
  152.2045  133.4861  159.5085 H   0  0  0  0  0  0  0  0  0  0  0  0  # atno 6908 bound_to 6896
  150.6962  134.1464  159.4167 H   0  0  0  0  0  0  0  0  0  0  0  0  # atno 6909 bound_to 6896
  146.2445  140.0746  142.8360 H   0  0  0  0  0  0  0  0  0  0  0  0  # atno 7974 bound_to 7965
  155.8266  140.0927  157.1817 H   0  0  0  0  0  0  0  0  0  0  0  0  # atno 8008 bound_to 7997
  154.3979  140.1427  156.3624 H   0  0  0  0  0  0  0  0  0  0  0  0  # atno 8009 bound_to 7997
  155.8210  140.3446  155.5517 H   0  0  0  0  0  0  0  0  0  0  0  0  # atno 8010 bound_to 7997
  140.4940  143.2374  151.7861 H   0  0  0  0  0  0  0  0  0  0  0  0  # atno 10167 bound_to 10162
  156.0493  130.4299  150.2037 H   0  0  0  0  0  0  0  0  0  0  0  0  # atno 10718 bound_to 10713
  154.2809  135.2763  155.2697 H   0  0  0  0  0  0  0  0  0  0  0  0  # atno 10763 bound_to 10752
  154.5219  135.5754  153.6691 H   0  0  0  0  0  0  0  0  0  0  0  0  # atno 10764 bound_to 10752
  152.9929  135.6206  154.2968 H   0  0  0  0  0  0  0  0  0  0  0  0  # atno 10765 bound_to 10752
  139.8826  134.8722  156.3547 H   0  0  0  0  0  0  0  0  0  0  0  0  # atno 11005 bound_to 11000
  145.0786  140.9205  143.4839 LP  0  0  0  0  0  0  0  0  0  0  0  0  # atno 17320 bound_to 7965
  145.0894  139.2901  143.5742 LP  0  0  0  0  0  0  0  0  0  0  0  0  # atno 17321 bound_to 7965
  139.4857  144.4611  151.9539 LP  0  0  0  0  0  0  0  0  0  0  0  0  # atno 17342 bound_to 10162
  140.3699  144.2869  150.5921 LP  0  0  0  0  0  0  0  0  0  0  0  0  # atno 17343 bound_to 10162
  157.0123  130.9954  151.3362 LP  0  0  0  0  0  0  0  0  0  0  0  0  # atno 17370 bound_to 10713
  157.5402  130.8115  149.8019 LP  0  0  0  0  0  0  0  0  0  0  0  0  # atno 17371 bound_to 10713
  140.9570  133.7413  156.0350 LP  0  0  0  0  0  0  0  0  0  0  0  0  # atno 17394 bound_to 11000
  140.8036  134.3481  157.5432 LP  0  0  0  0  0  0  0  0  0  0  0  0  # atno 17395 bound_to 11000

$$$$
