AV-unprocessed.smi:122|AV-procd|sdf|1142|dock1
  -GOLD-   2262018273D 1   1.00000     0.00000
 Structure written by MMmdl.
 48 50  0  0  0  0  0  0  0  0  1 V2000
  144.7736  135.8079  161.3442 C   0  0  0  0  0  0  0  0  0  0  0  0
  144.7219  137.2807  160.2420 S   0  0  0  0  0  0  0  0  0  0  0  0
  143.3084  137.5958  159.9841 O   0  0  0  0  0  0  0  0  0  0  0  0
  145.6188  138.3158  160.7780 O   0  0  0  0  0  0  0  0  0  0  0  0
  145.4121  136.6956  158.7626 N   0  0  0  0  0  0  0  0  0  0  0  0
  145.5954  137.6731  157.6654 C   0  0  0  0  0  0  0  0  0  0  0  0
  145.9736  136.9835  156.3422 C   0  0  0  0  0  0  0  0  0  0  0  0
  147.1427  136.1333  156.5684 N   0  0  0  0  0  0  0  0  0  0  0  0
  148.3984  136.3572  156.1135 C   0  0  0  0  0  0  0  0  0  0  0  0
  149.3373  135.6096  156.3944 O   0  0  0  0  0  0  0  0  0  0  0  0
  148.6581  137.5889  155.2210 C   0  0  0  0  0  0  0  0  0  0  0  0
  149.8610  138.3603  155.6074 N   0  0  0  0  0  0  0  0  0  0  0  0
  151.1376  137.7926  155.3702 C   0  0  0  0  0  0  0  0  0  0  0  0
  151.2569  136.6882  154.8376 O   0  0  0  0  0  0  0  0  0  0  0  0
  152.2741  138.5936  155.8095 C   0  0  0  0  0  0  0  0  0  0  0  0
  153.5229  138.1280  155.6378 F   0  0  0  0  0  0  0  0  0  0  0  0
  152.0920  139.7960  156.3932 C   0  0  0  0  0  0  0  0  0  0  0  0
  150.8433  140.3472  156.6022 N   0  0  0  0  0  0  0  0  0  0  0  0
  150.7325  141.6745  157.3167 C   0  0  1  0  0  0  0  0  0  0  0  0
  151.2714  141.6472  158.7597 C   0  0  0  0  0  0  0  0  0  0  0  0
  152.3582  142.7096  158.7375 C   0  0  0  0  0  0  0  0  0  0  0  0
  151.9695  143.5679  157.5389 C   0  0  0  0  0  0  0  0  0  0  0  0
  151.4676  142.6230  156.6070 O   0  0  0  0  0  0  0  0  0  0  0  0
  149.6887  139.6170  156.2364 C   0  0  0  0  0  0  0  0  0  0  0  0
  148.5604  140.0552  156.4666 O   0  0  0  0  0  0  0  0  0  0  0  0
  146.8012  135.0496  157.4891 C   0  0  0  0  0  0  0  0  0  0  0  0
  146.4614  135.6553  158.8631 C   0  0  0  0  0  0  0  0  0  0  0  0
  144.2704  136.0433  162.2816 H   0  0  0  0  0  0  0  0  0  0  0  0
  145.8066  135.5351  161.5557 H   0  0  0  0  0  0  0  0  0  0  0  0
  144.2656  134.9734  160.8614 H   0  0  0  0  0  0  0  0  0  0  0  0
  144.6773  138.2430  157.5235 H   0  0  0  0  0  0  0  0  0  0  0  0
  146.3703  138.3845  157.9542 H   0  0  0  0  0  0  0  0  0  0  0  0
  145.1424  136.3677  155.9950 H   0  0  0  0  0  0  0  0  0  0  0  0
  146.1189  137.7311  155.5644 H   0  0  0  0  0  0  0  0  0  0  0  0
  148.7314  137.2600  154.1833 H   0  0  0  0  0  0  0  0  0  0  0  0
  147.7767  138.2319  155.2413 H   0  0  0  0  0  0  0  0  0  0  0  0
  152.9676  140.3457  156.7066 H   0  0  0  0  0  0  0  0  0  0  0  0
  149.6759  141.9447  157.2872 H   0  0  0  0  0  0  0  0  0  0  0  0
  150.4635  141.9274  159.4363 H   0  0  0  0  0  0  0  0  0  0  0  0
  151.6410  140.6639  159.0516 H   0  0  0  0  0  0  0  0  0  0  0  0
  152.4162  143.2789  159.6654 H   0  0  0  0  0  0  0  0  0  0  0  0
  153.3312  142.2495  158.5646 H   0  0  0  0  0  0  0  0  0  0  0  0
  151.1809  144.2738  157.8044 H   0  0  0  0  0  0  0  0  0  0  0  0
  152.8108  144.1279  157.1305 H   0  0  0  0  0  0  0  0  0  0  0  0
  145.9462  134.4939  157.1008 H   0  0  0  0  0  0  0  0  0  0  0  0
  147.6035  134.3183  157.5961 H   0  0  0  0  0  0  0  0  0  0  0  0
  147.3545  136.0995  159.3045 H   0  0  0  0  0  0  0  0  0  0  0  0
  146.1354  134.8653  159.5377 H   0  0  0  0  0  0  0  0  0  0  0  0
  1  2  1  0  0  0  0
  1 28  1  0  0  0  0
  1 29  1  0  0  0  0
  1 30  1  0  0  0  0
  2  3  2  0  0  0  0
  2  4  2  0  0  0  0
  2  5  1  0  0  0  0
  5 27  1  0  0  0  0
  5  6  1  0  0  0  0
  6  7  1  0  0  0  0
  6 31  1  0  0  0  0
  6 32  1  0  0  0  0
  7  8  1  0  0  0  0
  7 33  1  0  0  0  0
  7 34  1  0  0  0  0
  8  9  1  0  0  0  0
  8 26  1  0  0  0  0
  9 10  2  0  0  0  0
  9 11  1  0  0  0  0
 11 12  1  0  0  0  0
 11 35  1  0  0  0  0
 11 36  1  0  0  0  0
 12 24  1  0  0  0  0
 12 13  1  0  0  0  0
 13 14  2  0  0  0  0
 13 15  1  0  0  0  0
 15 16  1  0  0  0  0
 15 17  2  0  0  0  0
 17 18  1  0  0  0  0
 17 37  1  0  0  0  0
 18 19  1  0  0  0  0
 18 24  1  0  0  0  0
 19 23  1  0  0  0  0
 19 20  1  0  0  0  0
 19 38  1  0  0  0  0
 20 21  1  0  0  0  0
 20 39  1  0  0  0  0
 20 40  1  0  0  0  0
 21 22  1  0  0  0  0
 21 41  1  0  0  0  0
 21 42  1  0  0  0  0
 22 23  1  0  0  0  0
 22 43  1  0  0  0  0
 22 44  1  0  0  0  0
 24 25  2  0  0  0  0
 26 27  1  0  0  0  0
 26 45  1  0  0  0  0
 26 46  1  0  0  0  0
 27 47  1  0  0  0  0
 27 48  1  0  0  0  0
M  END
> <s_m_source_file>
AV-unprocessed.smi

> <i_m_source_file_index>
122

> <i_lp_mmshare_version>
43012

> <i_f3d_flags>
0

> <s_epik_input>
W0NIM11TKD1PKSg9TylOMVtDSDJdW0NIMl1OKFtDSDJdW0NIMl0xKUMoPU8pW0NIMl1uMmMoPU8pYyhGKVtjSF1uKGMyPU8pW0NAQEhdM1tDSDJdW0NIMl1bQ0gyXU8z

> <s_epik_cmdline>
J2VwaWtfcHl0aG9uJywgJy1waCcsICc3LjAnLCAnLXRuJywgJzgnLCAnLW1hJywgJzIwMCcsICctbWV0YWxfYmluZGluZycsICctaW1hZScsICc8aW5maWxlLm1hZT4nLCAnLW9tYWUnLCAnPG91dGZpbGUubWFlPic=

> <r_lp_tautomer_probability>
1

> <r_epik_Ionization_Penalty>
4.55442e-09

> <r_epik_Ionization_Penalty_Charging>
4.02834e-09

> <r_epik_Ionization_Penalty_Neutral>
5.2608e-10

> <r_epik_State_Penalty>
-0

> <r_epik_Charging_Adjusted_Penalty>
4.02834e-09

> <i_epik_Tot_Q>
0

> <i_epik_Tot_abs_Q>
0

> <r_epik_Metal_State_Penalty>
-0

> <b_epik_Metal_Only>
0

> <s_epik_Chemistry_Notes>
This compound contains an acetal/aminal-like group ( X-CH(R)-Y where X, Y are N, S, or O) that may be acid/base labile, releasing an aldehyde.

> <s_lp_Force_Field>
OPLS_2005

> <r_lp_Energy>
38.4276

> <b_lp_Chiralities_Consistent>
1

> <s_lp_Variant>
AV-unprocessed.smi:122-2

> <Gold.Version>
5.8.1

> <Gold.Id.Protein>
6NUR|6NUR_protein|mol2

> <Gold.PLP.Fitness>
42.1471

> <Gold.PLP.PLP>
-35.2849

> <Gold.PLP.part.hbond>
-3.0000

> <Gold.PLP.part.metal>
0.0000

> <Gold.PLP.part.buried>
-4.0425

> <Gold.PLP.part.nonpolar>
-28.0344

> <Gold.PLP.part.repulsive>
1.1461

> <Gold.PLP.ligand.clash>
0.0000

> <Gold.PLP.ligand.torsion>
0.9314

> <Gold.PLP.Chemscore.Hbond>
2.6182

> <Gold.PLP.Chemscore.CHOScore>
0.0000

> <Gold.PLP.Chemscore.Metal>
0.0000

> <Gold.Chemscore.Hbonds>
donor molecule, donor type, donor heavy atom, donor atom, acceptor molecule, acceptor atom, score
      P1  H  6934  6947       L1     4  0.72
      P1  H 10752 10764       L1    14  1.00

> <Gold.PLP.Chemscore.Internal.Correction>
0.8704

> <Gold.Rescore>
     Score         DG    S(hbond)    S(metal)    S(lipo)     H(rot)  DE(clash)    DE(int)     intcor
     12.22     -16.66       2.64        0.00      65.29       2.06       1.26       3.18       ----

> <Gold.Chemscore.Fitness>
12.2221

> <Gold.Chemscore.DG>
-16.6620

> <Gold.Chemscore.ZeroCoef>
-5.4800

> <Gold.Chemscore.Hbond>
2.6428

> <Gold.Chemscore.Metal>
0.0000

> <Gold.Chemscore.Lipo>
65.2862

> <Gold.Chemscore.Internal_Hbond>
0.0000

> <Gold.Chemscore.DEClash>
1.2575

> <Gold.Chemscore.DEInternal>
3.1823

> <Gold.Chemscore.Rot>
2.0639

> <Gold.Chemscore.Internal.Correction>
   9.000000E+99

> <Gold.Chemscore.Hbonds>
donor molecule, donor type, donor heavy atom, donor atom, acceptor molecule, acceptor atom, score
      P1  H  6934  6947       L1     4  0.72
      P1  H 10752 10764       L1    14  0.93

> <Gold.Chemscore.Hbond.Weighted>
-8.8270

> <Gold.Chemscore.Metal.Weighted>
-0.0000

> <Gold.Chemscore.Lipo.Weighted>
-7.6385

> <Gold.Chemscore.Internal_Hbond.Weighted>
0.0000

> <Gold.Chemscore.DEClash.Weighted>
1.2575

> <Gold.Chemscore.DEInternal.Weighted>
3.1823

> <Gold.Chemscore.Rot.Weighted>
5.2836

> <Gold.Chemscore.Internal.Correction.Weighted>
   9.000000E+99

> <Gold.Protein.RotatedTorsions>
[ 6907 6896 6895 6894 ] final -139.08 input  -60.11 | X-H torsion
[ 7974 7965 7964 7962 ] final    9.35 input  175.53 | X-H torsion
[ 8008 7997 7996 7995 ] final  132.06 input   59.86 | X-H torsion
[ 10167 10162 10161 10158 ] final   79.78 input  -65.29 | X-H torsion
[ 10718 10713 10712 10709 ] final  -29.61 input   66.30 | X-H torsion
[ 10763 10752 10751 10750 ] final  -74.02 input  -60.55 | X-H torsion
[ 11005 11000 10999 10996 ] final -116.94 input  -57.11 | X-H torsion

> <Gold.Protein.ActiveResidues>
 VAL166  LYS551  ARG553  GLY616  TRP617  ASP618  TYR619  PRO620  LYS621  CYS622 
 ASP623  PHE694  ASN695  SER759  ASP760  ASP761  ALA762  ILE779  LEU786  VAL792 
 PHE793  MET794  SER795  GLU796  ALA797  LYS798  CYS799  TRP800  GLU811  SER814 

> <Gold.Protein.RotatedAtoms>
  151.0432  133.5688  159.2648 H   0  0  0  0  0  0  0  0  0  0  0  0  # atno 6907 bound_to 6896
  151.2727  135.0688  159.9150 H   0  0  0  0  0  0  0  0  0  0  0  0  # atno 6908 bound_to 6896
  152.5368  134.0159  159.8014 H   0  0  0  0  0  0  0  0  0  0  0  0  # atno 6909 bound_to 6896
  146.2404  139.9796  142.8437 H   0  0  0  0  0  0  0  0  0  0  0  0  # atno 7974 bound_to 7965
  156.2978  140.2555  156.3028 H   0  0  0  0  0  0  0  0  0  0  0  0  # atno 8008 bound_to 7997
  154.9401  140.0396  157.2111 H   0  0  0  0  0  0  0  0  0  0  0  0  # atno 8009 bound_to 7997
  154.8135  140.2848  155.5841 H   0  0  0  0  0  0  0  0  0  0  0  0  # atno 8010 bound_to 7997
  139.9567  144.5989  150.8110 H   0  0  0  0  0  0  0  0  0  0  0  0  # atno 10167 bound_to 10162
  156.4103  130.4407  149.7257 H   0  0  0  0  0  0  0  0  0  0  0  0  # atno 10718 bound_to 10713
  154.4674  135.5878  153.6298 H   0  0  0  0  0  0  0  0  0  0  0  0  # atno 10763 bound_to 10752
  152.9830  135.6058  154.3409 H   0  0  0  0  0  0  0  0  0  0  0  0  # atno 10764 bound_to 10752
  154.3288  135.2843  155.2461 H   0  0  0  0  0  0  0  0  0  0  0  0  # atno 10765 bound_to 10752
  141.0388  133.9867  157.3027 H   0  0  0  0  0  0  0  0  0  0  0  0  # atno 11005 bound_to 11000
  145.1604  140.9670  143.4380 LP  0  0  0  0  0  0  0  0  0  0  0  0  # atno 17320 bound_to 7965
  145.0121  139.3500  143.6115 LP  0  0  0  0  0  0  0  0  0  0  0  0  # atno 17321 bound_to 7965
  140.7566  143.3069  151.2939 LP  0  0  0  0  0  0  0  0  0  0  0  0  # atno 17342 bound_to 10162
  139.6586  144.0231  152.2677 LP  0  0  0  0  0  0  0  0  0  0  0  0  # atno 17343 bound_to 10162
  156.4238  130.7782  151.2800 LP  0  0  0  0  0  0  0  0  0  0  0  0  # atno 17370 bound_to 10713
  157.7507  131.0175  150.3587 LP  0  0  0  0  0  0  0  0  0  0  0  0  # atno 17371 bound_to 10713
  139.9260  135.0201  156.8237 LP  0  0  0  0  0  0  0  0  0  0  0  0  # atno 17394 bound_to 11000
  140.6272  133.9939  155.7645 LP  0  0  0  0  0  0  0  0  0  0  0  0  # atno 17395 bound_to 11000

$$$$
