AV-unprocessed.smi:2072|AV-procd|sdf|8447|dock8
  -GOLD-   2272011143D 1   1.00000     0.00000
 Structure written by MMmdl.
 40 42  0  0  0  0  0  0  0  0  2 V2000
  145.6212  137.9072  154.1500 O   0  0  0  0  0  0  0  0  0  0  0  0
  146.5935  137.4112  153.5826 C   0  0  0  0  0  0  0  0  0  0  0  0
  147.7924  137.9978  153.4207 N   0  0  0  0  0  0  0  0  0  0  0  0
  148.2344  139.2854  153.8358 C   0  0  0  0  0  0  0  0  0  0  0  0
  147.4433  140.4612  153.8226 C   0  0  0  0  0  0  0  0  0  0  0  0
  148.0159  141.6719  154.2578 C   0  0  0  0  0  0  0  0  0  0  0  0
  149.3566  141.6673  154.6875 C   0  0  0  0  0  0  0  0  0  0  0  0
  150.1240  140.5578  154.7021 N   0  0  0  0  0  0  0  0  0  0  0  0
  149.5682  139.4007  154.2836 C   0  0  0  0  0  0  0  0  0  0  0  0
  146.5812  136.1823  153.0466 N   0  0  0  0  0  0  0  0  0  0  0  0
  145.4345  135.2776  153.0469 C   0  0  1  0  0  0  0  0  0  0  0  0
  144.0943  136.0079  152.8497 C   0  0  0  0  0  0  0  0  0  0  0  0
  143.2374  135.0626  151.9845 C   0  0  0  0  0  0  0  0  0  0  0  0
  144.0580  133.8506  151.7979 N   0  3  1  0  0  0  0  0  0  0  0  0
  143.7777  133.0244  150.6035 C   0  0  0  0  0  0  0  0  0  0  0  0
  144.6691  131.7669  150.6355 C   0  0  0  0  0  0  0  0  0  0  0  0
  146.1594  132.1280  150.7984 C   0  0  0  0  0  0  0  0  0  0  0  0
  146.3775  133.0658  152.0015 C   0  0  0  0  0  0  0  0  0  0  0  0
  145.4589  134.2933  151.8739 C   0  0  2  0  0  0  0  0  0  0  0  0
  148.4914  137.4420  152.9498 H   0  0  0  0  0  0  0  0  0  0  0  0
  146.4190  140.4721  153.4877 H   0  0  0  0  0  0  0  0  0  0  0  0
  147.4396  142.5850  154.2605 H   0  0  0  0  0  0  0  0  0  0  0  0
  149.8249  142.5796  155.0264 H   0  0  0  0  0  0  0  0  0  0  0  0
  150.2139  138.5348  154.3086 H   0  0  0  0  0  0  0  0  0  0  0  0
  147.4239  135.8516  152.5995 H   0  0  0  0  0  0  0  0  0  0  0  0
  145.3863  134.7223  153.9862 H   0  0  0  0  0  0  0  0  0  0  0  0
  143.6198  136.2266  153.8071 H   0  0  0  0  0  0  0  0  0  0  0  0
  144.2311  136.9569  152.3287 H   0  0  0  0  0  0  0  0  0  0  0  0
  142.2862  134.8144  152.4563 H   0  0  0  0  0  0  0  0  0  0  0  0
  143.0265  135.5266  151.0198 H   0  0  0  0  0  0  0  0  0  0  0  0
  142.7252  132.7396  150.5937 H   0  0  0  0  0  0  0  0  0  0  0  0
  143.9650  133.6033  149.6979 H   0  0  0  0  0  0  0  0  0  0  0  0
  144.3621  131.1280  151.4648 H   0  0  0  0  0  0  0  0  0  0  0  0
  144.5232  131.1818  149.7271 H   0  0  0  0  0  0  0  0  0  0  0  0
  146.7553  131.2223  150.9149 H   0  0  0  0  0  0  0  0  0  0  0  0
  146.5145  132.6162  149.8898 H   0  0  0  0  0  0  0  0  0  0  0  0
  146.1694  132.5348  152.9313 H   0  0  0  0  0  0  0  0  0  0  0  0
  147.4222  133.3744  152.0432 H   0  0  0  0  0  0  0  0  0  0  0  0
  145.7031  134.8350  150.9568 H   0  0  0  0  0  0  0  0  0  0  0  0
  143.8996  133.2698  152.6090 H   0  0  0  0  0  0  0  0  0  0  0  0
  1  2  2  0  0  0  0
  2  3  1  0  0  0  0
  2 10  1  0  0  0  0
  3  4  1  0  0  0  0
  3 20  1  0  0  0  0
  4  9  1  0  0  0  0
  4  5  2  0  0  0  0
  5  6  1  0  0  0  0
  5 21  1  0  0  0  0
  6  7  2  0  0  0  0
  6 22  1  0  0  0  0
  7  8  1  0  0  0  0
  7 23  1  0  0  0  0
  8  9  2  0  0  0  0
  9 24  1  0  0  0  0
 10 11  1  0  0  0  0
 10 25  1  0  0  0  0
 11 19  1  0  0  0  0
 11 12  1  0  0  0  0
 11 26  1  0  0  0  0
 12 13  1  0  0  0  0
 12 27  1  0  0  0  0
 12 28  1  0  0  0  0
 13 14  1  0  0  0  0
 13 29  1  0  0  0  0
 13 30  1  0  0  0  0
 14 19  1  0  0  0  0
 14 15  1  0  0  0  0
 14 40  1  0  0  0  0
 15 16  1  0  0  0  0
 15 31  1  0  0  0  0
 15 32  1  0  0  0  0
 16 17  1  0  0  0  0
 16 33  1  0  0  0  0
 16 34  1  0  0  0  0
 17 18  1  0  0  0  0
 17 35  1  0  0  0  0
 17 36  1  0  0  0  0
 18 19  1  0  0  0  0
 18 37  1  0  0  0  0
 18 38  1  0  0  0  0
 19 39  1  0  0  0  0
M  CHG  1  14   1
M  END
> <s_m_source_file>
AV-unprocessed.smi

> <i_m_source_file_index>
2072

> <i_lp_mmshare_version>
43012

> <i_f3d_flags>
0

> <s_epik_input>
W0NIMl0xW0NIMl1bQ0gyXVtDSDJdW0NASF0oTjEyKVtDQEBIXShbQ0gyXVtDSDJdMilbTkhdQyg9TylbTkhdYzNbY0hdW2NIXVtjSF1uW2NIXTM=

> <s_epik_cmdline>
J2VwaWtfcHl0aG9uJywgJy1waCcsICc3LjAnLCAnLXRuJywgJzgnLCAnLW1hJywgJzIwMCcsICctbWV0YWxfYmluZGluZycsICctaW1hZScsICc8aW5maWxlLm1hZT4nLCAnLW9tYWUnLCAnPG91dGZpbGUubWFlPic=

> <r_lp_tautomer_probability>
1

> <r_epik_Ionization_Penalty>
0.00482425

> <r_epik_Ionization_Penalty_Charging>
0.000974069

> <r_epik_Ionization_Penalty_Neutral>
0.00385018

> <r_epik_State_Penalty>
-0

> <r_epik_Charging_Adjusted_Penalty>
0.000974069

> <i_epik_Tot_Q>
1

> <i_epik_Tot_abs_Q>
1

> <r_epik_Metal_State_Penalty>
-0

> <b_epik_Metal_Only>
0

> <s_lp_Force_Field>
OPLS_2005

> <r_lp_Energy>
37.8914

> <b_lp_Chiralities_Consistent>
1

> <s_lp_Variant>
AV-unprocessed.smi:2072-6

> <Gold.Version>
5.8.1

> <Gold.Id.Protein>
6NUR|6NUR_protein|mol2

> <Gold.PLP.Fitness>
41.8326

> <Gold.PLP.PLP>
-31.3505

> <Gold.PLP.part.hbond>
-3.0000

> <Gold.PLP.part.metal>
0.0000

> <Gold.PLP.part.buried>
-1.0238

> <Gold.PLP.part.nonpolar>
-26.6887

> <Gold.PLP.part.repulsive>
0.2442

> <Gold.PLP.ligand.clash>
0.0000

> <Gold.PLP.ligand.torsion>
0.6193

> <Gold.PLP.Chemscore.Hbond>
2.9040

> <Gold.PLP.Chemscore.CHOScore>
1.0000

> <Gold.PLP.Chemscore.Metal>
0.0000

> <Gold.Chemscore.Hbonds>
donor molecule, donor type, donor heavy atom, donor atom, acceptor molecule, acceptor atom, score
      L1  H     3    20       P1  7948  1.00
      L1  H    10    25       P1  7948  0.98
      P1  H  7989  7998       L1     8  0.90
      L1  C     7    23       P1  8028  1.00

> <Gold.PLP.Chemscore.Internal.Correction>
0.0088

> <Gold.Rescore>
     Score         DG    S(hbond)    S(metal)    S(lipo)     H(rot)  DE(clash)    DE(int)     intcor
     18.11     -20.34       2.33        0.00      82.22       1.00       0.26       1.97       ----

> <Gold.Chemscore.Fitness>
18.1143

> <Gold.Chemscore.DG>
-20.3376

> <Gold.Chemscore.ZeroCoef>
-5.4800

> <Gold.Chemscore.Hbond>
2.3348

> <Gold.Chemscore.Metal>
0.0000

> <Gold.Chemscore.Lipo>
82.2181

> <Gold.Chemscore.Internal_Hbond>
0.0000

> <Gold.Chemscore.DEClash>
0.2555

> <Gold.Chemscore.DEInternal>
1.9679

> <Gold.Chemscore.Rot>
1.0000

> <Gold.Chemscore.Internal.Correction>
   9.000000E+99

> <Gold.Chemscore.Hbonds>
donor molecule, donor type, donor heavy atom, donor atom, acceptor molecule, acceptor atom, score
      L1  H     3    20       P1  7948  0.97
      L1  H    10    25       P1  7948  0.93
      P1  H  7989  7998       L1     8  0.29

> <Gold.Chemscore.Hbond.Weighted>
-7.7981

> <Gold.Chemscore.Metal.Weighted>
-0.0000

> <Gold.Chemscore.Lipo.Weighted>
-9.6195

> <Gold.Chemscore.Internal_Hbond.Weighted>
0.0000

> <Gold.Chemscore.DEClash.Weighted>
0.2555

> <Gold.Chemscore.DEInternal.Weighted>
1.9679

> <Gold.Chemscore.Rot.Weighted>
2.5600

> <Gold.Chemscore.Internal.Correction.Weighted>
   9.000000E+99

> <Gold.Protein.RotatedTorsions>
[ 6907 6896 6895 6894 ] final  132.39 input  -60.11 | X-H torsion
[ 7974 7965 7964 7962 ] final  -16.93 input  175.53 | X-H torsion
[ 8008 7997 7996 7995 ] final  170.81 input   59.86 | X-H torsion
[ 10167 10162 10161 10158 ] final -165.35 input  -65.29 | X-H torsion
[ 10718 10713 10712 10709 ] final   71.50 input   66.30 | X-H torsion
[ 10763 10752 10751 10750 ] final   89.99 input  -60.55 | X-H torsion
[ 11005 11000 10999 10996 ] final  126.25 input  -57.11 | X-H torsion

> <Gold.Protein.ActiveResidues>
 VAL166  LYS551  ARG553  GLY616  TRP617  ASP618  TYR619  PRO620  LYS621  CYS622 
 ASP623  PHE694  ASN695  SER759  ASP760  ASP761  ALA762  ILE779  LEU786  VAL792 
 PHE793  MET794  SER795  GLU796  ALA797  LYS798  CYS799  TRP800  GLU811  SER814 

> <Gold.Protein.RotatedAtoms>
  152.3328  133.5978  159.5821 H   0  0  0  0  0  0  0  0  0  0  0  0  # atno 6907 bound_to 6896
  150.7433  133.9841  159.3594 H   0  0  0  0  0  0  0  0  0  0  0  0  # atno 6908 bound_to 6896
  151.7714  135.0786  160.0411 H   0  0  0  0  0  0  0  0  0  0  0  0  # atno 6909 bound_to 6896
  146.1965  140.3706  142.8439 H   0  0  0  0  0  0  0  0  0  0  0  0  # atno 7974 bound_to 7965
  156.1331  140.1528  156.9036 H   0  0  0  0  0  0  0  0  0  0  0  0  # atno 8008 bound_to 7997
  154.4925  140.0847  156.7664 H   0  0  0  0  0  0  0  0  0  0  0  0  # atno 8009 bound_to 7997
  155.4220  140.3423  155.4274 H   0  0  0  0  0  0  0  0  0  0  0  0  # atno 8010 bound_to 7997
  139.6188  144.0666  152.1913 H   0  0  0  0  0  0  0  0  0  0  0  0  # atno 10167 bound_to 10162
  157.6454  130.9531  150.0798 H   0  0  0  0  0  0  0  0  0  0  0  0  # atno 10718 bound_to 10713
  153.1928  135.4450  155.0171 H   0  0  0  0  0  0  0  0  0  0  0  0  # atno 10763 bound_to 10752
  154.8101  135.3291  154.7331 H   0  0  0  0  0  0  0  0  0  0  0  0  # atno 10764 bound_to 10752
  153.7783  135.6979  153.4948 H   0  0  0  0  0  0  0  0  0  0  0  0  # atno 10765 bound_to 10752
  139.9446  134.9631  156.8678 H   0  0  0  0  0  0  0  0  0  0  0  0  # atno 11005 bound_to 11000
  144.8591  140.7113  143.6119 LP  0  0  0  0  0  0  0  0  0  0  0  0  # atno 17320 bound_to 7965
  145.3627  139.1678  143.4375 LP  0  0  0  0  0  0  0  0  0  0  0  0  # atno 17321 bound_to 7965
  140.0303  144.6086  150.7494 LP  0  0  0  0  0  0  0  0  0  0  0  0  # atno 17342 bound_to 10162
  140.7368  143.2758  151.3747 LP  0  0  0  0  0  0  0  0  0  0  0  0  # atno 17343 bound_to 10162
  156.1777  130.3649  149.9077 LP  0  0  0  0  0  0  0  0  0  0  0  0  # atno 17370 bound_to 10713
  156.7037  130.8943  151.3602 LP  0  0  0  0  0  0  0  0  0  0  0  0  # atno 17371 bound_to 10713
  140.5865  134.0302  155.7483 LP  0  0  0  0  0  0  0  0  0  0  0  0  # atno 17394 bound_to 11000
  141.1093  133.9643  157.2940 LP  0  0  0  0  0  0  0  0  0  0  0  0  # atno 17395 bound_to 11000

$$$$
