AV-unprocessed.smi:290|AV-procd|sdf|2225|dock3
  -GOLD-   2262022 73D 1   1.00000     0.00000
 Structure written by MMmdl.
 59 62  0  0  0  0  0  0  0  0  2 V2000
  149.8690  138.2124  155.2647 C   0  0  0  0  0  0  0  0  0  0  0  0
  150.1674  139.7020  155.0280 C   0  0  2  0  0  0  0  0  0  0  0  0
  151.5318  139.9939  155.3282 O   0  0  0  0  0  0  0  0  0  0  0  0
  151.6054  140.9852  156.3425 C   0  0  0  0  0  0  0  0  0  0  0  0
  150.3249  141.7907  156.1688 C   0  0  0  0  0  0  0  0  0  0  0  0
  149.3055  140.7150  155.8187 C   0  0  2  0  0  0  0  0  0  0  0  0
  148.8318  140.1434  157.0281 O   0  0  0  0  0  0  0  0  0  0  0  0
  148.0918  141.2358  155.0126 C   0  0  0  0  0  0  0  0  0  0  0  0
  147.2802  140.1718  154.4434 N   0  0  0  0  0  0  0  0  0  0  0  0
  147.2795  139.7437  153.1341 C   0  0  0  0  0  0  0  0  0  0  0  0
  146.4481  138.7738  152.8646 N   0  0  0  0  0  0  0  0  0  0  0  0
  145.8387  138.5085  154.0839 C   0  0  0  0  0  0  0  0  0  0  0  0
  144.8486  137.5865  154.5092 C   0  0  0  0  0  0  0  0  0  0  0  0
  144.2800  136.7154  153.6467 N   0  0  0  0  0  0  0  0  0  0  0  0
  142.8365  136.8411  153.5228 C   0  0  0  0  0  0  0  0  0  0  0  0
  142.3751  135.5833  152.7781 C   0  0  0  0  0  0  0  0  0  0  0  0
  143.5148  134.5610  152.9856 C   0  0  1  0  0  0  0  0  0  0  0  0
  144.0934  133.9931  151.7276 N   0  3  2  0  0  0  0  0  0  0  0  0
  144.4710  134.9873  150.6902 C   0  0  0  0  0  0  0  0  0  0  0  0
  143.3021  132.8717  151.1597 C   0  0  0  0  0  0  0  0  0  0  0  0
  143.8686  132.3762  149.8179 C   0  0  0  0  0  0  0  0  0  0  0  0
  142.8127  132.0245  148.9487 O   0  0  0  0  0  0  0  0  0  0  0  0
  144.5360  135.3001  153.8759 C   0  0  1  0  0  0  0  0  0  0  0  0
  146.0164  134.8904  153.7386 C   0  0  0  0  0  0  0  0  0  0  0  0
  144.4851  137.5987  155.8188 N   0  0  0  0  0  0  0  0  0  0  0  0
  145.0566  138.4666  156.6600 C   0  0  0  0  0  0  0  0  0  0  0  0
  145.9897  139.3865  156.4035 N   0  0  0  0  0  0  0  0  0  0  0  0
  146.3545  139.3715  155.0893 C   0  0  0  0  0  0  0  0  0  0  0  0
  143.1345  133.7314  153.5809 H   0  0  0  0  0  0  0  0  0  0  0  0
  144.2497  135.0894  154.9079 H   0  0  0  0  0  0  0  0  0  0  0  0
  148.8232  137.9845  155.0577 H   0  0  0  0  0  0  0  0  0  0  0  0
  150.0829  137.9179  156.2925 H   0  0  0  0  0  0  0  0  0  0  0  0
  150.4804  137.5884  154.6128 H   0  0  0  0  0  0  0  0  0  0  0  0
  150.0567  139.9023  153.9615 H   0  0  0  0  0  0  0  0  0  0  0  0
  151.6264  140.4987  157.3187 H   0  0  0  0  0  0  0  0  0  0  0  0
  152.5044  141.5940  156.2443 H   0  0  0  0  0  0  0  0  0  0  0  0
  150.0638  142.3765  157.0514 H   0  0  0  0  0  0  0  0  0  0  0  0
  150.4482  142.4807  155.3329 H   0  0  0  0  0  0  0  0  0  0  0  0
  149.1790  139.2678  157.1028 H   0  0  0  0  0  0  0  0  0  0  0  0
  147.4479  141.8439  155.6494 H   0  0  0  0  0  0  0  0  0  0  0  0
  148.4261  141.8886  154.2048 H   0  0  0  0  0  0  0  0  0  0  0  0
  147.9147  140.1826  152.3783 H   0  0  0  0  0  0  0  0  0  0  0  0
  142.3705  136.8865  154.5085 H   0  0  0  0  0  0  0  0  0  0  0  0
  142.5667  137.7482  152.9810 H   0  0  0  0  0  0  0  0  0  0  0  0
  141.4321  135.2184  153.1859 H   0  0  0  0  0  0  0  0  0  0  0  0
  142.1892  135.8128  151.7307 H   0  0  0  0  0  0  0  0  0  0  0  0
  143.6054  135.3398  150.1296 H   0  0  0  0  0  0  0  0  0  0  0  0
  145.1556  134.5294  149.9754 H   0  0  0  0  0  0  0  0  0  0  0  0
  144.9773  135.8541  151.1130 H   0  0  0  0  0  0  0  0  0  0  0  0
  143.2582  132.0545  151.8811 H   0  0  0  0  0  0  0  0  0  0  0  0
  142.2698  133.1872  150.9983 H   0  0  0  0  0  0  0  0  0  0  0  0
  144.5055  133.1181  149.3372 H   0  0  0  0  0  0  0  0  0  0  0  0
  144.4844  131.4917  149.9826 H   0  0  0  0  0  0  0  0  0  0  0  0
  142.1353  132.6810  149.0151 H   0  0  0  0  0  0  0  0  0  0  0  0
  146.1354  133.8140  153.8648 H   0  0  0  0  0  0  0  0  0  0  0  0
  146.6273  135.3746  154.5010 H   0  0  0  0  0  0  0  0  0  0  0  0
  146.4350  135.1635  152.7708 H   0  0  0  0  0  0  0  0  0  0  0  0
  144.7174  138.4196  157.6845 H   0  0  0  0  0  0  0  0  0  0  0  0
  144.9668  133.5704  152.0091 H   0  0  0  0  0  0  0  0  0  0  0  0
  1  2  1  0  0  0  0
  1 31  1  0  0  0  0
  1 32  1  0  0  0  0
  1 33  1  0  0  0  0
  2  6  1  0  0  0  0
  2  3  1  0  0  0  0
  2 34  1  0  0  0  0
  3  4  1  0  0  0  0
  4  5  1  0  0  0  0
  4 35  1  0  0  0  0
  4 36  1  0  0  0  0
  5  6  1  0  0  0  0
  5 37  1  0  0  0  0
  5 38  1  0  0  0  0
  6  7  1  0  0  0  0
  6  8  1  0  0  0  0
  7 39  1  0  0  0  0
  8  9  1  0  0  0  0
  8 40  1  0  0  0  0
  8 41  1  0  0  0  0
  9 28  1  0  0  0  0
  9 10  1  0  0  0  0
 10 11  2  0  0  0  0
 10 42  1  0  0  0  0
 11 12  1  0  0  0  0
 12 28  2  0  0  0  0
 12 13  1  0  0  0  0
 13 14  1  0  0  0  0
 13 25  2  0  0  0  0
 14 23  1  0  0  0  0
 14 15  1  0  0  0  0
 15 16  1  0  0  0  0
 15 43  1  0  0  0  0
 15 44  1  0  0  0  0
 16 17  1  0  0  0  0
 16 45  1  0  0  0  0
 16 46  1  0  0  0  0
 17 29  1  0  0  0  0
 17 18  1  0  0  0  0
 17 23  1  0  0  0  0
 18 19  1  0  0  0  0
 18 20  1  0  0  0  0
 18 59  1  0  0  0  0
 19 47  1  0  0  0  0
 19 48  1  0  0  0  0
 19 49  1  0  0  0  0
 20 21  1  0  0  0  0
 20 50  1  0  0  0  0
 20 51  1  0  0  0  0
 21 22  1  0  0  0  0
 21 52  1  0  0  0  0
 21 53  1  0  0  0  0
 22 54  1  0  0  0  0
 23 30  1  0  0  0  0
 23 24  1  0  0  0  0
 24 55  1  0  0  0  0
 24 56  1  0  0  0  0
 24 57  1  0  0  0  0
 25 26  1  0  0  0  0
 26 27  2  0  0  0  0
 26 58  1  0  0  0  0
 27 28  1  0  0  0  0
M  CHG  1  18   1
M  END
> <s_m_source_file>
AV-unprocessed.smi

> <i_m_source_file_index>
290

> <i_lp_mmshare_version>
43012

> <i_f3d_flags>
0

> <s_epik_input>
W0NIMl0xW0NIMl1PW0NAQEhdKFtDSDNdKVtDQEBdMShbT0hdKVtDSDJdbihbY0hdbjIpYyhjMjMpbltjSF1uYzNONFtDSDJdW0NIMl1bQ0BIXShbQ0BIXTRbQ0gzXSlOKFtDSDNdKVtDSDJdW0NIMl1bT0hd

> <s_epik_cmdline>
J2VwaWtfcHl0aG9uJywgJy1waCcsICc3LjAnLCAnLXRuJywgJzgnLCAnLW1hJywgJzIwMCcsICctbWV0YWxfYmluZGluZycsICctaW1hZScsICc8aW5maWxlLm1hZT4nLCAnLW9tYWUnLCAnPG91dGZpbGUubWFlPic=

> <r_lp_tautomer_probability>
1

> <r_epik_Ionization_Penalty>
0.0036983

> <r_epik_Ionization_Penalty_Charging>
0.0032725

> <r_epik_Ionization_Penalty_Neutral>
0.000425798

> <r_epik_State_Penalty>
-0

> <r_epik_Charging_Adjusted_Penalty>
0.0032725

> <i_epik_Tot_Q>
1

> <i_epik_Tot_abs_Q>
1

> <r_epik_Metal_State_Penalty>
-0

> <b_epik_Metal_Only>
0

> <s_lp_Force_Field>
OPLS_2005

> <r_lp_Energy>
70.3682

> <b_lp_Chiralities_Consistent>
1

> <s_lp_Variant>
AV-unprocessed.smi:290-11

> <Gold.Version>
5.8.1

> <Gold.Id.Protein>
6NUR|6NUR_protein|mol2

> <Gold.PLP.Fitness>
44.1116

> <Gold.PLP.PLP>
-36.0212

> <Gold.PLP.part.hbond>
-4.0000

> <Gold.PLP.part.metal>
0.0000

> <Gold.PLP.part.buried>
-7.3263

> <Gold.PLP.part.nonpolar>
-26.5269

> <Gold.PLP.part.repulsive>
0.4210

> <Gold.PLP.ligand.clash>
0.0000

> <Gold.PLP.ligand.torsion>
0.9801

> <Gold.PLP.Chemscore.Hbond>
2.2775

> <Gold.PLP.Chemscore.CHOScore>
1.0000

> <Gold.PLP.Chemscore.Metal>
0.0000

> <Gold.Chemscore.Hbonds>
donor molecule, donor type, donor heavy atom, donor atom, acceptor molecule, acceptor atom, score
      L1  H    22    54       P1 10186  0.76
      P1  H  7989  7998       L1     3  0.40
      P1  H 10785 10796       L1    22  1.00
      L1  C    10    42       P1  7957  1.00

> <Gold.PLP.Chemscore.Internal.Correction>
0.2182

> <Gold.Rescore>
     Score         DG    S(hbond)    S(metal)    S(lipo)     H(rot)  DE(clash)    DE(int)     intcor
      7.64      -9.98       1.53        0.00      75.04       3.67       0.09       2.25       ----

> <Gold.Chemscore.Fitness>
7.6398

> <Gold.Chemscore.DG>
-9.9819

> <Gold.Chemscore.ZeroCoef>
-5.4800

> <Gold.Chemscore.Hbond>
1.5288

> <Gold.Chemscore.Metal>
0.0000

> <Gold.Chemscore.Lipo>
75.0435

> <Gold.Chemscore.Internal_Hbond>
0.0000

> <Gold.Chemscore.DEClash>
0.0884

> <Gold.Chemscore.DEInternal>
2.2537

> <Gold.Chemscore.Rot>
3.6658

> <Gold.Chemscore.Internal.Correction>
   9.000000E+99

> <Gold.Chemscore.Hbonds>
donor molecule, donor type, donor heavy atom, donor atom, acceptor molecule, acceptor atom, score
      L1  H    22    54       P1 10186  0.75
      P1  H  7989  7998       L1     3  0.01
      P1  H 10785 10796       L1    22  0.25

> <Gold.Chemscore.Hbond.Weighted>
-5.1062

> <Gold.Chemscore.Metal.Weighted>
-0.0000

> <Gold.Chemscore.Lipo.Weighted>
-8.7801

> <Gold.Chemscore.Internal_Hbond.Weighted>
0.0000

> <Gold.Chemscore.DEClash.Weighted>
0.0884

> <Gold.Chemscore.DEInternal.Weighted>
2.2537

> <Gold.Chemscore.Rot.Weighted>
9.3844

> <Gold.Chemscore.Internal.Correction.Weighted>
   9.000000E+99

> <Gold.Protein.RotatedTorsions>
[ 6907 6896 6895 6894 ] final -132.95 input  -60.11 | X-H torsion
[ 7974 7965 7964 7962 ] final  -80.60 input  175.53 | X-H torsion
[ 8008 7997 7996 7995 ] final  -30.44 input   59.86 | X-H torsion
[ 10167 10162 10161 10158 ] final  171.63 input  -65.29 | X-H torsion
[ 10718 10713 10712 10709 ] final  -41.53 input   66.30 | X-H torsion
[ 10763 10752 10751 10750 ] final -116.10 input  -60.55 | X-H torsion
[ 11005 11000 10999 10996 ] final -169.40 input  -57.11 | X-H torsion

> <Gold.Protein.ActiveResidues>
 VAL166  LYS551  ARG553  GLY616  TRP617  ASP618  TYR619  PRO620  LYS621  CYS622 
 ASP623  PHE694  ASN695  SER759  ASP760  ASP761  ALA762  ILE779  LEU786  VAL792 
 PHE793  MET794  SER795  GLU796  ALA797  LYS798  CYS799  TRP800  GLU811  SER814 

> <Gold.Protein.RotatedAtoms>
  150.9683  133.6371  159.2742 H   0  0  0  0  0  0  0  0  0  0  0  0  # atno 6907 bound_to 6896
  151.3669  135.0914  159.9462 H   0  0  0  0  0  0  0  0  0  0  0  0  # atno 6908 bound_to 6896
  152.5173  133.9245  159.7605 H   0  0  0  0  0  0  0  0  0  0  0  0  # atno 6909 bound_to 6896
  145.5578  140.9487  143.1464 H   0  0  0  0  0  0  0  0  0  0  0  0  # atno 7974 bound_to 7965
  154.4250  140.1791  156.1407 H   0  0  0  0  0  0  0  0  0  0  0  0  # atno 8008 bound_to 7997
  155.9994  140.3361  155.6805 H   0  0  0  0  0  0  0  0  0  0  0  0  # atno 8009 bound_to 7997
  155.6264  140.0665  157.2653 H   0  0  0  0  0  0  0  0  0  0  0  0  # atno 8010 bound_to 7997
  139.5052  144.3464  151.9967 H   0  0  0  0  0  0  0  0  0  0  0  0  # atno 10167 bound_to 10162
  156.2694  130.4205  149.8455 H   0  0  0  0  0  0  0  0  0  0  0  0  # atno 10718 bound_to 10713
  154.8507  135.4358  154.1767 H   0  0  0  0  0  0  0  0  0  0  0  0  # atno 10763 bound_to 10752
  153.2868  135.6958  153.7338 H   0  0  0  0  0  0  0  0  0  0  0  0  # atno 10764 bound_to 10752
  153.6520  135.3449  155.3077 H   0  0  0  0  0  0  0  0  0  0  0  0  # atno 10765 bound_to 10752
  140.5312  134.5614  157.5075 H   0  0  0  0  0  0  0  0  0  0  0  0  # atno 11005 bound_to 11000
  144.7498  139.7225  143.7278 LP  0  0  0  0  0  0  0  0  0  0  0  0  # atno 17320 bound_to 7965
  146.1872  139.5094  142.9828 LP  0  0  0  0  0  0  0  0  0  0  0  0  # atno 17321 bound_to 7965
  140.2901  144.3763  150.6091 LP  0  0  0  0  0  0  0  0  0  0  0  0  # atno 17342 bound_to 10162
  140.5953  143.2167  151.7176 LP  0  0  0  0  0  0  0  0  0  0  0  0  # atno 17343 bound_to 10162
  156.5942  130.8519  151.3415 LP  0  0  0  0  0  0  0  0  0  0  0  0  # atno 17370 bound_to 10713
  157.7278  130.9649  150.1716 LP  0  0  0  0  0  0  0  0  0  0  0  0  # atno 17371 bound_to 10713
  139.9553  134.7546  156.0355 LP  0  0  0  0  0  0  0  0  0  0  0  0  # atno 17394 bound_to 11000
  141.1280  133.6594  156.3388 LP  0  0  0  0  0  0  0  0  0  0  0  0  # atno 17395 bound_to 11000

$$$$
