AV-unprocessed.smi:2078|AV-procd|sdf|8469|dock9
  -GOLD-   2272011173D 1   1.00000     0.00000
 Structure written by MMmdl.
 41 42  0  0  0  0  0  0  0  0  3 V2000
  146.5771  136.0703  162.7179 C   0  0  0  0  0  0  0  0  0  0  0  0
  147.2701  135.8668  161.4144 C   0  0  0  0  0  0  0  0  0  0  0  0
  147.7404  134.7539  160.7769 C   0  0  0  0  0  0  0  0  0  0  0  0
  148.2915  135.2767  159.5753 C   0  0  0  0  0  0  0  0  0  0  0  0
  148.8698  134.5652  158.5955 N   0  5  0  0  0  0  0  0  0  0  0  0
  149.0015  135.0918  157.3572 C   0  0  0  0  0  0  0  0  0  0  0  0
  150.0005  135.6538  156.9018 O   0  0  0  0  0  0  0  0  0  0  0  0
  147.9035  134.9641  156.5985 N   0  0  0  0  0  0  0  0  0  0  0  0
  147.7540  135.4507  155.2326 C   0  0  0  0  0  0  0  0  0  0  0  0
  147.3345  134.3174  154.2775 C   0  0  0  0  0  0  0  0  0  0  0  0
  146.7515  134.8321  153.0140 N   0  3  1  0  0  0  0  0  0  0  0  0
  146.5026  133.7481  152.0293 C   0  0  0  0  0  0  0  0  0  0  0  0
  146.0479  134.3207  150.6777 C   0  0  0  0  0  0  0  0  0  0  0  0
  144.8064  135.2082  150.8449 C   0  0  0  0  0  0  0  0  0  0  0  0
  145.0367  136.2959  151.9103 C   0  0  2  0  0  0  0  0  0  0  0  0
  145.9577  137.4267  151.4196 C   0  0  0  0  0  0  0  0  0  0  0  0
  145.5373  135.6666  153.2270 C   0  0  0  0  0  0  0  0  0  0  0  0
  148.1539  136.5887  159.4846 N   0  0  0  0  0  0  0  0  0  0  0  0
  147.5033  136.9757  160.6623 O   0  0  0  0  0  0  0  0  0  0  0  0
  145.5139  135.8475  162.6274 H   0  0  0  0  0  0  0  0  0  0  0  0
  146.6800  137.1004  163.0600 H   0  0  0  0  0  0  0  0  0  0  0  0
  146.9962  135.4179  163.4840 H   0  0  0  0  0  0  0  0  0  0  0  0
  147.6997  133.7298  161.1160 H   0  0  0  0  0  0  0  0  0  0  0  0
  147.1089  134.4956  157.0094 H   0  0  0  0  0  0  0  0  0  0  0  0
  147.0393  136.2738  155.2245 H   0  0  0  0  0  0  0  0  0  0  0  0
  148.7103  135.8675  154.9161 H   0  0  0  0  0  0  0  0  0  0  0  0
  148.2232  133.7257  154.0519 H   0  0  0  0  0  0  0  0  0  0  0  0
  146.6273  133.6367  154.7538 H   0  0  0  0  0  0  0  0  0  0  0  0
  147.4130  133.1666  151.8795 H   0  0  0  0  0  0  0  0  0  0  0  0
  145.7498  133.0634  152.4233 H   0  0  0  0  0  0  0  0  0  0  0  0
  146.8597  134.8942  150.2291 H   0  0  0  0  0  0  0  0  0  0  0  0
  145.8302  133.5074  149.9847 H   0  0  0  0  0  0  0  0  0  0  0  0
  144.5288  135.6572  149.8907 H   0  0  0  0  0  0  0  0  0  0  0  0
  143.9625  134.5853  151.1451 H   0  0  0  0  0  0  0  0  0  0  0  0
  144.0696  136.7565  152.1162 H   0  0  0  0  0  0  0  0  0  0  0  0
  146.9672  137.0711  151.2143 H   0  0  0  0  0  0  0  0  0  0  0  0
  146.0342  138.2183  152.1656 H   0  0  0  0  0  0  0  0  0  0  0  0
  145.5719  137.8776  150.5047 H   0  0  0  0  0  0  0  0  0  0  0  0
  144.7518  135.0448  153.6596 H   0  0  0  0  0  0  0  0  0  0  0  0
  145.7338  136.4576  153.9497 H   0  0  0  0  0  0  0  0  0  0  0  0
  147.4527  135.4310  152.6020 H   0  0  0  0  0  0  0  0  0  0  0  0
  1  2  1  0  0  0  0
  1 20  1  0  0  0  0
  1 21  1  0  0  0  0
  1 22  1  0  0  0  0
  2 19  1  0  0  0  0
  2  3  2  0  0  0  0
  3  4  1  0  0  0  0
  3 23  1  0  0  0  0
  4  5  1  0  0  0  0
  4 18  2  0  0  0  0
  5  6  1  0  0  0  0
  6  7  2  0  0  0  0
  6  8  1  0  0  0  0
  8  9  1  0  0  0  0
  8 24  1  0  0  0  0
  9 10  1  0  0  0  0
  9 25  1  0  0  0  0
  9 26  1  0  0  0  0
 10 11  1  0  0  0  0
 10 27  1  0  0  0  0
 10 28  1  0  0  0  0
 11 17  1  0  0  0  0
 11 12  1  0  0  0  0
 11 41  1  0  0  0  0
 12 13  1  0  0  0  0
 12 29  1  0  0  0  0
 12 30  1  0  0  0  0
 13 14  1  0  0  0  0
 13 31  1  0  0  0  0
 13 32  1  0  0  0  0
 14 15  1  0  0  0  0
 14 33  1  0  0  0  0
 14 34  1  0  0  0  0
 15 16  1  0  0  0  0
 15 17  1  0  0  0  0
 15 35  1  0  0  0  0
 16 36  1  0  0  0  0
 16 37  1  0  0  0  0
 16 38  1  0  0  0  0
 17 39  1  0  0  0  0
 17 40  1  0  0  0  0
 18 19  1  0  0  0  0
M  CHG  1   5  -1
M  CHG  1  11   1
M  END
> <s_m_source_file>
AV-unprocessed.smi

> <i_m_source_file_index>
2078

> <i_lp_mmshare_version>
43012

> <i_f3d_flags>
0

> <s_epik_input>
W0NIM11jMVtjSF1jKG5vMSlbTkhdQyg9TylbTkhdW0NIMl1bQ0gyXU4yW0NIMl1bQ0gyXVtDSDJdW0NAQEhdKFtDSDNdKVtDSDJdMg==

> <s_epik_cmdline>
J2VwaWtfcHl0aG9uJywgJy1waCcsICc3LjAnLCAnLXRuJywgJzgnLCAnLW1hJywgJzIwMCcsICctbWV0YWxfYmluZGluZycsICctaW1hZScsICc8aW5maWxlLm1hZT4nLCAnLW9tYWUnLCAnPG91dGZpbGUubWFlPic=

> <r_epik_Ionization_Penalty>
6.22434

> <r_epik_Ionization_Penalty_Charging>
6.22425

> <r_epik_Ionization_Penalty_Neutral>
9.37855e-05

> <r_epik_State_Penalty>
6.22423

> <r_epik_Charging_Adjusted_Penalty>
12.4485

> <i_epik_Tot_Q>
0

> <i_epik_Tot_abs_Q>
2

> <r_epik_Metal_State_Penalty>
2.16764

> <b_epik_Metal_Only>
1

> <s_lp_Force_Field>
OPLS_2005

> <r_lp_Energy>
5.82233

> <b_lp_Chiralities_Consistent>
1

> <s_lp_Variant>
AV-unprocessed.smi:2078-7

> <Gold.Version>
5.8.1

> <Gold.Id.Protein>
6NUR|6NUR_protein|mol2

> <Gold.PLP.Fitness>
40.7800

> <Gold.PLP.PLP>
-25.5601

> <Gold.PLP.part.hbond>
-4.0000

> <Gold.PLP.part.metal>
0.0000

> <Gold.PLP.part.buried>
-0.4781

> <Gold.PLP.part.nonpolar>
-21.1896

> <Gold.PLP.part.repulsive>
0.0075

> <Gold.PLP.ligand.clash>
0.0000

> <Gold.PLP.ligand.torsion>
0.9250

> <Gold.PLP.Chemscore.Hbond>
5.6800

> <Gold.PLP.Chemscore.CHOScore>
0.0000

> <Gold.PLP.Chemscore.Metal>
0.0000

> <Gold.Chemscore.Hbonds>
donor molecule, donor type, donor heavy atom, donor atom, acceptor molecule, acceptor atom, score
      L1  H    11    41       P1  7948  2.00
      P1  H  6896  6908       L1     5  2.00
      P1  H  6931  6943       L1    19  0.18
      P1  H  6934  6947       L1    19  0.86

> <Gold.PLP.Chemscore.Internal.Correction>
0.0299

> <Gold.Rescore>
     Score         DG    S(hbond)    S(metal)    S(lipo)     H(rot)  DE(clash)    DE(int)     intcor
     16.07     -17.52       2.73        0.00      58.83       1.54       0.32       1.12       ----

> <Gold.Chemscore.Fitness>
16.0749

> <Gold.Chemscore.DG>
-17.5209

> <Gold.Chemscore.ZeroCoef>
-5.4800

> <Gold.Chemscore.Hbond>
2.7251

> <Gold.Chemscore.Metal>
0.0000

> <Gold.Chemscore.Lipo>
58.8350

> <Gold.Chemscore.Internal_Hbond>
0.0000

> <Gold.Chemscore.DEClash>
0.3249

> <Gold.Chemscore.DEInternal>
1.1211

> <Gold.Chemscore.Rot>
1.5409

> <Gold.Chemscore.Internal.Correction>
   9.000000E+99

> <Gold.Chemscore.Hbonds>
donor molecule, donor type, donor heavy atom, donor atom, acceptor molecule, acceptor atom, score
      L1  H    11    41       P1  7948  1.00
      P1  H  6896  6908       L1     5  0.20
      P1  H  6931  6943       L1    19  0.07
      P1  H  6934  6947       L1    19  0.75

> <Gold.Chemscore.Hbond.Weighted>
-9.1018

> <Gold.Chemscore.Metal.Weighted>
-0.0000

> <Gold.Chemscore.Lipo.Weighted>
-6.8837

> <Gold.Chemscore.Internal_Hbond.Weighted>
0.0000

> <Gold.Chemscore.DEClash.Weighted>
0.3249

> <Gold.Chemscore.DEInternal.Weighted>
1.1211

> <Gold.Chemscore.Rot.Weighted>
3.9446

> <Gold.Chemscore.Internal.Correction.Weighted>
   9.000000E+99

> <Gold.Protein.RotatedTorsions>
[ 6907 6896 6895 6894 ] final  146.62 input  -60.11 | X-H torsion
[ 7974 7965 7964 7962 ] final  119.31 input  175.53 | X-H torsion
[ 8008 7997 7996 7995 ] final  -28.54 input   59.86 | X-H torsion
[ 10167 10162 10161 10158 ] final  128.30 input  -65.29 | X-H torsion
[ 10718 10713 10712 10709 ] final   14.67 input   66.30 | X-H torsion
[ 10763 10752 10751 10750 ] final   36.48 input  -60.55 | X-H torsion
[ 11005 11000 10999 10996 ] final  -48.09 input  -57.11 | X-H torsion

> <Gold.Protein.ActiveResidues>
 VAL166  LYS551  ARG553  GLY616  TRP617  ASP618  TYR619  PRO620  LYS621  CYS622 
 ASP623  PHE694  ASN695  SER759  ASP760  ASP761  ALA762  ILE779  LEU786  VAL792 
 PHE793  MET794  SER795  GLU796  ALA797  LYS798  CYS799  TRP800  GLU811  SER814 

> <Gold.Protein.RotatedAtoms>
  152.1655  133.4609  159.4882 H   0  0  0  0  0  0  0  0  0  0  0  0  # atno 6907 bound_to 6896
  150.6912  134.2019  159.4334 H   0  0  0  0  0  0  0  0  0  0  0  0  # atno 6908 bound_to 6896
  151.9923  134.9972  160.0612 H   0  0  0  0  0  0  0  0  0  0  0  0  # atno 6909 bound_to 6896
  145.1447  139.3246  143.4597 H   0  0  0  0  0  0  0  0  0  0  0  0  # atno 7974 bound_to 7965
  154.4328  140.1842  156.1106 H   0  0  0  0  0  0  0  0  0  0  0  0  # atno 8008 bound_to 7997
  156.0220  140.3339  155.7024 H   0  0  0  0  0  0  0  0  0  0  0  0  # atno 8009 bound_to 7997
  155.5962  140.0636  157.2736 H   0  0  0  0  0  0  0  0  0  0  0  0  # atno 8010 bound_to 7997
  139.5534  144.6831  151.4254 H   0  0  0  0  0  0  0  0  0  0  0  0  # atno 10167 bound_to 10162
  157.0424  130.6236  149.5753 H   0  0  0  0  0  0  0  0  0  0  0  0  # atno 10718 bound_to 10713
  153.0075  135.6304  154.1991 H   0  0  0  0  0  0  0  0  0  0  0  0  # atno 10763 bound_to 10752
  154.1735  135.2817  155.3075 H   0  0  0  0  0  0  0  0  0  0  0  0  # atno 10764 bound_to 10752
  154.5890  135.5623  153.7320 H   0  0  0  0  0  0  0  0  0  0  0  0  # atno 10765 bound_to 10752
  141.0680  133.6688  156.3391 H   0  0  0  0  0  0  0  0  0  0  0  0  # atno 11005 bound_to 11000
  146.3501  140.1498  142.8592 LP  0  0  0  0  0  0  0  0  0  0  0  0  # atno 17320 bound_to 7965
  145.0494  140.9006  143.5004 LP  0  0  0  0  0  0  0  0  0  0  0  0  # atno 17321 bound_to 7965
  140.6802  143.8099  150.7111 LP  0  0  0  0  0  0  0  0  0  0  0  0  # atno 17342 bound_to 10162
  140.1550  143.4325  152.2106 LP  0  0  0  0  0  0  0  0  0  0  0  0  # atno 17343 bound_to 10162
  156.0034  130.5116  150.7743 LP  0  0  0  0  0  0  0  0  0  0  0  0  # atno 17370 bound_to 10713
  157.5094  131.0924  151.0217 LP  0  0  0  0  0  0  0  0  0  0  0  0  # atno 17371 bound_to 10713
  140.5733  134.5818  157.5463 LP  0  0  0  0  0  0  0  0  0  0  0  0  # atno 17394 bound_to 11000
  139.9495  134.7642  156.0482 LP  0  0  0  0  0  0  0  0  0  0  0  0  # atno 17395 bound_to 11000

$$$$
