AV-unprocessed.smi:2448|AV-procd|sdf|9657|dock4
  -GOLD-   2272013293D 1   1.00000     0.00000
 Structure written by MMmdl.
 38 39  0  0  0  0  0  0  0  0  2 V2000
  149.7691  142.9785  158.8086 O   0  0  0  0  0  0  0  0  0  0  0  0
  150.9934  142.9939  158.0945 C   0  0  1  0  0  0  0  0  0  0  0  0
  150.8162  142.1439  156.8200 C   0  0  0  0  0  0  0  0  0  0  0  0
  149.4637  142.3072  156.2411 N   0  3  0  0  0  0  0  0  0  0  0  0
  148.9882  141.1981  155.3814 C   0  0  1  0  0  0  0  0  0  0  0  0
  149.1516  139.8402  156.1082 C   0  0  0  0  0  0  0  0  0  0  0  0
  150.4653  139.1346  155.8247 C   0  0  0  0  0  0  0  0  0  0  0  0
  151.5193  139.1699  156.7613 C   0  0  0  0  0  0  0  0  0  0  0  0
  152.7161  138.4929  156.4520 C   0  0  0  0  0  0  0  0  0  0  0  0
  152.9063  137.8122  155.3014 N   0  0  0  0  0  0  0  0  0  0  0  0
  151.8949  137.7863  154.4073 C   0  0  0  0  0  0  0  0  0  0  0  0
  150.6584  138.4290  154.6187 C   0  0  0  0  0  0  0  0  0  0  0  0
  147.5373  141.4944  154.9363 C   0  0  0  0  0  0  0  0  0  0  0  0
  147.0049  140.3940  154.4032 F   0  0  0  0  0  0  0  0  0  0  0  0
  146.7715  141.8554  155.9650 F   0  0  0  0  0  0  0  0  0  0  0  0
  147.5218  142.4619  154.0191 F   0  0  0  0  0  0  0  0  0  0  0  0
  151.3333  144.4587  157.7731 C   0  0  0  0  0  0  0  0  0  0  0  0
  151.7964  145.1285  159.0709 C   0  0  0  0  0  0  0  0  0  0  0  0
  152.6774  143.8815  160.0428 S   0  0  0  0  0  0  0  0  0  0  0  0
  152.1292  142.4978  159.0083 C   0  0  0  0  0  0  0  0  0  0  0  0
  149.9418  142.7283  159.7038 H   0  0  0  0  0  0  0  0  0  0  0  0
  151.5647  142.4275  156.0788 H   0  0  0  0  0  0  0  0  0  0  0  0
  150.9864  141.0934  157.0558 H   0  0  0  0  0  0  0  0  0  0  0  0
  148.7958  142.4580  156.9835 H   0  0  0  0  0  0  0  0  0  0  0  0
  149.6058  141.1919  154.4820 H   0  0  0  0  0  0  0  0  0  0  0  0
  149.0906  139.9760  157.1879 H   0  0  0  0  0  0  0  0  0  0  0  0
  148.3264  139.1779  155.8430 H   0  0  0  0  0  0  0  0  0  0  0  0
  151.4174  139.6978  157.6982 H   0  0  0  0  0  0  0  0  0  0  0  0
  153.5417  138.4980  157.1482 H   0  0  0  0  0  0  0  0  0  0  0  0
  152.0760  137.2358  153.4961 H   0  0  0  0  0  0  0  0  0  0  0  0
  149.8802  138.3765  153.8715 H   0  0  0  0  0  0  0  0  0  0  0  0
  152.1528  144.4904  157.0536 H   0  0  0  0  0  0  0  0  0  0  0  0
  150.4962  144.9920  157.3204 H   0  0  0  0  0  0  0  0  0  0  0  0
  152.4277  145.9973  158.8832 H   0  0  0  0  0  0  0  0  0  0  0  0
  150.9346  145.4640  159.6489 H   0  0  0  0  0  0  0  0  0  0  0  0
  151.8365  141.6446  159.6217 H   0  0  0  0  0  0  0  0  0  0  0  0
  152.9847  142.1876  158.4072 H   0  0  0  0  0  0  0  0  0  0  0  0
  149.4903  143.1394  155.6682 H   0  0  0  0  0  0  0  0  0  0  0  0
  1  2  1  0  0  0  0
  1 21  1  0  0  0  0
  2 20  1  0  0  0  0
  2  3  1  0  0  0  0
  2 17  1  0  0  0  0
  3  4  1  0  0  0  0
  3 22  1  0  0  0  0
  3 23  1  0  0  0  0
  4  5  1  0  0  0  0
  4 24  1  0  0  0  0
  4 38  1  0  0  0  0
  5  6  1  0  0  0  0
  5 13  1  0  0  0  0
  5 25  1  0  0  0  0
  6  7  1  0  0  0  0
  6 26  1  0  0  0  0
  6 27  1  0  0  0  0
  7 12  1  0  0  0  0
  7  8  2  0  0  0  0
  8  9  1  0  0  0  0
  8 28  1  0  0  0  0
  9 10  2  0  0  0  0
  9 29  1  0  0  0  0
 10 11  1  0  0  0  0
 11 12  2  0  0  0  0
 11 30  1  0  0  0  0
 12 31  1  0  0  0  0
 13 14  1  0  0  0  0
 13 15  1  0  0  0  0
 13 16  1  0  0  0  0
 17 18  1  0  0  0  0
 17 32  1  0  0  0  0
 17 33  1  0  0  0  0
 18 19  1  0  0  0  0
 18 34  1  0  0  0  0
 18 35  1  0  0  0  0
 19 20  1  0  0  0  0
 20 36  1  0  0  0  0
 20 37  1  0  0  0  0
M  CHG  1   4   1
M  END
> <s_m_source_file>
AV-unprocessed.smi

> <i_m_source_file_index>
2448

> <i_lp_mmshare_version>
43012

> <i_f3d_flags>
0

> <s_epik_input>
W0NIMl0xU1tDSDJdW0NIMl1bQ0BAXTEoW09IXSlbQ0gyXVtOSF1bQ0BASF0oQyhGKShGKUYpW0NIMl1jMltjSF1bY0hdbltjSF1bY0hdMg==

> <s_epik_cmdline>
J2VwaWtfcHl0aG9uJywgJy1waCcsICc3LjAnLCAnLXRuJywgJzgnLCAnLW1hJywgJzIwMCcsICctbWV0YWxfYmluZGluZycsICctaW1hZScsICc8aW5maWxlLm1hZT4nLCAnLW9tYWUnLCAnPG91dGZpbGUubWFlPic=

> <r_epik_Ionization_Penalty>
1.19945

> <r_epik_Ionization_Penalty_Charging>
1.19892

> <r_epik_Ionization_Penalty_Neutral>
0.000532129

> <r_epik_State_Penalty>
0.752927

> <r_epik_Charging_Adjusted_Penalty>
1.95185

> <i_epik_Tot_Q>
1

> <i_epik_Tot_abs_Q>
1

> <r_epik_Metal_State_Penalty>
0.804507

> <b_epik_Metal_Only>
0

> <s_lp_Force_Field>
OPLS_2005

> <r_lp_Energy>
21.3844

> <b_lp_Chiralities_Consistent>
1

> <s_lp_Variant>
AV-unprocessed.smi:2448-7

> <Gold.Version>
5.8.1

> <Gold.Id.Protein>
6NUR|6NUR_protein|mol2

> <Gold.PLP.Fitness>
47.4118

> <Gold.PLP.PLP>
-40.7212

> <Gold.PLP.part.hbond>
-2.4065

> <Gold.PLP.part.metal>
0.0000

> <Gold.PLP.part.buried>
-4.5436

> <Gold.PLP.part.nonpolar>
-35.3365

> <Gold.PLP.part.repulsive>
0.1174

> <Gold.PLP.ligand.clash>
0.0000

> <Gold.PLP.ligand.torsion>
1.4920

> <Gold.PLP.Chemscore.Hbond>
1.9738

> <Gold.PLP.Chemscore.CHOScore>
1.0000

> <Gold.PLP.Chemscore.Metal>
0.0000

> <Gold.Chemscore.Hbonds>
donor molecule, donor type, donor heavy atom, donor atom, acceptor molecule, acceptor atom, score
      L1  H     4    38       P1  8028  1.60
      P1  H 10752 10765       L1    10  0.02
      L1  C    11    30       P1  7949  1.00

> <Gold.PLP.Chemscore.Internal.Correction>
0.7533

> <Gold.Rescore>
     Score         DG    S(hbond)    S(metal)    S(lipo)     H(rot)  DE(clash)    DE(int)     intcor
     15.31     -16.62       1.36        0.00     108.64       2.39       0.27       1.04       ----

> <Gold.Chemscore.Fitness>
15.3099

> <Gold.Chemscore.DG>
-16.6221

> <Gold.Chemscore.ZeroCoef>
-5.4800

> <Gold.Chemscore.Hbond>
1.3594

> <Gold.Chemscore.Metal>
0.0000

> <Gold.Chemscore.Lipo>
108.6448

> <Gold.Chemscore.Internal_Hbond>
0.0000

> <Gold.Chemscore.DEClash>
0.2734

> <Gold.Chemscore.DEInternal>
1.0388

> <Gold.Chemscore.Rot>
2.3866

> <Gold.Chemscore.Internal.Correction>
   9.000000E+99

> <Gold.Chemscore.Hbonds>
donor molecule, donor type, donor heavy atom, donor atom, acceptor molecule, acceptor atom, score
      L1  H     4    38       P1  8028  0.80

> <Gold.Chemscore.Hbond.Weighted>
-4.5403

> <Gold.Chemscore.Metal.Weighted>
-0.0000

> <Gold.Chemscore.Lipo.Weighted>
-12.7114

> <Gold.Chemscore.Internal_Hbond.Weighted>
0.0000

> <Gold.Chemscore.DEClash.Weighted>
0.2734

> <Gold.Chemscore.DEInternal.Weighted>
1.0388

> <Gold.Chemscore.Rot.Weighted>
6.1096

> <Gold.Chemscore.Internal.Correction.Weighted>
   9.000000E+99

> <Gold.Protein.RotatedTorsions>
[ 6907 6896 6895 6894 ] final   59.98 input  -60.11 | X-H torsion
[ 7974 7965 7964 7962 ] final  105.21 input  175.53 | X-H torsion
[ 8008 7997 7996 7995 ] final  -48.25 input   59.86 | X-H torsion
[ 10167 10162 10161 10158 ] final  -82.56 input  -65.29 | X-H torsion
[ 10718 10713 10712 10709 ] final  -41.56 input   66.30 | X-H torsion
[ 10763 10752 10751 10750 ] final -166.88 input  -60.55 | X-H torsion
[ 11005 11000 10999 10996 ] final -115.46 input  -57.11 | X-H torsion

> <Gold.Protein.ActiveResidues>
 VAL166  LYS551  ARG553  GLY616  TRP617  ASP618  TYR619  PRO620  LYS621  CYS622 
 ASP623  PHE694  ASN695  SER759  ASP760  ASP761  ALA762  ILE779  LEU786  VAL792 
 PHE793  MET794  SER795  GLU796  ALA797  LYS798  CYS799  TRP800  GLU811  SER814 

> <Gold.Protein.RotatedAtoms>
  152.3963  134.6360  160.0087 H   0  0  0  0  0  0  0  0  0  0  0  0  # atno 6907 bound_to 6896
  151.6579  133.3312  159.3175 H   0  0  0  0  0  0  0  0  0  0  0  0  # atno 6908 bound_to 6896
  150.7870  134.6906  159.6539 H   0  0  0  0  0  0  0  0  0  0  0  0  # atno 6909 bound_to 6896
  145.3226  139.2508  143.3704 H   0  0  0  0  0  0  0  0  0  0  0  0  # atno 7974 bound_to 7965
  154.4026  140.1326  156.4308 H   0  0  0  0  0  0  0  0  0  0  0  0  # atno 8008 bound_to 7997
  155.7553  140.3487  155.5150 H   0  0  0  0  0  0  0  0  0  0  0  0  # atno 8009 bound_to 7997
  155.8911  140.1003  157.1408 H   0  0  0  0  0  0  0  0  0  0  0  0  # atno 8010 bound_to 7997
  140.4308  143.2549  151.8762 H   0  0  0  0  0  0  0  0  0  0  0  0  # atno 10167 bound_to 10162
  156.2691  130.4205  149.8458 H   0  0  0  0  0  0  0  0  0  0  0  0  # atno 10718 bound_to 10713
  154.6789  135.2951  154.9641 H   0  0  0  0  0  0  0  0  0  0  0  0  # atno 10763 bound_to 10752
  154.0643  135.6627  153.4820 H   0  0  0  0  0  0  0  0  0  0  0  0  # atno 10764 bound_to 10752
  153.0534  135.5159  154.7821 H   0  0  0  0  0  0  0  0  0  0  0  0  # atno 10765 bound_to 10752
  141.0486  133.9723  157.2875 H   0  0  0  0  0  0  0  0  0  0  0  0  # atno 11005 bound_to 11000
  146.3076  140.3787  142.8681 LP  0  0  0  0  0  0  0  0  0  0  0  0  # atno 17320 bound_to 7965
  144.8927  140.7544  143.5916 LP  0  0  0  0  0  0  0  0  0  0  0  0  # atno 17321 bound_to 7965
  139.4785  144.5336  151.8630 LP  0  0  0  0  0  0  0  0  0  0  0  0  # atno 17342 bound_to 10162
  140.4429  144.1961  150.5892 LP  0  0  0  0  0  0  0  0  0  0  0  0  # atno 17343 bound_to 10162
  156.5946  130.8521  151.3416 LP  0  0  0  0  0  0  0  0  0  0  0  0  # atno 17370 bound_to 10713
  157.7277  130.9647  150.1712 LP  0  0  0  0  0  0  0  0  0  0  0  0  # atno 17371 bound_to 10713
  139.9332  135.0198  156.8469 LP  0  0  0  0  0  0  0  0  0  0  0  0  # atno 17394 bound_to 11000
  140.6099  134.0092  155.7572 LP  0  0  0  0  0  0  0  0  0  0  0  0  # atno 17395 bound_to 11000

$$$$
