AV-unprocessed.smi:876|AV-procd|sdf|4023|dock6
  -GOLD-   22720 1513D 1   1.00000     0.00000
 Structure written by MMmdl.
 40 41  0  0  0  0  0  0  0  0  1 V2000
  151.7809  140.5692  157.9071 C   0  0  0  0  0  0  0  0  0  0  0  0
  150.9843  141.1586  156.8378 N   0  0  0  0  0  0  0  0  0  0  0  0
  151.0323  142.5982  156.6038 C   0  0  0  0  0  0  0  0  0  0  0  0
  150.1409  140.3444  156.0476 C   0  0  0  0  0  0  0  0  0  0  0  0
  148.8366  139.9942  156.4765 C   0  0  0  0  0  0  0  0  0  0  0  0
  148.0334  139.1805  155.6544 C   0  0  0  0  0  0  0  0  0  0  0  0
  148.5477  138.7374  154.4141 C   0  0  0  0  0  0  0  0  0  0  0  0
  147.8486  137.8985  153.5037 N   0  0  0  0  0  0  0  0  0  0  0  0
  146.5223  137.7515  153.3418 C   0  0  0  0  0  0  0  0  0  0  0  0
  145.6543  138.3718  153.9555 O   0  0  0  0  0  0  0  0  0  0  0  0
  146.2486  136.8408  152.3972 N   0  0  0  0  0  0  0  0  0  0  0  0
  144.9060  136.4517  151.9799 C   0  0  2  0  0  0  0  0  0  0  0  0
  144.2560  135.5881  153.0260 C   0  0  0  0  0  0  0  0  0  0  0  0
  143.8194  134.4298  152.5366 C   0  0  0  0  0  0  0  0  0  0  0  0
  144.0941  134.2771  151.0623 C   0  0  2  0  0  0  0  0  0  0  0  0
  144.8377  132.9741  150.7210 C   0  0  0  0  0  0  0  0  0  0  0  0
  144.9800  132.8344  149.3227 O   0  0  0  0  0  0  0  0  0  0  0  0
  144.9038  135.5526  150.7154 C   0  0  0  0  0  0  0  0  0  0  0  0
  149.8589  139.1265  154.0782 C   0  0  0  0  0  0  0  0  0  0  0  0
  150.6316  139.9061  154.8625 N   0  0  0  0  0  0  0  0  0  0  0  0
  144.2833  137.3356  151.8318 H   0  0  0  0  0  0  0  0  0  0  0  0
  143.1366  134.3017  150.5400 H   0  0  0  0  0  0  0  0  0  0  0  0
  152.4869  139.8433  157.5023 H   0  0  0  0  0  0  0  0  0  0  0  0
  151.1393  140.0672  158.6319 H   0  0  0  0  0  0  0  0  0  0  0  0
  152.3538  141.3278  158.4406 H   0  0  0  0  0  0  0  0  0  0  0  0
  150.0515  143.0459  156.7685 H   0  0  0  0  0  0  0  0  0  0  0  0
  151.3426  142.8100  155.5798 H   0  0  0  0  0  0  0  0  0  0  0  0
  151.7398  143.0872  157.2735 H   0  0  0  0  0  0  0  0  0  0  0  0
  148.4365  140.3275  157.4220 H   0  0  0  0  0  0  0  0  0  0  0  0
  147.0502  138.9051  156.0019 H   0  0  0  0  0  0  0  0  0  0  0  0
  148.4319  137.3728  152.8692 H   0  0  0  0  0  0  0  0  0  0  0  0
  147.0206  136.3822  151.9358 H   0  0  0  0  0  0  0  0  0  0  0  0
  144.1521  135.9065  154.0529 H   0  0  0  0  0  0  0  0  0  0  0  0
  143.3094  133.6681  153.1081 H   0  0  0  0  0  0  0  0  0  0  0  0
  145.8313  132.9777  151.1701 H   0  0  0  0  0  0  0  0  0  0  0  0
  144.3066  132.1078  151.1169 H   0  0  0  0  0  0  0  0  0  0  0  0
  145.2396  133.6685  148.9621 H   0  0  0  0  0  0  0  0  0  0  0  0
  144.4667  136.0764  149.8644 H   0  0  0  0  0  0  0  0  0  0  0  0
  145.9227  135.2886  150.4271 H   0  0  0  0  0  0  0  0  0  0  0  0
  150.3051  138.8057  153.1482 H   0  0  0  0  0  0  0  0  0  0  0  0
  1  2  1  0  0  0  0
  1 23  1  0  0  0  0
  1 24  1  0  0  0  0
  1 25  1  0  0  0  0
  2  3  1  0  0  0  0
  2  4  1  0  0  0  0
  3 26  1  0  0  0  0
  3 27  1  0  0  0  0
  3 28  1  0  0  0  0
  4 20  1  0  0  0  0
  4  5  2  0  0  0  0
  5  6  1  0  0  0  0
  5 29  1  0  0  0  0
  6  7  2  0  0  0  0
  6 30  1  0  0  0  0
  7  8  1  0  0  0  0
  7 19  1  0  0  0  0
  8  9  1  0  0  0  0
  8 31  1  0  0  0  0
  9 10  2  0  0  0  0
  9 11  1  0  0  0  0
 11 12  1  0  0  0  0
 11 32  1  0  0  0  0
 12 21  1  0  0  0  0
 12 18  1  0  0  0  0
 12 13  1  0  0  0  0
 13 14  2  0  0  0  0
 13 33  1  0  0  0  0
 14 15  1  0  0  0  0
 14 34  1  0  0  0  0
 15 22  1  0  0  0  0
 15 16  1  0  0  0  0
 15 18  1  0  0  0  0
 16 17  1  0  0  0  0
 16 35  1  0  0  0  0
 16 36  1  0  0  0  0
 17 37  1  0  0  0  0
 18 38  1  0  0  0  0
 18 39  1  0  0  0  0
 19 20  2  0  0  0  0
 19 40  1  0  0  0  0
M  END
> <s_m_source_file>
AV-unprocessed.smi

> <i_m_source_file_index>
876

> <i_lp_mmshare_version>
43012

> <i_f3d_flags>
0

> <s_epik_input>
W0NIM11OKFtDSDNdKWMxW2NIXVtjSF1jKFtjSF1uMSlbTkhdQyg9TylbTkhdW0NAQEhdMltDSF09W0NIXVtDQEBIXShbQ0gyXTIpW0NIMl1bT0hd

> <s_epik_cmdline>
J2VwaWtfcHl0aG9uJywgJy1waCcsICc3LjAnLCAnLXRuJywgJzgnLCAnLW1hJywgJzIwMCcsICctbWV0YWxfYmluZGluZycsICctaW1hZScsICc8aW5maWxlLm1hZT4nLCAnLW9tYWUnLCAnPG91dGZpbGUubWFlPic=

> <r_lp_tautomer_probability>
1

> <r_epik_Ionization_Penalty>
0.617998

> <r_epik_Ionization_Penalty_Charging>
0

> <r_epik_Ionization_Penalty_Neutral>
0.617998

> <r_epik_State_Penalty>
0.632637

> <r_epik_Charging_Adjusted_Penalty>
0.632637

> <i_epik_Tot_Q>
0

> <i_epik_Tot_abs_Q>
0

> <r_epik_Metal_State_Penalty>
0.305596

> <b_epik_Metal_Only>
0

> <s_lp_Force_Field>
OPLS_2005

> <r_lp_Energy>
21.6673

> <b_lp_Chiralities_Consistent>
1

> <s_lp_Variant>
AV-unprocessed.smi:876-5

> <Gold.Version>
5.8.1

> <Gold.Id.Protein>
6NUR|6NUR_protein|mol2

> <Gold.PLP.Fitness>
39.7586

> <Gold.PLP.PLP>
-29.2782

> <Gold.PLP.part.hbond>
-4.0000

> <Gold.PLP.part.metal>
0.0000

> <Gold.PLP.part.buried>
-3.4907

> <Gold.PLP.part.nonpolar>
-22.2968

> <Gold.PLP.part.repulsive>
0.2627

> <Gold.PLP.ligand.clash>
0.0000

> <Gold.PLP.ligand.torsion>
1.7686

> <Gold.PLP.Chemscore.Hbond>
3.9280

> <Gold.PLP.Chemscore.CHOScore>
0.7394

> <Gold.PLP.Chemscore.Metal>
0.0000

> <Gold.Chemscore.Hbonds>
donor molecule, donor type, donor heavy atom, donor atom, acceptor molecule, acceptor atom, score
      L1  H     8    31       P1  7948  1.00
      L1  H    11    32       P1  7948  0.91
      L1  H    17    37       P1  7921  1.00
      P1  H  7989  7998       L1    20  1.00
      L1  C    19    40       P1  7957  0.73

> <Gold.PLP.Chemscore.Internal.Correction>
0.0154

> <Gold.Rescore>
     Score         DG    S(hbond)    S(metal)    S(lipo)     H(rot)  DE(clash)    DE(int)     intcor
     15.04     -18.07       2.94        0.00      63.03       1.80       0.29       2.73       ----

> <Gold.Chemscore.Fitness>
15.0428

> <Gold.Chemscore.DG>
-18.0687

> <Gold.Chemscore.ZeroCoef>
-5.4800

> <Gold.Chemscore.Hbond>
2.9392

> <Gold.Chemscore.Metal>
0.0000

> <Gold.Chemscore.Lipo>
63.0313

> <Gold.Chemscore.Internal_Hbond>
0.0000

> <Gold.Chemscore.DEClash>
0.2946

> <Gold.Chemscore.DEInternal>
2.7313

> <Gold.Chemscore.Rot>
1.7980

> <Gold.Chemscore.Internal.Correction>
   9.000000E+99

> <Gold.Chemscore.Hbonds>
donor molecule, donor type, donor heavy atom, donor atom, acceptor molecule, acceptor atom, score
      L1  H     8    31       P1  7948  0.98
      L1  H    11    32       P1  7948  0.89
      L1  H    17    37       P1  7921  0.71
      P1  H  7989  7998       L1    20  0.25

> <Gold.Chemscore.Hbond.Weighted>
-9.8169

> <Gold.Chemscore.Metal.Weighted>
-0.0000

> <Gold.Chemscore.Lipo.Weighted>
-7.3747

> <Gold.Chemscore.Internal_Hbond.Weighted>
0.0000

> <Gold.Chemscore.DEClash.Weighted>
0.2946

> <Gold.Chemscore.DEInternal.Weighted>
2.7313

> <Gold.Chemscore.Rot.Weighted>
4.6029

> <Gold.Chemscore.Internal.Correction.Weighted>
   9.000000E+99

> <Gold.Protein.RotatedTorsions>
[ 6907 6896 6895 6894 ] final   13.98 input  -60.11 | X-H torsion
[ 7974 7965 7964 7962 ] final  -38.76 input  175.53 | X-H torsion
[ 8008 7997 7996 7995 ] final -157.57 input   59.86 | X-H torsion
[ 10167 10162 10161 10158 ] final -134.12 input  -65.29 | X-H torsion
[ 10718 10713 10712 10709 ] final -108.92 input   66.30 | X-H torsion
[ 10763 10752 10751 10750 ] final  -20.22 input  -60.55 | X-H torsion
[ 11005 11000 10999 10996 ] final -147.41 input  -57.11 | X-H torsion

> <Gold.Protein.ActiveResidues>
 VAL166  LYS551  ARG553  GLY616  TRP617  ASP618  TYR619  PRO620  LYS621  CYS622 
 ASP623  PHE694  ASN695  SER759  ASP760  ASP761  ALA762  ILE779  LEU786  VAL792 
 PHE793  MET794  SER795  GLU796  ALA797  LYS798  CYS799  TRP800  GLU811  SER814 

> <Gold.Protein.RotatedAtoms>
  151.7950  135.0725  160.0392 H   0  0  0  0  0  0  0  0  0  0  0  0  # atno 6907 bound_to 6896
  152.3130  133.5768  159.5701 H   0  0  0  0  0  0  0  0  0  0  0  0  # atno 6908 bound_to 6896
  150.7329  134.0041  159.3690 H   0  0  0  0  0  0  0  0  0  0  0  0  # atno 6909 bound_to 6896
  146.0457  140.6549  142.9066 H   0  0  0  0  0  0  0  0  0  0  0  0  # atno 7974 bound_to 7965
  155.7344  140.0806  157.2274 H   0  0  0  0  0  0  0  0  0  0  0  0  # atno 8008 bound_to 7997
  154.4029  140.1589  156.2600 H   0  0  0  0  0  0  0  0  0  0  0  0  # atno 8009 bound_to 7997
  155.9079  140.3405  155.6079 H   0  0  0  0  0  0  0  0  0  0  0  0  # atno 8010 bound_to 7997
  139.8913  143.6719  152.2611 H   0  0  0  0  0  0  0  0  0  0  0  0  # atno 10167 bound_to 10162
  156.0510  130.5738  150.8029 H   0  0  0  0  0  0  0  0  0  0  0  0  # atno 10718 bound_to 10713
  153.6170  135.6994  153.5325 H   0  0  0  0  0  0  0  0  0  0  0  0  # atno 10763 bound_to 10752
  153.2969  135.4140  155.1217 H   0  0  0  0  0  0  0  0  0  0  0  0  # atno 10764 bound_to 10752
  154.8551  135.3639  154.5710 H   0  0  0  0  0  0  0  0  0  0  0  0  # atno 10765 bound_to 10752
  140.7719  134.3179  157.5072 H   0  0  0  0  0  0  0  0  0  0  0  0  # atno 11005 bound_to 11000
  144.7097  140.3990  143.7090 LP  0  0  0  0  0  0  0  0  0  0  0  0  # atno 17320 bound_to 7965
  145.6809  139.1618  143.2701 LP  0  0  0  0  0  0  0  0  0  0  0  0  # atno 17321 bound_to 7965
  139.7107  144.7620  151.1117 LP  0  0  0  0  0  0  0  0  0  0  0  0  # atno 17342 bound_to 10162
  140.7726  143.5335  150.9396 LP  0  0  0  0  0  0  0  0  0  0  0  0  # atno 17343 bound_to 10162
  157.5436  131.0941  150.9793 LP  0  0  0  0  0  0  0  0  0  0  0  0  # atno 17370 bound_to 10713
  157.0069  130.5622  149.5317 LP  0  0  0  0  0  0  0  0  0  0  0  0  # atno 17371 bound_to 10713
  139.8754  134.9266  156.3404 LP  0  0  0  0  0  0  0  0  0  0  0  0  # atno 17394 bound_to 11000
  140.9565  133.7416  156.0343 LP  0  0  0  0  0  0  0  0  0  0  0  0  # atno 17395 bound_to 11000

$$$$
