AV-unprocessed.smi:1251|AV-procd|sdf|5261|dock2
  -GOLD-   22720 4373D 1   1.00000     0.00000
 Structure written by MMmdl.
 38 39  0  0  0  0  0  0  0  0  2 V2000
  147.0366  142.5321  153.9408 C   0  0  0  0  0  0  0  0  0  0  0  0
  147.9342  141.2943  153.8361 C   0  0  0  0  0  0  0  0  0  0  0  0
  148.9242  141.1838  155.0040 C   0  0  0  0  0  0  0  0  0  0  0  0
  149.7982  139.9786  154.9020 C   0  0  0  0  0  0  0  0  0  0  0  0
  151.1317  140.0490  154.8868 N   0  0  0  0  0  0  0  0  0  0  0  0
  151.7193  138.7988  154.7602 N   0  0  0  0  0  0  0  0  0  0  0  0
  150.8250  137.8055  154.6573 C   0  0  0  0  0  0  0  0  0  0  0  0
  151.1879  136.5184  154.5309 N   0  5  0  0  0  0  0  0  0  0  0  0
  150.4603  135.5485  155.1303 C   0  0  0  0  0  0  0  0  0  0  0  0
  150.6159  135.1218  156.2769 O   0  0  0  0  0  0  0  0  0  0  0  0
  149.4928  135.0434  154.3515 N   0  0  0  0  0  0  0  0  0  0  0  0
  148.5536  133.9841  154.7136 C   0  0  1  0  0  0  0  0  0  0  0  0
  147.1340  134.3826  154.2732 C   0  0  0  0  0  0  0  0  0  0  0  0
  149.0170  132.6636  154.0696 C   0  0  2  0  0  0  0  0  0  0  0  0
  148.0087  131.5177  154.1520 C   0  0  0  0  0  0  0  0  0  0  0  0
  148.8768  130.2783  154.0145 C   0  0  0  0  0  0  0  0  0  0  0  0
  150.2820  130.7677  154.3766 C   0  0  0  0  0  0  0  0  0  0  0  0
  150.1220  132.1218  154.7776 O   0  0  0  0  0  0  0  0  0  0  0  0
  149.1517  138.3559  154.7275 S   0  0  0  0  0  0  0  0  0  0  0  0
  146.3517  142.5874  153.0943 H   0  0  0  0  0  0  0  0  0  0  0  0
  147.6286  143.4476  153.9512 H   0  0  0  0  0  0  0  0  0  0  0  0
  146.4385  142.5085  154.8521 H   0  0  0  0  0  0  0  0  0  0  0  0
  147.3106  140.4003  153.8000 H   0  0  0  0  0  0  0  0  0  0  0  0
  148.4827  141.3267  152.8938 H   0  0  0  0  0  0  0  0  0  0  0  0
  149.5558  142.0721  155.0470 H   0  0  0  0  0  0  0  0  0  0  0  0
  148.3838  141.1400  155.9500 H   0  0  0  0  0  0  0  0  0  0  0  0
  149.4087  135.4228  153.4200 H   0  0  0  0  0  0  0  0  0  0  0  0
  148.5585  133.8537  155.7972 H   0  0  0  0  0  0  0  0  0  0  0  0
  146.3999  133.6354  154.5736 H   0  0  0  0  0  0  0  0  0  0  0  0
  147.0721  134.4959  153.1904 H   0  0  0  0  0  0  0  0  0  0  0  0
  146.8329  135.3292  154.7232 H   0  0  0  0  0  0  0  0  0  0  0  0
  149.3085  132.8264  153.0299 H   0  0  0  0  0  0  0  0  0  0  0  0
  147.5205  131.5159  155.1276 H   0  0  0  0  0  0  0  0  0  0  0  0
  147.2349  131.5777  153.3863 H   0  0  0  0  0  0  0  0  0  0  0  0
  148.5367  129.4788  154.6733 H   0  0  0  0  0  0  0  0  0  0  0  0
  148.8598  129.9016  152.9912 H   0  0  0  0  0  0  0  0  0  0  0  0
  150.7346  130.1810  155.1762 H   0  0  0  0  0  0  0  0  0  0  0  0
  150.9398  130.7234  153.5077 H   0  0  0  0  0  0  0  0  0  0  0  0
  1  2  1  0  0  0  0
  1 20  1  0  0  0  0
  1 21  1  0  0  0  0
  1 22  1  0  0  0  0
  2  3  1  0  0  0  0
  2 23  1  0  0  0  0
  2 24  1  0  0  0  0
  3  4  1  0  0  0  0
  3 25  1  0  0  0  0
  3 26  1  0  0  0  0
  4 19  1  0  0  0  0
  4  5  2  0  0  0  0
  5  6  1  0  0  0  0
  6  7  2  0  0  0  0
  7  8  1  0  0  0  0
  7 19  1  0  0  0  0
  8  9  1  0  0  0  0
  9 10  2  0  0  0  0
  9 11  1  0  0  0  0
 11 12  1  0  0  0  0
 11 27  1  0  0  0  0
 12 13  1  0  0  0  0
 12 14  1  0  0  0  0
 12 28  1  0  0  0  0
 13 29  1  0  0  0  0
 13 30  1  0  0  0  0
 13 31  1  0  0  0  0
 14 18  1  0  0  0  0
 14 15  1  0  0  0  0
 14 32  1  0  0  0  0
 15 16  1  0  0  0  0
 15 33  1  0  0  0  0
 15 34  1  0  0  0  0
 16 17  1  0  0  0  0
 16 35  1  0  0  0  0
 16 36  1  0  0  0  0
 17 18  1  0  0  0  0
 17 37  1  0  0  0  0
 17 38  1  0  0  0  0
M  CHG  1   8  -1
M  END
> <s_m_source_file>
AV-unprocessed.smi

> <i_m_source_file_index>
1251

> <i_lp_mmshare_version>
43012

> <i_f3d_flags>
0

> <s_epik_input>
W0NIM11bQ0gyXVtDSDJdYzFubmMoczEpW05IXUMoPU8pW05IXVtDQEhdKFtDSDNdKVtDQEBIXTJbQ0gyXVtDSDJdW0NIMl1PMg==

> <s_epik_cmdline>
J2VwaWtfcHl0aG9uJywgJy1waCcsICc3LjAnLCAnLXRuJywgJzgnLCAnLW1hJywgJzIwMCcsICctbWV0YWxfYmluZGluZycsICctaW1hZScsICc8aW5maWxlLm1hZT4nLCAnLW9tYWUnLCAnPG91dGZpbGUubWFlPic=

> <r_lp_tautomer_probability>
1

> <r_epik_Ionization_Penalty>
4.22551

> <r_epik_Ionization_Penalty_Charging>
4.21437

> <r_epik_Ionization_Penalty_Neutral>
0.0111434

> <r_epik_State_Penalty>
4.21389

> <r_epik_Charging_Adjusted_Penalty>
8.42826

> <i_epik_Tot_Q>
-1

> <i_epik_Tot_abs_Q>
1

> <r_epik_Metal_State_Penalty>
0.69377

> <b_epik_Metal_Only>
1

> <s_lp_Force_Field>
OPLS_2005

> <r_lp_Energy>
12.2708

> <b_lp_Chiralities_Consistent>
1

> <s_lp_Variant>
AV-unprocessed.smi:1251-6

> <Gold.Version>
5.8.1

> <Gold.Id.Protein>
6NUR|6NUR_protein|mol2

> <Gold.PLP.Fitness>
41.1729

> <Gold.PLP.PLP>
-32.1208

> <Gold.PLP.part.hbond>
-3.0000

> <Gold.PLP.part.metal>
0.0000

> <Gold.PLP.part.buried>
-6.6259

> <Gold.PLP.part.nonpolar>
-23.3209

> <Gold.PLP.part.repulsive>
0.6231

> <Gold.PLP.ligand.clash>
0.0000

> <Gold.PLP.ligand.torsion>
1.4397

> <Gold.PLP.Chemscore.Hbond>
3.9000

> <Gold.PLP.Chemscore.CHOScore>
0.0000

> <Gold.PLP.Chemscore.Metal>
0.0000

> <Gold.Chemscore.Hbonds>
donor molecule, donor type, donor heavy atom, donor atom, acceptor molecule, acceptor atom, score
      L1  H    11    27       P1  7948  0.85
      P1  H  7989  7998       L1     5  1.00
      P1  H 10752 10763       L1     8  1.90

> <Gold.PLP.Chemscore.Internal.Correction>
0.2315

> <Gold.Rescore>
     Score         DG    S(hbond)    S(metal)    S(lipo)     H(rot)  DE(clash)    DE(int)     intcor
     12.96     -14.61       1.92        0.00      57.04       1.55       0.30       1.35       ----

> <Gold.Chemscore.Fitness>
12.9561

> <Gold.Chemscore.DG>
-14.6097

> <Gold.Chemscore.ZeroCoef>
-5.4800

> <Gold.Chemscore.Hbond>
1.9209

> <Gold.Chemscore.Metal>
0.0000

> <Gold.Chemscore.Lipo>
57.0429

> <Gold.Chemscore.Internal_Hbond>
0.0000

> <Gold.Chemscore.DEClash>
0.3015

> <Gold.Chemscore.DEInternal>
1.3521

> <Gold.Chemscore.Rot>
1.5469

> <Gold.Chemscore.Internal.Correction>
   9.000000E+99

> <Gold.Chemscore.Hbonds>
donor molecule, donor type, donor heavy atom, donor atom, acceptor molecule, acceptor atom, score
      L1  H    11    27       P1  7948  0.15
      P1  H  7989  7998       L1     5  0.33
      P1  H 10752 10763       L1     8  0.21

> <Gold.Chemscore.Hbond.Weighted>
-6.4157

> <Gold.Chemscore.Metal.Weighted>
-0.0000

> <Gold.Chemscore.Lipo.Weighted>
-6.6740

> <Gold.Chemscore.Internal_Hbond.Weighted>
0.0000

> <Gold.Chemscore.DEClash.Weighted>
0.3015

> <Gold.Chemscore.DEInternal.Weighted>
1.3521

> <Gold.Chemscore.Rot.Weighted>
3.9600

> <Gold.Chemscore.Internal.Correction.Weighted>
   9.000000E+99

> <Gold.Protein.RotatedTorsions>
[ 6907 6896 6895 6894 ] final -140.70 input  -60.11 | X-H torsion
[ 7974 7965 7964 7962 ] final  162.02 input  175.53 | X-H torsion
[ 8008 7997 7996 7995 ] final  126.17 input   59.86 | X-H torsion
[ 10167 10162 10161 10158 ] final -130.60 input  -65.29 | X-H torsion
[ 10718 10713 10712 10709 ] final   12.85 input   66.30 | X-H torsion
[ 10763 10752 10751 10750 ] final   53.09 input  -60.55 | X-H torsion
[ 11005 11000 10999 10996 ] final  136.78 input  -57.11 | X-H torsion

> <Gold.Protein.ActiveResidues>
 VAL166  LYS551  ARG553  GLY616  TRP617  ASP618  TYR619  PRO620  LYS621  CYS622 
 ASP623  PHE694  ASN695  SER759  ASP760  ASP761  ALA762  ILE779  LEU786  VAL792 
 PHE793  MET794  SER795  GLU796  ALA797  LYS798  CYS799  TRP800  GLU811  SER814 

> <Gold.Protein.RotatedAtoms>
  151.0641  133.5519  159.2631 H   0  0  0  0  0  0  0  0  0  0  0  0  # atno 6907 bound_to 6896
  151.2483  135.0612  159.9062 H   0  0  0  0  0  0  0  0  0  0  0  0  # atno 6908 bound_to 6896
  152.5402  134.0406  159.8119 H   0  0  0  0  0  0  0  0  0  0  0  0  # atno 6909 bound_to 6896
  144.7657  139.7981  143.6316 H   0  0  0  0  0  0  0  0  0  0  0  0  # atno 7974 bound_to 7965
  156.2856  140.2699  156.2067 H   0  0  0  0  0  0  0  0  0  0  0  0  # atno 8008 bound_to 7997
  155.0305  140.0386  157.2490 H   0  0  0  0  0  0  0  0  0  0  0  0  # atno 8009 bound_to 7997
  154.7358  140.2715  155.6421 H   0  0  0  0  0  0  0  0  0  0  0  0  # atno 8010 bound_to 7997
  139.9276  143.6309  152.2538 H   0  0  0  0  0  0  0  0  0  0  0  0  # atno 10167 bound_to 10162
  157.0161  130.6136  149.5714 H   0  0  0  0  0  0  0  0  0  0  0  0  # atno 10718 bound_to 10713
  152.9793  135.5790  154.4686 H   0  0  0  0  0  0  0  0  0  0  0  0  # atno 10763 bound_to 10752
  154.4251  135.2772  155.1951 H   0  0  0  0  0  0  0  0  0  0  0  0  # atno 10764 bound_to 10752
  154.3683  135.6173  153.5780 H   0  0  0  0  0  0  0  0  0  0  0  0  # atno 10765 bound_to 10752
  140.0069  134.9455  157.0195 H   0  0  0  0  0  0  0  0  0  0  0  0  # atno 11005 bound_to 11000
  146.1762  139.4933  142.9896 LP  0  0  0  0  0  0  0  0  0  0  0  0  # atno 17320 bound_to 7965
  145.6478  141.0270  143.1776 LP  0  0  0  0  0  0  0  0  0  0  0  0  # atno 17321 bound_to 7965
  139.6809  144.7655  151.1610 LP  0  0  0  0  0  0  0  0  0  0  0  0  # atno 17342 bound_to 10162
  140.7646  143.5726  150.8979 LP  0  0  0  0  0  0  0  0  0  0  0  0  # atno 17343 bound_to 10162
  156.0119  130.5211  150.8014 LP  0  0  0  0  0  0  0  0  0  0  0  0  # atno 17370 bound_to 10713
  157.5285  131.0935  150.9987 LP  0  0  0  0  0  0  0  0  0  0  0  0  # atno 17371 bound_to 10713
  140.4624  134.1470  155.7193 LP  0  0  0  0  0  0  0  0  0  0  0  0  # atno 17394 bound_to 11000
  141.1683  133.8658  157.1647 LP  0  0  0  0  0  0  0  0  0  0  0  0  # atno 17395 bound_to 11000

$$$$
