AV-unprocessed.smi:261|AV-procd|sdf|1998|dock4
  -GOLD-   2262021193D 1   1.00000     0.00000
 Structure written by MMmdl.
 51 54  0  0  0  0  0  0  0  0  1 V2000
  146.6087  133.5121  154.7448 C   0  0  0  0  0  0  0  0  0  0  0  0
  147.8020  132.8012  155.0334 O   0  0  0  0  0  0  0  0  0  0  0  0
  148.8970  133.1463  154.1937 C   0  0  2  0  0  0  0  0  0  0  0  0
  150.1526  132.3244  154.5163 C   0  0  0  0  0  0  0  0  0  0  0  0
  150.8186  133.0586  155.6909 C   0  0  2  0  0  0  0  0  0  0  0  0
  150.3396  132.5096  157.0523 C   0  0  0  0  0  0  0  0  0  0  0  0
  150.6886  131.2686  157.4083 N   0  0  0  0  0  0  0  0  0  0  0  0
  149.6399  133.2122  157.7784 O   0  0  0  0  0  0  0  0  0  0  0  0
  150.4609  134.4557  155.4418 N   0  0  0  0  0  0  0  0  0  0  0  0
  151.0995  135.5402  155.9637 C   0  0  0  0  0  0  0  0  0  0  0  0
  152.0400  135.3208  156.9206 N   0  0  0  0  0  0  0  0  0  0  0  0
  152.7078  136.3376  157.4704 C   0  0  0  0  0  0  0  0  0  0  0  0
  152.5983  137.6407  157.2145 N   0  0  0  0  0  0  0  0  0  0  0  0
  151.6596  137.8773  156.2546 C   0  0  0  0  0  0  0  0  0  0  0  0
  150.8671  136.8985  155.5858 C   0  0  0  0  0  0  0  0  0  0  0  0
  150.0195  137.5348  154.6853 N   0  0  0  0  0  0  0  0  0  0  0  0
  150.2947  138.8027  154.8117 C   0  0  0  0  0  0  0  0  0  0  0  0
  151.2795  139.0990  155.7247 N   0  0  0  0  0  0  0  0  0  0  0  0
  151.7940  140.4182  156.0667 C   0  0  0  0  0  0  0  0  0  0  0  0
  151.7631  140.7325  157.5824 C   0  0  1  0  0  0  0  0  0  0  0  0
  152.7796  139.9782  158.2136 O   0  0  0  0  0  0  0  0  0  0  0  0
  151.9923  142.2174  157.9322 C   0  0  1  0  0  0  0  0  0  0  0  0
  150.8461  143.1493  157.5305 C   0  0  0  0  0  0  0  0  0  0  0  0
  151.0000  144.3319  158.4719 C   0  0  0  0  0  0  0  0  0  0  0  0
  151.8527  143.7786  159.6150 C   0  0  0  0  0  0  0  0  0  0  0  0
  151.9778  142.3899  159.3422 O   0  0  0  0  0  0  0  0  0  0  0  0
  149.3250  134.5785  154.5327 C   0  0  0  0  0  0  0  0  0  0  0  0
  148.6081  133.0672  153.1443 H   0  0  0  0  0  0  0  0  0  0  0  0
  151.8960  132.9144  155.6159 H   0  0  0  0  0  0  0  0  0  0  0  0
  145.8248  133.1983  155.4338 H   0  0  0  0  0  0  0  0  0  0  0  0
  146.2554  133.3221  153.7316 H   0  0  0  0  0  0  0  0  0  0  0  0
  146.7515  134.5862  154.8690 H   0  0  0  0  0  0  0  0  0  0  0  0
  149.9494  131.2720  154.7157 H   0  0  0  0  0  0  0  0  0  0  0  0
  150.8241  132.3544  153.6572 H   0  0  0  0  0  0  0  0  0  0  0  0
  150.3759  130.8933  158.2919 H   0  0  0  0  0  0  0  0  0  0  0  0
  151.2563  130.7091  156.7888 H   0  0  0  0  0  0  0  0  0  0  0  0
  153.4360  136.0673  158.2208 H   0  0  0  0  0  0  0  0  0  0  0  0
  149.7795  139.5556  154.2352 H   0  0  0  0  0  0  0  0  0  0  0  0
  152.8098  140.5033  155.6798 H   0  0  0  0  0  0  0  0  0  0  0  0
  151.2067  141.1611  155.5257 H   0  0  0  0  0  0  0  0  0  0  0  0
  150.8012  140.4130  157.9848 H   0  0  0  0  0  0  0  0  0  0  0  0
  152.4002  139.1775  158.5423 H   0  0  0  0  0  0  0  0  0  0  0  0
  152.9378  142.5824  157.5256 H   0  0  0  0  0  0  0  0  0  0  0  0
  150.8734  143.4448  156.4829 H   0  0  0  0  0  0  0  0  0  0  0  0
  149.8875  142.6617  157.7141 H   0  0  0  0  0  0  0  0  0  0  0  0
  151.5124  145.1612  157.9827 H   0  0  0  0  0  0  0  0  0  0  0  0
  150.0308  144.6910  158.8190 H   0  0  0  0  0  0  0  0  0  0  0  0
  152.8421  144.2382  159.6151 H   0  0  0  0  0  0  0  0  0  0  0  0
  151.3997  143.9426  160.5930 H   0  0  0  0  0  0  0  0  0  0  0  0
  149.6526  135.0950  153.6293 H   0  0  0  0  0  0  0  0  0  0  0  0
  148.5076  135.1520  154.9729 H   0  0  0  0  0  0  0  0  0  0  0  0
  1  2  1  0  0  0  0
  1 30  1  0  0  0  0
  1 31  1  0  0  0  0
  1 32  1  0  0  0  0
  2  3  1  0  0  0  0
  3 28  1  0  0  0  0
  3 27  1  0  0  0  0
  3  4  1  0  0  0  0
  4  5  1  0  0  0  0
  4 33  1  0  0  0  0
  4 34  1  0  0  0  0
  5 29  1  0  0  0  0
  5  6  1  0  0  0  0
  5  9  1  0  0  0  0
  6  7  1  0  0  0  0
  6  8  2  0  0  0  0
  7 35  1  0  0  0  0
  7 36  1  0  0  0  0
  9 10  1  0  0  0  0
  9 27  1  0  0  0  0
 10 15  1  0  0  0  0
 10 11  2  0  0  0  0
 11 12  1  0  0  0  0
 12 13  2  0  0  0  0
 12 37  1  0  0  0  0
 13 14  1  0  0  0  0
 14 18  1  0  0  0  0
 14 15  2  0  0  0  0
 15 16  1  0  0  0  0
 16 17  2  0  0  0  0
 17 18  1  0  0  0  0
 17 38  1  0  0  0  0
 18 19  1  0  0  0  0
 19 20  1  0  0  0  0
 19 39  1  0  0  0  0
 19 40  1  0  0  0  0
 20 21  1  0  0  0  0
 20 22  1  0  0  0  0
 20 41  1  0  0  0  0
 21 42  1  0  0  0  0
 22 26  1  0  0  0  0
 22 23  1  0  0  0  0
 22 43  1  0  0  0  0
 23 24  1  0  0  0  0
 23 44  1  0  0  0  0
 23 45  1  0  0  0  0
 24 25  1  0  0  0  0
 24 46  1  0  0  0  0
 24 47  1  0  0  0  0
 25 26  1  0  0  0  0
 25 48  1  0  0  0  0
 25 49  1  0  0  0  0
 27 50  1  0  0  0  0
 27 51  1  0  0  0  0
M  END
> <s_m_source_file>
AV-unprocessed.smi

> <i_m_source_file_index>
261

> <i_lp_mmshare_version>
43012

> <i_f3d_flags>
0

> <s_epik_input>
W0NIM11PW0NASF0xW0NIMl1bQ0BASF0oQyg9TylbTkgyXSlOKFtDSDJdMSljKG5bY0hdbjIpYyhjMjMpbltjSF1uM1tDSDJdW0NASF0oW09IXSlbQ0BASF00W0NIMl1bQ0gyXVtDSDJdTzQ=

> <s_epik_cmdline>
J2VwaWtfcHl0aG9uJywgJy1waCcsICc3LjAnLCAnLXRuJywgJzgnLCAnLW1hJywgJzIwMCcsICctbWV0YWxfYmluZGluZycsICctaW1hZScsICc8aW5maWxlLm1hZT4nLCAnLW9tYWUnLCAnPG91dGZpbGUubWFlPic=

> <r_lp_tautomer_probability>
1

> <r_epik_Ionization_Penalty>
0.000713824

> <r_epik_Ionization_Penalty_Charging>
0

> <r_epik_Ionization_Penalty_Neutral>
0.000713824

> <r_epik_State_Penalty>
0.000402132

> <r_epik_Charging_Adjusted_Penalty>
0.000402132

> <i_epik_Tot_Q>
0

> <i_epik_Tot_abs_Q>
0

> <r_epik_Metal_State_Penalty>
-0

> <b_epik_Metal_Only>
0

> <s_lp_Force_Field>
OPLS_2005

> <r_lp_Energy>
45.1221

> <b_lp_Chiralities_Consistent>
1

> <s_lp_Variant>
AV-unprocessed.smi:261-16

> <Gold.Version>
5.8.1

> <Gold.Id.Protein>
6NUR|6NUR_protein|mol2

> <Gold.PLP.Fitness>
43.0197

> <Gold.PLP.PLP>
-37.1244

> <Gold.PLP.part.hbond>
-3.0000

> <Gold.PLP.part.metal>
0.0000

> <Gold.PLP.part.buried>
-5.3238

> <Gold.PLP.part.nonpolar>
-28.6359

> <Gold.PLP.part.repulsive>
0.2306

> <Gold.PLP.ligand.clash>
0.0000

> <Gold.PLP.ligand.torsion>
0.3166

> <Gold.PLP.Chemscore.Hbond>
2.1250

> <Gold.PLP.Chemscore.CHOScore>
0.0000

> <Gold.PLP.Chemscore.Metal>
0.0000

> <Gold.Chemscore.Hbonds>
donor molecule, donor type, donor heavy atom, donor atom, acceptor molecule, acceptor atom, score
      P1  H  6896  6907       L1     8  1.00
      P1  H  7997  8010       L1    21  0.67
      P1  H 10752 10763       L1    11  0.04

> <Gold.PLP.Chemscore.Internal.Correction>
0.1535

> <Gold.Rescore>
     Score         DG    S(hbond)    S(metal)    S(lipo)     H(rot)  DE(clash)    DE(int)     intcor
     11.38     -12.97       1.93        0.00      78.61       3.18       0.38       1.21       ----

> <Gold.Chemscore.Fitness>
11.3784

> <Gold.Chemscore.DG>
-12.9699

> <Gold.Chemscore.ZeroCoef>
-5.4800

> <Gold.Chemscore.Hbond>
1.9285

> <Gold.Chemscore.Metal>
0.0000

> <Gold.Chemscore.Lipo>
78.6111

> <Gold.Chemscore.Internal_Hbond>
0.0000

> <Gold.Chemscore.DEClash>
0.3814

> <Gold.Chemscore.DEInternal>
1.2101

> <Gold.Chemscore.Rot>
3.1831

> <Gold.Chemscore.Internal.Correction>
   9.000000E+99

> <Gold.Chemscore.Hbonds>
donor molecule, donor type, donor heavy atom, donor atom, acceptor molecule, acceptor atom, score
      P1  H  6896  6907       L1     8  0.34
      P1  H  7997  8010       L1    21  0.48

> <Gold.Chemscore.Hbond.Weighted>
-6.4411

> <Gold.Chemscore.Metal.Weighted>
-0.0000

> <Gold.Chemscore.Lipo.Weighted>
-9.1975

> <Gold.Chemscore.Internal_Hbond.Weighted>
0.0000

> <Gold.Chemscore.DEClash.Weighted>
0.3814

> <Gold.Chemscore.DEInternal.Weighted>
1.2101

> <Gold.Chemscore.Rot.Weighted>
8.1486

> <Gold.Chemscore.Internal.Correction.Weighted>
   9.000000E+99

> <Gold.Protein.RotatedTorsions>
[ 6907 6896 6895 6894 ] final -128.44 input  -60.11 | X-H torsion
[ 7974 7965 7964 7962 ] final  167.61 input  175.53 | X-H torsion
[ 8008 7997 7996 7995 ] final   34.84 input   59.86 | X-H torsion
[ 10167 10162 10161 10158 ] final -166.76 input  -65.29 | X-H torsion
[ 10718 10713 10712 10709 ] final  104.93 input   66.30 | X-H torsion
[ 10763 10752 10751 10750 ] final  105.83 input  -60.55 | X-H torsion
[ 11005 11000 10999 10996 ] final   29.55 input  -57.11 | X-H torsion

> <Gold.Protein.ActiveResidues>
 VAL166  LYS551  ARG553  GLY616  TRP617  ASP618  TYR619  PRO620  LYS621  CYS622 
 ASP623  PHE694  ASN695  SER759  ASP760  ASP761  ALA762  ILE779  LEU786  VAL792 
 PHE793  MET794  SER795  GLU796  ALA797  LYS798  CYS799  TRP800  GLU811  SER814 

> <Gold.Protein.RotatedAtoms>
  150.9180  133.6916  159.2838 H   0  0  0  0  0  0  0  0  0  0  0  0  # atno 6907 bound_to 6896
  151.4380  135.1016  159.9671 H   0  0  0  0  0  0  0  0  0  0  0  0  # atno 6908 bound_to 6896
  152.4964  133.8594  159.7297 H   0  0  0  0  0  0  0  0  0  0  0  0  # atno 6909 bound_to 6896
  144.7418  139.8787  143.6394 H   0  0  0  0  0  0  0  0  0  0  0  0  # atno 7974 bound_to 7965
  155.1614  140.3283  155.4410 H   0  0  0  0  0  0  0  0  0  0  0  0  # atno 8008 bound_to 7997
  156.2541  140.1959  156.6672 H   0  0  0  0  0  0  0  0  0  0  0  0  # atno 8009 bound_to 7997
  154.6402  140.0571  156.9823 H   0  0  0  0  0  0  0  0  0  0  0  0  # atno 8010 bound_to 7997
  139.6093  144.0847  152.1826 H   0  0  0  0  0  0  0  0  0  0  0  0  # atno 10167 bound_to 10162
  157.6723  131.0816  150.5781 H   0  0  0  0  0  0  0  0  0  0  0  0  # atno 10718 bound_to 10713
  153.3847  135.3897  155.1881 H   0  0  0  0  0  0  0  0  0  0  0  0  # atno 10763 bound_to 10752
  154.8712  135.3734  154.4812 H   0  0  0  0  0  0  0  0  0  0  0  0  # atno 10764 bound_to 10752
  153.5293  135.7086  153.5753 H   0  0  0  0  0  0  0  0  0  0  0  0  # atno 10765 bound_to 10752
  140.3037  134.2727  155.7748 H   0  0  0  0  0  0  0  0  0  0  0  0  # atno 11005 bound_to 11000
  146.1227  139.4248  143.0218 LP  0  0  0  0  0  0  0  0  0  0  0  0  # atno 17320 bound_to 7965
  145.7280  141.0052  143.1367 LP  0  0  0  0  0  0  0  0  0  0  0  0  # atno 17321 bound_to 7965
  140.0462  144.5968  150.7372 LP  0  0  0  0  0  0  0  0  0  0  0  0  # atno 17342 bound_to 10162
  140.7308  143.2687  151.3959 LP  0  0  0  0  0  0  0  0  0  0  0  0  # atno 17343 bound_to 10162
  156.6082  130.4373  149.5870 LP  0  0  0  0  0  0  0  0  0  0  0  0  # atno 17370 bound_to 10713
  156.2452  130.6874  151.1593 LP  0  0  0  0  0  0  0  0  0  0  0  0  # atno 17371 bound_to 10713
  141.2123  133.7663  156.9805 LP  0  0  0  0  0  0  0  0  0  0  0  0  # atno 17394 bound_to 11000
  140.1086  134.9491  157.2032 LP  0  0  0  0  0  0  0  0  0  0  0  0  # atno 17395 bound_to 11000

$$$$
