AV-unprocessed.smi:250|AV-procd|sdf|1930|dock1
  -GOLD-   2262021 43D 1   1.00000     0.00000
 Structure written by MMmdl.
 56 60  0  0  0  0  0  0  0  0  1 V2000
  152.2629  144.2071  161.3060 C   0  0  0  0  0  0  0  0  0  0  0  0
  151.6910  144.0961  159.9701 N   0  0  0  0  0  0  0  0  0  0  0  0
  150.5731  144.7075  159.5439 C   0  0  0  0  0  0  0  0  0  0  0  0
  149.8420  145.4367  160.2111 O   0  0  0  0  0  0  0  0  0  0  0  0
  150.3905  144.3987  158.2563 N   0  0  0  0  0  0  0  0  0  0  0  0
  151.4859  143.6223  157.7171 C   0  0  2  0  0  0  0  0  0  0  0  0
  151.0774  142.5428  156.6888 C   0  0  0  0  0  0  0  0  0  0  0  0
  150.9306  141.2073  157.2633 N   0  0  0  0  0  0  0  0  0  0  0  0
  150.4344  140.2810  156.4050 C   0  0  0  0  0  0  0  0  0  0  0  0
  150.2225  140.6083  155.1017 N   0  0  0  0  0  0  0  0  0  0  0  0
  149.7213  139.7068  154.2523 C   0  0  0  0  0  0  0  0  0  0  0  0
  149.3704  138.4418  154.4898 N   0  0  0  0  0  0  0  0  0  0  0  0
  149.5884  138.1040  155.7929 C   0  0  0  0  0  0  0  0  0  0  0  0
  150.1087  138.9551  156.8084 C   0  0  0  0  0  0  0  0  0  0  0  0
  150.1905  138.2606  158.0096 N   0  0  0  0  0  0  0  0  0  0  0  0
  149.7355  137.0718  157.7227 C   0  0  0  0  0  0  0  0  0  0  0  0
  149.3674  136.8839  156.4092 N   0  0  0  0  0  0  0  0  0  0  0  0
  148.8270  135.6673  155.8182 C   0  0  0  0  0  0  0  0  0  0  0  0
  149.8801  134.6214  155.3366 C   0  0  0  0  0  0  0  0  0  0  0  0
  150.9778  135.3919  154.5485 C   0  0  0  0  0  0  0  0  0  0  0  0
  151.8313  136.1353  155.3962 O   0  0  0  0  0  0  0  0  0  0  0  0
  150.5258  133.8945  156.5455 C   0  0  0  0  0  0  0  0  0  0  0  0
  151.4310  132.7202  156.1274 C   0  0  0  0  0  0  0  0  0  0  0  0
  150.6960  131.7983  155.3322 O   0  0  0  0  0  0  0  0  0  0  0  0
  150.1975  132.3723  154.1301 C   0  0  0  0  0  0  0  0  0  0  0  0
  149.2262  133.5201  154.4615 C   0  0  0  0  0  0  0  0  0  0  0  0
  151.9799  140.7891  158.1870 C   0  0  0  0  0  0  0  0  0  0  0  0
  151.9811  141.7265  159.3933 C   0  0  0  0  0  0  0  0  0  0  0  0
  152.2508  143.1871  158.9778 C   0  0  2  0  0  0  0  0  0  0  0  0
  152.0960  144.3530  157.1828 H   0  0  0  0  0  0  0  0  0  0  0  0
  153.3207  143.3543  158.8465 H   0  0  0  0  0  0  0  0  0  0  0  0
  152.3453  145.2525  161.6063 H   0  0  0  0  0  0  0  0  0  0  0  0
  153.2601  143.7669  161.3427 H   0  0  0  0  0  0  0  0  0  0  0  0
  151.6348  143.6884  162.0312 H   0  0  0  0  0  0  0  0  0  0  0  0
  149.6230  144.7334  157.6921 H   0  0  0  0  0  0  0  0  0  0  0  0
  150.1768  142.8585  156.1631 H   0  0  0  0  0  0  0  0  0  0  0  0
  151.8586  142.4747  155.9304 H   0  0  0  0  0  0  0  0  0  0  0  0
  149.5830  140.0474  153.2367 H   0  0  0  0  0  0  0  0  0  0  0  0
  149.6622  136.2904  158.4651 H   0  0  0  0  0  0  0  0  0  0  0  0
  148.1592  135.2192  156.5549 H   0  0  0  0  0  0  0  0  0  0  0  0
  148.1900  135.9613  154.9828 H   0  0  0  0  0  0  0  0  0  0  0  0
  151.5903  134.6949  153.9754 H   0  0  0  0  0  0  0  0  0  0  0  0
  150.5550  136.0868  153.8256 H   0  0  0  0  0  0  0  0  0  0  0  0
  151.3427  136.3933  156.1630 H   0  0  0  0  0  0  0  0  0  0  0  0
  151.0873  134.6002  157.1590 H   0  0  0  0  0  0  0  0  0  0  0  0
  149.7536  133.4790  157.1918 H   0  0  0  0  0  0  0  0  0  0  0  0
  152.3175  133.0594  155.5916 H   0  0  0  0  0  0  0  0  0  0  0  0
  151.7899  132.1990  157.0151 H   0  0  0  0  0  0  0  0  0  0  0  0
  151.0206  132.7081  153.4991 H   0  0  0  0  0  0  0  0  0  0  0  0
  149.6743  131.5973  153.5698 H   0  0  0  0  0  0  0  0  0  0  0  0
  148.3799  133.0798  154.9868 H   0  0  0  0  0  0  0  0  0  0  0  0
  148.8206  133.9437  153.5425 H   0  0  0  0  0  0  0  0  0  0  0  0
  151.8052  139.7674  158.5276 H   0  0  0  0  0  0  0  0  0  0  0  0
  152.9478  140.8071  157.6840 H   0  0  0  0  0  0  0  0  0  0  0  0
  151.0129  141.6456  159.8910 H   0  0  0  0  0  0  0  0  0  0  0  0
  152.7258  141.4031  160.1208 H   0  0  0  0  0  0  0  0  0  0  0  0
  1  2  1  0  0  0  0
  1 32  1  0  0  0  0
  1 33  1  0  0  0  0
  1 34  1  0  0  0  0
  2 29  1  0  0  0  0
  2  3  1  0  0  0  0
  3  4  2  0  0  0  0
  3  5  1  0  0  0  0
  5  6  1  0  0  0  0
  5 35  1  0  0  0  0
  6 30  1  0  0  0  0
  6 29  1  0  0  0  0
  6  7  1  0  0  0  0
  7  8  1  0  0  0  0
  7 36  1  0  0  0  0
  7 37  1  0  0  0  0
  8  9  1  0  0  0  0
  8 27  1  0  0  0  0
  9 14  1  0  0  0  0
  9 10  2  0  0  0  0
 10 11  1  0  0  0  0
 11 12  2  0  0  0  0
 11 38  1  0  0  0  0
 12 13  1  0  0  0  0
 13 17  1  0  0  0  0
 13 14  2  0  0  0  0
 14 15  1  0  0  0  0
 15 16  2  0  0  0  0
 16 17  1  0  0  0  0
 16 39  1  0  0  0  0
 17 18  1  0  0  0  0
 18 19  1  0  0  0  0
 18 40  1  0  0  0  0
 18 41  1  0  0  0  0
 19 26  1  0  0  0  0
 19 20  1  0  0  0  0
 19 22  1  0  0  0  0
 20 21  1  0  0  0  0
 20 42  1  0  0  0  0
 20 43  1  0  0  0  0
 21 44  1  0  0  0  0
 22 23  1  0  0  0  0
 22 45  1  0  0  0  0
 22 46  1  0  0  0  0
 23 24  1  0  0  0  0
 23 47  1  0  0  0  0
 23 48  1  0  0  0  0
 24 25  1  0  0  0  0
 25 26  1  0  0  0  0
 25 49  1  0  0  0  0
 25 50  1  0  0  0  0
 26 51  1  0  0  0  0
 26 52  1  0  0  0  0
 27 28  1  0  0  0  0
 27 53  1  0  0  0  0
 27 54  1  0  0  0  0
 28 29  1  0  0  0  0
 28 55  1  0  0  0  0
 28 56  1  0  0  0  0
 29 31  1  0  0  0  0
M  END
> <s_m_source_file>
AV-unprocessed.smi

> <i_m_source_file_index>
250

> <i_lp_mmshare_version>
43012

> <i_f3d_flags>
0

> <s_epik_input>
Tz1DKFtOSF0xKU4oW0NIM10pW0NASF0oW0NASF0xMilbQ0gyXVtDSDJdTihbQ0gyXTIpYyhuW2NIXW4zKWMoYzM0KW5bY0hdbjRbQ0gyXUM1KFtDSDJdW09IXSlbQ0gyXVtDSDJdT1tDSDJdW0NIMl01

> <s_epik_cmdline>
J2VwaWtfcHl0aG9uJywgJy1waCcsICc3LjAnLCAnLXRuJywgJzgnLCAnLW1hJywgJzIwMCcsICctbWV0YWxfYmluZGluZycsICctaW1hZScsICc8aW5maWxlLm1hZT4nLCAnLW9tYWUnLCAnPG91dGZpbGUubWFlPic=

> <r_lp_tautomer_probability>
1

> <r_epik_Ionization_Penalty>
0.00229024

> <r_epik_Ionization_Penalty_Charging>
0

> <r_epik_Ionization_Penalty_Neutral>
0.00229024

> <r_epik_State_Penalty>
0.0013961

> <r_epik_Charging_Adjusted_Penalty>
0.0013961

> <i_epik_Tot_Q>
0

> <i_epik_Tot_abs_Q>
0

> <r_epik_Metal_State_Penalty>
-0

> <b_epik_Metal_Only>
0

> <s_lp_Force_Field>
OPLS_2005

> <r_lp_Energy>
69.2322

> <b_lp_Chiralities_Consistent>
1

> <s_lp_Variant>
AV-unprocessed.smi:250-1

> <Gold.Version>
5.8.1

> <Gold.Id.Protein>
6NUR|6NUR_protein|mol2

> <Gold.PLP.Fitness>
50.1802

> <Gold.PLP.PLP>
-43.7287

> <Gold.PLP.part.hbond>
-4.7446

> <Gold.PLP.part.metal>
0.0000

> <Gold.PLP.part.buried>
-5.7031

> <Gold.PLP.part.nonpolar>
-33.6142

> <Gold.PLP.part.repulsive>
0.6400

> <Gold.PLP.ligand.clash>
0.0000

> <Gold.PLP.ligand.torsion>
0.8737

> <Gold.PLP.Chemscore.Hbond>
1.5863

> <Gold.PLP.Chemscore.CHOScore>
1.0000

> <Gold.PLP.Chemscore.Metal>
0.0000

> <Gold.Chemscore.Hbonds>
donor molecule, donor type, donor heavy atom, donor atom, acceptor molecule, acceptor atom, score
      L1  H     5    35       P1  8028  0.23
      P1  H  7989  7998       L1    10  0.07
      P1  H 10752 10763       L1    21  0.91
      L1  C    11    38       P1  7957  1.00

> <Gold.PLP.Chemscore.Internal.Correction>
0.4401

> <Gold.Rescore>
     Score         DG    S(hbond)    S(metal)    S(lipo)     H(rot)  DE(clash)    DE(int)     intcor
     10.55     -12.82       0.90        0.00      92.97       2.56       0.05       2.22       ----

> <Gold.Chemscore.Fitness>
10.5467

> <Gold.Chemscore.DG>
-12.8205

> <Gold.Chemscore.ZeroCoef>
-5.4800

> <Gold.Chemscore.Hbond>
0.9033

> <Gold.Chemscore.Metal>
0.0000

> <Gold.Chemscore.Lipo>
92.9680

> <Gold.Chemscore.Internal_Hbond>
0.0000

> <Gold.Chemscore.DEClash>
0.0522

> <Gold.Chemscore.DEInternal>
2.2217

> <Gold.Chemscore.Rot>
2.5601

> <Gold.Chemscore.Internal.Correction>
   9.000000E+99

> <Gold.Chemscore.Hbonds>
donor molecule, donor type, donor heavy atom, donor atom, acceptor molecule, acceptor atom, score
      P1  H 10752 10763       L1    21  0.18

> <Gold.Chemscore.Hbond.Weighted>
-3.0171

> <Gold.Chemscore.Metal.Weighted>
-0.0000

> <Gold.Chemscore.Lipo.Weighted>
-10.8773

> <Gold.Chemscore.Internal_Hbond.Weighted>
0.0000

> <Gold.Chemscore.DEClash.Weighted>
0.0522

> <Gold.Chemscore.DEInternal.Weighted>
2.2217

> <Gold.Chemscore.Rot.Weighted>
6.5538

> <Gold.Chemscore.Internal.Correction.Weighted>
   9.000000E+99

> <Gold.Protein.RotatedTorsions>
[ 6907 6896 6895 6894 ] final   18.98 input  -60.11 | X-H torsion
[ 7974 7965 7964 7962 ] final  126.04 input  175.53 | X-H torsion
[ 8008 7997 7996 7995 ] final   79.01 input   59.86 | X-H torsion
[ 10167 10162 10161 10158 ] final  167.51 input  -65.29 | X-H torsion
[ 10718 10713 10712 10709 ] final  159.95 input   66.30 | X-H torsion
[ 10763 10752 10751 10750 ] final   91.14 input  -60.55 | X-H torsion
[ 11005 11000 10999 10996 ] final  142.59 input  -57.11 | X-H torsion

> <Gold.Protein.ActiveResidues>
 VAL166  LYS551  ARG553  GLY616  TRP617  ASP618  TYR619  PRO620  LYS621  CYS622 
 ASP623  PHE694  ASN695  SER759  ASP760  ASP761  ALA762  ILE779  LEU786  VAL792 
 PHE793  MET794  SER795  GLU796  ALA797  LYS798  CYS799  TRP800  GLU811  SER814 

> <Gold.Protein.RotatedAtoms>
  151.8737  135.0480  160.0481 H   0  0  0  0  0  0  0  0  0  0  0  0  # atno 6907 bound_to 6896
  152.2568  133.5258  159.5366 H   0  0  0  0  0  0  0  0  0  0  0  0  # atno 6908 bound_to 6896
  150.7102  134.0801  159.3937 H   0  0  0  0  0  0  0  0  0  0  0  0  # atno 6909 bound_to 6896
  145.0661  139.3766  143.4981 H   0  0  0  0  0  0  0  0  0  0  0  0  # atno 7974 bound_to 7965
  155.8637  140.3452  155.5773 H   0  0  0  0  0  0  0  0  0  0  0  0  # atno 8008 bound_to 7997
  155.7905  140.0871  157.2031 H   0  0  0  0  0  0  0  0  0  0  0  0  # atno 8009 bound_to 7997
  154.4013  140.1484  156.3144 H   0  0  0  0  0  0  0  0  0  0  0  0  # atno 8010 bound_to 7997
  139.4947  144.3914  151.9513 H   0  0  0  0  0  0  0  0  0  0  0  0  # atno 10167 bound_to 10162
  157.1572  131.0578  151.2251 H   0  0  0  0  0  0  0  0  0  0  0  0  # atno 10718 bound_to 10713
  153.2050  135.4408  155.0312 H   0  0  0  0  0  0  0  0  0  0  0  0  # atno 10763 bound_to 10752
  154.8168  135.3319  154.7154 H   0  0  0  0  0  0  0  0  0  0  0  0  # atno 10764 bound_to 10752
  153.7596  135.6992  153.4984 H   0  0  0  0  0  0  0  0  0  0  0  0  # atno 10765 bound_to 10752
  140.0488  134.9266  157.0979 H   0  0  0  0  0  0  0  0  0  0  0  0  # atno 11005 bound_to 11000
  146.3527  140.0384  142.8645 LP  0  0  0  0  0  0  0  0  0  0  0  0  # atno 17320 bound_to 7965
  145.1349  140.9539  143.4523 LP  0  0  0  0  0  0  0  0  0  0  0  0  # atno 17321 bound_to 7965
  140.3351  144.3270  150.5979 LP  0  0  0  0  0  0  0  0  0  0  0  0  # atno 17342 bound_to 10162
  140.5613  143.2192  151.7761 LP  0  0  0  0  0  0  0  0  0  0  0  0  # atno 17343 bound_to 10162
  157.4166  130.7414  149.6880 LP  0  0  0  0  0  0  0  0  0  0  0  0  # atno 17370 bound_to 10713
  155.9760  130.4081  150.3809 LP  0  0  0  0  0  0  0  0  0  0  0  0  # atno 17371 bound_to 10713
  140.3950  134.2143  155.7165 LP  0  0  0  0  0  0  0  0  0  0  0  0  # atno 17394 bound_to 11000
  141.1920  133.8182  157.0856 LP  0  0  0  0  0  0  0  0  0  0  0  0  # atno 17395 bound_to 11000

$$$$
