AV-unprocessed.smi:224|AV-procd|sdf|1715|dock8
  -GOLD-   2262020183D 1   1.00000     0.00000
 Structure written by MMmdl.
 56 59  0  0  0  0  0  0  0  0  2 V2000
  151.3934  143.8719  158.2301 C   0  0  0  0  0  0  0  0  0  0  0  0
  150.6793  142.5141  158.2247 C   0  0  2  0  0  0  0  0  0  0  0  0
  151.1797  141.7577  159.3092 O   0  0  0  0  0  0  0  0  0  0  0  0
  150.9200  141.7510  156.9054 C   0  0  0  0  0  0  0  0  0  0  0  0
  149.8597  141.9573  155.8801 N   0  3  2  0  0  0  0  0  0  0  0  0
  148.6011  141.2495  156.2344 C   0  0  0  0  0  0  0  0  0  0  0  0
  147.4681  141.5927  155.2512 C   0  0  0  0  0  0  0  0  0  0  0  0
  147.8804  141.3617  153.8689 N   0  0  0  0  0  0  0  0  0  0  0  0
  147.6606  140.1455  153.2994 C   0  0  0  0  0  0  0  0  0  0  0  0
  148.3764  139.7776  152.2030 N   0  0  0  0  0  0  0  0  0  0  0  0
  148.1557  138.6011  151.6105 C   0  0  0  0  0  0  0  0  0  0  0  0
  147.2829  137.6508  151.9459 N   0  0  0  0  0  0  0  0  0  0  0  0
  146.5752  137.9993  153.0577 C   0  0  0  0  0  0  0  0  0  0  0  0
  146.6991  139.2148  153.7898 C   0  0  0  0  0  0  0  0  0  0  0  0
  145.8188  139.2052  154.8661 N   0  0  0  0  0  0  0  0  0  0  0  0
  145.2018  138.0598  154.7673 C   0  0  0  0  0  0  0  0  0  0  0  0
  145.5983  137.2698  153.7125 N   0  0  0  0  0  0  0  0  0  0  0  0
  145.0836  135.9533  153.3688 C   0  0  0  0  0  0  0  0  0  0  0  0
  144.2041  135.9482  152.0969 C   0  0  1  0  0  0  0  0  0  0  0  0
  143.9703  134.6075  151.7024 O   0  0  0  0  0  0  0  0  0  0  0  0
  142.8563  136.6439  152.2661 C   0  0  0  0  0  0  0  0  0  0  0  0
  142.5930  137.2155  150.8802 C   0  0  0  0  0  0  0  0  0  0  0  0
  143.8784  137.6597  150.4820 O   0  0  0  0  0  0  0  0  0  0  0  0
  144.8409  136.7025  150.9125 C   0  0  0  0  0  0  0  0  0  0  0  0
  149.1066  142.0621  153.4928 C   0  0  0  0  0  0  0  0  0  0  0  0
  150.2737  141.7467  154.4564 C   0  0  2  0  0  0  0  0  0  0  0  0
  150.8877  140.3555  154.1905 C   0  0  0  0  0  0  0  0  0  0  0  0
  151.0318  144.5074  157.4208 H   0  0  0  0  0  0  0  0  0  0  0  0
  152.4711  143.7576  158.1063 H   0  0  0  0  0  0  0  0  0  0  0  0
  151.2205  144.4033  159.1667 H   0  0  0  0  0  0  0  0  0  0  0  0
  149.6173  142.6966  158.3842 H   0  0  0  0  0  0  0  0  0  0  0  0
  150.6940  140.9499  159.3718 H   0  0  0  0  0  0  0  0  0  0  0  0
  151.8915  142.0159  156.4870 H   0  0  0  0  0  0  0  0  0  0  0  0
  150.9807  140.6855  157.1333 H   0  0  0  0  0  0  0  0  0  0  0  0
  148.7787  140.1740  156.2540 H   0  0  0  0  0  0  0  0  0  0  0  0
  148.2922  141.5303  157.2418 H   0  0  0  0  0  0  0  0  0  0  0  0
  146.5622  141.0355  155.4928 H   0  0  0  0  0  0  0  0  0  0  0  0
  147.2056  142.6465  155.3518 H   0  0  0  0  0  0  0  0  0  0  0  0
  148.7634  138.3923  150.7423 H   0  0  0  0  0  0  0  0  0  0  0  0
  144.4384  137.7564  155.4689 H   0  0  0  0  0  0  0  0  0  0  0  0
  145.9348  135.2842  153.2365 H   0  0  0  0  0  0  0  0  0  0  0  0
  144.5217  135.5673  154.2203 H   0  0  0  0  0  0  0  0  0  0  0  0
  143.1742  134.3077  152.1139 H   0  0  0  0  0  0  0  0  0  0  0  0
  142.0609  135.9869  152.6208 H   0  0  0  0  0  0  0  0  0  0  0  0
  142.9445  137.4703  152.9725 H   0  0  0  0  0  0  0  0  0  0  0  0
  142.2393  136.4431  150.1954 H   0  0  0  0  0  0  0  0  0  0  0  0
  141.8692  138.0306  150.8893 H   0  0  0  0  0  0  0  0  0  0  0  0
  145.7563  137.2230  151.1958 H   0  0  0  0  0  0  0  0  0  0  0  0
  145.0889  136.0354  150.0852 H   0  0  0  0  0  0  0  0  0  0  0  0
  149.4095  141.8522  152.4686 H   0  0  0  0  0  0  0  0  0  0  0  0
  148.8934  143.1311  153.5241 H   0  0  0  0  0  0  0  0  0  0  0  0
  151.0450  142.4794  154.2232 H   0  0  0  0  0  0  0  0  0  0  0  0
  151.1127  140.2293  153.1313 H   0  0  0  0  0  0  0  0  0  0  0  0
  150.2184  139.5460  154.4788 H   0  0  0  0  0  0  0  0  0  0  0  0
  151.8253  140.2178  154.7285 H   0  0  0  0  0  0  0  0  0  0  0  0
  149.6242  142.9374  155.9410 H   0  0  0  0  0  0  0  0  0  0  0  0
  1  2  1  0  0  0  0
  1 28  1  0  0  0  0
  1 29  1  0  0  0  0
  1 30  1  0  0  0  0
  2  3  1  0  0  0  0
  2  4  1  0  0  0  0
  2 31  1  0  0  0  0
  3 32  1  0  0  0  0
  4  5  1  0  0  0  0
  4 33  1  0  0  0  0
  4 34  1  0  0  0  0
  5 26  1  0  0  0  0
  5  6  1  0  0  0  0
  5 56  1  0  0  0  0
  6  7  1  0  0  0  0
  6 35  1  0  0  0  0
  6 36  1  0  0  0  0
  7  8  1  0  0  0  0
  7 37  1  0  0  0  0
  7 38  1  0  0  0  0
  8  9  1  0  0  0  0
  8 25  1  0  0  0  0
  9 14  1  0  0  0  0
  9 10  2  0  0  0  0
 10 11  1  0  0  0  0
 11 12  2  0  0  0  0
 11 39  1  0  0  0  0
 12 13  1  0  0  0  0
 13 17  1  0  0  0  0
 13 14  2  0  0  0  0
 14 15  1  0  0  0  0
 15 16  2  0  0  0  0
 16 17  1  0  0  0  0
 16 40  1  0  0  0  0
 17 18  1  0  0  0  0
 18 19  1  0  0  0  0
 18 41  1  0  0  0  0
 18 42  1  0  0  0  0
 19 24  1  0  0  0  0
 19 20  1  0  0  0  0
 19 21  1  0  0  0  0
 20 43  1  0  0  0  0
 21 22  1  0  0  0  0
 21 44  1  0  0  0  0
 21 45  1  0  0  0  0
 22 23  1  0  0  0  0
 22 46  1  0  0  0  0
 22 47  1  0  0  0  0
 23 24  1  0  0  0  0
 24 48  1  0  0  0  0
 24 49  1  0  0  0  0
 25 26  1  0  0  0  0
 25 50  1  0  0  0  0
 25 51  1  0  0  0  0
 26 27  1  0  0  0  0
 26 52  1  0  0  0  0
 27 53  1  0  0  0  0
 27 54  1  0  0  0  0
 27 55  1  0  0  0  0
M  CHG  1   5   1
M  END
> <s_m_source_file>
AV-unprocessed.smi

> <i_m_source_file_index>
224

> <i_lp_mmshare_version>
43012

> <i_f3d_flags>
0

> <s_epik_input>
W0NIM11bQ0BIXShbT0hdKVtDSDJdTjFbQ0gyXVtDSDJdTihbQ0gyXVtDQEhdMVtDSDNdKWMobltjSF1uMiljKGMyMyluW2NIXW4zW0NIMl1bQ0BAXTQoW09IXSlbQ0gyXVtDSDJdT1tDSDJdNA==

> <s_epik_cmdline>
J2VwaWtfcHl0aG9uJywgJy1waCcsICc3LjAnLCAnLXRuJywgJzgnLCAnLW1hJywgJzIwMCcsICctbWV0YWxfYmluZGluZycsICctaW1hZScsICc8aW5maWxlLm1hZT4nLCAnLW9tYWUnLCAnPG91dGZpbGUubWFlPic=

> <r_lp_tautomer_probability>
1

> <r_epik_Ionization_Penalty>
0.00516958

> <r_epik_Ionization_Penalty_Charging>
0.00509693

> <r_epik_Ionization_Penalty_Neutral>
7.26542e-05

> <r_epik_State_Penalty>
-0

> <r_epik_Charging_Adjusted_Penalty>
0.00509693

> <i_epik_Tot_Q>
1

> <i_epik_Tot_abs_Q>
1

> <r_epik_Metal_State_Penalty>
-0

> <b_epik_Metal_Only>
0

> <s_lp_Force_Field>
OPLS_2005

> <r_lp_Energy>
50.3788

> <b_lp_Chiralities_Consistent>
1

> <s_lp_Variant>
AV-unprocessed.smi:224-9

> <Gold.Version>
5.8.1

> <Gold.Id.Protein>
6NUR|6NUR_protein|mol2

> <Gold.PLP.Fitness>
43.5226

> <Gold.PLP.PLP>
-33.1278

> <Gold.PLP.part.hbond>
-2.6094

> <Gold.PLP.part.metal>
0.0000

> <Gold.PLP.part.buried>
-4.8036

> <Gold.PLP.part.nonpolar>
-26.6049

> <Gold.PLP.part.repulsive>
0.8549

> <Gold.PLP.ligand.clash>
0.0000

> <Gold.PLP.ligand.torsion>
0.9790

> <Gold.PLP.Chemscore.Hbond>
3.0000

> <Gold.PLP.Chemscore.CHOScore>
0.9947

> <Gold.PLP.Chemscore.Metal>
0.0000

> <Gold.Chemscore.Hbonds>
donor molecule, donor type, donor heavy atom, donor atom, acceptor molecule, acceptor atom, score
      L1  H     5    56       P1  8028  2.00
      L1  C    11    39       P1  7948  0.06

> <Gold.PLP.Chemscore.Internal.Correction>
0.3686

> <Gold.Rescore>
     Score         DG    S(hbond)    S(metal)    S(lipo)     H(rot)  DE(clash)    DE(int)     intcor
      7.65     -11.54       1.72        0.00      68.94       3.02       0.04       3.85       ----

> <Gold.Chemscore.Fitness>
7.6530

> <Gold.Chemscore.DG>
-11.5418

> <Gold.Chemscore.ZeroCoef>
-5.4800

> <Gold.Chemscore.Hbond>
1.7169

> <Gold.Chemscore.Metal>
0.0000

> <Gold.Chemscore.Lipo>
68.9444

> <Gold.Chemscore.Internal_Hbond>
0.0000

> <Gold.Chemscore.DEClash>
0.0427

> <Gold.Chemscore.DEInternal>
3.8461

> <Gold.Chemscore.Rot>
3.0231

> <Gold.Chemscore.Internal.Correction>
   9.000000E+99

> <Gold.Chemscore.Hbonds>
donor molecule, donor type, donor heavy atom, donor atom, acceptor molecule, acceptor atom, score
      L1  H     5    56       P1  8028  0.99

> <Gold.Chemscore.Hbond.Weighted>
-5.7344

> <Gold.Chemscore.Metal.Weighted>
-0.0000

> <Gold.Chemscore.Lipo.Weighted>
-8.0665

> <Gold.Chemscore.Internal_Hbond.Weighted>
0.0000

> <Gold.Chemscore.DEClash.Weighted>
0.0427

> <Gold.Chemscore.DEInternal.Weighted>
3.8461

> <Gold.Chemscore.Rot.Weighted>
7.7391

> <Gold.Chemscore.Internal.Correction.Weighted>
   9.000000E+99

> <Gold.Protein.RotatedTorsions>
[ 6907 6896 6895 6894 ] final  125.49 input  -60.11 | X-H torsion
[ 7974 7965 7964 7962 ] final  166.86 input  175.53 | X-H torsion
[ 8008 7997 7996 7995 ] final  -91.27 input   59.86 | X-H torsion
[ 10167 10162 10161 10158 ] final    5.15 input  -65.29 | X-H torsion
[ 10718 10713 10712 10709 ] final -140.60 input   66.30 | X-H torsion
[ 10763 10752 10751 10750 ] final  -24.81 input  -60.55 | X-H torsion
[ 11005 11000 10999 10996 ] final -162.54 input  -57.11 | X-H torsion

> <Gold.Protein.ActiveResidues>
 VAL166  LYS551  ARG553  GLY616  TRP617  ASP618  TYR619  PRO620  LYS621  CYS622 
 ASP623  PHE694  ASN695  SER759  ASP760  ASP761  ALA762  ILE779  LEU786  VAL792 
 PHE793  MET794  SER795  GLU796  ALA797  LYS798  CYS799  TRP800  GLU811  SER814 

> <Gold.Protein.RotatedAtoms>
  152.3987  133.6785  159.6297 H   0  0  0  0  0  0  0  0  0  0  0  0  # atno 6907 bound_to 6896
  150.7881  133.8829  159.3300 H   0  0  0  0  0  0  0  0  0  0  0  0  # atno 6908 bound_to 6896
  151.6600  135.0992  160.0229 H   0  0  0  0  0  0  0  0  0  0  0  0  # atno 6909 bound_to 6896
  144.7446  139.8676  143.6386 H   0  0  0  0  0  0  0  0  0  0  0  0  # atno 7974 bound_to 7965
  154.7087  140.0521  157.0529 H   0  0  0  0  0  0  0  0  0  0  0  0  # atno 8008 bound_to 7997
  155.0585  140.3187  155.4649 H   0  0  0  0  0  0  0  0  0  0  0  0  # atno 8009 bound_to 7997
  156.2782  140.2103  156.5711 H   0  0  0  0  0  0  0  0  0  0  0  0  # atno 8010 bound_to 7997
  140.6497  143.7575  150.7555 H   0  0  0  0  0  0  0  0  0  0  0  0  # atno 10167 bound_to 10162
  156.3242  130.7551  151.1655 H   0  0  0  0  0  0  0  0  0  0  0  0  # atno 10718 bound_to 10713
  153.6898  135.6962  153.5093 H   0  0  0  0  0  0  0  0  0  0  0  0  # atno 10763 bound_to 10752
  153.2422  135.4302  155.0709 H   0  0  0  0  0  0  0  0  0  0  0  0  # atno 10764 bound_to 10752
  154.8376  135.3510  154.6440 H   0  0  0  0  0  0  0  0  0  0  0  0  # atno 10765 bound_to 10752
  140.6081  134.4877  157.5212 H   0  0  0  0  0  0  0  0  0  0  0  0  # atno 11005 bound_to 11000
  146.1303  139.4337  143.0173 LP  0  0  0  0  0  0  0  0  0  0  0  0  # atno 17320 bound_to 7965
  145.7173  141.0087  143.1421 LP  0  0  0  0  0  0  0  0  0  0  0  0  # atno 17321 bound_to 7965
  140.1223  143.4600  152.2305 LP  0  0  0  0  0  0  0  0  0  0  0  0  # atno 17342 bound_to 10162
  139.5711  144.7463  151.3889 LP  0  0  0  0  0  0  0  0  0  0  0  0  # atno 17343 bound_to 10162
  157.7418  131.0499  150.5072 LP  0  0  0  0  0  0  0  0  0  0  0  0  # atno 17370 bound_to 10713
  156.5228  130.4166  149.6241 LP  0  0  0  0  0  0  0  0  0  0  0  0  # atno 17371 bound_to 10713
  139.9203  134.8161  156.1231 LP  0  0  0  0  0  0  0  0  0  0  0  0  # atno 17394 bound_to 11000
  141.0826  133.6747  156.2369 LP  0  0  0  0  0  0  0  0  0  0  0  0  # atno 17395 bound_to 11000

$$$$
