AV-unprocessed.smi:2755|AV-procd|sdf|10617|dock2
  -GOLD-   2272015 63D 1   1.00000     0.00000
 Structure written by MMmdl.
 32 32  0  0  0  0  0  0  0  0  1 V2000
  152.0598  144.7223  158.1401 C   0  0  0  0  0  0  0  0  0  0  0  0
  152.1093  144.6141  159.6681 C   0  0  0  0  0  0  0  0  0  0  0  0
  152.2757  143.1668  160.1527 C   0  0  0  0  0  0  0  0  0  0  0  0
  153.5746  142.5227  159.6477 C   0  0  0  0  0  0  0  0  0  0  0  0
  153.7418  141.0762  160.1315 C   0  0  0  0  0  0  0  0  0  0  0  0
  152.6898  140.2341  159.5816 N   0  0  0  0  0  0  0  0  0  0  0  0
  152.8750  139.2796  158.6553 C   0  0  0  0  0  0  0  0  0  0  0  0
  153.9815  139.0166  158.1857 O   0  0  0  0  0  0  0  0  0  0  0  0
  151.6491  138.4889  158.1667 C   0  0  0  0  0  0  0  0  0  0  0  0
  151.4144  138.5437  156.7203 N   0  0  0  0  0  0  0  0  0  0  0  0
  150.6264  139.5658  156.2476 N   0  0  0  0  0  0  0  0  0  0  0  0
  150.5551  139.4365  154.9697 C   0  0  0  0  0  0  0  0  0  0  0  0
  149.8608  140.2569  154.1046 N   0  0  0  0  0  0  0  0  0  0  0  0
  151.4110  138.0915  154.1840 S   0  0  0  0  0  0  0  0  0  0  0  0
  151.9484  137.6247  155.8101 C   0  0  0  0  0  0  0  0  0  0  0  0
  152.6722  136.6560  156.0335 O   0  0  0  0  0  0  0  0  0  0  0  0
  151.9402  145.7601  157.8282 H   0  0  0  0  0  0  0  0  0  0  0  0
  151.2237  144.1538  157.7320 H   0  0  0  0  0  0  0  0  0  0  0  0
  152.9766  144.3428  157.6884 H   0  0  0  0  0  0  0  0  0  0  0  0
  152.9320  145.2232  160.0442 H   0  0  0  0  0  0  0  0  0  0  0  0
  151.1956  145.0377  160.0867 H   0  0  0  0  0  0  0  0  0  0  0  0
  152.2610  143.1462  161.2432 H   0  0  0  0  0  0  0  0  0  0  0  0
  151.4236  142.5721  159.8210 H   0  0  0  0  0  0  0  0  0  0  0  0
  153.5896  142.5454  158.5572 H   0  0  0  0  0  0  0  0  0  0  0  0
  154.4268  143.1166  159.9813 H   0  0  0  0  0  0  0  0  0  0  0  0
  154.7166  140.6912  159.8272 H   0  0  0  0  0  0  0  0  0  0  0  0
  153.7016  141.0345  161.2211 H   0  0  0  0  0  0  0  0  0  0  0  0
  151.7520  140.3894  159.9224 H   0  0  0  0  0  0  0  0  0  0  0  0
  151.7660  137.4480  158.4725 H   0  0  0  0  0  0  0  0  0  0  0  0
  150.7692  138.8590  158.6957 H   0  0  0  0  0  0  0  0  0  0  0  0
  149.3282  141.0598  154.4071 H   0  0  0  0  0  0  0  0  0  0  0  0
  149.8258  140.1127  153.1057 H   0  0  0  0  0  0  0  0  0  0  0  0
  1  2  1  0  0  0  0
  1 17  1  0  0  0  0
  1 18  1  0  0  0  0
  1 19  1  0  0  0  0
  2  3  1  0  0  0  0
  2 20  1  0  0  0  0
  2 21  1  0  0  0  0
  3  4  1  0  0  0  0
  3 22  1  0  0  0  0
  3 23  1  0  0  0  0
  4  5  1  0  0  0  0
  4 24  1  0  0  0  0
  4 25  1  0  0  0  0
  5  6  1  0  0  0  0
  5 26  1  0  0  0  0
  5 27  1  0  0  0  0
  6  7  1  0  0  0  0
  6 28  1  0  0  0  0
  7  8  2  0  0  0  0
  7  9  1  0  0  0  0
  9 10  1  0  0  0  0
  9 29  1  0  0  0  0
  9 30  1  0  0  0  0
 10 15  1  0  0  0  0
 10 11  1  0  0  0  0
 11 12  2  0  0  0  0
 12 13  1  0  0  0  0
 12 14  1  0  0  0  0
 13 31  1  0  0  0  0
 13 32  1  0  0  0  0
 14 15  1  0  0  0  0
 15 16  2  0  0  0  0
M  END
> <s_m_source_file>
AV-unprocessed.smi

> <i_m_source_file_index>
2755

> <i_lp_mmshare_version>
43012

> <i_f3d_flags>
0

> <s_epik_input>
W0NIM11bQ0gyXVtDSDJdW0NIMl1bQ0gyXVtOSF1DKD1PKVtDSDJdbjFuYyhbTkgyXSlzYzE9Tw==

> <s_epik_cmdline>
J2VwaWtfcHl0aG9uJywgJy1waCcsICc3LjAnLCAnLXRuJywgJzgnLCAnLW1hJywgJzIwMCcsICctbWV0YWxfYmluZGluZycsICctaW1hZScsICc8aW5maWxlLm1hZT4nLCAnLW9tYWUnLCAnPG91dGZpbGUubWFlPic=

> <r_lp_tautomer_probability>
1

> <r_epik_Ionization_Penalty>
4.62415e-07

> <r_epik_Ionization_Penalty_Charging>
1.84682e-08

> <r_epik_Ionization_Penalty_Neutral>
4.43947e-07

> <r_epik_State_Penalty>
-0

> <r_epik_Charging_Adjusted_Penalty>
1.84682e-08

> <i_epik_Tot_Q>
0

> <i_epik_Tot_abs_Q>
0

> <r_epik_Metal_State_Penalty>
-0

> <b_epik_Metal_Only>
0

> <s_lp_Force_Field>
OPLS_2005

> <r_lp_Energy>
7.41943

> <b_lp_Chiralities_Consistent>
1

> <s_lp_Variant>
AV-unprocessed.smi:2755-1

> <Gold.Version>
5.8.1

> <Gold.Id.Protein>
6NUR|6NUR_protein|mol2

> <Gold.PLP.Fitness>
41.6538

> <Gold.PLP.PLP>
-33.4765

> <Gold.PLP.part.hbond>
-3.0000

> <Gold.PLP.part.metal>
0.0000

> <Gold.PLP.part.buried>
-5.4273

> <Gold.PLP.part.nonpolar>
-25.9087

> <Gold.PLP.part.repulsive>
1.7104

> <Gold.PLP.ligand.clash>
0.0000

> <Gold.PLP.ligand.torsion>
0.4295

> <Gold.PLP.Chemscore.Hbond>
3.0000

> <Gold.PLP.Chemscore.CHOScore>
0.0000

> <Gold.PLP.Chemscore.Metal>
0.0000

> <Gold.Chemscore.Hbonds>
donor molecule, donor type, donor heavy atom, donor atom, acceptor molecule, acceptor atom, score
      L1  H    13    32       P1  7957  1.00
      P1  H  7997  8009       L1     8  1.00
      P1  H 10752 10763       L1    16  0.93

> <Gold.PLP.Chemscore.Internal.Correction>
0.0362

> <Gold.Rescore>
     Score         DG    S(hbond)    S(metal)    S(lipo)     H(rot)  DE(clash)    DE(int)     intcor
     15.31     -16.72       2.95        0.00      73.23       2.81       1.06       0.35       ----

> <Gold.Chemscore.Fitness>
15.3138

> <Gold.Chemscore.DG>
-16.7236

> <Gold.Chemscore.ZeroCoef>
-5.4800

> <Gold.Chemscore.Hbond>
2.9524

> <Gold.Chemscore.Metal>
0.0000

> <Gold.Chemscore.Lipo>
73.2334

> <Gold.Chemscore.Internal_Hbond>
0.0000

> <Gold.Chemscore.DEClash>
1.0593

> <Gold.Chemscore.DEInternal>
0.3505

> <Gold.Chemscore.Rot>
2.8069

> <Gold.Chemscore.Internal.Correction>
   9.000000E+99

> <Gold.Chemscore.Hbonds>
donor molecule, donor type, donor heavy atom, donor atom, acceptor molecule, acceptor atom, score
      L1  H    13    32       P1  7957  0.99
      P1  H  7997  8009       L1     8  0.99
      P1  H 10752 10763       L1    16  0.88

> <Gold.Chemscore.Hbond.Weighted>
-9.8609

> <Gold.Chemscore.Metal.Weighted>
-0.0000

> <Gold.Chemscore.Lipo.Weighted>
-8.5683

> <Gold.Chemscore.Internal_Hbond.Weighted>
0.0000

> <Gold.Chemscore.DEClash.Weighted>
1.0593

> <Gold.Chemscore.DEInternal.Weighted>
0.3505

> <Gold.Chemscore.Rot.Weighted>
7.1856

> <Gold.Chemscore.Internal.Correction.Weighted>
   9.000000E+99

> <Gold.Protein.RotatedTorsions>
[ 6907 6896 6895 6894 ] final -156.76 input  -60.11 | X-H torsion
[ 7974 7965 7964 7962 ] final   80.26 input  175.53 | X-H torsion
[ 8008 7997 7996 7995 ] final  133.44 input   59.86 | X-H torsion
[ 10167 10162 10161 10158 ] final -130.09 input  -65.29 | X-H torsion
[ 10718 10713 10712 10709 ] final  101.59 input   66.30 | X-H torsion
[ 10763 10752 10751 10750 ] final   92.88 input  -60.55 | X-H torsion
[ 11005 11000 10999 10996 ] final  103.73 input  -57.11 | X-H torsion

> <Gold.Protein.ActiveResidues>
 VAL166  LYS551  ARG553  GLY616  TRP617  ASP618  TYR619  PRO620  LYS621  CYS622 
 ASP623  PHE694  ASN695  SER759  ASP760  ASP761  ALA762  ILE779  LEU786  VAL792 
 PHE793  MET794  SER795  GLU796  ALA797  LYS798  CYS799  TRP800  GLU811  SER814 

> <Gold.Protein.RotatedAtoms>
  151.2926  133.4158  159.2633 H   0  0  0  0  0  0  0  0  0  0  0  0  # atno 6907 bound_to 6896
  151.0264  134.9508  159.8098 H   0  0  0  0  0  0  0  0  0  0  0  0  # atno 6908 bound_to 6896
  152.5336  134.2888  159.9087 H   0  0  0  0  0  0  0  0  0  0  0  0  # atno 6909 bound_to 6896
  145.6535  139.2453  143.1963 H   0  0  0  0  0  0  0  0  0  0  0  0  # atno 7974 bound_to 7965
  156.2992  140.2521  156.3253 H   0  0  0  0  0  0  0  0  0  0  0  0  # atno 8008 bound_to 7997
  154.9197  140.0401  157.2010 H   0  0  0  0  0  0  0  0  0  0  0  0  # atno 8009 bound_to 7997
  154.8324  140.2877  155.5718 H   0  0  0  0  0  0  0  0  0  0  0  0  # atno 8010 bound_to 7997
  139.9330  143.6250  152.2524 H   0  0  0  0  0  0  0  0  0  0  0  0  # atno 10167 bound_to 10162
  157.6825  131.0730  150.5276 H   0  0  0  0  0  0  0  0  0  0  0  0  # atno 10718 bound_to 10713
  153.2240  135.4345  155.0521 H   0  0  0  0  0  0  0  0  0  0  0  0  # atno 10763 bound_to 10752
  154.8264  135.3363  154.6885 H   0  0  0  0  0  0  0  0  0  0  0  0  # atno 10764 bound_to 10752
  153.7315  135.7010  153.5044 H   0  0  0  0  0  0  0  0  0  0  0  0  # atno 10765 bound_to 10752
  139.8786  134.9274  156.5254 H   0  0  0  0  0  0  0  0  0  0  0  0  # atno 11005 bound_to 11000
  146.1184  140.7340  142.9469 LP  0  0  0  0  0  0  0  0  0  0  0  0  # atno 17320 bound_to 7965
  144.7114  140.4052  143.7078 LP  0  0  0  0  0  0  0  0  0  0  0  0  # atno 17321 bound_to 7965
  139.6767  144.7658  151.1683 LP  0  0  0  0  0  0  0  0  0  0  0  0  # atno 17342 bound_to 10162
  140.7632  143.5785  150.8920 LP  0  0  0  0  0  0  0  0  0  0  0  0  # atno 17343 bound_to 10162
  156.5587  130.4250  149.6073 LP  0  0  0  0  0  0  0  0  0  0  0  0  # atno 17370 bound_to 10713
  156.2840  130.7087  151.1918 LP  0  0  0  0  0  0  0  0  0  0  0  0  # atno 17371 bound_to 10713
  140.8419  133.8198  155.9084 LP  0  0  0  0  0  0  0  0  0  0  0  0  # atno 17394 bound_to 11000
  140.9228  134.2120  157.4915 LP  0  0  0  0  0  0  0  0  0  0  0  0  # atno 17395 bound_to 11000

$$$$
