AV-unprocessed.smi:2385|AV-procd|sdf|9464|dock9
  -GOLD-   2272013 93D 1   1.00000     0.00000
 Structure written by MMmdl.
 50 52  0  0  0  0  0  0  0  0  2 V2000
  143.2351  135.5828  151.1857 C   0  0  0  0  0  0  0  0  0  0  0  0
  144.3320  136.5202  151.6443 C   0  0  0  0  0  0  0  0  0  0  0  0
  144.3095  137.0829  152.9343 C   0  0  0  0  0  0  0  0  0  0  0  0
  145.3495  137.9531  153.3137 C   0  0  0  0  0  0  0  0  0  0  0  0
  146.3850  138.2413  152.3964 C   0  0  0  0  0  0  0  0  0  0  0  0
  147.3809  139.1348  152.8740 N   0  0  0  0  0  0  0  0  0  0  0  0
  147.7074  139.4085  154.1495 C   0  0  0  0  0  0  0  0  0  0  0  0
  147.1554  138.9366  155.1439 O   0  0  0  0  0  0  0  0  0  0  0  0
  148.7286  140.2758  154.2172 N   0  0  0  0  0  0  0  0  0  0  0  0
  149.3395  140.7505  155.4556 C   0  0  2  0  0  0  0  0  0  0  0  0
  148.4205  141.7491  156.1816 C   0  0  0  0  0  0  0  0  0  0  0  0
  149.0990  142.3076  157.4439 C   0  0  0  0  0  0  0  0  0  0  0  0
  150.4069  142.9376  157.1233 N   0  3  1  0  0  0  0  0  0  0  0  0
  151.0293  143.5953  158.3024 C   0  0  0  0  0  0  0  0  0  0  0  0
  152.1281  142.7277  158.9466 C   0  0  1  0  0  0  0  0  0  0  0  0
  152.7430  143.3607  160.1795 C   0  0  0  0  0  0  0  0  0  0  0  0
  153.4137  142.1692  160.8558 C   0  0  0  0  0  0  0  0  0  0  0  0
  152.6242  141.0348  160.5124 O   0  0  0  0  0  0  0  0  0  0  0  0
  151.6627  141.3896  159.5244 C   0  0  0  0  0  0  0  0  0  0  0  0
  151.3195  141.9806  156.4427 C   0  0  0  0  0  0  0  0  0  0  0  0
  150.6869  141.4245  155.1563 C   0  0  0  0  0  0  0  0  0  0  0  0
  146.3982  137.6934  151.1555 N   0  0  0  0  0  0  0  0  0  0  0  0
  145.4015  136.8592  150.7926 C   0  0  0  0  0  0  0  0  0  0  0  0
  142.9285  134.9235  151.9981 H   0  0  0  0  0  0  0  0  0  0  0  0
  143.5724  134.9624  150.3547 H   0  0  0  0  0  0  0  0  0  0  0  0
  142.3658  136.1531  150.8578 H   0  0  0  0  0  0  0  0  0  0  0  0
  143.5093  136.8545  153.6231 H   0  0  0  0  0  0  0  0  0  0  0  0
  145.3463  138.3941  154.2999 H   0  0  0  0  0  0  0  0  0  0  0  0
  147.9179  139.6049  152.1606 H   0  0  0  0  0  0  0  0  0  0  0  0
  149.1224  140.6162  153.3520 H   0  0  0  0  0  0  0  0  0  0  0  0
  149.5240  139.8958  156.1096 H   0  0  0  0  0  0  0  0  0  0  0  0
  148.1625  142.5718  155.5127 H   0  0  0  0  0  0  0  0  0  0  0  0
  147.4807  141.2682  156.4557 H   0  0  0  0  0  0  0  0  0  0  0  0
  148.4385  143.0436  157.9040 H   0  0  0  0  0  0  0  0  0  0  0  0
  149.2471  141.5109  158.1749 H   0  0  0  0  0  0  0  0  0  0  0  0
  151.4988  144.5282  157.9867 H   0  0  0  0  0  0  0  0  0  0  0  0
  150.2707  143.8830  159.0322 H   0  0  0  0  0  0  0  0  0  0  0  0
  152.9249  142.5472  158.2230 H   0  0  0  0  0  0  0  0  0  0  0  0
  153.4430  144.1637  159.9466 H   0  0  0  0  0  0  0  0  0  0  0  0
  151.9647  143.7659  160.8283 H   0  0  0  0  0  0  0  0  0  0  0  0
  154.4204  142.0236  160.4618 H   0  0  0  0  0  0  0  0  0  0  0  0
  153.4872  142.2921  161.9366 H   0  0  0  0  0  0  0  0  0  0  0  0
  150.6929  141.4939  160.0131 H   0  0  0  0  0  0  0  0  0  0  0  0
  151.5796  140.6120  158.7647 H   0  0  0  0  0  0  0  0  0  0  0  0
  152.2612  142.4668  156.1939 H   0  0  0  0  0  0  0  0  0  0  0  0
  151.5611  141.1614  157.1220 H   0  0  0  0  0  0  0  0  0  0  0  0
  151.3675  140.7104  154.6910 H   0  0  0  0  0  0  0  0  0  0  0  0
  150.5493  142.2351  154.4388 H   0  0  0  0  0  0  0  0  0  0  0  0
  145.4613  136.4532  149.7934 H   0  0  0  0  0  0  0  0  0  0  0  0
  150.2037  143.6738  156.4622 H   0  0  0  0  0  0  0  0  0  0  0  0
  1  2  1  0  0  0  0
  1 24  1  0  0  0  0
  1 25  1  0  0  0  0
  1 26  1  0  0  0  0
  2 23  1  0  0  0  0
  2  3  2  0  0  0  0
  3  4  1  0  0  0  0
  3 27  1  0  0  0  0
  4  5  2  0  0  0  0
  4 28  1  0  0  0  0
  5  6  1  0  0  0  0
  5 22  1  0  0  0  0
  6  7  1  0  0  0  0
  6 29  1  0  0  0  0
  7  8  2  0  0  0  0
  7  9  1  0  0  0  0
  9 10  1  0  0  0  0
  9 30  1  0  0  0  0
 10 21  1  0  0  0  0
 10 11  1  0  0  0  0
 10 31  1  0  0  0  0
 11 12  1  0  0  0  0
 11 32  1  0  0  0  0
 11 33  1  0  0  0  0
 12 13  1  0  0  0  0
 12 34  1  0  0  0  0
 12 35  1  0  0  0  0
 13 14  1  0  0  0  0
 13 20  1  0  0  0  0
 13 50  1  0  0  0  0
 14 15  1  0  0  0  0
 14 36  1  0  0  0  0
 14 37  1  0  0  0  0
 15 19  1  0  0  0  0
 15 16  1  0  0  0  0
 15 38  1  0  0  0  0
 16 17  1  0  0  0  0
 16 39  1  0  0  0  0
 16 40  1  0  0  0  0
 17 18  1  0  0  0  0
 17 41  1  0  0  0  0
 17 42  1  0  0  0  0
 18 19  1  0  0  0  0
 19 43  1  0  0  0  0
 19 44  1  0  0  0  0
 20 21  1  0  0  0  0
 20 45  1  0  0  0  0
 20 46  1  0  0  0  0
 21 47  1  0  0  0  0
 21 48  1  0  0  0  0
 22 23  2  0  0  0  0
 23 49  1  0  0  0  0
M  CHG  1  13   1
M  END
> <s_m_source_file>
AV-unprocessed.smi

> <i_m_source_file_index>
2385

> <i_lp_mmshare_version>
43012

> <i_f3d_flags>
0

> <s_epik_input>
W0NIM11jMVtjSF1bY0hdYyhuW2NIXTEpW05IXUMoPU8pW05IXVtDSF0yW0NIMl1bQ0gyXU4oW0NIMl1bQ0gyXTIpW0NIMl1bQ0BASF0zW0NIMl1bQ0gyXU9bQ0gyXTM=

> <s_epik_cmdline>
J2VwaWtfcHl0aG9uJywgJy1waCcsICc3LjAnLCAnLXRuJywgJzgnLCAnLW1hJywgJzIwMCcsICctbWV0YWxfYmluZGluZycsICctaW1hZScsICc8aW5maWxlLm1hZT4nLCAnLW9tYWUnLCAnPG91dGZpbGUubWFlPic=

> <r_epik_Ionization_Penalty>
0.00752367

> <r_epik_Ionization_Penalty_Charging>
0.00747775

> <r_epik_Ionization_Penalty_Neutral>
4.59207e-05

> <r_epik_State_Penalty>
0.00558817

> <r_epik_Charging_Adjusted_Penalty>
0.0130659

> <i_epik_Tot_Q>
1

> <i_epik_Tot_abs_Q>
1

> <r_epik_Metal_State_Penalty>
-0

> <b_epik_Metal_Only>
0

> <s_lp_Force_Field>
OPLS_2005

> <r_lp_Energy>
36.1133

> <b_lp_Chiralities_Consistent>
1

> <s_lp_Variant>
AV-unprocessed.smi:2385-2

> <Gold.Version>
5.8.1

> <Gold.Id.Protein>
6NUR|6NUR_protein|mol2

> <Gold.PLP.Fitness>
45.8110

> <Gold.PLP.PLP>
-34.3344

> <Gold.PLP.part.hbond>
-3.5282

> <Gold.PLP.part.metal>
0.0000

> <Gold.PLP.part.buried>
0.7906

> <Gold.PLP.part.nonpolar>
-33.5324

> <Gold.PLP.part.repulsive>
2.1481

> <Gold.PLP.ligand.clash>
0.5329

> <Gold.PLP.ligand.torsion>
0.7801

> <Gold.PLP.Chemscore.Hbond>
3.5120

> <Gold.PLP.Chemscore.CHOScore>
1.0000

> <Gold.PLP.Chemscore.Metal>
0.0000

> <Gold.Chemscore.Hbonds>
donor molecule, donor type, donor heavy atom, donor atom, acceptor molecule, acceptor atom, score
      L1  H     6    29       P1  7957  1.00
      L1  H     9    30       P1  7957  0.26
      L1  H    13    50       P1  8028  1.89
      P1  H  7954  7966       L1    22  0.63
      L1  C    23    49       P1  7921  0.40

> <Gold.PLP.Chemscore.Internal.Correction>
0.0336

> <Gold.Rescore>
     Score         DG    S(hbond)    S(metal)    S(lipo)     H(rot)  DE(clash)    DE(int)     intcor
     17.39     -24.47       2.94        0.00     109.05       1.41       4.82       2.25       ----

> <Gold.Chemscore.Fitness>
17.3921

> <Gold.Chemscore.DG>
-24.4652

> <Gold.Chemscore.ZeroCoef>
-5.4800

> <Gold.Chemscore.Hbond>
2.9414

> <Gold.Chemscore.Metal>
0.0000

> <Gold.Chemscore.Lipo>
109.0543

> <Gold.Chemscore.Internal_Hbond>
0.0000

> <Gold.Chemscore.DEClash>
4.8240

> <Gold.Chemscore.DEInternal>
2.2492

> <Gold.Chemscore.Rot>
1.4056

> <Gold.Chemscore.Internal.Correction>
   9.000000E+99

> <Gold.Chemscore.Hbonds>
donor molecule, donor type, donor heavy atom, donor atom, acceptor molecule, acceptor atom, score
      L1  H     6    29       P1  7957  0.95
      L1  H     9    30       P1  7957  0.25
      L1  H    13    50       P1  8028  0.91
      P1  H  7954  7966       L1    22  0.61

> <Gold.Chemscore.Hbond.Weighted>
-9.8241

> <Gold.Chemscore.Metal.Weighted>
-0.0000

> <Gold.Chemscore.Lipo.Weighted>
-12.7593

> <Gold.Chemscore.Internal_Hbond.Weighted>
0.0000

> <Gold.Chemscore.DEClash.Weighted>
4.8240

> <Gold.Chemscore.DEInternal.Weighted>
2.2492

> <Gold.Chemscore.Rot.Weighted>
3.5982

> <Gold.Chemscore.Internal.Correction.Weighted>
   9.000000E+99

> <Gold.Protein.RotatedTorsions>
[ 6907 6896 6895 6894 ] final   32.61 input  -60.11 | X-H torsion
[ 7974 7965 7964 7962 ] final   30.91 input  175.53 | X-H torsion
[ 8008 7997 7996 7995 ] final -146.56 input   59.86 | X-H torsion
[ 10167 10162 10161 10158 ] final -162.60 input  -65.29 | X-H torsion
[ 10718 10713 10712 10709 ] final  -95.43 input   66.30 | X-H torsion
[ 10763 10752 10751 10750 ] final  -48.64 input  -60.55 | X-H torsion
[ 11005 11000 10999 10996 ] final -174.83 input  -57.11 | X-H torsion

> <Gold.Protein.ActiveResidues>
 VAL166  LYS551  ARG553  GLY616  TRP617  ASP618  TYR619  PRO620  LYS621  CYS622 
 ASP623  PHE694  ASN695  SER759  ASP760  ASP761  ALA762  ILE779  LEU786  VAL792 
 PHE793  MET794  SER795  GLU796  ALA797  LYS798  CYS799  TRP800  GLU811  SER814 

> <Gold.Protein.RotatedAtoms>
  152.0769  134.9497  160.0573 H   0  0  0  0  0  0  0  0  0  0  0  0  # atno 6907 bound_to 6896
  152.0801  133.4144  159.4505 H   0  0  0  0  0  0  0  0  0  0  0  0  # atno 6908 bound_to 6896
  150.6836  134.2912  159.4711 H   0  0  0  0  0  0  0  0  0  0  0  0  # atno 6909 bound_to 6896
  146.1583  139.6727  142.9051 H   0  0  0  0  0  0  0  0  0  0  0  0  # atno 7974 bound_to 7965
  155.5613  140.0625  157.2828 H   0  0  0  0  0  0  0  0  0  0  0  0  # atno 8008 bound_to 7997
  154.4389  140.1885  156.0830 H   0  0  0  0  0  0  0  0  0  0  0  0  # atno 8009 bound_to 7997
  156.0445  140.3292  155.7284 H   0  0  0  0  0  0  0  0  0  0  0  0  # atno 8010 bound_to 7997
  139.6380  144.0312  152.2070 H   0  0  0  0  0  0  0  0  0  0  0  0  # atno 10167 bound_to 10162
  156.0043  130.5109  150.6075 H   0  0  0  0  0  0  0  0  0  0  0  0  # atno 10718 bound_to 10713
  154.0811  135.6591  153.4838 H   0  0  0  0  0  0  0  0  0  0  0  0  # atno 10763 bound_to 10752
  153.0355  135.5180  154.7473 H   0  0  0  0  0  0  0  0  0  0  0  0  # atno 10764 bound_to 10752
  154.6568  135.3009  154.9885 H   0  0  0  0  0  0  0  0  0  0  0  0  # atno 10765 bound_to 10752
  140.4701  134.6174  157.4878 H   0  0  0  0  0  0  0  0  0  0  0  0  # atno 11005 bound_to 11000
  145.4653  141.0434  143.2729 LP  0  0  0  0  0  0  0  0  0  0  0  0  # atno 17320 bound_to 7965
  144.7992  139.6173  143.7079 LP  0  0  0  0  0  0  0  0  0  0  0  0  # atno 17321 bound_to 7965
  139.9995  144.6304  150.7742 LP  0  0  0  0  0  0  0  0  0  0  0  0  # atno 17342 bound_to 10162
  140.7476  143.2909  151.3335 LP  0  0  0  0  0  0  0  0  0  0  0  0  # atno 17343 bound_to 10162
  157.3913  131.0796  151.1391 LP  0  0  0  0  0  0  0  0  0  0  0  0  # atno 17370 bound_to 10713
  157.2082  130.6425  149.5764 LP  0  0  0  0  0  0  0  0  0  0  0  0  # atno 17371 bound_to 10713
  139.9891  134.7014  155.9722 LP  0  0  0  0  0  0  0  0  0  0  0  0  # atno 17394 bound_to 11000
  141.1581  133.6541  156.4228 LP  0  0  0  0  0  0  0  0  0  0  0  0  # atno 17395 bound_to 11000

$$$$
