AV-unprocessed.smi:155|AV-procd|sdf|1281|dock8
  -GOLD-   2262018553D 1   1.00000     0.00000
 Structure written by MMmdl.
 64 67  0  0  0  0  0  0  0  0  3 V2000
  147.6179  130.0218  152.9645 C   0  0  0  0  0  0  0  0  0  0  0  0
  148.4354  131.2469  152.8020 N   0  3  0  0  0  0  0  0  0  0  0  0
  149.5421  131.2876  153.7842 C   0  0  0  0  0  0  0  0  0  0  0  0
  147.6320  132.4970  152.8106 C   0  0  0  0  0  0  0  0  0  0  0  0
  146.2321  132.3106  152.1848 C   0  0  0  0  0  0  0  0  0  0  0  0
  145.4851  133.5898  152.0383 N   0  3  2  0  0  0  0  0  0  0  0  0
  144.0471  133.3838  151.7131 C   0  0  0  0  0  0  0  0  0  0  0  0
  143.1611  134.3387  152.5326 C   0  0  0  0  0  0  0  0  0  0  0  0
  143.2221  135.8024  152.0640 C   0  0  0  0  0  0  0  0  0  0  0  0
  144.5853  136.3274  152.0321 N   0  0  0  0  0  0  0  0  0  0  0  0
  145.2029  136.8065  153.1552 C   0  0  0  0  0  0  0  0  0  0  0  0
  144.9693  136.1594  154.3297 N   0  0  0  0  0  0  0  0  0  0  0  0
  145.5295  136.5686  155.4700 C   0  0  0  0  0  0  0  0  0  0  0  0
  146.3487  137.5990  155.6698 N   0  0  0  0  0  0  0  0  0  0  0  0
  146.5987  138.2596  154.5051 C   0  0  0  0  0  0  0  0  0  0  0  0
  146.0765  137.9396  153.2158 C   0  0  0  0  0  0  0  0  0  0  0  0
  146.5642  138.8592  152.2911 N   0  0  0  0  0  0  0  0  0  0  0  0
  147.3254  139.6602  152.9834 C   0  0  0  0  0  0  0  0  0  0  0  0
  147.4033  139.3695  154.3236 N   0  0  0  0  0  0  0  0  0  0  0  0
  148.1714  140.0862  155.3264 C   0  0  0  0  0  0  0  0  0  0  0  0
  149.6916  139.8824  155.1549 C   0  0  1  0  0  0  0  0  0  0  0  0
  150.1157  140.3453  153.8878 O   0  0  0  0  0  0  0  0  0  0  0  0
  150.5514  140.5549  156.2451 C   0  0  2  0  0  0  0  0  0  0  0  0
  150.2114  140.1187  157.6705 C   0  0  0  0  0  0  0  0  0  0  0  0
  150.7759  141.2648  158.4785 C   0  0  0  0  0  0  0  0  0  0  0  0
  150.4516  142.4661  157.5944 C   0  0  0  0  0  0  0  0  0  0  0  0
  150.3800  141.9705  156.2594 O   0  0  0  0  0  0  0  0  0  0  0  0
  145.3981  135.8852  150.8950 C   0  0  0  0  0  0  0  0  0  0  0  0
  146.1681  134.5672  151.1419 C   0  0  0  0  0  0  0  0  0  0  0  0
  147.0977  130.0233  153.9233 H   0  0  0  0  0  0  0  0  0  0  0  0
  148.2488  129.1331  152.9255 H   0  0  0  0  0  0  0  0  0  0  0  0
  146.8752  129.9227  152.1741 H   0  0  0  0  0  0  0  0  0  0  0  0
  149.1586  131.3655  154.8025 H   0  0  0  0  0  0  0  0  0  0  0  0
  150.1976  132.1393  153.5984 H   0  0  0  0  0  0  0  0  0  0  0  0
  150.1520  130.3857  153.7173 H   0  0  0  0  0  0  0  0  0  0  0  0
  147.5541  132.8739  153.8321 H   0  0  0  0  0  0  0  0  0  0  0  0
  148.1713  133.2547  152.2418 H   0  0  0  0  0  0  0  0  0  0  0  0
  146.3057  131.8105  151.2180 H   0  0  0  0  0  0  0  0  0  0  0  0
  145.6512  131.6528  152.8301 H   0  0  0  0  0  0  0  0  0  0  0  0
  143.8661  133.4852  150.6419 H   0  0  0  0  0  0  0  0  0  0  0  0
  143.7423  132.3677  151.9655 H   0  0  0  0  0  0  0  0  0  0  0  0
  142.1254  134.0043  152.4638 H   0  0  0  0  0  0  0  0  0  0  0  0
  143.4265  134.2663  153.5877 H   0  0  0  0  0  0  0  0  0  0  0  0
  142.8098  135.8631  151.0563 H   0  0  0  0  0  0  0  0  0  0  0  0
  142.5685  136.4382  152.6580 H   0  0  0  0  0  0  0  0  0  0  0  0
  145.2851  135.9885  156.3478 H   0  0  0  0  0  0  0  0  0  0  0  0
  147.8558  140.4869  152.5328 H   0  0  0  0  0  0  0  0  0  0  0  0
  147.9163  141.1447  155.2631 H   0  0  0  0  0  0  0  0  0  0  0  0
  147.8456  139.7458  156.3093 H   0  0  0  0  0  0  0  0  0  0  0  0
  149.9084  138.8135  155.1675 H   0  0  0  0  0  0  0  0  0  0  0  0
  149.4365  140.1584  153.2580 H   0  0  0  0  0  0  0  0  0  0  0  0
  151.6087  140.3430  156.0748 H   0  0  0  0  0  0  0  0  0  0  0  0
  149.1329  140.0565  157.8180 H   0  0  0  0  0  0  0  0  0  0  0  0
  150.6481  139.1551  157.9345 H   0  0  0  0  0  0  0  0  0  0  0  0
  150.3465  141.3409  159.4778 H   0  0  0  0  0  0  0  0  0  0  0  0
  151.8565  141.1533  158.5782 H   0  0  0  0  0  0  0  0  0  0  0  0
  149.4807  142.8864  157.8585 H   0  0  0  0  0  0  0  0  0  0  0  0
  151.1978  143.2558  157.6840 H   0  0  0  0  0  0  0  0  0  0  0  0
  144.7338  135.7398  150.0425 H   0  0  0  0  0  0  0  0  0  0  0  0
  146.0818  136.6735  150.5778 H   0  0  0  0  0  0  0  0  0  0  0  0
  147.1244  134.8313  151.5912 H   0  0  0  0  0  0  0  0  0  0  0  0
  146.3980  134.0994  150.1836 H   0  0  0  0  0  0  0  0  0  0  0  0
  148.8754  131.1893  151.8943 H   0  0  0  0  0  0  0  0  0  0  0  0
  145.4822  134.0069  152.9583 H   0  0  0  0  0  0  0  0  0  0  0  0
  1  2  1  0  0  0  0
  1 30  1  0  0  0  0
  1 31  1  0  0  0  0
  1 32  1  0  0  0  0
  2  3  1  0  0  0  0
  2  4  1  0  0  0  0
  2 63  1  0  0  0  0
  3 33  1  0  0  0  0
  3 34  1  0  0  0  0
  3 35  1  0  0  0  0
  4  5  1  0  0  0  0
  4 36  1  0  0  0  0
  4 37  1  0  0  0  0
  5  6  1  0  0  0  0
  5 38  1  0  0  0  0
  5 39  1  0  0  0  0
  6 29  1  0  0  0  0
  6  7  1  0  0  0  0
  6 64  1  0  0  0  0
  7  8  1  0  0  0  0
  7 40  1  0  0  0  0
  7 41  1  0  0  0  0
  8  9  1  0  0  0  0
  8 42  1  0  0  0  0
  8 43  1  0  0  0  0
  9 10  1  0  0  0  0
  9 44  1  0  0  0  0
  9 45  1  0  0  0  0
 10 11  1  0  0  0  0
 10 28  1  0  0  0  0
 11 16  1  0  0  0  0
 11 12  2  0  0  0  0
 12 13  1  0  0  0  0
 13 14  2  0  0  0  0
 13 46  1  0  0  0  0
 14 15  1  0  0  0  0
 15 19  1  0  0  0  0
 15 16  2  0  0  0  0
 16 17  1  0  0  0  0
 17 18  2  0  0  0  0
 18 19  1  0  0  0  0
 18 47  1  0  0  0  0
 19 20  1  0  0  0  0
 20 21  1  0  0  0  0
 20 48  1  0  0  0  0
 20 49  1  0  0  0  0
 21 22  1  0  0  0  0
 21 23  1  0  0  0  0
 21 50  1  0  0  0  0
 22 51  1  0  0  0  0
 23 27  1  0  0  0  0
 23 24  1  0  0  0  0
 23 52  1  0  0  0  0
 24 25  1  0  0  0  0
 24 53  1  0  0  0  0
 24 54  1  0  0  0  0
 25 26  1  0  0  0  0
 25 55  1  0  0  0  0
 25 56  1  0  0  0  0
 26 27  1  0  0  0  0
 26 57  1  0  0  0  0
 26 58  1  0  0  0  0
 28 29  1  0  0  0  0
 28 59  1  0  0  0  0
 28 60  1  0  0  0  0
 29 61  1  0  0  0  0
 29 62  1  0  0  0  0
M  CHG  1   2   1
M  CHG  1   6   1
M  END
> <s_m_source_file>
AV-unprocessed.smi

> <i_m_source_file_index>
155

> <i_lp_mmshare_version>
43012

> <i_f3d_flags>
0

> <s_epik_input>
W0NIM11OKFtDSDNdKVtDSDJdW0NIMl1OMVtDSDJdW0NIMl1bQ0gyXU4oW0NIMl1bQ0gyXTEpYyhuW2NIXW4yKWMoYzIzKW5bY0hdbjNbQ0gyXVtDQEhdKFtPSF0pW0NAQEhdNFtDSDJdW0NIMl1bQ0gyXU80

> <s_epik_cmdline>
J2VwaWtfcHl0aG9uJywgJy1waCcsICc3LjAnLCAnLXRuJywgJzgnLCAnLW1hJywgJzIwMCcsICctbWV0YWxfYmluZGluZycsICctaW1hZScsICc8aW5maWxlLm1hZT4nLCAnLW9tYWUnLCAnPG91dGZpbGUubWFlPic=

> <r_lp_tautomer_probability>
1

> <r_epik_Ionization_Penalty>
3.0333

> <r_epik_Ionization_Penalty_Charging>
3.03317

> <r_epik_Ionization_Penalty_Neutral>
0.000131872

> <r_epik_State_Penalty>
1.99939

> <r_epik_Charging_Adjusted_Penalty>
5.03256

> <i_epik_Tot_Q>
2

> <i_epik_Tot_abs_Q>
2

> <r_epik_Metal_State_Penalty>
2.00021

> <b_epik_Metal_Only>
0

> <s_lp_Force_Field>
OPLS_2005

> <r_lp_Energy>
62.4537

> <b_lp_Chiralities_Consistent>
1

> <s_lp_Variant>
AV-unprocessed.smi:155-15

> <Gold.Version>
5.8.1

> <Gold.Id.Protein>
6NUR|6NUR_protein|mol2

> <Gold.PLP.Fitness>
45.6059

> <Gold.PLP.PLP>
-37.5768

> <Gold.PLP.part.hbond>
-2.7168

> <Gold.PLP.part.metal>
0.0000

> <Gold.PLP.part.buried>
-5.3558

> <Gold.PLP.part.nonpolar>
-30.4431

> <Gold.PLP.part.repulsive>
0.4462

> <Gold.PLP.ligand.clash>
0.0000

> <Gold.PLP.ligand.torsion>
1.2438

> <Gold.PLP.Chemscore.Hbond>
2.4720

> <Gold.PLP.Chemscore.CHOScore>
0.8987

> <Gold.PLP.Chemscore.Metal>
0.0000

> <Gold.Chemscore.Hbonds>
donor molecule, donor type, donor heavy atom, donor atom, acceptor molecule, acceptor atom, score
      L1  H     2    63       P1 10747  1.00
      L1  H    22    51       P1  7957  0.46
      P1  H  7989  7998       L1    22  0.77
      L1  C    18    47       P1  7957  0.78

> <Gold.PLP.Chemscore.Internal.Correction>
0.4047

> <Gold.Rescore>
     Score         DG    S(hbond)    S(metal)    S(lipo)     H(rot)  DE(clash)    DE(int)     intcor
     13.25     -15.92       2.32        0.00      83.17       2.75       0.41       2.26       ----

> <Gold.Chemscore.Fitness>
13.2487

> <Gold.Chemscore.DG>
-15.9159

> <Gold.Chemscore.ZeroCoef>
-5.4800

> <Gold.Chemscore.Hbond>
2.3183

> <Gold.Chemscore.Metal>
0.0000

> <Gold.Chemscore.Lipo>
83.1703

> <Gold.Chemscore.Internal_Hbond>
0.0000

> <Gold.Chemscore.DEClash>
0.4082

> <Gold.Chemscore.DEInternal>
2.2590

> <Gold.Chemscore.Rot>
2.7493

> <Gold.Chemscore.Internal.Correction>
   9.000000E+99

> <Gold.Chemscore.Hbonds>
donor molecule, donor type, donor heavy atom, donor atom, acceptor molecule, acceptor atom, score
      L1  H     2    63       P1 10747  0.77
      L1  H    22    51       P1  7957  0.45
      P1  H  7989  7998       L1    22  0.77

> <Gold.Chemscore.Hbond.Weighted>
-7.7433

> <Gold.Chemscore.Metal.Weighted>
-0.0000

> <Gold.Chemscore.Lipo.Weighted>
-9.7309

> <Gold.Chemscore.Internal_Hbond.Weighted>
0.0000

> <Gold.Chemscore.DEClash.Weighted>
0.4082

> <Gold.Chemscore.DEInternal.Weighted>
2.2590

> <Gold.Chemscore.Rot.Weighted>
7.0383

> <Gold.Chemscore.Internal.Correction.Weighted>
   9.000000E+99

> <Gold.Protein.RotatedTorsions>
[ 6907 6896 6895 6894 ] final  128.75 input  -60.11 | X-H torsion
[ 7974 7965 7964 7962 ] final  114.75 input  175.53 | X-H torsion
[ 8008 7997 7996 7995 ] final -131.69 input   59.86 | X-H torsion
[ 10167 10162 10161 10158 ] final   12.89 input  -65.29 | X-H torsion
[ 10718 10713 10712 10709 ] final -140.54 input   66.30 | X-H torsion
[ 10763 10752 10751 10750 ] final  -51.86 input  -60.55 | X-H torsion
[ 11005 11000 10999 10996 ] final   59.05 input  -57.11 | X-H torsion

> <Gold.Protein.ActiveResidues>
 VAL166  LYS551  ARG553  GLY616  TRP617  ASP618  TYR619  PRO620  LYS621  CYS622 
 ASP623  PHE694  ASN695  SER759  ASP760  ASP761  ALA762  ILE779  LEU786  VAL792 
 PHE793  MET794  SER795  GLU796  ALA797  LYS798  CYS799  TRP800  GLU811  SER814 

> <Gold.Protein.RotatedAtoms>
  152.3689  133.6393  159.6071 H   0  0  0  0  0  0  0  0  0  0  0  0  # atno 6907 bound_to 6896
  150.7654  133.9302  159.3433 H   0  0  0  0  0  0  0  0  0  0  0  0  # atno 6908 bound_to 6896
  151.7128  135.0910  160.0322 H   0  0  0  0  0  0  0  0  0  0  0  0  # atno 6909 bound_to 6896
  145.2005  139.2955  143.4321 H   0  0  0  0  0  0  0  0  0  0  0  0  # atno 7974 bound_to 7965
  155.3166  140.0460  157.3037 H   0  0  0  0  0  0  0  0  0  0  0  0  # atno 8008 bound_to 7997
  154.5403  140.2285  155.8618 H   0  0  0  0  0  0  0  0  0  0  0  0  # atno 8009 bound_to 7997
  156.1875  140.3059  155.9273 H   0  0  0  0  0  0  0  0  0  0  0  0  # atno 8010 bound_to 7997
  140.6039  143.8549  150.6993 H   0  0  0  0  0  0  0  0  0  0  0  0  # atno 10167 bound_to 10162
  156.3235  130.7547  151.1650 H   0  0  0  0  0  0  0  0  0  0  0  0  # atno 10718 bound_to 10713
  154.1334  135.6516  153.4927 H   0  0  0  0  0  0  0  0  0  0  0  0  # atno 10763 bound_to 10752
  153.0188  135.5298  154.6978 H   0  0  0  0  0  0  0  0  0  0  0  0  # atno 10764 bound_to 10752
  154.6219  135.2965  155.0287 H   0  0  0  0  0  0  0  0  0  0  0  0  # atno 10765 bound_to 10752
  140.0332  134.5981  155.9478 H   0  0  0  0  0  0  0  0  0  0  0  0  # atno 11005 bound_to 11000
  146.3418  140.2248  142.8592 LP  0  0  0  0  0  0  0  0  0  0  0  0  # atno 17320 bound_to 7965
  144.9952  140.8583  143.5315 LP  0  0  0  0  0  0  0  0  0  0  0  0  # atno 17321 bound_to 7965
  140.2101  143.3890  152.1724 LP  0  0  0  0  0  0  0  0  0  0  0  0  # atno 17342 bound_to 10162
  139.5310  144.7159  151.5055 LP  0  0  0  0  0  0  0  0  0  0  0  0  # atno 17343 bound_to 10162
  157.7416  131.0501  150.5082 LP  0  0  0  0  0  0  0  0  0  0  0  0  # atno 17370 bound_to 10713
  156.5237  130.4168  149.6237 LP  0  0  0  0  0  0  0  0  0  0  0  0  # atno 17371 bound_to 10713
  141.1843  133.6552  156.5151 LP  0  0  0  0  0  0  0  0  0  0  0  0  # atno 17394 bound_to 11000
  140.4190  134.7204  157.4879 LP  0  0  0  0  0  0  0  0  0  0  0  0  # atno 17395 bound_to 11000

$$$$
