AV-unprocessed.smi:788|AV-procd|sdf|3736|dock9
  -GOLD-   22720 1173D 1   1.00000     0.00000
 Structure written by MMmdl.
 34 35  0  0  0  0  0  0  0  0  2 V2000
  152.2135  144.6002  158.0592 C   0  0  0  0  0  0  0  0  0  0  0  0
  152.8220  144.0901  159.3766 C   0  0  1  0  0  0  0  0  0  0  0  0
  151.9315  144.4458  160.5849 C   0  0  0  0  0  0  0  0  0  0  0  0
  152.5661  143.9870  161.9067 C   0  0  0  0  0  0  0  0  0  0  0  0
  152.8899  142.4853  161.8843 C   0  0  0  0  0  0  0  0  0  0  0  0
  153.7847  142.1171  160.6825 C   0  0  1  0  0  0  0  0  0  0  0  0
  154.1469  140.6216  160.6890 C   0  0  0  0  0  0  0  0  0  0  0  0
  153.1464  142.5749  159.3468 C   0  0  1  0  0  0  0  0  0  0  0  0
  151.9457  141.7869  159.0586 N   0  0  0  0  0  0  0  0  0  0  0  0
  151.8739  140.5642  158.4969 C   0  0  0  0  0  0  0  0  0  0  0  0
  152.9093  140.0035  158.1416 O   0  0  0  0  0  0  0  0  0  0  0  0
  150.6398  140.0128  158.3532 N   0  5  0  0  0  0  0  0  0  0  0  0
  150.1580  139.6280  157.1564 C   0  0  0  0  0  0  0  0  0  0  0  0
  148.8934  139.2081  156.9899 N   0  0  0  0  0  0  0  0  0  0  0  0
  148.6085  138.8407  155.6821 N   0  0  0  0  0  0  0  0  0  0  0  0
  149.6673  139.0043  154.8895 C   0  0  0  0  0  0  0  0  0  0  0  0
  151.1094  139.6201  155.6687 S   0  0  0  0  0  0  0  0  0  0  0  0
  151.2235  144.1786  157.8821 H   0  0  0  0  0  0  0  0  0  0  0  0
  152.8438  144.3378  157.2092 H   0  0  0  0  0  0  0  0  0  0  0  0
  152.1104  145.6853  158.0706 H   0  0  0  0  0  0  0  0  0  0  0  0
  153.7686  144.6169  159.5060 H   0  0  0  0  0  0  0  0  0  0  0  0
  151.7621  145.5225  160.6182 H   0  0  0  0  0  0  0  0  0  0  0  0
  150.9488  143.9854  160.4727 H   0  0  0  0  0  0  0  0  0  0  0  0
  153.4798  144.5542  162.0883 H   0  0  0  0  0  0  0  0  0  0  0  0
  151.8949  144.2092  162.7367 H   0  0  0  0  0  0  0  0  0  0  0  0
  153.3848  142.2073  162.8153 H   0  0  0  0  0  0  0  0  0  0  0  0
  151.9621  141.9126  161.8490 H   0  0  0  0  0  0  0  0  0  0  0  0
  154.7207  142.6661  160.7952 H   0  0  0  0  0  0  0  0  0  0  0  0
  153.2586  139.9902  160.6471 H   0  0  0  0  0  0  0  0  0  0  0  0
  154.6955  140.3565  161.5930 H   0  0  0  0  0  0  0  0  0  0  0  0
  154.7760  140.3674  159.8355 H   0  0  0  0  0  0  0  0  0  0  0  0
  153.8870  142.4116  158.5624 H   0  0  0  0  0  0  0  0  0  0  0  0
  151.0692  142.2119  159.3227 H   0  0  0  0  0  0  0  0  0  0  0  0
  149.5987  138.7618  153.8397 H   0  0  0  0  0  0  0  0  0  0  0  0
  1  2  1  0  0  0  0
  1 18  1  0  0  0  0
  1 19  1  0  0  0  0
  1 20  1  0  0  0  0
  2  8  1  0  0  0  0
  2  3  1  0  0  0  0
  2 21  1  0  0  0  0
  3  4  1  0  0  0  0
  3 22  1  0  0  0  0
  3 23  1  0  0  0  0
  4  5  1  0  0  0  0
  4 24  1  0  0  0  0
  4 25  1  0  0  0  0
  5  6  1  0  0  0  0
  5 26  1  0  0  0  0
  5 27  1  0  0  0  0
  6  7  1  0  0  0  0
  6  8  1  0  0  0  0
  6 28  1  0  0  0  0
  7 29  1  0  0  0  0
  7 30  1  0  0  0  0
  7 31  1  0  0  0  0
  8  9  1  0  0  0  0
  8 32  1  0  0  0  0
  9 10  1  0  0  0  0
  9 33  1  0  0  0  0
 10 11  2  0  0  0  0
 10 12  1  0  0  0  0
 12 13  1  0  0  0  0
 13 17  1  0  0  0  0
 13 14  2  0  0  0  0
 14 15  1  0  0  0  0
 15 16  2  0  0  0  0
 16 17  1  0  0  0  0
 16 34  1  0  0  0  0
M  CHG  1  12  -1
M  END
> <s_m_source_file>
AV-unprocessed.smi

> <i_m_source_file_index>
788

> <i_lp_mmshare_version>
43012

> <i_f3d_flags>
0

> <s_epik_input>
W0NIM11bQ0BASF0xW0NIMl1bQ0gyXVtDSDJdW0NAQEhdKFtDSDNdKVtDQEhdMVtOSF1DKD1PKVtOSF1jMm5uW2NIXXMy

> <s_epik_cmdline>
J2VwaWtfcHl0aG9uJywgJy1waCcsICc3LjAnLCAnLXRuJywgJzgnLCAnLW1hJywgJzIwMCcsICctbWV0YWxfYmluZGluZycsICctaW1hZScsICc8aW5maWxlLm1hZT4nLCAnLW9tYWUnLCAnPG91dGZpbGUubWFlPic=

> <r_lp_tautomer_probability>
1

> <r_epik_Ionization_Penalty>
4.58638

> <r_epik_Ionization_Penalty_Charging>
4.53816

> <r_epik_Ionization_Penalty_Neutral>
0.048215

> <r_epik_State_Penalty>
4.53788

> <r_epik_Charging_Adjusted_Penalty>
9.07605

> <i_epik_Tot_Q>
-1

> <i_epik_Tot_abs_Q>
1

> <r_epik_Metal_State_Penalty>
0.838628

> <b_epik_Metal_Only>
1

> <s_lp_Force_Field>
OPLS_2005

> <r_lp_Energy>
10.1282

> <b_lp_Chiralities_Consistent>
1

> <s_lp_Variant>
AV-unprocessed.smi:788-6

> <Gold.Version>
5.8.1

> <Gold.Id.Protein>
6NUR|6NUR_protein|mol2

> <Gold.PLP.Fitness>
45.0750

> <Gold.PLP.PLP>
-40.8303

> <Gold.PLP.part.hbond>
-1.0000

> <Gold.PLP.part.metal>
0.0000

> <Gold.PLP.part.buried>
-3.8842

> <Gold.PLP.part.nonpolar>
-34.5661

> <Gold.PLP.part.repulsive>
0.1543

> <Gold.PLP.ligand.clash>
0.0000

> <Gold.PLP.ligand.torsion>
0.8814

> <Gold.PLP.Chemscore.Hbond>
1.0000

> <Gold.PLP.Chemscore.CHOScore>
1.0000

> <Gold.PLP.Chemscore.Metal>
0.0000

> <Gold.Chemscore.Hbonds>
donor molecule, donor type, donor heavy atom, donor atom, acceptor molecule, acceptor atom, score
      P1  H  7997  8010       L1    11  0.99

> <Gold.PLP.Chemscore.Internal.Correction>
0.0075

> <Gold.Rescore>
     Score         DG    S(hbond)    S(metal)    S(lipo)     H(rot)  DE(clash)    DE(int)     intcor
     17.94     -18.87       0.98        0.00     108.36       1.00       0.05       0.89       ----

> <Gold.Chemscore.Fitness>
17.9414

> <Gold.Chemscore.DG>
-18.8732

> <Gold.Chemscore.ZeroCoef>
-5.4800

> <Gold.Chemscore.Hbond>
0.9804

> <Gold.Chemscore.Metal>
0.0000

> <Gold.Chemscore.Lipo>
108.3645

> <Gold.Chemscore.Internal_Hbond>
0.0000

> <Gold.Chemscore.DEClash>
0.0451

> <Gold.Chemscore.DEInternal>
0.8866

> <Gold.Chemscore.Rot>
1.0000

> <Gold.Chemscore.Internal.Correction>
   9.000000E+99

> <Gold.Chemscore.Hbonds>
donor molecule, donor type, donor heavy atom, donor atom, acceptor molecule, acceptor atom, score
      P1  H  7997  8010       L1    11  0.87

> <Gold.Chemscore.Hbond.Weighted>
-3.2746

> <Gold.Chemscore.Metal.Weighted>
-0.0000

> <Gold.Chemscore.Lipo.Weighted>
-12.6786

> <Gold.Chemscore.Internal_Hbond.Weighted>
0.0000

> <Gold.Chemscore.DEClash.Weighted>
0.0451

> <Gold.Chemscore.DEInternal.Weighted>
0.8866

> <Gold.Chemscore.Rot.Weighted>
2.5600

> <Gold.Chemscore.Internal.Correction.Weighted>
   9.000000E+99

> <Gold.Protein.RotatedTorsions>
[ 6907 6896 6895 6894 ] final -104.79 input  -60.11 | X-H torsion
[ 7974 7965 7964 7962 ] final  146.96 input  175.53 | X-H torsion
[ 8008 7997 7996 7995 ] final   50.87 input   59.86 | X-H torsion
[ 10167 10162 10161 10158 ] final  106.45 input  -65.29 | X-H torsion
[ 10718 10713 10712 10709 ] final   79.96 input   66.30 | X-H torsion
[ 10763 10752 10751 10750 ] final   52.98 input  -60.55 | X-H torsion
[ 11005 11000 10999 10996 ] final  109.89 input  -57.11 | X-H torsion

> <Gold.Protein.ActiveResidues>
 VAL166  LYS551  ARG553  GLY616  TRP617  ASP618  TYR619  PRO620  LYS621  CYS622 
 ASP623  PHE694  ASN695  SER759  ASP760  ASP761  ALA762  ILE779  LEU786  VAL792 
 PHE793  MET794  SER795  GLU796  ALA797  LYS798  CYS799  TRP800  GLU811  SER814 

> <Gold.Protein.RotatedAtoms>
  150.7304  134.0224  159.3705 H   0  0  0  0  0  0  0  0  0  0  0  0  # atno 6907 bound_to 6896
  151.8189  135.0655  160.0432 H   0  0  0  0  0  0  0  0  0  0  0  0  # atno 6908 bound_to 6896
  152.3018  133.5627  159.5659 H   0  0  0  0  0  0  0  0  0  0  0  0  # atno 6909 bound_to 6896
  144.8629  139.5969  143.5922 H   0  0  0  0  0  0  0  0  0  0  0  0  # atno 7974 bound_to 7965
  155.4259  140.3448  155.4275 H   0  0  0  0  0  0  0  0  0  0  0  0  # atno 8008 bound_to 7997
  156.1365  140.1529  156.9017 H   0  0  0  0  0  0  0  0  0  0  0  0  # atno 8009 bound_to 7997
  154.4936  140.0834  156.7629 H   0  0  0  0  0  0  0  0  0  0  0  0  # atno 8010 bound_to 7997
  139.7008  144.7094  151.1189 H   0  0  0  0  0  0  0  0  0  0  0  0  # atno 10167 bound_to 10162
  157.6792  130.9938  150.2010 H   0  0  0  0  0  0  0  0  0  0  0  0  # atno 10718 bound_to 10713
  152.9792  135.5794  154.4666 H   0  0  0  0  0  0  0  0  0  0  0  0  # atno 10763 bound_to 10752
  154.4235  135.2772  155.1962 H   0  0  0  0  0  0  0  0  0  0  0  0  # atno 10764 bound_to 10752
  154.3701  135.6170  153.5789 H   0  0  0  0  0  0  0  0  0  0  0  0  # atno 10765 bound_to 10752
  139.8871  134.9470  156.6195 H   0  0  0  0  0  0  0  0  0  0  0  0  # atno 11005 bound_to 11000
  146.2874  139.7043  142.9185 LP  0  0  0  0  0  0  0  0  0  0  0  0  # atno 17320 bound_to 7965
  145.4277  141.0412  143.2928 LP  0  0  0  0  0  0  0  0  0  0  0  0  # atno 17321 bound_to 7965
  140.7709  143.5427  150.9294 LP  0  0  0  0  0  0  0  0  0  0  0  0  # atno 17342 bound_to 10162
  139.9108  143.6722  152.3115 LP  0  0  0  0  0  0  0  0  0  0  0  0  # atno 17343 bound_to 10162
  156.2701  130.3721  149.8041 LP  0  0  0  0  0  0  0  0  0  0  0  0  # atno 17370 bound_to 10713
  156.5760  130.8445  151.3370 LP  0  0  0  0  0  0  0  0  0  0  0  0  # atno 17371 bound_to 10713
  140.7750  133.8707  155.8521 LP  0  0  0  0  0  0  0  0  0  0  0  0  # atno 17394 bound_to 11000
  140.9810  134.1406  157.4494 LP  0  0  0  0  0  0  0  0  0  0  0  0  # atno 17395 bound_to 11000

$$$$
