AV-unprocessed.smi:2762|AV-procd|sdf|10637|dock2
  -GOLD-   2272015 83D 1   1.00000     0.00000
 Structure written by MMmdl.
 40 41  0  0  0  0  0  0  0  0  2 V2000
  151.7161  138.0959  157.0124 O   0  0  0  0  0  0  0  0  0  0  0  0
  151.4862  139.0416  156.2579 C   0  0  0  0  0  0  0  0  0  0  0  0
  150.9665  138.8928  155.0306 N   0  0  0  0  0  0  0  0  0  0  0  0
  150.6087  137.6144  154.4266 C   0  0  0  0  0  0  0  0  0  0  0  0
  149.4588  136.9314  155.1921 C   0  0  0  0  0  0  0  0  0  0  0  0
  149.0423  135.6494  154.5710 N   0  3  0  0  0  0  0  0  0  0  0  0
  150.0385  134.5602  154.7275 C   0  0  0  0  0  0  0  0  0  0  0  0
  149.5469  133.2763  154.0377 C   0  0  0  0  0  0  0  0  0  0  0  0
  148.2826  132.9008  154.5693 O   0  0  0  0  0  0  0  0  0  0  0  0
  147.2949  133.8985  154.3446 C   0  0  0  0  0  0  0  0  0  0  0  0
  147.7106  135.2024  155.0459 C   0  0  0  0  0  0  0  0  0  0  0  0
  151.7195  140.3362  156.5366 N   0  0  0  0  0  0  0  0  0  0  0  0
  152.2750  140.8929  157.7194 C   0  0  0  0  0  0  0  0  0  0  0  0
  151.8008  142.1808  158.0530 C   0  0  0  0  0  0  0  0  0  0  0  0
  152.2886  142.8297  159.2071 C   0  0  0  0  0  0  0  0  0  0  0  0
  151.7816  144.2152  159.5753 C   0  0  0  0  0  0  0  0  0  0  0  0
  152.2066  144.5921  160.7817 F   0  0  0  0  0  0  0  0  0  0  0  0
  152.2101  145.1055  158.6804 F   0  0  0  0  0  0  0  0  0  0  0  0
  150.4491  144.2119  159.5739 F   0  0  0  0  0  0  0  0  0  0  0  0
  153.2403  142.1565  160.0006 C   0  0  0  0  0  0  0  0  0  0  0  0
  153.6585  140.8754  159.5973 C   0  0  0  0  0  0  0  0  0  0  0  0
  153.1932  140.2600  158.4904 N   0  0  0  0  0  0  0  0  0  0  0  0
  150.8070  139.7214  154.4759 H   0  0  0  0  0  0  0  0  0  0  0  0
  150.3390  137.7594  153.3791 H   0  0  0  0  0  0  0  0  0  0  0  0
  151.5034  136.9932  154.4340 H   0  0  0  0  0  0  0  0  0  0  0  0
  149.7322  136.7662  156.2353 H   0  0  0  0  0  0  0  0  0  0  0  0
  148.6018  137.6066  155.2023 H   0  0  0  0  0  0  0  0  0  0  0  0
  150.9961  134.8515  154.2973 H   0  0  0  0  0  0  0  0  0  0  0  0
  150.2091  134.3691  155.7881 H   0  0  0  0  0  0  0  0  0  0  0  0
  149.4746  133.4163  152.9578 H   0  0  0  0  0  0  0  0  0  0  0  0
  150.2551  132.4649  154.2065 H   0  0  0  0  0  0  0  0  0  0  0  0
  147.1562  134.0576  153.2739 H   0  0  0  0  0  0  0  0  0  0  0  0
  146.3420  133.5470  154.7405 H   0  0  0  0  0  0  0  0  0  0  0  0
  147.7386  135.0529  156.1265 H   0  0  0  0  0  0  0  0  0  0  0  0
  146.9668  135.9754  154.8484 H   0  0  0  0  0  0  0  0  0  0  0  0
  151.4788  141.0017  155.8173 H   0  0  0  0  0  0  0  0  0  0  0  0
  151.0677  142.6730  157.4303 H   0  0  0  0  0  0  0  0  0  0  0  0
  153.6444  142.6022  160.8973 H   0  0  0  0  0  0  0  0  0  0  0  0
  154.3861  140.3292  160.1794 H   0  0  0  0  0  0  0  0  0  0  0  0
  148.9449  135.8250  153.5809 H   0  0  0  0  0  0  0  0  0  0  0  0
  1  2  2  0  0  0  0
  2  3  1  0  0  0  0
  2 12  1  0  0  0  0
  3  4  1  0  0  0  0
  3 23  1  0  0  0  0
  4  5  1  0  0  0  0
  4 24  1  0  0  0  0
  4 25  1  0  0  0  0
  5  6  1  0  0  0  0
  5 26  1  0  0  0  0
  5 27  1  0  0  0  0
  6 11  1  0  0  0  0
  6  7  1  0  0  0  0
  6 40  1  0  0  0  0
  7  8  1  0  0  0  0
  7 28  1  0  0  0  0
  7 29  1  0  0  0  0
  8  9  1  0  0  0  0
  8 30  1  0  0  0  0
  8 31  1  0  0  0  0
  9 10  1  0  0  0  0
 10 11  1  0  0  0  0
 10 32  1  0  0  0  0
 10 33  1  0  0  0  0
 11 34  1  0  0  0  0
 11 35  1  0  0  0  0
 12 13  1  0  0  0  0
 12 36  1  0  0  0  0
 13 22  1  0  0  0  0
 13 14  2  0  0  0  0
 14 15  1  0  0  0  0
 14 37  1  0  0  0  0
 15 16  1  0  0  0  0
 15 20  2  0  0  0  0
 16 17  1  0  0  0  0
 16 18  1  0  0  0  0
 16 19  1  0  0  0  0
 20 21  1  0  0  0  0
 20 38  1  0  0  0  0
 21 22  2  0  0  0  0
 21 39  1  0  0  0  0
M  CHG  1   6   1
M  END
> <s_m_source_file>
AV-unprocessed.smi

> <i_m_source_file_index>
2762

> <i_lp_mmshare_version>
43012

> <i_f3d_flags>
0

> <s_epik_input>
bjFbY0hdW2NIXWMoQyhGKShGKUYpW2NIXWMxW05IXUMoPU8pW05IXVtDSDJdW0NIMl1OMltDSDJdW0NIMl1PW0NIMl1bQ0gyXTI=

> <s_epik_cmdline>
J2VwaWtfcHl0aG9uJywgJy1waCcsICc3LjAnLCAnLXRuJywgJzgnLCAnLW1hJywgJzIwMCcsICctbWV0YWxfYmluZGluZycsICctaW1hZScsICc8aW5maWxlLm1hZT4nLCAnLW9tYWUnLCAnPG91dGZpbGUubWFlPic=

> <r_epik_Ionization_Penalty>
0.602556

> <r_epik_Ionization_Penalty_Charging>
0.602531

> <r_epik_Ionization_Penalty_Neutral>
2.56546e-05

> <r_epik_State_Penalty>
0.617039

> <r_epik_Charging_Adjusted_Penalty>
1.21957

> <i_epik_Tot_Q>
1

> <i_epik_Tot_abs_Q>
1

> <r_epik_Metal_State_Penalty>
0.617039

> <b_epik_Metal_Only>
0

> <s_lp_Force_Field>
OPLS_2005

> <r_lp_Energy>
17.0947

> <b_lp_Chiralities_Consistent>
1

> <s_lp_Variant>
AV-unprocessed.smi:2762-2

> <Gold.Version>
5.8.1

> <Gold.Id.Protein>
6NUR|6NUR_protein|mol2

> <Gold.PLP.Fitness>
48.4211

> <Gold.PLP.PLP>
-40.7269

> <Gold.PLP.part.hbond>
-2.0000

> <Gold.PLP.part.metal>
0.0000

> <Gold.PLP.part.buried>
-5.8411

> <Gold.PLP.part.nonpolar>
-31.7877

> <Gold.PLP.part.repulsive>
0.2771

> <Gold.PLP.ligand.clash>
0.0000

> <Gold.PLP.ligand.torsion>
0.5256

> <Gold.PLP.Chemscore.Hbond>
2.9040

> <Gold.PLP.Chemscore.CHOScore>
0.0000

> <Gold.PLP.Chemscore.Metal>
0.0000

> <Gold.Chemscore.Hbonds>
donor molecule, donor type, donor heavy atom, donor atom, acceptor molecule, acceptor atom, score
      L1  H     6    40       P1  7948  2.00
      P1  H  7997  8010       L1    22  0.86

> <Gold.PLP.Chemscore.Internal.Correction>
0.0333

> <Gold.Rescore>
     Score         DG    S(hbond)    S(metal)    S(lipo)     H(rot)  DE(clash)    DE(int)     intcor
     13.41     -14.94       1.28        0.00      81.04       1.68       0.07       1.45       ----

> <Gold.Chemscore.Fitness>
13.4122

> <Gold.Chemscore.DG>
-14.9354

> <Gold.Chemscore.ZeroCoef>
-5.4800

> <Gold.Chemscore.Hbond>
1.2769

> <Gold.Chemscore.Metal>
0.0000

> <Gold.Chemscore.Lipo>
81.0398

> <Gold.Chemscore.Internal_Hbond>
0.0000

> <Gold.Chemscore.DEClash>
0.0712

> <Gold.Chemscore.DEInternal>
1.4520

> <Gold.Chemscore.Rot>
1.6762

> <Gold.Chemscore.Internal.Correction>
   9.000000E+99

> <Gold.Chemscore.Hbonds>
donor molecule, donor type, donor heavy atom, donor atom, acceptor molecule, acceptor atom, score
      L1  H     6    40       P1  7948  0.94
      P1  H  7997  8010       L1    22  0.13

> <Gold.Chemscore.Hbond.Weighted>
-4.2647

> <Gold.Chemscore.Metal.Weighted>
-0.0000

> <Gold.Chemscore.Lipo.Weighted>
-9.4817

> <Gold.Chemscore.Internal_Hbond.Weighted>
0.0000

> <Gold.Chemscore.DEClash.Weighted>
0.0712

> <Gold.Chemscore.DEInternal.Weighted>
1.4520

> <Gold.Chemscore.Rot.Weighted>
4.2910

> <Gold.Chemscore.Internal.Correction.Weighted>
   9.000000E+99

> <Gold.Protein.RotatedTorsions>
[ 6907 6896 6895 6894 ] final  -47.11 input  -60.11 | X-H torsion
[ 7974 7965 7964 7962 ] final   17.99 input  175.53 | X-H torsion
[ 8008 7997 7996 7995 ] final   27.44 input   59.86 | X-H torsion
[ 10167 10162 10161 10158 ] final  -42.54 input  -65.29 | X-H torsion
[ 10718 10713 10712 10709 ] final -165.70 input   66.30 | X-H torsion
[ 10763 10752 10751 10750 ] final -151.45 input  -60.55 | X-H torsion
[ 11005 11000 10999 10996 ] final   39.51 input  -57.11 | X-H torsion

> <Gold.Protein.ActiveResidues>
 VAL166  LYS551  ARG553  GLY616  TRP617  ASP618  TYR619  PRO620  LYS621  CYS622 
 ASP623  PHE694  ASN695  SER759  ASP760  ASP761  ALA762  ILE779  LEU786  VAL792 
 PHE793  MET794  SER795  GLU796  ALA797  LYS798  CYS799  TRP800  GLU811  SER814 

> <Gold.Protein.RotatedAtoms>
  150.9042  134.8456  159.7380 H   0  0  0  0  0  0  0  0  0  0  0  0  # atno 6907 bound_to 6896
  152.4909  134.4456  159.9568 H   0  0  0  0  0  0  0  0  0  0  0  0  # atno 6908 bound_to 6896
  151.4505  133.3579  159.2830 H   0  0  0  0  0  0  0  0  0  0  0  0  # atno 6909 bound_to 6896
  146.2200  139.8522  142.8620 H   0  0  0  0  0  0  0  0  0  0  0  0  # atno 7974 bound_to 7965
  155.0429  140.3171  155.4718 H   0  0  0  0  0  0  0  0  0  0  0  0  # atno 8008 bound_to 7997
  156.2851  140.2160  156.5496 H   0  0  0  0  0  0  0  0  0  0  0  0  # atno 8009 bound_to 7997
  154.7275  140.0484  157.0684 H   0  0  0  0  0  0  0  0  0  0  0  0  # atno 8010 bound_to 7997
  140.6966  143.3032  151.3223 H   0  0  0  0  0  0  0  0  0  0  0  0  # atno 10167 bound_to 10162
  156.6572  130.9031  151.3023 H   0  0  0  0  0  0  0  0  0  0  0  0  # atno 10718 bound_to 10713
  154.8057  135.3259  154.7438 H   0  0  0  0  0  0  0  0  0  0  0  0  # atno 10763 bound_to 10752
  153.8097  135.6896  153.4847 H   0  0  0  0  0  0  0  0  0  0  0  0  # atno 10764 bound_to 10752
  153.1800  135.4590  154.9960 H   0  0  0  0  0  0  0  0  0  0  0  0  # atno 10765 bound_to 10752
  140.2021  134.3858  155.8091 H   0  0  0  0  0  0  0  0  0  0  0  0  # atno 11005 bound_to 11000
  145.2790  141.0132  143.3728 LP  0  0  0  0  0  0  0  0  0  0  0  0  # atno 17320 bound_to 7965
  144.9165  139.4464  143.6562 LP  0  0  0  0  0  0  0  0  0  0  0  0  # atno 17321 bound_to 7965
  139.6428  144.0507  152.2568 LP  0  0  0  0  0  0  0  0  0  0  0  0  # atno 17342 bound_to 10162
  140.0018  144.6288  150.7723 LP  0  0  0  0  0  0  0  0  0  0  0  0  # atno 17343 bound_to 10162
  157.7121  130.9453  150.1127 LP  0  0  0  0  0  0  0  0  0  0  0  0  # atno 17370 bound_to 10713
  156.2038  130.3662  149.8754 LP  0  0  0  0  0  0  0  0  0  0  0  0  # atno 17371 bound_to 10713
  141.2227  133.7099  156.8275 LP  0  0  0  0  0  0  0  0  0  0  0  0  # atno 17394 bound_to 11000
  140.2043  134.8874  157.3204 LP  0  0  0  0  0  0  0  0  0  0  0  0  # atno 17395 bound_to 11000

$$$$
