AV-unprocessed.smi:1225|AV-procd|sdf|5141|dock2
  -GOLD-   22720 4203D 1   1.00000     0.00000
 Structure written by MMmdl.
 49 51  0  0  0  0  0  0  0  0  2 V2000
  153.3956  130.9593  164.0202 C   0  0  0  0  0  0  0  0  0  0  0  0
  154.1811  132.2260  164.0156 C   0  0  0  0  0  0  0  0  0  0  0  0
  154.8544  132.6823  165.0742 N   0  0  0  0  0  0  0  0  0  0  0  0
  155.5087  133.8876  164.8119 C   0  0  0  0  0  0  0  0  0  0  0  0
  155.3311  134.3471  163.5301 C   0  0  0  0  0  0  0  0  0  0  0  0
  155.8950  135.5850  162.9143 C   0  0  0  0  0  0  0  0  0  0  0  0
  154.8358  136.5655  162.5629 N   0  3  2  0  0  0  0  0  0  0  0  0
  153.7993  136.6843  163.6147 C   0  0  0  0  0  0  0  0  0  0  0  0
  154.2471  136.3296  161.2211 C   0  0  0  0  0  0  0  0  0  0  0  0
  153.2304  137.4271  160.8345 C   0  0  2  0  0  0  0  0  0  0  0  0
  152.1781  136.8316  160.1037 O   0  0  0  0  0  0  0  0  0  0  0  0
  153.8327  138.5522  159.9690 C   0  0  0  0  0  0  0  0  0  0  0  0
  153.6909  139.8628  160.5777 N   0  0  0  0  0  0  0  0  0  0  0  0
  154.2848  140.3030  161.7041 C   0  0  0  0  0  0  0  0  0  0  0  0
  154.0058  141.5429  162.0945 N   0  0  0  0  0  0  0  0  0  0  0  0
  153.1412  141.9620  161.0982 C   0  0  0  0  0  0  0  0  0  0  0  0
  152.4769  143.1950  160.9202 C   0  0  0  0  0  0  0  0  0  0  0  0
  151.6256  143.4063  159.8123 C   0  0  0  0  0  0  0  0  0  0  0  0
  150.9323  144.7487  159.6594 C   0  0  0  0  0  0  0  0  0  0  0  0
  151.4296  142.3743  158.8598 C   0  0  0  0  0  0  0  0  0  0  0  0
  150.5210  142.5795  157.6606 C   0  0  0  0  0  0  0  0  0  0  0  0
  152.0864  141.1366  159.0219 C   0  0  0  0  0  0  0  0  0  0  0  0
  152.9279  140.9367  160.1307 C   0  0  0  0  0  0  0  0  0  0  0  0
  154.3182  133.2683  162.6052 S   0  0  0  0  0  0  0  0  0  0  0  0
  153.2722  130.5872  165.0378 H   0  0  0  0  0  0  0  0  0  0  0  0
  153.9095  130.2006  163.4298 H   0  0  0  0  0  0  0  0  0  0  0  0
  152.4088  131.1300  163.5898 H   0  0  0  0  0  0  0  0  0  0  0  0
  156.0875  134.3499  165.5980 H   0  0  0  0  0  0  0  0  0  0  0  0
  156.6018  136.0240  163.6181 H   0  0  0  0  0  0  0  0  0  0  0  0
  156.4772  135.3377  162.0252 H   0  0  0  0  0  0  0  0  0  0  0  0
  153.2482  135.7496  163.7266 H   0  0  0  0  0  0  0  0  0  0  0  0
  153.0877  137.4731  163.3683 H   0  0  0  0  0  0  0  0  0  0  0  0
  154.2414  136.9384  164.5782 H   0  0  0  0  0  0  0  0  0  0  0  0
  155.0588  136.2609  160.4960 H   0  0  0  0  0  0  0  0  0  0  0  0
  153.7384  135.3645  161.1953 H   0  0  0  0  0  0  0  0  0  0  0  0
  152.7961  137.8730  161.7282 H   0  0  0  0  0  0  0  0  0  0  0  0
  151.4634  137.4482  160.0461 H   0  0  0  0  0  0  0  0  0  0  0  0
  154.8934  138.3663  159.7919 H   0  0  0  0  0  0  0  0  0  0  0  0
  153.3514  138.5785  158.9904 H   0  0  0  0  0  0  0  0  0  0  0  0
  154.9519  139.6748  162.2762 H   0  0  0  0  0  0  0  0  0  0  0  0
  152.6285  143.9821  161.6444 H   0  0  0  0  0  0  0  0  0  0  0  0
  149.8495  144.6223  159.6508 H   0  0  0  0  0  0  0  0  0  0  0  0
  151.2331  145.2291  158.7280 H   0  0  0  0  0  0  0  0  0  0  0  0
  151.1838  145.4225  160.4787 H   0  0  0  0  0  0  0  0  0  0  0  0
  150.4825  141.6888  157.0328 H   0  0  0  0  0  0  0  0  0  0  0  0
  150.8795  143.4062  157.0466 H   0  0  0  0  0  0  0  0  0  0  0  0
  149.5046  142.8038  157.9850 H   0  0  0  0  0  0  0  0  0  0  0  0
  151.9478  140.3454  158.3003 H   0  0  0  0  0  0  0  0  0  0  0  0
  155.2834  137.4696  162.5058 H   0  0  0  0  0  0  0  0  0  0  0  0
  1  2  1  0  0  0  0
  1 25  1  0  0  0  0
  1 26  1  0  0  0  0
  1 27  1  0  0  0  0
  2 24  1  0  0  0  0
  2  3  2  0  0  0  0
  3  4  1  0  0  0  0
  4  5  2  0  0  0  0
  4 28  1  0  0  0  0
  5  6  1  0  0  0  0
  5 24  1  0  0  0  0
  6  7  1  0  0  0  0
  6 29  1  0  0  0  0
  6 30  1  0  0  0  0
  7  8  1  0  0  0  0
  7  9  1  0  0  0  0
  7 49  1  0  0  0  0
  8 31  1  0  0  0  0
  8 32  1  0  0  0  0
  8 33  1  0  0  0  0
  9 10  1  0  0  0  0
  9 34  1  0  0  0  0
  9 35  1  0  0  0  0
 10 11  1  0  0  0  0
 10 12  1  0  0  0  0
 10 36  1  0  0  0  0
 11 37  1  0  0  0  0
 12 13  1  0  0  0  0
 12 38  1  0  0  0  0
 12 39  1  0  0  0  0
 13 23  1  0  0  0  0
 13 14  1  0  0  0  0
 14 15  2  0  0  0  0
 14 40  1  0  0  0  0
 15 16  1  0  0  0  0
 16 23  2  0  0  0  0
 16 17  1  0  0  0  0
 17 18  2  0  0  0  0
 17 41  1  0  0  0  0
 18 19  1  0  0  0  0
 18 20  1  0  0  0  0
 19 42  1  0  0  0  0
 19 43  1  0  0  0  0
 19 44  1  0  0  0  0
 20 21  1  0  0  0  0
 20 22  2  0  0  0  0
 21 45  1  0  0  0  0
 21 46  1  0  0  0  0
 21 47  1  0  0  0  0
 22 23  1  0  0  0  0
 22 48  1  0  0  0  0
M  CHG  1   7   1
M  END
> <s_m_source_file>
AV-unprocessed.smi

> <i_m_source_file_index>
1225

> <i_lp_mmshare_version>
43012

> <i_f3d_flags>
0

> <s_epik_input>
W0NIM11jMW5bY0hdYyhzMSlbQ0gyXU4oW0NIM10pW0NIMl1bQ0BIXShbT0hdKVtDSDJdbihbY0hdbjIpYyhjMjMpW2NIXWMoW0NIM10pYyhbY0hdMylbQ0gzXQ==

> <s_epik_cmdline>
J2VwaWtfcHl0aG9uJywgJy1waCcsICc3LjAnLCAnLXRuJywgJzgnLCAnLW1hJywgJzIwMCcsICctbWV0YWxfYmluZGluZycsICctaW1hZScsICc8aW5maWxlLm1hZT4nLCAnLW9tYWUnLCAnPG91dGZpbGUubWFlPic=

> <r_epik_Ionization_Penalty>
1.62543

> <r_epik_Ionization_Penalty_Charging>
1.53932

> <r_epik_Ionization_Penalty_Neutral>
0.0861152

> <r_epik_State_Penalty>
1.73127

> <r_epik_Charging_Adjusted_Penalty>
3.27059

> <i_epik_Tot_Q>
1

> <i_epik_Tot_abs_Q>
1

> <r_epik_Metal_State_Penalty>
1.71387

> <b_epik_Metal_Only>
0

> <s_lp_Force_Field>
OPLS_2005

> <r_lp_Energy>
11.3811

> <b_lp_Chiralities_Consistent>
1

> <s_lp_Variant>
AV-unprocessed.smi:1225-6

> <Gold.Version>
5.8.1

> <Gold.Id.Protein>
6NUR|6NUR_protein|mol2

> <Gold.PLP.Fitness>
51.0684

> <Gold.PLP.PLP>
-51.0560

> <Gold.PLP.part.hbond>
-2.0000

> <Gold.PLP.part.metal>
0.0000

> <Gold.PLP.part.buried>
-5.9270

> <Gold.PLP.part.nonpolar>
-43.2560

> <Gold.PLP.part.repulsive>
0.0705

> <Gold.PLP.ligand.clash>
0.0000

> <Gold.PLP.ligand.torsion>
1.5476

> <Gold.PLP.Chemscore.Hbond>
1.0000

> <Gold.PLP.Chemscore.CHOScore>
0.0000

> <Gold.PLP.Chemscore.Metal>
0.0000

> <Gold.Chemscore.Hbonds>
donor molecule, donor type, donor heavy atom, donor atom, acceptor molecule, acceptor atom, score
      P1  H  6896  6908       L1    11  1.00

> <Gold.PLP.Chemscore.Internal.Correction>
0.1076

> <Gold.Rescore>
     Score         DG    S(hbond)    S(metal)    S(lipo)     H(rot)  DE(clash)    DE(int)     intcor
     18.33     -20.12       0.94        0.00     150.26       2.37       0.13       1.66       ----

> <Gold.Chemscore.Fitness>
18.3293

> <Gold.Chemscore.DG>
-20.1228

> <Gold.Chemscore.ZeroCoef>
-5.4800

> <Gold.Chemscore.Hbond>
0.9408

> <Gold.Chemscore.Metal>
0.0000

> <Gold.Chemscore.Lipo>
150.2605

> <Gold.Chemscore.Internal_Hbond>
0.0000

> <Gold.Chemscore.DEClash>
0.1300

> <Gold.Chemscore.DEInternal>
1.6635

> <Gold.Chemscore.Rot>
2.3750

> <Gold.Chemscore.Internal.Correction>
   9.000000E+99

> <Gold.Chemscore.Hbonds>
donor molecule, donor type, donor heavy atom, donor atom, acceptor molecule, acceptor atom, score
      P1  H  6896  6908       L1    11  0.88

> <Gold.Chemscore.Hbond.Weighted>
-3.1423

> <Gold.Chemscore.Metal.Weighted>
-0.0000

> <Gold.Chemscore.Lipo.Weighted>
-17.5805

> <Gold.Chemscore.Internal_Hbond.Weighted>
0.0000

> <Gold.Chemscore.DEClash.Weighted>
0.1300

> <Gold.Chemscore.DEInternal.Weighted>
1.6635

> <Gold.Chemscore.Rot.Weighted>
6.0800

> <Gold.Chemscore.Internal.Correction.Weighted>
   9.000000E+99

> <Gold.Protein.RotatedTorsions>
[ 6907 6896 6895 6894 ] final -113.80 input  -60.11 | X-H torsion
[ 7974 7965 7964 7962 ] final  -31.40 input  175.53 | X-H torsion
[ 8008 7997 7996 7995 ] final   20.82 input   59.86 | X-H torsion
[ 10167 10162 10161 10158 ] final   81.69 input  -65.29 | X-H torsion
[ 10718 10713 10712 10709 ] final   50.61 input   66.30 | X-H torsion
[ 10763 10752 10751 10750 ] final  163.96 input  -60.55 | X-H torsion
[ 11005 11000 10999 10996 ] final    5.84 input  -57.11 | X-H torsion

> <Gold.Protein.ActiveResidues>
 VAL166  LYS551  ARG553  GLY616  TRP617  ASP618  TYR619  PRO620  LYS621  CYS622 
 ASP623  PHE694  ASN695  SER759  ASP760  ASP761  ALA762  ILE779  LEU786  VAL792 
 PHE793  MET794  SER795  GLU796  ALA797  LYS798  CYS799  TRP800  GLU811  SER814 

> <Gold.Protein.RotatedAtoms>
  150.7856  133.8892  159.3308 H   0  0  0  0  0  0  0  0  0  0  0  0  # atno 6907 bound_to 6896
  151.6743  135.0969  160.0213 H   0  0  0  0  0  0  0  0  0  0  0  0  # atno 6908 bound_to 6896
  152.3918  133.6652  159.6279 H   0  0  0  0  0  0  0  0  0  0  0  0  # atno 6909 bound_to 6896
  146.1070  140.5663  142.8795 H   0  0  0  0  0  0  0  0  0  0  0  0  # atno 7974 bound_to 7965
  154.9413  140.3053  155.5119 H   0  0  0  0  0  0  0  0  0  0  0  0  # atno 8008 bound_to 7997
  156.2995  140.2336  156.4419 H   0  0  0  0  0  0  0  0  0  0  0  0  # atno 8009 bound_to 7997
  154.8143  140.0427  157.1354 H   0  0  0  0  0  0  0  0  0  0  0  0  # atno 8010 bound_to 7997
  139.9366  144.6117  150.8292 H   0  0  0  0  0  0  0  0  0  0  0  0  # atno 10167 bound_to 10162
  157.4901  130.8370  149.8192 H   0  0  0  0  0  0  0  0  0  0  0  0  # atno 10718 bound_to 10713
  154.3016  135.2759  155.2608 H   0  0  0  0  0  0  0  0  0  0  0  0  # atno 10763 bound_to 10752
  154.5043  135.5800  153.6558 H   0  0  0  0  0  0  0  0  0  0  0  0  # atno 10764 bound_to 10752
  152.9900  135.6165  154.3187 H   0  0  0  0  0  0  0  0  0  0  0  0  # atno 10765 bound_to 10752
  140.5662  134.0145  155.7991 H   0  0  0  0  0  0  0  0  0  0  0  0  # atno 11005 bound_to 11000
  144.7479  140.5116  143.6822 LP  0  0  0  0  0  0  0  0  0  0  0  0  # atno 17320 bound_to 7965
  145.5741  139.1485  143.3272 LP  0  0  0  0  0  0  0  0  0  0  0  0  # atno 17321 bound_to 7965
  140.7623  143.3194  151.2657 LP  0  0  0  0  0  0  0  0  0  0  0  0  # atno 17342 bound_to 10162
  139.6738  143.9973  152.2769 LP  0  0  0  0  0  0  0  0  0  0  0  0  # atno 17343 bound_to 10162
  156.0168  130.3810  150.2084 LP  0  0  0  0  0  0  0  0  0  0  0  0  # atno 17370 bound_to 10713
  157.0272  130.9997  151.3322 LP  0  0  0  0  0  0  0  0  0  0  0  0  # atno 17371 bound_to 10713
  141.1084  133.9656  157.2955 LP  0  0  0  0  0  0  0  0  0  0  0  0  # atno 17394 bound_to 11000
  139.9384  135.0194  156.8629 LP  0  0  0  0  0  0  0  0  0  0  0  0  # atno 17395 bound_to 11000

$$$$
