AV-unprocessed.smi:1971|AV-procd|sdf|7969|dock2
  -GOLD-   2272010143D 1   1.00000     0.00000
 Structure written by MMmdl.
 43 44  0  0  0  0  0  0  0  0  3 V2000
  147.9625  133.3982  153.2467 C   0  0  0  0  0  0  0  0  0  0  0  0
  148.9776  133.8739  154.2960 C   0  0  0  0  0  0  0  0  0  0  0  0
  149.1753  135.3444  154.2718 N   0  3  0  0  0  0  0  0  0  0  0  0
  150.4644  135.7515  154.8840 C   0  0  0  0  0  0  0  0  0  0  0  0
  150.6445  137.2856  154.8221 C   0  0  0  0  0  0  0  0  0  0  0  0
  149.5480  138.0008  155.4927 N   0  0  0  0  0  0  0  0  0  0  0  0
  149.5134  137.8317  156.9631 C   0  0  1  0  0  0  0  0  0  0  0  0
  150.3817  138.9165  157.6435 C   0  0  0  0  0  0  0  0  0  0  0  0
  148.0654  137.8716  157.5253 C   0  0  0  0  0  0  0  0  0  0  0  0
  148.0042  137.4989  158.9356 N   0  0  0  0  0  0  0  0  0  0  0  0
  148.6695  136.4823  159.5035 C   0  0  0  0  0  0  0  0  0  0  0  0
  149.3967  135.7619  158.8145 O   0  0  0  0  0  0  0  0  0  0  0  0
  148.4546  136.3664  160.8329 N   0  5  0  0  0  0  0  0  0  0  0  0
  147.2001  136.3317  161.3112 C   0  0  0  0  0  0  0  0  0  0  0  0
  146.3241  137.3273  161.1338 N   0  0  0  0  0  0  0  0  0  0  0  0
  145.0757  137.0770  161.7061 C   0  0  0  0  0  0  0  0  0  0  0  0
  144.9971  135.8593  162.3282 C   0  0  0  0  0  0  0  0  0  0  0  0
  146.4978  134.9853  162.2123 S   0  0  0  0  0  0  0  0  0  0  0  0
  148.3230  137.6215  154.7750 C   0  0  0  0  0  0  0  0  0  0  0  0
  148.0512  136.1062  154.8719 C   0  0  0  0  0  0  0  0  0  0  0  0
  147.9166  132.3092  153.2236 H   0  0  0  0  0  0  0  0  0  0  0  0
  148.2393  133.7372  152.2479 H   0  0  0  0  0  0  0  0  0  0  0  0
  146.9560  133.7578  153.4591 H   0  0  0  0  0  0  0  0  0  0  0  0
  148.6782  133.5525  155.2947 H   0  0  0  0  0  0  0  0  0  0  0  0
  149.9299  133.3850  154.0862 H   0  0  0  0  0  0  0  0  0  0  0  0
  150.5289  135.3837  155.9084 H   0  0  0  0  0  0  0  0  0  0  0  0
  151.2813  135.2786  154.3380 H   0  0  0  0  0  0  0  0  0  0  0  0
  151.6128  137.5712  155.2282 H   0  0  0  0  0  0  0  0  0  0  0  0
  150.6754  137.6007  153.7780 H   0  0  0  0  0  0  0  0  0  0  0  0
  149.9336  136.8613  157.2211 H   0  0  0  0  0  0  0  0  0  0  0  0
  150.3103  138.8692  158.7300 H   0  0  0  0  0  0  0  0  0  0  0  0
  150.0736  139.9180  157.3414 H   0  0  0  0  0  0  0  0  0  0  0  0
  151.4410  138.8045  157.4185 H   0  0  0  0  0  0  0  0  0  0  0  0
  147.6439  138.8710  157.4140 H   0  0  0  0  0  0  0  0  0  0  0  0
  147.3980  137.1913  156.9979 H   0  0  0  0  0  0  0  0  0  0  0  0
  147.4176  138.0624  159.5336 H   0  0  0  0  0  0  0  0  0  0  0  0
  144.2989  137.8220  161.6211 H   0  0  0  0  0  0  0  0  0  0  0  0
  144.1537  135.4247  162.8430 H   0  0  0  0  0  0  0  0  0  0  0  0
  147.4646  138.1956  155.1182 H   0  0  0  0  0  0  0  0  0  0  0  0
  148.4341  137.8989  153.7258 H   0  0  0  0  0  0  0  0  0  0  0  0
  147.1286  135.8858  154.3367 H   0  0  0  0  0  0  0  0  0  0  0  0
  147.8907  135.7981  155.9060 H   0  0  0  0  0  0  0  0  0  0  0  0
  149.2273  135.6169  153.3007 H   0  0  0  0  0  0  0  0  0  0  0  0
  1  2  1  0  0  0  0
  1 21  1  0  0  0  0
  1 22  1  0  0  0  0
  1 23  1  0  0  0  0
  2  3  1  0  0  0  0
  2 24  1  0  0  0  0
  2 25  1  0  0  0  0
  3 20  1  0  0  0  0
  3  4  1  0  0  0  0
  3 43  1  0  0  0  0
  4  5  1  0  0  0  0
  4 26  1  0  0  0  0
  4 27  1  0  0  0  0
  5  6  1  0  0  0  0
  5 28  1  0  0  0  0
  5 29  1  0  0  0  0
  6  7  1  0  0  0  0
  6 19  1  0  0  0  0
  7  8  1  0  0  0  0
  7  9  1  0  0  0  0
  7 30  1  0  0  0  0
  8 31  1  0  0  0  0
  8 32  1  0  0  0  0
  8 33  1  0  0  0  0
  9 10  1  0  0  0  0
  9 34  1  0  0  0  0
  9 35  1  0  0  0  0
 10 11  1  0  0  0  0
 10 36  1  0  0  0  0
 11 12  2  0  0  0  0
 11 13  1  0  0  0  0
 13 14  1  0  0  0  0
 14 18  1  0  0  0  0
 14 15  2  0  0  0  0
 15 16  1  0  0  0  0
 16 17  2  0  0  0  0
 16 37  1  0  0  0  0
 17 18  1  0  0  0  0
 17 38  1  0  0  0  0
 19 20  1  0  0  0  0
 19 39  1  0  0  0  0
 19 40  1  0  0  0  0
 20 41  1  0  0  0  0
 20 42  1  0  0  0  0
M  CHG  1   3   1
M  CHG  1  13  -1
M  END
> <s_m_source_file>
AV-unprocessed.smi

> <i_m_source_file_index>
1971

> <i_lp_mmshare_version>
43012

> <i_f3d_flags>
0

> <s_epik_input>
W0NIM11bQ0gyXU4xW0NIMl1bQ0gyXU4oW0NIMl1bQ0gyXTEpW0NASF0oW0NIM10pW0NIMl1bTkhdQyg9TylbTkhdYzJuW2NIXVtjSF1zMg==

> <s_epik_cmdline>
J2VwaWtfcHl0aG9uJywgJy1waCcsICc3LjAnLCAnLXRuJywgJzgnLCAnLW1hJywgJzIwMCcsICctbWV0YWxfYmluZGluZycsICctaW1hZScsICc8aW5maWxlLm1hZT4nLCAnLW9tYWUnLCAnPG91dGZpbGUubWFlPic=

> <r_lp_tautomer_probability>
0.999

> <r_epik_Ionization_Penalty>
7.06996

> <r_epik_Ionization_Penalty_Charging>
5.92347

> <r_epik_Ionization_Penalty_Neutral>
1.14649

> <r_epik_State_Penalty>
6.04391

> <r_epik_Charging_Adjusted_Penalty>
11.9674

> <i_epik_Tot_Q>
0

> <i_epik_Tot_abs_Q>
2

> <r_epik_Metal_State_Penalty>
2.01291

> <b_epik_Metal_Only>
1

> <s_lp_Force_Field>
OPLS_2005

> <r_lp_Energy>
11.7698

> <b_lp_Chiralities_Consistent>
1

> <s_lp_Variant>
AV-unprocessed.smi:1971-8

> <Gold.Version>
5.8.1

> <Gold.Id.Protein>
6NUR|6NUR_protein|mol2

> <Gold.PLP.Fitness>
42.6834

> <Gold.PLP.PLP>
-28.8792

> <Gold.PLP.part.hbond>
-4.0000

> <Gold.PLP.part.metal>
0.0000

> <Gold.PLP.part.buried>
-4.1079

> <Gold.PLP.part.nonpolar>
-21.3372

> <Gold.PLP.part.repulsive>
0.2619

> <Gold.PLP.ligand.clash>
0.0000

> <Gold.PLP.ligand.torsion>
2.1625

> <Gold.PLP.Chemscore.Hbond>
6.0000

> <Gold.PLP.Chemscore.CHOScore>
0.0000

> <Gold.PLP.Chemscore.Metal>
0.0000

> <Gold.Chemscore.Hbonds>
donor molecule, donor type, donor heavy atom, donor atom, acceptor molecule, acceptor atom, score
      L1  H     3    43       P1  7948  2.00
      P1  H  6896  6908       L1    12  1.00
      P1  H  6931  6943       L1    13  0.78
      P1  H  6934  6947       L1    15  1.00

> <Gold.PLP.Chemscore.Internal.Correction>
0.1292

> <Gold.Rescore>
     Score         DG    S(hbond)    S(metal)    S(lipo)     H(rot)  DE(clash)    DE(int)     intcor
     11.19     -16.36       2.66        0.00      55.49       1.75       0.10       5.07       ----

> <Gold.Chemscore.Fitness>
11.1947

> <Gold.Chemscore.DG>
-16.3618

> <Gold.Chemscore.ZeroCoef>
-5.4800

> <Gold.Chemscore.Hbond>
2.6558

> <Gold.Chemscore.Metal>
0.0000

> <Gold.Chemscore.Lipo>
55.4938

> <Gold.Chemscore.Internal_Hbond>
0.0000

> <Gold.Chemscore.DEClash>
0.1002

> <Gold.Chemscore.DEInternal>
5.0669

> <Gold.Chemscore.Rot>
1.7505

> <Gold.Chemscore.Internal.Correction>
   9.000000E+99

> <Gold.Chemscore.Hbonds>
donor molecule, donor type, donor heavy atom, donor atom, acceptor molecule, acceptor atom, score
      L1  H     3    43       P1  7948  0.38
      P1  H  6896  6908       L1    12  0.97
      P1  H  6931  6943       L1    13  0.04
      P1  H  6934  6947       L1    15  0.85

> <Gold.Chemscore.Hbond.Weighted>
-8.8703

> <Gold.Chemscore.Metal.Weighted>
-0.0000

> <Gold.Chemscore.Lipo.Weighted>
-6.4928

> <Gold.Chemscore.Internal_Hbond.Weighted>
0.0000

> <Gold.Chemscore.DEClash.Weighted>
0.1002

> <Gold.Chemscore.DEInternal.Weighted>
5.0669

> <Gold.Chemscore.Rot.Weighted>
4.4813

> <Gold.Chemscore.Internal.Correction.Weighted>
   9.000000E+99

> <Gold.Protein.RotatedTorsions>
[ 6907 6896 6895 6894 ] final -175.86 input  -60.11 | X-H torsion
[ 7974 7965 7964 7962 ] final   95.32 input  175.53 | X-H torsion
[ 8008 7997 7996 7995 ] final    6.20 input   59.86 | X-H torsion
[ 10167 10162 10161 10158 ] final  167.88 input  -65.29 | X-H torsion
[ 10718 10713 10712 10709 ] final -179.88 input   66.30 | X-H torsion
[ 10763 10752 10751 10750 ] final   19.77 input  -60.55 | X-H torsion
[ 11005 11000 10999 10996 ] final  -54.58 input  -57.11 | X-H torsion

> <Gold.Protein.ActiveResidues>
 VAL166  LYS551  ARG553  GLY616  TRP617  ASP618  TYR619  PRO620  LYS621  CYS622 
 ASP623  PHE694  ASN695  SER759  ASP760  ASP761  ALA762  ILE779  LEU786  VAL792 
 PHE793  MET794  SER795  GLU796  ALA797  LYS798  CYS799  TRP800  GLU811  SER814 

> <Gold.Protein.RotatedAtoms>
  151.5954  133.3362  159.3036 H   0  0  0  0  0  0  0  0  0  0  0  0  # atno 6907 bound_to 6896
  150.8237  134.7461  159.6806 H   0  0  0  0  0  0  0  0  0  0  0  0  # atno 6908 bound_to 6896
  152.4328  134.5750  159.9983 H   0  0  0  0  0  0  0  0  0  0  0  0  # atno 6909 bound_to 6896
  145.4538  139.2291  143.3025 H   0  0  0  0  0  0  0  0  0  0  0  0  # atno 7974 bound_to 7965
  154.7380  140.2743  155.6398 H   0  0  0  0  0  0  0  0  0  0  0  0  # atno 8008 bound_to 7997
  156.2866  140.2702  156.2025 H   0  0  0  0  0  0  0  0  0  0  0  0  # atno 8009 bound_to 7997
  155.0295  140.0371  157.2458 H   0  0  0  0  0  0  0  0  0  0  0  0  # atno 8010 bound_to 7997
  139.4955  144.3875  151.9555 H   0  0  0  0  0  0  0  0  0  0  0  0  # atno 10167 bound_to 10162
  156.8656  130.9766  151.3079 H   0  0  0  0  0  0  0  0  0  0  0  0  # atno 10718 bound_to 10713
  153.1134  135.6702  153.9461 H   0  0  0  0  0  0  0  0  0  0  0  0  # atno 10763 bound_to 10752
  153.8998  135.3037  155.3450 H   0  0  0  0  0  0  0  0  0  0  0  0  # atno 10764 bound_to 10752
  154.7552  135.5015  153.9439 H   0  0  0  0  0  0  0  0  0  0  0  0  # atno 10765 bound_to 10752
  141.1033  133.6616  156.4342 H   0  0  0  0  0  0  0  0  0  0  0  0  # atno 11005 bound_to 11000
  146.2489  140.5300  142.8902 LP  0  0  0  0  0  0  0  0  0  0  0  0  # atno 17320 bound_to 7965
  144.8045  140.6274  143.6456 LP  0  0  0  0  0  0  0  0  0  0  0  0  # atno 17321 bound_to 7965
  140.3312  144.3314  150.5987 LP  0  0  0  0  0  0  0  0  0  0  0  0  # atno 17342 bound_to 10162
  140.5644  143.2188  151.7710 LP  0  0  0  0  0  0  0  0  0  0  0  0  # atno 17343 bound_to 10162
  157.6225  130.8666  149.9133 LP  0  0  0  0  0  0  0  0  0  0  0  0  # atno 17370 bound_to 10713
  156.0753  130.3679  150.0690 LP  0  0  0  0  0  0  0  0  0  0  0  0  # atno 17371 bound_to 10713
  140.4967  134.6524  157.5232 LP  0  0  0  0  0  0  0  0  0  0  0  0  # atno 17394 bound_to 11000
  139.9892  134.7012  155.9719 LP  0  0  0  0  0  0  0  0  0  0  0  0  # atno 17395 bound_to 11000

$$$$
