AV-unprocessed.smi:2099|AV-procd|sdf|8572|dock3
  -GOLD-   2272011303D 1   1.00000     0.00000
 Structure written by MMmdl.
 31 32  0  0  0  0  0  0  0  0  2 V2000
  153.3970  141.3578  160.1183 C   0  0  0  0  0  0  0  0  0  0  0  0
  153.0107  142.8392  160.2317 C   0  0  2  0  0  0  0  0  0  0  0  0
  152.6365  143.2135  161.6786 C   0  0  0  0  0  0  0  0  0  0  0  0
  152.2423  144.6962  161.7966 C   0  0  0  0  0  0  0  0  0  0  0  0
  151.1001  145.0743  160.8294 C   0  0  2  0  0  0  0  0  0  0  0  0
  149.8354  144.4519  161.2209 N   0  0  0  0  0  0  0  0  0  0  0  0
  148.6151  144.9981  161.1207 C   0  0  0  0  0  0  0  0  0  0  0  0
  148.4834  146.1317  160.6536 O   0  0  0  0  0  0  0  0  0  0  0  0
  147.6231  144.1979  161.5740 N   0  5  0  0  0  0  0  0  0  0  0  0
  146.3680  144.3652  161.1262 C   0  0  0  0  0  0  0  0  0  0  0  0
  146.0893  145.0498  160.0051 N   0  0  0  0  0  0  0  0  0  0  0  0
  144.7319  145.0968  159.7174 N   0  0  0  0  0  0  0  0  0  0  0  0
  144.0190  144.4362  160.6296 C   0  0  0  0  0  0  0  0  0  0  0  0
  144.9403  143.6950  161.9207 S   0  0  0  0  0  0  0  0  0  0  0  0
  151.4607  144.6787  159.3842 C   0  0  0  0  0  0  0  0  0  0  0  0
  151.8628  143.1969  159.2681 C   0  0  0  0  0  0  0  0  0  0  0  0
  152.5624  140.7093  160.3875 H   0  0  0  0  0  0  0  0  0  0  0  0
  154.2316  141.1180  160.7778 H   0  0  0  0  0  0  0  0  0  0  0  0
  153.6988  141.1073  159.1010 H   0  0  0  0  0  0  0  0  0  0  0  0
  153.8835  143.4290  159.9478 H   0  0  0  0  0  0  0  0  0  0  0  0
  151.8116  142.5875  162.0218 H   0  0  0  0  0  0  0  0  0  0  0  0
  153.4744  143.0072  162.3452 H   0  0  0  0  0  0  0  0  0  0  0  0
  151.9664  144.9267  162.8259 H   0  0  0  0  0  0  0  0  0  0  0  0
  153.1138  145.3135  161.5755 H   0  0  0  0  0  0  0  0  0  0  0  0
  150.9636  146.1567  160.8550 H   0  0  0  0  0  0  0  0  0  0  0  0
  149.8912  143.5215  161.6084 H   0  0  0  0  0  0  0  0  0  0  0  0
  142.9442  144.3821  160.5398 H   0  0  0  0  0  0  0  0  0  0  0  0
  150.6261  144.8927  158.7153 H   0  0  0  0  0  0  0  0  0  0  0  0
  152.2894  145.2993  159.0410 H   0  0  0  0  0  0  0  0  0  0  0  0
  152.1590  142.9812  158.2410 H   0  0  0  0  0  0  0  0  0  0  0  0
  150.9975  142.5656  159.4744 H   0  0  0  0  0  0  0  0  0  0  0  0
  1  2  1  0  0  0  0
  1 17  1  0  0  0  0
  1 18  1  0  0  0  0
  1 19  1  0  0  0  0
  2 16  1  0  0  0  0
  2  3  1  0  0  0  0
  2 20  1  0  0  0  0
  3  4  1  0  0  0  0
  3 21  1  0  0  0  0
  3 22  1  0  0  0  0
  4  5  1  0  0  0  0
  4 23  1  0  0  0  0
  4 24  1  0  0  0  0
  5  6  1  0  0  0  0
  5 15  1  0  0  0  0
  5 25  1  0  0  0  0
  6  7  1  0  0  0  0
  6 26  1  0  0  0  0
  7  8  2  0  0  0  0
  7  9  1  0  0  0  0
  9 10  1  0  0  0  0
 10 14  1  0  0  0  0
 10 11  2  0  0  0  0
 11 12  1  0  0  0  0
 12 13  2  0  0  0  0
 13 14  1  0  0  0  0
 13 27  1  0  0  0  0
 15 16  1  0  0  0  0
 15 28  1  0  0  0  0
 15 29  1  0  0  0  0
 16 30  1  0  0  0  0
 16 31  1  0  0  0  0
M  CHG  1   9  -1
M  END
> <s_m_source_file>
AV-unprocessed.smi

> <i_m_source_file_index>
2099

> <i_lp_mmshare_version>
43012

> <i_f3d_flags>
0

> <s_epik_input>
W0NIM11bQ0BASF0xW0NIMl1bQ0gyXVtDQEhdKFtDSDJdW0NIMl0xKVtOSF1DKD1PKVtOSF1jMm5uW2NIXXMy

> <s_epik_cmdline>
J2VwaWtfcHl0aG9uJywgJy1waCcsICc3LjAnLCAnLXRuJywgJzgnLCAnLW1hJywgJzIwMCcsICctbWV0YWxfYmluZGluZycsICctaW1hZScsICc8aW5maWxlLm1hZT4nLCAnLW9tYWUnLCAnPG91dGZpbGUubWFlPic=

> <r_lp_tautomer_probability>
1

> <r_epik_Ionization_Penalty>
4.54895

> <r_epik_Ionization_Penalty_Charging>
4.4996

> <r_epik_Ionization_Penalty_Neutral>
0.0493438

> <r_epik_State_Penalty>
4.4993

> <r_epik_Charging_Adjusted_Penalty>
8.99891

> <i_epik_Tot_Q>
-1

> <i_epik_Tot_abs_Q>
1

> <r_epik_Metal_State_Penalty>
0.819079

> <b_epik_Metal_Only>
1

> <s_lp_Force_Field>
OPLS_2005

> <r_lp_Energy>
5.8403

> <b_lp_Chiralities_Consistent>
1

> <s_lp_Variant>
AV-unprocessed.smi:2099-4

> <Gold.Version>
5.8.1

> <Gold.Id.Protein>
6NUR|6NUR_protein|mol2

> <Gold.PLP.Fitness>
39.6626

> <Gold.PLP.PLP>
-34.7191

> <Gold.PLP.part.hbond>
-3.1105

> <Gold.PLP.part.metal>
0.0000

> <Gold.PLP.part.buried>
-2.2605

> <Gold.PLP.part.nonpolar>
-30.9477

> <Gold.PLP.part.repulsive>
1.6975

> <Gold.PLP.ligand.clash>
0.0000

> <Gold.PLP.ligand.torsion>
0.5357

> <Gold.PLP.Chemscore.Hbond>
2.0000

> <Gold.PLP.Chemscore.CHOScore>
0.0000

> <Gold.PLP.Chemscore.Metal>
0.0000

> <Gold.Chemscore.Hbonds>
donor molecule, donor type, donor heavy atom, donor atom, acceptor molecule, acceptor atom, score
      P1  H  6933  6944       L1     9  2.00

> <Gold.PLP.Chemscore.Internal.Correction>
0.0150

> <Gold.Rescore>
     Score         DG    S(hbond)    S(metal)    S(lipo)     H(rot)  DE(clash)    DE(int)     intcor
     11.92     -15.87       0.60        0.00      93.61       1.00       2.02       1.93       ----

> <Gold.Chemscore.Fitness>
11.9198

> <Gold.Chemscore.DG>
-15.8671

> <Gold.Chemscore.ZeroCoef>
-5.4800

> <Gold.Chemscore.Hbond>
0.5971

> <Gold.Chemscore.Metal>
0.0000

> <Gold.Chemscore.Lipo>
93.6128

> <Gold.Chemscore.Internal_Hbond>
0.0000

> <Gold.Chemscore.DEClash>
2.0154

> <Gold.Chemscore.DEInternal>
1.9319

> <Gold.Chemscore.Rot>
1.0000

> <Gold.Chemscore.Internal.Correction>
   9.000000E+99

> <Gold.Chemscore.Hbonds>
donor molecule, donor type, donor heavy atom, donor atom, acceptor molecule, acceptor atom, score
      P1  H  6933  6944       L1     9  0.27

> <Gold.Chemscore.Hbond.Weighted>
-1.9944

> <Gold.Chemscore.Metal.Weighted>
-0.0000

> <Gold.Chemscore.Lipo.Weighted>
-10.9527

> <Gold.Chemscore.Internal_Hbond.Weighted>
0.0000

> <Gold.Chemscore.DEClash.Weighted>
2.0154

> <Gold.Chemscore.DEInternal.Weighted>
1.9319

> <Gold.Chemscore.Rot.Weighted>
2.5600

> <Gold.Chemscore.Internal.Correction.Weighted>
   9.000000E+99

> <Gold.Protein.RotatedTorsions>
[ 6907 6896 6895 6894 ] final  120.25 input  -60.11 | X-H torsion
[ 7974 7965 7964 7962 ] final   79.10 input  175.53 | X-H torsion
[ 8008 7997 7996 7995 ] final  178.94 input   59.86 | X-H torsion
[ 10167 10162 10161 10158 ] final -156.18 input  -65.29 | X-H torsion
[ 10718 10713 10712 10709 ] final  142.55 input   66.30 | X-H torsion
[ 10763 10752 10751 10750 ] final   92.53 input  -60.55 | X-H torsion
[ 11005 11000 10999 10996 ] final   45.85 input  -57.11 | X-H torsion

> <Gold.Protein.ActiveResidues>
 VAL166  LYS551  ARG553  GLY616  TRP617  ASP618  TYR619  PRO620  LYS621  CYS622 
 ASP623  PHE694  ASN695  SER759  ASP760  ASP761  ALA762  ILE779  LEU786  VAL792 
 PHE793  MET794  SER795  GLU796  ALA797  LYS798  CYS799  TRP800  GLU811  SER814 

> <Gold.Protein.RotatedAtoms>
  152.4412  133.7451  159.6662 H   0  0  0  0  0  0  0  0  0  0  0  0  # atno 6907 bound_to 6896
  150.8303  133.8092  159.3107 H   0  0  0  0  0  0  0  0  0  0  0  0  # atno 6908 bound_to 6896
  151.5748  135.1063  160.0055 H   0  0  0  0  0  0  0  0  0  0  0  0  # atno 6909 bound_to 6896
  145.6686  139.2490  143.1881 H   0  0  0  0  0  0  0  0  0  0  0  0  # atno 7974 bound_to 7965
  156.0490  140.1321  157.0071 H   0  0  0  0  0  0  0  0  0  0  0  0  # atno 8008 bound_to 7997
  154.4426  140.1015  156.6419 H   0  0  0  0  0  0  0  0  0  0  0  0  # atno 8009 bound_to 7997
  155.5552  140.3463  155.4480 H   0  0  0  0  0  0  0  0  0  0  0  0  # atno 8010 bound_to 7997
  139.6871  143.9483  152.2366 H   0  0  0  0  0  0  0  0  0  0  0  0  # atno 10167 bound_to 10162
  157.3793  131.0990  151.0754 H   0  0  0  0  0  0  0  0  0  0  0  0  # atno 10718 bound_to 10713
  153.2202  135.4358  155.0481 H   0  0  0  0  0  0  0  0  0  0  0  0  # atno 10763 bound_to 10752
  154.8246  135.3354  154.6938 H   0  0  0  0  0  0  0  0  0  0  0  0  # atno 10764 bound_to 10752
  153.7370  135.7007  153.5032 H   0  0  0  0  0  0  0  0  0  0  0  0  # atno 10765 bound_to 10752
  140.1422  134.4568  155.8441 H   0  0  0  0  0  0  0  0  0  0  0  0  # atno 11005 bound_to 11000
  146.1065  140.7481  142.9524 LP  0  0  0  0  0  0  0  0  0  0  0  0  # atno 17320 bound_to 7965
  144.7064  140.3870  143.7114 LP  0  0  0  0  0  0  0  0  0  0  0  0  # atno 17321 bound_to 7965
  139.9289  144.6754  150.8384 LP  0  0  0  0  0  0  0  0  0  0  0  0  # atno 17342 bound_to 10162
  140.7671  143.3323  151.2384 LP  0  0  0  0  0  0  0  0  0  0  0  0  # atno 17343 bound_to 10162
  157.1829  130.6317  149.5678 LP  0  0  0  0  0  0  0  0  0  0  0  0  # atno 17370 bound_to 10713
  155.9772  130.4747  150.6579 LP  0  0  0  0  0  0  0  0  0  0  0  0  # atno 17371 bound_to 10713
  141.2187  133.6838  156.7268 LP  0  0  0  0  0  0  0  0  0  0  0  0  # atno 17394 bound_to 11000
  140.2708  134.8394  157.3845 LP  0  0  0  0  0  0  0  0  0  0  0  0  # atno 17395 bound_to 11000

$$$$
