AV-unprocessed.smi:2058|AV-procd|sdf|8347|dock1
  -GOLD-   2272011 13D 1   1.00000     0.00000
 Structure written by MMmdl.
 43 44  0  0  0  0  0  0  0  0  2 V2000
  146.3771  137.8563  149.7582 C   0  0  0  0  0  0  0  0  0  0  0  0
  146.1205  137.7886  151.2748 C   0  0  1  0  0  0  0  0  0  0  0  0
  145.5007  136.4491  151.7252 C   0  0  0  0  0  0  0  0  0  0  0  0
  144.3091  136.1956  151.0120 O   0  0  0  0  0  0  0  0  0  0  0  0
  147.3248  138.1183  152.0395 N   0  0  0  0  0  0  0  0  0  0  0  0
  147.4529  139.0711  152.9767 C   0  0  0  0  0  0  0  0  0  0  0  0
  146.5416  139.8247  153.3171 O   0  0  0  0  0  0  0  0  0  0  0  0
  148.6924  139.0733  153.4964 N   0  0  0  0  0  0  0  0  0  0  0  0
  149.2226  139.9171  154.5092 C   0  0  0  0  0  0  0  0  0  0  0  0
  150.3278  139.4430  155.2485 C   0  0  0  0  0  0  0  0  0  0  0  0
  150.8957  140.2509  156.2546 C   0  0  0  0  0  0  0  0  0  0  0  0
  150.3532  141.5324  156.5010 C   0  0  0  0  0  0  0  0  0  0  0  0
  150.8487  142.4032  157.4802 N   0  0  0  0  0  0  0  0  0  0  0  0
  151.6397  141.7186  158.4998 C   0  0  0  0  0  0  0  0  0  0  0  0
  151.9987  142.6769  159.6485 C   0  0  0  0  0  0  0  0  0  0  0  0
  152.6965  143.9379  159.1140 C   0  0  0  0  0  0  0  0  0  0  0  0
  151.8373  144.5998  158.0248 C   0  0  0  0  0  0  0  0  0  0  0  0
  151.4833  143.5924  156.9171 C   0  0  0  0  0  0  0  0  0  0  0  0
  149.3044  141.9576  155.7633 N   0  3  0  0  0  0  0  0  0  0  0  0
  148.7300  141.2147  154.7924 C   0  0  0  0  0  0  0  0  0  0  0  0
  145.4500  137.7279  149.1993 H   0  0  0  0  0  0  0  0  0  0  0  0
  147.0677  137.0802  149.4277 H   0  0  0  0  0  0  0  0  0  0  0  0
  146.7988  138.8210  149.4746 H   0  0  0  0  0  0  0  0  0  0  0  0
  145.4141  138.5816  151.5246 H   0  0  0  0  0  0  0  0  0  0  0  0
  146.1934  135.6194  151.5820 H   0  0  0  0  0  0  0  0  0  0  0  0
  145.2496  136.4813  152.7860 H   0  0  0  0  0  0  0  0  0  0  0  0
  144.0908  136.9659  150.5099 H   0  0  0  0  0  0  0  0  0  0  0  0
  148.1378  137.5547  151.8387 H   0  0  0  0  0  0  0  0  0  0  0  0
  149.3102  138.3450  153.1695 H   0  0  0  0  0  0  0  0  0  0  0  0
  150.7369  138.4623  155.0530 H   0  0  0  0  0  0  0  0  0  0  0  0
  151.7366  139.8874  156.8270 H   0  0  0  0  0  0  0  0  0  0  0  0
  151.0804  140.8668  158.8894 H   0  0  0  0  0  0  0  0  0  0  0  0
  152.5520  141.3237  158.0506 H   0  0  0  0  0  0  0  0  0  0  0  0
  151.0914  142.9611  160.1834 H   0  0  0  0  0  0  0  0  0  0  0  0
  152.6391  142.1709  160.3716 H   0  0  0  0  0  0  0  0  0  0  0  0
  152.8829  144.6400  159.9272 H   0  0  0  0  0  0  0  0  0  0  0  0
  153.6702  143.6713  158.7013 H   0  0  0  0  0  0  0  0  0  0  0  0
  150.9211  144.9903  158.4701 H   0  0  0  0  0  0  0  0  0  0  0  0
  152.3635  145.4545  157.5991 H   0  0  0  0  0  0  0  0  0  0  0  0
  152.3876  143.3043  156.3792 H   0  0  0  0  0  0  0  0  0  0  0  0
  150.8143  144.0588  156.1925 H   0  0  0  0  0  0  0  0  0  0  0  0
  147.9111  141.6957  154.2789 H   0  0  0  0  0  0  0  0  0  0  0  0
  148.9277  142.8880  155.9470 H   0  0  0  0  0  0  0  0  0  0  0  0
  1  2  1  0  0  0  0
  1 21  1  0  0  0  0
  1 22  1  0  0  0  0
  1 23  1  0  0  0  0
  2  3  1  0  0  0  0
  2  5  1  0  0  0  0
  2 24  1  0  0  0  0
  3  4  1  0  0  0  0
  3 25  1  0  0  0  0
  3 26  1  0  0  0  0
  4 27  1  0  0  0  0
  5  6  1  0  0  0  0
  5 28  1  0  0  0  0
  6  7  2  0  0  0  0
  6  8  1  0  0  0  0
  8  9  1  0  0  0  0
  8 29  1  0  0  0  0
  9 20  1  0  0  0  0
  9 10  2  0  0  0  0
 10 11  1  0  0  0  0
 10 30  1  0  0  0  0
 11 12  2  0  0  0  0
 11 31  1  0  0  0  0
 12 13  1  0  0  0  0
 12 19  1  0  0  0  0
 13 18  1  0  0  0  0
 13 14  1  0  0  0  0
 14 15  1  0  0  0  0
 14 32  1  0  0  0  0
 14 33  1  0  0  0  0
 15 16  1  0  0  0  0
 15 34  1  0  0  0  0
 15 35  1  0  0  0  0
 16 17  1  0  0  0  0
 16 36  1  0  0  0  0
 16 37  1  0  0  0  0
 17 18  1  0  0  0  0
 17 38  1  0  0  0  0
 17 39  1  0  0  0  0
 18 40  1  0  0  0  0
 18 41  1  0  0  0  0
 19 20  2  0  0  0  0
 19 43  1  0  0  0  0
 20 42  1  0  0  0  0
M  CHG  1  19   1
M  END
> <s_m_source_file>
AV-unprocessed.smi

> <i_m_source_file_index>
2058

> <i_lp_mmshare_version>
43012

> <i_f3d_flags>
0

> <s_epik_input>
W09IXVtDSDJdW0NAQEhdKFtDSDNdKVtOSF1DKD1PKVtOSF1jMVtjSF1bY0hdYyhuW2NIXTEpTjJbQ0gyXVtDSDJdW0NIMl1bQ0gyXVtDSDJdMg==

> <s_epik_cmdline>
J2VwaWtfcHl0aG9uJywgJy1waCcsICc3LjAnLCAnLXRuJywgJzgnLCAnLW1hJywgJzIwMCcsICctbWV0YWxfYmluZGluZycsICctaW1hZScsICc8aW5maWxlLm1hZT4nLCAnLW9tYWUnLCAnPG91dGZpbGUubWFlPic=

> <r_lp_tautomer_probability>
0.999994

> <r_epik_Ionization_Penalty>
1.11069

> <r_epik_Ionization_Penalty_Charging>
1.11067

> <r_epik_Ionization_Penalty_Neutral>
2.03008e-05

> <r_epik_State_Penalty>
1.16863

> <r_epik_Charging_Adjusted_Penalty>
2.27929

> <i_epik_Tot_Q>
1

> <i_epik_Tot_abs_Q>
1

> <r_epik_Metal_State_Penalty>
1.25471

> <b_epik_Metal_Only>
0

> <s_lp_Force_Field>
OPLS_2005

> <r_lp_Energy>
26.1115

> <b_lp_Chiralities_Consistent>
1

> <s_lp_Variant>
AV-unprocessed.smi:2058-4

> <Gold.Version>
5.8.1

> <Gold.Id.Protein>
6NUR|6NUR_protein|mol2

> <Gold.PLP.Fitness>
46.8227

> <Gold.PLP.PLP>
-35.8819

> <Gold.PLP.part.hbond>
-4.7670

> <Gold.PLP.part.metal>
0.0000

> <Gold.PLP.part.buried>
7.0489

> <Gold.PLP.part.nonpolar>
-39.9892

> <Gold.PLP.part.repulsive>
0.6645

> <Gold.PLP.ligand.clash>
0.0000

> <Gold.PLP.ligand.torsion>
0.5540

> <Gold.PLP.Chemscore.Hbond>
3.9520

> <Gold.PLP.Chemscore.CHOScore>
0.0000

> <Gold.PLP.Chemscore.Metal>
0.0000

> <Gold.Chemscore.Hbonds>
donor molecule, donor type, donor heavy atom, donor atom, acceptor molecule, acceptor atom, score
      L1  H     4    27       P1 10171  1.00
      L1  H     5    28       P1  7948  0.98
      L1  H    19    43       P1  8028  2.00

> <Gold.PLP.Chemscore.Internal.Correction>
0.1927

> <Gold.Rescore>
     Score         DG    S(hbond)    S(metal)    S(lipo)     H(rot)  DE(clash)    DE(int)     intcor
     16.16     -23.26       2.95        0.00     113.26       2.08       5.17       1.93       ----

> <Gold.Chemscore.Fitness>
16.1557

> <Gold.Chemscore.DG>
-23.2559

> <Gold.Chemscore.ZeroCoef>
-5.4800

> <Gold.Chemscore.Hbond>
2.9463

> <Gold.Chemscore.Metal>
0.0000

> <Gold.Chemscore.Lipo>
113.2626

> <Gold.Chemscore.Internal_Hbond>
0.0000

> <Gold.Chemscore.DEClash>
5.1737

> <Gold.Chemscore.DEInternal>
1.9264

> <Gold.Chemscore.Rot>
2.0767

> <Gold.Chemscore.Internal.Correction>
   9.000000E+99

> <Gold.Chemscore.Hbonds>
donor molecule, donor type, donor heavy atom, donor atom, acceptor molecule, acceptor atom, score
      L1  H     4    27       P1 10171  1.00
      L1  H     5    28       P1  7948  0.89
      L1  H     8    29       P1  7948  0.02
      L1  H    19    43       P1  8028  0.96

> <Gold.Chemscore.Hbond.Weighted>
-9.8406

> <Gold.Chemscore.Metal.Weighted>
-0.0000

> <Gold.Chemscore.Lipo.Weighted>
-13.2517

> <Gold.Chemscore.Internal_Hbond.Weighted>
0.0000

> <Gold.Chemscore.DEClash.Weighted>
5.1737

> <Gold.Chemscore.DEInternal.Weighted>
1.9264

> <Gold.Chemscore.Rot.Weighted>
5.3164

> <Gold.Chemscore.Internal.Correction.Weighted>
   9.000000E+99

> <Gold.Protein.RotatedTorsions>
[ 6907 6896 6895 6894 ] final  177.77 input  -60.11 | X-H torsion
[ 7974 7965 7964 7962 ] final  157.76 input  175.53 | X-H torsion
[ 8008 7997 7996 7995 ] final   33.68 input   59.86 | X-H torsion
[ 10167 10162 10161 10158 ] final  -16.83 input  -65.29 | X-H torsion
[ 10718 10713 10712 10709 ] final -169.46 input   66.30 | X-H torsion
[ 10763 10752 10751 10750 ] final   -6.68 input  -60.55 | X-H torsion
[ 11005 11000 10999 10996 ] final  172.29 input  -57.11 | X-H torsion

> <Gold.Protein.ActiveResidues>
 VAL166  LYS551  ARG553  GLY616  TRP617  ASP618  TYR619  PRO620  LYS621  CYS622 
 ASP623  PHE694  ASN695  SER759  ASP760  ASP761  ALA762  ILE779  LEU786  VAL792 
 PHE793  MET794  SER795  GLU796  ALA797  LYS798  CYS799  TRP800  GLU811  SER814 

> <Gold.Protein.RotatedAtoms>
  151.6986  133.3311  159.3260 H   0  0  0  0  0  0  0  0  0  0  0  0  # atno 6907 bound_to 6896
  150.7746  134.6635  159.6362 H   0  0  0  0  0  0  0  0  0  0  0  0  # atno 6908 bound_to 6896
  152.3783  134.6632  160.0204 H   0  0  0  0  0  0  0  0  0  0  0  0  # atno 6909 bound_to 6896
  144.7884  139.7385  143.6231 H   0  0  0  0  0  0  0  0  0  0  0  0  # atno 7974 bound_to 7965
  155.1426  140.3267  155.4449 H   0  0  0  0  0  0  0  0  0  0  0  0  # atno 8008 bound_to 7997
  156.2600  140.1991  156.6491 H   0  0  0  0  0  0  0  0  0  0  0  0  # atno 8009 bound_to 7997
  154.6531  140.0556  156.9965 H   0  0  0  0  0  0  0  0  0  0  0  0  # atno 8010 bound_to 7997
  140.7239  143.5077  150.9789 H   0  0  0  0  0  0  0  0  0  0  0  0  # atno 10167 bound_to 10162
  156.7119  130.9237  151.3090 H   0  0  0  0  0  0  0  0  0  0  0  0  # atno 10718 bound_to 10713
  153.4158  135.7009  153.6328 H   0  0  0  0  0  0  0  0  0  0  0  0  # atno 10763 bound_to 10752
  153.4803  135.3695  155.2439 H   0  0  0  0  0  0  0  0  0  0  0  0  # atno 10764 bound_to 10752
  154.8719  135.4064  154.3518 H   0  0  0  0  0  0  0  0  0  0  0  0  # atno 10765 bound_to 10752
  140.3282  134.7380  157.4114 H   0  0  0  0  0  0  0  0  0  0  0  0  # atno 11005 bound_to 11000
  146.2126  139.5493  142.9671 LP  0  0  0  0  0  0  0  0  0  0  0  0  # atno 17320 bound_to 7965
  145.5859  141.0376  143.2097 LP  0  0  0  0  0  0  0  0  0  0  0  0  # atno 17321 bound_to 7965
  139.8789  143.7097  152.3159 LP  0  0  0  0  0  0  0  0  0  0  0  0  # atno 17342 bound_to 10162
  139.7372  144.7568  151.0709 LP  0  0  0  0  0  0  0  0  0  0  0  0  # atno 17343 bound_to 10162
  157.6932  130.9255  150.0572 LP  0  0  0  0  0  0  0  0  0  0  0  0  # atno 17370 bound_to 10713
  156.1655  130.3645  149.9239 LP  0  0  0  0  0  0  0  0  0  0  0  0  # atno 17371 bound_to 10713
  140.0883  134.5636  155.8469 LP  0  0  0  0  0  0  0  0  0  0  0  0  # atno 17394 bound_to 11000
  141.2070  133.6660  156.6277 LP  0  0  0  0  0  0  0  0  0  0  0  0  # atno 17395 bound_to 11000

$$$$
