AV-unprocessed.smi:2528|AV-procd|sdf|9948|dock4
  -GOLD-   2272013593D 1   1.00000     0.00000
 Structure written by MMmdl.
 44 46  0  0  0  0  0  0  0  0  2 V2000
  153.0613  139.6364  157.7886 O   0  0  0  0  0  0  0  0  0  0  0  0
  152.2767  140.4162  157.2484 C   0  0  0  0  0  0  0  0  0  0  0  0
  151.7536  140.2109  156.0308 N   0  0  0  0  0  0  0  0  0  0  0  0
  152.0270  139.0536  155.1823 C   0  0  0  0  0  0  0  0  0  0  0  0
  150.7606  138.2481  154.8244 C   0  0  2  0  0  0  0  0  0  0  0  0
  149.6488  139.0941  154.1697 C   0  0  0  0  0  0  0  0  0  0  0  0
  148.4623  138.2570  153.8781 N   0  3  2  0  0  0  0  0  0  0  0  0
  147.3799  139.0248  153.2121 C   0  0  0  0  0  0  0  0  0  0  0  0
  146.2019  138.1107  152.8402 C   0  0  0  0  0  0  0  0  0  0  0  0
  145.6702  137.3784  154.0785 C   0  0  0  0  0  0  0  0  0  0  0  0
  146.8100  136.6141  154.7649 C   0  0  0  0  0  0  0  0  0  0  0  0
  147.9922  137.5463  155.0987 C   0  0  1  0  0  0  0  0  0  0  0  0
  149.1584  136.7605  155.7296 C   0  0  0  0  0  0  0  0  0  0  0  0
  150.2463  137.6339  156.0006 O   0  0  0  0  0  0  0  0  0  0  0  0
  151.8326  141.5676  157.7822 N   0  0  0  0  0  0  0  0  0  0  0  0
  152.1323  142.1151  159.0582 C   0  0  0  0  0  0  0  0  0  0  0  0
  151.7769  143.4728  159.2260 C   0  0  0  0  0  0  0  0  0  0  0  0
  152.0312  144.1083  160.4569 C   0  0  0  0  0  0  0  0  0  0  0  0
  152.6343  143.3687  161.4899 C   0  0  0  0  0  0  0  0  0  0  0  0
  152.9546  142.0215  161.2411 C   0  0  0  0  0  0  0  0  0  0  0  0
  152.7113  141.4103  160.0624 N   0  0  0  0  0  0  0  0  0  0  0  0
  151.1232  140.9074  155.6610 H   0  0  0  0  0  0  0  0  0  0  0  0
  152.4869  139.4249  154.2662 H   0  0  0  0  0  0  0  0  0  0  0  0
  152.7692  138.4050  155.6509 H   0  0  0  0  0  0  0  0  0  0  0  0
  151.0608  137.4594  154.1320 H   0  0  0  0  0  0  0  0  0  0  0  0
  149.3512  139.9140  154.8253 H   0  0  0  0  0  0  0  0  0  0  0  0
  150.0178  139.5396  153.2451 H   0  0  0  0  0  0  0  0  0  0  0  0
  147.0392  139.8246  153.8718 H   0  0  0  0  0  0  0  0  0  0  0  0
  147.7710  139.5007  152.3120 H   0  0  0  0  0  0  0  0  0  0  0  0
  145.4045  138.6963  152.3819 H   0  0  0  0  0  0  0  0  0  0  0  0
  146.5222  137.3843  152.0922 H   0  0  0  0  0  0  0  0  0  0  0  0
  145.2348  138.0967  154.7743 H   0  0  0  0  0  0  0  0  0  0  0  0
  144.8714  136.6916  153.7968 H   0  0  0  0  0  0  0  0  0  0  0  0
  146.4385  136.1411  155.6747 H   0  0  0  0  0  0  0  0  0  0  0  0
  147.1475  135.8067  154.1134 H   0  0  0  0  0  0  0  0  0  0  0  0
  147.6541  138.2956  155.8173 H   0  0  0  0  0  0  0  0  0  0  0  0
  148.8405  136.3026  156.6665 H   0  0  0  0  0  0  0  0  0  0  0  0
  149.4863  135.9503  155.0762 H   0  0  0  0  0  0  0  0  0  0  0  0
  151.2059  142.1157  157.2123 H   0  0  0  0  0  0  0  0  0  0  0  0
  151.3153  144.0275  158.4220 H   0  0  0  0  0  0  0  0  0  0  0  0
  151.7683  145.1454  160.6044 H   0  0  0  0  0  0  0  0  0  0  0  0
  152.8455  143.8214  162.4475 H   0  0  0  0  0  0  0  0  0  0  0  0
  153.4180  141.4183  162.0077 H   0  0  0  0  0  0  0  0  0  0  0  0
  148.7601  137.5462  153.2253 H   0  0  0  0  0  0  0  0  0  0  0  0
  1  2  2  0  0  0  0
  2  3  1  0  0  0  0
  2 15  1  0  0  0  0
  3  4  1  0  0  0  0
  3 22  1  0  0  0  0
  4  5  1  0  0  0  0
  4 23  1  0  0  0  0
  4 24  1  0  0  0  0
  5 14  1  0  0  0  0
  5  6  1  0  0  0  0
  5 25  1  0  0  0  0
  6  7  1  0  0  0  0
  6 26  1  0  0  0  0
  6 27  1  0  0  0  0
  7 12  1  0  0  0  0
  7  8  1  0  0  0  0
  7 44  1  0  0  0  0
  8  9  1  0  0  0  0
  8 28  1  0  0  0  0
  8 29  1  0  0  0  0
  9 10  1  0  0  0  0
  9 30  1  0  0  0  0
  9 31  1  0  0  0  0
 10 11  1  0  0  0  0
 10 32  1  0  0  0  0
 10 33  1  0  0  0  0
 11 12  1  0  0  0  0
 11 34  1  0  0  0  0
 11 35  1  0  0  0  0
 12 13  1  0  0  0  0
 12 36  1  0  0  0  0
 13 14  1  0  0  0  0
 13 37  1  0  0  0  0
 13 38  1  0  0  0  0
 15 16  1  0  0  0  0
 15 39  1  0  0  0  0
 16 21  1  0  0  0  0
 16 17  2  0  0  0  0
 17 18  1  0  0  0  0
 17 40  1  0  0  0  0
 18 19  2  0  0  0  0
 18 41  1  0  0  0  0
 19 20  1  0  0  0  0
 19 42  1  0  0  0  0
 20 21  2  0  0  0  0
 20 43  1  0  0  0  0
M  CHG  1   7   1
M  END
> <s_m_source_file>
AV-unprocessed.smi

> <i_m_source_file_index>
2528

> <i_lp_mmshare_version>
43012

> <i_f3d_flags>
0

> <s_epik_input>
bjFbY0hdW2NIXVtjSF1bY0hdYzFbTkhdQyg9TylbTkhdW0NIMl1bQ0BIXShbQ0gyXTIpT1tDSDJdW0NAQEhdKE4yMylbQ0gyXVtDSDJdW0NIMl1bQ0gyXTM=

> <s_epik_cmdline>
J2VwaWtfcHl0aG9uJywgJy1waCcsICc3LjAnLCAnLXRuJywgJzgnLCAnLW1hJywgJzIwMCcsICctbWV0YWxfYmluZGluZycsICctaW1hZScsICc8aW5maWxlLm1hZT4nLCAnLW9tYWUnLCAnPG91dGZpbGUubWFlPic=

> <r_epik_Ionization_Penalty>
0.0932337

> <r_epik_Ionization_Penalty_Charging>
0.0931942

> <r_epik_Ionization_Penalty_Neutral>
3.9565e-05

> <r_epik_State_Penalty>
0.0834605

> <r_epik_Charging_Adjusted_Penalty>
0.176655

> <i_epik_Tot_Q>
1

> <i_epik_Tot_abs_Q>
1

> <r_epik_Metal_State_Penalty>
0.0834607

> <b_epik_Metal_Only>
0

> <s_lp_Force_Field>
OPLS_2005

> <r_lp_Energy>
24.6959

> <b_lp_Chiralities_Consistent>
1

> <s_lp_Variant>
AV-unprocessed.smi:2528-1

> <Gold.Version>
5.8.1

> <Gold.Id.Protein>
6NUR|6NUR_protein|mol2

> <Gold.PLP.Fitness>
43.3728

> <Gold.PLP.PLP>
-34.5023

> <Gold.PLP.part.hbond>
-2.0000

> <Gold.PLP.part.metal>
0.0000

> <Gold.PLP.part.buried>
-2.9049

> <Gold.PLP.part.nonpolar>
-28.7099

> <Gold.PLP.part.repulsive>
0.2649

> <Gold.PLP.ligand.clash>
0.0000

> <Gold.PLP.ligand.torsion>
0.0658

> <Gold.PLP.Chemscore.Hbond>
3.0000

> <Gold.PLP.Chemscore.CHOScore>
0.0000

> <Gold.PLP.Chemscore.Metal>
0.0000

> <Gold.Chemscore.Hbonds>
donor molecule, donor type, donor heavy atom, donor atom, acceptor molecule, acceptor atom, score
      L1  H     7    44       P1  7948  2.00
      P1  H  7997  8009       L1     1  1.00

> <Gold.PLP.Chemscore.Internal.Correction>
0.0020

> <Gold.Rescore>
     Score         DG    S(hbond)    S(metal)    S(lipo)     H(rot)  DE(clash)    DE(int)     intcor
     17.19     -18.68       1.86        0.00      87.78       1.29       0.19       1.31       ----

> <Gold.Chemscore.Fitness>
17.1855

> <Gold.Chemscore.DG>
-18.6804

> <Gold.Chemscore.ZeroCoef>
-5.4800

> <Gold.Chemscore.Hbond>
1.8638

> <Gold.Chemscore.Metal>
0.0000

> <Gold.Chemscore.Lipo>
87.7775

> <Gold.Chemscore.Internal_Hbond>
0.0000

> <Gold.Chemscore.DEClash>
0.1896

> <Gold.Chemscore.DEInternal>
1.3053

> <Gold.Chemscore.Rot>
1.2870

> <Gold.Chemscore.Internal.Correction>
   9.000000E+99

> <Gold.Chemscore.Hbonds>
donor molecule, donor type, donor heavy atom, donor atom, acceptor molecule, acceptor atom, score
      L1  H     7    44       P1  7948  1.00
      P1  H  7997  8009       L1     1  0.30

> <Gold.Chemscore.Hbond.Weighted>
-6.2252

> <Gold.Chemscore.Metal.Weighted>
-0.0000

> <Gold.Chemscore.Lipo.Weighted>
-10.2700

> <Gold.Chemscore.Internal_Hbond.Weighted>
0.0000

> <Gold.Chemscore.DEClash.Weighted>
0.1896

> <Gold.Chemscore.DEInternal.Weighted>
1.3053

> <Gold.Chemscore.Rot.Weighted>
3.2948

> <Gold.Chemscore.Internal.Correction.Weighted>
   9.000000E+99

> <Gold.Protein.RotatedTorsions>
[ 6907 6896 6895 6894 ] final   -1.22 input  -60.11 | X-H torsion
[ 7974 7965 7964 7962 ] final  -82.88 input  175.53 | X-H torsion
[ 8008 7997 7996 7995 ] final  157.40 input   59.86 | X-H torsion
[ 10167 10162 10161 10158 ] final  148.00 input  -65.29 | X-H torsion
[ 10718 10713 10712 10709 ] final   10.32 input   66.30 | X-H torsion
[ 10763 10752 10751 10750 ] final  -92.76 input  -60.55 | X-H torsion
[ 11005 11000 10999 10996 ] final    0.02 input  -57.11 | X-H torsion

> <Gold.Protein.ActiveResidues>
 VAL166  LYS551  ARG553  GLY616  TRP617  ASP618  TYR619  PRO620  LYS621  CYS622 
 ASP623  PHE694  ASN695  SER759  ASP760  ASP761  ALA762  ILE779  LEU786  VAL792 
 PHE793  MET794  SER795  GLU796  ALA797  LYS798  CYS799  TRP800  GLU811  SER814 

> <Gold.Protein.RotatedAtoms>
  151.5496  135.1067  159.9946 H   0  0  0  0  0  0  0  0  0  0  0  0  # atno 6907 bound_to 6896
  152.4498  133.7602  159.6753 H   0  0  0  0  0  0  0  0  0  0  0  0  # atno 6908 bound_to 6896
  150.8423  133.7850  159.3080 H   0  0  0  0  0  0  0  0  0  0  0  0  # atno 6909 bound_to 6896
  145.5274  140.9525  143.1621 H   0  0  0  0  0  0  0  0  0  0  0  0  # atno 7974 bound_to 7965
  156.2366  140.1886  156.7103 H   0  0  0  0  0  0  0  0  0  0  0  0  # atno 8008 bound_to 7997
  154.6118  140.0621  156.9530 H   0  0  0  0  0  0  0  0  0  0  0  0  # atno 8009 bound_to 7997
  155.2005  140.3292  155.4346 H   0  0  0  0  0  0  0  0  0  0  0  0  # atno 8010 bound_to 7997
  139.4881  144.5712  151.7050 H   0  0  0  0  0  0  0  0  0  0  0  0  # atno 10167 bound_to 10162
  156.9793  130.5999  149.5675 H   0  0  0  0  0  0  0  0  0  0  0  0  # atno 10718 bound_to 10713
  154.6893  135.5219  153.8370 H   0  0  0  0  0  0  0  0  0  0  0  0  # atno 10763 bound_to 10752
  153.0620  135.6572  154.0450 H   0  0  0  0  0  0  0  0  0  0  0  0  # atno 10764 bound_to 10752
  154.0326  135.2984  155.3346 H   0  0  0  0  0  0  0  0  0  0  0  0  # atno 10765 bound_to 10752
  140.6312  133.9574  155.8275 H   0  0  0  0  0  0  0  0  0  0  0  0  # atno 11005 bound_to 11000
  144.7644  139.6881  143.7221 LP  0  0  0  0  0  0  0  0  0  0  0  0  # atno 17320 bound_to 7965
  146.2066  139.5395  142.9708 LP  0  0  0  0  0  0  0  0  0  0  0  0  # atno 17321 bound_to 7965
  140.5300  144.0745  150.6050 LP  0  0  0  0  0  0  0  0  0  0  0  0  # atno 17342 bound_to 10162
  140.3732  143.2843  152.0254 LP  0  0  0  0  0  0  0  0  0  0  0  0  # atno 17343 bound_to 10162
  156.0251  130.5345  150.8384 LP  0  0  0  0  0  0  0  0  0  0  0  0  # atno 17370 bound_to 10713
  157.5538  131.0944  150.9658 LP  0  0  0  0  0  0  0  0  0  0  0  0  # atno 17371 bound_to 10713
  141.0674  134.0256  157.3574 LP  0  0  0  0  0  0  0  0  0  0  0  0  # atno 17394 bound_to 11000
  139.9115  135.0191  156.7712 LP  0  0  0  0  0  0  0  0  0  0  0  0  # atno 17395 bound_to 11000

$$$$
