AV-unprocessed.smi:1142|AV-procd|sdf|4874|dock4
  -GOLD-   22720 3443D 1   1.00000     0.00000
 Structure written by MMmdl.
 32 33  0  0  0  0  0  0  0  0  2 V2000
  153.2650  137.0665  160.7764 C   0  0  0  0  0  0  0  0  0  0  0  0
  153.6181  137.4240  159.6632 C   0  0  0  0  0  0  0  0  0  0  0  0
  154.0302  137.8645  158.3217 C   0  0  0  0  0  0  0  0  0  0  0  0
  153.5424  139.2142  158.0644 N   0  5  0  0  0  0  0  0  0  0  0  0
  152.2905  139.6480  158.3823 C   0  0  0  0  0  0  0  0  0  0  0  0
  151.2699  139.0003  158.6399 O   0  0  0  0  0  0  0  0  0  0  0  0
  152.2117  141.1495  158.4855 C   0  0  0  0  0  0  0  0  0  0  0  0
  152.8233  141.7828  159.5899 C   0  0  0  0  0  0  0  0  0  0  0  0
  152.7511  143.1818  159.7171 C   0  0  0  0  0  0  0  0  0  0  0  0
  152.0538  143.9033  158.7326 C   0  0  0  0  0  0  0  0  0  0  0  0
  151.4427  143.3190  157.6825 N   0  0  0  0  0  0  0  0  0  0  0  0
  151.5069  141.9698  157.5548 C   0  0  0  0  0  0  0  0  0  0  0  0
  150.8147  141.4158  156.4634 N   0  0  0  0  0  0  0  0  0  0  0  0
  151.6443  140.5808  155.6057 C   0  0  0  0  0  0  0  0  0  0  0  0
  150.7609  139.8574  154.5752 C   0  0  0  0  0  0  0  0  0  0  0  0
  150.0021  140.8142  153.8394 O   0  0  0  0  0  0  0  0  0  0  0  0
  149.1429  141.5783  154.6821 C   0  0  0  0  0  0  0  0  0  0  0  0
  149.9835  142.3487  155.7149 C   0  0  0  0  0  0  0  0  0  0  0  0
  152.9520  136.7533  161.7464 H   0  0  0  0  0  0  0  0  0  0  0  0
  155.1179  137.7923  158.2825 H   0  0  0  0  0  0  0  0  0  0  0  0
  153.6399  137.1400  157.6066 H   0  0  0  0  0  0  0  0  0  0  0  0
  153.3535  141.2036  160.3324 H   0  0  0  0  0  0  0  0  0  0  0  0
  153.2195  143.6877  160.5479 H   0  0  0  0  0  0  0  0  0  0  0  0
  151.9775  144.9788  158.7938 H   0  0  0  0  0  0  0  0  0  0  0  0
  152.3844  141.1998  155.0969 H   0  0  0  0  0  0  0  0  0  0  0  0
  152.1899  139.8531  156.2078 H   0  0  0  0  0  0  0  0  0  0  0  0
  151.3800  139.2844  153.8850 H   0  0  0  0  0  0  0  0  0  0  0  0
  150.0918  139.1495  155.0670 H   0  0  0  0  0  0  0  0  0  0  0  0
  148.5689  142.2734  154.0697 H   0  0  0  0  0  0  0  0  0  0  0  0
  148.4257  140.9217  155.1777 H   0  0  0  0  0  0  0  0  0  0  0  0
  149.3328  142.8947  156.3988 H   0  0  0  0  0  0  0  0  0  0  0  0
  150.6126  143.0817  155.2080 H   0  0  0  0  0  0  0  0  0  0  0  0
  1  2  3  0  0  0  0
  1 19  1  0  0  0  0
  2  3  1  0  0  0  0
  3  4  1  0  0  0  0
  3 20  1  0  0  0  0
  3 21  1  0  0  0  0
  4  5  1  0  0  0  0
  5  6  2  0  0  0  0
  5  7  1  0  0  0  0
  7 12  1  0  0  0  0
  7  8  2  0  0  0  0
  8  9  1  0  0  0  0
  8 22  1  0  0  0  0
  9 10  2  0  0  0  0
  9 23  1  0  0  0  0
 10 11  1  0  0  0  0
 10 24  1  0  0  0  0
 11 12  2  0  0  0  0
 12 13  1  0  0  0  0
 13 18  1  0  0  0  0
 13 14  1  0  0  0  0
 14 15  1  0  0  0  0
 14 25  1  0  0  0  0
 14 26  1  0  0  0  0
 15 16  1  0  0  0  0
 15 27  1  0  0  0  0
 15 28  1  0  0  0  0
 16 17  1  0  0  0  0
 17 18  1  0  0  0  0
 17 29  1  0  0  0  0
 17 30  1  0  0  0  0
 18 31  1  0  0  0  0
 18 32  1  0  0  0  0
M  CHG  1   4  -1
M  END
> <s_m_source_file>
AV-unprocessed.smi

> <i_m_source_file_index>
1142

> <i_lp_mmshare_version>
43012

> <i_f3d_flags>
0

> <s_epik_input>
W0NIXSNDW0NIMl1bTkhdQyg9TyljMVtjSF1bY0hdW2NIXW5jMU4yW0NIMl1bQ0gyXU9bQ0gyXVtDSDJdMg==

> <s_epik_cmdline>
J2VwaWtfcHl0aG9uJywgJy1waCcsICc3LjAnLCAnLXRuJywgJzgnLCAnLW1hJywgJzIwMCcsICctbWV0YWxfYmluZGluZycsICctaW1hZScsICc8aW5maWxlLm1hZT4nLCAnLW9tYWUnLCAnPG91dGZpbGUubWFlPic=

> <r_lp_tautomer_probability>
1

> <r_epik_Ionization_Penalty>
6.8086

> <r_epik_Ionization_Penalty_Charging>
6.808

> <r_epik_Ionization_Penalty_Neutral>
0.000606165

> <r_epik_State_Penalty>
6.80799

> <r_epik_Charging_Adjusted_Penalty>
13.616

> <i_epik_Tot_Q>
-1

> <i_epik_Tot_abs_Q>
1

> <r_epik_Metal_State_Penalty>
2.72724

> <b_epik_Metal_Only>
1

> <s_lp_Force_Field>
OPLS_2005

> <r_lp_Energy>
27.7

> <b_lp_Chiralities_Consistent>
1

> <s_lp_Variant>
AV-unprocessed.smi:1142-2

> <Gold.Version>
5.8.1

> <Gold.Id.Protein>
6NUR|6NUR_protein|mol2

> <Gold.PLP.Fitness>
42.2761

> <Gold.PLP.PLP>
-35.9896

> <Gold.PLP.part.hbond>
-2.0000

> <Gold.PLP.part.metal>
0.0000

> <Gold.PLP.part.buried>
-4.6737

> <Gold.PLP.part.nonpolar>
-29.6108

> <Gold.PLP.part.repulsive>
0.5525

> <Gold.PLP.ligand.clash>
0.0169

> <Gold.PLP.ligand.torsion>
1.6352

> <Gold.PLP.Chemscore.Hbond>
2.9500

> <Gold.PLP.Chemscore.CHOScore>
0.0000

> <Gold.PLP.Chemscore.Metal>
0.0000

> <Gold.Chemscore.Hbonds>
donor molecule, donor type, donor heavy atom, donor atom, acceptor molecule, acceptor atom, score
      P1  H  7997  8010       L1     4  2.00
      P1  H  8011  8017       L1    16  0.21

> <Gold.PLP.Chemscore.Internal.Correction>
0.7238

> <Gold.Rescore>
     Score         DG    S(hbond)    S(metal)    S(lipo)     H(rot)  DE(clash)    DE(int)     intcor
     14.17     -17.11       1.42        0.00      84.54       1.17       0.13       2.81       ----

> <Gold.Chemscore.Fitness>
14.1651

> <Gold.Chemscore.DG>
-17.1068

> <Gold.Chemscore.ZeroCoef>
-5.4800

> <Gold.Chemscore.Hbond>
1.4183

> <Gold.Chemscore.Metal>
0.0000

> <Gold.Chemscore.Lipo>
84.5408

> <Gold.Chemscore.Internal_Hbond>
0.0000

> <Gold.Chemscore.DEClash>
0.1317

> <Gold.Chemscore.DEInternal>
2.8099

> <Gold.Chemscore.Rot>
1.1725

> <Gold.Chemscore.Internal.Correction>
   9.000000E+99

> <Gold.Chemscore.Hbonds>
donor molecule, donor type, donor heavy atom, donor atom, acceptor molecule, acceptor atom, score
      P1  H  7997  8010       L1     4  0.78
      P1  H  8011  8017       L1    16  0.01

> <Gold.Chemscore.Hbond.Weighted>
-4.7370

> <Gold.Chemscore.Metal.Weighted>
-0.0000

> <Gold.Chemscore.Lipo.Weighted>
-9.8913

> <Gold.Chemscore.Internal_Hbond.Weighted>
0.0000

> <Gold.Chemscore.DEClash.Weighted>
0.1317

> <Gold.Chemscore.DEInternal.Weighted>
2.8099

> <Gold.Chemscore.Rot.Weighted>
3.0015

> <Gold.Chemscore.Internal.Correction.Weighted>
   9.000000E+99

> <Gold.Protein.RotatedTorsions>
[ 6907 6896 6895 6894 ] final   25.79 input  -60.11 | X-H torsion
[ 7974 7965 7964 7962 ] final   10.41 input  175.53 | X-H torsion
[ 8008 7997 7996 7995 ] final   37.19 input   59.86 | X-H torsion
[ 10167 10162 10161 10158 ] final  -30.44 input  -65.29 | X-H torsion
[ 10718 10713 10712 10709 ] final -106.08 input   66.30 | X-H torsion
[ 10763 10752 10751 10750 ] final  168.72 input  -60.55 | X-H torsion
[ 11005 11000 10999 10996 ] final -154.86 input  -57.11 | X-H torsion

> <Gold.Protein.ActiveResidues>
 VAL166  LYS551  ARG553  GLY616  TRP617  ASP618  TYR619  PRO620  LYS621  CYS622 
 ASP623  PHE694  ASN695  SER759  ASP760  ASP761  ALA762  ILE779  LEU786  VAL792 
 PHE793  MET794  SER795  GLU796  ALA797  LYS798  CYS799  TRP800  GLU811  SER814 

> <Gold.Protein.RotatedAtoms>
  151.9778  135.0044  160.0555 H   0  0  0  0  0  0  0  0  0  0  0  0  # atno 6907 bound_to 6896
  152.1724  133.4648  159.4924 H   0  0  0  0  0  0  0  0  0  0  0  0  # atno 6908 bound_to 6896
  150.6904  134.1853  159.4307 H   0  0  0  0  0  0  0  0  0  0  0  0  # atno 6909 bound_to 6896
  146.2389  139.9638  142.8455 H   0  0  0  0  0  0  0  0  0  0  0  0  # atno 7974 bound_to 7965
  155.1996  140.3314  155.4345 H   0  0  0  0  0  0  0  0  0  0  0  0  # atno 8008 bound_to 7997
  156.2412  140.1896  156.7034 H   0  0  0  0  0  0  0  0  0  0  0  0  # atno 8009 bound_to 7997
  154.6150  140.0603  156.9528 H   0  0  0  0  0  0  0  0  0  0  0  0  # atno 8010 bound_to 7997
  140.7249  143.3849  151.1534 H   0  0  0  0  0  0  0  0  0  0  0  0  # atno 10167 bound_to 10162
  156.0374  130.5595  150.7630 H   0  0  0  0  0  0  0  0  0  0  0  0  # atno 10718 bound_to 10713
  154.3726  135.2753  155.2257 H   0  0  0  0  0  0  0  0  0  0  0  0  # atno 10763 bound_to 10752
  154.4398  135.5957  153.6125 H   0  0  0  0  0  0  0  0  0  0  0  0  # atno 10764 bound_to 10752
  152.9837  135.6016  154.3959 H   0  0  0  0  0  0  0  0  0  0  0  0  # atno 10765 bound_to 10752
  140.6928  134.4023  157.5217 H   0  0  0  0  0  0  0  0  0  0  0  0  # atno 11005 bound_to 11000
  145.1746  140.9737  143.4302 LP  0  0  0  0  0  0  0  0  0  0  0  0  # atno 17320 bound_to 7965
  144.9998  139.3610  143.6173 LP  0  0  0  0  0  0  0  0  0  0  0  0  # atno 17321 bound_to 7965
  139.7444  143.8875  152.3059 LP  0  0  0  0  0  0  0  0  0  0  0  0  # atno 17342 bound_to 10162
  139.8707  144.7070  150.8991 LP  0  0  0  0  0  0  0  0  0  0  0  0  # atno 17343 bound_to 10162
  157.5144  131.0927  151.0157 LP  0  0  0  0  0  0  0  0  0  0  0  0  # atno 17370 bound_to 10713
  157.0504  130.5785  149.5369 LP  0  0  0  0  0  0  0  0  0  0  0  0  # atno 17371 bound_to 10713
  139.8919  134.8769  156.2299 LP  0  0  0  0  0  0  0  0  0  0  0  0  # atno 17394 bound_to 11000
  141.0228  133.7032  156.1296 LP  0  0  0  0  0  0  0  0  0  0  0  0  # atno 17395 bound_to 11000

$$$$
