AV-unprocessed.smi:2913|AV-procd|sdf|11183|dock4
  -GOLD-   2272016 73D 1   1.00000     0.00000
 Structure written by MMmdl.
 41 42  0  0  0  0  0  0  0  0  1 V2000
  145.1126  135.6417  151.3314 C   0  0  0  0  0  0  0  0  0  0  0  0
  145.1995  134.1259  151.3981 C   0  0  0  0  0  0  0  0  0  0  0  0
  144.2255  133.3728  150.8401 C   0  0  0  0  0  0  0  0  0  0  0  0
  144.2428  131.9096  150.8659 C   0  0  0  0  0  0  0  0  0  0  0  0
  143.3524  131.2323  150.3509 O   0  0  0  0  0  0  0  0  0  0  0  0
  145.3083  131.3466  151.4987 N   0  0  0  0  0  0  0  0  0  0  0  0
  145.4149  129.8874  151.5845 C   0  0  0  0  0  0  0  0  0  0  0  0
  146.3275  132.1175  152.0836 C   0  0  0  0  0  0  0  0  0  0  0  0
  146.3224  133.4691  152.0558 C   0  0  0  0  0  0  0  0  0  0  0  0
  147.3148  134.2823  152.6306 N   0  0  0  0  0  0  0  0  0  0  0  0
  147.8766  134.2250  153.8527 C   0  0  0  0  0  0  0  0  0  0  0  0
  147.6251  133.3955  154.7261 O   0  0  0  0  0  0  0  0  0  0  0  0
  148.7782  135.2060  154.0052 N   0  0  0  0  0  0  0  0  0  0  0  0
  149.6020  135.4461  155.1900 C   0  0  1  0  0  0  0  0  0  0  0  0
  150.7076  134.3829  155.2641 C   0  0  0  0  0  0  0  0  0  0  0  0
  150.1792  136.8770  155.1833 C   0  0  2  0  0  0  0  0  0  0  0  0
  149.1578  138.0025  155.0016 C   0  0  0  0  0  0  0  0  0  0  0  0
  150.0368  139.1211  154.4910 C   0  0  0  0  0  0  0  0  0  0  0  0
  151.0030  138.3680  153.5802 C   0  0  0  0  0  0  0  0  0  0  0  0
  151.1186  137.0553  154.1247 O   0  0  0  0  0  0  0  0  0  0  0  0
  144.2211  135.9731  150.7978 H   0  0  0  0  0  0  0  0  0  0  0  0
  145.9826  136.0489  150.8154 H   0  0  0  0  0  0  0  0  0  0  0  0
  145.0785  136.0637  152.3362 H   0  0  0  0  0  0  0  0  0  0  0  0
  143.3945  133.8598  150.3512 H   0  0  0  0  0  0  0  0  0  0  0  0
  146.3058  129.5570  152.1190 H   0  0  0  0  0  0  0  0  0  0  0  0
  145.4539  129.4473  150.5870 H   0  0  0  0  0  0  0  0  0  0  0  0
  144.5516  129.4706  152.1055 H   0  0  0  0  0  0  0  0  0  0  0  0
  147.0933  131.5228  152.5538 H   0  0  0  0  0  0  0  0  0  0  0  0
  147.6612  135.0088  152.0212 H   0  0  0  0  0  0  0  0  0  0  0  0
  148.9131  135.8437  153.2343 H   0  0  0  0  0  0  0  0  0  0  0  0
  148.9985  135.3391  156.0929 H   0  0  0  0  0  0  0  0  0  0  0  0
  151.3260  134.5212  156.1511 H   0  0  0  0  0  0  0  0  0  0  0  0
  151.3622  134.4259  154.3929 H   0  0  0  0  0  0  0  0  0  0  0  0
  150.2842  133.3792  155.3129 H   0  0  0  0  0  0  0  0  0  0  0  0
  150.7125  137.0542  156.1189 H   0  0  0  0  0  0  0  0  0  0  0  0
  148.4122  137.7507  154.2471 H   0  0  0  0  0  0  0  0  0  0  0  0
  148.6364  138.2555  155.9251 H   0  0  0  0  0  0  0  0  0  0  0  0
  149.4815  139.9028  153.9723 H   0  0  0  0  0  0  0  0  0  0  0  0
  150.5799  139.5780  155.3196 H   0  0  0  0  0  0  0  0  0  0  0  0
  150.5925  138.2884  152.5729 H   0  0  0  0  0  0  0  0  0  0  0  0
  151.9746  138.8575  153.5121 H   0  0  0  0  0  0  0  0  0  0  0  0
  1  2  1  0  0  0  0
  1 21  1  0  0  0  0
  1 22  1  0  0  0  0
  1 23  1  0  0  0  0
  2  9  1  0  0  0  0
  2  3  2  0  0  0  0
  3  4  1  0  0  0  0
  3 24  1  0  0  0  0
  4  5  2  0  0  0  0
  4  6  1  0  0  0  0
  6  7  1  0  0  0  0
  6  8  1  0  0  0  0
  7 25  1  0  0  0  0
  7 26  1  0  0  0  0
  7 27  1  0  0  0  0
  8  9  2  0  0  0  0
  8 28  1  0  0  0  0
  9 10  1  0  0  0  0
 10 11  1  0  0  0  0
 10 29  1  0  0  0  0
 11 12  2  0  0  0  0
 11 13  1  0  0  0  0
 13 14  1  0  0  0  0
 13 30  1  0  0  0  0
 14 15  1  0  0  0  0
 14 16  1  0  0  0  0
 14 31  1  0  0  0  0
 15 32  1  0  0  0  0
 15 33  1  0  0  0  0
 15 34  1  0  0  0  0
 16 20  1  0  0  0  0
 16 17  1  0  0  0  0
 16 35  1  0  0  0  0
 17 18  1  0  0  0  0
 17 36  1  0  0  0  0
 17 37  1  0  0  0  0
 18 19  1  0  0  0  0
 18 38  1  0  0  0  0
 18 39  1  0  0  0  0
 19 20  1  0  0  0  0
 19 40  1  0  0  0  0
 19 41  1  0  0  0  0
M  END
> <s_m_source_file>
AV-unprocessed.smi

> <i_m_source_file_index>
2913

> <i_lp_mmshare_version>
43012

> <i_f3d_flags>
0

> <s_epik_input>
W0NIM11jMVtjSF1jKD1PKW4oW0NIM10pW2NIXWMxW05IXUMoPU8pW05IXVtDQEhdKFtDSDNdKVtDQEBIXTJbQ0gyXVtDSDJdW0NIMl1PMg==

> <s_epik_cmdline>
J2VwaWtfcHl0aG9uJywgJy1waCcsICc3LjAnLCAnLXRuJywgJzgnLCAnLW1hJywgJzIwMCcsICctbWV0YWxfYmluZGluZycsICctaW1hZScsICc8aW5maWxlLm1hZT4nLCAnLW9tYWUnLCAnPG91dGZpbGUubWFlPic=

> <r_lp_tautomer_probability>
1

> <r_epik_Ionization_Penalty>
2.72039e-05

> <r_epik_Ionization_Penalty_Charging>
8.03976e-06

> <r_epik_Ionization_Penalty_Neutral>
1.91642e-05

> <r_epik_State_Penalty>
-0

> <r_epik_Charging_Adjusted_Penalty>
8.03976e-06

> <i_epik_Tot_Q>
0

> <i_epik_Tot_abs_Q>
0

> <r_epik_Metal_State_Penalty>
-0

> <b_epik_Metal_Only>
0

> <s_lp_Force_Field>
OPLS_2005

> <r_lp_Energy>
32.4224

> <b_lp_Chiralities_Consistent>
1

> <s_lp_Variant>
AV-unprocessed.smi:2913-2

> <Gold.Version>
5.8.1

> <Gold.Id.Protein>
6NUR|6NUR_protein|mol2

> <Gold.PLP.Fitness>
45.3879

> <Gold.PLP.PLP>
-35.2007

> <Gold.PLP.part.hbond>
-4.0000

> <Gold.PLP.part.metal>
0.0000

> <Gold.PLP.part.buried>
-5.6418

> <Gold.PLP.part.nonpolar>
-26.4187

> <Gold.PLP.part.repulsive>
0.4834

> <Gold.PLP.ligand.clash>
0.0000

> <Gold.PLP.ligand.torsion>
0.6494

> <Gold.PLP.Chemscore.Hbond>
3.8240

> <Gold.PLP.Chemscore.CHOScore>
0.0000

> <Gold.PLP.Chemscore.Metal>
0.0000

> <Gold.Chemscore.Hbonds>
donor molecule, donor type, donor heavy atom, donor atom, acceptor molecule, acceptor atom, score
      L1  H    10    29       P1  7948  0.86
      L1  H    13    30       P1  7948  0.68
      P1  H 10752 10763       L1    20  0.13
      P1  H 10785 10796       L1     5  0.88

> <Gold.PLP.Chemscore.Internal.Correction>
0.0140

> <Gold.Rescore>
     Score         DG    S(hbond)    S(metal)    S(lipo)     H(rot)  DE(clash)    DE(int)     intcor
     20.70     -21.61       3.31        0.00      69.83       1.21       0.31       0.60       ----

> <Gold.Chemscore.Fitness>
20.7010

> <Gold.Chemscore.DG>
-21.6117

> <Gold.Chemscore.ZeroCoef>
-5.4800

> <Gold.Chemscore.Hbond>
3.3114

> <Gold.Chemscore.Metal>
0.0000

> <Gold.Chemscore.Lipo>
69.8259

> <Gold.Chemscore.Internal_Hbond>
0.0000

> <Gold.Chemscore.DEClash>
0.3140

> <Gold.Chemscore.DEInternal>
0.5967

> <Gold.Chemscore.Rot>
1.2101

> <Gold.Chemscore.Internal.Correction>
   9.000000E+99

> <Gold.Chemscore.Hbonds>
donor molecule, donor type, donor heavy atom, donor atom, acceptor molecule, acceptor atom, score
      L1  H    10    29       P1  7948  0.72
      L1  H    13    30       P1  7948  0.64
      P1  H 10752 10763       L1    20  0.09
      P1  H 10785 10796       L1     5  0.86

> <Gold.Chemscore.Hbond.Weighted>
-11.0600

> <Gold.Chemscore.Metal.Weighted>
-0.0000

> <Gold.Chemscore.Lipo.Weighted>
-8.1696

> <Gold.Chemscore.Internal_Hbond.Weighted>
0.0000

> <Gold.Chemscore.DEClash.Weighted>
0.3140

> <Gold.Chemscore.DEInternal.Weighted>
0.5967

> <Gold.Chemscore.Rot.Weighted>
3.0979

> <Gold.Chemscore.Internal.Correction.Weighted>
   9.000000E+99

> <Gold.Protein.RotatedTorsions>
[ 6907 6896 6895 6894 ] final   50.96 input  -60.11 | X-H torsion
[ 7974 7965 7964 7962 ] final  -64.76 input  175.53 | X-H torsion
[ 8008 7997 7996 7995 ] final -140.29 input   59.86 | X-H torsion
[ 10167 10162 10161 10158 ] final   21.08 input  -65.29 | X-H torsion
[ 10718 10713 10712 10709 ] final   18.20 input   66.30 | X-H torsion
[ 10763 10752 10751 10750 ] final   60.79 input  -60.55 | X-H torsion
[ 11005 11000 10999 10996 ] final  178.84 input  -57.11 | X-H torsion

> <Gold.Protein.ActiveResidues>
 VAL166  LYS551  ARG553  GLY616  TRP617  ASP618  TYR619  PRO620  LYS621  CYS622 
 ASP623  PHE694  ASN695  SER759  ASP760  ASP761  ALA762  ILE779  LEU786  VAL792 
 PHE793  MET794  SER795  GLU796  ALA797  LYS798  CYS799  TRP800  GLU811  SER814 

> <Gold.Protein.RotatedAtoms>
  152.3074  134.7538  160.0343 H   0  0  0  0  0  0  0  0  0  0  0  0  # atno 6907 bound_to 6896
  151.8030  133.3367  159.3541 H   0  0  0  0  0  0  0  0  0  0  0  0  # atno 6908 bound_to 6896
  150.7303  134.5665  159.5913 H   0  0  0  0  0  0  0  0  0  0  0  0  # atno 6909 bound_to 6896
  145.7627  140.8853  143.0421 H   0  0  0  0  0  0  0  0  0  0  0  0  # atno 7974 bound_to 7965
  155.4589  140.0544  157.2993 H   0  0  0  0  0  0  0  0  0  0  0  0  # atno 8008 bound_to 7997
  154.4746  140.2055  155.9866 H   0  0  0  0  0  0  0  0  0  0  0  0  # atno 8009 bound_to 7997
  156.1111  140.3204  155.8078 H   0  0  0  0  0  0  0  0  0  0  0  0  # atno 8010 bound_to 7997
  140.5454  143.9603  150.6545 H   0  0  0  0  0  0  0  0  0  0  0  0  # atno 10167 bound_to 10162
  157.0930  130.6436  149.5853 H   0  0  0  0  0  0  0  0  0  0  0  0  # atno 10718 bound_to 10713
  152.9931  135.5524  154.5930 H   0  0  0  0  0  0  0  0  0  0  0  0  # atno 10763 bound_to 10752
  154.5288  135.2812  155.1201 H   0  0  0  0  0  0  0  0  0  0  0  0  # atno 10764 bound_to 10752
  154.2524  135.6396  153.5298 H   0  0  0  0  0  0  0  0  0  0  0  0  # atno 10765 bound_to 10752
  140.3996  134.6789  157.4554 H   0  0  0  0  0  0  0  0  0  0  0  0  # atno 11005 bound_to 11000
  144.6827  139.9745  143.7482 LP  0  0  0  0  0  0  0  0  0  0  0  0  # atno 17320 bound_to 7965
  146.0248  139.3283  143.0791 LP  0  0  0  0  0  0  0  0  0  0  0  0  # atno 17321 bound_to 7965
  140.3015  143.3257  152.0967 LP  0  0  0  0  0  0  0  0  0  0  0  0  # atno 17342 bound_to 10162
  139.5005  144.6694  151.6279 LP  0  0  0  0  0  0  0  0  0  0  0  0  # atno 17343 bound_to 10162
  155.9893  130.4940  150.7208 LP  0  0  0  0  0  0  0  0  0  0  0  0  # atno 17370 bound_to 10713
  157.4705  131.0892  151.0648 LP  0  0  0  0  0  0  0  0  0  0  0  0  # atno 17371 bound_to 10713
  140.0346  134.6356  155.9060 LP  0  0  0  0  0  0  0  0  0  0  0  0  # atno 17394 bound_to 11000
  141.1862  133.6556  156.5228 LP  0  0  0  0  0  0  0  0  0  0  0  0  # atno 17395 bound_to 11000

$$$$
