AV-unprocessed.smi:685|AV-procd|sdf|3333|dock9
  -GOLD-   22720 0303D 1   1.00000     0.00000
 Structure written by MMmdl.
 50 51  0  0  0  0  0  0  0  0  1 V2000
  145.9465  140.9991  157.7553 C   0  0  0  0  0  0  0  0  0  0  0  0
  145.7996  141.9998  156.6444 C   0  0  0  0  0  0  0  0  0  0  0  0
  145.1609  143.1339  156.8781 N   0  0  0  0  0  0  0  0  0  0  0  0
  145.2105  143.8038  155.7095 N   0  0  0  0  0  0  0  0  0  0  0  0
  144.5937  145.1127  155.6142 C   0  0  0  0  0  0  0  0  0  0  0  0
  145.8808  143.0909  154.7343 C   0  0  0  0  0  0  0  0  0  0  0  0
  146.0749  143.6277  153.3525 C   0  0  0  0  0  0  0  0  0  0  0  0
  146.2812  141.9117  155.3049 C   0  0  0  0  0  0  0  0  0  0  0  0
  147.0560  140.7742  154.6893 C   0  0  0  0  0  0  0  0  0  0  0  0
  148.5263  141.1485  154.4017 C   0  0  2  0  0  0  0  0  0  0  0  0
  149.4002  139.9249  154.0813 C   0  0  0  0  0  0  0  0  0  0  0  0
  149.1028  141.8551  155.5422 N   0  0  0  0  0  0  0  0  0  0  0  0
  149.4929  141.2874  156.6945 C   0  0  0  0  0  0  0  0  0  0  0  0
  149.4055  140.0794  156.9166 O   0  0  0  0  0  0  0  0  0  0  0  0
  150.0643  142.2300  157.7570 C   0  0  0  0  0  0  0  0  0  0  0  0
  151.5520  141.9597  158.0485 C   0  0  0  0  0  0  0  0  0  0  0  0
  152.2372  143.1047  158.8159 C   0  0  0  0  0  0  0  0  0  0  0  0
  151.7401  143.2966  160.2517 C   0  0  0  0  0  0  0  0  0  0  0  0
  152.1671  144.7188  160.6271 C   0  0  0  0  0  0  0  0  0  0  0  0
  152.2810  145.4940  159.3058 C   0  0  0  0  0  0  0  0  0  0  0  0
  152.0087  144.4818  158.1861 C   0  0  0  0  0  0  0  0  0  0  0  0
  145.9881  139.9810  157.3683 H   0  0  0  0  0  0  0  0  0  0  0  0
  145.1108  141.0509  158.4539 H   0  0  0  0  0  0  0  0  0  0  0  0
  146.8629  141.1760  158.3185 H   0  0  0  0  0  0  0  0  0  0  0  0
  145.3037  145.8242  155.1920 H   0  0  0  0  0  0  0  0  0  0  0  0
  144.2866  145.4673  156.5992 H   0  0  0  0  0  0  0  0  0  0  0  0
  143.7171  145.0570  154.9684 H   0  0  0  0  0  0  0  0  0  0  0  0
  146.5079  142.8793  152.6897 H   0  0  0  0  0  0  0  0  0  0  0  0
  146.7447  144.4876  153.3651 H   0  0  0  0  0  0  0  0  0  0  0  0
  145.1253  143.9437  152.9205 H   0  0  0  0  0  0  0  0  0  0  0  0
  147.0263  139.9111  155.3548 H   0  0  0  0  0  0  0  0  0  0  0  0
  146.5849  140.4333  153.7674 H   0  0  0  0  0  0  0  0  0  0  0  0
  148.5573  141.8129  153.5361 H   0  0  0  0  0  0  0  0  0  0  0  0
  149.0510  139.4066  153.1881 H   0  0  0  0  0  0  0  0  0  0  0  0
  149.3971  139.2090  154.9039 H   0  0  0  0  0  0  0  0  0  0  0  0
  150.4344  140.2189  153.8993 H   0  0  0  0  0  0  0  0  0  0  0  0
  149.2102  142.8548  155.4491 H   0  0  0  0  0  0  0  0  0  0  0  0
  149.9303  143.2631  157.4332 H   0  0  0  0  0  0  0  0  0  0  0  0
  149.4788  142.1115  158.6694 H   0  0  0  0  0  0  0  0  0  0  0  0
  151.6446  141.0452  158.6363 H   0  0  0  0  0  0  0  0  0  0  0  0
  152.0836  141.7743  157.1138 H   0  0  0  0  0  0  0  0  0  0  0  0
  153.3128  142.9216  158.8446 H   0  0  0  0  0  0  0  0  0  0  0  0
  150.6520  143.2233  160.2823 H   0  0  0  0  0  0  0  0  0  0  0  0
  152.1410  142.5512  160.9394 H   0  0  0  0  0  0  0  0  0  0  0  0
  151.4615  145.1822  161.3173 H   0  0  0  0  0  0  0  0  0  0  0  0
  153.1392  144.6952  161.1216 H   0  0  0  0  0  0  0  0  0  0  0  0
  151.5757  146.3245  159.2620 H   0  0  0  0  0  0  0  0  0  0  0  0
  153.2831  145.9127  159.2061 H   0  0  0  0  0  0  0  0  0  0  0  0
  152.6394  144.6500  157.3127 H   0  0  0  0  0  0  0  0  0  0  0  0
  150.9706  144.5741  157.8630 H   0  0  0  0  0  0  0  0  0  0  0  0
  1  2  1  0  0  0  0
  1 22  1  0  0  0  0
  1 23  1  0  0  0  0
  1 24  1  0  0  0  0
  2  8  1  0  0  0  0
  2  3  2  0  0  0  0
  3  4  1  0  0  0  0
  4  5  1  0  0  0  0
  4  6  1  0  0  0  0
  5 25  1  0  0  0  0
  5 26  1  0  0  0  0
  5 27  1  0  0  0  0
  6  7  1  0  0  0  0
  6  8  2  0  0  0  0
  7 28  1  0  0  0  0
  7 29  1  0  0  0  0
  7 30  1  0  0  0  0
  8  9  1  0  0  0  0
  9 10  1  0  0  0  0
  9 31  1  0  0  0  0
  9 32  1  0  0  0  0
 10 11  1  0  0  0  0
 10 12  1  0  0  0  0
 10 33  1  0  0  0  0
 11 34  1  0  0  0  0
 11 35  1  0  0  0  0
 11 36  1  0  0  0  0
 12 13  1  0  0  0  0
 12 37  1  0  0  0  0
 13 14  2  0  0  0  0
 13 15  1  0  0  0  0
 15 16  1  0  0  0  0
 15 38  1  0  0  0  0
 15 39  1  0  0  0  0
 16 17  1  0  0  0  0
 16 40  1  0  0  0  0
 16 41  1  0  0  0  0
 17 21  1  0  0  0  0
 17 18  1  0  0  0  0
 17 42  1  0  0  0  0
 18 19  1  0  0  0  0
 18 43  1  0  0  0  0
 18 44  1  0  0  0  0
 19 20  1  0  0  0  0
 19 45  1  0  0  0  0
 19 46  1  0  0  0  0
 20 21  1  0  0  0  0
 20 47  1  0  0  0  0
 20 48  1  0  0  0  0
 21 49  1  0  0  0  0
 21 50  1  0  0  0  0
M  END
> <s_m_source_file>
AV-unprocessed.smi

> <i_m_source_file_index>
685

> <i_lp_mmshare_version>
43012

> <i_f3d_flags>
0

> <s_epik_input>
W0NIM11jMW5uKFtDSDNdKWMoW0NIM10pYzFbQ0gyXVtDQEhdKFtDSDNdKVtOSF1DKD1PKVtDSDJdW0NIMl1bQ0hdMltDSDJdW0NIMl1bQ0gyXVtDSDJdMg==

> <s_epik_cmdline>
J2VwaWtfcHl0aG9uJywgJy1waCcsICc3LjAnLCAnLXRuJywgJzgnLCAnLW1hJywgJzIwMCcsICctbWV0YWxfYmluZGluZycsICctaW1hZScsICc8aW5maWxlLm1hZT4nLCAnLW9tYWUnLCAnPG91dGZpbGUubWFlPic=

> <r_lp_tautomer_probability>
1

> <r_epik_Ionization_Penalty>
0.0131144

> <r_epik_Ionization_Penalty_Charging>
0

> <r_epik_Ionization_Penalty_Neutral>
0.0131144

> <r_epik_State_Penalty>
0.0101889

> <r_epik_Charging_Adjusted_Penalty>
0.0101889

> <i_epik_Tot_Q>
0

> <i_epik_Tot_abs_Q>
0

> <r_epik_Metal_State_Penalty>
0.00996794

> <b_epik_Metal_Only>
0

> <s_lp_Force_Field>
OPLS_2005

> <r_lp_Energy>
16.135

> <b_lp_Chiralities_Consistent>
1

> <s_lp_Variant>
AV-unprocessed.smi:685-1

> <Gold.Version>
5.8.1

> <Gold.Id.Protein>
6NUR|6NUR_protein|mol2

> <Gold.PLP.Fitness>
43.6466

> <Gold.PLP.PLP>
-41.5582

> <Gold.PLP.part.hbond>
-1.0000

> <Gold.PLP.part.metal>
0.0000

> <Gold.PLP.part.buried>
-3.5337

> <Gold.PLP.part.nonpolar>
-35.0686

> <Gold.PLP.part.repulsive>
0.2189

> <Gold.PLP.ligand.clash>
0.0000

> <Gold.PLP.ligand.torsion>
0.4719

> <Gold.PLP.Chemscore.Hbond>
1.0000

> <Gold.PLP.Chemscore.CHOScore>
0.0000

> <Gold.PLP.Chemscore.Metal>
0.0000

> <Gold.Chemscore.Hbonds>
donor molecule, donor type, donor heavy atom, donor atom, acceptor molecule, acceptor atom, score
      L1  H    12    37       P1  8028  1.00

> <Gold.PLP.Chemscore.Internal.Correction>
0.0322

> <Gold.Rescore>
     Score         DG    S(hbond)    S(metal)    S(lipo)     H(rot)  DE(clash)    DE(int)     intcor
     16.50     -18.26       1.00        0.00     114.18       1.53       0.10       1.66       ----

> <Gold.Chemscore.Fitness>
16.4964

> <Gold.Chemscore.DG>
-18.2590

> <Gold.Chemscore.ZeroCoef>
-5.4800

> <Gold.Chemscore.Hbond>
0.9965

> <Gold.Chemscore.Metal>
0.0000

> <Gold.Chemscore.Lipo>
114.1802

> <Gold.Chemscore.Internal_Hbond>
0.0000

> <Gold.Chemscore.DEClash>
0.0994

> <Gold.Chemscore.DEInternal>
1.6632

> <Gold.Chemscore.Rot>
1.5268

> <Gold.Chemscore.Internal.Correction>
   9.000000E+99

> <Gold.Chemscore.Hbonds>
donor molecule, donor type, donor heavy atom, donor atom, acceptor molecule, acceptor atom, score
      L1  H    12    37       P1  8028  0.99

> <Gold.Chemscore.Hbond.Weighted>
-3.3284

> <Gold.Chemscore.Metal.Weighted>
-0.0000

> <Gold.Chemscore.Lipo.Weighted>
-13.3591

> <Gold.Chemscore.Internal_Hbond.Weighted>
0.0000

> <Gold.Chemscore.DEClash.Weighted>
0.0994

> <Gold.Chemscore.DEInternal.Weighted>
1.6632

> <Gold.Chemscore.Rot.Weighted>
3.9086

> <Gold.Chemscore.Internal.Correction.Weighted>
   9.000000E+99

> <Gold.Protein.RotatedTorsions>
[ 6907 6896 6895 6894 ] final   97.42 input  -60.11 | X-H torsion
[ 7974 7965 7964 7962 ] final   26.66 input  175.53 | X-H torsion
[ 8008 7997 7996 7995 ] final  -85.36 input   59.86 | X-H torsion
[ 10167 10162 10161 10158 ] final  138.19 input  -65.29 | X-H torsion
[ 10718 10713 10712 10709 ] final   80.87 input   66.30 | X-H torsion
[ 10763 10752 10751 10750 ] final  -76.33 input  -60.55 | X-H torsion
[ 11005 11000 10999 10996 ] final  148.87 input  -57.11 | X-H torsion

> <Gold.Protein.ActiveResidues>
 VAL166  LYS551  ARG553  GLY616  TRP617  ASP618  TYR619  PRO620  LYS621  CYS622 
 ASP623  PHE694  ASN695  SER759  ASP760  ASP761  ALA762  ILE779  LEU786  VAL792 
 PHE793  MET794  SER795  GLU796  ALA797  LYS798  CYS799  TRP800  GLU811  SER814 

> <Gold.Protein.RotatedAtoms>
  152.5423  134.0736  159.8204 H   0  0  0  0  0  0  0  0  0  0  0  0  # atno 6907 bound_to 6896
  151.0847  133.5355  159.2626 H   0  0  0  0  0  0  0  0  0  0  0  0  # atno 6908 bound_to 6896
  151.2169  135.0512  159.8988 H   0  0  0  0  0  0  0  0  0  0  0  0  # atno 6909 bound_to 6896
  146.1826  139.7298  142.8889 H   0  0  0  0  0  0  0  0  0  0  0  0  # atno 7974 bound_to 7965
  154.6399  140.0592  156.9833 H   0  0  0  0  0  0  0  0  0  0  0  0  # atno 8008 bound_to 7997
  155.1533  140.3276  155.4408 H   0  0  0  0  0  0  0  0  0  0  0  0  # atno 8009 bound_to 7997
  156.2526  140.1943  156.6643 H   0  0  0  0  0  0  0  0  0  0  0  0  # atno 8010 bound_to 7997
  139.5119  144.6367  151.5677 H   0  0  0  0  0  0  0  0  0  0  0  0  # atno 10167 bound_to 10162
  157.6818  130.9979  150.2143 H   0  0  0  0  0  0  0  0  0  0  0  0  # atno 10718 bound_to 10713
  154.4984  135.5801  153.6512 H   0  0  0  0  0  0  0  0  0  0  0  0  # atno 10763 bound_to 10752
  152.9874  135.6130  154.3034 H   0  0  0  0  0  0  0  0  0  0  0  0  # atno 10764 bound_to 10752
  154.2939  135.2848  155.2621 H   0  0  0  0  0  0  0  0  0  0  0  0  # atno 10765 bound_to 10752
  140.0997  134.8991  157.1777 H   0  0  0  0  0  0  0  0  0  0  0  0  # atno 11005 bound_to 11000
  145.4032  141.0388  143.3058 LP  0  0  0  0  0  0  0  0  0  0  0  0  # atno 17320 bound_to 7965
  144.8341  139.5580  143.6930 LP  0  0  0  0  0  0  0  0  0  0  0  0  # atno 17321 bound_to 7965
  140.6119  143.9420  150.6459 LP  0  0  0  0  0  0  0  0  0  0  0  0  # atno 17342 bound_to 10162
  140.2666  143.3486  152.1276 LP  0  0  0  0  0  0  0  0  0  0  0  0  # atno 17343 bound_to 10162
  156.2808  130.3733  149.7937 LP  0  0  0  0  0  0  0  0  0  0  0  0  # atno 17370 bound_to 10713
  156.5626  130.8390  151.3333 LP  0  0  0  0  0  0  0  0  0  0  0  0  # atno 17371 bound_to 10713
  140.3237  134.2887  155.7241 LP  0  0  0  0  0  0  0  0  0  0  0  0  # atno 17394 bound_to 11000
  141.2102  133.7726  156.9947 LP  0  0  0  0  0  0  0  0  0  0  0  0  # atno 17395 bound_to 11000

$$$$
