AV-unprocessed.smi:1644|AV-procd|sdf|6594|dock5
  -GOLD-   22720 7293D 1   1.00000     0.00000
 Structure written by MMmdl.
 48 50  0  0  0  0  0  0  0  0  2 V2000
  144.1254  146.3406  156.3096 C   0  0  0  0  0  0  0  0  0  0  0  0
  144.2345  145.0667  155.4645 C   0  0  0  0  0  0  0  0  0  0  0  0
  145.1004  143.9923  156.1391 C   0  0  0  0  0  0  0  0  0  0  0  0
  145.2282  142.6984  155.3110 C   0  0  2  0  0  0  0  0  0  0  0  0
  145.4644  141.5460  156.1554 N   0  5  0  0  0  0  0  0  0  0  0  0
  146.6084  140.9436  155.7549 C   0  0  0  0  0  0  0  0  0  0  0  0
  147.0970  139.9149  156.2206 O   0  0  0  0  0  0  0  0  0  0  0  0
  147.1820  141.6161  154.7384 N   0  0  0  0  0  0  0  0  0  0  0  0
  148.3883  141.1909  154.0163 C   0  0  0  0  0  0  0  0  0  0  0  0
  149.5251  140.6580  154.9179 C   0  0  1  0  0  0  0  0  0  0  0  0
  150.3484  139.8461  154.1062 O   0  0  0  0  0  0  0  0  0  0  0  0
  150.4225  141.7405  155.5569 C   0  0  0  0  0  0  0  0  0  0  0  0
  151.2753  141.2438  156.6236 N   0  0  0  0  0  0  0  0  0  0  0  0
  151.9723  140.0901  156.6332 C   0  0  0  0  0  0  0  0  0  0  0  0
  152.7484  139.8529  157.6861 N   0  0  0  0  0  0  0  0  0  0  0  0
  152.5364  140.9880  158.4477 C   0  0  0  0  0  0  0  0  0  0  0  0
  153.0739  141.3631  159.6988 C   0  0  0  0  0  0  0  0  0  0  0  0
  152.7038  142.5819  160.3100 C   0  0  0  0  0  0  0  0  0  0  0  0
  153.2895  142.9358  161.6652 C   0  0  0  0  0  0  0  0  0  0  0  0
  151.7920  143.4531  159.6618 C   0  0  0  0  0  0  0  0  0  0  0  0
  151.3691  144.7615  160.3046 C   0  0  0  0  0  0  0  0  0  0  0  0
  151.2577  143.1007  158.4051 C   0  0  0  0  0  0  0  0  0  0  0  0
  151.6213  141.8783  157.8124 C   0  0  0  0  0  0  0  0  0  0  0  0
  146.4528  142.6906  154.4182 C   0  0  0  0  0  0  0  0  0  0  0  0
  146.6887  143.5315  153.5495 O   0  0  0  0  0  0  0  0  0  0  0  0
  143.5039  147.0848  155.8118 H   0  0  0  0  0  0  0  0  0  0  0  0
  145.1064  146.7846  156.4798 H   0  0  0  0  0  0  0  0  0  0  0  0
  143.6796  146.1296  157.2821 H   0  0  0  0  0  0  0  0  0  0  0  0
  143.2347  144.6720  155.2810 H   0  0  0  0  0  0  0  0  0  0  0  0
  144.6530  145.3152  154.4887 H   0  0  0  0  0  0  0  0  0  0  0  0
  146.0910  144.4112  156.3233 H   0  0  0  0  0  0  0  0  0  0  0  0
  144.6824  143.7617  157.1171 H   0  0  0  0  0  0  0  0  0  0  0  0
  144.3504  142.5764  154.6750 H   0  0  0  0  0  0  0  0  0  0  0  0
  148.0905  140.4112  153.3128 H   0  0  0  0  0  0  0  0  0  0  0  0
  148.7700  142.0038  153.3958 H   0  0  0  0  0  0  0  0  0  0  0  0
  149.1205  140.0004  155.6870 H   0  0  0  0  0  0  0  0  0  0  0  0
  150.0755  138.9473  154.2087 H   0  0  0  0  0  0  0  0  0  0  0  0
  151.0885  142.1609  154.8018 H   0  0  0  0  0  0  0  0  0  0  0  0
  149.8178  142.5691  155.9267 H   0  0  0  0  0  0  0  0  0  0  0  0
  151.9169  139.3882  155.8142 H   0  0  0  0  0  0  0  0  0  0  0  0
  153.7656  140.6969  160.1924 H   0  0  0  0  0  0  0  0  0  0  0  0
  153.8827  143.8478  161.5981 H   0  0  0  0  0  0  0  0  0  0  0  0
  153.9355  142.1409  162.0390 H   0  0  0  0  0  0  0  0  0  0  0  0
  152.4960  143.0910  162.3963 H   0  0  0  0  0  0  0  0  0  0  0  0
  150.6742  145.3102  159.6684 H   0  0  0  0  0  0  0  0  0  0  0  0
  152.2354  145.3987  160.4830 H   0  0  0  0  0  0  0  0  0  0  0  0
  150.8726  144.5738  161.2569 H   0  0  0  0  0  0  0  0  0  0  0  0
  150.5579  143.7537  157.9053 H   0  0  0  0  0  0  0  0  0  0  0  0
  1  2  1  0  0  0  0
  1 26  1  0  0  0  0
  1 27  1  0  0  0  0
  1 28  1  0  0  0  0
  2  3  1  0  0  0  0
  2 29  1  0  0  0  0
  2 30  1  0  0  0  0
  3  4  1  0  0  0  0
  3 31  1  0  0  0  0
  3 32  1  0  0  0  0
  4 24  1  0  0  0  0
  4  5  1  0  0  0  0
  4 33  1  0  0  0  0
  5  6  1  0  0  0  0
  6  7  2  0  0  0  0
  6  8  1  0  0  0  0
  8  9  1  0  0  0  0
  8 24  1  0  0  0  0
  9 10  1  0  0  0  0
  9 34  1  0  0  0  0
  9 35  1  0  0  0  0
 10 11  1  0  0  0  0
 10 12  1  0  0  0  0
 10 36  1  0  0  0  0
 11 37  1  0  0  0  0
 12 13  1  0  0  0  0
 12 38  1  0  0  0  0
 12 39  1  0  0  0  0
 13 23  1  0  0  0  0
 13 14  1  0  0  0  0
 14 15  2  0  0  0  0
 14 40  1  0  0  0  0
 15 16  1  0  0  0  0
 16 23  2  0  0  0  0
 16 17  1  0  0  0  0
 17 18  2  0  0  0  0
 17 41  1  0  0  0  0
 18 19  1  0  0  0  0
 18 20  1  0  0  0  0
 19 42  1  0  0  0  0
 19 43  1  0  0  0  0
 19 44  1  0  0  0  0
 20 21  1  0  0  0  0
 20 22  2  0  0  0  0
 21 45  1  0  0  0  0
 21 46  1  0  0  0  0
 21 47  1  0  0  0  0
 22 23  1  0  0  0  0
 22 48  1  0  0  0  0
 24 25  2  0  0  0  0
M  CHG  1   5  -1
M  END
> <s_m_source_file>
AV-unprocessed.smi

> <i_m_source_file_index>
1644

> <i_lp_mmshare_version>
43012

> <i_f3d_flags>
0

> <s_epik_input>
W0NIM11bQ0gyXVtDSDJdW0NAQEhdMVtOSF1DKD1PKU4oQzE9TylbQ0gyXVtDQEhdKFtPSF0pW0NIMl1uKFtjSF1uMiljKGMyMylbY0hdYyhbQ0gzXSljKFtjSF0zKVtDSDNd

> <s_epik_cmdline>
J2VwaWtfcHl0aG9uJywgJy1waCcsICc3LjAnLCAnLXRuJywgJzgnLCAnLW1hJywgJzIwMCcsICctbWV0YWxfYmluZGluZycsICctaW1hZScsICc8aW5maWxlLm1hZT4nLCAnLW9tYWUnLCAnPG91dGZpbGUubWFlPic=

> <r_lp_tautomer_probability>
1

> <r_epik_Ionization_Penalty>
5.95212

> <r_epik_Ionization_Penalty_Charging>
5.84419

> <r_epik_Ionization_Penalty_Neutral>
0.107924

> <r_epik_State_Penalty>
5.94088

> <r_epik_Charging_Adjusted_Penalty>
11.7851

> <i_epik_Tot_Q>
-1

> <i_epik_Tot_abs_Q>
1

> <r_epik_Metal_State_Penalty>
1.99095

> <b_epik_Metal_Only>
1

> <s_lp_Force_Field>
OPLS_2005

> <r_lp_Energy>
16.2411

> <b_lp_Chiralities_Consistent>
1

> <s_lp_Variant>
AV-unprocessed.smi:1644-11

> <Gold.Version>
5.8.1

> <Gold.Id.Protein>
6NUR|6NUR_protein|mol2

> <Gold.PLP.Fitness>
53.5770

> <Gold.PLP.PLP>
-49.8122

> <Gold.PLP.part.hbond>
-3.9952

> <Gold.PLP.part.metal>
0.0000

> <Gold.PLP.part.buried>
-4.6219

> <Gold.PLP.part.nonpolar>
-40.6514

> <Gold.PLP.part.repulsive>
0.2755

> <Gold.PLP.ligand.clash>
0.0000

> <Gold.PLP.ligand.torsion>
1.2341

> <Gold.PLP.Chemscore.Hbond>
2.0333

> <Gold.PLP.Chemscore.CHOScore>
0.0000

> <Gold.PLP.Chemscore.Metal>
0.0000

> <Gold.Chemscore.Hbonds>
donor molecule, donor type, donor heavy atom, donor atom, acceptor molecule, acceptor atom, score
      P1  H  7989  7998       L1    11  1.00
      P1  H  7997  8008       L1    15  1.00
      P1  H  8022  8030       L1    25  0.06

> <Gold.PLP.Chemscore.Internal.Correction>
0.1330

> <Gold.Rescore>
     Score         DG    S(hbond)    S(metal)    S(lipo)     H(rot)  DE(clash)    DE(int)     intcor
     12.34     -16.35       1.24        0.00     115.51       2.65       0.26       3.75       ----

> <Gold.Chemscore.Fitness>
12.3399

> <Gold.Chemscore.DG>
-16.3492

> <Gold.Chemscore.ZeroCoef>
-5.4800

> <Gold.Chemscore.Hbond>
1.2380

> <Gold.Chemscore.Metal>
0.0000

> <Gold.Chemscore.Lipo>
115.5103

> <Gold.Chemscore.Internal_Hbond>
0.0000

> <Gold.Chemscore.DEClash>
0.2606

> <Gold.Chemscore.DEInternal>
3.7487

> <Gold.Chemscore.Rot>
2.6486

> <Gold.Chemscore.Internal.Correction>
   9.000000E+99

> <Gold.Chemscore.Hbonds>
donor molecule, donor type, donor heavy atom, donor atom, acceptor molecule, acceptor atom, score
      P1  H  7989  7998       L1    11  0.59
      P1  H  7997  8008       L1    15  0.21
      P1  H  8022  8030       L1    25  0.07

> <Gold.Chemscore.Hbond.Weighted>
-4.1349

> <Gold.Chemscore.Metal.Weighted>
-0.0000

> <Gold.Chemscore.Lipo.Weighted>
-13.5147

> <Gold.Chemscore.Internal_Hbond.Weighted>
0.0000

> <Gold.Chemscore.DEClash.Weighted>
0.2606

> <Gold.Chemscore.DEInternal.Weighted>
3.7487

> <Gold.Chemscore.Rot.Weighted>
6.7804

> <Gold.Chemscore.Internal.Correction.Weighted>
   9.000000E+99

> <Gold.Protein.RotatedTorsions>
[ 6907 6896 6895 6894 ] final -135.44 input  -60.11 | X-H torsion
[ 7974 7965 7964 7962 ] final  -26.12 input  175.53 | X-H torsion
[ 8008 7997 7996 7995 ] final  -85.65 input   59.86 | X-H torsion
[ 10167 10162 10161 10158 ] final   62.35 input  -65.29 | X-H torsion
[ 10718 10713 10712 10709 ] final   59.94 input   66.30 | X-H torsion
[ 10763 10752 10751 10750 ] final  127.49 input  -60.55 | X-H torsion
[ 11005 11000 10999 10996 ] final  160.42 input  -57.11 | X-H torsion

> <Gold.Protein.ActiveResidues>
 VAL166  LYS551  ARG553  GLY616  TRP617  ASP618  TYR619  PRO620  LYS621  CYS622 
 ASP623  PHE694  ASN695  SER759  ASP760  ASP761  ALA762  ILE779  LEU786  VAL792 
 PHE793  MET794  SER795  GLU796  ALA797  LYS798  CYS799  TRP800  GLU811  SER814 

> <Gold.Protein.RotatedAtoms>
  150.9980  133.6084  159.2698 H   0  0  0  0  0  0  0  0  0  0  0  0  # atno 6907 bound_to 6896
  151.3281  135.0834  159.9339 H   0  0  0  0  0  0  0  0  0  0  0  0  # atno 6908 bound_to 6896
  152.5265  133.9614  159.7773 H   0  0  0  0  0  0  0  0  0  0  0  0  # atno 6909 bound_to 6896
  146.1446  140.4978  142.8637 H   0  0  0  0  0  0  0  0  0  0  0  0  # atno 7974 bound_to 7965
  154.6431  140.0589  156.9868 H   0  0  0  0  0  0  0  0  0  0  0  0  # atno 8008 bound_to 7997
  155.1487  140.3272  155.4417 H   0  0  0  0  0  0  0  0  0  0  0  0  # atno 8009 bound_to 7997
  156.2540  140.1951  156.6599 H   0  0  0  0  0  0  0  0  0  0  0  0  # atno 8010 bound_to 7997
  140.1449  144.4518  150.6790 H   0  0  0  0  0  0  0  0  0  0  0  0  # atno 10167 bound_to 10162
  157.5714  130.8910  149.9274 H   0  0  0  0  0  0  0  0  0  0  0  0  # atno 10718 bound_to 10713
  153.7103  135.3269  155.3244 H   0  0  0  0  0  0  0  0  0  0  0  0  # atno 10763 bound_to 10752
  154.8387  135.4475  154.1321 H   0  0  0  0  0  0  0  0  0  0  0  0  # atno 10764 bound_to 10752
  153.2413  135.6971  153.7859 H   0  0  0  0  0  0  0  0  0  0  0  0  # atno 10765 bound_to 10752
  140.2058  134.8304  157.3067 H   0  0  0  0  0  0  0  0  0  0  0  0  # atno 11005 bound_to 11000
  144.7832  140.5882  143.6592 LP  0  0  0  0  0  0  0  0  0  0  0  0  # atno 17320 bound_to 7965
  145.4967  139.1485  143.3680 LP  0  0  0  0  0  0  0  0  0  0  0  0  # atno 17321 bound_to 7965
  140.6738  143.2296  151.5559 LP  0  0  0  0  0  0  0  0  0  0  0  0  # atno 17342 bound_to 10162
  139.5454  144.2536  152.1431 LP  0  0  0  0  0  0  0  0  0  0  0  0  # atno 17343 bound_to 10162
  156.0760  130.3679  150.0677 LP  0  0  0  0  0  0  0  0  0  0  0  0  # atno 17370 bound_to 10713
  156.8830  130.9563  151.3597 LP  0  0  0  0  0  0  0  0  0  0  0  0  # atno 17371 bound_to 10713
  140.2005  134.4261  155.7665 LP  0  0  0  0  0  0  0  0  0  0  0  0  # atno 17394 bound_to 11000
  141.2227  133.7069  156.8175 LP  0  0  0  0  0  0  0  0  0  0  0  0  # atno 17395 bound_to 11000

$$$$
