AV-unprocessed.smi:120|AV-procd|sdf|1138|dock8
  -GOLD-   2262018273D 1   1.00000     0.00000
 Structure written by MMmdl.
 45 48  0  0  0  0  0  0  0  0  1 V2000
  151.5880  130.2963  156.6828 C   0  0  0  0  0  0  0  0  0  0  0  0
  150.5782  130.4659  155.6987 O   0  0  0  0  0  0  0  0  0  0  0  0
  150.2758  131.7476  155.2905 C   0  0  0  0  0  0  0  0  0  0  0  0
  149.3663  131.8796  154.2239 C   0  0  0  0  0  0  0  0  0  0  0  0
  149.0010  133.1515  153.7504 C   0  0  0  0  0  0  0  0  0  0  0  0
  149.5449  134.3058  154.3418 C   0  0  0  0  0  0  0  0  0  0  0  0
  150.4637  134.2105  155.4125 C   0  0  0  0  0  0  0  0  0  0  0  0
  151.0384  135.4246  156.0335 C   0  0  0  0  0  0  0  0  0  0  0  0
  150.9663  135.6426  157.3406 N   0  0  0  0  0  0  0  0  0  0  0  0
  151.6276  136.8710  157.4888 O   0  0  0  0  0  0  0  0  0  0  0  0
  152.0155  137.2402  156.2422 C   0  0  0  0  0  0  0  0  0  0  0  0
  152.7615  138.5288  156.0747 C   0  0  0  0  0  0  0  0  0  0  0  0
  151.8885  139.6678  156.3086 N   0  0  0  0  0  0  0  0  0  0  0  0
  150.9128  139.9780  155.3288 C   0  0  0  0  0  0  0  0  0  0  0  0
  150.7736  139.3084  154.3041 O   0  0  0  0  0  0  0  0  0  0  0  0
  150.1054  141.1547  155.6316 C   0  0  0  0  0  0  0  0  0  0  0  0
  149.1376  141.5326  154.7792 F   0  0  0  0  0  0  0  0  0  0  0  0
  150.3128  141.8745  156.7555 C   0  0  0  0  0  0  0  0  0  0  0  0
  151.2904  141.5590  157.6854 N   0  0  0  0  0  0  0  0  0  0  0  0
  151.5130  142.3888  158.9319 C   0  0  1  0  0  0  0  0  0  0  0  0
  152.9109  143.0352  158.9093 C   0  0  0  0  0  0  0  0  0  0  0  0
  152.6095  144.4911  159.2033 C   0  0  0  0  0  0  0  0  0  0  0  0
  151.2153  144.6476  158.6150 C   0  0  0  0  0  0  0  0  0  0  0  0
  150.5795  143.4304  158.9830 O   0  0  0  0  0  0  0  0  0  0  0  0
  152.1115  140.4294  157.4794 C   0  0  0  0  0  0  0  0  0  0  0  0
  152.9941  140.1342  158.2891 O   0  0  0  0  0  0  0  0  0  0  0  0
  151.6701  136.3738  155.2907 N   0  0  0  0  0  0  0  0  0  0  0  0
  150.8183  132.9201  155.8751 C   0  0  0  0  0  0  0  0  0  0  0  0
  151.7038  129.2343  156.8994 H   0  0  0  0  0  0  0  0  0  0  0  0
  151.3241  130.7955  157.6161 H   0  0  0  0  0  0  0  0  0  0  0  0
  152.5519  130.6682  156.3330 H   0  0  0  0  0  0  0  0  0  0  0  0
  148.9438  130.9974  153.7655 H   0  0  0  0  0  0  0  0  0  0  0  0
  148.3022  133.2427  152.9320 H   0  0  0  0  0  0  0  0  0  0  0  0
  149.2507  135.2720  153.9587 H   0  0  0  0  0  0  0  0  0  0  0  0
  153.6112  138.5746  156.7564 H   0  0  0  0  0  0  0  0  0  0  0  0
  153.1714  138.6214  155.0671 H   0  0  0  0  0  0  0  0  0  0  0  0
  149.6765  142.7311  156.9159 H   0  0  0  0  0  0  0  0  0  0  0  0
  151.3456  141.7134  159.7730 H   0  0  0  0  0  0  0  0  0  0  0  0
  153.5690  142.5732  159.6456 H   0  0  0  0  0  0  0  0  0  0  0  0
  153.3586  142.9329  157.9193 H   0  0  0  0  0  0  0  0  0  0  0  0
  152.5816  144.6593  160.2807 H   0  0  0  0  0  0  0  0  0  0  0  0
  153.3373  145.1759  158.7673 H   0  0  0  0  0  0  0  0  0  0  0  0
  150.6841  145.5135  159.0100 H   0  0  0  0  0  0  0  0  0  0  0  0
  151.2602  144.7358  157.5287 H   0  0  0  0  0  0  0  0  0  0  0  0
  151.5146  132.8444  156.6960 H   0  0  0  0  0  0  0  0  0  0  0  0
  1  2  1  0  0  0  0
  1 29  1  0  0  0  0
  1 30  1  0  0  0  0
  1 31  1  0  0  0  0
  2  3  1  0  0  0  0
  3 28  1  0  0  0  0
  3  4  2  0  0  0  0
  4  5  1  0  0  0  0
  4 32  1  0  0  0  0
  5  6  2  0  0  0  0
  5 33  1  0  0  0  0
  6  7  1  0  0  0  0
  6 34  1  0  0  0  0
  7  8  1  0  0  0  0
  7 28  2  0  0  0  0
  8 27  1  0  0  0  0
  8  9  2  0  0  0  0
  9 10  1  0  0  0  0
 10 11  1  0  0  0  0
 11 12  1  0  0  0  0
 11 27  2  0  0  0  0
 12 13  1  0  0  0  0
 12 35  1  0  0  0  0
 12 36  1  0  0  0  0
 13 25  1  0  0  0  0
 13 14  1  0  0  0  0
 14 15  2  0  0  0  0
 14 16  1  0  0  0  0
 16 17  1  0  0  0  0
 16 18  2  0  0  0  0
 18 19  1  0  0  0  0
 18 37  1  0  0  0  0
 19 20  1  0  0  0  0
 19 25  1  0  0  0  0
 20 24  1  0  0  0  0
 20 21  1  0  0  0  0
 20 38  1  0  0  0  0
 21 22  1  0  0  0  0
 21 39  1  0  0  0  0
 21 40  1  0  0  0  0
 22 23  1  0  0  0  0
 22 41  1  0  0  0  0
 22 42  1  0  0  0  0
 23 24  1  0  0  0  0
 23 43  1  0  0  0  0
 23 44  1  0  0  0  0
 25 26  2  0  0  0  0
 28 45  1  0  0  0  0
M  END
> <s_m_source_file>
AV-unprocessed.smi

> <i_m_source_file_index>
120

> <i_lp_mmshare_version>
43012

> <i_f3d_flags>
0

> <s_epik_input>
W0NIM11PYzFbY0hdW2NIXVtjSF1jKFtjSF0xKS1jMm5vYyhuMilbQ0gyXW4zYyg9TyljKEYpW2NIXW4oYzM9TylbQ0BASF00W0NIMl1bQ0gyXVtDSDJdTzQ=

> <s_epik_cmdline>
J2VwaWtfcHl0aG9uJywgJy1waCcsICc3LjAnLCAnLXRuJywgJzgnLCAnLW1hJywgJzIwMCcsICctbWV0YWxfYmluZGluZycsICctaW1hZScsICc8aW5maWxlLm1hZT4nLCAnLW9tYWUnLCAnPG91dGZpbGUubWFlPic=

> <r_lp_tautomer_probability>
1

> <r_epik_Ionization_Penalty>
4.93314e-09

> <r_epik_Ionization_Penalty_Charging>
4.92654e-09

> <r_epik_Ionization_Penalty_Neutral>
6.60436e-12

> <r_epik_State_Penalty>
-0

> <r_epik_Charging_Adjusted_Penalty>
4.92654e-09

> <i_epik_Tot_Q>
0

> <i_epik_Tot_abs_Q>
0

> <r_epik_Metal_State_Penalty>
-0

> <b_epik_Metal_Only>
0

> <s_epik_Chemistry_Notes>
This compound contains an acetal/aminal-like group ( X-CH(R)-Y where X, Y are N, S, or O) that may be acid/base labile, releasing an aldehyde.

> <s_lp_Force_Field>
OPLS_2005

> <r_lp_Energy>
36.9113

> <b_lp_Chiralities_Consistent>
1

> <s_lp_Variant>
AV-unprocessed.smi:120-2

> <Gold.Version>
5.8.1

> <Gold.Id.Protein>
6NUR|6NUR_protein|mol2

> <Gold.PLP.Fitness>
59.1526

> <Gold.PLP.PLP>
-52.1967

> <Gold.PLP.part.hbond>
-4.0000

> <Gold.PLP.part.metal>
0.0000

> <Gold.PLP.part.buried>
-3.8123

> <Gold.PLP.part.nonpolar>
-45.1376

> <Gold.PLP.part.repulsive>
0.3566

> <Gold.PLP.ligand.clash>
0.0000

> <Gold.PLP.ligand.torsion>
1.2496

> <Gold.PLP.Chemscore.Hbond>
2.1413

> <Gold.PLP.Chemscore.CHOScore>
1.0000

> <Gold.PLP.Chemscore.Metal>
0.0000

> <Gold.Chemscore.Hbonds>
donor molecule, donor type, donor heavy atom, donor atom, acceptor molecule, acceptor atom, score
      P1  H  7989  7998       L1    15  0.15
      P1  H  7997  8008       L1    26  0.99
      P1  H 10752 10765       L1    27  1.00
      L1  C    18    37       P1  8028  1.00

> <Gold.PLP.Chemscore.Internal.Correction>
0.0314

> <Gold.Rescore>
     Score         DG    S(hbond)    S(metal)    S(lipo)     H(rot)  DE(clash)    DE(int)     intcor
     12.72     -14.16       0.90        0.00      91.89       1.99       0.05       1.40       ----

> <Gold.Chemscore.Fitness>
12.7182

> <Gold.Chemscore.DG>
-14.1621

> <Gold.Chemscore.ZeroCoef>
-5.4800

> <Gold.Chemscore.Hbond>
0.9042

> <Gold.Chemscore.Metal>
0.0000

> <Gold.Chemscore.Lipo>
91.8904

> <Gold.Chemscore.Internal_Hbond>
0.0000

> <Gold.Chemscore.DEClash>
0.0474

> <Gold.Chemscore.DEInternal>
1.3965

> <Gold.Chemscore.Rot>
1.9879

> <Gold.Chemscore.Internal.Correction>
   9.000000E+99

> <Gold.Chemscore.Hbonds>
donor molecule, donor type, donor heavy atom, donor atom, acceptor molecule, acceptor atom, score
      P1  H  7997  8008       L1    26  0.22
      P1  H 10752 10765       L1    27  0.27

> <Gold.Chemscore.Hbond.Weighted>
-3.0199

> <Gold.Chemscore.Metal.Weighted>
-0.0000

> <Gold.Chemscore.Lipo.Weighted>
-10.7512

> <Gold.Chemscore.Internal_Hbond.Weighted>
0.0000

> <Gold.Chemscore.DEClash.Weighted>
0.0474

> <Gold.Chemscore.DEInternal.Weighted>
1.3965

> <Gold.Chemscore.Rot.Weighted>
5.0890

> <Gold.Chemscore.Internal.Correction.Weighted>
   9.000000E+99

> <Gold.Protein.RotatedTorsions>
[ 6907 6896 6895 6894 ] final -136.88 input  -60.11 | X-H torsion
[ 7974 7965 7964 7962 ] final  -76.83 input  175.53 | X-H torsion
[ 8008 7997 7996 7995 ] final  -86.42 input   59.86 | X-H torsion
[ 10167 10162 10161 10158 ] final -157.40 input  -65.29 | X-H torsion
[ 10718 10713 10712 10709 ] final   98.99 input   66.30 | X-H torsion
[ 10763 10752 10751 10750 ] final -171.81 input  -60.55 | X-H torsion
[ 11005 11000 10999 10996 ] final  135.42 input  -57.11 | X-H torsion

> <Gold.Protein.ActiveResidues>
 VAL166  LYS551  ARG553  GLY616  TRP617  ASP618  TYR619  PRO620  LYS621  CYS622 
 ASP623  PHE694  ASN695  SER759  ASP760  ASP761  ALA762  ILE779  LEU786  VAL792 
 PHE793  MET794  SER795  GLU796  ALA797  LYS798  CYS799  TRP800  GLU811  SER814 

> <Gold.Protein.RotatedAtoms>
  151.0155  133.5925  159.2677 H   0  0  0  0  0  0  0  0  0  0  0  0  # atno 6907 bound_to 6896
  151.3060  135.0781  159.9265 H   0  0  0  0  0  0  0  0  0  0  0  0  # atno 6908 bound_to 6896
  152.5310  133.9829  159.7869 H   0  0  0  0  0  0  0  0  0  0  0  0  # atno 6909 bound_to 6896
  145.6077  140.9394  143.1206 H   0  0  0  0  0  0  0  0  0  0  0  0  # atno 7974 bound_to 7965
  154.6517  140.0578  156.9963 H   0  0  0  0  0  0  0  0  0  0  0  0  # atno 8008 bound_to 7997
  155.1361  140.3261  155.4444 H   0  0  0  0  0  0  0  0  0  0  0  0  # atno 8009 bound_to 7997
  156.2579  140.1972  156.6478 H   0  0  0  0  0  0  0  0  0  0  0  0  # atno 8010 bound_to 7997
  139.6773  143.9641  152.2317 H   0  0  0  0  0  0  0  0  0  0  0  0  # atno 10167 bound_to 10162
  157.6885  131.0656  150.4881 H   0  0  0  0  0  0  0  0  0  0  0  0  # atno 10718 bound_to 10713
  154.6263  135.2881  155.0268 H   0  0  0  0  0  0  0  0  0  0  0  0  # atno 10763 bound_to 10752
  154.1445  135.6513  153.4953 H   0  0  0  0  0  0  0  0  0  0  0  0  # atno 10764 bound_to 10752
  153.0259  135.5341  154.7073 H   0  0  0  0  0  0  0  0  0  0  0  0  # atno 10765 bound_to 10752
  139.9979  134.9490  157.0005 H   0  0  0  0  0  0  0  0  0  0  0  0  # atno 11005 bound_to 11000
  144.7283  139.7806  143.7357 LP  0  0  0  0  0  0  0  0  0  0  0  0  # atno 17320 bound_to 7965
  146.1528  139.4616  143.0038 LP  0  0  0  0  0  0  0  0  0  0  0  0  # atno 17321 bound_to 7965
  139.9422  144.6674  150.8255 LP  0  0  0  0  0  0  0  0  0  0  0  0  # atno 17342 bound_to 10162
  140.7640  143.3237  151.2564 LP  0  0  0  0  0  0  0  0  0  0  0  0  # atno 17343 bound_to 10162
  156.5209  130.4161  149.6251 LP  0  0  0  0  0  0  0  0  0  0  0  0  # atno 17370 bound_to 10713
  156.3155  130.7252  151.2154 LP  0  0  0  0  0  0  0  0  0  0  0  0  # atno 17371 bound_to 10713
  140.4784  134.1315  155.7213 LP  0  0  0  0  0  0  0  0  0  0  0  0  # atno 17394 bound_to 11000
  141.1619  133.8777  157.1825 LP  0  0  0  0  0  0  0  0  0  0  0  0  # atno 17395 bound_to 11000

$$$$
