AV-unprocessed.smi:2867|AV-procd|sdf|11025|dock8
  -GOLD-   2272015483D 1   1.00000     0.00000
 Structure written by MMmdl.
 39 41  0  0  0  0  0  0  0  0  2 V2000
  148.3900  127.5177  150.8500 C   0  0  0  0  0  0  0  0  0  0  0  0
  147.7315  128.0175  152.0007 O   0  0  0  0  0  0  0  0  0  0  0  0
  148.4543  129.0623  152.6273 C   0  0  0  0  0  0  0  0  0  0  0  0
  147.5066  130.2418  152.8741 C   0  0  0  0  0  0  0  0  0  0  0  0
  148.2251  131.4047  153.3688 N   0  0  0  0  0  0  0  0  0  0  0  0
  147.9658  132.7117  153.1112 C   0  0  0  0  0  0  0  0  0  0  0  0
  146.8863  133.1736  152.2512 C   0  0  0  0  0  0  0  0  0  0  0  0
  146.5443  132.4534  151.0872 C   0  0  0  0  0  0  0  0  0  0  0  0
  145.4975  132.9050  150.2600 C   0  0  0  0  0  0  0  0  0  0  0  0
  144.7931  134.0786  150.5926 C   0  0  0  0  0  0  0  0  0  0  0  0
  145.1369  134.8024  151.7512 C   0  0  0  0  0  0  0  0  0  0  0  0
  144.4599  135.9307  152.0703 F   0  0  0  0  0  0  0  0  0  0  0  0
  146.1840  134.3521  152.5784 C   0  0  0  0  0  0  0  0  0  0  0  0
  148.7737  133.5788  153.7248 N   0  0  0  0  0  0  0  0  0  0  0  0
  149.6287  132.7625  154.4390 C   0  0  0  0  0  0  0  0  0  0  0  0
  150.7059  133.0844  155.2935 C   0  0  0  0  0  0  0  0  0  0  0  0
  151.4345  132.0565  155.9293 C   0  0  0  0  0  0  0  0  0  0  0  0
  152.7937  132.4846  157.0139 S   0  0  0  0  0  0  0  0  0  0  0  0
  152.1977  131.8154  158.3551 N   0  5  0  0  0  0  0  0  0  0  0  0
  153.9800  131.7805  156.5029 O   0  0  0  0  0  0  0  0  0  0  0  0
  152.8314  133.9540  157.0774 O   0  0  0  0  0  0  0  0  0  0  0  0
  151.1049  130.6998  155.7221 C   0  0  0  0  0  0  0  0  0  0  0  0
  150.0352  130.3630  154.8709 C   0  0  0  0  0  0  0  0  0  0  0  0
  149.3095  131.3907  154.2386 C   0  0  0  0  0  0  0  0  0  0  0  0
  147.8003  126.7133  150.4107 H   0  0  0  0  0  0  0  0  0  0  0  0
  149.3733  127.1171  151.0997 H   0  0  0  0  0  0  0  0  0  0  0  0
  148.5103  128.2968  150.0959 H   0  0  0  0  0  0  0  0  0  0  0  0
  148.8744  128.7112  153.5714 H   0  0  0  0  0  0  0  0  0  0  0  0
  149.2848  129.3757  151.9922 H   0  0  0  0  0  0  0  0  0  0  0  0
  146.9959  130.5127  151.9495 H   0  0  0  0  0  0  0  0  0  0  0  0
  146.7281  129.9659  153.5847 H   0  0  0  0  0  0  0  0  0  0  0  0
  147.0831  131.5532  150.8288 H   0  0  0  0  0  0  0  0  0  0  0  0
  145.2347  132.3517  149.3704 H   0  0  0  0  0  0  0  0  0  0  0  0
  143.9900  134.4240  149.9585 H   0  0  0  0  0  0  0  0  0  0  0  0
  146.4447  134.9090  153.4668 H   0  0  0  0  0  0  0  0  0  0  0  0
  150.9658  134.1184  155.4652 H   0  0  0  0  0  0  0  0  0  0  0  0
  152.9830  131.4107  158.8781 H   0  0  0  0  0  0  0  0  0  0  0  0
  151.6652  129.9204  156.2171 H   0  0  0  0  0  0  0  0  0  0  0  0
  149.7746  129.3276  154.7104 H   0  0  0  0  0  0  0  0  0  0  0  0
  1  2  1  0  0  0  0
  1 25  1  0  0  0  0
  1 26  1  0  0  0  0
  1 27  1  0  0  0  0
  2  3  1  0  0  0  0
  3  4  1  0  0  0  0
  3 28  1  0  0  0  0
  3 29  1  0  0  0  0
  4  5  1  0  0  0  0
  4 30  1  0  0  0  0
  4 31  1  0  0  0  0
  5 24  1  0  0  0  0
  5  6  1  0  0  0  0
  6  7  1  0  0  0  0
  6 14  2  0  0  0  0
  7 13  1  0  0  0  0
  7  8  2  0  0  0  0
  8  9  1  0  0  0  0
  8 32  1  0  0  0  0
  9 10  2  0  0  0  0
  9 33  1  0  0  0  0
 10 11  1  0  0  0  0
 10 34  1  0  0  0  0
 11 12  1  0  0  0  0
 11 13  2  0  0  0  0
 13 35  1  0  0  0  0
 14 15  1  0  0  0  0
 15 24  2  0  0  0  0
 15 16  1  0  0  0  0
 16 17  2  0  0  0  0
 16 36  1  0  0  0  0
 17 18  1  0  0  0  0
 17 22  1  0  0  0  0
 18 19  1  0  0  0  0
 18 20  2  0  0  0  0
 18 21  2  0  0  0  0
 19 37  1  0  0  0  0
 22 23  2  0  0  0  0
 22 38  1  0  0  0  0
 23 24  1  0  0  0  0
 23 39  1  0  0  0  0
M  CHG  1  19  -1
M  END
> <s_m_source_file>
AV-unprocessed.smi

> <i_m_source_file_index>
2867

> <i_lp_mmshare_version>
43012

> <i_f3d_flags>
0

> <s_epik_input>
W05IMl1TKD1PKSg9TyljKFtjSF0xKVtjSF1bY0hdYyhjMTIpbihbQ0gyXVtDSDJdT1tDSDNdKWMobjIpLWMzW2NIXVtjSF1bY0hdYyhGKVtjSF0z

> <s_epik_cmdline>
J2VwaWtfcHl0aG9uJywgJy1waCcsICc3LjAnLCAnLXRuJywgJzgnLCAnLW1hJywgJzIwMCcsICctbWV0YWxfYmluZGluZycsICctaW1hZScsICc8aW5maWxlLm1hZT4nLCAnLW9tYWUnLCAnPG91dGZpbGUubWFlPic=

> <r_epik_Ionization_Penalty>
4.13732

> <r_epik_Ionization_Penalty_Charging>
3.73366

> <r_epik_Ionization_Penalty_Neutral>
0.403663

> <r_epik_State_Penalty>
3.79183

> <r_epik_Charging_Adjusted_Penalty>
7.52549

> <i_epik_Tot_Q>
-1

> <i_epik_Tot_abs_Q>
1

> <r_epik_Metal_State_Penalty>
0.634538

> <b_epik_Metal_Only>
1

> <s_lp_Force_Field>
OPLS_2005

> <r_lp_Energy>
13.7357

> <b_lp_Chiralities_Consistent>
1

> <s_lp_Variant>
AV-unprocessed.smi:2867-3

> <Gold.Version>
5.8.1

> <Gold.Id.Protein>
6NUR|6NUR_protein|mol2

> <Gold.PLP.Fitness>
46.2951

> <Gold.PLP.PLP>
-41.6288

> <Gold.PLP.part.hbond>
-2.3824

> <Gold.PLP.part.metal>
0.0000

> <Gold.PLP.part.buried>
-2.2585

> <Gold.PLP.part.nonpolar>
-36.4372

> <Gold.PLP.part.repulsive>
0.2544

> <Gold.PLP.ligand.clash>
0.0000

> <Gold.PLP.ligand.torsion>
2.3166

> <Gold.PLP.Chemscore.Hbond>
2.0304

> <Gold.PLP.Chemscore.CHOScore>
0.0000

> <Gold.PLP.Chemscore.Metal>
0.0000

> <Gold.Chemscore.Hbonds>
donor molecule, donor type, donor heavy atom, donor atom, acceptor molecule, acceptor atom, score
      P1  H  6896  6907       L1    19  2.00
      P1  H 10752 10764       L1    21  0.17

> <Gold.PLP.Chemscore.Internal.Correction>
3.2082

> <Gold.Rescore>
     Score         DG    S(hbond)    S(metal)    S(lipo)     H(rot)  DE(clash)    DE(int)     intcor
     10.45     -14.66       0.73        0.00      88.85       1.43       1.08       3.13       ----

> <Gold.Chemscore.Fitness>
10.4503

> <Gold.Chemscore.DG>
-14.6642

> <Gold.Chemscore.ZeroCoef>
-5.4800

> <Gold.Chemscore.Hbond>
0.7339

> <Gold.Chemscore.Metal>
0.0000

> <Gold.Chemscore.Lipo>
88.8525

> <Gold.Chemscore.Internal_Hbond>
0.0000

> <Gold.Chemscore.DEClash>
1.0834

> <Gold.Chemscore.DEInternal>
3.1305

> <Gold.Chemscore.Rot>
1.4308

> <Gold.Chemscore.Internal.Correction>
   9.000000E+99

> <Gold.Chemscore.Hbonds>
donor molecule, donor type, donor heavy atom, donor atom, acceptor molecule, acceptor atom, score
      P1  H  6896  6907       L1    19  0.12
      P1  H 10752 10764       L1    21  0.18

> <Gold.Chemscore.Hbond.Weighted>
-2.4513

> <Gold.Chemscore.Metal.Weighted>
-0.0000

> <Gold.Chemscore.Lipo.Weighted>
-10.3957

> <Gold.Chemscore.Internal_Hbond.Weighted>
0.0000

> <Gold.Chemscore.DEClash.Weighted>
1.0834

> <Gold.Chemscore.DEInternal.Weighted>
3.1305

> <Gold.Chemscore.Rot.Weighted>
3.6628

> <Gold.Chemscore.Internal.Correction.Weighted>
   9.000000E+99

> <Gold.Protein.RotatedTorsions>
[ 6907 6896 6895 6894 ] final  173.39 input  -60.11 | X-H torsion
[ 7974 7965 7964 7962 ] final -154.11 input  175.53 | X-H torsion
[ 8008 7997 7996 7995 ] final  -93.89 input   59.86 | X-H torsion
[ 10167 10162 10161 10158 ] final  125.78 input  -65.29 | X-H torsion
[ 10718 10713 10712 10709 ] final -144.03 input   66.30 | X-H torsion
[ 10763 10752 10751 10750 ] final   -2.29 input  -60.55 | X-H torsion
[ 11005 11000 10999 10996 ] final  134.26 input  -57.11 | X-H torsion

> <Gold.Protein.ActiveResidues>
 VAL166  LYS551  ARG553  GLY616  TRP617  ASP618  TYR619  PRO620  LYS621  CYS622 
 ASP623  PHE694  ASN695  SER759  ASP760  ASP761  ALA762  ILE779  LEU786  VAL792 
 PHE793  MET794  SER795  GLU796  ALA797  LYS798  CYS799  TRP800  GLU811  SER814 

> <Gold.Protein.RotatedAtoms>
  151.7691  133.3340  159.3439 H   0  0  0  0  0  0  0  0  0  0  0  0  # atno 6907 bound_to 6896
  150.7468  134.6035  159.6058 H   0  0  0  0  0  0  0  0  0  0  0  0  # atno 6908 bound_to 6896
  152.3353  134.7207  160.0330 H   0  0  0  0  0  0  0  0  0  0  0  0  # atno 6909 bound_to 6896
  144.7706  140.4433  143.5910 H   0  0  0  0  0  0  0  0  0  0  0  0  # atno 7974 bound_to 7965
  154.7414  140.0494  157.0815 H   0  0  0  0  0  0  0  0  0  0  0  0  # atno 8008 bound_to 7997
  155.0173  140.3143  155.4787 H   0  0  0  0  0  0  0  0  0  0  0  0  # atno 8009 bound_to 7997
  156.2865  140.2173  156.5290 H   0  0  0  0  0  0  0  0  0  0  0  0  # atno 8010 bound_to 7997
  139.5667  144.6915  151.3891 H   0  0  0  0  0  0  0  0  0  0  0  0  # atno 10167 bound_to 10162
  156.3651  130.7758  151.1931 H   0  0  0  0  0  0  0  0  0  0  0  0  # atno 10718 bound_to 10713
  153.3561  135.6988  153.6750 H   0  0  0  0  0  0  0  0  0  0  0  0  # atno 10763 bound_to 10752
  153.5457  135.3564  155.2738 H   0  0  0  0  0  0  0  0  0  0  0  0  # atno 10764 bound_to 10752
  154.8661  135.4214  154.2807 H   0  0  0  0  0  0  0  0  0  0  0  0  # atno 10765 bound_to 10752
  139.9903  134.9517  156.9841 H   0  0  0  0  0  0  0  0  0  0  0  0  # atno 11005 bound_to 11000
  145.6336  139.1540  143.2955 LP  0  0  0  0  0  0  0  0  0  0  0  0  # atno 17320 bound_to 7965
  146.1849  140.6438  142.9172 LP  0  0  0  0  0  0  0  0  0  0  0  0  # atno 17321 bound_to 7965
  140.6950  143.7769  150.7313 LP  0  0  0  0  0  0  0  0  0  0  0  0  # atno 17342 bound_to 10162
  140.1263  143.4566  152.2282 LP  0  0  0  0  0  0  0  0  0  0  0  0  # atno 17343 bound_to 10162
  157.7478  131.0389  150.4523 LP  0  0  0  0  0  0  0  0  0  0  0  0  # atno 17370 bound_to 10713
  156.4740  130.4059  149.6501 LP  0  0  0  0  0  0  0  0  0  0  0  0  # atno 17371 bound_to 10713
  140.4921  134.1183  155.7234 LP  0  0  0  0  0  0  0  0  0  0  0  0  # atno 17394 bound_to 11000
  141.1560  133.8881  157.1975 LP  0  0  0  0  0  0  0  0  0  0  0  0  # atno 17395 bound_to 11000

$$$$
