AV-unprocessed.smi:1430|AV-procd|sdf|5827|dock6
  -GOLD-   22720 5483D 1   1.00000     0.00000
 Structure written by MMmdl.
 47 48  0  0  0  0  0  0  0  0  2 V2000
  136.3769  148.5868  155.4246 C   0  0  0  0  0  0  0  0  0  0  0  0
  136.4859  147.1931  155.1579 O   0  0  0  0  0  0  0  0  0  0  0  0
  137.7400  146.6662  154.9265 C   0  0  0  0  0  0  0  0  0  0  0  0
  138.8516  147.2791  155.5377 C   0  0  0  0  0  0  0  0  0  0  0  0
  140.1352  146.7484  155.3074 C   0  0  0  0  0  0  0  0  0  0  0  0
  140.2666  145.6111  154.4749 C   0  0  0  0  0  0  0  0  0  0  0  0
  141.5041  144.9918  154.1494 N   0  0  0  0  0  0  0  0  0  0  0  0
  142.7408  145.3225  154.5577 C   0  0  0  0  0  0  0  0  0  0  0  0
  143.0153  146.2268  155.3451 O   0  0  0  0  0  0  0  0  0  0  0  0
  143.6647  144.5292  153.9973 N   0  0  0  0  0  0  0  0  0  0  0  0
  145.1056  144.6114  154.2316 C   0  0  0  0  0  0  0  0  0  0  0  0
  145.9076  143.4672  153.5710 C   0  0  0  0  0  0  0  0  0  0  0  0
  146.7541  142.7164  154.5319 N   0  3  1  0  0  0  0  0  0  0  0  0
  146.0114  142.2736  155.7330 C   0  0  0  0  0  0  0  0  0  0  0  0
  146.9759  141.6317  156.7462 C   0  0  1  0  0  0  0  0  0  0  0  0
  146.2381  141.0770  157.9696 C   0  0  0  0  0  0  0  0  0  0  0  0
  147.6712  140.5534  156.1243 O   0  0  0  0  0  0  0  0  0  0  0  0
  148.4076  140.9058  154.9523 C   0  0  2  0  0  0  0  0  0  0  0  0
  149.6600  141.7395  155.2775 C   0  0  0  0  0  0  0  0  0  0  0  0
  147.4782  141.5761  153.9223 C   0  0  0  0  0  0  0  0  0  0  0  0
  139.0925  145.0810  153.9008 C   0  0  0  0  0  0  0  0  0  0  0  0
  137.8595  145.5847  154.1174 N   0  0  0  0  0  0  0  0  0  0  0  0
  135.3295  148.8427  155.5843 H   0  0  0  0  0  0  0  0  0  0  0  0
  136.7386  149.1828  154.5856 H   0  0  0  0  0  0  0  0  0  0  0  0
  136.9257  148.8649  156.3254 H   0  0  0  0  0  0  0  0  0  0  0  0
  138.7222  148.1449  156.1702 H   0  0  0  0  0  0  0  0  0  0  0  0
  140.9858  147.2324  155.7609 H   0  0  0  0  0  0  0  0  0  0  0  0
  141.4328  144.1695  153.5677 H   0  0  0  0  0  0  0  0  0  0  0  0
  143.3478  143.8014  153.3732 H   0  0  0  0  0  0  0  0  0  0  0  0
  145.4800  145.5778  153.8905 H   0  0  0  0  0  0  0  0  0  0  0  0
  145.2612  144.5933  155.3103 H   0  0  0  0  0  0  0  0  0  0  0  0
  145.1971  142.7740  153.1191 H   0  0  0  0  0  0  0  0  0  0  0  0
  146.5165  143.8502  152.7508 H   0  0  0  0  0  0  0  0  0  0  0  0
  145.5137  143.1276  156.1945 H   0  0  0  0  0  0  0  0  0  0  0  0
  145.2330  141.5662  155.4421 H   0  0  0  0  0  0  0  0  0  0  0  0
  147.6908  142.3780  157.0937 H   0  0  0  0  0  0  0  0  0  0  0  0
  145.6918  141.8646  158.4894 H   0  0  0  0  0  0  0  0  0  0  0  0
  146.9374  140.6351  158.6798 H   0  0  0  0  0  0  0  0  0  0  0  0
  145.5219  140.3060  157.6836 H   0  0  0  0  0  0  0  0  0  0  0  0
  148.7575  139.9670  154.5218 H   0  0  0  0  0  0  0  0  0  0  0  0
  150.2706  141.8818  154.3855 H   0  0  0  0  0  0  0  0  0  0  0  0
  150.2784  141.2375  156.0218 H   0  0  0  0  0  0  0  0  0  0  0  0
  149.4125  142.7297  155.6598 H   0  0  0  0  0  0  0  0  0  0  0  0
  146.7525  140.8498  153.5528 H   0  0  0  0  0  0  0  0  0  0  0  0
  148.0601  141.9054  153.0614 H   0  0  0  0  0  0  0  0  0  0  0  0
  139.1416  144.2218  153.2476 H   0  0  0  0  0  0  0  0  0  0  0  0
  147.4528  143.3684  154.8589 H   0  0  0  0  0  0  0  0  0  0  0  0
  1  2  1  0  0  0  0
  1 23  1  0  0  0  0
  1 24  1  0  0  0  0
  1 25  1  0  0  0  0
  2  3  1  0  0  0  0
  3 22  1  0  0  0  0
  3  4  2  0  0  0  0
  4  5  1  0  0  0  0
  4 26  1  0  0  0  0
  5  6  2  0  0  0  0
  5 27  1  0  0  0  0
  6  7  1  0  0  0  0
  6 21  1  0  0  0  0
  7  8  1  0  0  0  0
  7 28  1  0  0  0  0
  8  9  2  0  0  0  0
  8 10  1  0  0  0  0
 10 11  1  0  0  0  0
 10 29  1  0  0  0  0
 11 12  1  0  0  0  0
 11 30  1  0  0  0  0
 11 31  1  0  0  0  0
 12 13  1  0  0  0  0
 12 32  1  0  0  0  0
 12 33  1  0  0  0  0
 13 20  1  0  0  0  0
 13 14  1  0  0  0  0
 13 47  1  0  0  0  0
 14 15  1  0  0  0  0
 14 34  1  0  0  0  0
 14 35  1  0  0  0  0
 15 16  1  0  0  0  0
 15 17  1  0  0  0  0
 15 36  1  0  0  0  0
 16 37  1  0  0  0  0
 16 38  1  0  0  0  0
 16 39  1  0  0  0  0
 17 18  1  0  0  0  0
 18 19  1  0  0  0  0
 18 20  1  0  0  0  0
 18 40  1  0  0  0  0
 19 41  1  0  0  0  0
 19 42  1  0  0  0  0
 19 43  1  0  0  0  0
 20 44  1  0  0  0  0
 20 45  1  0  0  0  0
 21 22  2  0  0  0  0
 21 46  1  0  0  0  0
M  CHG  1  13   1
M  END
> <s_m_source_file>
AV-unprocessed.smi

> <i_m_source_file_index>
1430

> <i_lp_mmshare_version>
43012

> <i_f3d_flags>
0

> <s_epik_input>
W0NIM11PYzFbY0hdW2NIXWMoW2NIXW4xKVtOSF1DKD1PKVtOSF1bQ0gyXVtDSDJdTjJbQ0gyXVtDQEBIXShbQ0gzXSlPW0NAQEhdKFtDSDNdKVtDSDJdMg==

> <s_epik_cmdline>
J2VwaWtfcHl0aG9uJywgJy1waCcsICc3LjAnLCAnLXRuJywgJzgnLCAnLW1hJywgJzIwMCcsICctbWV0YWxfYmluZGluZycsICctaW1hZScsICc8aW5maWxlLm1hZT4nLCAnLW9tYWUnLCAnPG91dGZpbGUubWFlPic=

> <r_lp_tautomer_probability>
1

> <r_epik_Ionization_Penalty>
0.602607

> <r_epik_Ionization_Penalty_Charging>
0.602531

> <r_epik_Ionization_Penalty_Neutral>
7.66983e-05

> <r_epik_State_Penalty>
0.617039

> <r_epik_Charging_Adjusted_Penalty>
1.21957

> <i_epik_Tot_Q>
1

> <i_epik_Tot_abs_Q>
1

> <r_epik_Metal_State_Penalty>
0.617043

> <b_epik_Metal_Only>
0

> <s_lp_Force_Field>
OPLS_2005

> <r_lp_Energy>
27.5675

> <b_lp_Chiralities_Consistent>
1

> <s_lp_Variant>
AV-unprocessed.smi:1430-6

> <Gold.Version>
5.8.1

> <Gold.Id.Protein>
6NUR|6NUR_protein|mol2

> <Gold.PLP.Fitness>
41.7995

> <Gold.PLP.PLP>
-31.3561

> <Gold.PLP.part.hbond>
-2.0000

> <Gold.PLP.part.metal>
0.0000

> <Gold.PLP.part.buried>
-3.9801

> <Gold.PLP.part.nonpolar>
-24.9726

> <Gold.PLP.part.repulsive>
0.4063

> <Gold.PLP.ligand.clash>
0.0000

> <Gold.PLP.ligand.torsion>
0.7900

> <Gold.PLP.Chemscore.Hbond>
3.0000

> <Gold.PLP.Chemscore.CHOScore>
1.0000

> <Gold.PLP.Chemscore.Metal>
0.0000

> <Gold.Chemscore.Hbonds>
donor molecule, donor type, donor heavy atom, donor atom, acceptor molecule, acceptor atom, score
      L1  H    10    29       P1 10174  1.00
      L1  H    13    47       P1  8028  1.67
      L1  C    21    46       P1 10162  1.00

> <Gold.PLP.Chemscore.Internal.Correction>
0.0234

> <Gold.Rescore>
     Score         DG    S(hbond)    S(metal)    S(lipo)     H(rot)  DE(clash)    DE(int)     intcor
     11.57     -14.73       1.51        0.00      74.54       1.76       1.13       2.03       ----

> <Gold.Chemscore.Fitness>
11.5698

> <Gold.Chemscore.DG>
-14.7290

> <Gold.Chemscore.ZeroCoef>
-5.4800

> <Gold.Chemscore.Hbond>
1.5076

> <Gold.Chemscore.Metal>
0.0000

> <Gold.Chemscore.Lipo>
74.5362

> <Gold.Chemscore.Internal_Hbond>
0.0000

> <Gold.Chemscore.DEClash>
1.1325

> <Gold.Chemscore.DEInternal>
2.0266

> <Gold.Chemscore.Rot>
1.7606

> <Gold.Chemscore.Internal.Correction>
   9.000000E+99

> <Gold.Chemscore.Hbonds>
donor molecule, donor type, donor heavy atom, donor atom, acceptor molecule, acceptor atom, score
      L1  H     7    28       P1 10174  0.01
      L1  H    10    29       P1 10174  0.98
      L1  H    13    47       P1  8028  0.18

> <Gold.Chemscore.Hbond.Weighted>
-5.0354

> <Gold.Chemscore.Metal.Weighted>
-0.0000

> <Gold.Chemscore.Lipo.Weighted>
-8.7207

> <Gold.Chemscore.Internal_Hbond.Weighted>
0.0000

> <Gold.Chemscore.DEClash.Weighted>
1.1325

> <Gold.Chemscore.DEInternal.Weighted>
2.0266

> <Gold.Chemscore.Rot.Weighted>
4.5072

> <Gold.Chemscore.Internal.Correction.Weighted>
   9.000000E+99

> <Gold.Protein.RotatedTorsions>
[ 6907 6896 6895 6894 ] final  -87.76 input  -60.11 | X-H torsion
[ 7974 7965 7964 7962 ] final  -50.92 input  175.53 | X-H torsion
[ 8008 7997 7996 7995 ] final   56.22 input   59.86 | X-H torsion
[ 10167 10162 10161 10158 ] final   41.31 input  -65.29 | X-H torsion
[ 10718 10713 10712 10709 ] final  -38.81 input   66.30 | X-H torsion
[ 10763 10752 10751 10750 ] final  -92.82 input  -60.55 | X-H torsion
[ 11005 11000 10999 10996 ] final  -12.74 input  -57.11 | X-H torsion

> <Gold.Protein.ActiveResidues>
 VAL166  LYS551  ARG553  GLY616  TRP617  ASP618  TYR619  PRO620  LYS621  CYS622 
 ASP623  PHE694  ASN695  SER759  ASP760  ASP761  ALA762  ILE779  LEU786  VAL792 
 PHE793  MET794  SER795  GLU796  ALA797  LYS798  CYS799  TRP800  GLU811  SER814 

> <Gold.Protein.RotatedAtoms>
  150.6867  134.2847  159.4641 H   0  0  0  0  0  0  0  0  0  0  0  0  # atno 6907 bound_to 6896
  152.0757  134.9501  160.0583 H   0  0  0  0  0  0  0  0  0  0  0  0  # atno 6908 bound_to 6896
  152.0874  133.4148  159.4565 H   0  0  0  0  0  0  0  0  0  0  0  0  # atno 6909 bound_to 6896
  145.9246  140.7803  142.9630 H   0  0  0  0  0  0  0  0  0  0  0  0  # atno 7974 bound_to 7965
  155.5139  140.3478  155.4393 H   0  0  0  0  0  0  0  0  0  0  0  0  # atno 8008 bound_to 7997
  156.0831  140.1391  156.9715 H   0  0  0  0  0  0  0  0  0  0  0  0  # atno 8009 bound_to 7997
  154.4591  140.0942  156.6818 H   0  0  0  0  0  0  0  0  0  0  0  0  # atno 8010 bound_to 7997
  140.3656  144.2172  150.6135 H   0  0  0  0  0  0  0  0  0  0  0  0  # atno 10167 bound_to 10162
  156.2996  130.4238  149.8157 H   0  0  0  0  0  0  0  0  0  0  0  0  # atno 10718 bound_to 10713
  154.6899  135.5217  153.8377 H   0  0  0  0  0  0  0  0  0  0  0  0  # atno 10763 bound_to 10752
  153.0624  135.6573  154.0441 H   0  0  0  0  0  0  0  0  0  0  0  0  # atno 10764 bound_to 10752
  154.0317  135.2985  155.3347 H   0  0  0  0  0  0  0  0  0  0  0  0  # atno 10765 bound_to 10752
  140.7689  133.8455  155.9189 H   0  0  0  0  0  0  0  0  0  0  0  0  # atno 11005 bound_to 11000
  144.6757  140.2031  143.7385 LP  0  0  0  0  0  0  0  0  0  0  0  0  # atno 17320 bound_to 7965
  145.8505  139.2173  143.1775 LP  0  0  0  0  0  0  0  0  0  0  0  0  # atno 17321 bound_to 7965
  140.5084  143.2297  151.8573 LP  0  0  0  0  0  0  0  0  0  0  0  0  # atno 17342 bound_to 10162
  139.4809  144.4978  151.9100 LP  0  0  0  0  0  0  0  0  0  0  0  0  # atno 17343 bound_to 10162
  156.5540  130.8354  151.3308 LP  0  0  0  0  0  0  0  0  0  0  0  0  # atno 17370 bound_to 10713
  157.7364  130.9778  150.2136 LP  0  0  0  0  0  0  0  0  0  0  0  0  # atno 17371 bound_to 10713
  140.9593  134.1677  157.4667 LP  0  0  0  0  0  0  0  0  0  0  0  0  # atno 17394 bound_to 11000
  139.8759  134.9938  156.5665 LP  0  0  0  0  0  0  0  0  0  0  0  0  # atno 17395 bound_to 11000

$$$$
