AV-unprocessed.smi:2157|AV-procd|sdf|8785|dock3
  -GOLD-   2272011563D 1   1.00000     0.00000
 Structure written by MMmdl.
 41 42  0  0  0  0  0  0  0  0  1 V2000
  152.7248  142.4946  162.1517 C   0  0  0  0  0  0  0  0  0  0  0  0
  152.7802  143.0651  160.7274 C   0  0  2  0  0  0  0  0  0  0  0  0
  152.0737  144.4315  160.6408 C   0  0  0  0  0  0  0  0  0  0  0  0
  152.1209  145.0019  159.2145 C   0  0  0  0  0  0  0  0  0  0  0  0
  151.5239  144.0151  158.1994 C   0  0  0  0  0  0  0  0  0  0  0  0
  152.2283  142.6482  158.2687 C   0  0  2  0  0  0  0  0  0  0  0  0
  151.5988  141.7234  157.3309 N   0  0  0  0  0  0  0  0  0  0  0  0
  151.9991  140.4644  157.0969 C   0  0  0  0  0  0  0  0  0  0  0  0
  152.9586  139.9438  157.6679 O   0  0  0  0  0  0  0  0  0  0  0  0
  151.1654  139.6721  156.0810 C   0  0  0  0  0  0  0  0  0  0  0  0
  150.7421  138.3588  156.5834 N   0  0  0  0  0  0  0  0  0  0  0  0
  149.9477  138.2812  157.7126 C   0  0  0  0  0  0  0  0  0  0  0  0
  149.5307  137.1145  158.2512 C   0  0  0  0  0  0  0  0  0  0  0  0
  149.9020  135.8381  157.6526 C   0  0  0  0  0  0  0  0  0  0  0  0
  149.5569  134.7526  158.1210 O   0  0  0  0  0  0  0  0  0  0  0  0
  150.7037  135.9466  156.4906 N   0  0  0  0  0  0  0  0  0  0  0  0
  151.1369  134.7345  155.8269 C   0  0  0  0  0  0  0  0  0  0  0  0
  151.1511  137.1696  155.9428 C   0  0  0  0  0  0  0  0  0  0  0  0
  151.8770  137.2098  154.9462 O   0  0  0  0  0  0  0  0  0  0  0  0
  152.1812  142.0816  159.7031 C   0  0  0  0  0  0  0  0  0  0  0  0
  151.6964  142.3266  162.4721 H   0  0  0  0  0  0  0  0  0  0  0  0
  153.1891  143.1754  162.8658 H   0  0  0  0  0  0  0  0  0  0  0  0
  153.2530  141.5427  162.2141 H   0  0  0  0  0  0  0  0  0  0  0  0
  153.8310  143.2130  160.4740 H   0  0  0  0  0  0  0  0  0  0  0  0
  151.0345  144.3303  160.9568 H   0  0  0  0  0  0  0  0  0  0  0  0
  152.5389  145.1361  161.3313 H   0  0  0  0  0  0  0  0  0  0  0  0
  151.5802  145.9480  159.1749 H   0  0  0  0  0  0  0  0  0  0  0  0
  153.1537  145.2245  158.9435 H   0  0  0  0  0  0  0  0  0  0  0  0
  150.4578  143.8943  158.3981 H   0  0  0  0  0  0  0  0  0  0  0  0
  151.6066  144.4288  157.1936 H   0  0  0  0  0  0  0  0  0  0  0  0
  153.2716  142.7911  157.9802 H   0  0  0  0  0  0  0  0  0  0  0  0
  150.7984  142.0678  156.8210 H   0  0  0  0  0  0  0  0  0  0  0  0
  150.2891  140.2685  155.8232 H   0  0  0  0  0  0  0  0  0  0  0  0
  151.7265  139.5580  155.1517 H   0  0  0  0  0  0  0  0  0  0  0  0
  149.6496  139.2002  158.1961 H   0  0  0  0  0  0  0  0  0  0  0  0
  148.9161  137.1257  159.1394 H   0  0  0  0  0  0  0  0  0  0  0  0
  151.0179  134.8729  154.7507 H   0  0  0  0  0  0  0  0  0  0  0  0
  150.5253  133.8859  156.1330 H   0  0  0  0  0  0  0  0  0  0  0  0
  152.1829  134.5814  156.0970 H   0  0  0  0  0  0  0  0  0  0  0  0
  152.7232  141.1358  159.7455 H   0  0  0  0  0  0  0  0  0  0  0  0
  151.1486  141.8568  159.9744 H   0  0  0  0  0  0  0  0  0  0  0  0
  1  2  1  0  0  0  0
  1 21  1  0  0  0  0
  1 22  1  0  0  0  0
  1 23  1  0  0  0  0
  2 20  1  0  0  0  0
  2  3  1  0  0  0  0
  2 24  1  0  0  0  0
  3  4  1  0  0  0  0
  3 25  1  0  0  0  0
  3 26  1  0  0  0  0
  4  5  1  0  0  0  0
  4 27  1  0  0  0  0
  4 28  1  0  0  0  0
  5  6  1  0  0  0  0
  5 29  1  0  0  0  0
  5 30  1  0  0  0  0
  6  7  1  0  0  0  0
  6 20  1  0  0  0  0
  6 31  1  0  0  0  0
  7  8  1  0  0  0  0
  7 32  1  0  0  0  0
  8  9  2  0  0  0  0
  8 10  1  0  0  0  0
 10 11  1  0  0  0  0
 10 33  1  0  0  0  0
 10 34  1  0  0  0  0
 11 18  1  0  0  0  0
 11 12  1  0  0  0  0
 12 13  2  0  0  0  0
 12 35  1  0  0  0  0
 13 14  1  0  0  0  0
 13 36  1  0  0  0  0
 14 15  2  0  0  0  0
 14 16  1  0  0  0  0
 16 17  1  0  0  0  0
 16 18  1  0  0  0  0
 17 37  1  0  0  0  0
 17 38  1  0  0  0  0
 17 39  1  0  0  0  0
 18 19  2  0  0  0  0
 20 40  1  0  0  0  0
 20 41  1  0  0  0  0
M  END
> <s_m_source_file>
AV-unprocessed.smi

> <i_m_source_file_index>
2157

> <i_lp_mmshare_version>
43012

> <i_f3d_flags>
0

> <s_epik_input>
W0NIM11bQ0BASF0xW0NIMl1bQ0gyXVtDSDJdW0NASF0oW0NIMl0xKVtOSF1DKD1PKVtDSDJdbjJbY0hdW2NIXWMoPU8pbihbQ0gzXSljMj1P

> <s_epik_cmdline>
J2VwaWtfcHl0aG9uJywgJy1waCcsICc3LjAnLCAnLXRuJywgJzgnLCAnLW1hJywgJzIwMCcsICctbWV0YWxfYmluZGluZycsICctaW1hZScsICc8aW5maWxlLm1hZT4nLCAnLW9tYWUnLCAnPG91dGZpbGUubWFlPic=

> <r_lp_tautomer_probability>
1

> <r_epik_Ionization_Penalty>
3.1838e-08

> <r_epik_Ionization_Penalty_Charging>
1.27911e-08

> <r_epik_Ionization_Penalty_Neutral>
1.90469e-08

> <r_epik_State_Penalty>
-0

> <r_epik_Charging_Adjusted_Penalty>
1.27911e-08

> <i_epik_Tot_Q>
0

> <i_epik_Tot_abs_Q>
0

> <r_epik_Metal_State_Penalty>
-0

> <b_epik_Metal_Only>
0

> <s_lp_Force_Field>
OPLS_2005

> <r_lp_Energy>
16.5079

> <b_lp_Chiralities_Consistent>
1

> <s_lp_Variant>
AV-unprocessed.smi:2157-3

> <Gold.Version>
5.8.1

> <Gold.Id.Protein>
6NUR|6NUR_protein|mol2

> <Gold.PLP.Fitness>
47.0370

> <Gold.PLP.PLP>
-38.2219

> <Gold.PLP.part.hbond>
-3.0000

> <Gold.PLP.part.metal>
0.0000

> <Gold.PLP.part.buried>
-4.0037

> <Gold.PLP.part.nonpolar>
-30.3275

> <Gold.PLP.part.repulsive>
0.1743

> <Gold.PLP.ligand.clash>
0.0000

> <Gold.PLP.ligand.torsion>
0.0967

> <Gold.PLP.Chemscore.Hbond>
3.0000

> <Gold.PLP.Chemscore.CHOScore>
0.0000

> <Gold.PLP.Chemscore.Metal>
0.0000

> <Gold.Chemscore.Hbonds>
donor molecule, donor type, donor heavy atom, donor atom, acceptor molecule, acceptor atom, score
      P1  H  6896  6909       L1    15  1.00
      P1  H  7997  8008       L1     9  1.00
      P1  H 10752 10763       L1    19  0.96

> <Gold.PLP.Chemscore.Internal.Correction>
0.0084

> <Gold.Rescore>
     Score         DG    S(hbond)    S(metal)    S(lipo)     H(rot)  DE(clash)    DE(int)     intcor
     21.77     -21.91       2.71        0.00      96.54       1.52       0.01       0.13       ----

> <Gold.Chemscore.Fitness>
21.7669

> <Gold.Chemscore.DG>
-21.9087

> <Gold.Chemscore.ZeroCoef>
-5.4800

> <Gold.Chemscore.Hbond>
2.7053

> <Gold.Chemscore.Metal>
0.0000

> <Gold.Chemscore.Lipo>
96.5391

> <Gold.Chemscore.Internal_Hbond>
0.0000

> <Gold.Chemscore.DEClash>
0.0108

> <Gold.Chemscore.DEInternal>
0.1311

> <Gold.Chemscore.Rot>
1.5242

> <Gold.Chemscore.Internal.Correction>
   9.000000E+99

> <Gold.Chemscore.Hbonds>
donor molecule, donor type, donor heavy atom, donor atom, acceptor molecule, acceptor atom, score
      P1  H  6896  6909       L1    15  0.84
      P1  H  7997  8008       L1     9  0.72
      P1  H 10752 10763       L1    19  0.84

> <Gold.Chemscore.Hbond.Weighted>
-9.0355

> <Gold.Chemscore.Metal.Weighted>
-0.0000

> <Gold.Chemscore.Lipo.Weighted>
-11.2951

> <Gold.Chemscore.Internal_Hbond.Weighted>
0.0000

> <Gold.Chemscore.DEClash.Weighted>
0.0108

> <Gold.Chemscore.DEInternal.Weighted>
0.1311

> <Gold.Chemscore.Rot.Weighted>
3.9019

> <Gold.Chemscore.Internal.Correction.Weighted>
   9.000000E+99

> <Gold.Protein.RotatedTorsions>
[ 6907 6896 6895 6894 ] final   21.49 input  -60.11 | X-H torsion
[ 7974 7965 7964 7962 ] final  -83.59 input  175.53 | X-H torsion
[ 8008 7997 7996 7995 ] final  -62.34 input   59.86 | X-H torsion
[ 10167 10162 10161 10158 ] final -149.13 input  -65.29 | X-H torsion
[ 10718 10713 10712 10709 ] final  -43.64 input   66.30 | X-H torsion
[ 10763 10752 10751 10750 ] final   60.44 input  -60.55 | X-H torsion
[ 11005 11000 10999 10996 ] final  -44.22 input  -57.11 | X-H torsion

> <Gold.Protein.ActiveResidues>
 VAL166  LYS551  ARG553  GLY616  TRP617  ASP618  TYR619  PRO620  LYS621  CYS622 
 ASP623  PHE694  ASN695  SER759  ASP760  ASP761  ALA762  ILE779  LEU786  VAL792 
 PHE793  MET794  SER795  GLU796  ALA797  LYS798  CYS799  TRP800  GLU811  SER814 

> <Gold.Protein.RotatedAtoms>
  151.9125  135.0333  160.0515 H   0  0  0  0  0  0  0  0  0  0  0  0  # atno 6907 bound_to 6896
  152.2267  133.5021  159.5201 H   0  0  0  0  0  0  0  0  0  0  0  0  # atno 6908 bound_to 6896
  150.7014  134.1187  159.4069 H   0  0  0  0  0  0  0  0  0  0  0  0  # atno 6909 bound_to 6896
  145.5180  140.9534  143.1671 H   0  0  0  0  0  0  0  0  0  0  0  0  # atno 7974 bound_to 7965
  154.4494  140.0998  156.6571 H   0  0  0  0  0  0  0  0  0  0  0  0  # atno 8008 bound_to 7997
  155.5333  140.3482  155.4412 H   0  0  0  0  0  0  0  0  0  0  0  0  # atno 8009 bound_to 7997
  156.0648  140.1335  156.9887 H   0  0  0  0  0  0  0  0  0  0  0  0  # atno 8010 bound_to 7997
  139.7470  143.8576  152.2577 H   0  0  0  0  0  0  0  0  0  0  0  0  # atno 10167 bound_to 10162
  156.2469  130.4184  149.8695 H   0  0  0  0  0  0  0  0  0  0  0  0  # atno 10718 bound_to 10713
  152.9921  135.5536  154.5873 H   0  0  0  0  0  0  0  0  0  0  0  0  # atno 10763 bound_to 10752
  154.5242  135.2809  155.1238 H   0  0  0  0  0  0  0  0  0  0  0  0  # atno 10764 bound_to 10752
  154.2579  135.6386  153.5316 H   0  0  0  0  0  0  0  0  0  0  0  0  # atno 10765 bound_to 10752
  141.0436  133.6770  156.2843 H   0  0  0  0  0  0  0  0  0  0  0  0  # atno 11005 bound_to 11000
  144.7691  139.6775  143.7202 LP  0  0  0  0  0  0  0  0  0  0  0  0  # atno 17320 bound_to 7965
  146.2124  139.5490  142.9672 LP  0  0  0  0  0  0  0  0  0  0  0  0  # atno 17321 bound_to 7965
  139.8543  144.7149  150.9176 LP  0  0  0  0  0  0  0  0  0  0  0  0  # atno 17342 bound_to 10162
  140.7793  143.3872  151.1373 LP  0  0  0  0  0  0  0  0  0  0  0  0  # atno 17343 bound_to 10162
  156.6257  130.8645  151.3485 LP  0  0  0  0  0  0  0  0  0  0  0  0  # atno 17370 bound_to 10713
  157.7199  130.9544  150.1396 LP  0  0  0  0  0  0  0  0  0  0  0  0  # atno 17371 bound_to 10713
  140.6188  134.5383  157.5544 LP  0  0  0  0  0  0  0  0  0  0  0  0  # atno 17394 bound_to 11000
  139.9295  134.7992  156.0973 LP  0  0  0  0  0  0  0  0  0  0  0  0  # atno 17395 bound_to 11000

$$$$
