AV-unprocessed.smi:2830|AV-procd|sdf|10907|dock4
  -GOLD-   2272015353D 1   1.00000     0.00000
 Structure written by MMmdl.
 28 28  0  0  0  0  0  0  0  0  1 V2000
  153.2850  136.3023  157.6399 C   0  0  0  0  0  0  0  0  0  0  0  0
  152.5450  136.1265  156.4448 O   0  0  0  0  0  0  0  0  0  0  0  0
  151.6782  137.2168  156.1740 C   0  0  0  0  0  0  0  0  0  0  0  0
  151.0753  137.0440  154.7681 C   0  0  1  0  0  0  0  0  0  0  0  0
  150.0072  136.0469  154.8097 N   0  0  0  0  0  0  0  0  0  0  0  0
  150.2651  134.6675  154.8152 C   0  0  0  0  0  0  0  0  0  0  0  0
  149.6440  133.8658  153.8342 C   0  0  0  0  0  0  0  0  0  0  0  0
  149.8946  132.4797  153.8286 C   0  0  0  0  0  0  0  0  0  0  0  0
  150.7566  131.9428  154.8049 C   0  0  0  0  0  0  0  0  0  0  0  0
  151.0478  130.5200  154.8405 C   0  0  0  0  0  0  0  0  0  0  0  0
  151.2797  129.3867  154.8690 N   0  0  0  0  0  0  0  0  0  0  0  0
  151.3293  132.8217  155.7463 C   0  0  0  0  0  0  0  0  0  0  0  0
  151.0914  134.1509  155.7566 N   0  0  0  0  0  0  0  0  0  0  0  0
  150.6119  138.4090  154.2340 C   0  0  0  0  0  0  0  0  0  0  0  0
  149.8263  138.4035  153.1539 N   0  0  0  0  0  0  0  0  0  0  0  0
  150.9684  139.4534  154.7771 O   0  0  0  0  0  0  0  0  0  0  0  0
  153.9336  135.4407  157.7984 H   0  0  0  0  0  0  0  0  0  0  0  0
  152.6246  136.3903  158.5036 H   0  0  0  0  0  0  0  0  0  0  0  0
  153.9143  137.1919  157.5874 H   0  0  0  0  0  0  0  0  0  0  0  0
  150.8902  137.2771  156.9275 H   0  0  0  0  0  0  0  0  0  0  0  0
  152.2540  138.1428  156.2324 H   0  0  0  0  0  0  0  0  0  0  0  0
  151.8699  136.6778  154.1151 H   0  0  0  0  0  0  0  0  0  0  0  0
  149.0568  136.3679  154.6964 H   0  0  0  0  0  0  0  0  0  0  0  0
  148.9875  134.3021  153.0956 H   0  0  0  0  0  0  0  0  0  0  0  0
  149.4313  131.8462  153.0858 H   0  0  0  0  0  0  0  0  0  0  0  0
  151.9962  132.4549  156.5133 H   0  0  0  0  0  0  0  0  0  0  0  0
  149.5034  139.2758  152.7610 H   0  0  0  0  0  0  0  0  0  0  0  0
  149.5653  137.5256  152.7290 H   0  0  0  0  0  0  0  0  0  0  0  0
  1  2  1  0  0  0  0
  1 17  1  0  0  0  0
  1 18  1  0  0  0  0
  1 19  1  0  0  0  0
  2  3  1  0  0  0  0
  3  4  1  0  0  0  0
  3 20  1  0  0  0  0
  3 21  1  0  0  0  0
  4  5  1  0  0  0  0
  4 14  1  0  0  0  0
  4 22  1  0  0  0  0
  5  6  1  0  0  0  0
  5 23  1  0  0  0  0
  6 13  1  0  0  0  0
  6  7  2  0  0  0  0
  7  8  1  0  0  0  0
  7 24  1  0  0  0  0
  8  9  2  0  0  0  0
  8 25  1  0  0  0  0
  9 10  1  0  0  0  0
  9 12  1  0  0  0  0
 10 11  3  0  0  0  0
 12 13  2  0  0  0  0
 12 26  1  0  0  0  0
 14 15  1  0  0  0  0
 14 16  2  0  0  0  0
 15 27  1  0  0  0  0
 15 28  1  0  0  0  0
M  END
> <s_m_source_file>
AV-unprocessed.smi

> <i_m_source_file_index>
2830

> <i_lp_mmshare_version>
43012

> <i_f3d_flags>
0

> <s_epik_input>
W0NIM11PW0NIMl1bQ0BASF0oQyg9TylbTkgyXSlbTkhdYzFbY0hdW2NIXWMoQyNOKVtjSF1uMQ==

> <s_epik_cmdline>
J2VwaWtfcHl0aG9uJywgJy1waCcsICc3LjAnLCAnLXRuJywgJzgnLCAnLW1hJywgJzIwMCcsICctbWV0YWxfYmluZGluZycsICctaW1hZScsICc8aW5maWxlLm1hZT4nLCAnLW9tYWUnLCAnPG91dGZpbGUubWFlPic=

> <r_lp_tautomer_probability>
1

> <r_epik_Ionization_Penalty>
4.37908e-06

> <r_epik_Ionization_Penalty_Charging>
0

> <r_epik_Ionization_Penalty_Neutral>
4.37908e-06

> <r_epik_State_Penalty>
-0

> <r_epik_Charging_Adjusted_Penalty>
0

> <i_epik_Tot_Q>
0

> <i_epik_Tot_abs_Q>
0

> <r_epik_Metal_State_Penalty>
-0

> <b_epik_Metal_Only>
0

> <s_lp_Force_Field>
OPLS_2005

> <r_lp_Energy>
3.76959

> <b_lp_Chiralities_Consistent>
1

> <s_lp_Variant>
AV-unprocessed.smi:2830-2

> <Gold.Version>
5.8.1

> <Gold.Id.Protein>
6NUR|6NUR_protein|mol2

> <Gold.PLP.Fitness>
34.7965

> <Gold.PLP.PLP>
-26.3320

> <Gold.PLP.part.hbond>
-4.7312

> <Gold.PLP.part.metal>
0.0000

> <Gold.PLP.part.buried>
-3.3448

> <Gold.PLP.part.nonpolar>
-18.0345

> <Gold.PLP.part.repulsive>
0.2775

> <Gold.PLP.ligand.clash>
0.0000

> <Gold.PLP.ligand.torsion>
1.3670

> <Gold.PLP.Chemscore.Hbond>
3.7200

> <Gold.PLP.Chemscore.CHOScore>
0.0000

> <Gold.PLP.Chemscore.Metal>
0.0000

> <Gold.Chemscore.Hbonds>
donor molecule, donor type, donor heavy atom, donor atom, acceptor molecule, acceptor atom, score
      L1  H    15    27       P1  7957  0.67
      L1  H    15    28       P1  7948  1.00
      P1  H  7989  7998       L1    16  1.00
      P1  H 10752 10765       L1     2  1.00

> <Gold.PLP.Chemscore.Internal.Correction>
0.0384

> <Gold.Rescore>
     Score         DG    S(hbond)    S(metal)    S(lipo)     H(rot)  DE(clash)    DE(int)     intcor
     13.08     -16.24       3.68        0.00      37.76       2.32       0.00       3.15       ----

> <Gold.Chemscore.Fitness>
13.0829

> <Gold.Chemscore.DG>
-16.2381

> <Gold.Chemscore.ZeroCoef>
-5.4800

> <Gold.Chemscore.Hbond>
3.6762

> <Gold.Chemscore.Metal>
0.0000

> <Gold.Chemscore.Lipo>
37.7606

> <Gold.Chemscore.Internal_Hbond>
0.0000

> <Gold.Chemscore.DEClash>
0.0021

> <Gold.Chemscore.DEInternal>
3.1531

> <Gold.Chemscore.Rot>
2.3197

> <Gold.Chemscore.Internal.Correction>
   9.000000E+99

> <Gold.Chemscore.Hbonds>
donor molecule, donor type, donor heavy atom, donor atom, acceptor molecule, acceptor atom, score
      L1  H    15    27       P1  7957  0.68
      L1  H    15    28       P1  7948  0.65
      P1  H  7989  7998       L1    16  0.83
      P1  H 10752 10765       L1     2  0.63

> <Gold.Chemscore.Hbond.Weighted>
-12.2785

> <Gold.Chemscore.Metal.Weighted>
-0.0000

> <Gold.Chemscore.Lipo.Weighted>
-4.4180

> <Gold.Chemscore.Internal_Hbond.Weighted>
0.0000

> <Gold.Chemscore.DEClash.Weighted>
0.0021

> <Gold.Chemscore.DEInternal.Weighted>
3.1531

> <Gold.Chemscore.Rot.Weighted>
5.9384

> <Gold.Chemscore.Internal.Correction.Weighted>
   9.000000E+99

> <Gold.Protein.RotatedTorsions>
[ 6907 6896 6895 6894 ] final   98.29 input  -60.11 | X-H torsion
[ 7974 7965 7964 7962 ] final  108.68 input  175.53 | X-H torsion
[ 8008 7997 7996 7995 ] final    4.43 input   59.86 | X-H torsion
[ 10167 10162 10161 10158 ] final  137.03 input  -65.29 | X-H torsion
[ 10718 10713 10712 10709 ] final   36.53 input   66.30 | X-H torsion
[ 10763 10752 10751 10750 ] final -120.55 input  -60.55 | X-H torsion
[ 11005 11000 10999 10996 ] final  135.44 input  -57.11 | X-H torsion

> <Gold.Protein.ActiveResidues>
 VAL166  LYS551  ARG553  GLY616  TRP617  ASP618  TYR619  PRO620  LYS621  CYS622 
 ASP623  PHE694  ASN695  SER759  ASP760  ASP761  ALA762  ILE779  LEU786  VAL792 
 PHE793  MET794  SER795  GLU796  ALA797  LYS798  CYS799  TRP800  GLU811  SER814 

> <Gold.Protein.RotatedAtoms>
  152.5411  134.0603  159.8148 H   0  0  0  0  0  0  0  0  0  0  0  0  # atno 6907 bound_to 6896
  151.0732  133.5442  159.2633 H   0  0  0  0  0  0  0  0  0  0  0  0  # atno 6908 bound_to 6896
  151.2297  135.0558  159.9037 H   0  0  0  0  0  0  0  0  0  0  0  0  # atno 6909 bound_to 6896
  145.2775  139.2644  143.3933 H   0  0  0  0  0  0  0  0  0  0  0  0  # atno 7974 bound_to 7965
  154.7159  140.2702  155.6586 H   0  0  0  0  0  0  0  0  0  0  0  0  # atno 8008 bound_to 7997
  156.2809  140.2744  156.1739 H   0  0  0  0  0  0  0  0  0  0  0  0  # atno 8009 bound_to 7997
  155.0572  140.0371  157.2554 H   0  0  0  0  0  0  0  0  0  0  0  0  # atno 8010 bound_to 7997
  139.5159  144.6432  151.5511 H   0  0  0  0  0  0  0  0  0  0  0  0  # atno 10167 bound_to 10162
  157.3360  130.7523  149.6879 H   0  0  0  0  0  0  0  0  0  0  0  0  # atno 10718 bound_to 10713
  154.8647  135.4199  154.2477 H   0  0  0  0  0  0  0  0  0  0  0  0  # atno 10763 bound_to 10752
  153.3429  135.6994  153.6857 H   0  0  0  0  0  0  0  0  0  0  0  0  # atno 10764 bound_to 10752
  153.5828  135.3569  155.2854 H   0  0  0  0  0  0  0  0  0  0  0  0  # atno 10765 bound_to 10752
  139.9980  134.9489  157.0008 H   0  0  0  0  0  0  0  0  0  0  0  0  # atno 11005 bound_to 11000
  146.3227  140.3234  142.8635 LP  0  0  0  0  0  0  0  0  0  0  0  0  # atno 17320 bound_to 7965
  144.9282  140.7945  143.5706 LP  0  0  0  0  0  0  0  0  0  0  0  0  # atno 17321 bound_to 7965
  140.6207  143.9264  150.6524 LP  0  0  0  0  0  0  0  0  0  0  0  0  # atno 17342 bound_to 10162
  140.2536  143.3575  152.1384 LP  0  0  0  0  0  0  0  0  0  0  0  0  # atno 17343 bound_to 10162
  155.9701  130.4181  150.4313 LP  0  0  0  0  0  0  0  0  0  0  0  0  # atno 17370 bound_to 10713
  157.2353  131.0513  151.2469 LP  0  0  0  0  0  0  0  0  0  0  0  0  # atno 17371 bound_to 10713
  140.4781  134.1317  155.7213 LP  0  0  0  0  0  0  0  0  0  0  0  0  # atno 17394 bound_to 11000
  141.1620  133.8775  157.1822 LP  0  0  0  0  0  0  0  0  0  0  0  0  # atno 17395 bound_to 11000

$$$$
