AV-unprocessed.smi:1831|AV-procd|sdf|7458|dock9
  -GOLD-   22720 9153D 1   1.00000     0.00000
 Structure written by MMmdl.
 41 42  0  0  0  0  0  0  0  0  2 V2000
  151.7262  141.6495  156.0739 C   0  0  0  0  0  0  0  0  0  0  0  0
  151.6455  140.2419  155.5912 C   0  0  0  0  0  0  0  0  0  0  0  0
  152.7234  139.4577  155.4724 N   0  0  0  0  0  0  0  0  0  0  0  0
  152.4036  138.1914  155.0034 N   0  0  0  0  0  0  0  0  0  0  0  0
  151.0890  138.0581  154.7805 C   0  0  0  0  0  0  0  0  0  0  0  0
  150.4876  136.8652  154.2984 N   0  0  0  0  0  0  0  0  0  0  0  0
  150.6475  135.6100  154.7540 C   0  0  0  0  0  0  0  0  0  0  0  0
  151.3641  135.2806  155.6993 O   0  0  0  0  0  0  0  0  0  0  0  0
  149.9156  134.7383  154.0464 N   0  0  0  0  0  0  0  0  0  0  0  0
  149.8523  133.3063  154.3146 C   0  0  0  0  0  0  0  0  0  0  0  0
  149.0848  132.5642  153.2082 C   0  0  2  0  0  0  0  0  0  0  0  0
  147.7438  133.2029  152.8543 C   0  0  0  0  0  0  0  0  0  0  0  0
  146.9034  132.0568  152.2763 C   0  0  0  0  0  0  0  0  0  0  0  0
  147.6006  130.7889  152.6108 N   0  3  2  0  0  0  0  0  0  0  0  0
  146.7119  129.6647  153.0207 C   0  0  0  0  0  0  0  0  0  0  0  0
  147.4976  128.3511  153.1960 C   0  0  0  0  0  0  0  0  0  0  0  0
  145.5795  129.4521  151.9984 C   0  0  0  0  0  0  0  0  0  0  0  0
  148.6773  131.1343  153.5650 C   0  0  0  0  0  0  0  0  0  0  0  0
  150.1268  139.4853  155.1245 S   0  0  0  0  0  0  0  0  0  0  0  0
  152.4326  141.7257  156.9010 H   0  0  0  0  0  0  0  0  0  0  0  0
  150.7493  141.9887  156.4185 H   0  0  0  0  0  0  0  0  0  0  0  0
  152.0590  142.3012  155.2662 H   0  0  0  0  0  0  0  0  0  0  0  0
  149.8557  136.9842  153.5207 H   0  0  0  0  0  0  0  0  0  0  0  0
  149.3481  135.0918  153.2899 H   0  0  0  0  0  0  0  0  0  0  0  0
  150.8594  132.8951  154.4054 H   0  0  0  0  0  0  0  0  0  0  0  0
  149.3607  133.1547  155.2764 H   0  0  0  0  0  0  0  0  0  0  0  0
  149.6964  132.5343  152.3044 H   0  0  0  0  0  0  0  0  0  0  0  0
  147.2615  133.5852  153.7552 H   0  0  0  0  0  0  0  0  0  0  0  0
  147.8496  134.0364  152.1590 H   0  0  0  0  0  0  0  0  0  0  0  0
  145.8962  132.0934  152.6943 H   0  0  0  0  0  0  0  0  0  0  0  0
  146.8164  132.1383  151.1925 H   0  0  0  0  0  0  0  0  0  0  0  0
  146.2634  129.9197  153.9822 H   0  0  0  0  0  0  0  0  0  0  0  0
  146.8289  127.5278  153.4493 H   0  0  0  0  0  0  0  0  0  0  0  0
  148.2321  128.4162  153.9990 H   0  0  0  0  0  0  0  0  0  0  0  0
  148.0233  128.0776  152.2805 H   0  0  0  0  0  0  0  0  0  0  0  0
  144.9444  128.6141  152.2878 H   0  0  0  0  0  0  0  0  0  0  0  0
  145.9780  129.2352  151.0065 H   0  0  0  0  0  0  0  0  0  0  0  0
  144.9318  130.3244  151.9126 H   0  0  0  0  0  0  0  0  0  0  0  0
  149.5153  130.4401  153.4954 H   0  0  0  0  0  0  0  0  0  0  0  0
  148.2892  131.0987  154.5847 H   0  0  0  0  0  0  0  0  0  0  0  0
  148.0689  130.4995  151.7639 H   0  0  0  0  0  0  0  0  0  0  0  0
  1  2  1  0  0  0  0
  1 20  1  0  0  0  0
  1 21  1  0  0  0  0
  1 22  1  0  0  0  0
  2 19  1  0  0  0  0
  2  3  2  0  0  0  0
  3  4  1  0  0  0  0
  4  5  2  0  0  0  0
  5  6  1  0  0  0  0
  5 19  1  0  0  0  0
  6  7  1  0  0  0  0
  6 23  1  0  0  0  0
  7  8  2  0  0  0  0
  7  9  1  0  0  0  0
  9 10  1  0  0  0  0
  9 24  1  0  0  0  0
 10 11  1  0  0  0  0
 10 25  1  0  0  0  0
 10 26  1  0  0  0  0
 11 18  1  0  0  0  0
 11 12  1  0  0  0  0
 11 27  1  0  0  0  0
 12 13  1  0  0  0  0
 12 28  1  0  0  0  0
 12 29  1  0  0  0  0
 13 14  1  0  0  0  0
 13 30  1  0  0  0  0
 13 31  1  0  0  0  0
 14 15  1  0  0  0  0
 14 18  1  0  0  0  0
 14 41  1  0  0  0  0
 15 16  1  0  0  0  0
 15 17  1  0  0  0  0
 15 32  1  0  0  0  0
 16 33  1  0  0  0  0
 16 34  1  0  0  0  0
 16 35  1  0  0  0  0
 17 36  1  0  0  0  0
 17 37  1  0  0  0  0
 17 38  1  0  0  0  0
 18 39  1  0  0  0  0
 18 40  1  0  0  0  0
M  CHG  1  14   1
M  END
> <s_m_source_file>
AV-unprocessed.smi

> <i_m_source_file_index>
1831

> <i_lp_mmshare_version>
43012

> <i_f3d_flags>
0

> <s_epik_input>
W0NIM11jMW5uYyhzMSlbTkhdQyg9TylbTkhdW0NIMl1bQ0BASF0yW0NIMl1bQ0gyXU4oW0NIMl0yKVtDSF0oW0NIM10pW0NIM10=

> <s_epik_cmdline>
J2VwaWtfcHl0aG9uJywgJy1waCcsICc3LjAnLCAnLXRuJywgJzgnLCAnLW1hJywgJzIwMCcsICctbWV0YWxfYmluZGluZycsICctaW1hZScsICc8aW5maWxlLm1hZT4nLCAnLW9tYWUnLCAnPG91dGZpbGUubWFlPic=

> <r_lp_tautomer_probability>
1

> <r_epik_Ionization_Penalty>
0.00080807

> <r_epik_Ionization_Penalty_Charging>
0.000218981

> <r_epik_Ionization_Penalty_Neutral>
0.00058909

> <r_epik_State_Penalty>
-0

> <r_epik_Charging_Adjusted_Penalty>
0.000218981

> <i_epik_Tot_Q>
1

> <i_epik_Tot_abs_Q>
1

> <r_epik_Metal_State_Penalty>
0.236062

> <b_epik_Metal_Only>
0

> <s_lp_Force_Field>
OPLS_2005

> <r_lp_Energy>
30.7631

> <b_lp_Chiralities_Consistent>
1

> <s_lp_Variant>
AV-unprocessed.smi:1831-3

> <Gold.Version>
5.8.1

> <Gold.Id.Protein>
6NUR|6NUR_protein|mol2

> <Gold.PLP.Fitness>
46.1491

> <Gold.PLP.PLP>
-33.2133

> <Gold.PLP.part.hbond>
-6.0390

> <Gold.PLP.part.metal>
0.0000

> <Gold.PLP.part.buried>
-3.3138

> <Gold.PLP.part.nonpolar>
-23.4135

> <Gold.PLP.part.repulsive>
0.1954

> <Gold.PLP.ligand.clash>
0.0000

> <Gold.PLP.ligand.torsion>
0.5798

> <Gold.PLP.Chemscore.Hbond>
4.6880

> <Gold.PLP.Chemscore.CHOScore>
0.0000

> <Gold.PLP.Chemscore.Metal>
0.0000

> <Gold.Chemscore.Hbonds>
donor molecule, donor type, donor heavy atom, donor atom, acceptor molecule, acceptor atom, score
      L1  H     6    23       P1  7948  0.98
      L1  H     9    24       P1  7948  0.65
      L1  H    14    41       P1 10747  1.00
      P1  H  7997  8009       L1     3  1.00
      P1  H 10752 10763       L1     8  1.00

> <Gold.PLP.Chemscore.Internal.Correction>
0.0314

> <Gold.Rescore>
     Score         DG    S(hbond)    S(metal)    S(lipo)     H(rot)  DE(clash)    DE(int)     intcor
     20.16     -21.03       3.34        0.00      71.26       1.54       0.24       0.63       ----

> <Gold.Chemscore.Fitness>
20.1596

> <Gold.Chemscore.DG>
-21.0279

> <Gold.Chemscore.ZeroCoef>
-5.4800

> <Gold.Chemscore.Hbond>
3.3390

> <Gold.Chemscore.Metal>
0.0000

> <Gold.Chemscore.Lipo>
71.2565

> <Gold.Chemscore.Internal_Hbond>
0.0000

> <Gold.Chemscore.DEClash>
0.2397

> <Gold.Chemscore.DEInternal>
0.6286

> <Gold.Chemscore.Rot>
1.5396

> <Gold.Chemscore.Internal.Correction>
   9.000000E+99

> <Gold.Chemscore.Hbonds>
donor molecule, donor type, donor heavy atom, donor atom, acceptor molecule, acceptor atom, score
      L1  H     6    23       P1  7948  0.40
      L1  H     9    24       P1  7948  0.05
      L1  H    14    41       P1 10747  0.97
      P1  H  7997  8009       L1     3  0.91
      P1  H 10752 10763       L1     8  0.38

> <Gold.Chemscore.Hbond.Weighted>
-11.1522

> <Gold.Chemscore.Metal.Weighted>
-0.0000

> <Gold.Chemscore.Lipo.Weighted>
-8.3370

> <Gold.Chemscore.Internal_Hbond.Weighted>
0.0000

> <Gold.Chemscore.DEClash.Weighted>
0.2397

> <Gold.Chemscore.DEInternal.Weighted>
0.6286

> <Gold.Chemscore.Rot.Weighted>
3.9413

> <Gold.Chemscore.Internal.Correction.Weighted>
   9.000000E+99

> <Gold.Protein.RotatedTorsions>
[ 6907 6896 6895 6894 ] final  -92.68 input  -60.11 | X-H torsion
[ 7974 7965 7964 7962 ] final  172.00 input  175.53 | X-H torsion
[ 8008 7997 7996 7995 ] final -163.67 input   59.86 | X-H torsion
[ 10167 10162 10161 10158 ] final  -79.11 input  -65.29 | X-H torsion
[ 10718 10713 10712 10709 ] final  141.76 input   66.30 | X-H torsion
[ 10763 10752 10751 10750 ] final   85.92 input  -60.55 | X-H torsion
[ 11005 11000 10999 10996 ] final  179.16 input  -57.11 | X-H torsion

> <Gold.Protein.ActiveResidues>
 VAL166  LYS551  ARG553  GLY616  TRP617  ASP618  TYR619  PRO620  LYS621  CYS622 
 ASP623  PHE694  ASN695  SER759  ASP760  ASP761  ALA762  ILE779  LEU786  VAL792 
 PHE793  MET794  SER795  GLU796  ALA797  LYS798  CYS799  TRP800  GLU811  SER814 

> <Gold.Protein.RotatedAtoms>
  150.6910  134.2084  159.4349 H   0  0  0  0  0  0  0  0  0  0  0  0  # atno 6907 bound_to 6896
  152.0047  134.9907  160.0575 H   0  0  0  0  0  0  0  0  0  0  0  0  # atno 6908 bound_to 6896
  152.1545  133.4508  159.4867 H   0  0  0  0  0  0  0  0  0  0  0  0  # atno 6909 bound_to 6896
  144.7280  139.9433  143.6429 H   0  0  0  0  0  0  0  0  0  0  0  0  # atno 7974 bound_to 7965
  155.8246  140.0925  157.1828 H   0  0  0  0  0  0  0  0  0  0  0  0  # atno 8008 bound_to 7997
  154.3979  140.1430  156.3601 H   0  0  0  0  0  0  0  0  0  0  0  0  # atno 8009 bound_to 7997
  155.8230  140.3445  155.5528 H   0  0  0  0  0  0  0  0  0  0  0  0  # atno 8010 bound_to 7997
  140.4622  143.2450  151.8331 H   0  0  0  0  0  0  0  0  0  0  0  0  # atno 10167 bound_to 10162
  157.3883  131.1001  151.0671 H   0  0  0  0  0  0  0  0  0  0  0  0  # atno 10718 bound_to 10713
  153.1520  135.4599  154.9651 H   0  0  0  0  0  0  0  0  0  0  0  0  # atno 10763 bound_to 10752
  154.7832  135.3195  154.7946 H   0  0  0  0  0  0  0  0  0  0  0  0  # atno 10764 bound_to 10752
  153.8449  135.6927  153.4853 H   0  0  0  0  0  0  0  0  0  0  0  0  # atno 10765 bound_to 10752
  140.4031  134.6759  157.4573 H   0  0  0  0  0  0  0  0  0  0  0  0  # atno 11005 bound_to 11000
  146.0768  139.3756  143.0489 LP  0  0  0  0  0  0  0  0  0  0  0  0  # atno 17320 bound_to 7965
  145.7894  140.9821  143.1057 LP  0  0  0  0  0  0  0  0  0  0  0  0  # atno 17321 bound_to 7965
  139.4807  144.4994  151.9081 LP  0  0  0  0  0  0  0  0  0  0  0  0  # atno 17342 bound_to 10162
  140.4079  144.2407  150.5890 LP  0  0  0  0  0  0  0  0  0  0  0  0  # atno 17343 bound_to 10162
  157.1714  130.6269  149.5642 LP  0  0  0  0  0  0  0  0  0  0  0  0  # atno 17370 bound_to 10713
  155.9792  130.4784  150.6701 LP  0  0  0  0  0  0  0  0  0  0  0  0  # atno 17371 bound_to 10713
  140.0322  134.6390  155.9092 LP  0  0  0  0  0  0  0  0  0  0  0  0  # atno 17394 bound_to 11000
  141.1849  133.6554  156.5177 LP  0  0  0  0  0  0  0  0  0  0  0  0  # atno 17395 bound_to 11000

$$$$
