AV-unprocessed.smi:223|AV-procd|sdf|1703|dock9
  -GOLD-   2262020163D 1   1.00000     0.00000
 Structure written by MMmdl.
 47 50  0  0  0  0  0  0  0  0  1 V2000
  148.1511  139.9371  153.9518 C   0  0  0  0  0  0  0  0  0  0  0  0
  148.9615  139.1860  155.0150 C   0  0  2  0  0  0  0  0  0  0  0  0
  150.4002  139.4338  154.8197 C   0  0  0  0  0  0  0  0  0  0  0  0
  151.5304  139.6289  154.6666 N   0  0  0  0  0  0  0  0  0  0  0  0
  148.6156  137.6827  155.0114 C   0  0  0  0  0  0  0  0  0  0  0  0
  147.4011  137.3551  155.7587 N   0  0  0  0  0  0  0  0  0  0  0  0
  146.5838  136.4077  155.2254 C   0  0  0  0  0  0  0  0  0  0  0  0
  146.2411  135.3257  155.9757 N   0  0  0  0  0  0  0  0  0  0  0  0
  145.4621  134.3669  155.4682 C   0  0  0  0  0  0  0  0  0  0  0  0
  144.9182  134.2914  154.2530 N   0  0  0  0  0  0  0  0  0  0  0  0
  145.2452  135.3775  153.4966 C   0  0  0  0  0  0  0  0  0  0  0  0
  146.0653  136.4707  153.8993 C   0  0  0  0  0  0  0  0  0  0  0  0
  146.1643  137.3884  152.8598 N   0  0  0  0  0  0  0  0  0  0  0  0
  145.4580  136.8625  151.8972 C   0  0  0  0  0  0  0  0  0  0  0  0
  144.8611  135.6592  152.1970 N   0  0  0  0  0  0  0  0  0  0  0  0
  144.0217  134.8592  151.3172 C   0  0  0  0  0  0  0  0  0  0  0  0
  144.6663  133.5172  150.8964 C   0  0  1  0  0  0  0  0  0  0  0  0
  145.9880  133.7626  150.4464 O   0  0  0  0  0  0  0  0  0  0  0  0
  144.7294  132.5060  152.0341 C   0  0  0  0  0  0  0  0  0  0  0  0
  144.6846  131.1726  151.3002 C   0  0  0  0  0  0  0  0  0  0  0  0
  143.7497  131.4124  150.2620 O   0  0  0  0  0  0  0  0  0  0  0  0
  143.9082  132.7489  149.7936 C   0  0  0  0  0  0  0  0  0  0  0  0
  147.4801  137.4426  157.2148 C   0  0  0  0  0  0  0  0  0  0  0  0
  148.7831  137.8621  157.8580 C   0  0  0  0  0  0  0  0  0  0  0  0
  148.3178  136.4281  157.9569 C   0  0  0  0  0  0  0  0  0  0  0  0
  148.3769  141.0036  153.9704 H   0  0  0  0  0  0  0  0  0  0  0  0
  147.0797  139.8236  154.1198 H   0  0  0  0  0  0  0  0  0  0  0  0
  148.3749  139.5667  152.9510 H   0  0  0  0  0  0  0  0  0  0  0  0
  148.7069  139.6088  155.9869 H   0  0  0  0  0  0  0  0  0  0  0  0
  148.4541  137.3599  153.9824 H   0  0  0  0  0  0  0  0  0  0  0  0
  149.4680  137.1042  155.3618 H   0  0  0  0  0  0  0  0  0  0  0  0
  145.2453  133.5412  156.1298 H   0  0  0  0  0  0  0  0  0  0  0  0
  145.3463  137.3447  150.9368 H   0  0  0  0  0  0  0  0  0  0  0  0
  143.0713  134.6806  151.8215 H   0  0  0  0  0  0  0  0  0  0  0  0
  143.7892  135.4552  150.4339 H   0  0  0  0  0  0  0  0  0  0  0  0
  145.9435  134.1520  149.5864 H   0  0  0  0  0  0  0  0  0  0  0  0
  145.6068  132.6155  152.6730 H   0  0  0  0  0  0  0  0  0  0  0  0
  143.8449  132.5915  152.6669 H   0  0  0  0  0  0  0  0  0  0  0  0
  145.6567  130.9289  150.8693 H   0  0  0  0  0  0  0  0  0  0  0  0
  144.3726  130.3471  151.9403 H   0  0  0  0  0  0  0  0  0  0  0  0
  142.9150  133.1581  149.6123 H   0  0  0  0  0  0  0  0  0  0  0  0
  144.4419  132.7553  148.8422 H   0  0  0  0  0  0  0  0  0  0  0  0
  146.5746  137.7752  157.7193 H   0  0  0  0  0  0  0  0  0  0  0  0
  149.6288  138.0714  157.2056 H   0  0  0  0  0  0  0  0  0  0  0  0
  148.7233  138.4748  158.7549 H   0  0  0  0  0  0  0  0  0  0  0  0
  147.9499  136.0837  158.9211 H   0  0  0  0  0  0  0  0  0  0  0  0
  148.8569  135.6862  157.3709 H   0  0  0  0  0  0  0  0  0  0  0  0
  1  2  1  0  0  0  0
  1 26  1  0  0  0  0
  1 27  1  0  0  0  0
  1 28  1  0  0  0  0
  2  3  1  0  0  0  0
  2  5  1  0  0  0  0
  2 29  1  0  0  0  0
  3  4  3  0  0  0  0
  5  6  1  0  0  0  0
  5 30  1  0  0  0  0
  5 31  1  0  0  0  0
  6  7  1  0  0  0  0
  6 23  1  0  0  0  0
  7 12  1  0  0  0  0
  7  8  2  0  0  0  0
  8  9  1  0  0  0  0
  9 10  2  0  0  0  0
  9 32  1  0  0  0  0
 10 11  1  0  0  0  0
 11 15  1  0  0  0  0
 11 12  2  0  0  0  0
 12 13  1  0  0  0  0
 13 14  2  0  0  0  0
 14 15  1  0  0  0  0
 14 33  1  0  0  0  0
 15 16  1  0  0  0  0
 16 17  1  0  0  0  0
 16 34  1  0  0  0  0
 16 35  1  0  0  0  0
 17 22  1  0  0  0  0
 17 18  1  0  0  0  0
 17 19  1  0  0  0  0
 18 36  1  0  0  0  0
 19 20  1  0  0  0  0
 19 37  1  0  0  0  0
 19 38  1  0  0  0  0
 20 21  1  0  0  0  0
 20 39  1  0  0  0  0
 20 40  1  0  0  0  0
 21 22  1  0  0  0  0
 22 41  1  0  0  0  0
 22 42  1  0  0  0  0
 23 25  1  0  0  0  0
 23 24  1  0  0  0  0
 23 43  1  0  0  0  0
 24 25  1  0  0  0  0
 24 44  1  0  0  0  0
 24 45  1  0  0  0  0
 25 46  1  0  0  0  0
 25 47  1  0  0  0  0
M  END
> <s_m_source_file>
AV-unprocessed.smi

> <i_m_source_file_index>
223

> <i_lp_mmshare_version>
43012

> <i_f3d_flags>
0

> <s_epik_input>
TiNDW0NAQEhdKFtDSDNdKVtDSDJdTihbQ0hdMVtDSDJdW0NIMl0xKWMobltjSF1uMiljKGMyMyluW2NIXW4zW0NIMl1bQ0BAXTQoW09IXSlbQ0gyXVtDSDJdT1tDSDJdNA==

> <s_epik_cmdline>
J2VwaWtfcHl0aG9uJywgJy1waCcsICc3LjAnLCAnLXRuJywgJzgnLCAnLW1hJywgJzIwMCcsICctbWV0YWxfYmluZGluZycsICctaW1hZScsICc8aW5maWxlLm1hZT4nLCAnLW9tYWUnLCAnPG91dGZpbGUubWFlPic=

> <r_lp_tautomer_probability>
1

> <r_epik_Ionization_Penalty>
0.000756152

> <r_epik_Ionization_Penalty_Charging>
0

> <r_epik_Ionization_Penalty_Neutral>
0.000756152

> <r_epik_State_Penalty>
0.00038036

> <r_epik_Charging_Adjusted_Penalty>
0.00038036

> <i_epik_Tot_Q>
0

> <i_epik_Tot_abs_Q>
0

> <r_epik_Metal_State_Penalty>
-0

> <b_epik_Metal_Only>
0

> <s_lp_Force_Field>
OPLS_2005

> <r_lp_Energy>
37.204

> <b_lp_Chiralities_Consistent>
1

> <s_lp_Variant>
AV-unprocessed.smi:223-1

> <Gold.Version>
5.8.1

> <Gold.Id.Protein>
6NUR|6NUR_protein|mol2

> <Gold.PLP.Fitness>
37.6915

> <Gold.PLP.PLP>
-28.1993

> <Gold.PLP.part.hbond>
-3.0000

> <Gold.PLP.part.metal>
0.0000

> <Gold.PLP.part.buried>
-6.3245

> <Gold.PLP.part.nonpolar>
-20.7168

> <Gold.PLP.part.repulsive>
0.5237

> <Gold.PLP.ligand.clash>
0.0000

> <Gold.PLP.ligand.torsion>
1.5479

> <Gold.PLP.Chemscore.Hbond>
2.7771

> <Gold.PLP.Chemscore.CHOScore>
1.0000

> <Gold.PLP.Chemscore.Metal>
0.0000

> <Gold.Chemscore.Hbonds>
donor molecule, donor type, donor heavy atom, donor atom, acceptor molecule, acceptor atom, score
      L1  H    18    36       P1  7921  0.93
      P1  H  7989  7998       L1     4  1.00
      P1  H 10785 10796       L1    21  0.75
      L1  C    14    33       P1 10171  1.00

> <Gold.PLP.Chemscore.Internal.Correction>
1.2565

> <Gold.Rescore>
     Score         DG    S(hbond)    S(metal)    S(lipo)     H(rot)  DE(clash)    DE(int)     intcor
     10.00     -13.78       2.61        0.00      55.82       2.72       0.09       3.69       ----

> <Gold.Chemscore.Fitness>
9.9987

> <Gold.Chemscore.DG>
-13.7816

> <Gold.Chemscore.ZeroCoef>
-5.4800

> <Gold.Chemscore.Hbond>
2.6127

> <Gold.Chemscore.Metal>
0.0000

> <Gold.Chemscore.Lipo>
55.8189

> <Gold.Chemscore.Internal_Hbond>
0.0000

> <Gold.Chemscore.DEClash>
0.0914

> <Gold.Chemscore.DEInternal>
3.6915

> <Gold.Chemscore.Rot>
2.7171

> <Gold.Chemscore.Internal.Correction>
   9.000000E+99

> <Gold.Chemscore.Hbonds>
donor molecule, donor type, donor heavy atom, donor atom, acceptor molecule, acceptor atom, score
      L1  H    18    36       P1  7921  0.31
      P1  H  7989  7998       L1     4  0.60
      P1  H 10785 10796       L1    21  0.58

> <Gold.Chemscore.Hbond.Weighted>
-8.7265

> <Gold.Chemscore.Metal.Weighted>
-0.0000

> <Gold.Chemscore.Lipo.Weighted>
-6.5308

> <Gold.Chemscore.Internal_Hbond.Weighted>
0.0000

> <Gold.Chemscore.DEClash.Weighted>
0.0914

> <Gold.Chemscore.DEInternal.Weighted>
3.6915

> <Gold.Chemscore.Rot.Weighted>
6.9558

> <Gold.Chemscore.Internal.Correction.Weighted>
   9.000000E+99

> <Gold.Protein.RotatedTorsions>
[ 6907 6896 6895 6894 ] final -111.55 input  -60.11 | X-H torsion
[ 7974 7965 7964 7962 ] final  -43.40 input  175.53 | X-H torsion
[ 8008 7997 7996 7995 ] final  159.96 input   59.86 | X-H torsion
[ 10167 10162 10161 10158 ] final  -92.57 input  -65.29 | X-H torsion
[ 10718 10713 10712 10709 ] final  137.41 input   66.30 | X-H torsion
[ 10763 10752 10751 10750 ] final  160.00 input  -60.55 | X-H torsion
[ 11005 11000 10999 10996 ] final   77.27 input  -57.11 | X-H torsion

> <Gold.Protein.ActiveResidues>
 VAL166  LYS551  ARG553  GLY616  TRP617  ASP618  TYR619  PRO620  LYS621  CYS622 
 ASP623  PHE694  ASN695  SER759  ASP760  ASP761  ALA762  ILE779  LEU786  VAL792 
 PHE793  MET794  SER795  GLU796  ALA797  LYS798  CYS799  TRP800  GLU811  SER814 

> <Gold.Protein.RotatedAtoms>
  150.7698  133.9219  159.3400 H   0  0  0  0  0  0  0  0  0  0  0  0  # atno 6907 bound_to 6896
  151.7108  135.0911  160.0277 H   0  0  0  0  0  0  0  0  0  0  0  0  # atno 6908 bound_to 6896
  152.3710  133.6381  159.6123 H   0  0  0  0  0  0  0  0  0  0  0  0  # atno 6909 bound_to 6896
  146.0022  140.7061  142.9265 H   0  0  0  0  0  0  0  0  0  0  0  0  # atno 7974 bound_to 7965
  156.2204  140.1817  156.7490 H   0  0  0  0  0  0  0  0  0  0  0  0  # atno 8008 bound_to 7997
  154.5856  140.0659  156.9195 H   0  0  0  0  0  0  0  0  0  0  0  0  # atno 8009 bound_to 7997
  155.2425  140.3323  155.4293 H   0  0  0  0  0  0  0  0  0  0  0  0  # atno 8010 bound_to 7997
  140.3334  143.2982  151.9916 H   0  0  0  0  0  0  0  0  0  0  0  0  # atno 10167 bound_to 10162
  157.4364  131.1053  151.0193 H   0  0  0  0  0  0  0  0  0  0  0  0  # atno 10718 bound_to 10713
  154.2405  135.2775  155.2855 H   0  0  0  0  0  0  0  0  0  0  0  0  # atno 10763 bound_to 10752
  154.5549  135.5664  153.6958 H   0  0  0  0  0  0  0  0  0  0  0  0  # atno 10764 bound_to 10752
  153.0001  135.6283  154.2549 H   0  0  0  0  0  0  0  0  0  0  0  0  # atno 10765 bound_to 10752
  139.9261  134.7669  156.1501 H   0  0  0  0  0  0  0  0  0  0  0  0  # atno 11005 bound_to 11000
  144.6923  140.3254  143.7225 LP  0  0  0  0  0  0  0  0  0  0  0  0  # atno 17320 bound_to 7965
  145.7469  139.1781  143.2343 LP  0  0  0  0  0  0  0  0  0  0  0  0  # atno 17321 bound_to 7965
  139.4852  144.6216  151.7244 LP  0  0  0  0  0  0  0  0  0  0  0  0  # atno 17342 bound_to 10162
  140.5376  144.0631  150.6076 LP  0  0  0  0  0  0  0  0  0  0  0  0  # atno 17343 bound_to 10162
  157.1072  130.6006  149.5473 LP  0  0  0  0  0  0  0  0  0  0  0  0  # atno 17370 bound_to 10713
  155.9932  130.4992  150.7370 LP  0  0  0  0  0  0  0  0  0  0  0  0  # atno 17371 bound_to 10713
  141.0820  133.6750  156.2356 LP  0  0  0  0  0  0  0  0  0  0  0  0  # atno 17394 bound_to 11000
  140.6331  134.5243  157.5562 LP  0  0  0  0  0  0  0  0  0  0  0  0  # atno 17395 bound_to 11000

$$$$
