AV-unprocessed.smi:1643|AV-procd|sdf|6581|dock7
  -GOLD-   22720 7273D 1   1.00000     0.00000
 Structure written by MMmdl.
 55 57  0  0  0  0  0  0  0  0  3 V2000
  143.7067  136.4561  154.6195 C   0  0  0  0  0  0  0  0  0  0  0  0
  144.2185  137.8676  154.9223 C   0  0  0  0  0  0  0  0  0  0  0  0
  143.4003  138.7871  154.9450 O   0  0  0  0  0  0  0  0  0  0  0  0
  145.5405  138.0538  155.1595 N   0  0  0  0  0  0  0  0  0  0  0  0
  146.0656  139.3814  155.5147 C   0  0  0  0  0  0  0  0  0  0  0  0
  146.6936  140.0809  154.2960 C   0  0  0  0  0  0  0  0  0  0  0  0
  147.4089  139.1326  153.3101 C   0  0  0  0  0  0  0  0  0  0  0  0
  148.4623  138.2838  153.9310 N   0  3  1  0  0  0  0  0  0  0  0  0
  149.6897  139.0549  154.2677 C   0  0  0  0  0  0  0  0  0  0  0  0
  150.5810  138.3475  155.3080 C   0  0  1  0  0  0  0  0  0  0  0  0
  151.1309  137.1807  154.7272 O   0  0  0  0  0  0  0  0  0  0  0  0
  151.7248  139.2576  155.7978 C   0  0  0  0  0  0  0  0  0  0  0  0
  151.2388  140.4822  156.4468 N   0  0  0  0  0  0  0  0  0  0  0  0
  150.4063  141.4523  155.9793 C   0  0  0  0  0  0  0  0  0  0  0  0
  150.2703  142.3849  156.9623 N   0  3  0  0  0  0  0  0  0  0  0  0
  151.0236  142.0033  158.0747 C   0  0  0  0  0  0  0  0  0  0  0  0
  151.2050  142.6189  159.3072 C   0  0  0  0  0  0  0  0  0  0  0  0
  152.0462  141.9663  160.2367 C   0  0  0  0  0  0  0  0  0  0  0  0
  152.2676  142.6138  161.5929 C   0  0  0  0  0  0  0  0  0  0  0  0
  152.6724  140.7339  159.9155 C   0  0  0  0  0  0  0  0  0  0  0  0
  153.5755  140.0416  160.9224 C   0  0  0  0  0  0  0  0  0  0  0  0
  152.4736  140.1227  158.6566 C   0  0  0  0  0  0  0  0  0  0  0  0
  151.6444  140.7814  157.7520 C   0  0  0  0  0  0  0  0  0  0  0  0
  148.0199  137.3685  155.0294 C   0  0  0  0  0  0  0  0  0  0  0  0
  146.5233  136.9569  155.0301 C   0  0  0  0  0  0  0  0  0  0  0  0
  144.0373  135.7454  155.3775 H   0  0  0  0  0  0  0  0  0  0  0  0
  144.0540  136.1197  153.6424 H   0  0  0  0  0  0  0  0  0  0  0  0
  142.6161  136.4400  154.6079 H   0  0  0  0  0  0  0  0  0  0  0  0
  145.2961  140.0270  155.9406 H   0  0  0  0  0  0  0  0  0  0  0  0
  146.7902  139.2927  156.3222 H   0  0  0  0  0  0  0  0  0  0  0  0
  145.9053  140.5985  153.7482 H   0  0  0  0  0  0  0  0  0  0  0  0
  147.3760  140.8599  154.6370 H   0  0  0  0  0  0  0  0  0  0  0  0
  146.6841  138.4898  152.8094 H   0  0  0  0  0  0  0  0  0  0  0  0
  147.8505  139.7196  152.5039 H   0  0  0  0  0  0  0  0  0  0  0  0
  150.2776  139.2286  153.3651 H   0  0  0  0  0  0  0  0  0  0  0  0
  149.3981  140.0409  154.6330 H   0  0  0  0  0  0  0  0  0  0  0  0
  149.9863  138.0480  156.1703 H   0  0  0  0  0  0  0  0  0  0  0  0
  150.4597  136.7471  154.2221 H   0  0  0  0  0  0  0  0  0  0  0  0
  152.3509  138.7297  156.5189 H   0  0  0  0  0  0  0  0  0  0  0  0
  152.3778  139.5445  154.9724 H   0  0  0  0  0  0  0  0  0  0  0  0
  149.9418  141.4813  155.0041 H   0  0  0  0  0  0  0  0  0  0  0  0
  150.7251  143.5571  159.5453 H   0  0  0  0  0  0  0  0  0  0  0  0
  153.3238  142.8402  161.7409 H   0  0  0  0  0  0  0  0  0  0  0  0
  151.9383  141.9506  162.3932 H   0  0  0  0  0  0  0  0  0  0  0  0
  151.7116  143.5475  161.6844 H   0  0  0  0  0  0  0  0  0  0  0  0
  153.9892  139.1168  160.5191 H   0  0  0  0  0  0  0  0  0  0  0  0
  153.0201  139.7916  161.8267 H   0  0  0  0  0  0  0  0  0  0  0  0
  154.4103  140.6875  161.1955 H   0  0  0  0  0  0  0  0  0  0  0  0
  152.9486  139.1844  158.4121 H   0  0  0  0  0  0  0  0  0  0  0  0
  148.6144  136.4585  154.9453 H   0  0  0  0  0  0  0  0  0  0  0  0
  148.2891  137.7845  156.0005 H   0  0  0  0  0  0  0  0  0  0  0  0
  146.3595  136.2566  155.8502 H   0  0  0  0  0  0  0  0  0  0  0  0
  146.3350  136.4016  154.1103 H   0  0  0  0  0  0  0  0  0  0  0  0
  148.7421  137.6687  153.1798 H   0  0  0  0  0  0  0  0  0  0  0  0
  149.7049  143.2202  156.8774 H   0  0  0  0  0  0  0  0  0  0  0  0
  1  2  1  0  0  0  0
  1 26  1  0  0  0  0
  1 27  1  0  0  0  0
  1 28  1  0  0  0  0
  2  3  2  0  0  0  0
  2  4  1  0  0  0  0
  4 25  1  0  0  0  0
  4  5  1  0  0  0  0
  5  6  1  0  0  0  0
  5 29  1  0  0  0  0
  5 30  1  0  0  0  0
  6  7  1  0  0  0  0
  6 31  1  0  0  0  0
  6 32  1  0  0  0  0
  7  8  1  0  0  0  0
  7 33  1  0  0  0  0
  7 34  1  0  0  0  0
  8  9  1  0  0  0  0
  8 24  1  0  0  0  0
  8 54  1  0  0  0  0
  9 10  1  0  0  0  0
  9 35  1  0  0  0  0
  9 36  1  0  0  0  0
 10 11  1  0  0  0  0
 10 12  1  0  0  0  0
 10 37  1  0  0  0  0
 11 38  1  0  0  0  0
 12 13  1  0  0  0  0
 12 39  1  0  0  0  0
 12 40  1  0  0  0  0
 13 23  1  0  0  0  0
 13 14  1  0  0  0  0
 14 15  2  0  0  0  0
 14 41  1  0  0  0  0
 15 16  1  0  0  0  0
 15 55  1  0  0  0  0
 16 23  2  0  0  0  0
 16 17  1  0  0  0  0
 17 18  2  0  0  0  0
 17 42  1  0  0  0  0
 18 19  1  0  0  0  0
 18 20  1  0  0  0  0
 19 43  1  0  0  0  0
 19 44  1  0  0  0  0
 19 45  1  0  0  0  0
 20 21  1  0  0  0  0
 20 22  2  0  0  0  0
 21 46  1  0  0  0  0
 21 47  1  0  0  0  0
 21 48  1  0  0  0  0
 22 23  1  0  0  0  0
 22 49  1  0  0  0  0
 24 25  1  0  0  0  0
 24 50  1  0  0  0  0
 24 51  1  0  0  0  0
 25 52  1  0  0  0  0
 25 53  1  0  0  0  0
M  CHG  1   8   1
M  CHG  1  15   1
M  END
> <s_m_source_file>
AV-unprocessed.smi

> <i_m_source_file_index>
1643

> <i_lp_mmshare_version>
43012

> <i_f3d_flags>
0

> <s_epik_input>
W0NIM11DKD1PKU4xW0NIMl1bQ0gyXVtDSDJdTihbQ0gyXVtDSDJdMSlbQ0gyXVtDQEhdKFtPSF0pW0NIMl1uKFtjSF1uMiljKGMyMylbY0hdYyhbQ0gzXSljKFtjSF0zKVtDSDNd

> <s_epik_cmdline>
J2VwaWtfcHl0aG9uJywgJy1waCcsICc3LjAnLCAnLXRuJywgJzgnLCAnLW1hJywgJzIwMCcsICctbWV0YWxfYmluZGluZycsICctaW1hZScsICc8aW5maWxlLm1hZT4nLCAnLW9tYWUnLCAnPG91dGZpbGUubWFlPic=

> <r_epik_Ionization_Penalty>
1.2865

> <r_epik_Ionization_Penalty_Charging>
1.2865

> <r_epik_Ionization_Penalty_Neutral>
2.89706e-06

> <r_epik_State_Penalty>
1.3566

> <r_epik_Charging_Adjusted_Penalty>
2.6431

> <i_epik_Tot_Q>
2

> <i_epik_Tot_abs_Q>
2

> <r_epik_Metal_State_Penalty>
5.37339

> <b_epik_Metal_Only>
0

> <s_lp_Force_Field>
OPLS_2005

> <r_lp_Energy>
56.7844

> <b_lp_Chiralities_Consistent>
1

> <s_lp_Variant>
AV-unprocessed.smi:1643-10

> <Gold.Version>
5.8.1

> <Gold.Id.Protein>
6NUR|6NUR_protein|mol2

> <Gold.PLP.Fitness>
52.2125

> <Gold.PLP.PLP>
-40.1632

> <Gold.PLP.part.hbond>
-2.1779

> <Gold.PLP.part.metal>
0.0000

> <Gold.PLP.part.buried>
-4.0018

> <Gold.PLP.part.nonpolar>
-33.0273

> <Gold.PLP.part.repulsive>
0.1692

> <Gold.PLP.ligand.clash>
0.0000

> <Gold.PLP.ligand.torsion>
0.3705

> <Gold.PLP.Chemscore.Hbond>
4.2340

> <Gold.PLP.Chemscore.CHOScore>
0.0000

> <Gold.PLP.Chemscore.Metal>
0.0000

> <Gold.Chemscore.Hbonds>
donor molecule, donor type, donor heavy atom, donor atom, acceptor molecule, acceptor atom, score
      L1  H     8    54       P1  7948  2.00
      L1  H    15    55       P1  8028  1.68
      P1  H 10752 10765       L1    11  0.10

> <Gold.PLP.Chemscore.Internal.Correction>
0.0884

> <Gold.Rescore>
     Score         DG    S(hbond)    S(metal)    S(lipo)     H(rot)  DE(clash)    DE(int)     intcor
     18.47     -18.98       2.01        0.00     105.56       2.17       0.10       0.41       ----

> <Gold.Chemscore.Fitness>
18.4726

> <Gold.Chemscore.DG>
-18.9796

> <Gold.Chemscore.ZeroCoef>
-5.4800

> <Gold.Chemscore.Hbond>
2.0107

> <Gold.Chemscore.Metal>
0.0000

> <Gold.Chemscore.Lipo>
105.5594

> <Gold.Chemscore.Internal_Hbond>
0.0000

> <Gold.Chemscore.DEClash>
0.0955

> <Gold.Chemscore.DEInternal>
0.4115

> <Gold.Chemscore.Rot>
2.1744

> <Gold.Chemscore.Internal.Correction>
   9.000000E+99

> <Gold.Chemscore.Hbonds>
donor molecule, donor type, donor heavy atom, donor atom, acceptor molecule, acceptor atom, score
      L1  H     8    54       P1  7948  0.99
      L1  H    15    55       P1  8028  0.77
      P1  H 10752 10765       L1    11  0.04

> <Gold.Chemscore.Hbond.Weighted>
-6.7157

> <Gold.Chemscore.Metal.Weighted>
-0.0000

> <Gold.Chemscore.Lipo.Weighted>
-12.3504

> <Gold.Chemscore.Internal_Hbond.Weighted>
0.0000

> <Gold.Chemscore.DEClash.Weighted>
0.0955

> <Gold.Chemscore.DEInternal.Weighted>
0.4115

> <Gold.Chemscore.Rot.Weighted>
5.5666

> <Gold.Chemscore.Internal.Correction.Weighted>
   9.000000E+99

> <Gold.Protein.RotatedTorsions>
[ 6907 6896 6895 6894 ] final   -3.86 input  -60.11 | X-H torsion
[ 7974 7965 7964 7962 ] final   59.88 input  175.53 | X-H torsion
[ 8008 7997 7996 7995 ] final   44.55 input   59.86 | X-H torsion
[ 10167 10162 10161 10158 ] final   46.98 input  -65.29 | X-H torsion
[ 10718 10713 10712 10709 ] final  -29.05 input   66.30 | X-H torsion
[ 10763 10752 10751 10750 ] final  175.13 input  -60.55 | X-H torsion
[ 11005 11000 10999 10996 ] final  120.21 input  -57.11 | X-H torsion

> <Gold.Protein.ActiveResidues>
 VAL166  LYS551  ARG553  GLY616  TRP617  ASP618  TYR619  PRO620  LYS621  CYS622 
 ASP623  PHE694  ASN695  SER759  ASP760  ASP761  ALA762  ILE779  LEU786  VAL792 
 PHE793  MET794  SER795  GLU796  ALA797  LYS798  CYS799  TRP800  GLU811  SER814 

> <Gold.Protein.RotatedAtoms>
  151.5070  135.1064  159.9843 H   0  0  0  0  0  0  0  0  0  0  0  0  # atno 6907 bound_to 6896
  152.4677  133.7956  159.6936 H   0  0  0  0  0  0  0  0  0  0  0  0  # atno 6908 bound_to 6896
  150.8670  133.7497  159.2999 H   0  0  0  0  0  0  0  0  0  0  0  0  # atno 6909 bound_to 6896
  145.9023  139.3590  143.0585 H   0  0  0  0  0  0  0  0  0  0  0  0  # atno 7974 bound_to 7965
  155.3212  140.3397  155.4241 H   0  0  0  0  0  0  0  0  0  0  0  0  # atno 8008 bound_to 7997
  156.1908  140.1697  156.8133 H   0  0  0  0  0  0  0  0  0  0  0  0  # atno 8009 bound_to 7997
  154.5440  140.0719  156.8541 H   0  0  0  0  0  0  0  0  0  0  0  0  # atno 8010 bound_to 7997
  140.3083  144.2851  150.6205 H   0  0  0  0  0  0  0  0  0  0  0  0  # atno 10167 bound_to 10162
  156.4174  130.4420  149.7208 H   0  0  0  0  0  0  0  0  0  0  0  0  # atno 10718 bound_to 10713
  154.4635  135.2768  155.1696 H   0  0  0  0  0  0  0  0  0  0  0  0  # atno 10763 bound_to 10752
  154.3474  135.6157  153.5629 H   0  0  0  0  0  0  0  0  0  0  0  0  # atno 10764 bound_to 10752
  152.9857  135.5803  154.5001 H   0  0  0  0  0  0  0  0  0  0  0  0  # atno 10765 bound_to 10752
  139.9176  134.9633  156.7773 H   0  0  0  0  0  0  0  0  0  0  0  0  # atno 11005 bound_to 11000
  145.8776  140.9382  143.0618 LP  0  0  0  0  0  0  0  0  0  0  0  0  # atno 17320 bound_to 7965
  144.6736  140.0737  143.7472 LP  0  0  0  0  0  0  0  0  0  0  0  0  # atno 17321 bound_to 7965
  140.5591  143.2195  151.7797 LP  0  0  0  0  0  0  0  0  0  0  0  0  # atno 17342 bound_to 10162
  139.4899  144.4373  151.9804 LP  0  0  0  0  0  0  0  0  0  0  0  0  # atno 17343 bound_to 10162
  156.4163  130.7746  151.2762 LP  0  0  0  0  0  0  0  0  0  0  0  0  # atno 17370 bound_to 10713
  157.7508  131.0196  150.3675 LP  0  0  0  0  0  0  0  0  0  0  0  0  # atno 17371 bound_to 10713
  140.6573  133.9677  155.7786 LP  0  0  0  0  0  0  0  0  0  0  0  0  # atno 17394 bound_to 11000
  141.0668  134.0265  157.3583 LP  0  0  0  0  0  0  0  0  0  0  0  0  # atno 17395 bound_to 11000

$$$$
