AV-unprocessed.smi:2753|AV-procd|sdf|10612|dock4
  -GOLD-   2272015 63D 1   1.00000     0.00000
 Structure written by MMmdl.
 28 29  0  0  0  0  0  0  0  0  2 V2000
  150.9547  144.9754  159.2406 F   0  0  0  0  0  0  0  0  0  0  0  0
  151.8675  144.0834  158.8574 C   0  0  0  0  0  0  0  0  0  0  0  0
  152.5951  144.6426  157.8915 F   0  0  0  0  0  0  0  0  0  0  0  0
  152.6748  143.8630  159.8942 F   0  0  0  0  0  0  0  0  0  0  0  0
  151.2326  142.8157  158.3887 C   0  0  0  0  0  0  0  0  0  0  0  0
  151.3669  141.5140  158.8172 C   0  0  0  0  0  0  0  0  0  0  0  0
  150.5497  140.6782  158.0539 N   0  0  0  0  0  0  0  0  0  0  0  0
  149.9463  141.4888  157.1886 C   0  0  0  0  0  0  0  0  0  0  0  0
  148.9601  141.0650  156.1443 C   0  0  1  0  0  0  0  0  0  0  0  0
  147.6033  141.7764  156.3088 C   0  0  0  0  0  0  0  0  0  0  0  0
  146.6252  141.3348  155.2091 C   0  0  0  0  0  0  0  0  0  0  0  0
  147.2371  141.5425  153.8139 C   0  0  0  0  0  0  0  0  0  0  0  0
  148.5296  140.8327  153.7001 N   0  3  0  0  0  0  0  0  0  0  0  0
  149.5149  141.2602  154.7179 C   0  0  0  0  0  0  0  0  0  0  0  0
  150.3207  142.7639  157.3480 N   0  0  0  0  0  0  0  0  0  0  0  0
  149.9987  143.5526  156.8053 H   0  0  0  0  0  0  0  0  0  0  0  0
  151.9825  141.1166  159.6109 H   0  0  0  0  0  0  0  0  0  0  0  0
  148.7859  139.9962  156.2827 H   0  0  0  0  0  0  0  0  0  0  0  0
  147.1805  141.5627  157.2912 H   0  0  0  0  0  0  0  0  0  0  0  0
  147.7408  142.8575  156.2576 H   0  0  0  0  0  0  0  0  0  0  0  0
  146.3697  140.2832  155.3456 H   0  0  0  0  0  0  0  0  0  0  0  0
  145.6924  141.8929  155.2944 H   0  0  0  0  0  0  0  0  0  0  0  0
  146.5589  141.1745  153.0436 H   0  0  0  0  0  0  0  0  0  0  0  0
  147.3923  142.6049  153.6217 H   0  0  0  0  0  0  0  0  0  0  0  0
  148.3632  139.8422  153.8078 H   0  0  0  0  0  0  0  0  0  0  0  0
  149.7689  142.3070  154.5451 H   0  0  0  0  0  0  0  0  0  0  0  0
  150.4309  140.6840  154.5838 H   0  0  0  0  0  0  0  0  0  0  0  0
  148.9150  141.0001  152.7814 H   0  0  0  0  0  0  0  0  0  0  0  0
  1  2  1  0  0  0  0
  2  3  1  0  0  0  0
  2  4  1  0  0  0  0
  2  5  1  0  0  0  0
  5  6  2  0  0  0  0
  5 15  1  0  0  0  0
  6 17  1  0  0  0  0
  6  7  1  0  0  0  0
  7  8  2  0  0  0  0
  8 15  1  0  0  0  0
  8  9  1  0  0  0  0
  9 14  1  0  0  0  0
  9 10  1  0  0  0  0
  9 18  1  0  0  0  0
 10 11  1  0  0  0  0
 10 19  1  0  0  0  0
 10 20  1  0  0  0  0
 11 12  1  0  0  0  0
 11 21  1  0  0  0  0
 11 22  1  0  0  0  0
 12 13  1  0  0  0  0
 12 23  1  0  0  0  0
 12 24  1  0  0  0  0
 13 14  1  0  0  0  0
 13 25  1  0  0  0  0
 13 28  1  0  0  0  0
 14 26  1  0  0  0  0
 14 27  1  0  0  0  0
 15 16  1  0  0  0  0
M  CHG  1  13   1
M  END
> <s_m_source_file>
AV-unprocessed.smi

> <i_m_source_file_index>
2753

> <i_lp_mmshare_version>
43012

> <i_f3d_flags>
0

> <s_epik_input>
RkMoRikoRiljMVtjSF1bbkhdYyhuMSlbQ0BASF0yW0NIMl1bQ0gyXVtDSDJdW05IXVtDSDJdMg==

> <s_epik_cmdline>
J2VwaWtfcHl0aG9uJywgJy1waCcsICc3LjAnLCAnLXRuJywgJzgnLCAnLW1hJywgJzIwMCcsICctbWV0YWxfYmluZGluZycsICctaW1hZScsICc8aW5maWxlLm1hZT4nLCAnLW9tYWUnLCAnPG91dGZpbGUubWFlPic=

> <r_lp_tautomer_probability>
0.5

> <r_epik_Ionization_Penalty>
0.0187699

> <r_epik_Ionization_Penalty_Charging>
0.00116734

> <r_epik_Ionization_Penalty_Neutral>
0.0176026

> <r_epik_State_Penalty>
1.08926

> <r_epik_Charging_Adjusted_Penalty>
1.09042

> <i_epik_Tot_Q>
1

> <i_epik_Tot_abs_Q>
1

> <r_epik_Metal_State_Penalty>
1.1514

> <b_epik_Metal_Only>
0

> <s_lp_Force_Field>
OPLS_2005

> <r_lp_Energy>
13.0643

> <b_lp_Chiralities_Consistent>
1

> <s_lp_Variant>
AV-unprocessed.smi:2753-4

> <Gold.Version>
5.8.1

> <Gold.Id.Protein>
6NUR|6NUR_protein|mol2

> <Gold.PLP.Fitness>
39.3360

> <Gold.PLP.PLP>
-34.1150

> <Gold.PLP.part.hbond>
-2.0000

> <Gold.PLP.part.metal>
0.0000

> <Gold.PLP.part.buried>
-5.0970

> <Gold.PLP.part.nonpolar>
-27.5029

> <Gold.PLP.part.repulsive>
0.1910

> <Gold.PLP.ligand.clash>
0.0000

> <Gold.PLP.ligand.torsion>
0.0555

> <Gold.PLP.Chemscore.Hbond>
1.7680

> <Gold.PLP.Chemscore.CHOScore>
0.0000

> <Gold.PLP.Chemscore.Metal>
0.0000

> <Gold.Chemscore.Hbonds>
donor molecule, donor type, donor heavy atom, donor atom, acceptor molecule, acceptor atom, score
      L1  H    13    28       P1  7957  0.86
      L1  H    15    16       P1  8028  1.00

> <Gold.PLP.Chemscore.Internal.Correction>
0.0281

> <Gold.Rescore>
     Score         DG    S(hbond)    S(metal)    S(lipo)     H(rot)  DE(clash)    DE(int)     intcor
     15.69     -15.86       1.94        0.00      55.23       1.00       0.08       0.09       ----

> <Gold.Chemscore.Fitness>
15.6897

> <Gold.Chemscore.DG>
-15.8631

> <Gold.Chemscore.ZeroCoef>
-5.4800

> <Gold.Chemscore.Hbond>
1.9407

> <Gold.Chemscore.Metal>
0.0000

> <Gold.Chemscore.Lipo>
55.2252

> <Gold.Chemscore.Internal_Hbond>
0.0000

> <Gold.Chemscore.DEClash>
0.0840

> <Gold.Chemscore.DEInternal>
0.0894

> <Gold.Chemscore.Rot>
1.0000

> <Gold.Chemscore.Internal.Correction>
   9.000000E+99

> <Gold.Chemscore.Hbonds>
donor molecule, donor type, donor heavy atom, donor atom, acceptor molecule, acceptor atom, score
      L1  H    13    28       P1  7957  0.82
      L1  H    15    16       P1  8028  0.98

> <Gold.Chemscore.Hbond.Weighted>
-6.4818

> <Gold.Chemscore.Metal.Weighted>
-0.0000

> <Gold.Chemscore.Lipo.Weighted>
-6.4614

> <Gold.Chemscore.Internal_Hbond.Weighted>
0.0000

> <Gold.Chemscore.DEClash.Weighted>
0.0840

> <Gold.Chemscore.DEInternal.Weighted>
0.0894

> <Gold.Chemscore.Rot.Weighted>
2.5600

> <Gold.Chemscore.Internal.Correction.Weighted>
   9.000000E+99

> <Gold.Protein.RotatedTorsions>
[ 6907 6896 6895 6894 ] final   95.54 input  -60.11 | X-H torsion
[ 7974 7965 7964 7962 ] final   42.33 input  175.53 | X-H torsion
[ 8008 7997 7996 7995 ] final   22.93 input   59.86 | X-H torsion
[ 10167 10162 10161 10158 ] final -144.62 input  -65.29 | X-H torsion
[ 10718 10713 10712 10709 ] final   98.58 input   66.30 | X-H torsion
[ 10763 10752 10751 10750 ] final -108.10 input  -60.55 | X-H torsion
[ 11005 11000 10999 10996 ] final   48.03 input  -57.11 | X-H torsion

> <Gold.Protein.ActiveResidues>
 VAL166  LYS551  ARG553  GLY616  TRP617  ASP618  TYR619  PRO620  LYS621  CYS622 
 ASP623  PHE694  ASN695  SER759  ASP760  ASP761  ALA762  ILE779  LEU786  VAL792 
 PHE793  MET794  SER795  GLU796  ALA797  LYS798  CYS799  TRP800  GLU811  SER814 

> <Gold.Protein.RotatedAtoms>
  152.5443  134.1025  159.8323 H   0  0  0  0  0  0  0  0  0  0  0  0  # atno 6907 bound_to 6896
  151.1101  133.5172  159.2613 H   0  0  0  0  0  0  0  0  0  0  0  0  # atno 6908 bound_to 6896
  151.1894  135.0405  159.8880 H   0  0  0  0  0  0  0  0  0  0  0  0  # atno 6909 bound_to 6896
  146.0749  139.5313  142.9574 H   0  0  0  0  0  0  0  0  0  0  0  0  # atno 7974 bound_to 7965
  154.9733  140.3093  155.4978 H   0  0  0  0  0  0  0  0  0  0  0  0  # atno 8008 bound_to 7997
  156.2963  140.2280  156.4766 H   0  0  0  0  0  0  0  0  0  0  0  0  # atno 8009 bound_to 7997
  154.7857  140.0443  157.1150 H   0  0  0  0  0  0  0  0  0  0  0  0  # atno 8010 bound_to 7997
  139.7882  143.8003  152.2647 H   0  0  0  0  0  0  0  0  0  0  0  0  # atno 10167 bound_to 10162
  157.6893  131.0644  150.4817 H   0  0  0  0  0  0  0  0  0  0  0  0  # atno 10718 bound_to 10713
  154.8115  135.4650  154.0530 H   0  0  0  0  0  0  0  0  0  0  0  0  # atno 10763 bound_to 10752
  153.1957  135.6861  153.8302 H   0  0  0  0  0  0  0  0  0  0  0  0  # atno 10764 bound_to 10752
  153.7805  135.3257  155.3342 H   0  0  0  0  0  0  0  0  0  0  0  0  # atno 10765 bound_to 10752
  140.1227  134.4809  155.8585 H   0  0  0  0  0  0  0  0  0  0  0  0  # atno 11005 bound_to 11000
  145.6324  141.0301  143.1856 LP  0  0  0  0  0  0  0  0  0  0  0  0  # atno 17320 bound_to 7965
  144.7255  139.7889  143.7366 LP  0  0  0  0  0  0  0  0  0  0  0  0  # atno 17321 bound_to 7965
  139.8087  144.7345  150.9727 LP  0  0  0  0  0  0  0  0  0  0  0  0  # atno 17342 bound_to 10162
  140.7820  143.4272  151.0749 LP  0  0  0  0  0  0  0  0  0  0  0  0  # atno 17343 bound_to 10162
  156.5149  130.4148  149.6281 LP  0  0  0  0  0  0  0  0  0  0  0  0  # atno 17370 bound_to 10713
  156.3207  130.7279  151.2190 LP  0  0  0  0  0  0  0  0  0  0  0  0  # atno 17371 bound_to 10713
  141.2155  133.6766  156.6918 LP  0  0  0  0  0  0  0  0  0  0  0  0  # atno 17394 bound_to 11000
  140.2945  134.8214  157.4045 LP  0  0  0  0  0  0  0  0  0  0  0  0  # atno 17395 bound_to 11000

$$$$
