AV-unprocessed.smi:2448|AV-procd|sdf|9657|dock9
  -GOLD-   2272013293D 1   1.00000     0.00000
 Structure written by MMmdl.
 38 39  0  0  0  0  0  0  0  0  2 V2000
  149.4636  140.9977  153.3261 O   0  0  0  0  0  0  0  0  0  0  0  0
  148.2892  141.0033  154.1198 C   0  0  1  0  0  0  0  0  0  0  0  0
  148.6260  141.6677  155.4701 C   0  0  0  0  0  0  0  0  0  0  0  0
  150.0283  142.1402  155.5091 N   0  3  0  0  0  0  0  0  0  0  0  0
  150.7668  141.8756  156.7660 C   0  0  1  0  0  0  0  0  0  0  0  0
  150.0453  142.5341  157.9679 C   0  0  0  0  0  0  0  0  0  0  0  0
  150.9785  143.1402  159.0004 C   0  0  0  0  0  0  0  0  0  0  0  0
  151.9036  142.3349  159.6968 C   0  0  0  0  0  0  0  0  0  0  0  0
  152.7515  142.9483  160.6407 C   0  0  0  0  0  0  0  0  0  0  0  0
  152.7223  144.2703  160.9143 N   0  0  0  0  0  0  0  0  0  0  0  0
  151.8312  145.0346  160.2473 C   0  0  0  0  0  0  0  0  0  0  0  0
  150.9393  144.5213  159.2840 C   0  0  0  0  0  0  0  0  0  0  0  0
  150.9654  140.3498  156.9199 C   0  0  0  0  0  0  0  0  0  0  0  0
  152.0409  140.1179  157.6736 F   0  0  0  0  0  0  0  0  0  0  0  0
  149.9223  139.7762  157.5180 F   0  0  0  0  0  0  0  0  0  0  0  0
  151.1514  139.7835  155.7274 F   0  0  0  0  0  0  0  0  0  0  0  0
  147.2031  141.7721  153.3491 C   0  0  0  0  0  0  0  0  0  0  0  0
  146.7208  140.8789  152.2016 C   0  0  0  0  0  0  0  0  0  0  0  0
  146.7917  139.1650  152.7790 S   0  0  0  0  0  0  0  0  0  0  0  0
  147.7556  139.5658  154.2608 C   0  0  0  0  0  0  0  0  0  0  0  0
  149.3882  140.3158  152.6756 H   0  0  0  0  0  0  0  0  0  0  0  0
  147.9546  142.5094  155.6463 H   0  0  0  0  0  0  0  0  0  0  0  0
  148.4596  140.9555  156.2784 H   0  0  0  0  0  0  0  0  0  0  0  0
  150.5400  141.7395  154.7359 H   0  0  0  0  0  0  0  0  0  0  0  0
  151.7579  142.3205  156.6643 H   0  0  0  0  0  0  0  0  0  0  0  0
  149.3877  143.3333  157.6264 H   0  0  0  0  0  0  0  0  0  0  0  0
  149.3993  141.8033  158.4562 H   0  0  0  0  0  0  0  0  0  0  0  0
  151.9695  141.2724  159.5132 H   0  0  0  0  0  0  0  0  0  0  0  0
  153.4729  142.3609  161.1894 H   0  0  0  0  0  0  0  0  0  0  0  0
  151.8296  146.0874  160.4877 H   0  0  0  0  0  0  0  0  0  0  0  0
  150.2462  145.1764  158.7770 H   0  0  0  0  0  0  0  0  0  0  0  0
  146.3605  141.9708  154.0131 H   0  0  0  0  0  0  0  0  0  0  0  0
  147.5536  142.7397  152.9872 H   0  0  0  0  0  0  0  0  0  0  0  0
  145.7152  141.1400  151.8713 H   0  0  0  0  0  0  0  0  0  0  0  0
  147.3870  140.9767  151.3437 H   0  0  0  0  0  0  0  0  0  0  0  0
  148.5487  138.8340  154.4196 H   0  0  0  0  0  0  0  0  0  0  0  0
  147.0776  139.5002  155.1126 H   0  0  0  0  0  0  0  0  0  0  0  0
  150.0018  143.1425  155.3830 H   0  0  0  0  0  0  0  0  0  0  0  0
  1  2  1  0  0  0  0
  1 21  1  0  0  0  0
  2 20  1  0  0  0  0
  2  3  1  0  0  0  0
  2 17  1  0  0  0  0
  3  4  1  0  0  0  0
  3 22  1  0  0  0  0
  3 23  1  0  0  0  0
  4  5  1  0  0  0  0
  4 24  1  0  0  0  0
  4 38  1  0  0  0  0
  5  6  1  0  0  0  0
  5 13  1  0  0  0  0
  5 25  1  0  0  0  0
  6  7  1  0  0  0  0
  6 26  1  0  0  0  0
  6 27  1  0  0  0  0
  7 12  1  0  0  0  0
  7  8  2  0  0  0  0
  8  9  1  0  0  0  0
  8 28  1  0  0  0  0
  9 10  2  0  0  0  0
  9 29  1  0  0  0  0
 10 11  1  0  0  0  0
 11 12  2  0  0  0  0
 11 30  1  0  0  0  0
 12 31  1  0  0  0  0
 13 14  1  0  0  0  0
 13 15  1  0  0  0  0
 13 16  1  0  0  0  0
 17 18  1  0  0  0  0
 17 32  1  0  0  0  0
 17 33  1  0  0  0  0
 18 19  1  0  0  0  0
 18 34  1  0  0  0  0
 18 35  1  0  0  0  0
 19 20  1  0  0  0  0
 20 36  1  0  0  0  0
 20 37  1  0  0  0  0
M  CHG  1   4   1
M  END
> <s_m_source_file>
AV-unprocessed.smi

> <i_m_source_file_index>
2448

> <i_lp_mmshare_version>
43012

> <i_f3d_flags>
0

> <s_epik_input>
W0NIMl0xU1tDSDJdW0NIMl1bQ0BAXTEoW09IXSlbQ0gyXVtOSF1bQ0BASF0oQyhGKShGKUYpW0NIMl1jMltjSF1bY0hdbltjSF1bY0hdMg==

> <s_epik_cmdline>
J2VwaWtfcHl0aG9uJywgJy1waCcsICc3LjAnLCAnLXRuJywgJzgnLCAnLW1hJywgJzIwMCcsICctbWV0YWxfYmluZGluZycsICctaW1hZScsICc8aW5maWxlLm1hZT4nLCAnLW9tYWUnLCAnPG91dGZpbGUubWFlPic=

> <r_epik_Ionization_Penalty>
1.19945

> <r_epik_Ionization_Penalty_Charging>
1.19892

> <r_epik_Ionization_Penalty_Neutral>
0.000532129

> <r_epik_State_Penalty>
0.752927

> <r_epik_Charging_Adjusted_Penalty>
1.95185

> <i_epik_Tot_Q>
1

> <i_epik_Tot_abs_Q>
1

> <r_epik_Metal_State_Penalty>
0.804507

> <b_epik_Metal_Only>
0

> <s_lp_Force_Field>
OPLS_2005

> <r_lp_Energy>
21.3844

> <b_lp_Chiralities_Consistent>
1

> <s_lp_Variant>
AV-unprocessed.smi:2448-7

> <Gold.Version>
5.8.1

> <Gold.Id.Protein>
6NUR|6NUR_protein|mol2

> <Gold.PLP.Fitness>
46.2885

> <Gold.PLP.PLP>
-39.2440

> <Gold.PLP.part.hbond>
-3.4316

> <Gold.PLP.part.metal>
0.0000

> <Gold.PLP.part.buried>
-0.2618

> <Gold.PLP.part.nonpolar>
-35.1969

> <Gold.PLP.part.repulsive>
0.2870

> <Gold.PLP.ligand.clash>
0.0000

> <Gold.PLP.ligand.torsion>
2.7209

> <Gold.PLP.Chemscore.Hbond>
3.9857

> <Gold.PLP.Chemscore.CHOScore>
0.0000

> <Gold.PLP.Chemscore.Metal>
0.0000

> <Gold.Chemscore.Hbonds>
donor molecule, donor type, donor heavy atom, donor atom, acceptor molecule, acceptor atom, score
      L1  H     1    21       P1  7957  0.83
      L1  H     4    38       P1  8028  1.76
      P1  H  7989  7998       L1     1  0.11
      P1  H  8011  8017       L1     1  1.00

> <Gold.PLP.Chemscore.Internal.Correction>
0.5294

> <Gold.Rescore>
     Score         DG    S(hbond)    S(metal)    S(lipo)     H(rot)  DE(clash)    DE(int)     intcor
     15.77     -19.41       2.21        0.00     108.07       2.39       0.73       2.91       ----

> <Gold.Chemscore.Fitness>
15.7674

> <Gold.Chemscore.DG>
-19.4088

> <Gold.Chemscore.ZeroCoef>
-5.4800

> <Gold.Chemscore.Hbond>
2.2138

> <Gold.Chemscore.Metal>
0.0000

> <Gold.Chemscore.Lipo>
108.0725

> <Gold.Chemscore.Internal_Hbond>
0.0000

> <Gold.Chemscore.DEClash>
0.7298

> <Gold.Chemscore.DEInternal>
2.9116

> <Gold.Chemscore.Rot>
2.3866

> <Gold.Chemscore.Internal.Correction>
   9.000000E+99

> <Gold.Chemscore.Hbonds>
donor molecule, donor type, donor heavy atom, donor atom, acceptor molecule, acceptor atom, score
      L1  H     1    21       P1  7957  0.78
      L1  H     4    38       P1  8028  0.86
      P1  H  7989  7998       L1     1  0.01
      P1  H  8011  8017       L1     1  0.33

> <Gold.Chemscore.Hbond.Weighted>
-7.3940

> <Gold.Chemscore.Metal.Weighted>
-0.0000

> <Gold.Chemscore.Lipo.Weighted>
-12.6445

> <Gold.Chemscore.Internal_Hbond.Weighted>
0.0000

> <Gold.Chemscore.DEClash.Weighted>
0.7298

> <Gold.Chemscore.DEInternal.Weighted>
2.9116

> <Gold.Chemscore.Rot.Weighted>
6.1096

> <Gold.Chemscore.Internal.Correction.Weighted>
   9.000000E+99

> <Gold.Protein.RotatedTorsions>
[ 6907 6896 6895 6894 ] final   65.38 input  -60.11 | X-H torsion
[ 7974 7965 7964 7962 ] final -176.63 input  175.53 | X-H torsion
[ 8008 7997 7996 7995 ] final  137.52 input   59.86 | X-H torsion
[ 10167 10162 10161 10158 ] final   -9.88 input  -65.29 | X-H torsion
[ 10718 10713 10712 10709 ] final  166.22 input   66.30 | X-H torsion
[ 10763 10752 10751 10750 ] final   64.85 input  -60.55 | X-H torsion
[ 11005 11000 10999 10996 ] final   30.91 input  -57.11 | X-H torsion

> <Gold.Protein.ActiveResidues>
 VAL166  LYS551  ARG553  GLY616  TRP617  ASP618  TYR619  PRO620  LYS621  CYS622 
 ASP623  PHE694  ASN695  SER759  ASP760  ASP761  ALA762  ILE779  LEU786  VAL792 
 PHE793  MET794  SER795  GLU796  ALA797  LYS798  CYS799  TRP800  GLU811  SER814 

> <Gold.Protein.RotatedAtoms>
  152.4403  134.5604  159.9892 H   0  0  0  0  0  0  0  0  0  0  0  0  # atno 6907 bound_to 6896
  151.5703  133.3385  159.2996 H   0  0  0  0  0  0  0  0  0  0  0  0  # atno 6908 bound_to 6896
  150.8308  134.7594  159.6916 H   0  0  0  0  0  0  0  0  0  0  0  0  # atno 6909 bound_to 6896
  144.7127  140.1141  143.6409 H   0  0  0  0  0  0  0  0  0  0  0  0  # atno 7974 bound_to 7965
  156.3002  140.2417  156.3923 H   0  0  0  0  0  0  0  0  0  0  0  0  # atno 8008 bound_to 7997
  154.8602  140.0420  157.1680 H   0  0  0  0  0  0  0  0  0  0  0  0  # atno 8009 bound_to 7997
  154.8904  140.2962  155.5377 H   0  0  0  0  0  0  0  0  0  0  0  0  # atno 8010 bound_to 7997
  140.7099  143.5809  150.8993 H   0  0  0  0  0  0  0  0  0  0  0  0  # atno 10167 bound_to 10162
  157.0690  131.0361  151.2618 H   0  0  0  0  0  0  0  0  0  0  0  0  # atno 10718 bound_to 10713
  153.0072  135.5378  154.6575 H   0  0  0  0  0  0  0  0  0  0  0  0  # atno 10763 bound_to 10752
  154.5792  135.2848  155.0752 H   0  0  0  0  0  0  0  0  0  0  0  0  # atno 10764 bound_to 10752
  154.1888  135.6504  153.5107 H   0  0  0  0  0  0  0  0  0  0  0  0  # atno 10765 bound_to 10752
  140.2895  134.2881  155.7779 H   0  0  0  0  0  0  0  0  0  0  0  0  # atno 11005 bound_to 11000
  145.9429  139.2681  143.1258 LP  0  0  0  0  0  0  0  0  0  0  0  0  # atno 17320 bound_to 7965
  145.9405  140.8983  143.0310 LP  0  0  0  0  0  0  0  0  0  0  0  0  # atno 17321 bound_to 7965
  139.9535  143.6245  152.3022 LP  0  0  0  0  0  0  0  0  0  0  0  0  # atno 17342 bound_to 10162
  139.6772  144.7658  151.1675 LP  0  0  0  0  0  0  0  0  0  0  0  0  # atno 17343 bound_to 10162
  157.4893  130.7812  149.7492 LP  0  0  0  0  0  0  0  0  0  0  0  0  # atno 17370 bound_to 10713
  155.9956  130.3911  150.2813 LP  0  0  0  0  0  0  0  0  0  0  0  0  # atno 17371 bound_to 10713
  141.2149  133.7576  156.9602 LP  0  0  0  0  0  0  0  0  0  0  0  0  # atno 17394 bound_to 11000
  140.1209  134.9417  157.2202 LP  0  0  0  0  0  0  0  0  0  0  0  0  # atno 17395 bound_to 11000

$$$$
