AV-unprocessed.smi:835|AV-procd|sdf|3886|dock4
  -GOLD-   22720 1343D 1   1.00000     0.00000
 Structure written by MMmdl.
 41 43  0  0  0  0  0  0  0  0  2 V2000
  148.7738  124.2527  151.4827 C   0  0  0  0  0  0  0  0  0  0  0  0
  148.2783  125.6416  151.7584 C   0  0  0  0  0  0  0  0  0  0  0  0
  148.3437  126.7822  150.9063 C   0  0  0  0  0  0  0  0  0  0  0  0
  147.7497  127.7562  151.6615 C   0  0  0  0  0  0  0  0  0  0  0  0
  147.5206  129.0587  151.3466 N   0  0  0  0  0  0  0  0  0  0  0  0
  146.3908  129.7704  151.5023 C   0  0  0  0  0  0  0  0  0  0  0  0
  145.3330  129.3408  151.9627 O   0  0  0  0  0  0  0  0  0  0  0  0
  146.5474  131.0321  151.0768 N   0  0  0  0  0  0  0  0  0  0  0  0
  145.4978  132.0453  151.0897 C   0  0  2  0  0  0  0  0  0  0  0  0
  144.2453  131.6703  150.3033 C   0  0  0  0  0  0  0  0  0  0  0  0
  143.5921  133.0329  150.0481 C   0  0  0  0  0  0  0  0  0  0  0  0
  144.6877  134.0343  150.0245 N   0  3  1  0  0  0  0  0  0  0  0  0
  144.4097  135.2335  150.8444 C   0  0  0  0  0  0  0  0  0  0  0  0
  145.6463  136.0302  151.1853 C   0  0  0  0  0  0  0  0  0  0  0  0
  144.9902  135.1615  152.2367 C   0  0  0  0  0  0  0  0  0  0  0  0
  145.9373  133.3357  150.3993 C   0  0  0  0  0  0  0  0  0  0  0  0
  147.3618  127.2122  152.8655 N   0  0  0  0  0  0  0  0  0  0  0  0
  146.6921  127.8404  153.9875 C   0  0  0  0  0  0  0  0  0  0  0  0
  147.6934  125.9041  152.9218 N   0  0  0  0  0  0  0  0  0  0  0  0
  149.2599  124.1941  150.5087 H   0  0  0  0  0  0  0  0  0  0  0  0
  147.9533  123.5351  151.4872 H   0  0  0  0  0  0  0  0  0  0  0  0
  149.4981  123.9373  152.2342 H   0  0  0  0  0  0  0  0  0  0  0  0
  148.7566  126.8507  149.9113 H   0  0  0  0  0  0  0  0  0  0  0  0
  148.2982  129.5400  150.9194 H   0  0  0  0  0  0  0  0  0  0  0  0
  147.4492  131.3064  150.7149 H   0  0  0  0  0  0  0  0  0  0  0  0
  145.2226  132.2757  152.1213 H   0  0  0  0  0  0  0  0  0  0  0  0
  144.5170  131.2039  149.3548 H   0  0  0  0  0  0  0  0  0  0  0  0
  143.5922  130.9836  150.8430 H   0  0  0  0  0  0  0  0  0  0  0  0
  143.0273  133.0478  149.1157 H   0  0  0  0  0  0  0  0  0  0  0  0
  142.8949  133.2567  150.8573 H   0  0  0  0  0  0  0  0  0  0  0  0
  143.4595  135.7345  150.6662 H   0  0  0  0  0  0  0  0  0  0  0  0
  146.6010  135.6972  150.7823 H   0  0  0  0  0  0  0  0  0  0  0  0
  145.5373  137.1078  151.2910 H   0  0  0  0  0  0  0  0  0  0  0  0
  144.4489  135.6677  153.0335 H   0  0  0  0  0  0  0  0  0  0  0  0
  145.5080  134.2505  152.5322 H   0  0  0  0  0  0  0  0  0  0  0  0
  146.5909  133.9430  151.0278 H   0  0  0  0  0  0  0  0  0  0  0  0
  146.4817  133.1101  149.4809 H   0  0  0  0  0  0  0  0  0  0  0  0
  147.2450  128.7284  154.2949 H   0  0  0  0  0  0  0  0  0  0  0  0
  146.6322  127.1532  154.8328 H   0  0  0  0  0  0  0  0  0  0  0  0
  145.6830  128.1314  153.6946 H   0  0  0  0  0  0  0  0  0  0  0  0
  144.7997  134.3468  149.0706 H   0  0  0  0  0  0  0  0  0  0  0  0
  1  2  1  0  0  0  0
  1 20  1  0  0  0  0
  1 21  1  0  0  0  0
  1 22  1  0  0  0  0
  2 19  2  0  0  0  0
  2  3  1  0  0  0  0
  3  4  2  0  0  0  0
  3 23  1  0  0  0  0
  4  5  1  0  0  0  0
  4 17  1  0  0  0  0
  5  6  1  0  0  0  0
  5 24  1  0  0  0  0
  6  7  2  0  0  0  0
  6  8  1  0  0  0  0
  8  9  1  0  0  0  0
  8 25  1  0  0  0  0
  9 16  1  0  0  0  0
  9 10  1  0  0  0  0
  9 26  1  0  0  0  0
 10 11  1  0  0  0  0
 10 27  1  0  0  0  0
 10 28  1  0  0  0  0
 11 12  1  0  0  0  0
 11 29  1  0  0  0  0
 11 30  1  0  0  0  0
 12 13  1  0  0  0  0
 12 16  1  0  0  0  0
 12 41  1  0  0  0  0
 13 15  1  0  0  0  0
 13 14  1  0  0  0  0
 13 31  1  0  0  0  0
 14 15  1  0  0  0  0
 14 32  1  0  0  0  0
 14 33  1  0  0  0  0
 15 34  1  0  0  0  0
 15 35  1  0  0  0  0
 16 36  1  0  0  0  0
 16 37  1  0  0  0  0
 17 18  1  0  0  0  0
 17 19  1  0  0  0  0
 18 38  1  0  0  0  0
 18 39  1  0  0  0  0
 18 40  1  0  0  0  0
M  CHG  1  12   1
M  END
> <s_m_source_file>
AV-unprocessed.smi

> <i_m_source_file_index>
835

> <i_lp_mmshare_version>
43012

> <i_f3d_flags>
0

> <s_epik_input>
W0NIM11jMVtjSF1jKG4objEpW0NIM10pW05IXUMoPU8pW05IXVtDQEBIXTJbQ0gyXVtDSDJdTihbQ0gyXTIpW0NIXTNbQ0gyXVtDSDJdMw==

> <s_epik_cmdline>
J2VwaWtfcHl0aG9uJywgJy1waCcsICc3LjAnLCAnLXRuJywgJzgnLCAnLW1hJywgJzIwMCcsICctbWV0YWxfYmluZGluZycsICctaW1hZScsICc8aW5maWxlLm1hZT4nLCAnLW9tYWUnLCAnPG91dGZpbGUubWFlPic=

> <r_lp_tautomer_probability>
1

> <r_epik_Ionization_Penalty>
0.000700689

> <r_epik_Ionization_Penalty_Charging>
0.000627528

> <r_epik_Ionization_Penalty_Neutral>
7.31611e-05

> <r_epik_State_Penalty>
0.00039643

> <r_epik_Charging_Adjusted_Penalty>
0.00102396

> <i_epik_Tot_Q>
1

> <i_epik_Tot_abs_Q>
1

> <r_epik_Metal_State_Penalty>
-0

> <b_epik_Metal_Only>
0

> <s_lp_Force_Field>
OPLS_2005

> <r_lp_Energy>
38.9836

> <b_lp_Chiralities_Consistent>
1

> <s_lp_Variant>
AV-unprocessed.smi:835-1

> <Gold.Version>
5.8.1

> <Gold.Id.Protein>
6NUR|6NUR_protein|mol2

> <Gold.PLP.Fitness>
44.6926

> <Gold.PLP.PLP>
-36.9608

> <Gold.PLP.part.hbond>
-3.9218

> <Gold.PLP.part.metal>
0.0000

> <Gold.PLP.part.buried>
-2.0915

> <Gold.PLP.part.nonpolar>
-31.8238

> <Gold.PLP.part.repulsive>
0.3513

> <Gold.PLP.ligand.clash>
0.0000

> <Gold.PLP.ligand.torsion>
1.0515

> <Gold.PLP.Chemscore.Hbond>
2.8560

> <Gold.PLP.Chemscore.CHOScore>
0.0000

> <Gold.PLP.Chemscore.Metal>
0.0000

> <Gold.Chemscore.Hbonds>
donor molecule, donor type, donor heavy atom, donor atom, acceptor molecule, acceptor atom, score
      L1  H     5    24       P1 10747  1.00
      L1  H     8    25       P1 10747  0.96
      L1  H    12    41       P1  7921  0.91

> <Gold.PLP.Chemscore.Internal.Correction>
1.2668

> <Gold.Rescore>
     Score         DG    S(hbond)    S(metal)    S(lipo)     H(rot)  DE(clash)    DE(int)     intcor
     17.17     -18.61       2.27        0.00      74.12       1.22       0.26       1.18       ----

> <Gold.Chemscore.Fitness>
17.1748

> <Gold.Chemscore.DG>
-18.6137

> <Gold.Chemscore.ZeroCoef>
-5.4800

> <Gold.Chemscore.Hbond>
2.2705

> <Gold.Chemscore.Metal>
0.0000

> <Gold.Chemscore.Lipo>
74.1227

> <Gold.Chemscore.Internal_Hbond>
0.0000

> <Gold.Chemscore.DEClash>
0.2637

> <Gold.Chemscore.DEInternal>
1.1752

> <Gold.Chemscore.Rot>
1.2196

> <Gold.Chemscore.Internal.Correction>
   9.000000E+99

> <Gold.Chemscore.Hbonds>
donor molecule, donor type, donor heavy atom, donor atom, acceptor molecule, acceptor atom, score
      L1  H     5    24       P1 10747  0.33
      L1  H     8    25       P1 10747  0.92
      L1  H    12    41       P1  7921  0.84

> <Gold.Chemscore.Hbond.Weighted>
-7.5836

> <Gold.Chemscore.Metal.Weighted>
-0.0000

> <Gold.Chemscore.Lipo.Weighted>
-8.6724

> <Gold.Chemscore.Internal_Hbond.Weighted>
0.0000

> <Gold.Chemscore.DEClash.Weighted>
0.2637

> <Gold.Chemscore.DEInternal.Weighted>
1.1752

> <Gold.Chemscore.Rot.Weighted>
3.1223

> <Gold.Chemscore.Internal.Correction.Weighted>
   9.000000E+99

> <Gold.Protein.RotatedTorsions>
[ 6907 6896 6895 6894 ] final   61.97 input  -60.11 | X-H torsion
[ 7974 7965 7964 7962 ] final -120.25 input  175.53 | X-H torsion
[ 8008 7997 7996 7995 ] final   34.67 input   59.86 | X-H torsion
[ 10167 10162 10161 10158 ] final   38.42 input  -65.29 | X-H torsion
[ 10718 10713 10712 10709 ] final  -62.83 input   66.30 | X-H torsion
[ 10763 10752 10751 10750 ] final  -25.39 input  -60.55 | X-H torsion
[ 11005 11000 10999 10996 ] final  124.64 input  -57.11 | X-H torsion

> <Gold.Protein.ActiveResidues>
 VAL166  LYS551  ARG553  GLY616  TRP617  ASP618  TYR619  PRO620  LYS621  CYS622 
 ASP623  PHE694  ASN695  SER759  ASP760  ASP761  ALA762  ILE779  LEU786  VAL792 
 PHE793  MET794  SER795  GLU796  ALA797  LYS798  CYS799  TRP800  GLU811  SER814 

> <Gold.Protein.RotatedAtoms>
  152.4133  134.6085  160.0019 H   0  0  0  0  0  0  0  0  0  0  0  0  # atno 6907 bound_to 6896
  151.6256  133.3330  159.3105 H   0  0  0  0  0  0  0  0  0  0  0  0  # atno 6908 bound_to 6896
  150.8023  134.7165  159.6678 H   0  0  0  0  0  0  0  0  0  0  0  0  # atno 6909 bound_to 6896
  145.0534  140.8236  143.4195 H   0  0  0  0  0  0  0  0  0  0  0  0  # atno 7974 bound_to 7965
  155.1587  140.3281  155.4416 H   0  0  0  0  0  0  0  0  0  0  0  0  # atno 8008 bound_to 7997
  156.2550  140.1964  156.6646 H   0  0  0  0  0  0  0  0  0  0  0  0  # atno 8009 bound_to 7997
  154.6421  140.0569  156.9843 H   0  0  0  0  0  0  0  0  0  0  0  0  # atno 8010 bound_to 7997
  140.3938  144.1816  150.6131 H   0  0  0  0  0  0  0  0  0  0  0  0  # atno 10167 bound_to 10162
  156.0830  130.4213  150.1190 H   0  0  0  0  0  0  0  0  0  0  0  0  # atno 10718 bound_to 10713
  153.6991  135.6957  153.5068 H   0  0  0  0  0  0  0  0  0  0  0  0  # atno 10763 bound_to 10752
  153.2355  135.4323  155.0641 H   0  0  0  0  0  0  0  0  0  0  0  0  # atno 10764 bound_to 10752
  154.8349  135.3495  154.6531 H   0  0  0  0  0  0  0  0  0  0  0  0  # atno 10765 bound_to 10752
  139.9368  134.9639  156.8440 H   0  0  0  0  0  0  0  0  0  0  0  0  # atno 11005 bound_to 11000
  145.1498  139.2521  143.5447 LP  0  0  0  0  0  0  0  0  0  0  0  0  # atno 17320 bound_to 7965
  146.3519  140.1198  142.8600 LP  0  0  0  0  0  0  0  0  0  0  0  0  # atno 17321 bound_to 7965
  140.4811  143.2379  151.8953 LP  0  0  0  0  0  0  0  0  0  0  0  0  # atno 17342 bound_to 10162
  139.4787  144.5268  151.8724 LP  0  0  0  0  0  0  0  0  0  0  0  0  # atno 17343 bound_to 10162
  156.9217  130.9685  151.3547 LP  0  0  0  0  0  0  0  0  0  0  0  0  # atno 17370 bound_to 10713
  157.5954  130.8474  149.8721 LP  0  0  0  0  0  0  0  0  0  0  0  0  # atno 17371 bound_to 10713
  140.6054  134.0132  155.7554 LP  0  0  0  0  0  0  0  0  0  0  0  0  # atno 17394 bound_to 11000
  141.0986  133.9805  157.3118 LP  0  0  0  0  0  0  0  0  0  0  0  0  # atno 17395 bound_to 11000

$$$$
