AV-unprocessed.smi:2780|AV-procd|sdf|10713|dock6
  -GOLD-   2272015153D 1   1.00000     0.00000
 Structure written by MMmdl.
 47 49  0  0  0  0  0  0  0  0  2 V2000
  151.4563  145.4587  159.0176 C   0  0  0  0  0  0  0  0  0  0  0  0
  151.7129  143.9606  159.0245 C   0  0  0  0  0  0  0  0  0  0  0  0
  152.6216  143.4208  159.8610 C   0  0  0  0  0  0  0  0  0  0  0  0
  152.9936  141.9491  159.9042 C   0  0  0  0  0  0  0  0  0  0  0  0
  152.0953  141.0720  159.0165 C   0  0  0  0  0  0  0  0  0  0  0  0
  151.7155  141.7947  157.7123 C   0  0  1  0  0  0  0  0  0  0  0  0
  151.0198  140.8556  156.7116 C   0  0  0  0  0  0  0  0  0  0  0  0
  150.9387  143.1085  158.0096 C   0  0  1  0  0  0  0  0  0  0  0  0
  149.4720  142.8571  158.4485 C   0  0  0  0  0  0  0  0  0  0  0  0
  148.5834  142.5144  157.3209 N   0  3  0  0  0  0  0  0  0  0  0  0
  147.1776  142.2923  157.7087 C   0  0  0  0  0  0  0  0  0  0  0  0
  146.6991  143.3716  158.6892 C   0  0  0  0  0  0  0  0  0  0  0  0
  145.2538  143.3644  158.8257 N   0  0  0  0  0  0  0  0  0  0  0  0
  144.3251  143.4217  157.8587 C   0  0  0  0  0  0  0  0  0  0  0  0
  143.0637  143.3840  158.2848 N   0  0  0  0  0  0  0  0  0  0  0  0
  143.1641  143.2864  159.6583 N   0  0  0  0  0  0  0  0  0  0  0  0
  144.4753  143.2912  159.9251 C   0  0  0  0  0  0  0  0  0  0  0  0
  145.0398  143.1679  161.3047 C   0  0  0  0  0  0  0  0  0  0  0  0
  144.5225  144.0185  162.4439 C   0  0  0  0  0  0  0  0  0  0  0  0
  145.9041  144.2606  161.8946 C   0  0  0  0  0  0  0  0  0  0  0  0
  151.4885  145.8478  157.9998 H   0  0  0  0  0  0  0  0  0  0  0  0
  152.2141  145.9876  159.5967 H   0  0  0  0  0  0  0  0  0  0  0  0
  150.4897  145.7022  159.4552 H   0  0  0  0  0  0  0  0  0  0  0  0
  153.1661  144.0592  160.5419 H   0  0  0  0  0  0  0  0  0  0  0  0
  154.0289  141.8658  159.5719 H   0  0  0  0  0  0  0  0  0  0  0  0
  152.9647  141.5953  160.9351 H   0  0  0  0  0  0  0  0  0  0  0  0
  152.6091  140.1347  158.7993 H   0  0  0  0  0  0  0  0  0  0  0  0
  151.1926  140.7995  159.5637 H   0  0  0  0  0  0  0  0  0  0  0  0
  152.6515  142.0889  157.2332 H   0  0  0  0  0  0  0  0  0  0  0  0
  150.1400  140.3777  157.1420 H   0  0  0  0  0  0  0  0  0  0  0  0
  151.6946  140.0586  156.3982 H   0  0  0  0  0  0  0  0  0  0  0  0
  150.7112  141.3932  155.8146 H   0  0  0  0  0  0  0  0  0  0  0  0
  150.9135  143.6698  157.0743 H   0  0  0  0  0  0  0  0  0  0  0  0
  149.4195  142.0278  159.1526 H   0  0  0  0  0  0  0  0  0  0  0  0
  149.0734  143.7341  158.9594 H   0  0  0  0  0  0  0  0  0  0  0  0
  148.6176  143.2678  156.6488 H   0  0  0  0  0  0  0  0  0  0  0  0
  146.5563  142.2967  156.8126 H   0  0  0  0  0  0  0  0  0  0  0  0
  147.0812  141.3046  158.1620 H   0  0  0  0  0  0  0  0  0  0  0  0
  147.1366  143.2108  159.6754 H   0  0  0  0  0  0  0  0  0  0  0  0
  147.0225  144.3597  158.3605 H   0  0  0  0  0  0  0  0  0  0  0  0
  144.5786  143.4904  156.8109 H   0  0  0  0  0  0  0  0  0  0  0  0
  145.3049  142.1348  161.5207 H   0  0  0  0  0  0  0  0  0  0  0  0
  143.7578  144.7596  162.2198 H   0  0  0  0  0  0  0  0  0  0  0  0
  144.4452  143.5509  163.4234 H   0  0  0  0  0  0  0  0  0  0  0  0
  146.7503  143.9553  162.5064 H   0  0  0  0  0  0  0  0  0  0  0  0
  146.0525  145.1670  161.3117 H   0  0  0  0  0  0  0  0  0  0  0  0
  148.9330  141.6745  156.8821 H   0  0  0  0  0  0  0  0  0  0  0  0
  1  2  1  0  0  0  0
  1 21  1  0  0  0  0
  1 22  1  0  0  0  0
  1 23  1  0  0  0  0
  2  8  1  0  0  0  0
  2  3  2  0  0  0  0
  3  4  1  0  0  0  0
  3 24  1  0  0  0  0
  4  5  1  0  0  0  0
  4 25  1  0  0  0  0
  4 26  1  0  0  0  0
  5  6  1  0  0  0  0
  5 27  1  0  0  0  0
  5 28  1  0  0  0  0
  6  7  1  0  0  0  0
  6  8  1  0  0  0  0
  6 29  1  0  0  0  0
  7 30  1  0  0  0  0
  7 31  1  0  0  0  0
  7 32  1  0  0  0  0
  8  9  1  0  0  0  0
  8 33  1  0  0  0  0
  9 10  1  0  0  0  0
  9 34  1  0  0  0  0
  9 35  1  0  0  0  0
 10 11  1  0  0  0  0
 10 36  1  0  0  0  0
 10 47  1  0  0  0  0
 11 12  1  0  0  0  0
 11 37  1  0  0  0  0
 11 38  1  0  0  0  0
 12 13  1  0  0  0  0
 12 39  1  0  0  0  0
 12 40  1  0  0  0  0
 13 17  1  0  0  0  0
 13 14  1  0  0  0  0
 14 15  2  0  0  0  0
 14 41  1  0  0  0  0
 15 16  1  0  0  0  0
 16 17  2  0  0  0  0
 17 18  1  0  0  0  0
 18 20  1  0  0  0  0
 18 19  1  0  0  0  0
 18 42  1  0  0  0  0
 19 20  1  0  0  0  0
 19 43  1  0  0  0  0
 19 44  1  0  0  0  0
 20 45  1  0  0  0  0
 20 46  1  0  0  0  0
M  CHG  1  10   1
M  END
> <s_m_source_file>
AV-unprocessed.smi

> <i_m_source_file_index>
2780

> <i_lp_mmshare_version>
43012

> <i_f3d_flags>
0

> <s_epik_input>
W0NIM11DMT1bQ0hdW0NIMl1bQ0gyXVtDQEBIXShbQ0gzXSlbQ0BIXTFbQ0gyXVtOSF1bQ0gyXVtDSDJdbjJbY0hdbm5jMltDSF0zW0NIMl1bQ0gyXTM=

> <s_epik_cmdline>
J2VwaWtfcHl0aG9uJywgJy1waCcsICc3LjAnLCAnLXRuJywgJzgnLCAnLW1hJywgJzIwMCcsICctbWV0YWxfYmluZGluZycsICctaW1hZScsICc8aW5maWxlLm1hZT4nLCAnLW9tYWUnLCAnPG91dGZpbGUubWFlPic=

> <r_lp_tautomer_probability>
1

> <r_epik_Ionization_Penalty>
0.00176214

> <r_epik_Ionization_Penalty_Charging>
0.00175191

> <r_epik_Ionization_Penalty_Neutral>
1.02377e-05

> <r_epik_State_Penalty>
-0

> <r_epik_Charging_Adjusted_Penalty>
0.00175191

> <i_epik_Tot_Q>
1

> <i_epik_Tot_abs_Q>
1

> <r_epik_Metal_State_Penalty>
-0

> <b_epik_Metal_Only>
0

> <s_lp_Force_Field>
OPLS_2005

> <r_lp_Energy>
21.6978

> <b_lp_Chiralities_Consistent>
1

> <s_lp_Variant>
AV-unprocessed.smi:2780-1

> <Gold.Version>
5.8.1

> <Gold.Id.Protein>
6NUR|6NUR_protein|mol2

> <Gold.PLP.Fitness>
45.3156

> <Gold.PLP.PLP>
-40.0369

> <Gold.PLP.part.hbond>
-1.0000

> <Gold.PLP.part.metal>
0.0000

> <Gold.PLP.part.buried>
-5.5330

> <Gold.PLP.part.nonpolar>
-33.6045

> <Gold.PLP.part.repulsive>
0.0416

> <Gold.PLP.ligand.clash>
0.0000

> <Gold.PLP.ligand.torsion>
0.4821

> <Gold.PLP.Chemscore.Hbond>
2.0000

> <Gold.PLP.Chemscore.CHOScore>
0.0000

> <Gold.PLP.Chemscore.Metal>
0.0000

> <Gold.Chemscore.Hbonds>
donor molecule, donor type, donor heavy atom, donor atom, acceptor molecule, acceptor atom, score
      L1  H    10    36       P1  8028  2.00

> <Gold.PLP.Chemscore.Internal.Correction>
0.2429

> <Gold.Rescore>
     Score         DG    S(hbond)    S(metal)    S(lipo)     H(rot)  DE(clash)    DE(int)     intcor
     14.95     -15.41       0.91        0.00     102.21       1.98       0.05       0.41       ----

> <Gold.Chemscore.Fitness>
14.9474

> <Gold.Chemscore.DG>
-15.4116

> <Gold.Chemscore.ZeroCoef>
-5.4800

> <Gold.Chemscore.Hbond>
0.9107

> <Gold.Chemscore.Metal>
0.0000

> <Gold.Chemscore.Lipo>
102.2076

> <Gold.Chemscore.Internal_Hbond>
0.0000

> <Gold.Chemscore.DEClash>
0.0515

> <Gold.Chemscore.DEInternal>
0.4127

> <Gold.Chemscore.Rot>
1.9799

> <Gold.Chemscore.Internal.Correction>
   9.000000E+99

> <Gold.Chemscore.Hbonds>
donor molecule, donor type, donor heavy atom, donor atom, acceptor molecule, acceptor atom, score
      L1  H    10    36       P1  8028  0.70

> <Gold.Chemscore.Hbond.Weighted>
-3.0418

> <Gold.Chemscore.Metal.Weighted>
-0.0000

> <Gold.Chemscore.Lipo.Weighted>
-11.9583

> <Gold.Chemscore.Internal_Hbond.Weighted>
0.0000

> <Gold.Chemscore.DEClash.Weighted>
0.0515

> <Gold.Chemscore.DEInternal.Weighted>
0.4127

> <Gold.Chemscore.Rot.Weighted>
5.0685

> <Gold.Chemscore.Internal.Correction.Weighted>
   9.000000E+99

> <Gold.Protein.RotatedTorsions>
[ 6907 6896 6895 6894 ] final  116.06 input  -60.11 | X-H torsion
[ 7974 7965 7964 7962 ] final   23.57 input  175.53 | X-H torsion
[ 8008 7997 7996 7995 ] final  -39.82 input   59.86 | X-H torsion
[ 10167 10162 10161 10158 ] final  -51.16 input  -65.29 | X-H torsion
[ 10718 10713 10712 10709 ] final   -0.15 input   66.30 | X-H torsion
[ 10763 10752 10751 10750 ] final   61.70 input  -60.55 | X-H torsion
[ 11005 11000 10999 10996 ] final -138.07 input  -57.11 | X-H torsion

> <Gold.Protein.ActiveResidues>
 VAL166  LYS551  ARG553  GLY616  TRP617  ASP618  TYR619  PRO620  LYS621  CYS622 
 ASP623  PHE694  ASN695  SER759  ASP760  ASP761  ALA762  ILE779  LEU786  VAL792 
 PHE793  MET794  SER795  GLU796  ALA797  LYS798  CYS799  TRP800  GLU811  SER814 

> <Gold.Protein.RotatedAtoms>
  152.4702  133.8012  159.6953 H   0  0  0  0  0  0  0  0  0  0  0  0  # atno 6907 bound_to 6896
  150.8687  133.7528  159.2975 H   0  0  0  0  0  0  0  0  0  0  0  0  # atno 6908 bound_to 6896
  151.5070  135.1067  159.9896 H   0  0  0  0  0  0  0  0  0  0  0  0  # atno 6909 bound_to 6896
  146.1978  139.7726  142.8784 H   0  0  0  0  0  0  0  0  0  0  0  0  # atno 7974 bound_to 7965
  154.4018  140.1541  156.2925 H   0  0  0  0  0  0  0  0  0  0  0  0  # atno 8008 bound_to 7997
  155.8772  140.3445  155.5841 H   0  0  0  0  0  0  0  0  0  0  0  0  # atno 8009 bound_to 7997
  155.7707  140.0830  157.2100 H   0  0  0  0  0  0  0  0  0  0  0  0  # atno 8010 bound_to 7997
  140.6602  143.2630  151.4464 H   0  0  0  0  0  0  0  0  0  0  0  0  # atno 10167 bound_to 10162
  156.8247  130.5468  149.5693 H   0  0  0  0  0  0  0  0  0  0  0  0  # atno 10718 bound_to 10713
  152.9959  135.5491  154.6076 H   0  0  0  0  0  0  0  0  0  0  0  0  # atno 10763 bound_to 10752
  154.5403  135.2819  155.1103 H   0  0  0  0  0  0  0  0  0  0  0  0  # atno 10764 bound_to 10752
  154.2383  135.6421  153.5251 H   0  0  0  0  0  0  0  0  0  0  0  0  # atno 10765 bound_to 10752
  140.8651  134.2121  157.4684 H   0  0  0  0  0  0  0  0  0  0  0  0  # atno 11005 bound_to 11000
  145.3585  141.0321  143.3298 LP  0  0  0  0  0  0  0  0  0  0  0  0  # atno 17320 bound_to 7965
  144.8617  139.5167  143.6809 LP  0  0  0  0  0  0  0  0  0  0  0  0  # atno 17321 bound_to 7965
  139.5834  144.1659  152.1997 LP  0  0  0  0  0  0  0  0  0  0  0  0  # atno 17342 bound_to 10162
  140.0991  144.5555  150.7001 LP  0  0  0  0  0  0  0  0  0  0  0  0  # atno 17343 bound_to 10162
  156.0968  130.5939  150.9828 LP  0  0  0  0  0  0  0  0  0  0  0  0  # atno 17370 bound_to 10713
  157.6438  131.0907  150.8195 LP  0  0  0  0  0  0  0  0  0  0  0  0  # atno 17371 bound_to 10713
  139.8709  134.9748  156.4859 LP  0  0  0  0  0  0  0  0  0  0  0  0  # atno 17394 bound_to 11000
  140.8638  133.8039  155.9293 LP  0  0  0  0  0  0  0  0  0  0  0  0  # atno 17395 bound_to 11000

$$$$
