AV-unprocessed.smi:950|AV-procd|sdf|4250|dock5
  -GOLD-   22720 2153D 1   1.00000     0.00000
 Structure written by MMmdl.
 34 35  0  0  0  0  0  0  0  0  1 V2000
  153.2833  143.2519  163.2058 C   0  0  0  0  0  0  0  0  0  0  0  0
  152.4627  143.6295  161.9680 C   0  0  0  0  0  0  0  0  0  0  0  0
  152.4911  142.5690  160.9194 C   0  0  0  0  0  0  0  0  0  0  0  0
  151.5918  142.4834  159.9365 N   0  0  0  0  0  0  0  0  0  0  0  0
  151.7982  141.3748  159.1085 C   0  0  0  0  0  0  0  0  0  0  0  0
  150.8733  141.1126  157.9539 C   0  0  0  0  0  0  0  0  0  0  0  0
  150.9715  142.1614  156.8266 C   0  0  0  0  0  0  0  0  0  0  0  0
  149.8637  142.0883  155.8789 N   0  0  0  0  0  0  0  0  0  0  0  0
  149.7123  141.1417  154.9414 C   0  0  0  0  0  0  0  0  0  0  0  0
  150.4805  140.1871  154.8168 O   0  0  0  0  0  0  0  0  0  0  0  0
  148.5099  141.3148  154.0049 C   0  0  0  0  0  0  0  0  0  0  0  0
  147.5218  142.4275  154.4010 C   0  0  0  0  0  0  0  0  0  0  0  0
  146.3755  141.4535  154.1120 C   0  0  0  0  0  0  0  0  0  0  0  0
  147.3774  140.3041  154.2531 C   0  0  0  0  0  0  0  0  0  0  0  0
  152.8775  140.6148  159.4857 C   0  0  0  0  0  0  0  0  0  0  0  0
  153.6669  141.2605  160.8985 S   0  0  0  0  0  0  0  0  0  0  0  0
  153.2373  144.0398  163.9576 H   0  0  0  0  0  0  0  0  0  0  0  0
  154.3316  143.0959  162.9493 H   0  0  0  0  0  0  0  0  0  0  0  0
  152.9100  142.3341  163.6608 H   0  0  0  0  0  0  0  0  0  0  0  0
  151.4265  143.8179  162.2514 H   0  0  0  0  0  0  0  0  0  0  0  0
  152.8423  144.5566  161.5380 H   0  0  0  0  0  0  0  0  0  0  0  0
  151.0734  140.1227  157.5418 H   0  0  0  0  0  0  0  0  0  0  0  0
  149.8428  141.0736  158.3082 H   0  0  0  0  0  0  0  0  0  0  0  0
  151.0367  143.1657  157.2478 H   0  0  0  0  0  0  0  0  0  0  0  0
  151.8926  142.0031  156.2652 H   0  0  0  0  0  0  0  0  0  0  0  0
  149.1856  142.8358  155.9113 H   0  0  0  0  0  0  0  0  0  0  0  0
  148.7852  141.3700  152.9499 H   0  0  0  0  0  0  0  0  0  0  0  0
  147.5658  142.7229  155.4506 H   0  0  0  0  0  0  0  0  0  0  0  0
  147.5383  143.2976  153.7442 H   0  0  0  0  0  0  0  0  0  0  0  0
  145.5776  141.4553  154.8552 H   0  0  0  0  0  0  0  0  0  0  0  0
  145.9859  141.5503  153.0976 H   0  0  0  0  0  0  0  0  0  0  0  0
  147.2825  139.5365  153.4850 H   0  0  0  0  0  0  0  0  0  0  0  0
  147.3814  139.8671  155.2536 H   0  0  0  0  0  0  0  0  0  0  0  0
  153.2510  139.7129  159.0241 H   0  0  0  0  0  0  0  0  0  0  0  0
  1  2  1  0  0  0  0
  1 17  1  0  0  0  0
  1 18  1  0  0  0  0
  1 19  1  0  0  0  0
  2  3  1  0  0  0  0
  2 20  1  0  0  0  0
  2 21  1  0  0  0  0
  3 16  1  0  0  0  0
  3  4  2  0  0  0  0
  4  5  1  0  0  0  0
  5  6  1  0  0  0  0
  5 15  2  0  0  0  0
  6  7  1  0  0  0  0
  6 22  1  0  0  0  0
  6 23  1  0  0  0  0
  7  8  1  0  0  0  0
  7 24  1  0  0  0  0
  7 25  1  0  0  0  0
  8  9  1  0  0  0  0
  8 26  1  0  0  0  0
  9 10  2  0  0  0  0
  9 11  1  0  0  0  0
 11 14  1  0  0  0  0
 11 12  1  0  0  0  0
 11 27  1  0  0  0  0
 12 13  1  0  0  0  0
 12 28  1  0  0  0  0
 12 29  1  0  0  0  0
 13 14  1  0  0  0  0
 13 30  1  0  0  0  0
 13 31  1  0  0  0  0
 14 32  1  0  0  0  0
 14 33  1  0  0  0  0
 15 16  1  0  0  0  0
 15 34  1  0  0  0  0
M  END
> <s_m_source_file>
AV-unprocessed.smi

> <i_m_source_file_index>
950

> <i_lp_mmshare_version>
43012

> <i_f3d_flags>
0

> <s_epik_input>
W0NIM11bQ0gyXWMxbmMoW2NIXXMxKVtDSDJdW0NIMl1bTkhdQyg9TylbQ0hdMltDSDJdW0NIMl1bQ0gyXTI=

> <s_epik_cmdline>
J2VwaWtfcHl0aG9uJywgJy1waCcsICc3LjAnLCAnLXRuJywgJzgnLCAnLW1hJywgJzIwMCcsICctbWV0YWxfYmluZGluZycsICctaW1hZScsICc8aW5maWxlLm1hZT4nLCAnLW9tYWUnLCAnPG91dGZpbGUubWFlPic=

> <r_epik_Ionization_Penalty>
0.00109666

> <r_epik_Ionization_Penalty_Charging>
0

> <r_epik_Ionization_Penalty_Neutral>
0.00109666

> <r_epik_State_Penalty>
0.000719322

> <r_epik_Charging_Adjusted_Penalty>
0.000719322

> <i_epik_Tot_Q>
0

> <i_epik_Tot_abs_Q>
0

> <r_epik_Metal_State_Penalty>
-0

> <b_epik_Metal_Only>
0

> <s_lp_Force_Field>
OPLS_2005

> <r_lp_Energy>
2.32113

> <b_lp_Chiralities_Consistent>
1

> <s_lp_Variant>
AV-unprocessed.smi:950-1

> <Gold.Version>
5.8.1

> <Gold.Id.Protein>
6NUR|6NUR_protein|mol2

> <Gold.PLP.Fitness>
44.1816

> <Gold.PLP.PLP>
-39.2436

> <Gold.PLP.part.hbond>
-2.4380

> <Gold.PLP.part.metal>
0.0000

> <Gold.PLP.part.buried>
-2.0455

> <Gold.PLP.part.nonpolar>
-33.8196

> <Gold.PLP.part.repulsive>
0.2077

> <Gold.PLP.ligand.clash>
0.0000

> <Gold.PLP.ligand.torsion>
0.6285

> <Gold.PLP.Chemscore.Hbond>
1.9280

> <Gold.PLP.Chemscore.CHOScore>
0.0000

> <Gold.PLP.Chemscore.Metal>
0.0000

> <Gold.Chemscore.Hbonds>
donor molecule, donor type, donor heavy atom, donor atom, acceptor molecule, acceptor atom, score
      L1  H     8    26       P1  8028  0.91
      P1  H  7989  7998       L1    10  0.95

> <Gold.PLP.Chemscore.Internal.Correction>
0.4109

> <Gold.Rescore>
     Score         DG    S(hbond)    S(metal)    S(lipo)     H(rot)  DE(clash)    DE(int)     intcor
     17.47     -18.87       1.52        0.00     103.97       1.51       0.83       0.57       ----

> <Gold.Chemscore.Fitness>
17.4681

> <Gold.Chemscore.DG>
-18.8700

> <Gold.Chemscore.ZeroCoef>
-5.4800

> <Gold.Chemscore.Hbond>
1.5241

> <Gold.Chemscore.Metal>
0.0000

> <Gold.Chemscore.Lipo>
103.9672

> <Gold.Chemscore.Internal_Hbond>
0.0000

> <Gold.Chemscore.DEClash>
0.8274

> <Gold.Chemscore.DEInternal>
0.5745

> <Gold.Chemscore.Rot>
1.5096

> <Gold.Chemscore.Internal.Correction>
   9.000000E+99

> <Gold.Chemscore.Hbonds>
donor molecule, donor type, donor heavy atom, donor atom, acceptor molecule, acceptor atom, score
      L1  H     8    26       P1  8028  0.89
      P1  H  7989  7998       L1    10  0.21

> <Gold.Chemscore.Hbond.Weighted>
-5.0904

> <Gold.Chemscore.Metal.Weighted>
-0.0000

> <Gold.Chemscore.Lipo.Weighted>
-12.1642

> <Gold.Chemscore.Internal_Hbond.Weighted>
0.0000

> <Gold.Chemscore.DEClash.Weighted>
0.8274

> <Gold.Chemscore.DEInternal.Weighted>
0.5745

> <Gold.Chemscore.Rot.Weighted>
3.8646

> <Gold.Chemscore.Internal.Correction.Weighted>
   9.000000E+99

> <Gold.Protein.RotatedTorsions>
[ 6907 6896 6895 6894 ] final -173.05 input  -60.11 | X-H torsion
[ 7974 7965 7964 7962 ] final  -36.75 input  175.53 | X-H torsion
[ 8008 7997 7996 7995 ] final  107.82 input   59.86 | X-H torsion
[ 10167 10162 10161 10158 ] final -132.22 input  -65.29 | X-H torsion
[ 10718 10713 10712 10709 ] final  147.18 input   66.30 | X-H torsion
[ 10763 10752 10751 10750 ] final   15.27 input  -60.55 | X-H torsion
[ 11005 11000 10999 10996 ] final  -39.77 input  -57.11 | X-H torsion

> <Gold.Protein.ActiveResidues>
 VAL166  LYS551  ARG553  GLY616  TRP617  ASP618  TYR619  PRO620  LYS621  CYS622 
 ASP623  PHE694  ASN695  SER759  ASP760  ASP761  ALA762  ILE779  LEU786  VAL792 
 PHE793  MET794  SER795  GLU796  ALA797  LYS798  CYS799  TRP800  GLU811  SER814 

> <Gold.Protein.RotatedAtoms>
  151.5498  133.3419  159.2950 H   0  0  0  0  0  0  0  0  0  0  0  0  # atno 6907 bound_to 6896
  150.8485  134.7805  159.7001 H   0  0  0  0  0  0  0  0  0  0  0  0  # atno 6908 bound_to 6896
  152.4537  134.5346  159.9873 H   0  0  0  0  0  0  0  0  0  0  0  0  # atno 6909 bound_to 6896
  146.0634  140.6315  142.8986 H   0  0  0  0  0  0  0  0  0  0  0  0  # atno 7974 bound_to 7965
  156.1855  140.3088  155.9230 H   0  0  0  0  0  0  0  0  0  0  0  0  # atno 8008 bound_to 7997
  155.3291  140.0460  157.3059 H   0  0  0  0  0  0  0  0  0  0  0  0  # atno 8009 bound_to 7997
  154.5391  140.2255  155.8682 H   0  0  0  0  0  0  0  0  0  0  0  0  # atno 8010 bound_to 7997
  139.9108  143.6496  152.2575 H   0  0  0  0  0  0  0  0  0  0  0  0  # atno 10167 bound_to 10162
  157.3242  131.0909  151.1216 H   0  0  0  0  0  0  0  0  0  0  0  0  # atno 10718 bound_to 10713
  153.1541  135.6784  153.8838 H   0  0  0  0  0  0  0  0  0  0  0  0  # atno 10763 bound_to 10752
  153.8255  135.3124  155.3415 H   0  0  0  0  0  0  0  0  0  0  0  0  # atno 10764 bound_to 10752
  154.7884  135.4849  154.0085 H   0  0  0  0  0  0  0  0  0  0  0  0  # atno 10765 bound_to 10752
  141.0126  133.6900  156.2232 H   0  0  0  0  0  0  0  0  0  0  0  0  # atno 11005 bound_to 11000
  144.7188  140.4303  143.7024 LP  0  0  0  0  0  0  0  0  0  0  0  0  # atno 17320 bound_to 7965
  145.6519  139.1566  143.2857 LP  0  0  0  0  0  0  0  0  0  0  0  0  # atno 17321 bound_to 7965
  139.6944  144.7643  151.1382 LP  0  0  0  0  0  0  0  0  0  0  0  0  # atno 17342 bound_to 10162
  140.7686  143.5544  150.9168 LP  0  0  0  0  0  0  0  0  0  0  0  0  # atno 17343 bound_to 10162
  157.2489  130.6604  149.5922 LP  0  0  0  0  0  0  0  0  0  0  0  0  # atno 17370 bound_to 10713
  155.9689  130.4544  150.5851 LP  0  0  0  0  0  0  0  0  0  0  0  0  # atno 17371 bound_to 10713
  140.6707  134.4870  157.5587 LP  0  0  0  0  0  0  0  0  0  0  0  0  # atno 17394 bound_to 11000
  139.9099  134.8368  156.1568 LP  0  0  0  0  0  0  0  0  0  0  0  0  # atno 17395 bound_to 11000

$$$$
