AV-unprocessed.smi:653|AV-procd|sdf|3207|dock7
  -GOLD-   22720 0143D 1   1.00000     0.00000
 Structure written by MMmdl.
 44 45  0  0  0  0  0  0  0  0  1 V2000
  151.6395  145.2746  159.3526 C   0  0  0  0  0  0  0  0  0  0  0  0
  151.8073  143.8380  158.9033 C   0  0  0  0  0  0  0  0  0  0  0  0
  152.6020  142.9375  159.6434 C   0  0  0  0  0  0  0  0  0  0  0  0
  152.7231  141.6132  159.1806 C   0  0  0  0  0  0  0  0  0  0  0  0
  152.0480  141.2410  157.9996 C   0  0  0  0  0  0  0  0  0  0  0  0
  152.1542  139.8280  157.4538 C   0  0  0  0  0  0  0  0  0  0  0  0
  151.7646  139.7943  155.9754 C   0  0  0  0  0  0  0  0  0  0  0  0
  152.6333  139.8781  155.1076 O   0  0  0  0  0  0  0  0  0  0  0  0
  150.4562  139.6691  155.7030 N   0  0  0  0  0  0  0  0  0  0  0  0
  149.8776  139.6284  154.3649 C   0  0  0  0  0  0  0  0  0  0  0  0
  148.4430  140.1916  154.3364 C   0  0  1  0  0  0  0  0  0  0  0  0
  148.3520  141.6868  154.5733 C   0  0  0  0  0  0  0  0  0  0  0  0
  146.9650  142.0005  154.0254 C   0  0  0  0  0  0  0  0  0  0  0  0
  146.7832  141.1163  152.9248 O   0  0  0  0  0  0  0  0  0  0  0  0
  147.7492  140.0668  152.9715 C   0  0  2  0  0  0  0  0  0  0  0  0
  147.1047  138.6969  152.6586 C   0  0  0  0  0  0  0  0  0  0  0  0
  146.6059  138.6468  151.2059 C   0  0  0  0  0  0  0  0  0  0  0  0
  145.9744  138.3149  153.6319 C   0  0  0  0  0  0  0  0  0  0  0  0
  151.2752  142.2180  157.3367 C   0  0  0  0  0  0  0  0  0  0  0  0
  151.1541  143.4901  157.7725 N   0  0  0  0  0  0  0  0  0  0  0  0
  152.3899  145.5444  160.0961 H   0  0  0  0  0  0  0  0  0  0  0  0
  150.6530  145.4181  159.7939 H   0  0  0  0  0  0  0  0  0  0  0  0
  151.7412  145.9564  158.5076 H   0  0  0  0  0  0  0  0  0  0  0  0
  153.1091  143.2516  160.5439 H   0  0  0  0  0  0  0  0  0  0  0  0
  153.3271  140.8984  159.7202 H   0  0  0  0  0  0  0  0  0  0  0  0
  153.1748  139.4632  157.5781 H   0  0  0  0  0  0  0  0  0  0  0  0
  151.5076  139.1560  158.0197 H   0  0  0  0  0  0  0  0  0  0  0  0
  149.8139  139.6077  156.4799 H   0  0  0  0  0  0  0  0  0  0  0  0
  150.5227  140.2060  153.7022 H   0  0  0  0  0  0  0  0  0  0  0  0
  149.8913  138.6041  153.9893 H   0  0  0  0  0  0  0  0  0  0  0  0
  147.8457  139.6978  155.1023 H   0  0  0  0  0  0  0  0  0  0  0  0
  148.4652  141.9646  155.6216 H   0  0  0  0  0  0  0  0  0  0  0  0
  149.1116  142.2140  153.9942 H   0  0  0  0  0  0  0  0  0  0  0  0
  146.2029  141.7822  154.7744 H   0  0  0  0  0  0  0  0  0  0  0  0
  146.8577  143.0429  153.7248 H   0  0  0  0  0  0  0  0  0  0  0  0
  148.4858  140.2966  152.1995 H   0  0  0  0  0  0  0  0  0  0  0  0
  147.8830  137.9381  152.7489 H   0  0  0  0  0  0  0  0  0  0  0  0
  145.8163  139.3786  151.0323 H   0  0  0  0  0  0  0  0  0  0  0  0
  146.2065  137.6624  150.9606 H   0  0  0  0  0  0  0  0  0  0  0  0
  147.4134  138.8558  150.5036 H   0  0  0  0  0  0  0  0  0  0  0  0
  145.1712  139.0523  153.6189 H   0  0  0  0  0  0  0  0  0  0  0  0
  146.3298  138.2255  154.6576 H   0  0  0  0  0  0  0  0  0  0  0  0
  145.5396  137.3521  153.3626 H   0  0  0  0  0  0  0  0  0  0  0  0
  150.7437  141.9751  156.4281 H   0  0  0  0  0  0  0  0  0  0  0  0
  1  2  1  0  0  0  0
  1 21  1  0  0  0  0
  1 22  1  0  0  0  0
  1 23  1  0  0  0  0
  2 20  1  0  0  0  0
  2  3  2  0  0  0  0
  3  4  1  0  0  0  0
  3 24  1  0  0  0  0
  4  5  2  0  0  0  0
  4 25  1  0  0  0  0
  5  6  1  0  0  0  0
  5 19  1  0  0  0  0
  6  7  1  0  0  0  0
  6 26  1  0  0  0  0
  6 27  1  0  0  0  0
  7  8  2  0  0  0  0
  7  9  1  0  0  0  0
  9 10  1  0  0  0  0
  9 28  1  0  0  0  0
 10 11  1  0  0  0  0
 10 29  1  0  0  0  0
 10 30  1  0  0  0  0
 11 15  1  0  0  0  0
 11 12  1  0  0  0  0
 11 31  1  0  0  0  0
 12 13  1  0  0  0  0
 12 32  1  0  0  0  0
 12 33  1  0  0  0  0
 13 14  1  0  0  0  0
 13 34  1  0  0  0  0
 13 35  1  0  0  0  0
 14 15  1  0  0  0  0
 15 16  1  0  0  0  0
 15 36  1  0  0  0  0
 16 17  1  0  0  0  0
 16 18  1  0  0  0  0
 16 37  1  0  0  0  0
 17 38  1  0  0  0  0
 17 39  1  0  0  0  0
 17 40  1  0  0  0  0
 18 41  1  0  0  0  0
 18 42  1  0  0  0  0
 18 43  1  0  0  0  0
 19 20  2  0  0  0  0
 19 44  1  0  0  0  0
M  END
> <s_m_source_file>
AV-unprocessed.smi

> <i_m_source_file_index>
653

> <i_lp_mmshare_version>
43012

> <i_f3d_flags>
0

> <s_epik_input>
W0NIM11jMVtjSF1bY0hdYyhbY0hdbjEpW0NIMl1DKD1PKVtOSF1bQ0gyXVtDQEBIXTJbQ0gyXVtDSDJdT1tDQEhdMltDSF0oW0NIM10pW0NIM10=

> <s_epik_cmdline>
J2VwaWtfcHl0aG9uJywgJy1waCcsICc3LjAnLCAnLXRuJywgJzgnLCAnLW1hJywgJzIwMCcsICctbWV0YWxfYmluZGluZycsICctaW1hZScsICc8aW5maWxlLm1hZT4nLCAnLW9tYWUnLCAnPG91dGZpbGUubWFlPic=

> <r_epik_Ionization_Penalty>
0.0166429

> <r_epik_Ionization_Penalty_Charging>
0

> <r_epik_Ionization_Penalty_Neutral>
0.0166429

> <r_epik_State_Penalty>
0.0131478

> <r_epik_Charging_Adjusted_Penalty>
0.0131478

> <i_epik_Tot_Q>
0

> <i_epik_Tot_abs_Q>
0

> <r_epik_Metal_State_Penalty>
0.012786

> <b_epik_Metal_Only>
0

> <s_lp_Force_Field>
OPLS_2005

> <r_lp_Energy>
17.7281

> <b_lp_Chiralities_Consistent>
1

> <s_lp_Variant>
AV-unprocessed.smi:653-4

> <Gold.Version>
5.8.1

> <Gold.Id.Protein>
6NUR|6NUR_protein|mol2

> <Gold.PLP.Fitness>
45.2197

> <Gold.PLP.PLP>
-42.6517

> <Gold.PLP.part.hbond>
-2.0000

> <Gold.PLP.part.metal>
0.0000

> <Gold.PLP.part.buried>
1.6605

> <Gold.PLP.part.nonpolar>
-42.4189

> <Gold.PLP.part.repulsive>
0.4111

> <Gold.PLP.ligand.clash>
0.0000

> <Gold.PLP.ligand.torsion>
0.8621

> <Gold.PLP.Chemscore.Hbond>
1.4212

> <Gold.PLP.Chemscore.CHOScore>
0.0000

> <Gold.PLP.Chemscore.Metal>
0.0000

> <Gold.Chemscore.Hbonds>
donor molecule, donor type, donor heavy atom, donor atom, acceptor molecule, acceptor atom, score
      P1  H  7989  7998       L1     8  0.45
      P1  H  7997  8009       L1     8  1.00

> <Gold.PLP.Chemscore.Internal.Correction>
0.0286

> <Gold.Rescore>
     Score         DG    S(hbond)    S(metal)    S(lipo)     H(rot)  DE(clash)    DE(int)     intcor
     17.74     -19.21       1.12        0.00     117.73       1.48       0.54       0.93       ----

> <Gold.Chemscore.Fitness>
17.7364

> <Gold.Chemscore.DG>
-19.2066

> <Gold.Chemscore.ZeroCoef>
-5.4800

> <Gold.Chemscore.Hbond>
1.1237

> <Gold.Chemscore.Metal>
0.0000

> <Gold.Chemscore.Lipo>
117.7348

> <Gold.Chemscore.Internal_Hbond>
0.0000

> <Gold.Chemscore.DEClash>
0.5365

> <Gold.Chemscore.DEInternal>
0.9337

> <Gold.Chemscore.Rot>
1.4850

> <Gold.Chemscore.Internal.Correction>
   9.000000E+99

> <Gold.Chemscore.Hbonds>
donor molecule, donor type, donor heavy atom, donor atom, acceptor molecule, acceptor atom, score
      P1  H  7989  7998       L1     8  0.22
      P1  H  7997  8009       L1     8  0.84

> <Gold.Chemscore.Hbond.Weighted>
-3.7531

> <Gold.Chemscore.Metal.Weighted>
-0.0000

> <Gold.Chemscore.Lipo.Weighted>
-13.7750

> <Gold.Chemscore.Internal_Hbond.Weighted>
0.0000

> <Gold.Chemscore.DEClash.Weighted>
0.5365

> <Gold.Chemscore.DEInternal.Weighted>
0.9337

> <Gold.Chemscore.Rot.Weighted>
3.8015

> <Gold.Chemscore.Internal.Correction.Weighted>
   9.000000E+99

> <Gold.Protein.RotatedTorsions>
[ 6907 6896 6895 6894 ] final  -77.85 input  -60.11 | X-H torsion
[ 7974 7965 7964 7962 ] final  -30.67 input  175.53 | X-H torsion
[ 8008 7997 7996 7995 ] final -131.91 input   59.86 | X-H torsion
[ 10167 10162 10161 10158 ] final  115.13 input  -65.29 | X-H torsion
[ 10718 10713 10712 10709 ] final  -65.94 input   66.30 | X-H torsion
[ 10763 10752 10751 10750 ] final  106.91 input  -60.55 | X-H torsion
[ 11005 11000 10999 10996 ] final  168.37 input  -57.11 | X-H torsion

> <Gold.Protein.ActiveResidues>
 VAL166  LYS551  ARG553  GLY616  TRP617  ASP618  TYR619  PRO620  LYS621  CYS622 
 ASP623  PHE694  ASN695  SER759  ASP760  ASP761  ALA762  ILE779  LEU786  VAL792 
 PHE793  MET794  SER795  GLU796  ALA797  LYS798  CYS799  TRP800  GLU811  SER814 

> <Gold.Protein.RotatedAtoms>
  150.6988  134.4361  159.5270 H   0  0  0  0  0  0  0  0  0  0  0  0  # atno 6907 bound_to 6896
  152.2079  134.8526  160.0510 H   0  0  0  0  0  0  0  0  0  0  0  0  # atno 6908 bound_to 6896
  151.9422  133.3606  159.4006 H   0  0  0  0  0  0  0  0  0  0  0  0  # atno 6909 bound_to 6896
  146.1126  140.5569  142.8771 H   0  0  0  0  0  0  0  0  0  0  0  0  # atno 7974 bound_to 7965
  155.3202  140.0461  157.3039 H   0  0  0  0  0  0  0  0  0  0  0  0  # atno 8008 bound_to 7997
  154.5384  140.2280  155.8648 H   0  0  0  0  0  0  0  0  0  0  0  0  # atno 8009 bound_to 7997
  156.1858  140.3063  155.9241 H   0  0  0  0  0  0  0  0  0  0  0  0  # atno 8010 bound_to 7997
  139.6339  144.7118  151.2375 H   0  0  0  0  0  0  0  0  0  0  0  0  # atno 10167 bound_to 10162
  156.0641  130.4254  150.1636 H   0  0  0  0  0  0  0  0  0  0  0  0  # atno 10718 bound_to 10713
  153.3994  135.3861  155.1977 H   0  0  0  0  0  0  0  0  0  0  0  0  # atno 10763 bound_to 10752
  154.8728  135.3767  154.4638 H   0  0  0  0  0  0  0  0  0  0  0  0  # atno 10764 bound_to 10752
  153.5133  135.7087  153.5831 H   0  0  0  0  0  0  0  0  0  0  0  0  # atno 10765 bound_to 10752
  140.2865  134.7708  157.3803 H   0  0  0  0  0  0  0  0  0  0  0  0  # atno 11005 bound_to 11000
  144.7524  140.5225  143.6792 LP  0  0  0  0  0  0  0  0  0  0  0  0  # atno 17320 bound_to 7965
  145.5633  139.1480  143.3329 LP  0  0  0  0  0  0  0  0  0  0  0  0  # atno 17321 bound_to 7965
  140.7454  143.6430  150.8317 LP  0  0  0  0  0  0  0  0  0  0  0  0  # atno 17342 bound_to 10162
  140.0059  143.5694  152.2858 LP  0  0  0  0  0  0  0  0  0  0  0  0  # atno 17343 bound_to 10162
  156.9700  130.9831  151.3461 LP  0  0  0  0  0  0  0  0  0  0  0  0  # atno 17370 bound_to 10713
  157.5670  130.8284  149.8340 LP  0  0  0  0  0  0  0  0  0  0  0  0  # atno 17371 bound_to 10713
  140.1235  134.5189  155.8164 LP  0  0  0  0  0  0  0  0  0  0  0  0  # atno 17394 bound_to 11000
  141.2154  133.6764  156.6908 LP  0  0  0  0  0  0  0  0  0  0  0  0  # atno 17395 bound_to 11000

$$$$
