AV-unprocessed.smi:72|AV-procd|sdf|706|dock5
  -GOLD-   2262017 23D 1   1.00000     0.00000
 Structure written by MMmdl.
 30 31  0  0  0  0  0  0  0  0  2 V2000
  150.7613  135.4886  155.3397 N   0  0  0  0  0  0  0  0  0  0  0  0
  150.5249  136.8467  155.3782 C   0  0  0  0  0  0  0  0  0  0  0  0
  150.0563  137.4506  154.2264 N   0  3  0  0  0  0  0  0  0  0  0  0
  149.7531  138.7500  154.1067 C   0  0  0  0  0  0  0  0  0  0  0  0
  149.8593  139.5361  155.1612 N   0  0  0  0  0  0  0  0  0  0  0  0
  149.5261  141.0098  155.0820 C   0  0  1  0  0  0  0  0  0  0  0  0
  149.1477  141.3022  153.7687 O   0  0  0  0  0  0  0  0  0  0  0  0
  147.7292  141.3878  153.6400 C   0  0  1  0  0  0  0  0  0  0  0  0
  147.1065  139.9984  153.3598 C   0  0  0  0  0  0  0  0  0  0  0  0
  147.2736  139.6618  151.9996 O   0  0  0  0  0  0  0  0  0  0  0  0
  147.3453  142.0178  154.9849 C   0  0  1  0  0  0  0  0  0  0  0  0
  146.0018  141.7697  155.3505 O   0  0  0  0  0  0  0  0  0  0  0  0
  148.3228  141.3936  155.9752 C   0  0  2  0  0  0  0  0  0  0  0  0
  148.6800  142.3486  156.9543 O   0  0  0  0  0  0  0  0  0  0  0  0
  150.4287  139.0241  156.3571 C   0  0  0  0  0  0  0  0  0  0  0  0
  150.6578  139.7679  157.3091 O   0  0  0  0  0  0  0  0  0  0  0  0
  150.7084  137.6503  156.3885 N   0  0  0  0  0  0  0  0  0  0  0  0
  150.4593  141.5178  155.3311 H   0  0  0  0  0  0  0  0  0  0  0  0
  147.4706  142.0675  152.8267 H   0  0  0  0  0  0  0  0  0  0  0  0
  147.5060  143.0956  154.9223 H   0  0  0  0  0  0  0  0  0  0  0  0
  147.8926  140.5048  156.4399 H   0  0  0  0  0  0  0  0  0  0  0  0
  151.1156  134.9670  156.1291 H   0  0  0  0  0  0  0  0  0  0  0  0
  150.6018  134.9096  154.5277 H   0  0  0  0  0  0  0  0  0  0  0  0
  149.4450  139.1228  153.1392 H   0  0  0  0  0  0  0  0  0  0  0  0
  147.5097  139.2152  154.0000 H   0  0  0  0  0  0  0  0  0  0  0  0
  146.0310  140.0208  153.5346 H   0  0  0  0  0  0  0  0  0  0  0  0
  148.0669  140.0672  151.6833 H   0  0  0  0  0  0  0  0  0  0  0  0
  145.4844  141.6924  154.5630 H   0  0  0  0  0  0  0  0  0  0  0  0
  148.6969  143.2038  156.5526 H   0  0  0  0  0  0  0  0  0  0  0  0
  149.9411  136.8652  153.4113 H   0  0  0  0  0  0  0  0  0  0  0  0
  1  2  1  0  0  0  0
  1 22  1  0  0  0  0
  1 23  1  0  0  0  0
  2 17  2  0  0  0  0
  2  3  1  0  0  0  0
  3  4  2  0  0  0  0
  3 30  1  0  0  0  0
  4  5  1  0  0  0  0
  4 24  1  0  0  0  0
  5  6  1  0  0  0  0
  5 15  1  0  0  0  0
  6 18  1  0  0  0  0
  6 13  1  0  0  0  0
  6  7  1  0  0  0  0
  7  8  1  0  0  0  0
  8 19  1  0  0  0  0
  8  9  1  0  0  0  0
  8 11  1  0  0  0  0
  9 10  1  0  0  0  0
  9 25  1  0  0  0  0
  9 26  1  0  0  0  0
 10 27  1  0  0  0  0
 11 20  1  0  0  0  0
 11 12  1  0  0  0  0
 11 13  1  0  0  0  0
 12 28  1  0  0  0  0
 13 21  1  0  0  0  0
 13 14  1  0  0  0  0
 14 29  1  0  0  0  0
 15 16  2  0  0  0  0
 15 17  1  0  0  0  0
M  CHG  1   3   1
M  END
> <s_m_source_file>
AV-unprocessed.smi

> <i_m_source_file_index>
72

> <i_lp_mmshare_version>
43012

> <i_f3d_flags>
0

> <s_epik_input>
W05IMl1jMW5bY0hdbihjKD1PKW4xKVtDQEBIXTJPW0NASF0oW0NIMl1bT0hdKVtDQEBIXShbT0hdKVtDQEhdMltPSF0=

> <s_epik_cmdline>
J2VwaWtfcHl0aG9uJywgJy1waCcsICc3LjAnLCAnLXRuJywgJzgnLCAnLW1hJywgJzIwMCcsICctbWV0YWxfYmluZGluZycsICctaW1hZScsICc8aW5maWxlLm1hZT4nLCAnLW9tYWUnLCAnPG91dGZpbGUubWFlPic=

> <r_lp_tautomer_probability>
4.77166e-05

> <r_epik_Ionization_Penalty>
0.104979

> <r_epik_Ionization_Penalty_Charging>
0.0999619

> <r_epik_Ionization_Penalty_Neutral>
0.00501745

> <r_epik_State_Penalty>
2.51541

> <r_epik_Charging_Adjusted_Penalty>
2.61537

> <i_epik_Tot_Q>
1

> <i_epik_Tot_abs_Q>
1

> <r_epik_Metal_State_Penalty>
3.53763

> <b_epik_Metal_Only>
0

> <s_epik_Chemistry_Notes>
This compound contains an acetal/aminal-like group ( X-CH(R)-Y where X, Y are N, S, or O) that may be acid/base labile, releasing an aldehyde.

> <s_lp_Force_Field>
OPLS_2005

> <r_lp_Energy>
30.8227

> <b_lp_Chiralities_Consistent>
1

> <s_lp_Variant>
AV-unprocessed.smi:72-44

> <Gold.Version>
5.8.1

> <Gold.Id.Protein>
6NUR|6NUR_protein|mol2

> <Gold.PLP.Fitness>
40.7967

> <Gold.PLP.PLP>
-23.5724

> <Gold.PLP.part.hbond>
-5.0088

> <Gold.PLP.part.metal>
0.0000

> <Gold.PLP.part.buried>
-5.0873

> <Gold.PLP.part.nonpolar>
-15.9321

> <Gold.PLP.part.repulsive>
1.7122

> <Gold.PLP.ligand.clash>
0.0000

> <Gold.PLP.ligand.torsion>
0.2143

> <Gold.PLP.Chemscore.Hbond>
4.8640

> <Gold.PLP.Chemscore.CHOScore>
1.0000

> <Gold.PLP.Chemscore.Metal>
0.0000

> <Gold.Chemscore.Hbonds>
donor molecule, donor type, donor heavy atom, donor atom, acceptor molecule, acceptor atom, score
      L1  H     3    30       P1  7948  2.00
      L1  H    10    27       P1  7957  1.00
      L1  H    14    29       P1  8028  1.00
      P1  H  8011  8017       L1     7  0.85
      L1  C     4    24       P1  7957  1.00

> <Gold.PLP.Chemscore.Internal.Correction>
0.0610

> <Gold.Rescore>
     Score         DG    S(hbond)    S(metal)    S(lipo)     H(rot)  DE(clash)    DE(int)     intcor
      7.74      -9.49       3.52        0.00      23.10       4.08       0.73       1.03       ----

> <Gold.Chemscore.Fitness>
7.7374

> <Gold.Chemscore.DG>
-9.4936

> <Gold.Chemscore.ZeroCoef>
-5.4800

> <Gold.Chemscore.Hbond>
3.5184

> <Gold.Chemscore.Metal>
0.0000

> <Gold.Chemscore.Lipo>
23.0978

> <Gold.Chemscore.Internal_Hbond>
0.0000

> <Gold.Chemscore.DEClash>
0.7250

> <Gold.Chemscore.DEInternal>
1.0312

> <Gold.Chemscore.Rot>
4.0783

> <Gold.Chemscore.Internal.Correction>
   9.000000E+99

> <Gold.Chemscore.Hbonds>
donor molecule, donor type, donor heavy atom, donor atom, acceptor molecule, acceptor atom, score
      L1  H     3    30       P1  7948  0.25
      L1  H    10    27       P1  7957  0.96
      L1  H    14    29       P1  8028  0.85
      P1  H  8011  8017       L1     7  0.34

> <Gold.Chemscore.Hbond.Weighted>
-11.7516

> <Gold.Chemscore.Metal.Weighted>
-0.0000

> <Gold.Chemscore.Lipo.Weighted>
-2.7024

> <Gold.Chemscore.Internal_Hbond.Weighted>
0.0000

> <Gold.Chemscore.DEClash.Weighted>
0.7250

> <Gold.Chemscore.DEInternal.Weighted>
1.0312

> <Gold.Chemscore.Rot.Weighted>
10.4404

> <Gold.Chemscore.Internal.Correction.Weighted>
   9.000000E+99

> <Gold.Protein.RotatedTorsions>
[ 6907 6896 6895 6894 ] final   73.19 input  -60.11 | X-H torsion
[ 7974 7965 7964 7962 ] final  133.39 input  175.53 | X-H torsion
[ 8008 7997 7996 7995 ] final -137.39 input   59.86 | X-H torsion
[ 10167 10162 10161 10158 ] final   42.55 input  -65.29 | X-H torsion
[ 10718 10713 10712 10709 ] final  -38.01 input   66.30 | X-H torsion
[ 10763 10752 10751 10750 ] final  -85.64 input  -60.55 | X-H torsion
[ 11005 11000 10999 10996 ] final -113.02 input  -57.11 | X-H torsion

> <Gold.Protein.ActiveResidues>
 VAL166  LYS551  ARG553  GLY616  TRP617  ASP618  TYR619  PRO620  LYS621  CYS622 
 ASP623  PHE694  ASN695  SER759  ASP760  ASP761  ALA762  ILE779  LEU786  VAL792 
 PHE793  MET794  SER795  GLU796  ALA797  LYS798  CYS799  TRP800  GLU811  SER814 

> <Gold.Protein.RotatedAtoms>
  152.4909  134.4459  159.9558 H   0  0  0  0  0  0  0  0  0  0  0  0  # atno 6907 bound_to 6896
  151.4446  133.3628  159.2794 H   0  0  0  0  0  0  0  0  0  0  0  0  # atno 6908 bound_to 6896
  150.9064  134.8502  159.7455 H   0  0  0  0  0  0  0  0  0  0  0  0  # atno 6909 bound_to 6896
  144.9870  139.4445  143.5358 H   0  0  0  0  0  0  0  0  0  0  0  0  # atno 7974 bound_to 7965
  155.4110  140.0512  157.3031 H   0  0  0  0  0  0  0  0  0  0  0  0  # atno 8008 bound_to 7997
  154.4946  140.2133  155.9434 H   0  0  0  0  0  0  0  0  0  0  0  0  # atno 8009 bound_to 7997
  156.1388  140.3158  155.8468 H   0  0  0  0  0  0  0  0  0  0  0  0  # atno 8010 bound_to 7997
  140.3533  144.2322  150.6144 H   0  0  0  0  0  0  0  0  0  0  0  0  # atno 10167 bound_to 10162
  156.3086  130.4249  149.8072 H   0  0  0  0  0  0  0  0  0  0  0  0  # atno 10718 bound_to 10713
  154.6134  135.5477  153.7498 H   0  0  0  0  0  0  0  0  0  0  0  0  # atno 10763 bound_to 10752
  153.0205  135.6395  154.1545 H   0  0  0  0  0  0  0  0  0  0  0  0  # atno 10764 bound_to 10752
  154.1482  135.2904  155.3122 H   0  0  0  0  0  0  0  0  0  0  0  0  # atno 10765 bound_to 10752
  141.0639  133.9490  157.2614 H   0  0  0  0  0  0  0  0  0  0  0  0  # atno 11005 bound_to 11000
  146.3422  139.9178  142.8771 LP  0  0  0  0  0  0  0  0  0  0  0  0  # atno 17320 bound_to 7965
  145.2339  140.9984  143.3974 LP  0  0  0  0  0  0  0  0  0  0  0  0  # atno 17321 bound_to 7965
  140.5198  143.2269  151.8407 LP  0  0  0  0  0  0  0  0  0  0  0  0  # atno 17342 bound_to 10162
  139.4823  144.4851  151.9257 LP  0  0  0  0  0  0  0  0  0  0  0  0  # atno 17343 bound_to 10162
  156.5424  130.8306  151.3273 LP  0  0  0  0  0  0  0  0  0  0  0  0  # atno 17370 bound_to 10713
  157.7385  130.9815  150.2259 LP  0  0  0  0  0  0  0  0  0  0  0  0  # atno 17371 bound_to 10713
  139.9458  135.0184  156.8849 LP  0  0  0  0  0  0  0  0  0  0  0  0  # atno 17394 bound_to 11000
  140.5812  134.0350  155.7465 LP  0  0  0  0  0  0  0  0  0  0  0  0  # atno 17395 bound_to 11000

$$$$
