AV-unprocessed.smi:35|AV-procd|sdf|267|dock8
  -GOLD-   2262016 33D 1   1.00000     0.00000
 Structure written by MMmdl.
 28 29  0  0  0  0  0  0  0  0  2 V2000
  152.5821  139.2392  155.4871 O   0  0  0  0  0  0  0  0  0  0  0  0
  151.4062  139.3413  155.1424 C   0  0  0  0  0  0  0  0  0  0  0  0
  150.8316  140.5339  154.8134 N   0  5  0  0  0  0  0  0  0  0  0  0
  149.5285  140.6403  154.4199 C   0  0  0  0  0  0  0  0  0  0  0  0
  148.9967  141.7163  154.1441 O   0  0  0  0  0  0  0  0  0  0  0  0
  148.7365  139.4617  154.3212 N   0  0  0  0  0  0  0  0  0  0  0  0
  147.2834  139.5950  153.8963 C   0  0  2  0  0  0  0  0  0  0  0  0
  146.4592  138.9020  154.7856 O   0  0  0  0  0  0  0  0  0  0  0  0
  146.2131  137.5939  154.2852 C   0  0  1  0  0  0  0  0  0  0  0  0
  144.9645  137.0026  154.9565 C   0  0  0  0  0  0  0  0  0  0  0  0
  145.1729  136.8852  156.3480 O   0  0  0  0  0  0  0  0  0  0  0  0
  146.0402  137.8556  152.7883 C   0  0  2  0  0  0  0  0  0  0  0  0
  146.3541  136.6947  152.0451 O   0  0  0  0  0  0  0  0  0  0  0  0
  147.0469  138.9678  152.5042 C   0  0  1  0  0  0  0  0  0  0  0  0
  146.4996  139.9038  151.5985 O   0  0  0  0  0  0  0  0  0  0  0  0
  149.2858  138.2414  154.6848 C   0  0  0  0  0  0  0  0  0  0  0  0
  150.5710  138.1455  155.0808 C   0  0  0  0  0  0  0  0  0  0  0  0
  151.2201  136.3372  155.5666 Br  0  0  0  0  0  0  0  0  0  0  0  0
  147.0735  140.6647  153.9558 H   0  0  0  0  0  0  0  0  0  0  0  0
  147.0857  136.9584  154.4496 H   0  0  0  0  0  0  0  0  0  0  0  0
  144.0800  137.6068  154.7532 H   0  0  0  0  0  0  0  0  0  0  0  0
  144.7697  136.0020  154.5697 H   0  0  0  0  0  0  0  0  0  0  0  0
  144.9062  136.0205  156.6201 H   0  0  0  0  0  0  0  0  0  0  0  0
  145.0209  138.1841  152.5771 H   0  0  0  0  0  0  0  0  0  0  0  0
  147.2449  136.7709  151.7387 H   0  0  0  0  0  0  0  0  0  0  0  0
  147.9817  138.5672  152.1083 H   0  0  0  0  0  0  0  0  0  0  0  0
  145.6193  140.1039  151.8809 H   0  0  0  0  0  0  0  0  0  0  0  0
  148.6918  137.3409  154.6634 H   0  0  0  0  0  0  0  0  0  0  0  0
  1  2  2  0  0  0  0
  2 17  1  0  0  0  0
  2  3  1  0  0  0  0
  3  4  1  0  0  0  0
  4  5  2  0  0  0  0
  4  6  1  0  0  0  0
  6  7  1  0  0  0  0
  6 16  1  0  0  0  0
  7 14  1  0  0  0  0
  7  8  1  0  0  0  0
  7 19  1  0  0  0  0
  8  9  1  0  0  0  0
  9 10  1  0  0  0  0
  9 12  1  0  0  0  0
  9 20  1  0  0  0  0
 10 11  1  0  0  0  0
 10 21  1  0  0  0  0
 10 22  1  0  0  0  0
 11 23  1  0  0  0  0
 12 13  1  0  0  0  0
 12 14  1  0  0  0  0
 12 24  1  0  0  0  0
 13 25  1  0  0  0  0
 14 15  1  0  0  0  0
 14 26  1  0  0  0  0
 15 27  1  0  0  0  0
 16 17  2  0  0  0  0
 16 28  1  0  0  0  0
 17 18  1  0  0  0  0
M  CHG  1   3  -1
M  END
> <s_m_source_file>
AV-unprocessed.smi

> <i_m_source_file_index>
35

> <i_lp_mmshare_version>
43012

> <i_f3d_flags>
0

> <s_epik_input>
Tz1jMVtuSF1jKD1PKW4oW2NIXWMxQnIpW0NAQEhdMk9bQ0BASF0oW0NIMl1bT0hdKVtDQEBIXShbT0hdKVtDQEhdMltPSF0=

> <s_epik_cmdline>
J2VwaWtfcHl0aG9uJywgJy1waCcsICc3LjAnLCAnLXRuJywgJzgnLCAnLW1hJywgJzIwMCcsICctbWV0YWxfYmluZGluZycsICctaW1hZScsICc8aW5maWxlLm1hZT4nLCAnLW9tYWUnLCAnPG91dGZpbGUubWFlPic=

> <r_epik_Ionization_Penalty>
1.06112

> <r_epik_Ionization_Penalty_Charging>
2.1796e-09

> <r_epik_Ionization_Penalty_Neutral>
1.06112

> <r_epik_State_Penalty>
1.11484

> <r_epik_Charging_Adjusted_Penalty>
1.11484

> <i_epik_Tot_Q>
-1

> <i_epik_Tot_abs_Q>
1

> <r_epik_Metal_State_Penalty>
0.0032876

> <b_epik_Metal_Only>
0

> <s_epik_Chemistry_Notes>
This compound contains an acetal/aminal-like group ( X-CH(R)-Y where X, Y are N, S, or O) that may be acid/base labile, releasing an aldehyde.

> <s_lp_Force_Field>
OPLS_2005

> <r_lp_Energy>
34.7757

> <b_lp_Chiralities_Consistent>
1

> <s_lp_Variant>
AV-unprocessed.smi:35-21

> <Gold.Version>
5.8.1

> <Gold.Id.Protein>
6NUR|6NUR_protein|mol2

> <Gold.PLP.Fitness>
36.8696

> <Gold.PLP.PLP>
-24.3630

> <Gold.PLP.part.hbond>
-5.6420

> <Gold.PLP.part.metal>
0.0000

> <Gold.PLP.part.buried>
-1.0672

> <Gold.PLP.part.nonpolar>
-17.8085

> <Gold.PLP.part.repulsive>
0.3477

> <Gold.PLP.ligand.clash>
0.0000

> <Gold.PLP.ligand.torsion>
0.2211

> <Gold.PLP.Chemscore.Hbond>
4.3062

> <Gold.PLP.Chemscore.CHOScore>
0.0000

> <Gold.PLP.Chemscore.Metal>
0.0000

> <Gold.Chemscore.Hbonds>
donor molecule, donor type, donor heavy atom, donor atom, acceptor molecule, acceptor atom, score
      L1  H    13    25       P1  7948  0.99
      L1  H    15    27       P1 10175  0.98
      P1  H  7989  7998       L1     3  1.00
      P1  H  7997  8009       L1     1  0.83
      P1  H  8011  8017       L1     5  0.46

> <Gold.PLP.Chemscore.Internal.Correction>
0.0303

> <Gold.Rescore>
     Score         DG    S(hbond)    S(metal)    S(lipo)     H(rot)  DE(clash)    DE(int)     intcor
      9.45     -10.30       3.21        0.00      29.02       3.63       0.55       0.30       ----

> <Gold.Chemscore.Fitness>
9.4528

> <Gold.Chemscore.DG>
-10.2996

> <Gold.Chemscore.ZeroCoef>
-5.4800

> <Gold.Chemscore.Hbond>
3.2057

> <Gold.Chemscore.Metal>
0.0000

> <Gold.Chemscore.Lipo>
29.0190

> <Gold.Chemscore.Internal_Hbond>
0.0000

> <Gold.Chemscore.DEClash>
0.5467

> <Gold.Chemscore.DEInternal>
0.3000

> <Gold.Chemscore.Rot>
3.6261

> <Gold.Chemscore.Internal.Correction>
   9.000000E+99

> <Gold.Chemscore.Hbonds>
donor molecule, donor type, donor heavy atom, donor atom, acceptor molecule, acceptor atom, score
      L1  H    13    25       P1  7948  0.93
      L1  H    15    27       P1 10175  0.36
      P1  H  7989  7998       L1     3  0.11
      P1  H  7997  8009       L1     1  0.82
      P1  H  8011  8017       L1     5  0.31

> <Gold.Chemscore.Hbond.Weighted>
-10.7071

> <Gold.Chemscore.Metal.Weighted>
-0.0000

> <Gold.Chemscore.Lipo.Weighted>
-3.3952

> <Gold.Chemscore.Internal_Hbond.Weighted>
0.0000

> <Gold.Chemscore.DEClash.Weighted>
0.5467

> <Gold.Chemscore.DEInternal.Weighted>
0.3000

> <Gold.Chemscore.Rot.Weighted>
9.2828

> <Gold.Chemscore.Internal.Correction.Weighted>
   9.000000E+99

> <Gold.Protein.RotatedTorsions>
[ 6907 6896 6895 6894 ] final   15.04 input  -60.11 | X-H torsion
[ 7974 7965 7964 7962 ] final   33.54 input  175.53 | X-H torsion
[ 8008 7997 7996 7995 ] final -146.95 input   59.86 | X-H torsion
[ 10167 10162 10161 10158 ] final  143.36 input  -65.29 | X-H torsion
[ 10718 10713 10712 10709 ] final  -31.51 input   66.30 | X-H torsion
[ 10763 10752 10751 10750 ] final -174.19 input  -60.55 | X-H torsion
[ 11005 11000 10999 10996 ] final   42.64 input  -57.11 | X-H torsion

> <Gold.Protein.ActiveResidues>
 VAL166  LYS551  ARG553  GLY616  TRP617  ASP618  TYR619  PRO620  LYS621  CYS622 
 ASP623  PHE694  ASN695  SER759  ASP760  ASP761  ALA762  ILE779  LEU786  VAL792 
 PHE793  MET794  SER795  GLU796  ALA797  LYS798  CYS799  TRP800  GLU811  SER814 

> <Gold.Protein.RotatedAtoms>
  151.8119  135.0678  160.0413 H   0  0  0  0  0  0  0  0  0  0  0  0  # atno 6907 bound_to 6896
  152.3014  133.5655  159.5629 H   0  0  0  0  0  0  0  0  0  0  0  0  # atno 6908 bound_to 6896
  150.7275  134.0201  159.3740 H   0  0  0  0  0  0  0  0  0  0  0  0  # atno 6909 bound_to 6896
  146.1414  139.6384  142.9161 H   0  0  0  0  0  0  0  0  0  0  0  0  # atno 7974 bound_to 7965
  155.5677  140.0631  157.2814 H   0  0  0  0  0  0  0  0  0  0  0  0  # atno 8008 bound_to 7997
  154.4370  140.1874  156.0893 H   0  0  0  0  0  0  0  0  0  0  0  0  # atno 8009 bound_to 7997
  156.0400  140.3296  155.7237 H   0  0  0  0  0  0  0  0  0  0  0  0  # atno 8010 bound_to 7997
  139.4971  144.6046  151.6408 H   0  0  0  0  0  0  0  0  0  0  0  0  # atno 10167 bound_to 10162
  156.3864  130.4365  149.7429 H   0  0  0  0  0  0  0  0  0  0  0  0  # atno 10718 bound_to 10713
  154.5992  135.2853  155.0554 H   0  0  0  0  0  0  0  0  0  0  0  0  # atno 10763 bound_to 10752
  154.1825  135.6454  153.5042 H   0  0  0  0  0  0  0  0  0  0  0  0  # atno 10764 bound_to 10752
  153.0150  135.5427  154.6704 H   0  0  0  0  0  0  0  0  0  0  0  0  # atno 10765 bound_to 10752
  140.1720  134.4210  155.8251 H   0  0  0  0  0  0  0  0  0  0  0  0  # atno 11005 bound_to 11000
  145.5039  141.0437  143.2525 LP  0  0  0  0  0  0  0  0  0  0  0  0  # atno 17320 bound_to 7965
  144.7796  139.6554  143.7160 LP  0  0  0  0  0  0  0  0  0  0  0  0  # atno 17321 bound_to 7965
  140.5704  144.0119  150.6214 LP  0  0  0  0  0  0  0  0  0  0  0  0  # atno 17342 bound_to 10162
  140.3234  143.3122  152.0761 LP  0  0  0  0  0  0  0  0  0  0  0  0  # atno 17343 bound_to 10162
  156.4499  130.7902  151.2923 LP  0  0  0  0  0  0  0  0  0  0  0  0  # atno 17370 bound_to 10713
  157.7496  131.0098  150.3283 LP  0  0  0  0  0  0  0  0  0  0  0  0  # atno 17371 bound_to 10713
  141.2218  133.6960  156.7780 LP  0  0  0  0  0  0  0  0  0  0  0  0  # atno 17394 bound_to 11000
  140.2367  134.8645  157.3531 LP  0  0  0  0  0  0  0  0  0  0  0  0  # atno 17395 bound_to 11000

$$$$
