AV-unprocessed.smi:1055|AV-procd|sdf|4624|dock6
  -GOLD-   22720 3123D 1   1.00000     0.00000
 Structure written by MMmdl.
 52 53  0  0  0  0  0  0  0  0  3 V2000
  145.5705  130.6100  151.4869 C   0  0  0  0  0  0  0  0  0  0  0  0
  145.0071  131.5971  150.7705 C   0  0  0  0  0  0  0  0  0  0  0  0
  145.4944  131.9594  149.3800 C   0  0  0  0  0  0  0  0  0  0  0  0
  143.8472  132.4225  151.3051 C   0  0  0  0  0  0  0  0  0  0  0  0
  144.2629  133.8098  151.6298 N   0  3  2  0  0  0  0  0  0  0  0  0
  143.2818  134.5015  152.5032 C   0  0  0  0  0  0  0  0  0  0  0  0
  143.8118  135.8731  152.9529 C   0  0  0  0  0  0  0  0  0  0  0  0
  144.1745  136.7557  151.7435 C   0  0  1  0  0  0  0  0  0  0  0  0
  144.7786  138.0129  152.1765 N   0  0  0  0  0  0  0  0  0  0  0  0
  146.0145  138.1429  152.6802 C   0  0  0  0  0  0  0  0  0  0  0  0
  146.7873  137.1968  152.8269 O   0  0  0  0  0  0  0  0  0  0  0  0
  146.2850  139.4260  152.9783 N   0  0  0  0  0  0  0  0  0  0  0  0
  147.4718  139.9860  153.5267 C   0  0  0  0  0  0  0  0  0  0  0  0
  148.5475  139.1114  153.7870 C   0  0  0  0  0  0  0  0  0  0  0  0
  149.7515  139.6152  154.3203 C   0  0  0  0  0  0  0  0  0  0  0  0
  149.8785  141.0001  154.5882 C   0  0  0  0  0  0  0  0  0  0  0  0
  151.0503  141.5806  155.1203 N   0  0  0  0  0  0  0  0  0  0  0  0
  151.0803  143.0080  155.4192 C   0  0  0  0  0  0  0  0  0  0  0  0
  152.1796  140.7323  155.4792 C   0  0  0  0  0  0  0  0  0  0  0  0
  148.8212  141.8026  154.3134 N   0  3  0  0  0  0  0  0  0  0  0  0
  147.6507  141.3628  153.8030 C   0  0  0  0  0  0  0  0  0  0  0  0
  145.1509  135.9985  150.8283 C   0  0  0  0  0  0  0  0  0  0  0  0
  144.5929  134.6220  150.4288 C   0  0  0  0  0  0  0  0  0  0  0  0
  146.3958  130.0334  151.0950 H   0  0  0  0  0  0  0  0  0  0  0  0
  145.2162  130.3621  152.4768 H   0  0  0  0  0  0  0  0  0  0  0  0
  145.8043  133.0043  149.3478 H   0  0  0  0  0  0  0  0  0  0  0  0
  144.7029  131.8127  148.6447 H   0  0  0  0  0  0  0  0  0  0  0  0
  146.3461  131.3455  149.0845 H   0  0  0  0  0  0  0  0  0  0  0  0
  143.0221  132.4411  150.5910 H   0  0  0  0  0  0  0  0  0  0  0  0
  143.4748  131.9243  152.2014 H   0  0  0  0  0  0  0  0  0  0  0  0
  142.3362  134.6179  151.9712 H   0  0  0  0  0  0  0  0  0  0  0  0
  143.0776  133.8910  153.3837 H   0  0  0  0  0  0  0  0  0  0  0  0
  143.0620  136.3674  153.5717 H   0  0  0  0  0  0  0  0  0  0  0  0
  144.6894  135.7321  153.5858 H   0  0  0  0  0  0  0  0  0  0  0  0
  143.2683  136.9733  151.1744 H   0  0  0  0  0  0  0  0  0  0  0  0
  144.2114  138.8435  152.0892 H   0  0  0  0  0  0  0  0  0  0  0  0
  145.5611  140.0920  152.7517 H   0  0  0  0  0  0  0  0  0  0  0  0
  148.4544  138.0546  153.5828 H   0  0  0  0  0  0  0  0  0  0  0  0
  150.5608  138.9271  154.5135 H   0  0  0  0  0  0  0  0  0  0  0  0
  150.8336  143.5934  154.5330 H   0  0  0  0  0  0  0  0  0  0  0  0
  152.0683  143.3213  155.7570 H   0  0  0  0  0  0  0  0  0  0  0  0
  150.3642  143.2486  156.2054 H   0  0  0  0  0  0  0  0  0  0  0  0
  152.5820  140.2366  154.5954 H   0  0  0  0  0  0  0  0  0  0  0  0
  151.8760  139.9716  156.1992 H   0  0  0  0  0  0  0  0  0  0  0  0
  152.9839  141.3141  155.9300 H   0  0  0  0  0  0  0  0  0  0  0  0
  146.9186  142.1369  153.6321 H   0  0  0  0  0  0  0  0  0  0  0  0
  145.3555  136.5857  149.9321 H   0  0  0  0  0  0  0  0  0  0  0  0
  146.1078  135.8646  151.3354 H   0  0  0  0  0  0  0  0  0  0  0  0
  145.3321  134.1062  149.8155 H   0  0  0  0  0  0  0  0  0  0  0  0
  143.7007  134.7423  149.8124 H   0  0  0  0  0  0  0  0  0  0  0  0
  145.1123  133.7283  152.1703 H   0  0  0  0  0  0  0  0  0  0  0  0
  148.9145  142.8011  154.5007 H   0  0  0  0  0  0  0  0  0  0  0  0
  1  2  2  0  0  0  0
  1 24  1  0  0  0  0
  1 25  1  0  0  0  0
  2  3  1  0  0  0  0
  2  4  1  0  0  0  0
  3 26  1  0  0  0  0
  3 27  1  0  0  0  0
  3 28  1  0  0  0  0
  4  5  1  0  0  0  0
  4 29  1  0  0  0  0
  4 30  1  0  0  0  0
  5 23  1  0  0  0  0
  5  6  1  0  0  0  0
  5 51  1  0  0  0  0
  6  7  1  0  0  0  0
  6 31  1  0  0  0  0
  6 32  1  0  0  0  0
  7  8  1  0  0  0  0
  7 33  1  0  0  0  0
  7 34  1  0  0  0  0
  8  9  1  0  0  0  0
  8 22  1  0  0  0  0
  8 35  1  0  0  0  0
  9 10  1  0  0  0  0
  9 36  1  0  0  0  0
 10 11  2  0  0  0  0
 10 12  1  0  0  0  0
 12 13  1  0  0  0  0
 12 37  1  0  0  0  0
 13 21  1  0  0  0  0
 13 14  2  0  0  0  0
 14 15  1  0  0  0  0
 14 38  1  0  0  0  0
 15 16  2  0  0  0  0
 15 39  1  0  0  0  0
 16 17  1  0  0  0  0
 16 20  1  0  0  0  0
 17 18  1  0  0  0  0
 17 19  1  0  0  0  0
 18 40  1  0  0  0  0
 18 41  1  0  0  0  0
 18 42  1  0  0  0  0
 19 43  1  0  0  0  0
 19 44  1  0  0  0  0
 19 45  1  0  0  0  0
 20 21  2  0  0  0  0
 20 52  1  0  0  0  0
 21 46  1  0  0  0  0
 22 23  1  0  0  0  0
 22 47  1  0  0  0  0
 22 48  1  0  0  0  0
 23 49  1  0  0  0  0
 23 50  1  0  0  0  0
M  CHG  1   5   1
M  CHG  1  20   1
M  END
> <s_m_source_file>
AV-unprocessed.smi

> <i_m_source_file_index>
1055

> <i_lp_mmshare_version>
43012

> <i_f3d_flags>
0

> <s_epik_input>
W0NIMl09QyhbQ0gzXSlbQ0gyXU4xW0NIMl1bQ0gyXVtDSF0oW0NIMl1bQ0gyXTEpW05IXUMoPU8pW05IXWMyW2NIXVtjSF1jKE4oW0NIM10pW0NIM10pbltjSF0y

> <s_epik_cmdline>
J2VwaWtfcHl0aG9uJywgJy1waCcsICc3LjAnLCAnLXRuJywgJzgnLCAnLW1hJywgJzIwMCcsICctbWV0YWxfYmluZGluZycsICctaW1hZScsICc8aW5maWxlLm1hZT4nLCAnLW9tYWUnLCAnPG91dGZpbGUubWFlPic=

> <r_lp_tautomer_probability>
0.999994

> <r_epik_Ionization_Penalty>
0.344238

> <r_epik_Ionization_Penalty_Charging>
0.344219

> <r_epik_Ionization_Penalty_Neutral>
1.87459e-05

> <r_epik_State_Penalty>
0.320654

> <r_epik_Charging_Adjusted_Penalty>
0.664873

> <i_epik_Tot_Q>
2

> <i_epik_Tot_abs_Q>
2

> <r_epik_Metal_State_Penalty>
0.58246

> <b_epik_Metal_Only>
0

> <s_lp_Force_Field>
OPLS_2005

> <r_lp_Energy>
26.1172

> <b_lp_Chiralities_Consistent>
1

> <s_lp_Variant>
AV-unprocessed.smi:1055-1

> <Gold.Version>
5.8.1

> <Gold.Id.Protein>
6NUR|6NUR_protein|mol2

> <Gold.PLP.Fitness>
50.3406

> <Gold.PLP.PLP>
-39.0337

> <Gold.PLP.part.hbond>
-3.9470

> <Gold.PLP.part.metal>
0.0000

> <Gold.PLP.part.buried>
0.2387

> <Gold.PLP.part.nonpolar>
-37.1267

> <Gold.PLP.part.repulsive>
2.6349

> <Gold.PLP.ligand.clash>
0.0000

> <Gold.PLP.ligand.torsion>
0.3302

> <Gold.PLP.Chemscore.Hbond>
3.9600

> <Gold.PLP.Chemscore.CHOScore>
0.0000

> <Gold.PLP.Chemscore.Metal>
0.0000

> <Gold.Chemscore.Hbonds>
donor molecule, donor type, donor heavy atom, donor atom, acceptor molecule, acceptor atom, score
      L1  H     9    36       P1 10175  1.00
      L1  H    12    37       P1 10175  0.99
      L1  H    20    52       P1  8028  1.04

> <Gold.PLP.Chemscore.Internal.Correction>
0.0873

> <Gold.Rescore>
     Score         DG    S(hbond)    S(metal)    S(lipo)     H(rot)  DE(clash)    DE(int)     intcor
     16.95     -22.00       2.94        0.00      86.91       1.35       1.72       3.33       ----

> <Gold.Chemscore.Fitness>
16.9532

> <Gold.Chemscore.DG>
-22.0039

> <Gold.Chemscore.ZeroCoef>
-5.4800

> <Gold.Chemscore.Hbond>
2.9350

> <Gold.Chemscore.Metal>
0.0000

> <Gold.Chemscore.Lipo>
86.9051

> <Gold.Chemscore.Internal_Hbond>
0.0000

> <Gold.Chemscore.DEClash>
1.7204

> <Gold.Chemscore.DEInternal>
3.3303

> <Gold.Chemscore.Rot>
1.3465

> <Gold.Chemscore.Internal.Correction>
   9.000000E+99

> <Gold.Chemscore.Hbonds>
donor molecule, donor type, donor heavy atom, donor atom, acceptor molecule, acceptor atom, score
      L1  H     9    36       P1 10175  0.99
      L1  H    12    37       P1 10175  0.91
      L1  H    20    52       P1  8028  0.52

> <Gold.Chemscore.Hbond.Weighted>
-9.8030

> <Gold.Chemscore.Metal.Weighted>
-0.0000

> <Gold.Chemscore.Lipo.Weighted>
-10.1679

> <Gold.Chemscore.Internal_Hbond.Weighted>
0.0000

> <Gold.Chemscore.DEClash.Weighted>
1.7204

> <Gold.Chemscore.DEInternal.Weighted>
3.3303

> <Gold.Chemscore.Rot.Weighted>
3.4470

> <Gold.Chemscore.Internal.Correction.Weighted>
   9.000000E+99

> <Gold.Protein.RotatedTorsions>
[ 6907 6896 6895 6894 ] final  -59.03 input  -60.11 | X-H torsion
[ 7974 7965 7964 7962 ] final  -98.29 input  175.53 | X-H torsion
[ 8008 7997 7996 7995 ] final   28.67 input   59.86 | X-H torsion
[ 10167 10162 10161 10158 ] final  142.81 input  -65.29 | X-H torsion
[ 10718 10713 10712 10709 ] final  115.65 input   66.30 | X-H torsion
[ 10763 10752 10751 10750 ] final  109.03 input  -60.55 | X-H torsion
[ 11005 11000 10999 10996 ] final -154.24 input  -57.11 | X-H torsion

> <Gold.Protein.ActiveResidues>
 VAL166  LYS551  ARG553  GLY616  TRP617  ASP618  TYR619  PRO620  LYS621  CYS622 
 ASP623  PHE694  ASN695  SER759  ASP760  ASP761  ALA762  ILE779  LEU786  VAL792 
 PHE793  MET794  SER795  GLU796  ALA797  LYS798  CYS799  TRP800  GLU811  SER814 

> <Gold.Protein.RotatedAtoms>
  150.7961  134.7021  159.6555 H   0  0  0  0  0  0  0  0  0  0  0  0  # atno 6907 bound_to 6896
  152.4073  134.6181  160.0053 H   0  0  0  0  0  0  0  0  0  0  0  0  # atno 6908 bound_to 6896
  151.6435  133.3288  159.3171 H   0  0  0  0  0  0  0  0  0  0  0  0  # atno 6909 bound_to 6896
  145.3226  140.9425  143.2707 H   0  0  0  0  0  0  0  0  0  0  0  0  # atno 7974 bound_to 7965
  155.0624  140.3191  155.4656 H   0  0  0  0  0  0  0  0  0  0  0  0  # atno 8008 bound_to 7997
  156.2810  140.2126  156.5695 H   0  0  0  0  0  0  0  0  0  0  0  0  # atno 8009 bound_to 7997
  154.7121  140.0497  157.0548 H   0  0  0  0  0  0  0  0  0  0  0  0  # atno 8010 bound_to 7997
  139.4985  144.6082  151.6330 H   0  0  0  0  0  0  0  0  0  0  0  0  # atno 10167 bound_to 10162
  157.6209  131.1015  150.7360 H   0  0  0  0  0  0  0  0  0  0  0  0  # atno 10718 bound_to 10713
  153.4289  135.3793  155.2158 H   0  0  0  0  0  0  0  0  0  0  0  0  # atno 10763 bound_to 10752
  154.8749  135.3835  154.4292 H   0  0  0  0  0  0  0  0  0  0  0  0  # atno 10764 bound_to 10752
  153.4822  135.7088  153.5994 H   0  0  0  0  0  0  0  0  0  0  0  0  # atno 10765 bound_to 10752
  140.6995  134.3953  157.5211 H   0  0  0  0  0  0  0  0  0  0  0  0  # atno 11005 bound_to 11000
  144.8927  139.4752  143.6670 LP  0  0  0  0  0  0  0  0  0  0  0  0  # atno 17320 bound_to 7965
  146.3077  139.7635  142.9044 LP  0  0  0  0  0  0  0  0  0  0  0  0  # atno 17321 bound_to 7965
  140.5750  144.0044  150.6237 LP  0  0  0  0  0  0  0  0  0  0  0  0  # atno 17342 bound_to 10162
  140.3174  143.3159  152.0818 LP  0  0  0  0  0  0  0  0  0  0  0  0  # atno 17343 bound_to 10162
  156.7717  130.4831  149.5417 LP  0  0  0  0  0  0  0  0  0  0  0  0  # atno 17370 bound_to 10713
  156.1354  130.6207  151.0393 LP  0  0  0  0  0  0  0  0  0  0  0  0  # atno 17371 bound_to 10713
  139.8901  134.8814  156.2389 LP  0  0  0  0  0  0  0  0  0  0  0  0  # atno 17394 bound_to 11000
  141.0175  133.7060  156.1213 LP  0  0  0  0  0  0  0  0  0  0  0  0  # atno 17395 bound_to 11000

$$$$
