AV-unprocessed.smi:1264|AV-procd|sdf|5314|dock8
  -GOLD-   22720 4443D 1   1.00000     0.00000
 Structure written by MMmdl.
 43 43  0  0  0  0  0  0  0  0  1 V2000
  146.3143  138.0617  151.8207 C   0  0  0  0  0  0  0  0  0  0  0  0
  146.5187  136.6236  151.8983 N   0  0  0  0  0  0  0  0  0  0  0  0
  145.5768  135.7469  152.2744 C   0  0  0  0  0  0  0  0  0  0  0  0
  144.4386  136.0838  152.6068 O   0  0  0  0  0  0  0  0  0  0  0  0
  145.9946  134.2664  152.2938 C   0  0  1  0  0  0  0  0  0  0  0  0
  145.8879  133.7256  150.8482 C   0  0  0  0  0  0  0  0  0  0  0  0
  145.9693  132.1878  150.7119 C   0  0  0  0  0  0  0  0  0  0  0  0
  146.0844  131.7839  149.2343 C   0  0  0  0  0  0  0  0  0  0  0  0
  144.7759  131.4746  151.3692 C   0  0  0  0  0  0  0  0  0  0  0  0
  147.3827  134.1497  152.7378 N   0  0  0  0  0  0  0  0  0  0  0  0
  147.8515  133.2354  153.6014 C   0  0  0  0  0  0  0  0  0  0  0  0
  147.1592  132.3444  154.0927 O   0  0  0  0  0  0  0  0  0  0  0  0
  149.3265  133.3580  153.9797 C   0  0  0  0  0  0  0  0  0  0  0  0
  149.4399  133.7380  155.4339 C   0  0  0  0  0  0  0  0  0  0  0  0
  150.0974  133.0230  156.4757 C   0  0  0  0  0  0  0  0  0  0  0  0
  150.8408  131.7211  156.3891 C   0  0  0  0  0  0  0  0  0  0  0  0
  149.9998  133.6435  157.6396 N   0  0  0  0  0  0  0  0  0  0  0  0
  149.2546  134.8009  157.3950 O   0  0  0  0  0  0  0  0  0  0  0  0
  148.9327  134.8341  156.0770 C   0  0  0  0  0  0  0  0  0  0  0  0
  148.1204  135.9975  155.6180 C   0  0  0  0  0  0  0  0  0  0  0  0
  147.2300  138.5497  151.4870 H   0  0  0  0  0  0  0  0  0  0  0  0
  146.0462  138.4687  152.7966 H   0  0  0  0  0  0  0  0  0  0  0  0
  145.5210  138.3033  151.1120 H   0  0  0  0  0  0  0  0  0  0  0  0
  147.4306  136.2710  151.6449 H   0  0  0  0  0  0  0  0  0  0  0  0
  145.3343  133.7101  152.9609 H   0  0  0  0  0  0  0  0  0  0  0  0
  144.9512  134.0635  150.4006 H   0  0  0  0  0  0  0  0  0  0  0  0
  146.6804  134.1710  150.2435 H   0  0  0  0  0  0  0  0  0  0  0  0
  146.8775  131.8405  151.2053 H   0  0  0  0  0  0  0  0  0  0  0  0
  145.2041  132.0928  148.6692 H   0  0  0  0  0  0  0  0  0  0  0  0
  146.1860  130.7036  149.1279 H   0  0  0  0  0  0  0  0  0  0  0  0
  146.9571  132.2413  148.7672 H   0  0  0  0  0  0  0  0  0  0  0  0
  143.8295  131.8128  150.9461 H   0  0  0  0  0  0  0  0  0  0  0  0
  144.7442  131.6483  152.4444 H   0  0  0  0  0  0  0  0  0  0  0  0
  144.8369  130.3957  151.2228 H   0  0  0  0  0  0  0  0  0  0  0  0
  148.0268  134.8469  152.3943 H   0  0  0  0  0  0  0  0  0  0  0  0
  149.8261  132.4107  153.7743 H   0  0  0  0  0  0  0  0  0  0  0  0
  149.8041  134.0966  153.3349 H   0  0  0  0  0  0  0  0  0  0  0  0
  150.3046  131.0063  155.7647 H   0  0  0  0  0  0  0  0  0  0  0  0
  150.9724  131.2656  157.3713 H   0  0  0  0  0  0  0  0  0  0  0  0
  151.8295  131.8659  155.9538 H   0  0  0  0  0  0  0  0  0  0  0  0
  148.3066  136.2125  154.5659 H   0  0  0  0  0  0  0  0  0  0  0  0
  148.3612  136.8925  156.1918 H   0  0  0  0  0  0  0  0  0  0  0  0
  147.0563  135.7935  155.7379 H   0  0  0  0  0  0  0  0  0  0  0  0
  1  2  1  0  0  0  0
  1 21  1  0  0  0  0
  1 22  1  0  0  0  0
  1 23  1  0  0  0  0
  2  3  1  0  0  0  0
  2 24  1  0  0  0  0
  3  4  2  0  0  0  0
  3  5  1  0  0  0  0
  5  6  1  0  0  0  0
  5 10  1  0  0  0  0
  5 25  1  0  0  0  0
  6  7  1  0  0  0  0
  6 26  1  0  0  0  0
  6 27  1  0  0  0  0
  7  8  1  0  0  0  0
  7  9  1  0  0  0  0
  7 28  1  0  0  0  0
  8 29  1  0  0  0  0
  8 30  1  0  0  0  0
  8 31  1  0  0  0  0
  9 32  1  0  0  0  0
  9 33  1  0  0  0  0
  9 34  1  0  0  0  0
 10 11  1  0  0  0  0
 10 35  1  0  0  0  0
 11 12  2  0  0  0  0
 11 13  1  0  0  0  0
 13 14  1  0  0  0  0
 13 36  1  0  0  0  0
 13 37  1  0  0  0  0
 14 19  2  0  0  0  0
 14 15  1  0  0  0  0
 15 16  1  0  0  0  0
 15 17  2  0  0  0  0
 16 38  1  0  0  0  0
 16 39  1  0  0  0  0
 16 40  1  0  0  0  0
 17 18  1  0  0  0  0
 18 19  1  0  0  0  0
 19 20  1  0  0  0  0
 20 41  1  0  0  0  0
 20 42  1  0  0  0  0
 20 43  1  0  0  0  0
M  END
> <s_m_source_file>
AV-unprocessed.smi

> <i_m_source_file_index>
1264

> <i_lp_mmshare_version>
43012

> <i_f3d_flags>
0

> <s_epik_input>
W0NIM11bTkhdQyg9TylbQ0BIXShbQ0gyXVtDSF0oW0NIM10pW0NIM10pW05IXUMoPU8pW0NIMl1jMWMoW0NIM10pbm9jMVtDSDNd

> <s_epik_cmdline>
J2VwaWtfcHl0aG9uJywgJy1waCcsICc3LjAnLCAnLXRuJywgJzgnLCAnLW1hJywgJzIwMCcsICctbWV0YWxfYmluZGluZycsICctaW1hZScsICc8aW5maWxlLm1hZT4nLCAnLW9tYWUnLCAnPG91dGZpbGUubWFlPic=

> <r_lp_tautomer_probability>
1

> <r_epik_Ionization_Penalty>
6.00781e-08

> <r_epik_Ionization_Penalty_Charging>
0

> <r_epik_Ionization_Penalty_Neutral>
6.00781e-08

> <r_epik_State_Penalty>
-0

> <r_epik_Charging_Adjusted_Penalty>
0

> <i_epik_Tot_Q>
0

> <i_epik_Tot_abs_Q>
0

> <r_epik_Metal_State_Penalty>
-0

> <b_epik_Metal_Only>
0

> <s_lp_Force_Field>
OPLS_2005

> <r_lp_Energy>
-0.987692

> <b_lp_Chiralities_Consistent>
1

> <s_lp_Variant>
AV-unprocessed.smi:1264-2

> <Gold.Version>
5.8.1

> <Gold.Id.Protein>
6NUR|6NUR_protein|mol2

> <Gold.PLP.Fitness>
40.3112

> <Gold.PLP.PLP>
-33.5448

> <Gold.PLP.part.hbond>
-2.7597

> <Gold.PLP.part.metal>
0.0000

> <Gold.PLP.part.buried>
-3.9501

> <Gold.PLP.part.nonpolar>
-28.4556

> <Gold.PLP.part.repulsive>
0.2717

> <Gold.PLP.ligand.clash>
0.0000

> <Gold.PLP.ligand.torsion>
1.0020

> <Gold.PLP.Chemscore.Hbond>
2.9040

> <Gold.PLP.Chemscore.CHOScore>
0.0000

> <Gold.PLP.Chemscore.Metal>
0.0000

> <Gold.Chemscore.Hbonds>
donor molecule, donor type, donor heavy atom, donor atom, acceptor molecule, acceptor atom, score
      L1  H     2    24       P1  7948  0.94
      L1  H    10    35       P1  7948  1.00
      P1  H  6896  6909       L1    17  1.00

> <Gold.PLP.Chemscore.Internal.Correction>
0.0584

> <Gold.Rescore>
     Score         DG    S(hbond)    S(metal)    S(lipo)     H(rot)  DE(clash)    DE(int)     intcor
     17.12     -18.15       2.87        0.00      72.15       2.09       0.02       1.01       ----

> <Gold.Chemscore.Fitness>
17.1179

> <Gold.Chemscore.DG>
-18.1509

> <Gold.Chemscore.ZeroCoef>
-5.4800

> <Gold.Chemscore.Hbond>
2.8707

> <Gold.Chemscore.Metal>
0.0000

> <Gold.Chemscore.Lipo>
72.1479

> <Gold.Chemscore.Internal_Hbond>
0.0000

> <Gold.Chemscore.DEClash>
0.0191

> <Gold.Chemscore.DEInternal>
1.0139

> <Gold.Chemscore.Rot>
2.0931

> <Gold.Chemscore.Internal.Correction>
   9.000000E+99

> <Gold.Chemscore.Hbonds>
donor molecule, donor type, donor heavy atom, donor atom, acceptor molecule, acceptor atom, score
      L1  H     2    24       P1  7948  0.87
      L1  H    10    35       P1  7948  0.65
      P1  H  6896  6909       L1    17  0.54

> <Gold.Chemscore.Hbond.Weighted>
-9.5880

> <Gold.Chemscore.Metal.Weighted>
-0.0000

> <Gold.Chemscore.Lipo.Weighted>
-8.4413

> <Gold.Chemscore.Internal_Hbond.Weighted>
0.0000

> <Gold.Chemscore.DEClash.Weighted>
0.0191

> <Gold.Chemscore.DEInternal.Weighted>
1.0139

> <Gold.Chemscore.Rot.Weighted>
5.3584

> <Gold.Chemscore.Internal.Correction.Weighted>
   9.000000E+99

> <Gold.Protein.RotatedTorsions>
[ 6907 6896 6895 6894 ] final    4.99 input  -60.11 | X-H torsion
[ 7974 7965 7964 7962 ] final -133.68 input  175.53 | X-H torsion
[ 8008 7997 7996 7995 ] final -114.60 input   59.86 | X-H torsion
[ 10167 10162 10161 10158 ] final  111.86 input  -65.29 | X-H torsion
[ 10718 10713 10712 10709 ] final -146.87 input   66.30 | X-H torsion
[ 10763 10752 10751 10750 ] final  179.73 input  -60.55 | X-H torsion
[ 11005 11000 10999 10996 ] final   28.91 input  -57.11 | X-H torsion

> <Gold.Protein.ActiveResidues>
 VAL166  LYS551  ARG553  GLY616  TRP617  ASP618  TYR619  PRO620  LYS621  CYS622 
 ASP623  PHE694  ASN695  SER759  ASP760  ASP761  ALA762  ILE779  LEU786  VAL792 
 PHE793  MET794  SER795  GLU796  ALA797  LYS798  CYS799  TRP800  GLU811  SER814 

> <Gold.Protein.RotatedAtoms>
  151.6503  135.1002  160.0159 H   0  0  0  0  0  0  0  0  0  0  0  0  # atno 6907 bound_to 6896
  152.4004  133.6805  159.6320 H   0  0  0  0  0  0  0  0  0  0  0  0  # atno 6908 bound_to 6896
  150.7905  133.8717  159.3301 H   0  0  0  0  0  0  0  0  0  0  0  0  # atno 6909 bound_to 6896
  144.9171  140.6968  143.4988 H   0  0  0  0  0  0  0  0  0  0  0  0  # atno 7974 bound_to 7965
  155.0389  140.0392  157.2502 H   0  0  0  0  0  0  0  0  0  0  0  0  # atno 8008 bound_to 7997
  154.7233  140.2716  155.6498 H   0  0  0  0  0  0  0  0  0  0  0  0  # atno 8009 bound_to 7997
  156.2822  140.2698  156.1911 H   0  0  0  0  0  0  0  0  0  0  0  0  # atno 8010 bound_to 7997
  139.6579  144.7129  151.1921 H   0  0  0  0  0  0  0  0  0  0  0  0  # atno 10167 bound_to 10162
  156.4004  130.7931  151.2141 H   0  0  0  0  0  0  0  0  0  0  0  0  # atno 10718 bound_to 10713
  154.5244  135.2796  155.1234 H   0  0  0  0  0  0  0  0  0  0  0  0  # atno 10763 bound_to 10752
  154.2779  135.6291  153.5339 H   0  0  0  0  0  0  0  0  0  0  0  0  # atno 10764 bound_to 10752
  152.9943  135.5644  154.5742 H   0  0  0  0  0  0  0  0  0  0  0  0  # atno 10765 bound_to 10752
  140.3105  134.2655  155.7735 H   0  0  0  0  0  0  0  0  0  0  0  0  # atno 11005 bound_to 11000
  145.3357  139.1746  143.4513 LP  0  0  0  0  0  0  0  0  0  0  0  0  # atno 17320 bound_to 7965
  146.3187  140.3392  142.8646 LP  0  0  0  0  0  0  0  0  0  0  0  0  # atno 17321 bound_to 7965
  140.7567  143.6042  150.8669 LP  0  0  0  0  0  0  0  0  0  0  0  0  # atno 17342 bound_to 10162
  139.9696  143.6071  152.2977 LP  0  0  0  0  0  0  0  0  0  0  0  0  # atno 17343 bound_to 10162
  157.7503  131.0288  150.4067 LP  0  0  0  0  0  0  0  0  0  0  0  0  # atno 17370 bound_to 10713
  156.4345  130.3979  149.6738 LP  0  0  0  0  0  0  0  0  0  0  0  0  # atno 17371 bound_to 10713
  141.2109  133.7705  156.9900 LP  0  0  0  0  0  0  0  0  0  0  0  0  # atno 17394 bound_to 11000
  140.1029  134.9524  157.1950 LP  0  0  0  0  0  0  0  0  0  0  0  0  # atno 17395 bound_to 11000

$$$$
