AV-unprocessed.smi:1556|AV-procd|sdf|6268|dock3
  -GOLD-   22720 6453D 1   1.00000     0.00000
 Structure written by MMmdl.
 37 38  0  0  0  0  0  0  0  0  1 V2000
  143.7199  132.0233  150.3879 C   0  0  0  0  0  0  0  0  0  0  0  0
  144.4817  133.2164  150.6886 N   0  0  0  0  0  0  0  0  0  0  0  0
  144.0804  134.5332  150.6223 C   0  0  0  0  0  0  0  0  0  0  0  0
  145.1436  135.3055  150.9967 C   0  0  0  0  0  0  0  0  0  0  0  0
  145.2277  136.8034  151.0908 C   0  0  0  0  0  0  0  0  0  0  0  0
  145.4757  137.2679  152.5350 C   0  0  0  0  0  0  0  0  0  0  0  0
  146.8977  137.2743  152.8565 N   0  0  0  0  0  0  0  0  0  0  0  0
  147.4522  137.9402  153.8838 C   0  0  0  0  0  0  0  0  0  0  0  0
  146.8080  138.6366  154.6660 O   0  0  0  0  0  0  0  0  0  0  0  0
  148.7851  137.7992  153.9945 N   0  0  0  0  0  0  0  0  0  0  0  0
  149.6775  138.3879  154.9937 C   0  0  2  0  0  0  0  0  0  0  0  0
  149.7807  139.9135  154.8080 C   0  0  0  0  0  0  0  0  0  0  0  0
  150.9737  140.4325  155.6211 C   0  0  0  0  0  0  0  0  0  0  0  0
  152.1881  139.0601  155.6811 S   0  0  0  0  0  0  0  0  0  0  0  0
  153.3115  139.3514  154.7777 O   0  0  0  0  0  0  0  0  0  0  0  0
  152.4209  138.6939  157.0863 O   0  0  0  0  0  0  0  0  0  0  0  0
  151.0990  137.8106  154.9026 C   0  0  0  0  0  0  0  0  0  0  0  0
  146.1619  134.3502  151.2790 C   0  0  0  0  0  0  0  0  0  0  0  0
  145.7635  133.1023  151.0925 N   0  0  0  0  0  0  0  0  0  0  0  0
  142.6930  132.2892  150.1354 H   0  0  0  0  0  0  0  0  0  0  0  0
  143.7116  131.3615  151.2543 H   0  0  0  0  0  0  0  0  0  0  0  0
  144.1697  131.5024  149.5423 H   0  0  0  0  0  0  0  0  0  0  0  0
  143.0821  134.8100  150.3165 H   0  0  0  0  0  0  0  0  0  0  0  0
  146.0246  137.1782  150.4473 H   0  0  0  0  0  0  0  0  0  0  0  0
  144.3092  137.2588  150.7189 H   0  0  0  0  0  0  0  0  0  0  0  0
  145.0935  138.2796  152.6735 H   0  0  0  0  0  0  0  0  0  0  0  0
  144.9350  136.6331  153.2392 H   0  0  0  0  0  0  0  0  0  0  0  0
  147.5031  136.7313  152.2584 H   0  0  0  0  0  0  0  0  0  0  0  0
  149.2354  137.2485  153.2776 H   0  0  0  0  0  0  0  0  0  0  0  0
  149.2867  138.2079  155.9969 H   0  0  0  0  0  0  0  0  0  0  0  0
  149.9566  140.1352  153.7542 H   0  0  0  0  0  0  0  0  0  0  0  0
  148.8566  140.4201  155.0878 H   0  0  0  0  0  0  0  0  0  0  0  0
  151.4299  141.3209  155.1840 H   0  0  0  0  0  0  0  0  0  0  0  0
  150.6758  140.6622  156.6443 H   0  0  0  0  0  0  0  0  0  0  0  0
  151.2097  136.8505  155.4069 H   0  0  0  0  0  0  0  0  0  0  0  0
  151.4128  137.6976  153.8642 H   0  0  0  0  0  0  0  0  0  0  0  0
  147.1747  134.5272  151.6096 H   0  0  0  0  0  0  0  0  0  0  0  0
  1  2  1  0  0  0  0
  1 20  1  0  0  0  0
  1 21  1  0  0  0  0
  1 22  1  0  0  0  0
  2 19  1  0  0  0  0
  2  3  1  0  0  0  0
  3  4  2  0  0  0  0
  3 23  1  0  0  0  0
  4  5  1  0  0  0  0
  4 18  1  0  0  0  0
  5  6  1  0  0  0  0
  5 24  1  0  0  0  0
  5 25  1  0  0  0  0
  6  7  1  0  0  0  0
  6 26  1  0  0  0  0
  6 27  1  0  0  0  0
  7  8  1  0  0  0  0
  7 28  1  0  0  0  0
  8  9  2  0  0  0  0
  8 10  1  0  0  0  0
 10 11  1  0  0  0  0
 10 29  1  0  0  0  0
 11 17  1  0  0  0  0
 11 12  1  0  0  0  0
 11 30  1  0  0  0  0
 12 13  1  0  0  0  0
 12 31  1  0  0  0  0
 12 32  1  0  0  0  0
 13 14  1  0  0  0  0
 13 33  1  0  0  0  0
 13 34  1  0  0  0  0
 14 15  2  0  0  0  0
 14 16  2  0  0  0  0
 14 17  1  0  0  0  0
 17 35  1  0  0  0  0
 17 36  1  0  0  0  0
 18 19  2  0  0  0  0
 18 37  1  0  0  0  0
M  END
> <s_m_source_file>
AV-unprocessed.smi

> <i_m_source_file_index>
1556

> <i_lp_mmshare_version>
43012

> <i_f3d_flags>
0

> <s_epik_input>
W0NIM11uMVtjSF1jKFtjSF1uMSlbQ0gyXVtDSDJdW05IXUMoPU8pW05IXVtDQEBIXShbQ0gyXTIpW0NIMl1bQ0gyXVMyKD1PKT1P

> <s_epik_cmdline>
J2VwaWtfcHl0aG9uJywgJy1waCcsICc3LjAnLCAnLXRuJywgJzgnLCAnLW1hJywgJzIwMCcsICctbWV0YWxfYmluZGluZycsICctaW1hZScsICc8aW5maWxlLm1hZT4nLCAnLW9tYWUnLCAnPG91dGZpbGUubWFlPic=

> <r_lp_tautomer_probability>
1

> <r_epik_Ionization_Penalty>
0.000530192

> <r_epik_Ionization_Penalty_Charging>
0

> <r_epik_Ionization_Penalty_Neutral>
0.000530192

> <r_epik_State_Penalty>
-0

> <r_epik_Charging_Adjusted_Penalty>
0

> <i_epik_Tot_Q>
0

> <i_epik_Tot_abs_Q>
0

> <r_epik_Metal_State_Penalty>
-0

> <b_epik_Metal_Only>
0

> <s_lp_Force_Field>
OPLS_2005

> <r_lp_Energy>
8.62968

> <b_lp_Chiralities_Consistent>
1

> <s_lp_Variant>
AV-unprocessed.smi:1556-1

> <Gold.Version>
5.8.1

> <Gold.Id.Protein>
6NUR|6NUR_protein|mol2

> <Gold.PLP.Fitness>
45.7692

> <Gold.PLP.PLP>
-31.6052

> <Gold.PLP.part.hbond>
-3.9958

> <Gold.PLP.part.metal>
0.0000

> <Gold.PLP.part.buried>
0.3511

> <Gold.PLP.part.nonpolar>
-28.6049

> <Gold.PLP.part.repulsive>
0.2998

> <Gold.PLP.ligand.clash>
0.0000

> <Gold.PLP.ligand.torsion>
0.3557

> <Gold.PLP.Chemscore.Hbond>
2.9574

> <Gold.PLP.Chemscore.CHOScore>
2.0000

> <Gold.PLP.Chemscore.Metal>
0.0000

> <Gold.Chemscore.Hbonds>
donor molecule, donor type, donor heavy atom, donor atom, acceptor molecule, acceptor atom, score
      L1  H     7    28       P1  7948  1.00
      L1  H    10    29       P1  7948  0.91
      P1  H  7997  8008       L1    15  1.00
      L1  C     3    23       P1 10186  1.00
      L1  C    18    37       P1  7948  1.00

> <Gold.PLP.Chemscore.Internal.Correction>
0.0032

> <Gold.Rescore>
     Score         DG    S(hbond)    S(metal)    S(lipo)     H(rot)  DE(clash)    DE(int)     intcor
     16.21     -18.22       2.83        0.00      67.88       1.82       1.54       0.46       ----

> <Gold.Chemscore.Fitness>
16.2137

> <Gold.Chemscore.DG>
-18.2208

> <Gold.Chemscore.ZeroCoef>
-5.4800

> <Gold.Chemscore.Hbond>
2.8331

> <Gold.Chemscore.Metal>
0.0000

> <Gold.Chemscore.Lipo>
67.8848

> <Gold.Chemscore.Internal_Hbond>
0.0000

> <Gold.Chemscore.DEClash>
1.5441

> <Gold.Chemscore.DEInternal>
0.4630

> <Gold.Chemscore.Rot>
1.8220

> <Gold.Chemscore.Internal.Correction>
   9.000000E+99

> <Gold.Chemscore.Hbonds>
donor molecule, donor type, donor heavy atom, donor atom, acceptor molecule, acceptor atom, score
      L1  H     7    28       P1  7948  0.93
      L1  H    10    29       P1  7948  0.89
      P1  H  7997  8008       L1    15  0.30

> <Gold.Chemscore.Hbond.Weighted>
-9.4624

> <Gold.Chemscore.Metal.Weighted>
-0.0000

> <Gold.Chemscore.Lipo.Weighted>
-7.9425

> <Gold.Chemscore.Internal_Hbond.Weighted>
0.0000

> <Gold.Chemscore.DEClash.Weighted>
1.5441

> <Gold.Chemscore.DEInternal.Weighted>
0.4630

> <Gold.Chemscore.Rot.Weighted>
4.6642

> <Gold.Chemscore.Internal.Correction.Weighted>
   9.000000E+99

> <Gold.Protein.RotatedTorsions>
[ 6907 6896 6895 6894 ] final  122.95 input  -60.11 | X-H torsion
[ 7974 7965 7964 7962 ] final   45.37 input  175.53 | X-H torsion
[ 8008 7997 7996 7995 ] final  -17.77 input   59.86 | X-H torsion
[ 10167 10162 10161 10158 ] final  136.11 input  -65.29 | X-H torsion
[ 10718 10713 10712 10709 ] final  126.64 input   66.30 | X-H torsion
[ 10763 10752 10751 10750 ] final  106.78 input  -60.55 | X-H torsion
[ 11005 11000 10999 10996 ] final -154.22 input  -57.11 | X-H torsion

> <Gold.Protein.ActiveResidues>
 VAL166  LYS551  ARG553  GLY616  TRP617  ASP618  TYR619  PRO620  LYS621  CYS622 
 ASP623  PHE694  ASN695  SER759  ASP760  ASP761  ALA762  ILE779  LEU786  VAL792 
 PHE793  MET794  SER795  GLU796  ALA797  LYS798  CYS799  TRP800  GLU811  SER814 

> <Gold.Protein.RotatedAtoms>
  152.4201  133.7102  159.6474 H   0  0  0  0  0  0  0  0  0  0  0  0  # atno 6907 bound_to 6896
  150.8077  133.8468  159.3203 H   0  0  0  0  0  0  0  0  0  0  0  0  # atno 6908 bound_to 6896
  151.6187  135.1036  160.0148 H   0  0  0  0  0  0  0  0  0  0  0  0  # atno 6909 bound_to 6896
  146.0486  139.4971  142.9733 H   0  0  0  0  0  0  0  0  0  0  0  0  # atno 7974 bound_to 7965
  154.4954  140.2134  155.9458 H   0  0  0  0  0  0  0  0  0  0  0  0  # atno 8008 bound_to 7997
  156.1363  140.3188  155.8394 H   0  0  0  0  0  0  0  0  0  0  0  0  # atno 8009 bound_to 7997
  155.4203  140.0496  157.3017 H   0  0  0  0  0  0  0  0  0  0  0  0  # atno 8010 bound_to 7997
  139.5192  144.6482  151.5380 H   0  0  0  0  0  0  0  0  0  0  0  0  # atno 10167 bound_to 10162
  157.5402  131.1097  150.8871 H   0  0  0  0  0  0  0  0  0  0  0  0  # atno 10718 bound_to 10713
  153.3977  135.3865  155.1966 H   0  0  0  0  0  0  0  0  0  0  0  0  # atno 10763 bound_to 10752
  154.8726  135.3764  154.4658 H   0  0  0  0  0  0  0  0  0  0  0  0  # atno 10764 bound_to 10752
  153.5151  135.7087  153.5822 H   0  0  0  0  0  0  0  0  0  0  0  0  # atno 10765 bound_to 10752
  140.6997  134.3951  157.5211 H   0  0  0  0  0  0  0  0  0  0  0  0  # atno 11005 bound_to 11000
  145.6764  141.0203  143.1630 LP  0  0  0  0  0  0  0  0  0  0  0  0  # atno 17320 bound_to 7965
  144.7110  139.8370  143.7414 LP  0  0  0  0  0  0  0  0  0  0  0  0  # atno 17321 bound_to 7965
  140.6275  143.9140  150.6577 LP  0  0  0  0  0  0  0  0  0  0  0  0  # atno 17342 bound_to 10162
  140.2433  143.3647  152.1468 LP  0  0  0  0  0  0  0  0  0  0  0  0  # atno 17343 bound_to 10162
  156.9426  130.5390  149.5280 LP  0  0  0  0  0  0  0  0  0  0  0  0  # atno 17370 bound_to 10713
  156.0490  130.5563  150.8947 LP  0  0  0  0  0  0  0  0  0  0  0  0  # atno 17371 bound_to 10713
  139.8900  134.8815  156.2391 LP  0  0  0  0  0  0  0  0  0  0  0  0  # atno 17394 bound_to 11000
  141.0174  133.7061  156.1211 LP  0  0  0  0  0  0  0  0  0  0  0  0  # atno 17395 bound_to 11000

$$$$
