AV-unprocessed.smi:1751|AV-procd|sdf|7057|dock6
  -GOLD-   22720 8273D 1   1.00000     0.00000
 Structure written by MMmdl.
 35 36  0  0  0  0  0  0  0  0  1 V2000
  145.9819  128.1482  152.5221 C   0  0  0  0  0  0  0  0  0  0  0  0
  145.6190  129.4223  152.0017 O   0  0  0  0  0  0  0  0  0  0  0  0
  146.4286  130.5021  152.2888 C   0  0  0  0  0  0  0  0  0  0  0  0
  146.0530  131.7720  151.8091 C   0  0  0  0  0  0  0  0  0  0  0  0
  146.8795  132.8751  152.0933 C   0  0  0  0  0  0  0  0  0  0  0  0
  148.0574  132.6809  152.8426 C   0  0  0  0  0  0  0  0  0  0  0  0
  148.8605  133.8228  153.1140 N   0  0  0  0  0  0  0  0  0  0  0  0
  149.8654  133.9657  153.9956 C   0  0  0  0  0  0  0  0  0  0  0  0
  150.2805  133.0921  154.7558 O   0  0  0  0  0  0  0  0  0  0  0  0
  150.3785  135.2028  153.9410 N   0  0  0  0  0  0  0  0  0  0  0  0
  151.4733  135.7040  154.7660 C   0  0  0  0  0  0  0  0  0  0  0  0
  151.7817  137.1802  154.4652 C   0  0  1  0  0  0  0  0  0  0  0  0
  152.4371  137.9522  155.6095 C   0  0  0  0  0  0  0  0  0  0  0  0
  153.0952  139.0905  154.8645 C   0  0  0  0  0  0  0  0  0  0  0  0
  153.5688  138.4044  153.5849 C   0  0  0  0  0  0  0  0  0  0  0  0
  152.7101  137.2822  153.3902 O   0  0  0  0  0  0  0  0  0  0  0  0
  148.3410  131.3670  153.2911 C   0  0  0  0  0  0  0  0  0  0  0  0
  147.5523  130.3044  153.0213 N   0  0  0  0  0  0  0  0  0  0  0  0
  145.2532  127.4054  152.1978 H   0  0  0  0  0  0  0  0  0  0  0  0
  145.9894  128.1504  153.6130 H   0  0  0  0  0  0  0  0  0  0  0  0
  146.9602  127.8320  152.1576 H   0  0  0  0  0  0  0  0  0  0  0  0
  145.1483  131.8970  151.2324 H   0  0  0  0  0  0  0  0  0  0  0  0
  146.6107  133.8583  151.7349 H   0  0  0  0  0  0  0  0  0  0  0  0
  148.6740  134.6250  152.5306 H   0  0  0  0  0  0  0  0  0  0  0  0
  149.9766  135.8535  153.2822 H   0  0  0  0  0  0  0  0  0  0  0  0
  151.2646  135.5645  155.8282 H   0  0  0  0  0  0  0  0  0  0  0  0
  152.3536  135.0990  154.5480 H   0  0  0  0  0  0  0  0  0  0  0  0
  150.8701  137.6965  154.1591 H   0  0  0  0  0  0  0  0  0  0  0  0
  151.7235  138.2891  156.3618 H   0  0  0  0  0  0  0  0  0  0  0  0
  153.1946  137.3406  156.1020 H   0  0  0  0  0  0  0  0  0  0  0  0
  152.3557  139.8567  154.6277 H   0  0  0  0  0  0  0  0  0  0  0  0
  153.9057  139.5590  155.4232 H   0  0  0  0  0  0  0  0  0  0  0  0
  153.5430  139.0764  152.7265 H   0  0  0  0  0  0  0  0  0  0  0  0
  154.5908  138.0416  153.6993 H   0  0  0  0  0  0  0  0  0  0  0  0
  149.2040  131.1357  153.8942 H   0  0  0  0  0  0  0  0  0  0  0  0
  1  2  1  0  0  0  0
  1 19  1  0  0  0  0
  1 20  1  0  0  0  0
  1 21  1  0  0  0  0
  2  3  1  0  0  0  0
  3 18  1  0  0  0  0
  3  4  2  0  0  0  0
  4  5  1  0  0  0  0
  4 22  1  0  0  0  0
  5  6  2  0  0  0  0
  5 23  1  0  0  0  0
  6  7  1  0  0  0  0
  6 17  1  0  0  0  0
  7  8  1  0  0  0  0
  7 24  1  0  0  0  0
  8  9  2  0  0  0  0
  8 10  1  0  0  0  0
 10 11  1  0  0  0  0
 10 25  1  0  0  0  0
 11 12  1  0  0  0  0
 11 26  1  0  0  0  0
 11 27  1  0  0  0  0
 12 16  1  0  0  0  0
 12 13  1  0  0  0  0
 12 28  1  0  0  0  0
 13 14  1  0  0  0  0
 13 29  1  0  0  0  0
 13 30  1  0  0  0  0
 14 15  1  0  0  0  0
 14 31  1  0  0  0  0
 14 32  1  0  0  0  0
 15 16  1  0  0  0  0
 15 33  1  0  0  0  0
 15 34  1  0  0  0  0
 17 18  2  0  0  0  0
 17 35  1  0  0  0  0
M  END
> <s_m_source_file>
AV-unprocessed.smi

> <i_m_source_file_index>
1751

> <i_lp_mmshare_version>
43012

> <i_f3d_flags>
0

> <s_epik_input>
W0NIM11PYzFbY0hdW2NIXWMoW2NIXW4xKVtOSF1DKD1PKVtOSF1bQ0gyXVtDQEBIXTJbQ0gyXVtDSDJdW0NIMl1PMg==

> <s_epik_cmdline>
J2VwaWtfcHl0aG9uJywgJy1waCcsICc3LjAnLCAnLXRuJywgJzgnLCAnLW1hJywgJzIwMCcsICctbWV0YWxfYmluZGluZycsICctaW1hZScsICc8aW5maWxlLm1hZT4nLCAnLW9tYWUnLCAnPG91dGZpbGUubWFlPic=

> <r_lp_tautomer_probability>
1

> <r_epik_Ionization_Penalty>
9.01694e-05

> <r_epik_Ionization_Penalty_Charging>
0

> <r_epik_Ionization_Penalty_Neutral>
9.01694e-05

> <r_epik_State_Penalty>
-0

> <r_epik_Charging_Adjusted_Penalty>
0

> <i_epik_Tot_Q>
0

> <i_epik_Tot_abs_Q>
0

> <r_epik_Metal_State_Penalty>
-0

> <b_epik_Metal_Only>
0

> <s_lp_Force_Field>
OPLS_2005

> <r_lp_Energy>
20.1941

> <b_lp_Chiralities_Consistent>
1

> <s_lp_Variant>
AV-unprocessed.smi:1751-2

> <Gold.Version>
5.8.1

> <Gold.Id.Protein>
6NUR|6NUR_protein|mol2

> <Gold.PLP.Fitness>
38.8645

> <Gold.PLP.PLP>
-31.1076

> <Gold.PLP.part.hbond>
-3.2630

> <Gold.PLP.part.metal>
0.0000

> <Gold.PLP.part.buried>
-4.3879

> <Gold.PLP.part.nonpolar>
-24.0097

> <Gold.PLP.part.repulsive>
0.4745

> <Gold.PLP.ligand.clash>
0.0000

> <Gold.PLP.ligand.torsion>
0.3472

> <Gold.PLP.Chemscore.Hbond>
2.8160

> <Gold.PLP.Chemscore.CHOScore>
0.0000

> <Gold.PLP.Chemscore.Metal>
0.0000

> <Gold.Chemscore.Hbonds>
donor molecule, donor type, donor heavy atom, donor atom, acceptor molecule, acceptor atom, score
      L1  H     7    24       P1  7948  0.55
      L1  H    10    25       P1  7948  0.30

> <Gold.PLP.Chemscore.Internal.Correction>
0.0033

> <Gold.Rescore>
     Score         DG    S(hbond)    S(metal)    S(lipo)     H(rot)  DE(clash)    DE(int)     intcor
     15.42     -16.74       2.30        0.00      63.26       1.50       0.00       1.32       ----

> <Gold.Chemscore.Fitness>
15.4153

> <Gold.Chemscore.DG>
-16.7376

> <Gold.Chemscore.ZeroCoef>
-5.4800

> <Gold.Chemscore.Hbond>
2.3021

> <Gold.Chemscore.Metal>
0.0000

> <Gold.Chemscore.Lipo>
63.2581

> <Gold.Chemscore.Internal_Hbond>
0.0000

> <Gold.Chemscore.DEClash>
0.0004

> <Gold.Chemscore.DEInternal>
1.3219

> <Gold.Chemscore.Rot>
1.4971

> <Gold.Chemscore.Internal.Correction>
   9.000000E+99

> <Gold.Chemscore.Hbonds>
donor molecule, donor type, donor heavy atom, donor atom, acceptor molecule, acceptor atom, score
      L1  H     7    24       P1  7948  0.03

> <Gold.Chemscore.Hbond.Weighted>
-7.6890

> <Gold.Chemscore.Metal.Weighted>
-0.0000

> <Gold.Chemscore.Lipo.Weighted>
-7.4012

> <Gold.Chemscore.Internal_Hbond.Weighted>
0.0000

> <Gold.Chemscore.DEClash.Weighted>
0.0004

> <Gold.Chemscore.DEInternal.Weighted>
1.3219

> <Gold.Chemscore.Rot.Weighted>
3.8326

> <Gold.Chemscore.Internal.Correction.Weighted>
   9.000000E+99

> <Gold.Protein.RotatedTorsions>
[ 6907 6896 6895 6894 ] final   -4.61 input  -60.11 | X-H torsion
[ 7974 7965 7964 7962 ] final   72.93 input  175.53 | X-H torsion
[ 8008 7997 7996 7995 ] final  165.33 input   59.86 | X-H torsion
[ 10167 10162 10161 10158 ] final  -18.27 input  -65.29 | X-H torsion
[ 10718 10713 10712 10709 ] final  -89.98 input   66.30 | X-H torsion
[ 10763 10752 10751 10750 ] final  159.38 input  -60.55 | X-H torsion
[ 11005 11000 10999 10996 ] final  124.13 input  -57.11 | X-H torsion

> <Gold.Protein.ActiveResidues>
 VAL166  LYS551  ARG553  GLY616  TRP617  ASP618  TYR619  PRO620  LYS621  CYS622 
 ASP623  PHE694  ASN695  SER759  ASP760  ASP761  ALA762  ILE779  LEU786  VAL792 
 PHE793  MET794  SER795  GLU796  ALA797  LYS798  CYS799  TRP800  GLU811  SER814 

> <Gold.Protein.RotatedAtoms>
  151.4949  135.1059  159.9813 H   0  0  0  0  0  0  0  0  0  0  0  0  # atno 6907 bound_to 6896
  152.4726  133.8059  159.6988 H   0  0  0  0  0  0  0  0  0  0  0  0  # atno 6908 bound_to 6896
  150.8744  133.7398  159.2977 H   0  0  0  0  0  0  0  0  0  0  0  0  # atno 6909 bound_to 6896
  145.7472  139.2745  143.1452 H   0  0  0  0  0  0  0  0  0  0  0  0  # atno 7974 bound_to 7965
  156.1809  140.1673  156.8276 H   0  0  0  0  0  0  0  0  0  0  0  0  # atno 8008 bound_to 7997
  154.5359  140.0747  156.8459 H   0  0  0  0  0  0  0  0  0  0  0  0  # atno 8009 bound_to 7997
  155.3313  140.3379  155.4242 H   0  0  0  0  0  0  0  0  0  0  0  0  # atno 8010 bound_to 7997
  140.7257  143.4933  150.9964 H   0  0  0  0  0  0  0  0  0  0  0  0  # atno 10167 bound_to 10162
  155.9986  130.4892  150.5253 H   0  0  0  0  0  0  0  0  0  0  0  0  # atno 10718 bound_to 10713
  154.2308  135.2778  155.2890 H   0  0  0  0  0  0  0  0  0  0  0  0  # atno 10763 bound_to 10752
  154.5625  135.5642  153.7024 H   0  0  0  0  0  0  0  0  0  0  0  0  # atno 10764 bound_to 10752
  153.0020  135.6301  154.2450 H   0  0  0  0  0  0  0  0  0  0  0  0  # atno 10765 bound_to 10752
  139.9344  134.9640  156.8363 H   0  0  0  0  0  0  0  0  0  0  0  0  # atno 11005 bound_to 11000
  146.0391  140.8183  142.9838 LP  0  0  0  0  0  0  0  0  0  0  0  0  # atno 17320 bound_to 7965
  144.6857  140.2883  143.7282 LP  0  0  0  0  0  0  0  0  0  0  0  0  # atno 17321 bound_to 7965
  139.8638  143.7280  152.3171 LP  0  0  0  0  0  0  0  0  0  0  0  0  # atno 17342 bound_to 10162
  139.7505  144.7535  151.0514 LP  0  0  0  0  0  0  0  0  0  0  0  0  # atno 17343 bound_to 10162
  157.3209  131.0682  151.1932 LP  0  0  0  0  0  0  0  0  0  0  0  0  # atno 17370 bound_to 10713
  157.2845  130.6766  149.6083 LP  0  0  0  0  0  0  0  0  0  0  0  0  # atno 17371 bound_to 10713
  140.6114  134.0079  155.7578 LP  0  0  0  0  0  0  0  0  0  0  0  0  # atno 17394 bound_to 11000
  141.0951  133.9856  157.3174 LP  0  0  0  0  0  0  0  0  0  0  0  0  # atno 17395 bound_to 11000

$$$$
