AV-unprocessed.smi:1810|AV-procd|sdf|7333|dock2
  -GOLD-   22720 8593D 1   1.00000     0.00000
 Structure written by MMmdl.
 40 41  0  0  0  0  0  0  0  0  1 V2000
  153.5129  138.7421  154.4224 C   0  0  0  0  0  0  0  0  0  0  0  0
  152.2048  138.7487  155.1668 C   0  0  0  0  0  0  0  0  0  0  0  0
  151.2733  139.5124  154.6979 N   0  0  0  0  0  0  0  0  0  0  0  0
  150.0352  139.5916  155.3042 N   0  0  0  0  0  0  0  0  0  0  0  0
  149.1058  140.5163  154.6462 C   0  0  0  0  0  0  0  0  0  0  0  0
  147.7415  139.8579  154.3903 C   0  0  0  0  0  0  0  0  0  0  0  0
  146.8241  140.3161  155.3740 O   0  0  0  0  0  0  0  0  0  0  0  0
  146.0885  141.4498  155.1021 C   0  0  0  0  0  0  0  0  0  0  0  0
  144.8740  141.7872  155.7532 C   0  0  0  0  0  0  0  0  0  0  0  0
  144.1848  142.9669  155.4113 C   0  0  0  0  0  0  0  0  0  0  0  0
  144.7048  143.8179  154.4181 C   0  0  0  0  0  0  0  0  0  0  0  0
  143.8181  145.3122  153.9936 S   0  0  0  0  0  0  0  0  0  0  0  0
  142.3021  144.6918  153.4677 N   0  0  0  0  0  0  0  0  0  0  0  0
  143.5794  146.0758  155.2280 O   0  0  0  0  0  0  0  0  0  0  0  0
  144.4665  145.9419  152.8329 O   0  0  0  0  0  0  0  0  0  0  0  0
  145.9092  143.4970  153.7632 C   0  0  0  0  0  0  0  0  0  0  0  0
  146.5932  142.3156  154.1086 C   0  0  0  0  0  0  0  0  0  0  0  0
  149.6721  138.9016  156.4227 C   0  0  0  0  0  0  0  0  0  0  0  0
  148.5560  139.0072  156.9332 O   0  0  0  0  0  0  0  0  0  0  0  0
  150.7321  138.0386  156.9493 C   0  0  0  0  0  0  0  0  0  0  0  0
  150.3942  137.2984  158.1220 C   0  0  0  0  0  0  0  0  0  0  0  0
  150.1334  136.6829  159.0671 N   0  0  0  0  0  0  0  0  0  0  0  0
  151.9523  137.9513  156.3628 C   0  0  0  0  0  0  0  0  0  0  0  0
  153.0868  137.0711  156.8697 C   0  0  0  0  0  0  0  0  0  0  0  0
  153.7530  137.7390  154.0696 H   0  0  0  0  0  0  0  0  0  0  0  0
  154.3258  139.0786  155.0660 H   0  0  0  0  0  0  0  0  0  0  0  0
  153.4890  139.3996  153.5520 H   0  0  0  0  0  0  0  0  0  0  0  0
  148.9666  141.4056  155.2638 H   0  0  0  0  0  0  0  0  0  0  0  0
  149.5290  140.8786  153.7078 H   0  0  0  0  0  0  0  0  0  0  0  0
  147.3829  140.1172  153.3930 H   0  0  0  0  0  0  0  0  0  0  0  0
  147.8402  138.7726  154.4469 H   0  0  0  0  0  0  0  0  0  0  0  0
  144.4485  141.1566  156.5188 H   0  0  0  0  0  0  0  0  0  0  0  0
  143.2602  143.2149  155.9116 H   0  0  0  0  0  0  0  0  0  0  0  0
  142.4076  143.9209  152.8089 H   0  0  0  0  0  0  0  0  0  0  0  0
  141.6795  145.4266  153.1327 H   0  0  0  0  0  0  0  0  0  0  0  0
  146.3122  144.1460  153.0000 H   0  0  0  0  0  0  0  0  0  0  0  0
  147.5171  142.0705  153.6052 H   0  0  0  0  0  0  0  0  0  0  0  0
  152.8126  136.5206  157.7692 H   0  0  0  0  0  0  0  0  0  0  0  0
  153.9621  137.6754  157.1106 H   0  0  0  0  0  0  0  0  0  0  0  0
  153.3704  136.3396  156.1124 H   0  0  0  0  0  0  0  0  0  0  0  0
  1  2  1  0  0  0  0
  1 25  1  0  0  0  0
  1 26  1  0  0  0  0
  1 27  1  0  0  0  0
  2 23  1  0  0  0  0
  2  3  2  0  0  0  0
  3  4  1  0  0  0  0
  4  5  1  0  0  0  0
  4 18  1  0  0  0  0
  5  6  1  0  0  0  0
  5 28  1  0  0  0  0
  5 29  1  0  0  0  0
  6  7  1  0  0  0  0
  6 30  1  0  0  0  0
  6 31  1  0  0  0  0
  7  8  1  0  0  0  0
  8 17  1  0  0  0  0
  8  9  2  0  0  0  0
  9 10  1  0  0  0  0
  9 32  1  0  0  0  0
 10 11  2  0  0  0  0
 10 33  1  0  0  0  0
 11 12  1  0  0  0  0
 11 16  1  0  0  0  0
 12 13  1  0  0  0  0
 12 14  2  0  0  0  0
 12 15  2  0  0  0  0
 13 34  1  0  0  0  0
 13 35  1  0  0  0  0
 16 17  2  0  0  0  0
 16 36  1  0  0  0  0
 17 37  1  0  0  0  0
 18 19  2  0  0  0  0
 18 20  1  0  0  0  0
 20 21  1  0  0  0  0
 20 23  2  0  0  0  0
 21 22  3  0  0  0  0
 23 24  1  0  0  0  0
 24 38  1  0  0  0  0
 24 39  1  0  0  0  0
 24 40  1  0  0  0  0
M  END
> <s_m_source_file>
AV-unprocessed.smi

> <i_m_source_file_index>
1810

> <i_lp_mmshare_version>
43012

> <i_f3d_flags>
0

> <s_epik_input>
TiNDYyhjMVtDSDNdKWMoPU8pbihuYzFbQ0gzXSlbQ0gyXVtDSDJdT2MyW2NIXVtjSF1jKFMoPU8pKD1PKVtOSDJdKVtjSF1bY0hdMg==

> <s_epik_cmdline>
J2VwaWtfcHl0aG9uJywgJy1waCcsICc3LjAnLCAnLXRuJywgJzgnLCAnLW1hJywgJzIwMCcsICctbWV0YWxfYmluZGluZycsICctaW1hZScsICc8aW5maWxlLm1hZT4nLCAnLW9tYWUnLCAnPG91dGZpbGUubWFlPic=

> <r_lp_tautomer_probability>
1

> <r_epik_Ionization_Penalty>
0.000347403

> <r_epik_Ionization_Penalty_Charging>
5.27838e-11

> <r_epik_Ionization_Penalty_Neutral>
0.000347403

> <r_epik_State_Penalty>
0.00021091

> <r_epik_Charging_Adjusted_Penalty>
0.000210911

> <i_epik_Tot_Q>
0

> <i_epik_Tot_abs_Q>
0

> <r_epik_Metal_State_Penalty>
0.18648

> <b_epik_Metal_Only>
0

> <s_lp_Force_Field>
OPLS_2005

> <r_lp_Energy>
32.1268

> <b_lp_Chiralities_Consistent>
1

> <s_lp_Variant>
AV-unprocessed.smi:1810-1

> <Gold.Version>
5.8.1

> <Gold.Id.Protein>
6NUR|6NUR_protein|mol2

> <Gold.PLP.Fitness>
44.1115

> <Gold.PLP.PLP>
-37.7996

> <Gold.PLP.part.hbond>
-6.1412

> <Gold.PLP.part.metal>
0.0000

> <Gold.PLP.part.buried>
-7.7973

> <Gold.PLP.part.nonpolar>
-25.5941

> <Gold.PLP.part.repulsive>
0.2758

> <Gold.PLP.ligand.clash>
0.8235

> <Gold.PLP.ligand.torsion>
1.9292

> <Gold.PLP.Chemscore.Hbond>
2.9913

> <Gold.PLP.Chemscore.CHOScore>
0.0000

> <Gold.PLP.Chemscore.Metal>
0.0000

> <Gold.Chemscore.Hbonds>
donor molecule, donor type, donor heavy atom, donor atom, acceptor molecule, acceptor atom, score
      L1  H    13    34       P1 10174  1.00
      P1  H  6896  6909       L1    22  1.00
      P1  H  7989  7998       L1     3  1.00

> <Gold.PLP.Chemscore.Internal.Correction>
2.0202

> <Gold.Rescore>
     Score         DG    S(hbond)    S(metal)    S(lipo)     H(rot)  DE(clash)    DE(int)     intcor
     12.73     -17.95       2.93        0.00      66.61       1.99       0.60       4.62       ----

> <Gold.Chemscore.Fitness>
12.7349

> <Gold.Chemscore.DG>
-17.9545

> <Gold.Chemscore.ZeroCoef>
-5.4800

> <Gold.Chemscore.Hbond>
2.9288

> <Gold.Chemscore.Metal>
0.0000

> <Gold.Chemscore.Lipo>
66.6083

> <Gold.Chemscore.Internal_Hbond>
0.0000

> <Gold.Chemscore.DEClash>
0.5971

> <Gold.Chemscore.DEInternal>
4.6225

> <Gold.Chemscore.Rot>
1.9925

> <Gold.Chemscore.Internal.Correction>
   9.000000E+99

> <Gold.Chemscore.Hbonds>
donor molecule, donor type, donor heavy atom, donor atom, acceptor molecule, acceptor atom, score
      L1  H    13    34       P1 10174  0.97
      P1  H  6896  6909       L1    22  0.94
      P1  H  7989  7998       L1     3  0.89

> <Gold.Chemscore.Hbond.Weighted>
-9.7821

> <Gold.Chemscore.Metal.Weighted>
-0.0000

> <Gold.Chemscore.Lipo.Weighted>
-7.7932

> <Gold.Chemscore.Internal_Hbond.Weighted>
0.0000

> <Gold.Chemscore.DEClash.Weighted>
0.5971

> <Gold.Chemscore.DEInternal.Weighted>
4.6225

> <Gold.Chemscore.Rot.Weighted>
5.1007

> <Gold.Chemscore.Internal.Correction.Weighted>
   9.000000E+99

> <Gold.Protein.RotatedTorsions>
[ 6907 6896 6895 6894 ] final   78.03 input  -60.11 | X-H torsion
[ 7974 7965 7964 7962 ] final  -40.03 input  175.53 | X-H torsion
[ 8008 7997 7996 7995 ] final  128.78 input   59.86 | X-H torsion
[ 10167 10162 10161 10158 ] final   69.62 input  -65.29 | X-H torsion
[ 10718 10713 10712 10709 ] final -123.61 input   66.30 | X-H torsion
[ 10763 10752 10751 10750 ] final -135.19 input  -60.55 | X-H torsion
[ 11005 11000 10999 10996 ] final  129.40 input  -57.11 | X-H torsion

> <Gold.Protein.ActiveResidues>
 VAL166  LYS551  ARG553  GLY616  TRP617  ASP618  TYR619  PRO620  LYS621  CYS622 
 ASP623  PHE694  ASN695  SER759  ASP760  ASP761  ALA762  ILE779  LEU786  VAL792 
 PHE793  MET794  SER795  GLU796  ALA797  LYS798  CYS799  TRP800  GLU811  SER814 

> <Gold.Protein.RotatedAtoms>
  152.5142  134.3727  159.9323 H   0  0  0  0  0  0  0  0  0  0  0  0  # atno 6907 bound_to 6896
  151.3682  133.3858  159.2704 H   0  0  0  0  0  0  0  0  0  0  0  0  # atno 6908 bound_to 6896
  150.9599  134.9007  159.7782 H   0  0  0  0  0  0  0  0  0  0  0  0  # atno 6909 bound_to 6896
  146.0342  140.6692  142.9118 H   0  0  0  0  0  0  0  0  0  0  0  0  # atno 7974 bound_to 7965
  156.2922  140.2636  156.2492 H   0  0  0  0  0  0  0  0  0  0  0  0  # atno 8008 bound_to 7997
  154.9900  140.0389  157.2333 H   0  0  0  0  0  0  0  0  0  0  0  0  # atno 8009 bound_to 7997
  154.7695  140.2775  155.6154 H   0  0  0  0  0  0  0  0  0  0  0  0  # atno 8010 bound_to 7997
  140.0659  144.5194  150.7261 H   0  0  0  0  0  0  0  0  0  0  0  0  # atno 10167 bound_to 10162
  156.1516  130.6539  150.9922 H   0  0  0  0  0  0  0  0  0  0  0  0  # atno 10718 bound_to 10713
  154.8707  135.3711  154.4858 H   0  0  0  0  0  0  0  0  0  0  0  0  # atno 10763 bound_to 10752
  153.5508  135.7025  153.5597 H   0  0  0  0  0  0  0  0  0  0  0  0  # atno 10764 bound_to 10752
  153.3716  135.4020  155.1757 H   0  0  0  0  0  0  0  0  0  0  0  0  # atno 10765 bound_to 10752
  139.9613  134.9601  156.9143 H   0  0  0  0  0  0  0  0  0  0  0  0  # atno 11005 bound_to 11000
  144.7044  140.3791  143.7130 LP  0  0  0  0  0  0  0  0  0  0  0  0  # atno 17320 bound_to 7965
  145.6991  139.1657  143.2603 LP  0  0  0  0  0  0  0  0  0  0  0  0  # atno 17321 bound_to 7965
  140.7149  143.2536  151.4464 LP  0  0  0  0  0  0  0  0  0  0  0  0  # atno 17342 bound_to 10162
  139.5865  144.1592  152.2036 LP  0  0  0  0  0  0  0  0  0  0  0  0  # atno 17343 bound_to 10162
  157.6662  131.0871  150.7723 LP  0  0  0  0  0  0  0  0  0  0  0  0  # atno 17370 bound_to 10713
  156.7791  130.4853  149.5404 LP  0  0  0  0  0  0  0  0  0  0  0  0  # atno 17371 bound_to 10713
  140.5493  134.0643  155.7364 LP  0  0  0  0  0  0  0  0  0  0  0  0  # atno 17394 bound_to 11000
  141.1290  133.9333  157.2574 LP  0  0  0  0  0  0  0  0  0  0  0  0  # atno 17395 bound_to 11000

$$$$
