AV-unprocessed.smi:1174|AV-procd|sdf|4949|dock9
  -GOLD-   22720 3533D 1   1.00000     0.00000
 Structure written by MMmdl.
 41 42  0  0  0  0  0  0  0  0  1 V2000
  151.2500  139.4503  158.6645 C   0  0  0  0  0  0  0  0  0  0  0  0
  151.1273  140.9560  158.3937 C   0  0  1  0  0  0  0  0  0  0  0  0
  152.4260  141.6982  158.7781 C   0  0  0  0  0  0  0  0  0  0  0  0
  152.1977  143.0801  159.1606 N   0  0  0  0  0  0  0  0  0  0  0  0
  152.3875  144.2219  158.4112 C   0  0  0  0  0  0  0  0  0  0  0  0
  152.0395  145.2840  159.1955 C   0  0  0  0  0  0  0  0  0  0  0  0
  151.6447  144.6837  160.4232 C   0  0  0  0  0  0  0  0  0  0  0  0
  151.7468  143.3649  160.4017 N   0  0  0  0  0  0  0  0  0  0  0  0
  150.8034  141.1511  156.9811 N   0  0  0  0  0  0  0  0  0  0  0  0
  149.7191  140.6776  156.3460 C   0  0  0  0  0  0  0  0  0  0  0  0
  148.8318  140.0422  156.9156 O   0  0  0  0  0  0  0  0  0  0  0  0
  149.6396  140.9634  154.8341 C   0  0  1  0  0  0  0  0  0  0  0  0
  149.5806  139.6644  153.9923 C   0  0  0  0  0  0  0  0  0  0  0  0
  148.1778  139.0246  153.9487 C   0  0  0  0  0  0  0  0  0  0  0  0
  147.1059  140.0693  153.5979 C   0  0  0  0  0  0  0  0  0  0  0  0
  147.1765  141.1843  154.5578 N   0  0  0  0  0  0  0  0  0  0  0  0
  146.1785  141.5942  155.3792 C   0  0  0  0  0  0  0  0  0  0  0  0
  144.9543  141.1826  155.0349 N   0  0  0  0  0  0  0  0  0  0  0  0
  146.3613  142.2442  156.4069 O   0  0  0  0  0  0  0  0  0  0  0  0
  148.4597  141.8980  154.4687 C   0  0  0  0  0  0  0  0  0  0  0  0
  151.4510  139.2568  159.7185 H   0  0  0  0  0  0  0  0  0  0  0  0
  152.0595  139.0060  158.0844 H   0  0  0  0  0  0  0  0  0  0  0  0
  150.3281  138.9279  158.4062 H   0  0  0  0  0  0  0  0  0  0  0  0
  150.3072  141.3254  159.0122 H   0  0  0  0  0  0  0  0  0  0  0  0
  152.9062  141.1983  159.6206 H   0  0  0  0  0  0  0  0  0  0  0  0
  153.1427  141.6728  157.9558 H   0  0  0  0  0  0  0  0  0  0  0  0
  152.7438  144.1845  157.3921 H   0  0  0  0  0  0  0  0  0  0  0  0
  152.0588  146.3305  158.9294 H   0  0  0  0  0  0  0  0  0  0  0  0
  151.2917  145.1638  161.3237 H   0  0  0  0  0  0  0  0  0  0  0  0
  151.4764  141.6668  156.4330 H   0  0  0  0  0  0  0  0  0  0  0  0
  150.5613  141.4805  154.5616 H   0  0  0  0  0  0  0  0  0  0  0  0
  149.8847  139.9017  152.9722 H   0  0  0  0  0  0  0  0  0  0  0  0
  150.3083  138.9372  154.3556 H   0  0  0  0  0  0  0  0  0  0  0  0
  148.1647  138.2179  153.2152 H   0  0  0  0  0  0  0  0  0  0  0  0
  147.9404  138.5639  154.9079 H   0  0  0  0  0  0  0  0  0  0  0  0
  147.2847  140.4578  152.5943 H   0  0  0  0  0  0  0  0  0  0  0  0
  146.1283  139.5899  153.5502 H   0  0  0  0  0  0  0  0  0  0  0  0
  144.1570  141.4577  155.5892 H   0  0  0  0  0  0  0  0  0  0  0  0
  144.8322  140.6091  154.2132 H   0  0  0  0  0  0  0  0  0  0  0  0
  148.4908  142.7860  155.1024 H   0  0  0  0  0  0  0  0  0  0  0  0
  148.5848  142.2669  153.4498 H   0  0  0  0  0  0  0  0  0  0  0  0
  1  2  1  0  0  0  0
  1 21  1  0  0  0  0
  1 22  1  0  0  0  0
  1 23  1  0  0  0  0
  2  3  1  0  0  0  0
  2  9  1  0  0  0  0
  2 24  1  0  0  0  0
  3  4  1  0  0  0  0
  3 25  1  0  0  0  0
  3 26  1  0  0  0  0
  4  8  1  0  0  0  0
  4  5  1  0  0  0  0
  5  6  2  0  0  0  0
  5 27  1  0  0  0  0
  6  7  1  0  0  0  0
  6 28  1  0  0  0  0
  7  8  2  0  0  0  0
  7 29  1  0  0  0  0
  9 10  1  0  0  0  0
  9 30  1  0  0  0  0
 10 11  2  0  0  0  0
 10 12  1  0  0  0  0
 12 20  1  0  0  0  0
 12 13  1  0  0  0  0
 12 31  1  0  0  0  0
 13 14  1  0  0  0  0
 13 32  1  0  0  0  0
 13 33  1  0  0  0  0
 14 15  1  0  0  0  0
 14 34  1  0  0  0  0
 14 35  1  0  0  0  0
 15 16  1  0  0  0  0
 15 36  1  0  0  0  0
 15 37  1  0  0  0  0
 16 17  1  0  0  0  0
 16 20  1  0  0  0  0
 17 18  1  0  0  0  0
 17 19  2  0  0  0  0
 18 38  1  0  0  0  0
 18 39  1  0  0  0  0
 20 40  1  0  0  0  0
 20 41  1  0  0  0  0
M  END
> <s_m_source_file>
AV-unprocessed.smi

> <i_m_source_file_index>
1174

> <i_lp_mmshare_version>
43012

> <i_f3d_flags>
0

> <s_epik_input>
bjFbY0hdW2NIXVtjSF1uMVtDSDJdW0NAQEhdKFtDSDNdKVtOSF1DKD1PKVtDQEBIXTJbQ0gyXVtDSDJdW0NIMl1OKFtDSDJdMilDKD1PKVtOSDJd

> <s_epik_cmdline>
J2VwaWtfcHl0aG9uJywgJy1waCcsICc3LjAnLCAnLXRuJywgJzgnLCAnLW1hJywgJzIwMCcsICctbWV0YWxfYmluZGluZycsICctaW1hZScsICc8aW5maWxlLm1hZT4nLCAnLW9tYWUnLCAnPG91dGZpbGUubWFlPic=

> <r_lp_tautomer_probability>
1

> <r_epik_Ionization_Penalty>
0.000372452

> <r_epik_Ionization_Penalty_Charging>
0

> <r_epik_Ionization_Penalty_Neutral>
0.000372452

> <r_epik_State_Penalty>
-0

> <r_epik_Charging_Adjusted_Penalty>
0

> <i_epik_Tot_Q>
0

> <i_epik_Tot_abs_Q>
0

> <r_epik_Metal_State_Penalty>
-0

> <b_epik_Metal_Only>
0

> <s_lp_Force_Field>
OPLS_2005

> <r_lp_Energy>
22.2792

> <b_lp_Chiralities_Consistent>
1

> <s_lp_Variant>
AV-unprocessed.smi:1174-4

> <Gold.Version>
5.8.1

> <Gold.Id.Protein>
6NUR|6NUR_protein|mol2

> <Gold.PLP.Fitness>
39.4103

> <Gold.PLP.PLP>
-38.4569

> <Gold.PLP.part.hbond>
-1.0000

> <Gold.PLP.part.metal>
0.0000

> <Gold.PLP.part.buried>
-1.3067

> <Gold.PLP.part.nonpolar>
-36.5024

> <Gold.PLP.part.repulsive>
0.2657

> <Gold.PLP.ligand.clash>
0.0000

> <Gold.PLP.ligand.torsion>
0.8430

> <Gold.PLP.Chemscore.Hbond>
0.8640

> <Gold.PLP.Chemscore.CHOScore>
0.0000

> <Gold.PLP.Chemscore.Metal>
0.0000

> <Gold.Chemscore.Hbonds>
donor molecule, donor type, donor heavy atom, donor atom, acceptor molecule, acceptor atom, score
      L1  H    18    39       P1 10175  0.70

> <Gold.PLP.Chemscore.Internal.Correction>
0.0475

> <Gold.Rescore>
     Score         DG    S(hbond)    S(metal)    S(lipo)     H(rot)  DE(clash)    DE(int)     intcor
     13.11     -14.10       0.84        0.00      89.55       1.82       0.14       0.85       ----

> <Gold.Chemscore.Fitness>
13.1105

> <Gold.Chemscore.DG>
-14.0997

> <Gold.Chemscore.ZeroCoef>
-5.4800

> <Gold.Chemscore.Hbond>
0.8392

> <Gold.Chemscore.Metal>
0.0000

> <Gold.Chemscore.Lipo>
89.5503

> <Gold.Chemscore.Internal_Hbond>
0.0000

> <Gold.Chemscore.DEClash>
0.1371

> <Gold.Chemscore.DEInternal>
0.8521

> <Gold.Chemscore.Rot>
1.8206

> <Gold.Chemscore.Internal.Correction>
   9.000000E+99

> <Gold.Chemscore.Hbonds>
donor molecule, donor type, donor heavy atom, donor atom, acceptor molecule, acceptor atom, score
      L1  H    18    39       P1 10175  0.68

> <Gold.Chemscore.Hbond.Weighted>
-2.8030

> <Gold.Chemscore.Metal.Weighted>
-0.0000

> <Gold.Chemscore.Lipo.Weighted>
-10.4774

> <Gold.Chemscore.Internal_Hbond.Weighted>
0.0000

> <Gold.Chemscore.DEClash.Weighted>
0.1371

> <Gold.Chemscore.DEInternal.Weighted>
0.8521

> <Gold.Chemscore.Rot.Weighted>
4.6607

> <Gold.Chemscore.Internal.Correction.Weighted>
   9.000000E+99

> <Gold.Protein.RotatedTorsions>
[ 6907 6896 6895 6894 ] final  171.05 input  -60.11 | X-H torsion
[ 7974 7965 7964 7962 ] final  -84.73 input  175.53 | X-H torsion
[ 8008 7997 7996 7995 ] final   14.55 input   59.86 | X-H torsion
[ 10167 10162 10161 10158 ] final -174.55 input  -65.29 | X-H torsion
[ 10718 10713 10712 10709 ] final   52.06 input   66.30 | X-H torsion
[ 10763 10752 10751 10750 ] final -151.89 input  -60.55 | X-H torsion
[ 11005 11000 10999 10996 ] final -172.90 input  -57.11 | X-H torsion

> <Gold.Protein.ActiveResidues>
 VAL166  LYS551  ARG553  GLY616  TRP617  ASP618  TYR619  PRO620  LYS621  CYS622 
 ASP623  PHE694  ASN695  SER759  ASP760  ASP761  ALA762  ILE779  LEU786  VAL792 
 PHE793  MET794  SER795  GLU796  ALA797  LYS798  CYS799  TRP800  GLU811  SER814 

> <Gold.Protein.RotatedAtoms>
  151.8064  133.3376  159.3542 H   0  0  0  0  0  0  0  0  0  0  0  0  # atno 6907 bound_to 6896
  150.7341  134.5705  159.5897 H   0  0  0  0  0  0  0  0  0  0  0  0  # atno 6908 bound_to 6896
  152.3106  134.7503  160.0388 H   0  0  0  0  0  0  0  0  0  0  0  0  # atno 6909 bound_to 6896
  145.5026  140.9546  143.1751 H   0  0  0  0  0  0  0  0  0  0  0  0  # atno 7974 bound_to 7965
  154.8500  140.2928  155.5604 H   0  0  0  0  0  0  0  0  0  0  0  0  # atno 8008 bound_to 7997
  156.3016  140.2497  156.3390 H   0  0  0  0  0  0  0  0  0  0  0  0  # atno 8009 bound_to 7997
  154.9031  140.0391  157.1893 H   0  0  0  0  0  0  0  0  0  0  0  0  # atno 8010 bound_to 7997
  139.5628  144.1828  152.1265 H   0  0  0  0  0  0  0  0  0  0  0  0  # atno 10167 bound_to 10162
  157.5039  130.8456  149.8350 H   0  0  0  0  0  0  0  0  0  0  0  0  # atno 10718 bound_to 10713
  154.8029  135.3249  154.7504 H   0  0  0  0  0  0  0  0  0  0  0  0  # atno 10763 bound_to 10752
  153.8169  135.6891  153.4837 H   0  0  0  0  0  0  0  0  0  0  0  0  # atno 10764 bound_to 10752
  153.1757  135.4606  154.9905 H   0  0  0  0  0  0  0  0  0  0  0  0  # atno 10765 bound_to 10752
  140.4918  134.5977  157.4957 H   0  0  0  0  0  0  0  0  0  0  0  0  # atno 11005 bound_to 11000
  144.7771  139.6606  143.7170 LP  0  0  0  0  0  0  0  0  0  0  0  0  # atno 17320 bound_to 7965
  146.2216  139.5646  142.9614 LP  0  0  0  0  0  0  0  0  0  0  0  0  # atno 17321 bound_to 7965
  140.1345  144.5258  150.6782 LP  0  0  0  0  0  0  0  0  0  0  0  0  # atno 17342 bound_to 10162
  140.6909  143.2375  151.5133 LP  0  0  0  0  0  0  0  0  0  0  0  0  # atno 17343 bound_to 10162
  156.0246  130.3784  150.1860 LP  0  0  0  0  0  0  0  0  0  0  0  0  # atno 17370 bound_to 10713
  157.0050  130.9934  151.3381 LP  0  0  0  0  0  0  0  0  0  0  0  0  # atno 17371 bound_to 10713
  139.9764  134.7208  155.9941 LP  0  0  0  0  0  0  0  0  0  0  0  0  # atno 17394 bound_to 11000
  141.1480  133.6553  156.3926 LP  0  0  0  0  0  0  0  0  0  0  0  0  # atno 17395 bound_to 11000

$$$$
