AV-unprocessed.smi:3025|AV-procd|sdf|11507|dock5
  -GOLD-   2272016443D 1   1.00000     0.00000
 Structure written by MMmdl.
 42 43  0  0  0  0  0  0  0  0  2 V2000
  151.9720  142.6404  159.4194 C   0  0  0  0  0  0  0  0  0  0  0  0
  151.3171  142.3601  158.0623 C   0  0  0  0  0  0  0  0  0  0  0  0
  151.6184  140.9429  157.5458 C   0  0  0  0  0  0  0  0  0  0  0  0
  150.9775  140.6182  156.1806 C   0  0  2  0  0  0  0  0  0  0  0  0
  149.4929  141.0340  156.1085 C   0  0  0  0  0  0  0  0  0  0  0  0
  148.8623  140.6792  154.7520 C   0  0  0  0  0  0  0  0  0  0  0  0
  149.0076  139.1774  154.4316 C   0  0  1  0  0  0  0  0  0  0  0  0
  148.4547  138.8479  153.0990 N   0  3  0  0  0  0  0  0  0  0  0  0
  146.9926  139.0145  152.9642 C   0  0  0  0  0  0  0  0  0  0  0  0
  146.5515  138.8495  151.5040 C   0  0  0  0  0  0  0  0  0  0  0  0
  145.9871  137.4928  151.2411 C   0  0  0  0  0  0  0  0  0  0  0  0
  145.0460  136.9732  152.0307 N   0  0  0  0  0  0  0  0  0  0  0  0
  144.7951  135.7901  151.4297 N   0  0  0  0  0  0  0  0  0  0  0  0
  145.5640  135.6877  150.3466 C   0  0  0  0  0  0  0  0  0  0  0  0
  146.3456  136.7423  150.1548 N   0  0  0  0  0  0  0  0  0  0  0  0
  150.4894  138.7675  154.4962 C   0  0  0  0  0  0  0  0  0  0  0  0
  151.1134  139.1168  155.8566 C   0  0  0  0  0  0  0  0  0  0  0  0
  151.7465  143.6517  159.7577 H   0  0  0  0  0  0  0  0  0  0  0  0
  153.0566  142.5436  159.3620 H   0  0  0  0  0  0  0  0  0  0  0  0
  151.6127  141.9475  160.1805 H   0  0  0  0  0  0  0  0  0  0  0  0
  150.2415  142.5065  158.1582 H   0  0  0  0  0  0  0  0  0  0  0  0
  151.6670  143.0962  157.3378 H   0  0  0  0  0  0  0  0  0  0  0  0
  152.7005  140.8372  157.4584 H   0  0  0  0  0  0  0  0  0  0  0  0
  151.3038  140.2061  158.2860 H   0  0  0  0  0  0  0  0  0  0  0  0
  151.5242  141.1709  155.4147 H   0  0  0  0  0  0  0  0  0  0  0  0
  148.9339  140.5452  156.9076 H   0  0  0  0  0  0  0  0  0  0  0  0
  149.3888  142.1063  156.2715 H   0  0  0  0  0  0  0  0  0  0  0  0
  147.8122  140.9706  154.7680 H   0  0  0  0  0  0  0  0  0  0  0  0
  149.3351  141.2718  153.9676 H   0  0  0  0  0  0  0  0  0  0  0  0
  148.4643  138.5972  155.1796 H   0  0  0  0  0  0  0  0  0  0  0  0
  148.9209  139.4136  152.4039 H   0  0  0  0  0  0  0  0  0  0  0  0
  146.4874  138.2765  153.5890 H   0  0  0  0  0  0  0  0  0  0  0  0
  146.6964  139.9997  153.3240 H   0  0  0  0  0  0  0  0  0  0  0  0
  145.7992  139.5988  151.2529 H   0  0  0  0  0  0  0  0  0  0  0  0
  147.3951  139.0209  150.8337 H   0  0  0  0  0  0  0  0  0  0  0  0
  145.5479  134.8326  149.6864 H   0  0  0  0  0  0  0  0  0  0  0  0
  150.5887  137.6964  154.3156 H   0  0  0  0  0  0  0  0  0  0  0  0
  151.0486  139.2671  153.7037 H   0  0  0  0  0  0  0  0  0  0  0  0
  152.1653  138.8290  155.8553 H   0  0  0  0  0  0  0  0  0  0  0  0
  150.6343  138.5260  156.6388 H   0  0  0  0  0  0  0  0  0  0  0  0
  148.6635  137.8773  152.9135 H   0  0  0  0  0  0  0  0  0  0  0  0
  144.1204  135.1228  151.7762 H   0  0  0  0  0  0  0  0  0  0  0  0
  1  2  1  0  0  0  0
  1 18  1  0  0  0  0
  1 19  1  0  0  0  0
  1 20  1  0  0  0  0
  2  3  1  0  0  0  0
  2 21  1  0  0  0  0
  2 22  1  0  0  0  0
  3  4  1  0  0  0  0
  3 23  1  0  0  0  0
  3 24  1  0  0  0  0
  4 17  1  0  0  0  0
  4  5  1  0  0  0  0
  4 25  1  0  0  0  0
  5  6  1  0  0  0  0
  5 26  1  0  0  0  0
  5 27  1  0  0  0  0
  6  7  1  0  0  0  0
  6 28  1  0  0  0  0
  6 29  1  0  0  0  0
  7  8  1  0  0  0  0
  7 16  1  0  0  0  0
  7 30  1  0  0  0  0
  8  9  1  0  0  0  0
  8 31  1  0  0  0  0
  8 41  1  0  0  0  0
  9 10  1  0  0  0  0
  9 32  1  0  0  0  0
  9 33  1  0  0  0  0
 10 34  1  0  0  0  0
 10 35  1  0  0  0  0
 10 11  1  0  0  0  0
 11 15  1  0  0  0  0
 11 12  2  0  0  0  0
 12 13  1  0  0  0  0
 13 14  1  0  0  0  0
 13 42  1  0  0  0  0
 14 15  2  0  0  0  0
 14 36  1  0  0  0  0
 16 17  1  0  0  0  0
 16 37  1  0  0  0  0
 16 38  1  0  0  0  0
 17 39  1  0  0  0  0
 17 40  1  0  0  0  0
M  CHG  1   8   1
M  END
> <s_m_source_file>
AV-unprocessed.smi

> <i_m_source_file_index>
3025

> <i_lp_mmshare_version>
43012

> <i_f3d_flags>
0

> <s_epik_input>
W0NIM11bQ0gyXVtDSDJdW0NAQEhdMVtDSDJdW0NIMl1bQ0BIXShbQ0gyXVtDSDJdMSlbTkhdW0NIMl1bQ0gyXWMybm5bY0hdW25IXTI=

> <s_epik_cmdline>
J2VwaWtfcHl0aG9uJywgJy1waCcsICc3LjAnLCAnLXRuJywgJzgnLCAnLW1hJywgJzIwMCcsICctbWV0YWxfYmluZGluZycsICctaW1hZScsICc8aW5maWxlLm1hZT4nLCAnLW9tYWUnLCAnPG91dGZpbGUubWFlPic=

> <r_epik_Ionization_Penalty>
0.00995411

> <r_epik_Ionization_Penalty_Charging>
0.000442289

> <r_epik_Ionization_Penalty_Neutral>
0.00951182

> <r_epik_State_Penalty>
0.448541

> <r_epik_Charging_Adjusted_Penalty>
0.448983

> <i_epik_Tot_Q>
1

> <i_epik_Tot_abs_Q>
1

> <r_epik_Metal_State_Penalty>
0.682245

> <b_epik_Metal_Only>
0

> <s_lp_Force_Field>
OPLS_2005

> <r_lp_Energy>
10.682

> <b_lp_Chiralities_Consistent>
1

> <s_lp_Variant>
AV-unprocessed.smi:3025-3

> <Gold.Version>
5.8.1

> <Gold.Id.Protein>
6NUR|6NUR_protein|mol2

> <Gold.PLP.Fitness>
43.7065

> <Gold.PLP.PLP>
-32.8107

> <Gold.PLP.part.hbond>
-2.6775

> <Gold.PLP.part.metal>
0.0000

> <Gold.PLP.part.buried>
-0.3787

> <Gold.PLP.part.nonpolar>
-32.4307

> <Gold.PLP.part.repulsive>
1.3932

> <Gold.PLP.ligand.clash>
0.0000

> <Gold.PLP.ligand.torsion>
0.5264

> <Gold.PLP.Chemscore.Hbond>
3.1419

> <Gold.PLP.Chemscore.CHOScore>
0.8269

> <Gold.PLP.Chemscore.Metal>
0.0000

> <Gold.Chemscore.Hbonds>
donor molecule, donor type, donor heavy atom, donor atom, acceptor molecule, acceptor atom, score
      L1  H     8    31       P1  7957  1.00
      L1  H     8    41       P1  7948  2.00
      P1  H  7954  7966       L1    15  0.30
      L1  C    14    36       P1  7921  0.92

> <Gold.PLP.Chemscore.Internal.Correction>
0.0421

> <Gold.Rescore>
     Score         DG    S(hbond)    S(metal)    S(lipo)     H(rot)  DE(clash)    DE(int)     intcor
     13.55     -14.72       1.74        0.00      85.20       2.56       0.35       0.81       ----

> <Gold.Chemscore.Fitness>
13.5497

> <Gold.Chemscore.DG>
-14.7172

> <Gold.Chemscore.ZeroCoef>
-5.4800

> <Gold.Chemscore.Hbond>
1.7436

> <Gold.Chemscore.Metal>
0.0000

> <Gold.Chemscore.Lipo>
85.1952

> <Gold.Chemscore.Internal_Hbond>
0.0000

> <Gold.Chemscore.DEClash>
0.3546

> <Gold.Chemscore.DEInternal>
0.8129

> <Gold.Chemscore.Rot>
2.5602

> <Gold.Chemscore.Internal.Correction>
   9.000000E+99

> <Gold.Chemscore.Hbonds>
donor molecule, donor type, donor heavy atom, donor atom, acceptor molecule, acceptor atom, score
      L1  H     8    31       P1  7957  0.94
      L1  H     8    41       P1  7948  0.98
      P1  H  7954  7966       L1    15  0.03

> <Gold.Chemscore.Hbond.Weighted>
-5.8236

> <Gold.Chemscore.Metal.Weighted>
-0.0000

> <Gold.Chemscore.Lipo.Weighted>
-9.9678

> <Gold.Chemscore.Internal_Hbond.Weighted>
0.0000

> <Gold.Chemscore.DEClash.Weighted>
0.3546

> <Gold.Chemscore.DEInternal.Weighted>
0.8129

> <Gold.Chemscore.Rot.Weighted>
6.5542

> <Gold.Chemscore.Internal.Correction.Weighted>
   9.000000E+99

> <Gold.Protein.RotatedTorsions>
[ 6907 6896 6895 6894 ] final   81.80 input  -60.11 | X-H torsion
[ 7974 7965 7964 7962 ] final  161.66 input  175.53 | X-H torsion
[ 8008 7997 7996 7995 ] final  -20.28 input   59.86 | X-H torsion
[ 10167 10162 10161 10158 ] final  163.50 input  -65.29 | X-H torsion
[ 10718 10713 10712 10709 ] final -167.36 input   66.30 | X-H torsion
[ 10763 10752 10751 10750 ] final  164.99 input  -60.55 | X-H torsion
[ 11005 11000 10999 10996 ] final  109.32 input  -57.11 | X-H torsion

> <Gold.Protein.ActiveResidues>
 VAL166  LYS551  ARG553  GLY616  TRP617  ASP618  TYR619  PRO620  LYS621  CYS622 
 ASP623  PHE694  ASN695  SER759  ASP760  ASP761  ALA762  ILE779  LEU786  VAL792 
 PHE793  MET794  SER795  GLU796  ALA797  LYS798  CYS799  TRP800  GLU811  SER814 

> <Gold.Protein.RotatedAtoms>
  152.5280  134.3148  159.9126 H   0  0  0  0  0  0  0  0  0  0  0  0  # atno 6907 bound_to 6896
  151.3097  133.4079  159.2653 H   0  0  0  0  0  0  0  0  0  0  0  0  # atno 6908 bound_to 6896
  151.0049  134.9368  159.8032 H   0  0  0  0  0  0  0  0  0  0  0  0  # atno 6909 bound_to 6896
  144.7675  139.7929  143.6310 H   0  0  0  0  0  0  0  0  0  0  0  0  # atno 7974 bound_to 7965
  154.4780  140.2066  155.9831 H   0  0  0  0  0  0  0  0  0  0  0  0  # atno 8008 bound_to 7997
  156.1120  140.3227  155.8056 H   0  0  0  0  0  0  0  0  0  0  0  0  # atno 8009 bound_to 7997
  155.4618  140.0524  157.2981 H   0  0  0  0  0  0  0  0  0  0  0  0  # atno 8010 bound_to 7997
  139.4875  144.4330  151.9047 H   0  0  0  0  0  0  0  0  0  0  0  0  # atno 10167 bound_to 10162
  156.6812  130.9122  151.3057 H   0  0  0  0  0  0  0  0  0  0  0  0  # atno 10718 bound_to 10713
  154.3173  135.2756  155.2537 H   0  0  0  0  0  0  0  0  0  0  0  0  # atno 10763 bound_to 10752
  154.4905  135.5834  153.6459 H   0  0  0  0  0  0  0  0  0  0  0  0  # atno 10764 bound_to 10752
  152.9881  135.6133  154.3355 H   0  0  0  0  0  0  0  0  0  0  0  0  # atno 10765 bound_to 10752
  139.8860  134.9455  156.6108 H   0  0  0  0  0  0  0  0  0  0  0  0  # atno 11005 bound_to 11000
  146.1794  139.4980  142.9876 LP  0  0  0  0  0  0  0  0  0  0  0  0  # atno 17320 bound_to 7965
  145.6426  141.0281  143.1803 LP  0  0  0  0  0  0  0  0  0  0  0  0  # atno 17321 bound_to 7965
  140.3779  144.2774  150.5912 LP  0  0  0  0  0  0  0  0  0  0  0  0  # atno 17342 bound_to 10162
  140.5260  143.2254  151.8314 LP  0  0  0  0  0  0  0  0  0  0  0  0  # atno 17343 bound_to 10162
  157.7043  130.9367  150.0881 LP  0  0  0  0  0  0  0  0  0  0  0  0  # atno 17370 bound_to 10713
  156.1866  130.3652  149.8964 LP  0  0  0  0  0  0  0  0  0  0  0  0  # atno 17371 bound_to 10713
  140.7813  133.8658  155.8570 LP  0  0  0  0  0  0  0  0  0  0  0  0  # atno 17394 bound_to 11000
  140.9758  134.1471  157.4537 LP  0  0  0  0  0  0  0  0  0  0  0  0  # atno 17395 bound_to 11000

$$$$
