AV-unprocessed.smi:267|AV-procd|sdf|2039|dock6
  -GOLD-   2262021253D 1   1.00000     0.00000
 Structure written by MMmdl.
 51 54  0  0  0  0  0  0  0  0  1 V2000
  147.9401  136.1090  162.5504 C   0  0  0  0  0  0  0  0  0  0  0  0
  146.9024  135.3109  162.0093 O   0  0  0  0  0  0  0  0  0  0  0  0
  147.0078  135.1606  160.6031 C   0  0  0  0  0  0  0  0  0  0  0  0
  148.2838  134.3811  160.2431 C   0  0  0  0  0  0  0  0  0  0  0  0
  148.2339  133.8371  158.8797 N   0  0  0  0  0  0  0  0  0  0  0  0
  147.5168  132.5599  158.7579 C   0  0  0  0  0  0  0  0  0  0  0  0
  147.8777  131.7844  157.4853 C   0  0  0  0  0  0  0  0  0  0  0  0
  147.8241  132.6823  156.3404 N   0  0  0  0  0  0  0  0  0  0  0  0
  147.5769  132.1289  155.1254 C   0  0  0  0  0  0  0  0  0  0  0  0
  147.7061  130.7853  154.9613 N   0  0  0  0  0  0  0  0  0  0  0  0
  147.4625  130.2216  153.7744 C   0  0  0  0  0  0  0  0  0  0  0  0
  147.0920  130.8056  152.6334 N   0  0  0  0  0  0  0  0  0  0  0  0
  146.9750  132.1551  152.7866 C   0  0  0  0  0  0  0  0  0  0  0  0
  147.1957  132.8921  153.9846 C   0  0  0  0  0  0  0  0  0  0  0  0
  146.9946  134.2474  153.7456 N   0  0  0  0  0  0  0  0  0  0  0  0
  146.6619  134.3064  152.4851 C   0  0  0  0  0  0  0  0  0  0  0  0
  146.6221  133.0944  151.8345 N   0  0  0  0  0  0  0  0  0  0  0  0
  146.2904  132.8634  150.4399 C   0  0  0  0  0  0  0  0  0  0  0  0
  144.7702  132.8701  150.1359 C   0  0  0  0  0  0  0  0  0  0  0  0
  144.1935  134.2293  150.5633 C   0  0  0  0  0  0  0  0  0  0  0  0
  144.5439  135.2523  149.6520 O   0  0  0  0  0  0  0  0  0  0  0  0
  144.2745  132.3916  148.7552 C   0  0  0  0  0  0  0  0  0  0  0  0
  143.2709  131.5476  149.3559 O   0  0  0  0  0  0  0  0  0  0  0  0
  143.9717  131.6466  150.6134 C   0  0  0  0  0  0  0  0  0  0  0  0
  148.6591  133.8859  156.4120 C   0  0  0  0  0  0  0  0  0  0  0  0
  148.7559  134.5040  157.8197 C   0  0  0  0  0  0  0  0  0  0  0  0
  149.3140  135.5958  157.9311 O   0  0  0  0  0  0  0  0  0  0  0  0
  147.8108  136.1965  163.6290 H   0  0  0  0  0  0  0  0  0  0  0  0
  147.9259  137.1141  162.1271 H   0  0  0  0  0  0  0  0  0  0  0  0
  148.9181  135.6634  162.3637 H   0  0  0  0  0  0  0  0  0  0  0  0
  146.1272  134.6530  160.2054 H   0  0  0  0  0  0  0  0  0  0  0  0
  147.0475  136.1475  160.1398 H   0  0  0  0  0  0  0  0  0  0  0  0
  149.1422  135.0493  160.3269 H   0  0  0  0  0  0  0  0  0  0  0  0
  148.4639  133.5930  160.9761 H   0  0  0  0  0  0  0  0  0  0  0  0
  147.7116  131.9322  159.6286 H   0  0  0  0  0  0  0  0  0  0  0  0
  146.4473  132.7748  158.7603 H   0  0  0  0  0  0  0  0  0  0  0  0
  148.8926  131.3922  157.5665 H   0  0  0  0  0  0  0  0  0  0  0  0
  147.2235  130.9199  157.3826 H   0  0  0  0  0  0  0  0  0  0  0  0
  147.5822  129.1491  153.7338 H   0  0  0  0  0  0  0  0  0  0  0  0
  146.4333  135.2408  151.9934 H   0  0  0  0  0  0  0  0  0  0  0  0
  146.8001  133.6209  149.8432 H   0  0  0  0  0  0  0  0  0  0  0  0
  146.7608  131.9210  150.1567 H   0  0  0  0  0  0  0  0  0  0  0  0
  143.1070  134.1854  150.6475 H   0  0  0  0  0  0  0  0  0  0  0  0
  144.5675  134.5169  151.5468 H   0  0  0  0  0  0  0  0  0  0  0  0
  144.8447  134.8511  148.8509 H   0  0  0  0  0  0  0  0  0  0  0  0
  143.8450  133.1834  148.1404 H   0  0  0  0  0  0  0  0  0  0  0  0
  144.9796  131.7971  148.1739 H   0  0  0  0  0  0  0  0  0  0  0  0
  144.5824  130.7620  150.8025 H   0  0  0  0  0  0  0  0  0  0  0  0
  143.3048  131.8451  151.4531 H   0  0  0  0  0  0  0  0  0  0  0  0
  149.6726  133.6505  156.0836 H   0  0  0  0  0  0  0  0  0  0  0  0
  148.2640  134.6407  155.7301 H   0  0  0  0  0  0  0  0  0  0  0  0
  1  2  1  0  0  0  0
  1 28  1  0  0  0  0
  1 29  1  0  0  0  0
  1 30  1  0  0  0  0
  2  3  1  0  0  0  0
  3  4  1  0  0  0  0
  3 31  1  0  0  0  0
  3 32  1  0  0  0  0
  4  5  1  0  0  0  0
  4 33  1  0  0  0  0
  4 34  1  0  0  0  0
  5 26  1  0  0  0  0
  5  6  1  0  0  0  0
  6  7  1  0  0  0  0
  6 35  1  0  0  0  0
  6 36  1  0  0  0  0
  7  8  1  0  0  0  0
  7 37  1  0  0  0  0
  7 38  1  0  0  0  0
  8  9  1  0  0  0  0
  8 25  1  0  0  0  0
  9 14  1  0  0  0  0
  9 10  2  0  0  0  0
 10 11  1  0  0  0  0
 11 12  2  0  0  0  0
 11 39  1  0  0  0  0
 12 13  1  0  0  0  0
 13 17  1  0  0  0  0
 13 14  2  0  0  0  0
 14 15  1  0  0  0  0
 15 16  2  0  0  0  0
 16 17  1  0  0  0  0
 16 40  1  0  0  0  0
 17 18  1  0  0  0  0
 18 19  1  0  0  0  0
 18 41  1  0  0  0  0
 18 42  1  0  0  0  0
 19 24  1  0  0  0  0
 19 20  1  0  0  0  0
 19 22  1  0  0  0  0
 20 21  1  0  0  0  0
 20 43  1  0  0  0  0
 20 44  1  0  0  0  0
 21 45  1  0  0  0  0
 22 23  1  0  0  0  0
 22 46  1  0  0  0  0
 22 47  1  0  0  0  0
 23 24  1  0  0  0  0
 24 48  1  0  0  0  0
 24 49  1  0  0  0  0
 25 26  1  0  0  0  0
 25 50  1  0  0  0  0
 25 51  1  0  0  0  0
 26 27  2  0  0  0  0
M  END
> <s_m_source_file>
AV-unprocessed.smi

> <i_m_source_file_index>
267

> <i_lp_mmshare_version>
43012

> <i_f3d_flags>
0

> <s_epik_input>
W0NIM11PW0NIMl1bQ0gyXU4xW0NIMl1bQ0gyXU4oW0NIMl1DMT1PKWMobltjSF1uMiljKGMyMyluW2NIXW4zW0NIMl1DNChbQ0gyXVtPSF0pW0NIMl1PW0NIMl00

> <s_epik_cmdline>
J2VwaWtfcHl0aG9uJywgJy1waCcsICc3LjAnLCAnLXRuJywgJzgnLCAnLW1hJywgJzIwMCcsICctbWV0YWxfYmluZGluZycsICctaW1hZScsICc8aW5maWxlLm1hZT4nLCAnLW9tYWUnLCAnPG91dGZpbGUubWFlPic=

> <r_lp_tautomer_probability>
1

> <r_epik_Ionization_Penalty>
0.000432285

> <r_epik_Ionization_Penalty_Charging>
0

> <r_epik_Ionization_Penalty_Neutral>
0.000432285

> <r_epik_State_Penalty>
0.000191954

> <r_epik_Charging_Adjusted_Penalty>
0.000191954

> <i_epik_Tot_Q>
0

> <i_epik_Tot_abs_Q>
0

> <r_epik_Metal_State_Penalty>
-0

> <b_epik_Metal_Only>
0

> <s_lp_Force_Field>
OPLS_2005

> <r_lp_Energy>
43.2758

> <b_lp_Chiralities_Consistent>
1

> <s_lp_Variant>
AV-unprocessed.smi:267-1

> <Gold.Version>
5.8.1

> <Gold.Id.Protein>
6NUR|6NUR_protein|mol2

> <Gold.PLP.Fitness>
42.1909

> <Gold.PLP.PLP>
-33.3849

> <Gold.PLP.part.hbond>
-3.1185

> <Gold.PLP.part.metal>
0.0000

> <Gold.PLP.part.buried>
-5.1687

> <Gold.PLP.part.nonpolar>
-26.1934

> <Gold.PLP.part.repulsive>
1.7375

> <Gold.PLP.ligand.clash>
0.0000

> <Gold.PLP.ligand.torsion>
1.4256

> <Gold.PLP.Chemscore.Hbond>
3.0000

> <Gold.PLP.Chemscore.CHOScore>
0.6626

> <Gold.PLP.Chemscore.Metal>
0.0000

> <Gold.Chemscore.Hbonds>
donor molecule, donor type, donor heavy atom, donor atom, acceptor molecule, acceptor atom, score
      L1  H    21    45       P1  7921  0.91
      P1  H  6896  6908       L1    27  0.07
      P1  H 10785 10796       L1    23  1.00
      L1  C    16    40       P1  7948  0.23

> <Gold.PLP.Chemscore.Internal.Correction>
0.6694

> <Gold.Rescore>
     Score         DG    S(hbond)    S(metal)    S(lipo)     H(rot)  DE(clash)    DE(int)     intcor
     12.63     -15.66       2.81        0.00      74.89       3.11       1.22       1.81       ----

> <Gold.Chemscore.Fitness>
12.6311

> <Gold.Chemscore.DG>
-15.6577

> <Gold.Chemscore.ZeroCoef>
-5.4800

> <Gold.Chemscore.Hbond>
2.8071

> <Gold.Chemscore.Metal>
0.0000

> <Gold.Chemscore.Lipo>
74.8874

> <Gold.Chemscore.Internal_Hbond>
0.0000

> <Gold.Chemscore.DEClash>
1.2214

> <Gold.Chemscore.DEInternal>
1.8052

> <Gold.Chemscore.Rot>
3.1093

> <Gold.Chemscore.Internal.Correction>
   9.000000E+99

> <Gold.Chemscore.Hbonds>
donor molecule, donor type, donor heavy atom, donor atom, acceptor molecule, acceptor atom, score
      L1  H    21    45       P1  7921  0.88
      P1  H 10785 10796       L1    23  0.75

> <Gold.Chemscore.Hbond.Weighted>
-9.3757

> <Gold.Chemscore.Metal.Weighted>
-0.0000

> <Gold.Chemscore.Lipo.Weighted>
-8.7618

> <Gold.Chemscore.Internal_Hbond.Weighted>
0.0000

> <Gold.Chemscore.DEClash.Weighted>
1.2214

> <Gold.Chemscore.DEInternal.Weighted>
1.8052

> <Gold.Chemscore.Rot.Weighted>
7.9599

> <Gold.Chemscore.Internal.Correction.Weighted>
   9.000000E+99

> <Gold.Protein.RotatedTorsions>
[ 6907 6896 6895 6894 ] final  168.91 input  -60.11 | X-H torsion
[ 7974 7965 7964 7962 ] final  158.56 input  175.53 | X-H torsion
[ 8008 7997 7996 7995 ] final   -4.47 input   59.86 | X-H torsion
[ 10167 10162 10161 10158 ] final  146.78 input  -65.29 | X-H torsion
[ 10718 10713 10712 10709 ] final -170.54 input   66.30 | X-H torsion
[ 10763 10752 10751 10750 ] final -146.54 input  -60.55 | X-H torsion
[ 11005 11000 10999 10996 ] final   17.16 input  -57.11 | X-H torsion

> <Gold.Protein.ActiveResidues>
 VAL166  LYS551  ARG553  GLY616  TRP617  ASP618  TYR619  PRO620  LYS621  CYS622 
 ASP623  PHE694  ASN695  SER759  ASP760  ASP761  ALA762  ILE779  LEU786  VAL792 
 PHE793  MET794  SER795  GLU796  ALA797  LYS798  CYS799  TRP800  GLU811  SER814 

> <Gold.Protein.RotatedAtoms>
  151.8402  133.3422  159.3640 H   0  0  0  0  0  0  0  0  0  0  0  0  # atno 6907 bound_to 6896
  150.7237  134.5398  159.5751 H   0  0  0  0  0  0  0  0  0  0  0  0  # atno 6908 bound_to 6896
  152.2870  134.7765  160.0436 H   0  0  0  0  0  0  0  0  0  0  0  0  # atno 6909 bound_to 6896
  144.7839  139.7495  143.6249 H   0  0  0  0  0  0  0  0  0  0  0  0  # atno 7974 bound_to 7965
  154.6139  140.2483  155.7633 H   0  0  0  0  0  0  0  0  0  0  0  0  # atno 8008 bound_to 7997
  156.2387  140.2940  156.0334 H   0  0  0  0  0  0  0  0  0  0  0  0  # atno 8009 bound_to 7997
  155.2006  140.0394  157.2907 H   0  0  0  0  0  0  0  0  0  0  0  0  # atno 8010 bound_to 7997
  139.4901  144.5804  151.6882 H   0  0  0  0  0  0  0  0  0  0  0  0  # atno 10167 bound_to 10162
  156.7277  130.9294  151.3102 H   0  0  0  0  0  0  0  0  0  0  0  0  # atno 10718 bound_to 10713
  154.8331  135.3384  154.6677 H   0  0  0  0  0  0  0  0  0  0  0  0  # atno 10763 bound_to 10752
  153.7295  135.6953  153.4997 H   0  0  0  0  0  0  0  0  0  0  0  0  # atno 10764 bound_to 10752
  153.2322  135.4412  155.0560 H   0  0  0  0  0  0  0  0  0  0  0  0  # atno 10765 bound_to 10752
  140.4390  134.1341  155.7688 H   0  0  0  0  0  0  0  0  0  0  0  0  # atno 11005 bound_to 11000
  146.2061  139.5387  142.9711 LP  0  0  0  0  0  0  0  0  0  0  0  0  # atno 17320 bound_to 7965
  145.5975  141.0360  143.2037 LP  0  0  0  0  0  0  0  0  0  0  0  0  # atno 17321 bound_to 7965
  140.5409  144.0580  150.6088 LP  0  0  0  0  0  0  0  0  0  0  0  0  # atno 17342 bound_to 10162
  140.3602  143.2912  152.0392 LP  0  0  0  0  0  0  0  0  0  0  0  0  # atno 17343 bound_to 10162
  157.6872  130.9197  150.0417 LP  0  0  0  0  0  0  0  0  0  0  0  0  # atno 17370 bound_to 10713
  156.1551  130.3643  149.9381 LP  0  0  0  0  0  0  0  0  0  0  0  0  # atno 17371 bound_to 10713
  141.1713  133.8602  157.1560 LP  0  0  0  0  0  0  0  0  0  0  0  0  # atno 17394 bound_to 11000
  140.0083  134.9999  157.0339 LP  0  0  0  0  0  0  0  0  0  0  0  0  # atno 17395 bound_to 11000

$$$$
