AV-unprocessed.smi:1139|AV-procd|sdf|4869|dock5
  -GOLD-   22720 3443D 1   1.00000     0.00000
 Structure written by MMmdl.
 43 44  0  0  0  0  0  0  0  0  2 V2000
  148.4244  136.4547  156.0031 C   0  0  0  0  0  0  0  0  0  0  0  0
  149.6004  136.7268  156.8968 C   0  0  0  0  0  0  0  0  0  0  0  0
  149.5593  136.3457  158.1625 N   0  0  0  0  0  0  0  0  0  0  0  0
  150.7826  136.7313  158.7190 O   0  0  0  0  0  0  0  0  0  0  0  0
  151.5212  137.3370  157.7545 C   0  0  0  0  0  0  0  0  0  0  0  0
  152.8734  137.8239  158.1530 C   0  0  0  0  0  0  0  0  0  0  0  0
  150.8311  137.3678  156.5736 C   0  0  0  0  0  0  0  0  0  0  0  0
  151.2627  137.9388  155.2480 C   0  0  0  0  0  0  0  0  0  0  0  0
  151.5434  139.4342  155.3989 C   0  0  0  0  0  0  0  0  0  0  0  0
  152.6515  139.8848  155.1093 O   0  0  0  0  0  0  0  0  0  0  0  0
  150.5327  140.1916  155.8536 N   0  0  0  0  0  0  0  0  0  0  0  0
  150.5990  141.6269  156.1178 C   0  0  0  0  0  0  0  0  0  0  0  0
  150.1249  142.0062  157.5450 C   0  0  2  0  0  0  0  0  0  0  0  0
  148.6023  141.7979  157.7097 C   0  0  0  0  0  0  0  0  0  0  0  0
  150.5074  143.4108  157.8788 N   0  3  0  0  0  0  0  0  0  0  0  0
  150.0798  143.8835  159.2140 C   0  0  0  0  0  0  0  0  0  0  0  0
  150.9432  145.1066  159.5291 C   0  0  0  0  0  0  0  0  0  0  0  0
  152.1726  144.9826  158.6263 C   0  0  0  0  0  0  0  0  0  0  0  0
  151.9558  143.7055  157.8106 C   0  0  0  0  0  0  0  0  0  0  0  0
  148.2167  137.3076  155.3572 H   0  0  0  0  0  0  0  0  0  0  0  0
  147.5200  136.2514  156.5778 H   0  0  0  0  0  0  0  0  0  0  0  0
  148.6134  135.5918  155.3645 H   0  0  0  0  0  0  0  0  0  0  0  0
  153.1222  138.7484  157.6320 H   0  0  0  0  0  0  0  0  0  0  0  0
  153.6358  137.0839  157.9104 H   0  0  0  0  0  0  0  0  0  0  0  0
  152.9198  138.0195  159.2245 H   0  0  0  0  0  0  0  0  0  0  0  0
  152.1666  137.4505  154.8821 H   0  0  0  0  0  0  0  0  0  0  0  0
  150.5038  137.7799  154.4805 H   0  0  0  0  0  0  0  0  0  0  0  0
  149.6585  139.7308  156.0619 H   0  0  0  0  0  0  0  0  0  0  0  0
  151.6431  141.9036  155.9750 H   0  0  0  0  0  0  0  0  0  0  0  0
  150.0341  142.1877  155.3708 H   0  0  0  0  0  0  0  0  0  0  0  0
  150.6293  141.3477  158.2543 H   0  0  0  0  0  0  0  0  0  0  0  0
  148.3108  140.7684  157.5045 H   0  0  0  0  0  0  0  0  0  0  0  0
  148.0401  142.4420  157.0326 H   0  0  0  0  0  0  0  0  0  0  0  0
  148.2650  142.0045  158.7248 H   0  0  0  0  0  0  0  0  0  0  0  0
  149.0171  144.1259  159.2422 H   0  0  0  0  0  0  0  0  0  0  0  0
  150.2693  143.1039  159.9539 H   0  0  0  0  0  0  0  0  0  0  0  0
  150.4011  146.0228  159.2913 H   0  0  0  0  0  0  0  0  0  0  0  0
  151.2097  145.1480  160.5859 H   0  0  0  0  0  0  0  0  0  0  0  0
  152.2363  145.8493  157.9668 H   0  0  0  0  0  0  0  0  0  0  0  0
  153.0996  144.9372  159.1989 H   0  0  0  0  0  0  0  0  0  0  0  0
  152.5155  142.8856  158.2637 H   0  0  0  0  0  0  0  0  0  0  0  0
  152.3011  143.8236  156.7831 H   0  0  0  0  0  0  0  0  0  0  0  0
  150.0604  144.0163  157.2047 H   0  0  0  0  0  0  0  0  0  0  0  0
  1  2  1  0  0  0  0
  1 20  1  0  0  0  0
  1 21  1  0  0  0  0
  1 22  1  0  0  0  0
  2  7  1  0  0  0  0
  2  3  2  0  0  0  0
  3  4  1  0  0  0  0
  4  5  1  0  0  0  0
  5  6  1  0  0  0  0
  5  7  2  0  0  0  0
  6 23  1  0  0  0  0
  6 24  1  0  0  0  0
  6 25  1  0  0  0  0
  7  8  1  0  0  0  0
  8  9  1  0  0  0  0
  8 26  1  0  0  0  0
  8 27  1  0  0  0  0
  9 10  2  0  0  0  0
  9 11  1  0  0  0  0
 11 12  1  0  0  0  0
 11 28  1  0  0  0  0
 12 13  1  0  0  0  0
 12 29  1  0  0  0  0
 12 30  1  0  0  0  0
 13 14  1  0  0  0  0
 13 15  1  0  0  0  0
 13 31  1  0  0  0  0
 14 32  1  0  0  0  0
 14 33  1  0  0  0  0
 14 34  1  0  0  0  0
 15 19  1  0  0  0  0
 15 16  1  0  0  0  0
 15 43  1  0  0  0  0
 16 17  1  0  0  0  0
 16 35  1  0  0  0  0
 16 36  1  0  0  0  0
 17 18  1  0  0  0  0
 17 37  1  0  0  0  0
 17 38  1  0  0  0  0
 18 19  1  0  0  0  0
 18 39  1  0  0  0  0
 18 40  1  0  0  0  0
 19 41  1  0  0  0  0
 19 42  1  0  0  0  0
M  CHG  1  15   1
M  END
> <s_m_source_file>
AV-unprocessed.smi

> <i_m_source_file_index>
1139

> <i_lp_mmshare_version>
43012

> <i_f3d_flags>
0

> <s_epik_input>
W0NIM11jMW5vYyhbQ0gzXSljMVtDSDJdQyg9TylbTkhdW0NIMl1bQ0BIXShbQ0gzXSlOMltDSDJdW0NIMl1bQ0gyXVtDSDJdMg==

> <s_epik_cmdline>
J2VwaWtfcHl0aG9uJywgJy1waCcsICc3LjAnLCAnLXRuJywgJzgnLCAnLW1hJywgJzIwMCcsICctbWV0YWxfYmluZGluZycsICctaW1hZScsICc8aW5maWxlLm1hZT4nLCAnLW9tYWUnLCAnPG91dGZpbGUubWFlPic=

> <r_epik_Ionization_Penalty>
0.0050436

> <r_epik_Ionization_Penalty_Charging>
0.0050435

> <r_epik_Ionization_Penalty_Neutral>
9.69799e-08

> <r_epik_State_Penalty>
0.00366867

> <r_epik_Charging_Adjusted_Penalty>
0.00871217

> <i_epik_Tot_Q>
1

> <i_epik_Tot_abs_Q>
1

> <r_epik_Metal_State_Penalty>
-0

> <b_epik_Metal_Only>
0

> <s_lp_Force_Field>
OPLS_2005

> <r_lp_Energy>
25.3713

> <b_lp_Chiralities_Consistent>
1

> <s_lp_Variant>
AV-unprocessed.smi:1139-1

> <Gold.Version>
5.8.1

> <Gold.Id.Protein>
6NUR|6NUR_protein|mol2

> <Gold.PLP.Fitness>
44.0231

> <Gold.PLP.PLP>
-31.7533

> <Gold.PLP.part.hbond>
-4.0000

> <Gold.PLP.part.metal>
0.0000

> <Gold.PLP.part.buried>
-6.4226

> <Gold.PLP.part.nonpolar>
-22.3088

> <Gold.PLP.part.repulsive>
0.1198

> <Gold.PLP.ligand.clash>
0.0000

> <Gold.PLP.ligand.torsion>
0.1089

> <Gold.PLP.Chemscore.Hbond>
4.1380

> <Gold.PLP.Chemscore.CHOScore>
0.0000

> <Gold.PLP.Chemscore.Metal>
0.0000

> <Gold.Chemscore.Hbonds>
donor molecule, donor type, donor heavy atom, donor atom, acceptor molecule, acceptor atom, score
      L1  H    15    43       P1  8028  1.95
      P1  H  6896  6909       L1     4  0.99
      P1  H  7989  7998       L1    10  0.15
      P1  H  7997  8010       L1    10  1.00

> <Gold.PLP.Chemscore.Internal.Correction>
0.0735

> <Gold.Rescore>
     Score         DG    S(hbond)    S(metal)    S(lipo)     H(rot)  DE(clash)    DE(int)     intcor
     19.54     -19.66       2.78        0.00      79.39       1.72       0.02       0.10       ----

> <Gold.Chemscore.Fitness>
19.5449

> <Gold.Chemscore.DG>
-19.6647

> <Gold.Chemscore.ZeroCoef>
-5.4800

> <Gold.Chemscore.Hbond>
2.7840

> <Gold.Chemscore.Metal>
0.0000

> <Gold.Chemscore.Lipo>
79.3852

> <Gold.Chemscore.Internal_Hbond>
0.0000

> <Gold.Chemscore.DEClash>
0.0207

> <Gold.Chemscore.DEInternal>
0.0992

> <Gold.Chemscore.Rot>
1.7195

> <Gold.Chemscore.Internal.Correction>
   9.000000E+99

> <Gold.Chemscore.Hbonds>
donor molecule, donor type, donor heavy atom, donor atom, acceptor molecule, acceptor atom, score
      L1  H    15    43       P1  8028  0.78
      P1  H  6896  6909       L1     4  0.23
      P1  H  7997  8010       L1    10  0.94

> <Gold.Chemscore.Hbond.Weighted>
-9.2984

> <Gold.Chemscore.Metal.Weighted>
-0.0000

> <Gold.Chemscore.Lipo.Weighted>
-9.2881

> <Gold.Chemscore.Internal_Hbond.Weighted>
0.0000

> <Gold.Chemscore.DEClash.Weighted>
0.0207

> <Gold.Chemscore.DEInternal.Weighted>
0.0992

> <Gold.Chemscore.Rot.Weighted>
4.4018

> <Gold.Chemscore.Internal.Correction.Weighted>
   9.000000E+99

> <Gold.Protein.RotatedTorsions>
[ 6907 6896 6895 6894 ] final   96.34 input  -60.11 | X-H torsion
[ 7974 7965 7964 7962 ] final -136.57 input  175.53 | X-H torsion
[ 8008 7997 7996 7995 ] final  113.92 input   59.86 | X-H torsion
[ 10167 10162 10161 10158 ] final  -38.59 input  -65.29 | X-H torsion
[ 10718 10713 10712 10709 ] final   77.41 input   66.30 | X-H torsion
[ 10763 10752 10751 10750 ] final  -14.54 input  -60.55 | X-H torsion
[ 11005 11000 10999 10996 ] final   32.21 input  -57.11 | X-H torsion

> <Gold.Protein.ActiveResidues>
 VAL166  LYS551  ARG553  GLY616  TRP617  ASP618  TYR619  PRO620  LYS621  CYS622 
 ASP623  PHE694  ASN695  SER759  ASP760  ASP761  ALA762  ILE779  LEU786  VAL792 
 PHE793  MET794  SER795  GLU796  ALA797  LYS798  CYS799  TRP800  GLU811  SER814 

> <Gold.Protein.RotatedAtoms>
  152.5436  134.0901  159.8272 H   0  0  0  0  0  0  0  0  0  0  0  0  # atno 6907 bound_to 6896
  151.0992  133.5249  159.2618 H   0  0  0  0  0  0  0  0  0  0  0  0  # atno 6908 bound_to 6896
  151.2011  135.0452  159.8927 H   0  0  0  0  0  0  0  0  0  0  0  0  # atno 6909 bound_to 6896
  144.8916  140.6650  143.5142 H   0  0  0  0  0  0  0  0  0  0  0  0  # atno 7974 bound_to 7965
  156.2289  140.2969  156.0137 H   0  0  0  0  0  0  0  0  0  0  0  0  # atno 8008 bound_to 7997
  155.2280  140.0418  157.2975 H   0  0  0  0  0  0  0  0  0  0  0  0  # atno 8009 bound_to 7997
  154.5962  140.2414  155.7862 H   0  0  0  0  0  0  0  0  0  0  0  0  # atno 8010 bound_to 7997
  140.7088  143.3267  151.2663 H   0  0  0  0  0  0  0  0  0  0  0  0  # atno 10167 bound_to 10162
  157.6709  130.9820  150.1638 H   0  0  0  0  0  0  0  0  0  0  0  0  # atno 10718 bound_to 10713
  153.5298  135.7015  153.5689 H   0  0  0  0  0  0  0  0  0  0  0  0  # atno 10763 bound_to 10752
  153.3702  135.3947  155.1782 H   0  0  0  0  0  0  0  0  0  0  0  0  # atno 10764 bound_to 10752
  154.8686  135.3810  154.4794 H   0  0  0  0  0  0  0  0  0  0  0  0  # atno 10765 bound_to 10752
  140.2758  134.3029  155.7814 H   0  0  0  0  0  0  0  0  0  0  0  0  # atno 11005 bound_to 11000
  145.3773  139.1645  143.4299 LP  0  0  0  0  0  0  0  0  0  0  0  0  # atno 17320 bound_to 7965
  146.3057  140.3850  142.8688 LP  0  0  0  0  0  0  0  0  0  0  0  0  # atno 17321 bound_to 7965
  139.6738  143.9974  152.2768 LP  0  0  0  0  0  0  0  0  0  0  0  0  # atno 17342 bound_to 10162
  139.9581  144.6576  150.8106 LP  0  0  0  0  0  0  0  0  0  0  0  0  # atno 17343 bound_to 10162
  156.2408  130.3691  149.8339 LP  0  0  0  0  0  0  0  0  0  0  0  0  # atno 17370 bound_to 10713
  156.6140  130.8598  151.3460 LP  0  0  0  0  0  0  0  0  0  0  0  0  # atno 17371 bound_to 10713
  141.2170  133.7495  156.9405 LP  0  0  0  0  0  0  0  0  0  0  0  0  # atno 17394 bound_to 11000
  140.1330  134.9344  157.2363 LP  0  0  0  0  0  0  0  0  0  0  0  0  # atno 17395 bound_to 11000

$$$$
