AV-unprocessed.smi:3166|AV-procd|sdf|12095|dock9
  -GOLD-   2272017533D 1   1.00000     0.00000
 Structure written by MMmdl.
 40 41  0  0  0  0  0  0  0  0  1 V2000
  152.7567  139.1432  158.5392 C   0  0  0  0  0  0  0  0  0  0  0  0
  152.2707  140.5628  158.1792 C   0  0  2  0  0  0  0  0  0  0  0  0
  151.9960  141.4263  159.4281 C   0  0  0  0  0  0  0  0  0  0  0  0
  151.8753  142.8418  159.1238 N   0  0  0  0  0  0  0  0  0  0  0  0
  152.7275  143.8680  159.4748 C   0  0  0  0  0  0  0  0  0  0  0  0
  152.2065  145.0222  158.9641 C   0  0  0  0  0  0  0  0  0  0  0  0
  151.0227  144.5938  158.3007 C   0  0  0  0  0  0  0  0  0  0  0  0
  150.8283  143.2884  158.3963 N   0  0  0  0  0  0  0  0  0  0  0  0
  151.0656  140.5319  157.3448 N   0  0  0  0  0  0  0  0  0  0  0  0
  151.2503  140.0260  155.9811 C   0  0  0  0  0  0  0  0  0  0  0  0
  149.9740  140.1647  155.1204 C   0  0  0  0  0  0  0  0  0  0  0  0
  150.3076  139.7253  153.8159 O   0  0  0  0  0  0  0  0  0  0  0  0
  148.7876  139.3319  155.6710 C   0  0  0  0  0  0  0  0  0  0  0  0
  147.4743  139.5766  154.9057 C   0  0  0  0  0  0  0  0  0  0  0  0
  147.1172  141.0686  154.8623 C   0  0  0  0  0  0  0  0  0  0  0  0
  148.2648  141.8866  154.2549 C   0  0  0  0  0  0  0  0  0  0  0  0
  149.5790  141.6579  155.0227 C   0  0  0  0  0  0  0  0  0  0  0  0
  153.6386  139.1722  159.1790 H   0  0  0  0  0  0  0  0  0  0  0  0
  153.0399  138.5722  157.6558 H   0  0  0  0  0  0  0  0  0  0  0  0
  151.9844  138.5839  159.0680 H   0  0  0  0  0  0  0  0  0  0  0  0
  153.0668  141.0522  157.6166 H   0  0  0  0  0  0  0  0  0  0  0  0
  151.0690  141.1096  159.9084 H   0  0  0  0  0  0  0  0  0  0  0  0
  152.7899  141.2872  160.1644 H   0  0  0  0  0  0  0  0  0  0  0  0
  153.6211  143.6935  160.0556 H   0  0  0  0  0  0  0  0  0  0  0  0
  152.6105  146.0201  159.0496 H   0  0  0  0  0  0  0  0  0  0  0  0
  150.3043  145.1884  157.7558 H   0  0  0  0  0  0  0  0  0  0  0  0
  150.6555  141.4595  157.3074 H   0  0  0  0  0  0  0  0  0  0  0  0
  152.0602  140.5780  155.5026 H   0  0  0  0  0  0  0  0  0  0  0  0
  151.5587  138.9807  155.9970 H   0  0  0  0  0  0  0  0  0  0  0  0
  149.6496  140.0455  153.2177 H   0  0  0  0  0  0  0  0  0  0  0  0
  149.0183  138.2664  155.6445 H   0  0  0  0  0  0  0  0  0  0  0  0
  148.6326  139.5820  156.7214 H   0  0  0  0  0  0  0  0  0  0  0  0
  147.5638  139.1929  153.8887 H   0  0  0  0  0  0  0  0  0  0  0  0
  146.6645  139.0165  155.3739 H   0  0  0  0  0  0  0  0  0  0  0  0
  146.2066  141.2170  154.2813 H   0  0  0  0  0  0  0  0  0  0  0  0
  146.9044  141.4260  155.8706 H   0  0  0  0  0  0  0  0  0  0  0  0
  148.3951  141.6135  153.2070 H   0  0  0  0  0  0  0  0  0  0  0  0
  148.0094  142.9466  154.2652 H   0  0  0  0  0  0  0  0  0  0  0  0
  149.4662  142.0657  156.0282 H   0  0  0  0  0  0  0  0  0  0  0  0
  150.3805  142.2314  154.5552 H   0  0  0  0  0  0  0  0  0  0  0  0
  1  2  1  0  0  0  0
  1 18  1  0  0  0  0
  1 19  1  0  0  0  0
  1 20  1  0  0  0  0
  2  3  1  0  0  0  0
  2  9  1  0  0  0  0
  2 21  1  0  0  0  0
  3  4  1  0  0  0  0
  3 22  1  0  0  0  0
  3 23  1  0  0  0  0
  4  8  1  0  0  0  0
  4  5  1  0  0  0  0
  5  6  2  0  0  0  0
  5 24  1  0  0  0  0
  6  7  1  0  0  0  0
  6 25  1  0  0  0  0
  7  8  2  0  0  0  0
  7 26  1  0  0  0  0
  9 10  1  0  0  0  0
  9 27  1  0  0  0  0
 10 11  1  0  0  0  0
 10 28  1  0  0  0  0
 10 29  1  0  0  0  0
 11 17  1  0  0  0  0
 11 12  1  0  0  0  0
 11 13  1  0  0  0  0
 12 30  1  0  0  0  0
 13 14  1  0  0  0  0
 13 31  1  0  0  0  0
 13 32  1  0  0  0  0
 14 15  1  0  0  0  0
 14 33  1  0  0  0  0
 14 34  1  0  0  0  0
 15 16  1  0  0  0  0
 15 35  1  0  0  0  0
 15 36  1  0  0  0  0
 16 17  1  0  0  0  0
 16 37  1  0  0  0  0
 16 38  1  0  0  0  0
 17 39  1  0  0  0  0
 17 40  1  0  0  0  0
M  END
> <s_m_source_file>
AV-unprocessed.smi

> <i_m_source_file_index>
3166

> <i_lp_mmshare_version>
43012

> <i_f3d_flags>
0

> <s_epik_input>
bjFbY0hdW2NIXVtjSF1uMVtDSDJdW0NAQEhdKFtDSDNdKVtOSF1bQ0gyXUMyKFtPSF0pW0NIMl1bQ0gyXVtDSDJdW0NIMl1bQ0gyXTI=

> <s_epik_cmdline>
J2VwaWtfcHl0aG9uJywgJy1waCcsICc3LjAnLCAnLXRuJywgJzgnLCAnLW1hJywgJzIwMCcsICctbWV0YWxfYmluZGluZycsICctaW1hZScsICc8aW5maWxlLm1hZT4nLCAnLW9tYWUnLCAnPG91dGZpbGUubWFlPic=

> <r_lp_tautomer_probability>
1

> <r_epik_Ionization_Penalty>
2.35964

> <r_epik_Ionization_Penalty_Charging>
0

> <r_epik_Ionization_Penalty_Neutral>
2.35964

> <r_epik_State_Penalty>
2.51455

> <r_epik_Charging_Adjusted_Penalty>
2.51455

> <i_epik_Tot_Q>
0

> <i_epik_Tot_abs_Q>
0

> <r_epik_Metal_State_Penalty>
2.51451

> <b_epik_Metal_Only>
0

> <s_lp_Force_Field>
OPLS_2005

> <r_lp_Energy>
22.8123

> <b_lp_Chiralities_Consistent>
1

> <s_lp_Variant>
AV-unprocessed.smi:3166-3

> <Gold.Version>
5.8.1

> <Gold.Id.Protein>
6NUR|6NUR_protein|mol2

> <Gold.PLP.Fitness>
41.3295

> <Gold.PLP.PLP>
-34.3715

> <Gold.PLP.part.hbond>
-2.0000

> <Gold.PLP.part.metal>
0.0000

> <Gold.PLP.part.buried>
-1.6936

> <Gold.PLP.part.nonpolar>
-30.6567

> <Gold.PLP.part.repulsive>
0.1171

> <Gold.PLP.ligand.clash>
0.0000

> <Gold.PLP.ligand.torsion>
0.2189

> <Gold.PLP.Chemscore.Hbond>
1.5243

> <Gold.PLP.Chemscore.CHOScore>
0.9283

> <Gold.PLP.Chemscore.Metal>
0.0000

> <Gold.Chemscore.Hbonds>
donor molecule, donor type, donor heavy atom, donor atom, acceptor molecule, acceptor atom, score
      L1  H    12    30       P1  7957  0.56
      P1  H  7989  7998       L1    12  0.93
      L1  C     7    26       P1  8028  0.49
      L1  C     7    26       P1  8029  0.42

> <Gold.PLP.Chemscore.Internal.Correction>
0.0379

> <Gold.Rescore>
     Score         DG    S(hbond)    S(metal)    S(lipo)     H(rot)  DE(clash)    DE(int)     intcor
     13.87     -14.84       1.01        0.00      97.49       2.12       0.59       0.38       ----

> <Gold.Chemscore.Fitness>
13.8710

> <Gold.Chemscore.DG>
-14.8415

> <Gold.Chemscore.ZeroCoef>
-5.4800

> <Gold.Chemscore.Hbond>
1.0135

> <Gold.Chemscore.Metal>
0.0000

> <Gold.Chemscore.Lipo>
97.4886

> <Gold.Chemscore.Internal_Hbond>
0.0000

> <Gold.Chemscore.DEClash>
0.5856

> <Gold.Chemscore.DEInternal>
0.3849

> <Gold.Chemscore.Rot>
2.1209

> <Gold.Chemscore.Internal.Correction>
   9.000000E+99

> <Gold.Chemscore.Hbonds>
donor molecule, donor type, donor heavy atom, donor atom, acceptor molecule, acceptor atom, score
      L1  H    12    30       P1  7957  0.54
      P1  H  7989  7998       L1    12  0.05

> <Gold.Chemscore.Hbond.Weighted>
-3.3850

> <Gold.Chemscore.Metal.Weighted>
-0.0000

> <Gold.Chemscore.Lipo.Weighted>
-11.4062

> <Gold.Chemscore.Internal_Hbond.Weighted>
0.0000

> <Gold.Chemscore.DEClash.Weighted>
0.5856

> <Gold.Chemscore.DEInternal.Weighted>
0.3849

> <Gold.Chemscore.Rot.Weighted>
5.4296

> <Gold.Chemscore.Internal.Correction.Weighted>
   9.000000E+99

> <Gold.Protein.RotatedTorsions>
[ 6907 6896 6895 6894 ] final   45.24 input  -60.11 | X-H torsion
[ 7974 7965 7964 7962 ] final -158.99 input  175.53 | X-H torsion
[ 8008 7997 7996 7995 ] final    9.39 input   59.86 | X-H torsion
[ 10167 10162 10161 10158 ] final -159.93 input  -65.29 | X-H torsion
[ 10718 10713 10712 10709 ] final  175.86 input   66.30 | X-H torsion
[ 10763 10752 10751 10750 ] final  -40.80 input  -60.55 | X-H torsion
[ 11005 11000 10999 10996 ] final  145.14 input  -57.11 | X-H torsion

> <Gold.Protein.ActiveResidues>
 VAL166  LYS551  ARG553  GLY616  TRP617  ASP618  TYR619  PRO620  LYS621  CYS622 
 ASP623  PHE694  ASN695  SER759  ASP760  ASP761  ALA762  ILE779  LEU786  VAL792 
 PHE793  MET794  SER795  GLU796  ALA797  LYS798  CYS799  TRP800  GLU811  SER814 

> <Gold.Protein.RotatedAtoms>
  152.2421  134.8218  160.0458 H   0  0  0  0  0  0  0  0  0  0  0  0  # atno 6907 bound_to 6896
  151.8928  133.3515  159.3812 H   0  0  0  0  0  0  0  0  0  0  0  0  # atno 6908 bound_to 6896
  150.7057  134.4832  159.5524 H   0  0  0  0  0  0  0  0  0  0  0  0  # atno 6909 bound_to 6896
  144.7483  140.3749  143.6068 H   0  0  0  0  0  0  0  0  0  0  0  0  # atno 7974 bound_to 7965
  154.7794  140.2816  155.6075 H   0  0  0  0  0  0  0  0  0  0  0  0  # atno 8008 bound_to 7997
  156.2947  140.2626  156.2544 H   0  0  0  0  0  0  0  0  0  0  0  0  # atno 8009 bound_to 7997
  154.9802  140.0375  157.2264 H   0  0  0  0  0  0  0  0  0  0  0  0  # atno 8010 bound_to 7997
  139.6578  143.9968  152.2205 H   0  0  0  0  0  0  0  0  0  0  0  0  # atno 10167 bound_to 10162
  156.9287  130.9964  151.2991 H   0  0  0  0  0  0  0  0  0  0  0  0  # atno 10718 bound_to 10713
  153.9520  135.6749  153.4744 H   0  0  0  0  0  0  0  0  0  0  0  0  # atno 10763 bound_to 10752
  153.0880  135.4889  154.8631 H   0  0  0  0  0  0  0  0  0  0  0  0  # atno 10764 bound_to 10752
  154.7320  135.3140  154.8834 H   0  0  0  0  0  0  0  0  0  0  0  0  # atno 10765 bound_to 10752
  140.0688  134.9163  157.1310 H   0  0  0  0  0  0  0  0  0  0  0  0  # atno 11005 bound_to 11000
  145.7039  139.1668  143.2577 LP  0  0  0  0  0  0  0  0  0  0  0  0  # atno 17320 bound_to 7965
  146.1396  140.7076  142.9373 LP  0  0  0  0  0  0  0  0  0  0  0  0  # atno 17321 bound_to 7965
  139.9699  144.6501  150.7999 LP  0  0  0  0  0  0  0  0  0  0  0  0  # atno 17342 bound_to 10162
  140.7567  143.3070  151.2937 LP  0  0  0  0  0  0  0  0  0  0  0  0  # atno 17343 bound_to 10162
  157.5861  130.8410  149.8591 LP  0  0  0  0  0  0  0  0  0  0  0  0  # atno 17370 bound_to 10713
  156.0457  130.3728  150.1323 LP  0  0  0  0  0  0  0  0  0  0  0  0  # atno 17371 bound_to 10713
  140.3658  134.2444  155.7182 LP  0  0  0  0  0  0  0  0  0  0  0  0  # atno 17394 bound_to 11000
  141.2004  133.7989  157.0493 LP  0  0  0  0  0  0  0  0  0  0  0  0  # atno 17395 bound_to 11000

$$$$
