AV-unprocessed.smi:740|AV-procd|sdf|3553|dock2
  -GOLD-   22720 0553D 1   1.00000     0.00000
 Structure written by MMmdl.
 45 47  0  0  0  0  0  0  0  0  2 V2000
  151.9517  143.3062  160.5348 C   0  0  0  0  0  0  0  0  0  0  0  0
  151.7626  142.3568  159.3640 C   0  0  0  0  0  0  0  0  0  0  0  0
  150.9090  142.7494  158.3087 C   0  0  0  0  0  0  0  0  0  0  0  0
  150.7567  141.8602  157.2515 C   0  0  0  0  0  0  0  0  0  0  0  0
  150.0019  141.9541  156.0804 N   0  3  0  0  0  0  0  0  0  0  0  0
  150.1730  140.8256  155.3382 C   0  0  0  0  0  0  0  0  0  0  0  0
  151.0231  140.0106  156.0196 N   0  0  0  0  0  0  0  0  0  0  0  0
  151.5316  138.6799  155.6576 C   0  0  0  0  0  0  0  0  0  0  0  0
  150.6532  137.9734  154.6068 C   0  0  1  0  0  0  0  0  0  0  0  0
  151.4402  137.0214  153.9176 O   0  0  0  0  0  0  0  0  0  0  0  0
  149.4585  137.2495  155.2604 C   0  0  0  0  0  0  0  0  0  0  0  0
  149.7357  135.8271  155.4920 N   0  0  0  0  0  0  0  0  0  0  0  0
  150.6945  135.3729  156.3104 C   0  0  0  0  0  0  0  0  0  0  0  0
  151.4710  136.0597  156.9739 O   0  0  0  0  0  0  0  0  0  0  0  0
  150.7126  133.8510  156.3390 C   0  0  0  0  0  0  0  0  0  0  0  0
  149.5749  133.4666  155.3809 C   0  0  2  0  0  0  0  0  0  0  0  0
  150.0292  132.5965  154.1973 C   0  0  0  0  0  0  0  0  0  0  0  0
  149.0520  134.8259  154.9203 C   0  0  0  0  0  0  0  0  0  0  0  0
  148.1185  134.9455  154.1264 O   0  0  0  0  0  0  0  0  0  0  0  0
  151.4158  140.6158  157.2196 C   0  0  0  0  0  0  0  0  0  0  0  0
  152.2617  140.2144  158.2513 C   0  0  0  0  0  0  0  0  0  0  0  0
  152.4324  141.1062  159.3343 C   0  0  0  0  0  0  0  0  0  0  0  0
  153.3545  140.6973  160.4703 C   0  0  0  0  0  0  0  0  0  0  0  0
  151.3461  144.2056  160.4208 H   0  0  0  0  0  0  0  0  0  0  0  0
  152.9946  143.6138  160.6129 H   0  0  0  0  0  0  0  0  0  0  0  0
  151.6602  142.8259  161.4692 H   0  0  0  0  0  0  0  0  0  0  0  0
  150.3986  143.7014  158.3225 H   0  0  0  0  0  0  0  0  0  0  0  0
  149.7179  140.6151  154.3809 H   0  0  0  0  0  0  0  0  0  0  0  0
  152.5666  138.7616  155.3251 H   0  0  0  0  0  0  0  0  0  0  0  0
  151.5529  138.0914  156.5757 H   0  0  0  0  0  0  0  0  0  0  0  0
  150.2990  138.7167  153.8911 H   0  0  0  0  0  0  0  0  0  0  0  0
  151.1278  136.9597  153.0279 H   0  0  0  0  0  0  0  0  0  0  0  0
  149.1600  137.7531  156.1819 H   0  0  0  0  0  0  0  0  0  0  0  0
  148.5884  137.3200  154.6050 H   0  0  0  0  0  0  0  0  0  0  0  0
  151.6833  133.4811  156.0065 H   0  0  0  0  0  0  0  0  0  0  0  0
  150.5302  133.4871  157.3507 H   0  0  0  0  0  0  0  0  0  0  0  0
  148.7816  132.9571  155.9295 H   0  0  0  0  0  0  0  0  0  0  0  0
  149.1911  132.3464  153.5458 H   0  0  0  0  0  0  0  0  0  0  0  0
  150.4616  131.6595  154.5488 H   0  0  0  0  0  0  0  0  0  0  0  0
  150.7826  133.1031  153.5928 H   0  0  0  0  0  0  0  0  0  0  0  0
  152.7751  139.2649  158.2295 H   0  0  0  0  0  0  0  0  0  0  0  0
  153.8150  139.7271  160.2812 H   0  0  0  0  0  0  0  0  0  0  0  0
  152.8004  140.6262  161.4065 H   0  0  0  0  0  0  0  0  0  0  0  0
  154.1556  141.4259  160.5956 H   0  0  0  0  0  0  0  0  0  0  0  0
  149.4143  142.7306  155.8045 H   0  0  0  0  0  0  0  0  0  0  0  0
  1  2  1  0  0  0  0
  1 24  1  0  0  0  0
  1 25  1  0  0  0  0
  1 26  1  0  0  0  0
  2 22  1  0  0  0  0
  2  3  2  0  0  0  0
  3  4  1  0  0  0  0
  3 27  1  0  0  0  0
  4 20  2  0  0  0  0
  4  5  1  0  0  0  0
  5  6  2  0  0  0  0
  5 45  1  0  0  0  0
  6  7  1  0  0  0  0
  6 28  1  0  0  0  0
  7  8  1  0  0  0  0
  7 20  1  0  0  0  0
  8  9  1  0  0  0  0
  8 29  1  0  0  0  0
  8 30  1  0  0  0  0
  9 10  1  0  0  0  0
  9 11  1  0  0  0  0
  9 31  1  0  0  0  0
 10 32  1  0  0  0  0
 11 12  1  0  0  0  0
 11 33  1  0  0  0  0
 11 34  1  0  0  0  0
 12 18  1  0  0  0  0
 12 13  1  0  0  0  0
 13 14  2  0  0  0  0
 13 15  1  0  0  0  0
 15 16  1  0  0  0  0
 15 35  1  0  0  0  0
 15 36  1  0  0  0  0
 16 17  1  0  0  0  0
 16 18  1  0  0  0  0
 16 37  1  0  0  0  0
 17 38  1  0  0  0  0
 17 39  1  0  0  0  0
 17 40  1  0  0  0  0
 18 19  2  0  0  0  0
 20 21  1  0  0  0  0
 21 22  2  0  0  0  0
 21 41  1  0  0  0  0
 22 23  1  0  0  0  0
 23 42  1  0  0  0  0
 23 43  1  0  0  0  0
 23 44  1  0  0  0  0
M  CHG  1   5   1
M  END
> <s_m_source_file>
AV-unprocessed.smi

> <i_m_source_file_index>
740

> <i_lp_mmshare_version>
43012

> <i_f3d_flags>
0

> <s_epik_input>
W0NIM11jKFtjSF0xKWMoW0NIM10pW2NIXWMoYzEyKW4oW2NIXW4yKVtDSDJdW0NASF0oW09IXSlbQ0gyXU4zQyg9TylbQ0gyXVtDQEBIXShbQ0gzXSlDMz1P

> <s_epik_cmdline>
J2VwaWtfcHl0aG9uJywgJy1waCcsICc3LjAnLCAnLXRuJywgJzgnLCAnLW1hJywgJzIwMCcsICctbWV0YWxfYmluZGluZycsICctaW1hZScsICc8aW5maWxlLm1hZT4nLCAnLW9tYWUnLCAnPG91dGZpbGUubWFlPic=

> <r_lp_tautomer_probability>
1

> <r_epik_Ionization_Penalty>
1.08202

> <r_epik_Ionization_Penalty_Charging>
1.08202

> <r_epik_Ionization_Penalty_Neutral>
1.16605e-06

> <r_epik_State_Penalty>
1.13754

> <r_epik_Charging_Adjusted_Penalty>
2.21956

> <i_epik_Tot_Q>
1

> <i_epik_Tot_abs_Q>
1

> <r_epik_Metal_State_Penalty>
5.13645

> <b_epik_Metal_Only>
0

> <s_lp_Force_Field>
OPLS_2005

> <r_lp_Energy>
22.4261

> <b_lp_Chiralities_Consistent>
1

> <s_lp_Variant>
AV-unprocessed.smi:740-8

> <Gold.Version>
5.8.1

> <Gold.Id.Protein>
6NUR|6NUR_protein|mol2

> <Gold.PLP.Fitness>
52.0493

> <Gold.PLP.PLP>
-42.3346

> <Gold.PLP.part.hbond>
-3.2758

> <Gold.PLP.part.metal>
0.0000

> <Gold.PLP.part.buried>
-4.6641

> <Gold.PLP.part.nonpolar>
-34.2882

> <Gold.PLP.part.repulsive>
1.4222

> <Gold.PLP.ligand.clash>
0.0039

> <Gold.PLP.ligand.torsion>
1.0449

> <Gold.PLP.Chemscore.Hbond>
3.9280

> <Gold.PLP.Chemscore.CHOScore>
0.0000

> <Gold.PLP.Chemscore.Metal>
0.0000

> <Gold.Chemscore.Hbonds>
donor molecule, donor type, donor heavy atom, donor atom, acceptor molecule, acceptor atom, score
      L1  H     5    45       P1  8028  1.85
      L1  H    10    32       P1  7949  0.91
      P1  H 10752 10763       L1    10  0.96

> <Gold.PLP.Chemscore.Internal.Correction>
0.0243

> <Gold.Rescore>
     Score         DG    S(hbond)    S(metal)    S(lipo)     H(rot)  DE(clash)    DE(int)     intcor
     14.73     -17.26       1.88        0.00      98.96       2.37       0.29       2.25       ----

> <Gold.Chemscore.Fitness>
14.7331

> <Gold.Chemscore.DG>
-17.2649

> <Gold.Chemscore.ZeroCoef>
-5.4800

> <Gold.Chemscore.Hbond>
1.8803

> <Gold.Chemscore.Metal>
0.0000

> <Gold.Chemscore.Lipo>
98.9576

> <Gold.Chemscore.Internal_Hbond>
0.0000

> <Gold.Chemscore.DEClash>
0.2861

> <Gold.Chemscore.DEInternal>
2.2457

> <Gold.Chemscore.Rot>
2.3724

> <Gold.Chemscore.Internal.Correction>
   9.000000E+99

> <Gold.Chemscore.Hbonds>
donor molecule, donor type, donor heavy atom, donor atom, acceptor molecule, acceptor atom, score
      L1  H     5    45       P1  8028  0.87
      L1  H    10    32       P1  7949  0.40
      P1  H 10752 10763       L1    10  0.60

> <Gold.Chemscore.Hbond.Weighted>
-6.2803

> <Gold.Chemscore.Metal.Weighted>
-0.0000

> <Gold.Chemscore.Lipo.Weighted>
-11.5780

> <Gold.Chemscore.Internal_Hbond.Weighted>
0.0000

> <Gold.Chemscore.DEClash.Weighted>
0.2861

> <Gold.Chemscore.DEInternal.Weighted>
2.2457

> <Gold.Chemscore.Rot.Weighted>
6.0734

> <Gold.Chemscore.Internal.Correction.Weighted>
   9.000000E+99

> <Gold.Protein.RotatedTorsions>
[ 6907 6896 6895 6894 ] final -133.19 input  -60.11 | X-H torsion
[ 7974 7965 7964 7962 ] final   84.64 input  175.53 | X-H torsion
[ 8008 7997 7996 7995 ] final  129.04 input   59.86 | X-H torsion
[ 10167 10162 10161 10158 ] final  169.68 input  -65.29 | X-H torsion
[ 10718 10713 10712 10709 ] final -136.28 input   66.30 | X-H torsion
[ 10763 10752 10751 10750 ] final   32.31 input  -60.55 | X-H torsion
[ 11005 11000 10999 10996 ] final  155.94 input  -57.11 | X-H torsion

> <Gold.Protein.ActiveResidues>
 VAL166  LYS551  ARG553  GLY616  TRP617  ASP618  TYR619  PRO620  LYS621  CYS622 
 ASP623  PHE694  ASN695  SER759  ASP760  ASP761  ALA762  ILE779  LEU786  VAL792 
 PHE793  MET794  SER795  GLU796  ALA797  LYS798  CYS799  TRP800  GLU811  SER814 

> <Gold.Protein.RotatedAtoms>
  150.9711  133.6343  159.2737 H   0  0  0  0  0  0  0  0  0  0  0  0  # atno 6907 bound_to 6896
  151.3632  135.0907  159.9451 H   0  0  0  0  0  0  0  0  0  0  0  0  # atno 6908 bound_to 6896
  152.5183  133.9280  159.7621 H   0  0  0  0  0  0  0  0  0  0  0  0  # atno 6909 bound_to 6896
  145.5961  139.2345  143.2272 H   0  0  0  0  0  0  0  0  0  0  0  0  # atno 7974 bound_to 7965
  156.2928  140.2630  156.2534 H   0  0  0  0  0  0  0  0  0  0  0  0  # atno 8008 bound_to 7997
  154.9860  140.0389  157.2317 H   0  0  0  0  0  0  0  0  0  0  0  0  # atno 8009 bound_to 7997
  154.7729  140.2781  155.6128 H   0  0  0  0  0  0  0  0  0  0  0  0  # atno 8010 bound_to 7997
  139.4998  144.3679  151.9756 H   0  0  0  0  0  0  0  0  0  0  0  0  # atno 10167 bound_to 10162
  156.2753  130.7289  151.1269 H   0  0  0  0  0  0  0  0  0  0  0  0  # atno 10718 bound_to 10713
  153.0269  135.6416  154.1335 H   0  0  0  0  0  0  0  0  0  0  0  0  # atno 10763 bound_to 10752
  154.1063  135.2856  155.3242 H   0  0  0  0  0  0  0  0  0  0  0  0  # atno 10764 bound_to 10752
  154.6363  135.5475  153.7801 H   0  0  0  0  0  0  0  0  0  0  0  0  # atno 10765 bound_to 10752
  140.1629  134.8597  157.2596 H   0  0  0  0  0  0  0  0  0  0  0  0  # atno 11005 bound_to 11000
  146.1611  140.6787  142.9277 LP  0  0  0  0  0  0  0  0  0  0  0  0  # atno 17320 bound_to 7965
  144.7330  140.4727  143.6924 LP  0  0  0  0  0  0  0  0  0  0  0  0  # atno 17321 bound_to 7965
  140.3115  144.3532  150.6032 LP  0  0  0  0  0  0  0  0  0  0  0  0  # atno 17342 bound_to 10162
  140.5795  143.2174  151.7455 LP  0  0  0  0  0  0  0  0  0  0  0  0  # atno 17343 bound_to 10162
  157.7297  131.0622  150.5761 LP  0  0  0  0  0  0  0  0  0  0  0  0  # atno 17370 bound_to 10713
  156.5861  130.4317  149.5956 LP  0  0  0  0  0  0  0  0  0  0  0  0  # atno 17371 bound_to 10713
  140.2469  134.3729  155.7458 LP  0  0  0  0  0  0  0  0  0  0  0  0  # atno 17394 bound_to 11000
  141.2211  133.7295  156.8875 LP  0  0  0  0  0  0  0  0  0  0  0  0  # atno 17395 bound_to 11000

$$$$
