AV-unprocessed.smi:72|AV-procd|sdf|743|dock9
  -GOLD-   2262017 73D 1   1.00000     0.00000
 Structure written by MMmdl.
 29 30  0  0  0  0  0  0  0  0  1 V2000
  150.4076  134.3913  155.7650 N   0  0  0  0  0  0  0  0  0  0  0  0
  150.4150  135.7305  155.4357 C   0  0  0  0  0  0  0  0  0  0  0  0
  149.1725  136.3797  155.4391 N   0  0  0  0  0  0  0  0  0  0  0  0
  149.1772  137.6410  155.1450 C   0  0  0  0  0  0  0  0  0  0  0  0
  150.4119  138.3394  154.8367 N   0  0  0  0  0  0  0  0  0  0  0  0
  150.4111  139.8117  154.4920 C   0  0  2  0  0  0  0  0  0  0  0  0
  151.0701  140.5124  155.5057 O   0  0  0  0  0  0  0  0  0  0  0  0
  150.3233  141.6726  155.8564 C   0  0  2  0  0  0  0  0  0  0  0  0
  150.6408  142.0708  157.3055 C   0  0  0  0  0  0  0  0  0  0  0  0
  149.7635  143.0923  157.7281 O   0  0  0  0  0  0  0  0  0  0  0  0
  148.8797  141.2109  155.6495 C   0  0  1  0  0  0  0  0  0  0  0  0
  147.9654  142.2844  155.5268 O   0  0  0  0  0  0  0  0  0  0  0  0
  148.9739  140.3480  154.3946 C   0  0  1  0  0  0  0  0  0  0  0  0
  148.7943  141.0941  153.2050 O   0  0  0  0  0  0  0  0  0  0  0  0
  151.6337  137.6125  154.8216 C   0  0  0  0  0  0  0  0  0  0  0  0
  152.6873  138.1721  154.5187 O   0  0  0  0  0  0  0  0  0  0  0  0
  151.5741  136.2536  155.1545 N   0  0  0  0  0  0  0  0  0  0  0  0
  150.9858  139.9229  153.5714 H   0  0  0  0  0  0  0  0  0  0  0  0
  150.5564  142.4797  155.1588 H   0  0  0  0  0  0  0  0  0  0  0  0
  148.5744  140.5842  156.4885 H   0  0  0  0  0  0  0  0  0  0  0  0
  148.2458  139.5355  154.4073 H   0  0  0  0  0  0  0  0  0  0  0  0
  151.2412  133.8227  155.7943 H   0  0  0  0  0  0  0  0  0  0  0  0
  149.5685  133.8779  155.9933 H   0  0  0  0  0  0  0  0  0  0  0  0
  148.2723  138.2492  155.1071 H   0  0  0  0  0  0  0  0  0  0  0  0
  150.4957  141.2186  157.9702 H   0  0  0  0  0  0  0  0  0  0  0  0
  151.6775  142.3921  157.4111 H   0  0  0  0  0  0  0  0  0  0  0  0
  149.7481  143.7657  157.0652 H   0  0  0  0  0  0  0  0  0  0  0  0
  148.4478  143.0647  155.3003 H   0  0  0  0  0  0  0  0  0  0  0  0
  148.6328  140.4928  152.4941 H   0  0  0  0  0  0  0  0  0  0  0  0
  1  2  1  0  0  0  0
  1 22  1  0  0  0  0
  1 23  1  0  0  0  0
  2 17  2  0  0  0  0
  2  3  1  0  0  0  0
  3  4  2  0  0  0  0
  4  5  1  0  0  0  0
  4 24  1  0  0  0  0
  5  6  1  0  0  0  0
  5 15  1  0  0  0  0
  6 18  1  0  0  0  0
  6 13  1  0  0  0  0
  6  7  1  0  0  0  0
  7  8  1  0  0  0  0
  8 19  1  0  0  0  0
  8  9  1  0  0  0  0
  8 11  1  0  0  0  0
  9 10  1  0  0  0  0
  9 25  1  0  0  0  0
  9 26  1  0  0  0  0
 10 27  1  0  0  0  0
 11 20  1  0  0  0  0
 11 12  1  0  0  0  0
 11 13  1  0  0  0  0
 12 28  1  0  0  0  0
 13 21  1  0  0  0  0
 13 14  1  0  0  0  0
 14 29  1  0  0  0  0
 15 16  2  0  0  0  0
 15 17  1  0  0  0  0
M  END
> <s_m_source_file>
AV-unprocessed.smi

> <i_m_source_file_index>
72

> <i_lp_mmshare_version>
43012

> <i_f3d_flags>
0

> <s_epik_input>
W05IMl1jMW5bY0hdbihjKD1PKW4xKVtDQEBIXTJPW0NASF0oW0NIMl1bT0hdKVtDQEBIXShbT0hdKVtDQEhdMltPSF0=

> <s_epik_cmdline>
J2VwaWtfcHl0aG9uJywgJy1waCcsICc3LjAnLCAnLXRuJywgJzgnLCAnLW1hJywgJzIwMCcsICctbWV0YWxfYmluZGluZycsICctaW1hZScsICc8aW5maWxlLm1hZT4nLCAnLW9tYWUnLCAnPG91dGZpbGUubWFlPic=

> <r_lp_tautomer_probability>
4.77166e-05

> <r_epik_Ionization_Penalty>
1.3546

> <r_epik_Ionization_Penalty_Charging>
1.46833e-10

> <r_epik_Ionization_Penalty_Neutral>
1.3546

> <r_epik_State_Penalty>
3.51908

> <r_epik_Charging_Adjusted_Penalty>
3.51908

> <i_epik_Tot_Q>
0

> <i_epik_Tot_abs_Q>
0

> <r_epik_Metal_State_Penalty>
3.44088

> <b_epik_Metal_Only>
1

> <s_epik_Chemistry_Notes>
This compound contains an acetal/aminal-like group ( X-CH(R)-Y where X, Y are N, S, or O) that may be acid/base labile, releasing an aldehyde.

> <s_lp_Force_Field>
OPLS_2005

> <r_lp_Energy>
30.18

> <b_lp_Chiralities_Consistent>
1

> <s_lp_Variant>
AV-unprocessed.smi:72-81

> <Gold.Version>
5.8.1

> <Gold.Id.Protein>
6NUR|6NUR_protein|mol2

> <Gold.PLP.Fitness>
40.9482

> <Gold.PLP.PLP>
-27.3164

> <Gold.PLP.part.hbond>
-6.5109

> <Gold.PLP.part.metal>
0.0000

> <Gold.PLP.part.buried>
-3.2375

> <Gold.PLP.part.nonpolar>
-18.5279

> <Gold.PLP.part.repulsive>
0.4168

> <Gold.PLP.ligand.clash>
0.0000

> <Gold.PLP.ligand.torsion>
0.1155

> <Gold.PLP.Chemscore.Hbond>
4.6160

> <Gold.PLP.Chemscore.CHOScore>
0.0000

> <Gold.PLP.Chemscore.Metal>
0.0000

> <Gold.Chemscore.Hbonds>
donor molecule, donor type, donor heavy atom, donor atom, acceptor molecule, acceptor atom, score
      L1  H    10    27       P1  8028  1.00
      L1  H    12    28       P1  8028  0.99
      L1  H    14    29       P1  7957  0.62
      P1  H  8011  8017       L1    14  1.00
      P1  H 10752 10764       L1    17  1.00

> <Gold.PLP.Chemscore.Internal.Correction>
0.0147

> <Gold.Rescore>
     Score         DG    S(hbond)    S(metal)    S(lipo)     H(rot)  DE(clash)    DE(int)     intcor
      8.06      -9.60       3.47        0.00      25.08       4.06       0.35       1.19       ----

> <Gold.Chemscore.Fitness>
8.0647

> <Gold.Chemscore.DG>
-9.6038

> <Gold.Chemscore.ZeroCoef>
-5.4800

> <Gold.Chemscore.Hbond>
3.4679

> <Gold.Chemscore.Metal>
0.0000

> <Gold.Chemscore.Lipo>
25.0839

> <Gold.Chemscore.Internal_Hbond>
0.0000

> <Gold.Chemscore.DEClash>
0.3538

> <Gold.Chemscore.DEInternal>
1.1853

> <Gold.Chemscore.Rot>
4.0600

> <Gold.Chemscore.Internal.Correction>
   9.000000E+99

> <Gold.Chemscore.Hbonds>
donor molecule, donor type, donor heavy atom, donor atom, acceptor molecule, acceptor atom, score
      L1  H    10    27       P1  8028  0.87
      L1  H    12    28       P1  8028  0.93
      L1  H    14    29       P1  7957  0.62
      P1  H  8011  8017       L1    14  0.25
      P1  H 10752 10764       L1    17  0.65

> <Gold.Chemscore.Hbond.Weighted>
-11.5826

> <Gold.Chemscore.Metal.Weighted>
-0.0000

> <Gold.Chemscore.Lipo.Weighted>
-2.9348

> <Gold.Chemscore.Internal_Hbond.Weighted>
0.0000

> <Gold.Chemscore.DEClash.Weighted>
0.3538

> <Gold.Chemscore.DEInternal.Weighted>
1.1853

> <Gold.Chemscore.Rot.Weighted>
10.3936

> <Gold.Chemscore.Internal.Correction.Weighted>
   9.000000E+99

> <Gold.Protein.RotatedTorsions>
[ 6907 6896 6895 6894 ] final  157.24 input  -60.11 | X-H torsion
[ 7974 7965 7964 7962 ] final -154.87 input  175.53 | X-H torsion
[ 8008 7997 7996 7995 ] final  -76.19 input   59.86 | X-H torsion
[ 10167 10162 10161 10158 ] final   90.64 input  -65.29 | X-H torsion
[ 10718 10713 10712 10709 ] final   78.24 input   66.30 | X-H torsion
[ 10763 10752 10751 10750 ] final  -52.29 input  -60.55 | X-H torsion
[ 11005 11000 10999 10996 ] final   61.36 input  -57.11 | X-H torsion

> <Gold.Protein.ActiveResidues>
 VAL166  LYS551  ARG553  GLY616  TRP617  ASP618  TYR619  PRO620  LYS621  CYS622 
 ASP623  PHE694  ASN695  SER759  ASP760  ASP761  ALA762  ILE779  LEU786  VAL792 
 PHE793  MET794  SER795  GLU796  ALA797  LYS798  CYS799  TRP800  GLU811  SER814 

> <Gold.Protein.RotatedAtoms>
  152.0180  133.3887  159.4246 H   0  0  0  0  0  0  0  0  0  0  0  0  # atno 6907 bound_to 6896
  150.6893  134.3657  159.4979 H   0  0  0  0  0  0  0  0  0  0  0  0  # atno 6908 bound_to 6896
  152.1427  134.9049  160.0603 H   0  0  0  0  0  0  0  0  0  0  0  0  # atno 6909 bound_to 6896
  144.7668  140.4328  143.5936 H   0  0  0  0  0  0  0  0  0  0  0  0  # atno 7974 bound_to 7965
  154.5483  140.0731  156.8625 H   0  0  0  0  0  0  0  0  0  0  0  0  # atno 8008 bound_to 7997
  155.3043  140.3386  155.4228 H   0  0  0  0  0  0  0  0  0  0  0  0  # atno 8009 bound_to 7997
  156.1938  140.1696  156.8025 H   0  0  0  0  0  0  0  0  0  0  0  0  # atno 8010 bound_to 7997
  139.8453  144.6621  150.9234 H   0  0  0  0  0  0  0  0  0  0  0  0  # atno 10167 bound_to 10162
  157.6738  130.9859  150.1757 H   0  0  0  0  0  0  0  0  0  0  0  0  # atno 10718 bound_to 10713
  154.1404  135.6506  153.4941 H   0  0  0  0  0  0  0  0  0  0  0  0  # atno 10763 bound_to 10752
  153.0168  135.5314  154.6910 H   0  0  0  0  0  0  0  0  0  0  0  0  # atno 10764 bound_to 10752
  154.6170  135.2960  155.0339 H   0  0  0  0  0  0  0  0  0  0  0  0  # atno 10765 bound_to 10752
  140.0166  134.6215  155.9700 H   0  0  0  0  0  0  0  0  0  0  0  0  # atno 11005 bound_to 11000
  145.6446  139.1555  143.2896 LP  0  0  0  0  0  0  0  0  0  0  0  0  # atno 17320 bound_to 7965
  146.1782  140.6540  142.9201 LP  0  0  0  0  0  0  0  0  0  0  0  0  # atno 17321 bound_to 7965
  140.7793  143.3875  151.1367 LP  0  0  0  0  0  0  0  0  0  0  0  0  # atno 17342 bound_to 10162
  139.7518  143.8767  152.3079 LP  0  0  0  0  0  0  0  0  0  0  0  0  # atno 17343 bound_to 10162
  156.2501  130.3699  149.8242 LP  0  0  0  0  0  0  0  0  0  0  0  0  # atno 17370 bound_to 10713
  156.6017  130.8549  151.3433 LP  0  0  0  0  0  0  0  0  0  0  0  0  # atno 17371 bound_to 10713
  141.1747  133.6539  156.4783 LP  0  0  0  0  0  0  0  0  0  0  0  0  # atno 17394 bound_to 11000
  140.4459  134.6973  157.5015 LP  0  0  0  0  0  0  0  0  0  0  0  0  # atno 17395 bound_to 11000

$$$$
