AV-unprocessed.smi:249|AV-procd|sdf|1912|dock6
  -GOLD-   2262021 03D 1   1.00000     0.00000
 Structure written by MMmdl.
 64 67  0  0  0  0  0  0  0  0  2 V2000
  150.8119  144.2204  160.1532 C   0  0  0  0  0  0  0  0  0  0  0  0
  149.6336  144.2545  159.1658 C   0  0  0  0  0  0  0  0  0  0  0  0
  149.7712  143.2810  158.0438 N   0  3  2  0  0  0  0  0  0  0  0  0
  148.9413  142.0625  158.2665 C   0  0  0  0  0  0  0  0  0  0  0  0
  149.0011  141.0951  157.0745 C   0  0  0  0  0  0  0  0  0  0  0  0
  150.4486  140.6549  156.7730 C   0  0  2  0  0  0  0  0  0  0  0  0
  151.0505  139.8226  157.8280 N   0  0  0  0  0  0  0  0  0  0  0  0
  152.4980  139.8939  158.0014 C   0  0  0  0  0  0  0  0  0  0  0  0
  150.6293  138.5398  157.9056 C   0  0  0  0  0  0  0  0  0  0  0  0
  150.1736  138.1124  159.1086 N   0  0  0  0  0  0  0  0  0  0  0  0
  149.7352  136.8576  159.2481 C   0  0  0  0  0  0  0  0  0  0  0  0
  149.6716  135.8890  158.3320 N   0  0  0  0  0  0  0  0  0  0  0  0
  150.1447  136.3127  157.1249 C   0  0  0  0  0  0  0  0  0  0  0  0
  150.6392  137.6130  156.8252 C   0  0  0  0  0  0  0  0  0  0  0  0
  151.0270  137.6783  155.4927 N   0  0  0  0  0  0  0  0  0  0  0  0
  150.7672  136.4868  155.0274 C   0  0  0  0  0  0  0  0  0  0  0  0
  150.2538  135.5973  155.9447 N   0  0  0  0  0  0  0  0  0  0  0  0
  149.8684  134.2196  155.6911 C   0  0  0  0  0  0  0  0  0  0  0  0
  149.1541  133.9798  154.3345 C   0  0  1  0  0  0  0  0  0  0  0  0
  149.4940  132.5596  153.8260 C   0  0  0  0  0  0  0  0  0  0  0  0
  148.5563  132.1111  152.8682 O   0  0  0  0  0  0  0  0  0  0  0  0
  147.6209  134.2499  154.3500 C   0  0  1  0  0  0  0  0  0  0  0  0
  146.8117  133.4607  155.3679 C   0  0  0  0  0  0  0  0  0  0  0  0
  145.5244  134.2707  155.4772 C   0  0  0  0  0  0  0  0  0  0  0  0
  145.8900  135.6198  155.2185 O   0  0  0  0  0  0  0  0  0  0  0  0
  147.2376  135.6756  154.7668 C   0  0  0  0  0  0  0  0  0  0  0  0
  151.2509  141.9452  156.5207 C   0  0  0  0  0  0  0  0  0  0  0  0
  151.1917  142.9325  157.7105 C   0  0  1  0  0  0  0  0  0  0  0  0
  152.0537  144.1655  157.3676 C   0  0  0  0  0  0  0  0  0  0  0  0
  150.5897  144.8288  161.0303 H   0  0  0  0  0  0  0  0  0  0  0  0
  151.7293  144.6179  159.7207 H   0  0  0  0  0  0  0  0  0  0  0  0
  151.0085  143.2055  160.5001 H   0  0  0  0  0  0  0  0  0  0  0  0
  148.7485  144.0313  159.7565 H   0  0  0  0  0  0  0  0  0  0  0  0
  149.4967  145.2619  158.7702 H   0  0  0  0  0  0  0  0  0  0  0  0
  149.2664  141.5606  159.1789 H   0  0  0  0  0  0  0  0  0  0  0  0
  147.8975  142.3329  158.4152 H   0  0  0  0  0  0  0  0  0  0  0  0
  148.3482  140.2407  157.2527 H   0  0  0  0  0  0  0  0  0  0  0  0
  148.5878  141.5914  156.1955 H   0  0  0  0  0  0  0  0  0  0  0  0
  150.4518  140.0723  155.8515 H   0  0  0  0  0  0  0  0  0  0  0  0
  152.8824  139.0698  158.6052 H   0  0  0  0  0  0  0  0  0  0  0  0
  152.7728  140.8194  158.5074 H   0  0  0  0  0  0  0  0  0  0  0  0
  153.0030  139.8681  157.0350 H   0  0  0  0  0  0  0  0  0  0  0  0
  149.3844  136.5911  160.2342 H   0  0  0  0  0  0  0  0  0  0  0  0
  150.9558  136.2189  153.9979 H   0  0  0  0  0  0  0  0  0  0  0  0
  150.7787  133.6210  155.7425 H   0  0  0  0  0  0  0  0  0  0  0  0
  149.2349  133.8810  156.5119 H   0  0  0  0  0  0  0  0  0  0  0  0
  149.5925  134.6620  153.6060 H   0  0  0  0  0  0  0  0  0  0  0  0
  150.4903  132.5262  153.3855 H   0  0  0  0  0  0  0  0  0  0  0  0
  149.5078  131.8527  154.6562 H   0  0  0  0  0  0  0  0  0  0  0  0
  149.0261  131.7213  152.1468 H   0  0  0  0  0  0  0  0  0  0  0  0
  147.2081  134.0588  153.3580 H   0  0  0  0  0  0  0  0  0  0  0  0
  146.6071  132.4355  155.0654 H   0  0  0  0  0  0  0  0  0  0  0  0
  147.3243  133.4392  156.3309 H   0  0  0  0  0  0  0  0  0  0  0  0
  144.8110  133.9549  154.7153 H   0  0  0  0  0  0  0  0  0  0  0  0
  145.0480  134.1650  156.4521 H   0  0  0  0  0  0  0  0  0  0  0  0
  147.8585  136.0145  155.5973 H   0  0  0  0  0  0  0  0  0  0  0  0
  147.3430  136.3928  153.9527 H   0  0  0  0  0  0  0  0  0  0  0  0
  152.2859  141.7069  156.2746 H   0  0  0  0  0  0  0  0  0  0  0  0
  150.8535  142.4380  155.6319 H   0  0  0  0  0  0  0  0  0  0  0  0
  151.6332  142.4483  158.5833 H   0  0  0  0  0  0  0  0  0  0  0  0
  153.0249  143.8639  156.9738 H   0  0  0  0  0  0  0  0  0  0  0  0
  152.2651  144.7822  158.2404 H   0  0  0  0  0  0  0  0  0  0  0  0
  151.5750  144.7902  156.6126 H   0  0  0  0  0  0  0  0  0  0  0  0
  149.3974  143.7377  157.2241 H   0  0  0  0  0  0  0  0  0  0  0  0
  1  2  1  0  0  0  0
  1 30  1  0  0  0  0
  1 31  1  0  0  0  0
  1 32  1  0  0  0  0
  2  3  1  0  0  0  0
  2 33  1  0  0  0  0
  2 34  1  0  0  0  0
  3 28  1  0  0  0  0
  3  4  1  0  0  0  0
  3 64  1  0  0  0  0
  4  5  1  0  0  0  0
  4 35  1  0  0  0  0
  4 36  1  0  0  0  0
  5  6  1  0  0  0  0
  5 37  1  0  0  0  0
  5 38  1  0  0  0  0
  6  7  1  0  0  0  0
  6 27  1  0  0  0  0
  6 39  1  0  0  0  0
  7  8  1  0  0  0  0
  7  9  1  0  0  0  0
  8 40  1  0  0  0  0
  8 41  1  0  0  0  0
  8 42  1  0  0  0  0
  9 14  1  0  0  0  0
  9 10  2  0  0  0  0
 10 11  1  0  0  0  0
 11 12  2  0  0  0  0
 11 43  1  0  0  0  0
 12 13  1  0  0  0  0
 13 17  1  0  0  0  0
 13 14  2  0  0  0  0
 14 15  1  0  0  0  0
 15 16  2  0  0  0  0
 16 17  1  0  0  0  0
 16 44  1  0  0  0  0
 17 18  1  0  0  0  0
 18 19  1  0  0  0  0
 18 45  1  0  0  0  0
 18 46  1  0  0  0  0
 19 20  1  0  0  0  0
 19 22  1  0  0  0  0
 19 47  1  0  0  0  0
 20 21  1  0  0  0  0
 20 48  1  0  0  0  0
 20 49  1  0  0  0  0
 21 50  1  0  0  0  0
 22 26  1  0  0  0  0
 22 23  1  0  0  0  0
 22 51  1  0  0  0  0
 23 24  1  0  0  0  0
 23 52  1  0  0  0  0
 23 53  1  0  0  0  0
 24 25  1  0  0  0  0
 24 54  1  0  0  0  0
 24 55  1  0  0  0  0
 25 26  1  0  0  0  0
 26 56  1  0  0  0  0
 26 57  1  0  0  0  0
 27 28  1  0  0  0  0
 27 58  1  0  0  0  0
 27 59  1  0  0  0  0
 28 29  1  0  0  0  0
 28 60  1  0  0  0  0
 29 61  1  0  0  0  0
 29 62  1  0  0  0  0
 29 63  1  0  0  0  0
M  CHG  1   3   1
M  END
> <s_m_source_file>
AV-unprocessed.smi

> <i_m_source_file_index>
249

> <i_lp_mmshare_version>
43012

> <i_f3d_flags>
0

> <s_epik_input>
W0NIM11bQ0gyXU4xW0NIMl1bQ0gyXVtDQEhdKFtDSDJdW0NASF0xW0NIM10pTihbQ0gzXSljKG5bY0hdbjIpYyhjMjMpbltjSF1uM1tDSDJdW0NASF0oW0NIMl1bT0hdKVtDQEBIXTRbQ0gyXVtDSDJdT1tDSDJdNA==

> <s_epik_cmdline>
J2VwaWtfcHl0aG9uJywgJy1waCcsICc3LjAnLCAnLXRuJywgJzgnLCAnLW1hJywgJzIwMCcsICctbWV0YWxfYmluZGluZycsICctaW1hZScsICc8aW5maWxlLm1hZT4nLCAnLW9tYWUnLCAnPG91dGZpbGUubWFlPic=

> <r_lp_tautomer_probability>
1

> <r_epik_Ionization_Penalty>
0.00294688

> <r_epik_Ionization_Penalty_Charging>
0.00169971

> <r_epik_Ionization_Penalty_Neutral>
0.00124717

> <r_epik_State_Penalty>
-0

> <r_epik_Charging_Adjusted_Penalty>
0.00169971

> <i_epik_Tot_Q>
1

> <i_epik_Tot_abs_Q>
1

> <r_epik_Metal_State_Penalty>
-0

> <b_epik_Metal_Only>
0

> <s_lp_Force_Field>
OPLS_2005

> <r_lp_Energy>
57.4157

> <b_lp_Chiralities_Consistent>
1

> <s_lp_Variant>
AV-unprocessed.smi:249-15

> <Gold.Version>
5.8.1

> <Gold.Id.Protein>
6NUR|6NUR_protein|mol2

> <Gold.PLP.Fitness>
46.1573

> <Gold.PLP.PLP>
-36.1357

> <Gold.PLP.part.hbond>
-3.6798

> <Gold.PLP.part.metal>
0.0000

> <Gold.PLP.part.buried>
-6.1816

> <Gold.PLP.part.nonpolar>
-25.4927

> <Gold.PLP.part.repulsive>
0.1290

> <Gold.PLP.ligand.clash>
0.0000

> <Gold.PLP.ligand.torsion>
2.2596

> <Gold.PLP.Chemscore.Hbond>
3.6826

> <Gold.PLP.Chemscore.CHOScore>
0.9451

> <Gold.PLP.Chemscore.Metal>
0.0000

> <Gold.Chemscore.Hbonds>
donor molecule, donor type, donor heavy atom, donor atom, acceptor molecule, acceptor atom, score
      L1  H     3    64       P1  8028  2.00
      L1  H    21    50       P1 10747  0.99
      P1  H  6896  6909       L1    12  0.67
      L1  C    16    44       P1  7948  0.02
      L1  C    16    44       P1  7949  0.93

> <Gold.PLP.Chemscore.Internal.Correction>
0.6578

> <Gold.Rescore>
     Score         DG    S(hbond)    S(metal)    S(lipo)     H(rot)  DE(clash)    DE(int)     intcor
     11.25     -13.87       1.65        0.00      88.23       2.90       0.50       2.12       ----

> <Gold.Chemscore.Fitness>
11.2497

> <Gold.Chemscore.DG>
-13.8735

> <Gold.Chemscore.ZeroCoef>
-5.4800

> <Gold.Chemscore.Hbond>
1.6456

> <Gold.Chemscore.Metal>
0.0000

> <Gold.Chemscore.Lipo>
88.2287

> <Gold.Chemscore.Internal_Hbond>
0.0000

> <Gold.Chemscore.DEClash>
0.5021

> <Gold.Chemscore.DEInternal>
2.1217

> <Gold.Chemscore.Rot>
2.9006

> <Gold.Chemscore.Internal.Correction>
   9.000000E+99

> <Gold.Chemscore.Hbonds>
donor molecule, donor type, donor heavy atom, donor atom, acceptor molecule, acceptor atom, score
      L1  H     3    64       P1  8028  0.60
      L1  H    21    50       P1 10747  0.65
      P1  H  6896  6909       L1    12  0.09

> <Gold.Chemscore.Hbond.Weighted>
-5.4964

> <Gold.Chemscore.Metal.Weighted>
-0.0000

> <Gold.Chemscore.Lipo.Weighted>
-10.3228

> <Gold.Chemscore.Internal_Hbond.Weighted>
0.0000

> <Gold.Chemscore.DEClash.Weighted>
0.5021

> <Gold.Chemscore.DEInternal.Weighted>
2.1217

> <Gold.Chemscore.Rot.Weighted>
7.4256

> <Gold.Chemscore.Internal.Correction.Weighted>
   9.000000E+99

> <Gold.Protein.RotatedTorsions>
[ 6907 6896 6895 6894 ] final   40.24 input  -60.11 | X-H torsion
[ 7974 7965 7964 7962 ] final  132.04 input  175.53 | X-H torsion
[ 8008 7997 7996 7995 ] final -164.65 input   59.86 | X-H torsion
[ 10167 10162 10161 10158 ] final   65.89 input  -65.29 | X-H torsion
[ 10718 10713 10712 10709 ] final   66.62 input   66.30 | X-H torsion
[ 10763 10752 10751 10750 ] final -177.58 input  -60.55 | X-H torsion
[ 11005 11000 10999 10996 ] final  -37.62 input  -57.11 | X-H torsion

> <Gold.Protein.ActiveResidues>
 VAL166  LYS551  ARG553  GLY616  TRP617  ASP618  TYR619  PRO620  LYS621  CYS622 
 ASP623  PHE694  ASN695  SER759  ASP760  ASP761  ALA762  ILE779  LEU786  VAL792 
 PHE793  MET794  SER795  GLU796  ALA797  LYS798  CYS799  TRP800  GLU811  SER814 

> <Gold.Protein.RotatedAtoms>
  152.1799  134.8763  160.0527 H   0  0  0  0  0  0  0  0  0  0  0  0  # atno 6907 bound_to 6896
  151.9691  133.3715  159.4072 H   0  0  0  0  0  0  0  0  0  0  0  0  # atno 6908 bound_to 6896
  150.6916  134.4082  159.5194 H   0  0  0  0  0  0  0  0  0  0  0  0  # atno 6909 bound_to 6896
  145.0010  139.4312  143.5292 H   0  0  0  0  0  0  0  0  0  0  0  0  # atno 7974 bound_to 7965
  155.8386  140.0945  157.1748 H   0  0  0  0  0  0  0  0  0  0  0  0  # atno 8008 bound_to 7997
  154.3981  140.1405  156.3762 H   0  0  0  0  0  0  0  0  0  0  0  0  # atno 8009 bound_to 7997
  155.8089  140.3450  155.5448 H   0  0  0  0  0  0  0  0  0  0  0  0  # atno 8010 bound_to 7997
  140.1064  144.4858  150.7005 H   0  0  0  0  0  0  0  0  0  0  0  0  # atno 10167 bound_to 10162
  157.6180  130.9277  150.0133 H   0  0  0  0  0  0  0  0  0  0  0  0  # atno 10718 bound_to 10713
  154.5583  135.2818  155.0943 H   0  0  0  0  0  0  0  0  0  0  0  0  # atno 10763 bound_to 10752
  154.2362  135.6365  153.5195 H   0  0  0  0  0  0  0  0  0  0  0  0  # atno 10764 bound_to 10752
  153.0022  135.5549  154.6169 H   0  0  0  0  0  0  0  0  0  0  0  0  # atno 10765 bound_to 10752
  140.9965  133.6977  156.1945 H   0  0  0  0  0  0  0  0  0  0  0  0  # atno 11005 bound_to 11000
  146.3452  139.9399  142.8742 LP  0  0  0  0  0  0  0  0  0  0  0  0  # atno 17320 bound_to 7965
  145.2153  140.9913  143.4077 LP  0  0  0  0  0  0  0  0  0  0  0  0  # atno 17321 bound_to 7965
  140.6950  143.2398  151.5026 LP  0  0  0  0  0  0  0  0  0  0  0  0  # atno 17342 bound_to 10162
  139.5643  144.2080  152.1740 LP  0  0  0  0  0  0  0  0  0  0  0  0  # atno 17343 bound_to 10162
  156.1312  130.3643  149.9729 LP  0  0  0  0  0  0  0  0  0  0  0  0  # atno 17370 bound_to 10713
  156.7790  130.9214  151.3645 LP  0  0  0  0  0  0  0  0  0  0  0  0  # atno 17371 bound_to 10713
  140.6957  134.4618  157.5587 LP  0  0  0  0  0  0  0  0  0  0  0  0  # atno 17394 bound_to 11000
  139.9017  134.8540  156.1867 LP  0  0  0  0  0  0  0  0  0  0  0  0  # atno 17395 bound_to 11000

$$$$
