AV-unprocessed.smi:1945|AV-procd|sdf|7857|dock6
  -GOLD-   2272010 03D 1   1.00000     0.00000
 Structure written by MMmdl.
 47 48  0  0  0  0  0  0  0  0  1 V2000
  154.3100  132.6116  163.6856 C   0  0  0  0  0  0  0  0  0  0  0  0
  154.2783  134.0859  163.4105 C   0  0  0  0  0  0  0  0  0  0  0  0
  154.1597  134.7406  162.1502 C   0  0  0  0  0  0  0  0  0  0  0  0
  154.1826  136.0643  162.4952 C   0  0  0  0  0  0  0  0  0  0  0  0
  154.0880  137.1574  161.6923 N   0  0  0  0  0  0  0  0  0  0  0  0
  153.5760  137.2442  160.4526 C   0  0  0  0  0  0  0  0  0  0  0  0
  153.1774  136.2943  159.7784 O   0  0  0  0  0  0  0  0  0  0  0  0
  153.5531  138.5158  160.0273 N   0  0  0  0  0  0  0  0  0  0  0  0
  153.0012  138.9667  158.7537 C   0  0  0  0  0  0  0  0  0  0  0  0
  152.0649  140.1696  158.9422 C   0  0  0  0  0  0  0  0  0  0  0  0
  152.7928  141.2330  159.5373 O   0  0  0  0  0  0  0  0  0  0  0  0
  152.0386  142.4111  159.7829 C   0  0  2  0  0  0  0  0  0  0  0  0
  152.0040  143.2653  158.4976 C   0  0  0  0  0  0  0  0  0  0  0  0
  151.3347  144.6261  158.7397 C   0  0  0  0  0  0  0  0  0  0  0  0
  152.0274  145.3849  159.8800 C   0  0  0  0  0  0  0  0  0  0  0  0
  152.0535  144.5435  161.1647 C   0  0  0  0  0  0  0  0  0  0  0  0
  152.7259  143.1746  160.9377 C   0  0  1  0  0  0  0  0  0  0  0  0
  152.7354  142.3526  162.2366 C   0  0  0  0  0  0  0  0  0  0  0  0
  154.2993  136.1657  163.8636 N   0  0  0  0  0  0  0  0  0  0  0  0
  154.3618  137.3486  164.6996 C   0  0  0  0  0  0  0  0  0  0  0  0
  154.3647  134.9391  164.4250 N   0  0  0  0  0  0  0  0  0  0  0  0
  154.1314  132.0373  162.7764 H   0  0  0  0  0  0  0  0  0  0  0  0
  153.5452  132.3301  164.4099 H   0  0  0  0  0  0  0  0  0  0  0  0
  155.2778  132.3082  164.0852 H   0  0  0  0  0  0  0  0  0  0  0  0
  154.0692  134.2948  161.1710 H   0  0  0  0  0  0  0  0  0  0  0  0
  154.4222  138.0192  162.0975 H   0  0  0  0  0  0  0  0  0  0  0  0
  153.9115  139.2299  160.6440 H   0  0  0  0  0  0  0  0  0  0  0  0
  153.8386  139.2567  158.1189 H   0  0  0  0  0  0  0  0  0  0  0  0
  152.4888  138.1530  158.2376 H   0  0  0  0  0  0  0  0  0  0  0  0
  151.6354  140.4615  157.9835 H   0  0  0  0  0  0  0  0  0  0  0  0
  151.2371  139.8967  159.5978 H   0  0  0  0  0  0  0  0  0  0  0  0
  151.0219  142.1545  160.0876 H   0  0  0  0  0  0  0  0  0  0  0  0
  153.0220  143.4221  158.1378 H   0  0  0  0  0  0  0  0  0  0  0  0
  151.4754  142.7424  157.7011 H   0  0  0  0  0  0  0  0  0  0  0  0
  151.3617  145.2210  157.8264 H   0  0  0  0  0  0  0  0  0  0  0  0
  150.2817  144.4784  158.9833 H   0  0  0  0  0  0  0  0  0  0  0  0
  153.0473  145.6370  159.5862 H   0  0  0  0  0  0  0  0  0  0  0  0
  151.5155  146.3298  160.0641 H   0  0  0  0  0  0  0  0  0  0  0  0
  152.5800  145.0919  161.9467 H   0  0  0  0  0  0  0  0  0  0  0  0
  151.0338  144.3985  161.5238 H   0  0  0  0  0  0  0  0  0  0  0  0
  153.7637  143.3558  160.6531 H   0  0  0  0  0  0  0  0  0  0  0  0
  151.7219  142.1252  162.5690 H   0  0  0  0  0  0  0  0  0  0  0  0
  153.2358  142.8943  163.0397 H   0  0  0  0  0  0  0  0  0  0  0  0
  153.2619  141.4071  162.1044 H   0  0  0  0  0  0  0  0  0  0  0  0
  153.6206  138.0763  164.3678 H   0  0  0  0  0  0  0  0  0  0  0  0
  155.3549  137.7922  164.6286 H   0  0  0  0  0  0  0  0  0  0  0  0
  154.1588  137.0924  165.7404 H   0  0  0  0  0  0  0  0  0  0  0  0
  1  2  1  0  0  0  0
  1 22  1  0  0  0  0
  1 23  1  0  0  0  0
  1 24  1  0  0  0  0
  2 21  2  0  0  0  0
  2  3  1  0  0  0  0
  3  4  2  0  0  0  0
  3 25  1  0  0  0  0
  4  5  1  0  0  0  0
  4 19  1  0  0  0  0
  5  6  1  0  0  0  0
  5 26  1  0  0  0  0
  6  7  2  0  0  0  0
  6  8  1  0  0  0  0
  8  9  1  0  0  0  0
  8 27  1  0  0  0  0
  9 10  1  0  0  0  0
  9 28  1  0  0  0  0
  9 29  1  0  0  0  0
 10 11  1  0  0  0  0
 10 30  1  0  0  0  0
 10 31  1  0  0  0  0
 11 12  1  0  0  0  0
 12 17  1  0  0  0  0
 12 13  1  0  0  0  0
 12 32  1  0  0  0  0
 13 14  1  0  0  0  0
 13 33  1  0  0  0  0
 13 34  1  0  0  0  0
 14 15  1  0  0  0  0
 14 35  1  0  0  0  0
 14 36  1  0  0  0  0
 15 16  1  0  0  0  0
 15 37  1  0  0  0  0
 15 38  1  0  0  0  0
 16 17  1  0  0  0  0
 16 39  1  0  0  0  0
 16 40  1  0  0  0  0
 17 18  1  0  0  0  0
 17 41  1  0  0  0  0
 18 42  1  0  0  0  0
 18 43  1  0  0  0  0
 18 44  1  0  0  0  0
 19 20  1  0  0  0  0
 19 21  1  0  0  0  0
 20 45  1  0  0  0  0
 20 46  1  0  0  0  0
 20 47  1  0  0  0  0
M  END
> <s_m_source_file>
AV-unprocessed.smi

> <i_m_source_file_index>
1945

> <i_lp_mmshare_version>
43012

> <i_f3d_flags>
0

> <s_epik_input>
W0NIM11jMVtjSF1jKG4objEpW0NIM10pW05IXUMoPU8pW05IXVtDSDJdW0NIMl1PW0NAQEhdMltDSDJdW0NIMl1bQ0gyXVtDSDJdW0NASF0yW0NIM10=

> <s_epik_cmdline>
J2VwaWtfcHl0aG9uJywgJy1waCcsICc3LjAnLCAnLXRuJywgJzgnLCAnLW1hJywgJzIwMCcsICctbWV0YWxfYmluZGluZycsICctaW1hZScsICc8aW5maWxlLm1hZT4nLCAnLW9tYWUnLCAnPG91dGZpbGUubWFlPic=

> <r_lp_tautomer_probability>
1

> <r_epik_Ionization_Penalty>
9.47735e-05

> <r_epik_Ionization_Penalty_Charging>
0

> <r_epik_Ionization_Penalty_Neutral>
9.47735e-05

> <r_epik_State_Penalty>
-0

> <r_epik_Charging_Adjusted_Penalty>
0

> <i_epik_Tot_Q>
0

> <i_epik_Tot_abs_Q>
0

> <r_epik_Metal_State_Penalty>
-0

> <b_epik_Metal_Only>
0

> <s_lp_Force_Field>
OPLS_2005

> <r_lp_Energy>
11.707

> <b_lp_Chiralities_Consistent>
1

> <s_lp_Variant>
AV-unprocessed.smi:1945-1

> <Gold.Version>
5.8.1

> <Gold.Id.Protein>
6NUR|6NUR_protein|mol2

> <Gold.PLP.Fitness>
49.3698

> <Gold.PLP.PLP>
-47.1702

> <Gold.PLP.part.hbond>
-1.0000

> <Gold.PLP.part.metal>
0.0000

> <Gold.PLP.part.buried>
-6.6531

> <Gold.PLP.part.nonpolar>
-39.5564

> <Gold.PLP.part.repulsive>
0.1532

> <Gold.PLP.ligand.clash>
0.0000

> <Gold.PLP.ligand.torsion>
0.4356

> <Gold.PLP.Chemscore.Hbond>
1.0000

> <Gold.PLP.Chemscore.CHOScore>
0.0000

> <Gold.PLP.Chemscore.Metal>
0.0000

> <Gold.Chemscore.Hbonds>
donor molecule, donor type, donor heavy atom, donor atom, acceptor molecule, acceptor atom, score
      P1  H  6896  6909       L1     7  1.00

> <Gold.PLP.Chemscore.Internal.Correction>
0.0708

> <Gold.Rescore>
     Score         DG    S(hbond)    S(metal)    S(lipo)     H(rot)  DE(clash)    DE(int)     intcor
     17.44     -19.05       1.00        0.00     123.11       1.63       0.19       1.41       ----

> <Gold.Chemscore.Fitness>
17.4407

> <Gold.Chemscore.DG>
-19.0466

> <Gold.Chemscore.ZeroCoef>
-5.4800

> <Gold.Chemscore.Hbond>
0.9998

> <Gold.Chemscore.Metal>
0.0000

> <Gold.Chemscore.Lipo>
123.1105

> <Gold.Chemscore.Internal_Hbond>
0.0000

> <Gold.Chemscore.DEClash>
0.1925

> <Gold.Chemscore.DEInternal>
1.4134

> <Gold.Chemscore.Rot>
1.6316

> <Gold.Chemscore.Internal.Correction>
   9.000000E+99

> <Gold.Chemscore.Hbonds>
donor molecule, donor type, donor heavy atom, donor atom, acceptor molecule, acceptor atom, score
      P1  H  6896  6909       L1     7  1.00

> <Gold.Chemscore.Hbond.Weighted>
-3.3395

> <Gold.Chemscore.Metal.Weighted>
-0.0000

> <Gold.Chemscore.Lipo.Weighted>
-14.4039

> <Gold.Chemscore.Internal_Hbond.Weighted>
0.0000

> <Gold.Chemscore.DEClash.Weighted>
0.1925

> <Gold.Chemscore.DEInternal.Weighted>
1.4134

> <Gold.Chemscore.Rot.Weighted>
4.1768

> <Gold.Chemscore.Internal.Correction.Weighted>
   9.000000E+99

> <Gold.Protein.RotatedTorsions>
[ 6907 6896 6895 6894 ] final  160.02 input  -60.11 | X-H torsion
[ 7974 7965 7964 7962 ] final -139.21 input  175.53 | X-H torsion
[ 8008 7997 7996 7995 ] final -128.96 input   59.86 | X-H torsion
[ 10167 10162 10161 10158 ] final  157.36 input  -65.29 | X-H torsion
[ 10718 10713 10712 10709 ] final  167.47 input   66.30 | X-H torsion
[ 10763 10752 10751 10750 ] final   -3.22 input  -60.55 | X-H torsion
[ 11005 11000 10999 10996 ] final  -24.26 input  -57.11 | X-H torsion

> <Gold.Protein.ActiveResidues>
 VAL166  LYS551  ARG553  GLY616  TRP617  ASP618  TYR619  PRO620  LYS621  CYS622 
 ASP623  PHE694  ASN695  SER759  ASP760  ASP761  ALA762  ILE779  LEU786  VAL792 
 PHE793  MET794  SER795  GLU796  ALA797  LYS798  CYS799  TRP800  GLU811  SER814 

> <Gold.Protein.RotatedAtoms>
  151.9769  133.3744  159.4092 H   0  0  0  0  0  0  0  0  0  0  0  0  # atno 6907 bound_to 6896
  150.6940  134.4081  159.5158 H   0  0  0  0  0  0  0  0  0  0  0  0  # atno 6908 bound_to 6896
  152.1793  134.8767  160.0578 H   0  0  0  0  0  0  0  0  0  0  0  0  # atno 6909 bound_to 6896
  144.8695  140.6345  143.5276 H   0  0  0  0  0  0  0  0  0  0  0  0  # atno 7974 bound_to 7965
  155.2713  140.0440  157.3007 H   0  0  0  0  0  0  0  0  0  0  0  0  # atno 8008 bound_to 7997
  154.5651  140.2357  155.8244 H   0  0  0  0  0  0  0  0  0  0  0  0  # atno 8009 bound_to 7997
  156.2079  140.3007  155.9674 H   0  0  0  0  0  0  0  0  0  0  0  0  # atno 8010 bound_to 7997
  139.4823  144.4925  151.8288 H   0  0  0  0  0  0  0  0  0  0  0  0  # atno 10167 bound_to 10162
  157.0511  131.0314  151.2680 H   0  0  0  0  0  0  0  0  0  0  0  0  # atno 10718 bound_to 10713
  153.3685  135.6993  153.6656 H   0  0  0  0  0  0  0  0  0  0  0  0  # atno 10763 bound_to 10752
  153.5316  135.3591  155.2679 H   0  0  0  0  0  0  0  0  0  0  0  0  # atno 10764 bound_to 10752
  154.8678  135.4182  154.2958 H   0  0  0  0  0  0  0  0  0  0  0  0  # atno 10765 bound_to 10752
  140.8829  133.7641  156.0324 H   0  0  0  0  0  0  0  0  0  0  0  0  # atno 11005 bound_to 11000
  145.4157  139.1572  143.4101 LP  0  0  0  0  0  0  0  0  0  0  0  0  # atno 17320 bound_to 7965
  146.2920  140.4264  142.8736 LP  0  0  0  0  0  0  0  0  0  0  0  0  # atno 17321 bound_to 7965
  140.4410  144.1986  150.5891 LP  0  0  0  0  0  0  0  0  0  0  0  0  # atno 17342 bound_to 10162
  140.4683  143.2422  151.9124 LP  0  0  0  0  0  0  0  0  0  0  0  0  # atno 17343 bound_to 10162
  157.5029  130.7891  149.7624 LP  0  0  0  0  0  0  0  0  0  0  0  0  # atno 17370 bound_to 10713
  156.0007  130.3882  150.2616 LP  0  0  0  0  0  0  0  0  0  0  0  0  # atno 17371 bound_to 10713
  140.8440  134.3033  157.5302 LP  0  0  0  0  0  0  0  0  0  0  0  0  # atno 17394 bound_to 11000
  139.8721  134.9431  156.3845 LP  0  0  0  0  0  0  0  0  0  0  0  0  # atno 17395 bound_to 11000

$$$$
