AV-unprocessed.smi:189|AV-procd|sdf|1490|dock9
  -GOLD-   2262019313D 1   1.00000     0.00000
 Structure written by MMmdl.
 53 57  0  0  0  0  0  0  0  0  1 V2000
  152.1595  143.3603  158.2475 C   0  0  0  0  0  0  0  0  0  0  0  0
  151.2937  142.1182  158.5175 C   0  0  1  0  0  0  0  0  0  0  0  0
  149.8640  142.2762  157.9794 C   0  0  0  0  0  0  0  0  0  0  0  0
  149.9281  141.7263  156.5473 C   0  0  2  0  0  0  0  0  0  0  0  0
  148.7297  140.8454  156.1518 C   0  0  0  0  0  0  0  0  0  0  0  0
  148.9041  140.2244  154.7497 C   0  0  0  0  0  0  0  0  0  0  0  0
  150.3544  139.7918  154.4366 C   0  0  0  0  0  0  0  0  0  0  0  0
  151.2008  139.6257  155.7068 C   0  0  0  0  0  0  0  0  0  0  0  0
  151.2735  140.9713  156.4744 C   0  0  2  0  0  0  0  0  0  0  0  0
  151.8244  140.9410  157.8336 N   0  0  0  0  0  0  0  0  0  0  0  0
  151.7748  139.7651  158.5084 C   0  0  0  0  0  0  0  0  0  0  0  0
  150.5839  139.1676  158.7804 N   0  0  0  0  0  0  0  0  0  0  0  0
  150.5534  137.9954  159.4212 C   0  0  0  0  0  0  0  0  0  0  0  0
  151.5746  137.2614  159.8685 N   0  0  0  0  0  0  0  0  0  0  0  0
  152.7705  137.8593  159.5977 C   0  0  0  0  0  0  0  0  0  0  0  0
  152.9575  139.0991  158.9255 C   0  0  0  0  0  0  0  0  0  0  0  0
  154.3124  139.3866  158.8210 N   0  0  0  0  0  0  0  0  0  0  0  0
  154.8950  138.3725  159.4000 C   0  0  0  0  0  0  0  0  0  0  0  0
  154.0443  137.4129  159.9026 N   0  0  0  0  0  0  0  0  0  0  0  0
  154.4204  136.1905  160.5952 C   0  0  0  0  0  0  0  0  0  0  0  0
  155.0366  136.4395  161.9916 C   0  0  2  0  0  0  0  0  0  0  0  0
  156.3224  137.0143  161.8359 O   0  0  0  0  0  0  0  0  0  0  0  0
  155.1701  135.1829  162.8486 C   0  0  0  0  0  0  0  0  0  0  0  0
  154.9674  135.7112  164.2617 C   0  0  0  0  0  0  0  0  0  0  0  0
  153.9403  136.6715  164.0856 O   0  0  0  0  0  0  0  0  0  0  0  0
  154.1861  137.3762  162.8728 C   0  0  0  0  0  0  0  0  0  0  0  0
  151.7625  144.2311  158.7695 H   0  0  0  0  0  0  0  0  0  0  0  0
  152.2048  143.6052  157.1859 H   0  0  0  0  0  0  0  0  0  0  0  0
  153.1806  143.2054  158.5971 H   0  0  0  0  0  0  0  0  0  0  0  0
  151.2658  141.9634  159.5973 H   0  0  0  0  0  0  0  0  0  0  0  0
  149.1810  141.6771  158.5826 H   0  0  0  0  0  0  0  0  0  0  0  0
  149.5055  143.3054  158.0185 H   0  0  0  0  0  0  0  0  0  0  0  0
  149.9776  142.5665  155.8532 H   0  0  0  0  0  0  0  0  0  0  0  0
  148.6227  140.0429  156.8833 H   0  0  0  0  0  0  0  0  0  0  0  0
  147.8033  141.4189  156.1940 H   0  0  0  0  0  0  0  0  0  0  0  0
  148.2369  139.3660  154.6639 H   0  0  0  0  0  0  0  0  0  0  0  0
  148.5766  140.9342  153.9894 H   0  0  0  0  0  0  0  0  0  0  0  0
  150.3502  138.8674  153.8584 H   0  0  0  0  0  0  0  0  0  0  0  0
  150.8241  140.5433  153.8005 H   0  0  0  0  0  0  0  0  0  0  0  0
  150.7454  138.8403  156.3111 H   0  0  0  0  0  0  0  0  0  0  0  0
  152.2043  139.2828  155.4533 H   0  0  0  0  0  0  0  0  0  0  0  0
  151.9585  141.6029  155.9069 H   0  0  0  0  0  0  0  0  0  0  0  0
  149.5699  137.5863  159.5989 H   0  0  0  0  0  0  0  0  0  0  0  0
  155.9698  138.2985  159.4797 H   0  0  0  0  0  0  0  0  0  0  0  0
  153.5382  135.5542  160.6785 H   0  0  0  0  0  0  0  0  0  0  0  0
  155.1277  135.6500  159.9648 H   0  0  0  0  0  0  0  0  0  0  0  0
  156.5413  137.4804  162.6282 H   0  0  0  0  0  0  0  0  0  0  0  0
  154.3655  134.4827  162.6207 H   0  0  0  0  0  0  0  0  0  0  0  0
  156.1161  134.6558  162.7166 H   0  0  0  0  0  0  0  0  0  0  0  0
  154.6754  134.9326  164.9665 H   0  0  0  0  0  0  0  0  0  0  0  0
  155.8698  136.1981  164.6345 H   0  0  0  0  0  0  0  0  0  0  0  0
  154.7008  138.3127  163.0930 H   0  0  0  0  0  0  0  0  0  0  0  0
  153.2326  137.6316  162.4094 H   0  0  0  0  0  0  0  0  0  0  0  0
  1  2  1  0  0  0  0
  1 27  1  0  0  0  0
  1 28  1  0  0  0  0
  1 29  1  0  0  0  0
  2 10  1  0  0  0  0
  2  3  1  0  0  0  0
  2 30  1  0  0  0  0
  3  4  1  0  0  0  0
  3 31  1  0  0  0  0
  3 32  1  0  0  0  0
  4  9  1  0  0  0  0
  4  5  1  0  0  0  0
  4 33  1  0  0  0  0
  5  6  1  0  0  0  0
  5 34  1  0  0  0  0
  5 35  1  0  0  0  0
  6  7  1  0  0  0  0
  6 36  1  0  0  0  0
  6 37  1  0  0  0  0
  7  8  1  0  0  0  0
  7 38  1  0  0  0  0
  7 39  1  0  0  0  0
  8  9  1  0  0  0  0
  8 40  1  0  0  0  0
  8 41  1  0  0  0  0
  9 10  1  0  0  0  0
  9 42  1  0  0  0  0
 10 11  1  0  0  0  0
 11 16  1  0  0  0  0
 11 12  2  0  0  0  0
 12 13  1  0  0  0  0
 13 14  2  0  0  0  0
 13 43  1  0  0  0  0
 14 15  1  0  0  0  0
 15 19  1  0  0  0  0
 15 16  2  0  0  0  0
 16 17  1  0  0  0  0
 17 18  2  0  0  0  0
 18 19  1  0  0  0  0
 18 44  1  0  0  0  0
 19 20  1  0  0  0  0
 20 21  1  0  0  0  0
 20 45  1  0  0  0  0
 20 46  1  0  0  0  0
 21 26  1  0  0  0  0
 21 22  1  0  0  0  0
 21 23  1  0  0  0  0
 22 47  1  0  0  0  0
 23 24  1  0  0  0  0
 23 48  1  0  0  0  0
 23 49  1  0  0  0  0
 24 25  1  0  0  0  0
 24 50  1  0  0  0  0
 24 51  1  0  0  0  0
 25 26  1  0  0  0  0
 26 52  1  0  0  0  0
 26 53  1  0  0  0  0
M  END
> <s_m_source_file>
AV-unprocessed.smi

> <i_m_source_file_index>
189

> <i_lp_mmshare_version>
43012

> <i_f3d_flags>
0

> <s_epik_input>
W0NIMl0xW0NIMl1bQ0gyXVtDSDJdW0NASF0oW0NASF0xMilOKFtDQEhdKFtDSDNdKVtDSDJdMiljKG5bY0hdbjMpYyhjMzQpbltjSF1uNFtDSDJdW0NAQF01KFtPSF0pW0NIMl1bQ0gyXU9bQ0gyXTU=

> <s_epik_cmdline>
J2VwaWtfcHl0aG9uJywgJy1waCcsICc3LjAnLCAnLXRuJywgJzgnLCAnLW1hJywgJzIwMCcsICctbWV0YWxfYmluZGluZycsICctaW1hZScsICc8aW5maWxlLm1hZT4nLCAnLW9tYWUnLCAnPG91dGZpbGUubWFlPic=

> <r_lp_tautomer_probability>
1

> <r_epik_Ionization_Penalty>
0.00594261

> <r_epik_Ionization_Penalty_Charging>
0

> <r_epik_Ionization_Penalty_Neutral>
0.00594261

> <r_epik_State_Penalty>
0.00429776

> <r_epik_Charging_Adjusted_Penalty>
0.00429776

> <i_epik_Tot_Q>
0

> <i_epik_Tot_abs_Q>
0

> <r_epik_Metal_State_Penalty>
-0

> <b_epik_Metal_Only>
0

> <s_lp_Force_Field>
OPLS_2005

> <r_lp_Energy>
66.7565

> <b_lp_Chiralities_Consistent>
1

> <s_lp_Variant>
AV-unprocessed.smi:189-16

> <Gold.Version>
5.8.1

> <Gold.Id.Protein>
6NUR|6NUR_protein|mol2

> <Gold.PLP.Fitness>
44.0810

> <Gold.PLP.PLP>
-38.4186

> <Gold.PLP.part.hbond>
-2.0000

> <Gold.PLP.part.metal>
0.0000

> <Gold.PLP.part.buried>
-2.5167

> <Gold.PLP.part.nonpolar>
-33.8834

> <Gold.PLP.part.repulsive>
0.0624

> <Gold.PLP.ligand.clash>
0.0000

> <Gold.PLP.ligand.torsion>
0.2076

> <Gold.PLP.Chemscore.Hbond>
2.0000

> <Gold.PLP.Chemscore.CHOScore>
0.0000

> <Gold.PLP.Chemscore.Metal>
0.0000

> <Gold.Chemscore.Hbonds>
donor molecule, donor type, donor heavy atom, donor atom, acceptor molecule, acceptor atom, score
      P1  H  6896  6908       L1    14  0.84
      P1  H  7997  8008       L1    17  1.00

> <Gold.PLP.Chemscore.Internal.Correction>
0.0777

> <Gold.Rescore>
     Score         DG    S(hbond)    S(metal)    S(lipo)     H(rot)  DE(clash)    DE(int)     intcor
     17.22     -17.62       1.96        0.00      92.13       2.03       0.06       0.34       ----

> <Gold.Chemscore.Fitness>
17.2153

> <Gold.Chemscore.DG>
-17.6186

> <Gold.Chemscore.ZeroCoef>
-5.4800

> <Gold.Chemscore.Hbond>
1.9626

> <Gold.Chemscore.Metal>
0.0000

> <Gold.Chemscore.Lipo>
92.1323

> <Gold.Chemscore.Internal_Hbond>
0.0000

> <Gold.Chemscore.DEClash>
0.0618

> <Gold.Chemscore.DEInternal>
0.3415

> <Gold.Chemscore.Rot>
2.0297

> <Gold.Chemscore.Internal.Correction>
   9.000000E+99

> <Gold.Chemscore.Hbonds>
donor molecule, donor type, donor heavy atom, donor atom, acceptor molecule, acceptor atom, score
      P1  H  6896  6908       L1    14  0.80
      P1  H  7997  8008       L1    17  0.95

> <Gold.Chemscore.Hbond.Weighted>
-6.5551

> <Gold.Chemscore.Metal.Weighted>
-0.0000

> <Gold.Chemscore.Lipo.Weighted>
-10.7795

> <Gold.Chemscore.Internal_Hbond.Weighted>
0.0000

> <Gold.Chemscore.DEClash.Weighted>
0.0618

> <Gold.Chemscore.DEInternal.Weighted>
0.3415

> <Gold.Chemscore.Rot.Weighted>
5.1960

> <Gold.Chemscore.Internal.Correction.Weighted>
   9.000000E+99

> <Gold.Protein.RotatedTorsions>
[ 6907 6896 6895 6894 ] final -124.14 input  -60.11 | X-H torsion
[ 7974 7965 7964 7962 ] final   -4.72 input  175.53 | X-H torsion
[ 8008 7997 7996 7995 ] final -112.48 input   59.86 | X-H torsion
[ 10167 10162 10161 10158 ] final  -60.91 input  -65.29 | X-H torsion
[ 10718 10713 10712 10709 ] final   85.90 input   66.30 | X-H torsion
[ 10763 10752 10751 10750 ] final -133.35 input  -60.55 | X-H torsion
[ 11005 11000 10999 10996 ] final  168.44 input  -57.11 | X-H torsion

> <Gold.Protein.ActiveResidues>
 VAL166  LYS551  ARG553  GLY616  TRP617  ASP618  TYR619  PRO620  LYS621  CYS622 
 ASP623  PHE694  ASN695  SER759  ASP760  ASP761  ALA762  ILE779  LEU786  VAL792 
 PHE793  MET794  SER795  GLU796  ALA797  LYS798  CYS799  TRP800  GLU811  SER814 

> <Gold.Protein.RotatedAtoms>
  150.8739  133.7466  159.2952 H   0  0  0  0  0  0  0  0  0  0  0  0  # atno 6907 bound_to 6896
  151.5070  135.1062  159.9853 H   0  0  0  0  0  0  0  0  0  0  0  0  # atno 6908 bound_to 6896
  152.4714  133.7993  159.7000 H   0  0  0  0  0  0  0  0  0  0  0  0  # atno 6909 bound_to 6896
  146.2367  140.1914  142.8332 H   0  0  0  0  0  0  0  0  0  0  0  0  # atno 7974 bound_to 7965
  155.0059  140.0394  157.2379 H   0  0  0  0  0  0  0  0  0  0  0  0  # atno 8008 bound_to 7997
  154.7503  140.2765  155.6275 H   0  0  0  0  0  0  0  0  0  0  0  0  # atno 8009 bound_to 7997
  156.2883  140.2648  156.2255 H   0  0  0  0  0  0  0  0  0  0  0  0  # atno 8010 bound_to 7997
  140.6040  143.2368  151.5863 H   0  0  0  0  0  0  0  0  0  0  0  0  # atno 10167 bound_to 10162
  157.6921  131.0193  150.2891 H   0  0  0  0  0  0  0  0  0  0  0  0  # atno 10718 bound_to 10713
  154.8733  135.3768  154.4559 H   0  0  0  0  0  0  0  0  0  0  0  0  # atno 10763 bound_to 10752
  153.5231  135.7028  153.5726 H   0  0  0  0  0  0  0  0  0  0  0  0  # atno 10764 bound_to 10752
  153.3964  135.3959  155.1923 H   0  0  0  0  0  0  0  0  0  0  0  0  # atno 10765 bound_to 10752
  140.2873  134.7702  157.3809 H   0  0  0  0  0  0  0  0  0  0  0  0  # atno 11005 bound_to 11000
  144.9855  140.8499  143.5371 LP  0  0  0  0  0  0  0  0  0  0  0  0  # atno 17320 bound_to 7965
  145.1913  139.2300  143.5241 LP  0  0  0  0  0  0  0  0  0  0  0  0  # atno 17321 bound_to 7965
  139.5312  144.2912  152.1150 LP  0  0  0  0  0  0  0  0  0  0  0  0  # atno 17342 bound_to 10162
  140.2098  144.4574  150.6391 LP  0  0  0  0  0  0  0  0  0  0  0  0  # atno 17343 bound_to 10162
  156.3425  130.3817  149.7397 LP  0  0  0  0  0  0  0  0  0  0  0  0  # atno 17370 bound_to 10713
  156.4901  130.8081  151.3091 LP  0  0  0  0  0  0  0  0  0  0  0  0  # atno 17371 bound_to 10713
  140.1228  134.5198  155.8170 LP  0  0  0  0  0  0  0  0  0  0  0  0  # atno 17394 bound_to 11000
  141.2152  133.6762  156.6896 LP  0  0  0  0  0  0  0  0  0  0  0  0  # atno 17395 bound_to 11000

$$$$
