AV-unprocessed.smi:2385|AV-procd|sdf|9465|dock5
  -GOLD-   2272013 93D 1   1.00000     0.00000
 Structure written by MMmdl.
 50 52  0  0  0  0  0  0  0  0  2 V2000
  153.6082  142.5675  161.4826 C   0  0  0  0  0  0  0  0  0  0  0  0
  152.7013  142.5743  160.2699 C   0  0  0  0  0  0  0  0  0  0  0  0
  152.1553  143.7751  159.7788 C   0  0  0  0  0  0  0  0  0  0  0  0
  151.3192  143.7272  158.6468 C   0  0  0  0  0  0  0  0  0  0  0  0
  151.0499  142.4834  158.0328 C   0  0  0  0  0  0  0  0  0  0  0  0
  150.1939  142.5452  156.9011 N   0  0  0  0  0  0  0  0  0  0  0  0
  149.6095  141.5284  156.2439 C   0  0  0  0  0  0  0  0  0  0  0  0
  149.7317  140.3349  156.5195 O   0  0  0  0  0  0  0  0  0  0  0  0
  148.8627  141.9769  155.2242 N   0  0  0  0  0  0  0  0  0  0  0  0
  148.0843  141.1402  154.3110 C   0  0  2  0  0  0  0  0  0  0  0  0
  147.3048  141.9796  153.2813 C   0  0  0  0  0  0  0  0  0  0  0  0
  146.1578  142.7711  153.9339 C   0  0  0  0  0  0  0  0  0  0  0  0
  145.2310  141.8787  154.6805 N   0  3  2  0  0  0  0  0  0  0  0  0
  144.0599  142.6242  155.2154 C   0  0  0  0  0  0  0  0  0  0  0  0
  144.3359  144.1252  155.4525 C   0  0  2  0  0  0  0  0  0  0  0  0
  143.3763  144.7462  156.4531 C   0  0  0  0  0  0  0  0  0  0  0  0
  143.4748  146.2258  156.1149 C   0  0  0  0  0  0  0  0  0  0  0  0
  143.5259  146.2389  154.6975 O   0  0  0  0  0  0  0  0  0  0  0  0
  144.1461  145.0432  154.2331 C   0  0  0  0  0  0  0  0  0  0  0  0
  145.9533  141.0879  155.7133 C   0  0  0  0  0  0  0  0  0  0  0  0
  147.0987  140.2624  155.0982 C   0  0  0  0  0  0  0  0  0  0  0  0
  151.5830  141.3319  158.5116 N   0  0  0  0  0  0  0  0  0  0  0  0
  152.3839  141.3784  159.5972 C   0  0  0  0  0  0  0  0  0  0  0  0
  153.4270  143.4405  162.1104 H   0  0  0  0  0  0  0  0  0  0  0  0
  154.6525  142.5795  161.1705 H   0  0  0  0  0  0  0  0  0  0  0  0
  153.4392  141.6752  162.0859 H   0  0  0  0  0  0  0  0  0  0  0  0
  152.3709  144.7186  160.2586 H   0  0  0  0  0  0  0  0  0  0  0  0
  150.8911  144.6399  158.2580 H   0  0  0  0  0  0  0  0  0  0  0  0
  150.0021  143.4737  156.5553 H   0  0  0  0  0  0  0  0  0  0  0  0
  148.8161  142.9747  155.0787 H   0  0  0  0  0  0  0  0  0  0  0  0
  148.7773  140.4840  153.7814 H   0  0  0  0  0  0  0  0  0  0  0  0
  147.9741  142.6590  152.7520 H   0  0  0  0  0  0  0  0  0  0  0  0
  146.8905  141.3162  152.5211 H   0  0  0  0  0  0  0  0  0  0  0  0
  146.5569  143.5303  154.6084 H   0  0  0  0  0  0  0  0  0  0  0  0
  145.6107  143.3005  153.1528 H   0  0  0  0  0  0  0  0  0  0  0  0
  143.1839  142.4721  154.5830 H   0  0  0  0  0  0  0  0  0  0  0  0
  143.8021  142.1940  156.1845 H   0  0  0  0  0  0  0  0  0  0  0  0
  145.3468  144.2560  155.8424 H   0  0  0  0  0  0  0  0  0  0  0  0
  142.3581  144.3943  156.2797 H   0  0  0  0  0  0  0  0  0  0  0  0
  143.6402  144.5311  157.4888 H   0  0  0  0  0  0  0  0  0  0  0  0
  142.6319  146.8053  156.4922 H   0  0  0  0  0  0  0  0  0  0  0  0
  144.3951  146.6544  156.5141 H   0  0  0  0  0  0  0  0  0  0  0  0
  145.0998  145.2786  153.7602 H   0  0  0  0  0  0  0  0  0  0  0  0
  143.4982  144.5915  153.4814 H   0  0  0  0  0  0  0  0  0  0  0  0
  146.3396  141.7580  156.4830 H   0  0  0  0  0  0  0  0  0  0  0  0
  145.2731  140.4007  156.2099 H   0  0  0  0  0  0  0  0  0  0  0  0
  146.6763  139.5107  154.4302 H   0  0  0  0  0  0  0  0  0  0  0  0
  147.6244  139.7107  155.8786 H   0  0  0  0  0  0  0  0  0  0  0  0
  152.7820  140.4334  159.9363 H   0  0  0  0  0  0  0  0  0  0  0  0
  144.8695  141.2226  154.0028 H   0  0  0  0  0  0  0  0  0  0  0  0
  1  2  1  0  0  0  0
  1 24  1  0  0  0  0
  1 25  1  0  0  0  0
  1 26  1  0  0  0  0
  2 23  1  0  0  0  0
  2  3  2  0  0  0  0
  3  4  1  0  0  0  0
  3 27  1  0  0  0  0
  4  5  2  0  0  0  0
  4 28  1  0  0  0  0
  5  6  1  0  0  0  0
  5 22  1  0  0  0  0
  6  7  1  0  0  0  0
  6 29  1  0  0  0  0
  7  8  2  0  0  0  0
  7  9  1  0  0  0  0
  9 10  1  0  0  0  0
  9 30  1  0  0  0  0
 10 21  1  0  0  0  0
 10 11  1  0  0  0  0
 10 31  1  0  0  0  0
 11 12  1  0  0  0  0
 11 32  1  0  0  0  0
 11 33  1  0  0  0  0
 12 13  1  0  0  0  0
 12 34  1  0  0  0  0
 12 35  1  0  0  0  0
 13 14  1  0  0  0  0
 13 20  1  0  0  0  0
 13 50  1  0  0  0  0
 14 15  1  0  0  0  0
 14 36  1  0  0  0  0
 14 37  1  0  0  0  0
 15 19  1  0  0  0  0
 15 16  1  0  0  0  0
 15 38  1  0  0  0  0
 16 17  1  0  0  0  0
 16 39  1  0  0  0  0
 16 40  1  0  0  0  0
 17 18  1  0  0  0  0
 17 41  1  0  0  0  0
 17 42  1  0  0  0  0
 18 19  1  0  0  0  0
 19 43  1  0  0  0  0
 19 44  1  0  0  0  0
 20 21  1  0  0  0  0
 20 45  1  0  0  0  0
 20 46  1  0  0  0  0
 21 47  1  0  0  0  0
 21 48  1  0  0  0  0
 22 23  2  0  0  0  0
 23 49  1  0  0  0  0
M  CHG  1  13   1
M  END
> <s_m_source_file>
AV-unprocessed.smi

> <i_m_source_file_index>
2385

> <i_lp_mmshare_version>
43012

> <i_f3d_flags>
0

> <s_epik_input>
W0NIM11jMVtjSF1bY0hdYyhuW2NIXTEpW05IXUMoPU8pW05IXVtDSF0yW0NIMl1bQ0gyXU4oW0NIMl1bQ0gyXTIpW0NIMl1bQ0BASF0zW0NIMl1bQ0gyXU9bQ0gyXTM=

> <s_epik_cmdline>
J2VwaWtfcHl0aG9uJywgJy1waCcsICc3LjAnLCAnLXRuJywgJzgnLCAnLW1hJywgJzIwMCcsICctbWV0YWxfYmluZGluZycsICctaW1hZScsICc8aW5maWxlLm1hZT4nLCAnLW9tYWUnLCAnPG91dGZpbGUubWFlPic=

> <r_epik_Ionization_Penalty>
0.00752367

> <r_epik_Ionization_Penalty_Charging>
0.00747775

> <r_epik_Ionization_Penalty_Neutral>
4.59207e-05

> <r_epik_State_Penalty>
0.00558817

> <r_epik_Charging_Adjusted_Penalty>
0.0130659

> <i_epik_Tot_Q>
1

> <i_epik_Tot_abs_Q>
1

> <r_epik_Metal_State_Penalty>
-0

> <b_epik_Metal_Only>
0

> <s_lp_Force_Field>
OPLS_2005

> <r_lp_Energy>
35.6171

> <b_lp_Chiralities_Consistent>
1

> <s_lp_Variant>
AV-unprocessed.smi:2385-3

> <Gold.Version>
5.8.1

> <Gold.Id.Protein>
6NUR|6NUR_protein|mol2

> <Gold.PLP.Fitness>
52.2168

> <Gold.PLP.PLP>
-42.5099

> <Gold.PLP.part.hbond>
-4.0000

> <Gold.PLP.part.metal>
0.0000

> <Gold.PLP.part.buried>
-7.8554

> <Gold.PLP.part.nonpolar>
-30.1371

> <Gold.PLP.part.repulsive>
0.2190

> <Gold.PLP.ligand.clash>
0.6834

> <Gold.PLP.ligand.torsion>
0.8069

> <Gold.PLP.Chemscore.Hbond>
3.9920

> <Gold.PLP.Chemscore.CHOScore>
0.0000

> <Gold.PLP.Chemscore.Metal>
0.0000

> <Gold.Chemscore.Hbonds>
donor molecule, donor type, donor heavy atom, donor atom, acceptor molecule, acceptor atom, score
      L1  H     6    29       P1  8028  1.00
      L1  H     9    30       P1  8028  1.00
      L1  H    13    50       P1 10175  1.89

> <Gold.PLP.Chemscore.Internal.Correction>
0.0281

> <Gold.Rescore>
     Score         DG    S(hbond)    S(metal)    S(lipo)     H(rot)  DE(clash)    DE(int)     intcor
     17.94     -23.19       2.53        0.00     109.86       1.41       2.21       3.03       ----

> <Gold.Chemscore.Fitness>
17.9440

> <Gold.Chemscore.DG>
-23.1893

> <Gold.Chemscore.ZeroCoef>
-5.4800

> <Gold.Chemscore.Hbond>
2.5311

> <Gold.Chemscore.Metal>
0.0000

> <Gold.Chemscore.Lipo>
109.8595

> <Gold.Chemscore.Internal_Hbond>
0.0000

> <Gold.Chemscore.DEClash>
2.2130

> <Gold.Chemscore.DEInternal>
3.0323

> <Gold.Chemscore.Rot>
1.4056

> <Gold.Chemscore.Internal.Correction>
   9.000000E+99

> <Gold.Chemscore.Hbonds>
donor molecule, donor type, donor heavy atom, donor atom, acceptor molecule, acceptor atom, score
      L1  H     6    29       P1  8028  0.96
      L1  H     9    30       P1  8028  0.98
      L1  H    13    50       P1 10175  0.58

> <Gold.Chemscore.Hbond.Weighted>
-8.4540

> <Gold.Chemscore.Metal.Weighted>
-0.0000

> <Gold.Chemscore.Lipo.Weighted>
-12.8536

> <Gold.Chemscore.Internal_Hbond.Weighted>
0.0000

> <Gold.Chemscore.DEClash.Weighted>
2.2130

> <Gold.Chemscore.DEInternal.Weighted>
3.0323

> <Gold.Chemscore.Rot.Weighted>
3.5982

> <Gold.Chemscore.Internal.Correction.Weighted>
   9.000000E+99

> <Gold.Protein.RotatedTorsions>
[ 6907 6896 6895 6894 ] final  168.46 input  -60.11 | X-H torsion
[ 7974 7965 7964 7962 ] final  129.90 input  175.53 | X-H torsion
[ 8008 7997 7996 7995 ] final -174.87 input   59.86 | X-H torsion
[ 10167 10162 10161 10158 ] final  -14.81 input  -65.29 | X-H torsion
[ 10718 10713 10712 10709 ] final -102.20 input   66.30 | X-H torsion
[ 10763 10752 10751 10750 ] final   97.72 input  -60.55 | X-H torsion
[ 11005 11000 10999 10996 ] final   66.86 input  -57.11 | X-H torsion

> <Gold.Protein.ActiveResidues>
 VAL166  LYS551  ARG553  GLY616  TRP617  ASP618  TYR619  PRO620  LYS621  CYS622 
 ASP623  PHE694  ASN695  SER759  ASP760  ASP761  ALA762  ILE779  LEU786  VAL792 
 PHE793  MET794  SER795  GLU796  ALA797  LYS798  CYS799  TRP800  GLU811  SER814 

> <Gold.Protein.RotatedAtoms>
  151.8472  133.3433  159.3661 H   0  0  0  0  0  0  0  0  0  0  0  0  # atno 6907 bound_to 6896
  150.7217  134.5334  159.5721 H   0  0  0  0  0  0  0  0  0  0  0  0  # atno 6908 bound_to 6896
  152.2820  134.7819  160.0446 H   0  0  0  0  0  0  0  0  0  0  0  0  # atno 6909 bound_to 6896
  145.0236  139.4109  143.5185 H   0  0  0  0  0  0  0  0  0  0  0  0  # atno 7974 bound_to 7965
  155.9755  140.1171  157.0774 H   0  0  0  0  0  0  0  0  0  0  0  0  # atno 8008 bound_to 7997
  154.4168  140.1155  156.5431 H   0  0  0  0  0  0  0  0  0  0  0  0  # atno 8009 bound_to 7997
  155.6541  140.3473  155.4761 H   0  0  0  0  0  0  0  0  0  0  0  0  # atno 8010 bound_to 7997
  140.7208  143.5283  150.9550 H   0  0  0  0  0  0  0  0  0  0  0  0  # atno 10167 bound_to 10162
  156.0220  130.5409  150.7074 H   0  0  0  0  0  0  0  0  0  0  0  0  # atno 10718 bound_to 10713
  153.2803  135.4173  155.1072 H   0  0  0  0  0  0  0  0  0  0  0  0  # atno 10763 bound_to 10752
  154.8487  135.3493  154.6121 H   0  0  0  0  0  0  0  0  0  0  0  0  # atno 10764 bound_to 10752
  153.6542  135.7051  153.5256 H   0  0  0  0  0  0  0  0  0  0  0  0  # atno 10765 bound_to 10752
  139.9806  134.6750  156.0270 H   0  0  0  0  0  0  0  0  0  0  0  0  # atno 11005 bound_to 11000
  146.3489  139.9748  142.8702 LP  0  0  0  0  0  0  0  0  0  0  0  0  # atno 17320 bound_to 7965
  145.1862  140.9790  143.4237 LP  0  0  0  0  0  0  0  0  0  0  0  0  # atno 17321 bound_to 7965
  139.9003  143.6844  152.3132 LP  0  0  0  0  0  0  0  0  0  0  0  0  # atno 17342 bound_to 10162
  139.7191  144.7606  151.0984 LP  0  0  0  0  0  0  0  0  0  0  0  0  # atno 17343 bound_to 10162
  157.4720  131.0894  151.0631 LP  0  0  0  0  0  0  0  0  0  0  0  0  # atno 17370 bound_to 10713
  157.1089  130.6013  149.5477 LP  0  0  0  0  0  0  0  0  0  0  0  0  # atno 17371 bound_to 10713
  141.1478  133.6553  156.3921 LP  0  0  0  0  0  0  0  0  0  0  0  0  # atno 17394 bound_to 11000
  140.5104  134.6400  157.5282 LP  0  0  0  0  0  0  0  0  0  0  0  0  # atno 17395 bound_to 11000

$$$$
