AV-unprocessed.smi:525|AV-procd|sdf|2809|dock4
  -GOLD-   2262023283D 1   1.00000     0.00000
 Structure written by MMmdl.
 44 46  0  0  0  0  0  0  0  0  2 V2000
  147.4448  135.6505  160.0593 C   0  0  0  0  0  0  0  0  0  0  0  0
  146.5136  135.0808  159.1559 O   0  0  0  0  0  0  0  0  0  0  0  0
  146.9210  135.2079  157.8049 C   0  0  0  0  0  0  0  0  0  0  0  0
  146.4971  136.5887  157.2901 C   0  0  0  0  0  0  0  0  0  0  0  0
  147.2167  136.9591  156.0650 N   0  0  0  0  0  0  0  0  0  0  0  0
  147.1535  136.4344  154.8096 C   0  0  0  0  0  0  0  0  0  0  0  0
  146.1325  135.0878  154.2964 S   0  0  0  0  0  0  0  0  0  0  0  0
  146.1278  135.1022  152.4727 C   0  0  2  0  0  0  0  0  0  0  0  0
  145.4483  136.3393  151.8706 C   0  0  0  0  0  0  0  0  0  0  0  0
  146.2067  137.2064  151.1925 N   0  0  0  0  0  0  0  0  0  0  0  0
  144.2419  136.5150  152.0260 O   0  0  0  0  0  0  0  0  0  0  0  0
  145.4998  133.8263  151.9174 C   0  0  0  0  0  0  0  0  0  0  0  0
  146.0270  132.5518  152.2305 C   0  0  0  0  0  0  0  0  0  0  0  0
  145.4406  131.3881  151.6969 C   0  0  0  0  0  0  0  0  0  0  0  0
  144.3223  131.4879  150.8479 C   0  0  0  0  0  0  0  0  0  0  0  0
  143.7889  132.7524  150.5349 C   0  0  0  0  0  0  0  0  0  0  0  0
  144.3752  133.9165  151.0679 C   0  0  0  0  0  0  0  0  0  0  0  0
  148.0258  137.1305  154.0287 N   0  3  0  0  0  0  0  0  0  0  0  0
  148.6638  138.1058  154.7955 C   0  0  0  0  0  0  0  0  0  0  0  0
  149.6293  139.0471  154.4525 C   0  0  0  0  0  0  0  0  0  0  0  0
  150.0772  139.8984  155.4840 C   0  0  0  0  0  0  0  0  0  0  0  0
  149.5681  139.7950  156.7950 C   0  0  0  0  0  0  0  0  0  0  0  0
  148.5886  138.8372  157.1311 C   0  0  0  0  0  0  0  0  0  0  0  0
  148.1504  138.0004  156.1053 C   0  0  0  0  0  0  0  0  0  0  0  0
  147.0888  135.5231  161.0814 H   0  0  0  0  0  0  0  0  0  0  0  0
  147.5676  136.7189  159.8766 H   0  0  0  0  0  0  0  0  0  0  0  0
  148.4193  135.1670  159.9795 H   0  0  0  0  0  0  0  0  0  0  0  0
  148.0034  135.0919  157.7289 H   0  0  0  0  0  0  0  0  0  0  0  0
  146.4607  134.4245  157.2002 H   0  0  0  0  0  0  0  0  0  0  0  0
  145.4297  136.5966  157.0677 H   0  0  0  0  0  0  0  0  0  0  0  0
  146.6612  137.3584  158.0448 H   0  0  0  0  0  0  0  0  0  0  0  0
  147.1753  135.1339  152.1692 H   0  0  0  0  0  0  0  0  0  0  0  0
  145.7900  138.0311  150.7855 H   0  0  0  0  0  0  0  0  0  0  0  0
  147.1964  137.0335  151.0912 H   0  0  0  0  0  0  0  0  0  0  0  0
  146.8841  132.4592  152.8812 H   0  0  0  0  0  0  0  0  0  0  0  0
  145.8490  130.4181  151.9397 H   0  0  0  0  0  0  0  0  0  0  0  0
  143.8722  130.5952  150.4391 H   0  0  0  0  0  0  0  0  0  0  0  0
  142.9285  132.8293  149.8865 H   0  0  0  0  0  0  0  0  0  0  0  0
  143.9557  134.8809  150.8215 H   0  0  0  0  0  0  0  0  0  0  0  0
  150.0220  139.1267  153.4492 H   0  0  0  0  0  0  0  0  0  0  0  0
  150.8271  140.6450  155.2657 H   0  0  0  0  0  0  0  0  0  0  0  0
  149.9369  140.4639  157.5591 H   0  0  0  0  0  0  0  0  0  0  0  0
  148.2068  138.7643  158.1388 H   0  0  0  0  0  0  0  0  0  0  0  0
  148.1800  136.9418  153.0466 H   0  0  0  0  0  0  0  0  0  0  0  0
  1  2  1  0  0  0  0
  1 25  1  0  0  0  0
  1 26  1  0  0  0  0
  1 27  1  0  0  0  0
  2  3  1  0  0  0  0
  3  4  1  0  0  0  0
  3 28  1  0  0  0  0
  3 29  1  0  0  0  0
  4  5  1  0  0  0  0
  4 30  1  0  0  0  0
  4 31  1  0  0  0  0
  5 24  1  0  0  0  0
  5  6  1  0  0  0  0
  6  7  1  0  0  0  0
  6 18  2  0  0  0  0
  7  8  1  0  0  0  0
  8  9  1  0  0  0  0
  8 12  1  0  0  0  0
  8 32  1  0  0  0  0
  9 10  1  0  0  0  0
  9 11  2  0  0  0  0
 10 33  1  0  0  0  0
 10 34  1  0  0  0  0
 12 17  1  0  0  0  0
 12 13  2  0  0  0  0
 13 14  1  0  0  0  0
 13 35  1  0  0  0  0
 14 15  2  0  0  0  0
 14 36  1  0  0  0  0
 15 16  1  0  0  0  0
 15 37  1  0  0  0  0
 16 17  2  0  0  0  0
 16 38  1  0  0  0  0
 17 39  1  0  0  0  0
 18 19  1  0  0  0  0
 18 44  1  0  0  0  0
 19 24  2  0  0  0  0
 19 20  1  0  0  0  0
 20 21  2  0  0  0  0
 20 40  1  0  0  0  0
 21 22  1  0  0  0  0
 21 41  1  0  0  0  0
 22 23  2  0  0  0  0
 22 42  1  0  0  0  0
 23 24  1  0  0  0  0
 23 43  1  0  0  0  0
M  CHG  1  18   1
M  END
> <s_m_source_file>
AV-unprocessed.smi

> <i_m_source_file_index>
525

> <i_lp_mmshare_version>
43012

> <i_f3d_flags>
0

> <s_epik_input>
W2NIXTFbY0hdW2NIXVtjSF1jKGMxMiluKFtDSDJdW0NIMl1PW0NIM10pYyhuMilTW0NASF0oQyg9TylbTkgyXSljM1tjSF1bY0hdW2NIXVtjSF1bY0hdMw==

> <s_epik_cmdline>
J2VwaWtfcHl0aG9uJywgJy1waCcsICc3LjAnLCAnLXRuJywgJzgnLCAnLW1hJywgJzIwMCcsICctbWV0YWxfYmluZGluZycsICctaW1hZScsICc8aW5maWxlLm1hZT4nLCAnLW9tYWUnLCAnPG91dGZpbGUubWFlPic=

> <r_epik_Ionization_Penalty>
1.29485

> <r_epik_Ionization_Penalty_Charging>
1.29485

> <r_epik_Ionization_Penalty_Neutral>
1.02965e-06

> <r_epik_State_Penalty>
1.36828

> <r_epik_Charging_Adjusted_Penalty>
2.66313

> <i_epik_Tot_Q>
1

> <i_epik_Tot_abs_Q>
1

> <r_epik_Metal_State_Penalty>
1.43316

> <b_epik_Metal_Only>
0

> <s_lp_Force_Field>
OPLS_2005

> <r_lp_Energy>
14.4741

> <b_lp_Chiralities_Consistent>
1

> <s_lp_Variant>
AV-unprocessed.smi:525-3

> <Gold.Version>
5.8.1

> <Gold.Id.Protein>
6NUR|6NUR_protein|mol2

> <Gold.PLP.Fitness>
38.8264

> <Gold.PLP.PLP>
-29.5397

> <Gold.PLP.part.hbond>
-2.7945

> <Gold.PLP.part.metal>
0.0000

> <Gold.PLP.part.buried>
-5.3019

> <Gold.PLP.part.nonpolar>
-22.7981

> <Gold.PLP.part.repulsive>
0.6277

> <Gold.PLP.ligand.clash>
0.0000

> <Gold.PLP.ligand.torsion>
0.5593

> <Gold.PLP.Chemscore.Hbond>
3.3962

> <Gold.PLP.Chemscore.CHOScore>
0.0000

> <Gold.PLP.Chemscore.Metal>
0.0000

> <Gold.Chemscore.Hbonds>
donor molecule, donor type, donor heavy atom, donor atom, acceptor molecule, acceptor atom, score
      L1  H    10    33       P1 10171  0.41
      L1  H    10    34       P1  7948  0.99
      L1  H    18    44       P1  7948  2.00

> <Gold.PLP.Chemscore.Internal.Correction>
0.2168

> <Gold.Rescore>
     Score         DG    S(hbond)    S(metal)    S(lipo)     H(rot)  DE(clash)    DE(int)     intcor
     13.56     -15.64       2.46        0.00      71.71       2.51       0.24       1.85       ----

> <Gold.Chemscore.Fitness>
13.5574

> <Gold.Chemscore.DG>
-15.6445

> <Gold.Chemscore.ZeroCoef>
-5.4800

> <Gold.Chemscore.Hbond>
2.4587

> <Gold.Chemscore.Metal>
0.0000

> <Gold.Chemscore.Lipo>
71.7061

> <Gold.Chemscore.Internal_Hbond>
0.0000

> <Gold.Chemscore.DEClash>
0.2386

> <Gold.Chemscore.DEInternal>
1.8486

> <Gold.Chemscore.Rot>
2.5145

> <Gold.Chemscore.Internal.Correction>
   9.000000E+99

> <Gold.Chemscore.Hbonds>
donor molecule, donor type, donor heavy atom, donor atom, acceptor molecule, acceptor atom, score
      L1  H    10    33       P1 10171  0.41
      L1  H    10    34       P1  7948  0.88
      L1  H    18    44       P1  7948  0.94

> <Gold.Chemscore.Hbond.Weighted>
-8.2121

> <Gold.Chemscore.Metal.Weighted>
-0.0000

> <Gold.Chemscore.Lipo.Weighted>
-8.3896

> <Gold.Chemscore.Internal_Hbond.Weighted>
0.0000

> <Gold.Chemscore.DEClash.Weighted>
0.2386

> <Gold.Chemscore.DEInternal.Weighted>
1.8486

> <Gold.Chemscore.Rot.Weighted>
6.4372

> <Gold.Chemscore.Internal.Correction.Weighted>
   9.000000E+99

> <Gold.Protein.RotatedTorsions>
[ 6907 6896 6895 6894 ] final   80.42 input  -60.11 | X-H torsion
[ 7974 7965 7964 7962 ] final  -91.93 input  175.53 | X-H torsion
[ 8008 7997 7996 7995 ] final   65.76 input   59.86 | X-H torsion
[ 10167 10162 10161 10158 ] final -175.30 input  -65.29 | X-H torsion
[ 10718 10713 10712 10709 ] final -176.81 input   66.30 | X-H torsion
[ 10763 10752 10751 10750 ] final  -98.36 input  -60.55 | X-H torsion
[ 11005 11000 10999 10996 ] final  108.79 input  -57.11 | X-H torsion

> <Gold.Protein.ActiveResidues>
 VAL166  LYS551  ARG553  GLY616  TRP617  ASP618  TYR619  PRO620  LYS621  CYS622 
 ASP623  PHE694  ASN695  SER759  ASP760  ASP761  ALA762  ILE779  LEU786  VAL792 
 PHE793  MET794  SER795  GLU796  ALA797  LYS798  CYS799  TRP800  GLU811  SER814 

> <Gold.Protein.RotatedAtoms>
  152.5234  134.3361  159.9200 H   0  0  0  0  0  0  0  0  0  0  0  0  # atno 6907 bound_to 6896
  151.3310  133.3994  159.2670 H   0  0  0  0  0  0  0  0  0  0  0  0  # atno 6908 bound_to 6896
  150.9880  134.9239  159.7941 H   0  0  0  0  0  0  0  0  0  0  0  0  # atno 6909 bound_to 6896
  145.4066  140.9542  143.2257 H   0  0  0  0  0  0  0  0  0  0  0  0  # atno 7974 bound_to 7965
  155.6668  140.3497  155.4803 H   0  0  0  0  0  0  0  0  0  0  0  0  # atno 8008 bound_to 7997
  155.9722  140.1158  157.0825 H   0  0  0  0  0  0  0  0  0  0  0  0  # atno 8009 bound_to 7997
  154.4169  140.1154  156.5308 H   0  0  0  0  0  0  0  0  0  0  0  0  # atno 8010 bound_to 7997
  139.5588  144.1922  152.1204 H   0  0  0  0  0  0  0  0  0  0  0  0  # atno 10167 bound_to 10162
  156.8202  130.9617  151.3112 H   0  0  0  0  0  0  0  0  0  0  0  0  # atno 10718 bound_to 10713
  154.7408  135.5012  153.9119 H   0  0  0  0  0  0  0  0  0  0  0  0  # atno 10763 bound_to 10752
  153.1041  135.6692  153.9627 H   0  0  0  0  0  0  0  0  0  0  0  0  # atno 10764 bound_to 10752
  153.9404  135.3068  155.3422 H   0  0  0  0  0  0  0  0  0  0  0  0  # atno 10765 bound_to 10752
  139.8850  134.9440  156.6026 H   0  0  0  0  0  0  0  0  0  0  0  0  # atno 11005 bound_to 11000
  144.8337  139.5585  143.6932 LP  0  0  0  0  0  0  0  0  0  0  0  0  # atno 17320 bound_to 7965
  146.2725  139.6672  142.9286 LP  0  0  0  0  0  0  0  0  0  0  0  0  # atno 17321 bound_to 7965
  140.1431  144.5184  150.6732 LP  0  0  0  0  0  0  0  0  0  0  0  0  # atno 17342 bound_to 10162
  140.6865  143.2353  151.5246 LP  0  0  0  0  0  0  0  0  0  0  0  0  # atno 17343 bound_to 10162
  157.6461  130.8845  149.9541 LP  0  0  0  0  0  0  0  0  0  0  0  0  # atno 17370 bound_to 10713
  156.0993  130.3657  150.0247 LP  0  0  0  0  0  0  0  0  0  0  0  0  # atno 17371 bound_to 10713
  140.7872  133.8612  155.8616 LP  0  0  0  0  0  0  0  0  0  0  0  0  # atno 17394 bound_to 11000
  140.9709  134.1532  157.4577 LP  0  0  0  0  0  0  0  0  0  0  0  0  # atno 17395 bound_to 11000

$$$$
