AV-unprocessed.smi:2630|AV-procd|sdf|10246|dock5
  -GOLD-   2272014253D 1   1.00000     0.00000
 Structure written by MMmdl.
 35 36  0  0  0  0  0  0  0  0  1 V2000
  142.8182  141.0631  155.8374 C   0  0  0  0  0  0  0  0  0  0  0  0
  143.9637  141.7991  156.2271 O   0  0  0  0  0  0  0  0  0  0  0  0
  145.1622  141.2678  155.6858 C   0  0  0  0  0  0  0  0  0  0  0  0
  146.3541  142.1349  156.1246 C   0  0  0  0  0  0  0  0  0  0  0  0
  147.6364  141.5253  155.8327 N   0  0  0  0  0  0  0  0  0  0  0  0
  148.6032  141.2465  156.8024 C   0  0  0  0  0  0  0  0  0  0  0  0
  148.3377  141.5508  158.1268 N   0  0  0  0  0  0  0  0  0  0  0  0
  149.7995  140.7014  156.4603 C   0  0  0  0  0  0  0  0  0  0  0  0
  151.1191  140.3262  157.5901 S   0  0  0  0  0  0  0  0  0  0  0  0
  151.5608  141.9415  158.1423 C   0  0  0  0  0  0  0  0  0  0  0  0
  152.3550  142.0981  159.2960 C   0  0  0  0  0  0  0  0  0  0  0  0
  152.6995  143.3893  159.7410 C   0  0  0  0  0  0  0  0  0  0  0  0
  152.2525  144.5215  159.0319 C   0  0  0  0  0  0  0  0  0  0  0  0
  151.4600  144.3635  157.8775 C   0  0  0  0  0  0  0  0  0  0  0  0
  151.1138  143.0731  157.4315 C   0  0  0  0  0  0  0  0  0  0  0  0
  150.1431  140.3718  155.0753 C   0  0  0  0  0  0  0  0  0  0  0  0
  151.1919  139.8649  154.6779 O   0  0  0  0  0  0  0  0  0  0  0  0
  149.1417  140.6896  154.1582 N   0  0  0  0  0  0  0  0  0  0  0  0
  147.9074  141.2595  154.4664 C   0  0  0  0  0  0  0  0  0  0  0  0
  147.1149  141.5095  153.5575 O   0  0  0  0  0  0  0  0  0  0  0  0
  149.3287  140.4942  153.1855 H   0  0  0  0  0  0  0  0  0  0  0  0
  141.9273  141.5110  156.2776 H   0  0  0  0  0  0  0  0  0  0  0  0
  142.8786  140.0286  156.1780 H   0  0  0  0  0  0  0  0  0  0  0  0
  142.6969  141.0693  154.7533 H   0  0  0  0  0  0  0  0  0  0  0  0
  145.3025  140.2481  156.0466 H   0  0  0  0  0  0  0  0  0  0  0  0
  145.1009  141.2196  154.5976 H   0  0  0  0  0  0  0  0  0  0  0  0
  146.3371  143.1117  155.6430 H   0  0  0  0  0  0  0  0  0  0  0  0
  146.3273  142.3451  157.1950 H   0  0  0  0  0  0  0  0  0  0  0  0
  147.4631  141.9691  158.4095 H   0  0  0  0  0  0  0  0  0  0  0  0
  148.9625  141.2740  158.8703 H   0  0  0  0  0  0  0  0  0  0  0  0
  152.6980  141.2325  159.8433 H   0  0  0  0  0  0  0  0  0  0  0  0
  153.3059  143.5110  160.6264 H   0  0  0  0  0  0  0  0  0  0  0  0
  152.5175  145.5112  159.3738 H   0  0  0  0  0  0  0  0  0  0  0  0
  151.1170  145.2320  157.3349 H   0  0  0  0  0  0  0  0  0  0  0  0
  150.5030  142.9541  156.5485 H   0  0  0  0  0  0  0  0  0  0  0  0
  1  2  1  0  0  0  0
  1 22  1  0  0  0  0
  1 23  1  0  0  0  0
  1 24  1  0  0  0  0
  2  3  1  0  0  0  0
  3  4  1  0  0  0  0
  3 25  1  0  0  0  0
  3 26  1  0  0  0  0
  4  5  1  0  0  0  0
  4 27  1  0  0  0  0
  4 28  1  0  0  0  0
  5 19  1  0  0  0  0
  5  6  1  0  0  0  0
  6  7  1  0  0  0  0
  6  8  2  0  0  0  0
  7 29  1  0  0  0  0
  7 30  1  0  0  0  0
  8  9  1  0  0  0  0
  8 16  1  0  0  0  0
  9 10  1  0  0  0  0
 10 15  1  0  0  0  0
 10 11  2  0  0  0  0
 11 12  1  0  0  0  0
 11 31  1  0  0  0  0
 12 13  2  0  0  0  0
 12 32  1  0  0  0  0
 13 14  1  0  0  0  0
 13 33  1  0  0  0  0
 14 15  2  0  0  0  0
 14 34  1  0  0  0  0
 15 35  1  0  0  0  0
 16 17  2  0  0  0  0
 16 18  1  0  0  0  0
 18 21  1  0  0  0  0
 18 19  1  0  0  0  0
 19 20  2  0  0  0  0
M  END
> <s_m_source_file>
AV-unprocessed.smi

> <i_m_source_file_index>
2630

> <i_lp_mmshare_version>
43012

> <i_f3d_flags>
0

> <s_epik_input>
W0NIM11PW0NIMl1bQ0gyXW4xYyhbTkgyXSljKGMoPU8pW25IXWMxPU8pU2MyW2NIXVtjSF1bY0hdW2NIXVtjSF0y

> <s_epik_cmdline>
J2VwaWtfcHl0aG9uJywgJy1waCcsICc3LjAnLCAnLXRuJywgJzgnLCAnLW1hJywgJzIwMCcsICctbWV0YWxfYmluZGluZycsICctaW1hZScsICc8aW5maWxlLm1hZT4nLCAnLW9tYWUnLCAnPG91dGZpbGUubWFlPic=

> <r_lp_tautomer_probability>
1

> <r_epik_Ionization_Penalty>
1.3786e-05

> <r_epik_Ionization_Penalty_Charging>
1.17844e-05

> <r_epik_Ionization_Penalty_Neutral>
2.00164e-06

> <r_epik_State_Penalty>
-0

> <r_epik_Charging_Adjusted_Penalty>
1.17844e-05

> <i_epik_Tot_Q>
0

> <i_epik_Tot_abs_Q>
0

> <r_epik_Metal_State_Penalty>
0.0115847

> <b_epik_Metal_Only>
0

> <s_epik_Chemistry_Notes>
This compound has an imine and may undergo hydrolysis.

> <s_lp_Force_Field>
OPLS_2005

> <r_lp_Energy>
18.8348

> <b_lp_Chiralities_Consistent>
1

> <s_lp_Variant>
AV-unprocessed.smi:2630-1

> <Gold.Version>
5.8.1

> <Gold.Id.Protein>
6NUR|6NUR_protein|mol2

> <Gold.PLP.Fitness>
41.3034

> <Gold.PLP.PLP>
-35.8086

> <Gold.PLP.part.hbond>
-1.9492

> <Gold.PLP.part.metal>
0.0000

> <Gold.PLP.part.buried>
-3.0158

> <Gold.PLP.part.nonpolar>
-30.8743

> <Gold.PLP.part.repulsive>
0.6861

> <Gold.PLP.ligand.clash>
0.0000

> <Gold.PLP.ligand.torsion>
0.2591

> <Gold.PLP.Chemscore.Hbond>
1.9913

> <Gold.PLP.Chemscore.CHOScore>
0.0000

> <Gold.PLP.Chemscore.Metal>
0.0000

> <Gold.Chemscore.Hbonds>
donor molecule, donor type, donor heavy atom, donor atom, acceptor molecule, acceptor atom, score
      L1  H    18    21       P1  7957  0.84
      P1  H  7989  7998       L1    17  1.00

> <Gold.PLP.Chemscore.Internal.Correction>
0.0391

> <Gold.Rescore>
     Score         DG    S(hbond)    S(metal)    S(lipo)     H(rot)  DE(clash)    DE(int)     intcor
     14.81     -15.26       1.56        0.00      84.34       2.07       0.08       0.37       ----

> <Gold.Chemscore.Fitness>
14.8126

> <Gold.Chemscore.DG>
-15.2552

> <Gold.Chemscore.ZeroCoef>
-5.4800

> <Gold.Chemscore.Hbond>
1.5574

> <Gold.Chemscore.Metal>
0.0000

> <Gold.Chemscore.Lipo>
84.3392

> <Gold.Chemscore.Internal_Hbond>
0.0000

> <Gold.Chemscore.DEClash>
0.0757

> <Gold.Chemscore.DEInternal>
0.3669

> <Gold.Chemscore.Rot>
2.0680

> <Gold.Chemscore.Internal.Correction>
   9.000000E+99

> <Gold.Chemscore.Hbonds>
donor molecule, donor type, donor heavy atom, donor atom, acceptor molecule, acceptor atom, score
      L1  H    18    21       P1  7957  0.82
      P1  H  7989  7998       L1    17  0.39

> <Gold.Chemscore.Hbond.Weighted>
-5.2016

> <Gold.Chemscore.Metal.Weighted>
-0.0000

> <Gold.Chemscore.Lipo.Weighted>
-9.8677

> <Gold.Chemscore.Internal_Hbond.Weighted>
0.0000

> <Gold.Chemscore.DEClash.Weighted>
0.0757

> <Gold.Chemscore.DEInternal.Weighted>
0.3669

> <Gold.Chemscore.Rot.Weighted>
5.2941

> <Gold.Chemscore.Internal.Correction.Weighted>
   9.000000E+99

> <Gold.Protein.RotatedTorsions>
[ 6907 6896 6895 6894 ] final  -36.79 input  -60.11 | X-H torsion
[ 7974 7965 7964 7962 ] final -160.46 input  175.53 | X-H torsion
[ 8008 7997 7996 7995 ] final   55.90 input   59.86 | X-H torsion
[ 10167 10162 10161 10158 ] final  -38.75 input  -65.29 | X-H torsion
[ 10718 10713 10712 10709 ] final  -24.34 input   66.30 | X-H torsion
[ 10763 10752 10751 10750 ] final  126.27 input  -60.55 | X-H torsion
[ 11005 11000 10999 10996 ] final -126.35 input  -57.11 | X-H torsion

> <Gold.Protein.ActiveResidues>
 VAL166  LYS551  ARG553  GLY616  TRP617  ASP618  TYR619  PRO620  LYS621  CYS622 
 ASP623  PHE694  ASN695  SER759  ASP760  ASP761  ALA762  ILE779  LEU786  VAL792 
 PHE793  MET794  SER795  GLU796  ALA797  LYS798  CYS799  TRP800  GLU811  SER814 

> <Gold.Protein.RotatedAtoms>
  151.0227  134.9481  159.8068 H   0  0  0  0  0  0  0  0  0  0  0  0  # atno 6907 bound_to 6896
  152.5328  134.2882  159.9043 H   0  0  0  0  0  0  0  0  0  0  0  0  # atno 6908 bound_to 6896
  151.2890  133.4132  159.2666 H   0  0  0  0  0  0  0  0  0  0  0  0  # atno 6909 bound_to 6896
  144.7426  140.3538  143.6110 H   0  0  0  0  0  0  0  0  0  0  0  0  # atno 7974 bound_to 7965
  155.5087  140.3476  155.4384 H   0  0  0  0  0  0  0  0  0  0  0  0  # atno 8008 bound_to 7997
  156.0864  140.1399  156.9675 H   0  0  0  0  0  0  0  0  0  0  0  0  # atno 8009 bound_to 7997
  154.4609  140.0935  156.6867 H   0  0  0  0  0  0  0  0  0  0  0  0  # atno 8010 bound_to 7997
  140.7083  143.3257  151.2686 H   0  0  0  0  0  0  0  0  0  0  0  0  # atno 10167 bound_to 10162
  156.4789  130.4541  149.6823 H   0  0  0  0  0  0  0  0  0  0  0  0  # atno 10718 bound_to 10713
  153.6906  135.3299  155.3201 H   0  0  0  0  0  0  0  0  0  0  0  0  # atno 10763 bound_to 10752
  154.8441  135.4431  154.1512 H   0  0  0  0  0  0  0  0  0  0  0  0  # atno 10764 bound_to 10752
  153.2553  135.6985  153.7714 H   0  0  0  0  0  0  0  0  0  0  0  0  # atno 10765 bound_to 10752
  140.9688  134.0834  157.3891 H   0  0  0  0  0  0  0  0  0  0  0  0  # atno 11005 bound_to 11000
  145.7248  139.1719  143.2464 LP  0  0  0  0  0  0  0  0  0  0  0  0  # atno 17320 bound_to 7965
  146.1250  140.7260  142.9439 LP  0  0  0  0  0  0  0  0  0  0  0  0  # atno 17321 bound_to 7965
  139.6724  143.9996  152.2761 LP  0  0  0  0  0  0  0  0  0  0  0  0  # atno 17342 bound_to 10162
  139.9599  144.6564  150.8089 LP  0  0  0  0  0  0  0  0  0  0  0  0  # atno 17343 bound_to 10162
  156.3541  130.7447  151.2411 LP  0  0  0  0  0  0  0  0  0  0  0  0  # atno 17370 bound_to 10713
  157.7485  131.0368  150.4429 LP  0  0  0  0  0  0  0  0  0  0  0  0  # atno 17371 bound_to 10713
  139.8904  135.0112  156.6736 LP  0  0  0  0  0  0  0  0  0  0  0  0  # atno 17394 bound_to 11000
  140.7359  133.9019  155.8244 LP  0  0  0  0  0  0  0  0  0  0  0  0  # atno 17395 bound_to 11000

$$$$
