AV-unprocessed.smi:55|AV-procd|sdf|575|dock3
  -GOLD-   2262016473D 1   1.00000     0.00000
 Structure written by MMmdl.
 30 31  0  0  0  0  0  0  0  0  2 V2000
  150.5289  142.8612  158.8998 C   0  0  0  0  0  0  0  0  0  0  0  0
  150.8342  141.9111  157.7549 C   0  0  0  0  0  0  0  0  0  0  0  0
  150.0684  141.8522  156.6425 C   0  0  0  0  0  0  0  0  0  0  0  0
  150.3519  140.9845  155.6007 N   0  0  0  0  0  0  0  0  0  0  0  0
  149.4909  140.9241  154.3549 C   0  0  2  0  0  0  0  0  0  0  0  0
  148.2085  141.7487  154.5443 C   0  0  0  0  0  0  0  0  0  0  0  0
  147.1328  140.7876  154.0763 C   0  0  2  0  0  0  0  0  0  0  0  0
  145.9038  141.0463  154.7238 O   0  0  0  0  0  0  0  0  0  0  0  0
  147.7246  139.4322  154.4620 C   0  0  1  0  0  0  0  0  0  0  0  0
  147.1271  138.2538  153.6782 C   0  0  0  0  0  0  0  0  0  0  0  0
  147.3908  138.4025  152.2994 O   0  0  0  0  0  0  0  0  0  0  0  0
  149.0948  139.6041  154.1112 O   0  0  0  0  0  0  0  0  0  0  0  0
  151.4777  140.1249  155.6931 C   0  0  0  0  0  0  0  0  0  0  0  0
  151.7048  139.3671  154.7493 O   0  0  0  0  0  0  0  0  0  0  0  0
  152.2550  140.1763  156.8121 N   0  5  0  0  0  0  0  0  0  0  0  0
  151.9986  141.0224  157.8504 C   0  0  0  0  0  0  0  0  0  0  0  0
  152.7102  141.0597  158.8540 O   0  0  0  0  0  0  0  0  0  0  0  0
  150.1258  141.2632  153.5347 H   0  0  0  0  0  0  0  0  0  0  0  0
  147.0119  140.8597  152.9945 H   0  0  0  0  0  0  0  0  0  0  0  0
  147.6311  139.2822  155.5396 H   0  0  0  0  0  0  0  0  0  0  0  0
  149.6405  143.4588  158.6934 H   0  0  0  0  0  0  0  0  0  0  0  0
  151.3643  143.5428  159.0618 H   0  0  0  0  0  0  0  0  0  0  0  0
  150.3547  142.3039  159.8207 H   0  0  0  0  0  0  0  0  0  0  0  0
  149.2133  142.5072  156.5785 H   0  0  0  0  0  0  0  0  0  0  0  0
  148.0810  141.9940  155.6004 H   0  0  0  0  0  0  0  0  0  0  0  0
  148.2462  142.6739  153.9686 H   0  0  0  0  0  0  0  0  0  0  0  0
  145.2024  140.8722  154.1150 H   0  0  0  0  0  0  0  0  0  0  0  0
  147.5871  137.3188  153.9988 H   0  0  0  0  0  0  0  0  0  0  0  0
  146.0546  138.1639  153.8534 H   0  0  0  0  0  0  0  0  0  0  0  0
  148.0660  137.7882  152.0550 H   0  0  0  0  0  0  0  0  0  0  0  0
  1  2  1  0  0  0  0
  1 21  1  0  0  0  0
  1 22  1  0  0  0  0
  1 23  1  0  0  0  0
  2 16  1  0  0  0  0
  2  3  2  0  0  0  0
  3  4  1  0  0  0  0
  3 24  1  0  0  0  0
  4  5  1  0  0  0  0
  4 13  1  0  0  0  0
  5 18  1  0  0  0  0
  5 12  1  0  0  0  0
  5  6  1  0  0  0  0
  6  7  1  0  0  0  0
  6 25  1  0  0  0  0
  6 26  1  0  0  0  0
  7 19  1  0  0  0  0
  7  8  1  0  0  0  0
  7  9  1  0  0  0  0
  8 27  1  0  0  0  0
  9 20  1  0  0  0  0
  9 10  1  0  0  0  0
  9 12  1  0  0  0  0
 10 11  1  0  0  0  0
 10 28  1  0  0  0  0
 10 29  1  0  0  0  0
 11 30  1  0  0  0  0
 13 14  2  0  0  0  0
 13 15  1  0  0  0  0
 15 16  1  0  0  0  0
 16 17  2  0  0  0  0
M  CHG  1  15  -1
M  END
> <s_m_source_file>
AV-unprocessed.smi

> <i_m_source_file_index>
55

> <i_lp_mmshare_version>
43012

> <i_f3d_flags>
0

> <s_epik_input>
Tz1jMVtuSF1jKD1PKW4oW2NIXWMxW0NIM10pW0NAQEhdMltDSDJdW0NAQEhdKFtPSF0pW0NAQEhdKE8yKVtDSDJdW09IXQ==

> <s_epik_cmdline>
J2VwaWtfcHl0aG9uJywgJy1waCcsICc3LjAnLCAnLXRuJywgJzgnLCAnLW1hJywgJzIwMCcsICctbWV0YWxfYmluZGluZycsICctaW1hZScsICc8aW5maWxlLm1hZT4nLCAnLW9tYWUnLCAnPG91dGZpbGUubWFlPic=

> <r_lp_tautomer_probability>
0.999537

> <r_epik_Ionization_Penalty>
3.66603

> <r_epik_Ionization_Penalty_Charging>
1.09773e-07

> <r_epik_Ionization_Penalty_Neutral>
3.66603

> <r_epik_State_Penalty>
3.66562

> <r_epik_Charging_Adjusted_Penalty>
3.66562

> <i_epik_Tot_Q>
-1

> <i_epik_Tot_abs_Q>
1

> <r_epik_Metal_State_Penalty>
0.234536

> <b_epik_Metal_Only>
1

> <s_epik_Chemistry_Notes>
This compound contains an acetal/aminal-like group ( X-CH(R)-Y where X, Y are N, S, or O) that may be acid/base labile, releasing an aldehyde.

> <s_lp_Force_Field>
OPLS_2005

> <r_lp_Energy>
36.1714

> <b_lp_Chiralities_Consistent>
1

> <s_lp_Variant>
AV-unprocessed.smi:55-15

> <Gold.Version>
5.8.1

> <Gold.Id.Protein>
6NUR|6NUR_protein|mol2

> <Gold.PLP.Fitness>
40.5406

> <Gold.PLP.PLP>
-26.4431

> <Gold.PLP.part.hbond>
-4.4276

> <Gold.PLP.part.metal>
0.0000

> <Gold.PLP.part.buried>
-1.4390

> <Gold.PLP.part.nonpolar>
-20.7637

> <Gold.PLP.part.repulsive>
0.9719

> <Gold.PLP.ligand.clash>
0.0000

> <Gold.PLP.ligand.torsion>
0.1519

> <Gold.PLP.Chemscore.Hbond>
3.7950

> <Gold.PLP.Chemscore.CHOScore>
1.0000

> <Gold.PLP.Chemscore.Metal>
0.0000

> <Gold.Chemscore.Hbonds>
donor molecule, donor type, donor heavy atom, donor atom, acceptor molecule, acceptor atom, score
      L1  H     8    27       P1 10175  0.42
      L1  H    11    30       P1  7948  1.00
      P1  H  7989  7998       L1    14  0.55
      P1  H  7997  8010       L1    15  1.59
      L1  C     3    24       P1  8028  1.00

> <Gold.PLP.Chemscore.Internal.Correction>
0.0163

> <Gold.Rescore>
     Score         DG    S(hbond)    S(metal)    S(lipo)     H(rot)  DE(clash)    DE(int)     intcor
      9.15     -10.96       2.26        0.00      41.13       2.69       0.28       1.54       ----

> <Gold.Chemscore.Fitness>
9.1486

> <Gold.Chemscore.DG>
-10.9648

> <Gold.Chemscore.ZeroCoef>
-5.4800

> <Gold.Chemscore.Hbond>
2.2610

> <Gold.Chemscore.Metal>
0.0000

> <Gold.Chemscore.Lipo>
41.1286

> <Gold.Chemscore.Internal_Hbond>
0.0000

> <Gold.Chemscore.DEClash>
0.2812

> <Gold.Chemscore.DEInternal>
1.5350

> <Gold.Chemscore.Rot>
2.6871

> <Gold.Chemscore.Internal.Correction>
   9.000000E+99

> <Gold.Chemscore.Hbonds>
donor molecule, donor type, donor heavy atom, donor atom, acceptor molecule, acceptor atom, score
      L1  H     8    27       P1 10175  0.41
      L1  H    11    30       P1  7948  1.00
      P1  H  7989  7998       L1    14  0.03
      P1  H  7997  8010       L1    15  0.49

> <Gold.Chemscore.Hbond.Weighted>
-7.5518

> <Gold.Chemscore.Metal.Weighted>
-0.0000

> <Gold.Chemscore.Lipo.Weighted>
-4.8120

> <Gold.Chemscore.Internal_Hbond.Weighted>
0.0000

> <Gold.Chemscore.DEClash.Weighted>
0.2812

> <Gold.Chemscore.DEInternal.Weighted>
1.5350

> <Gold.Chemscore.Rot.Weighted>
6.8791

> <Gold.Chemscore.Internal.Correction.Weighted>
   9.000000E+99

> <Gold.Protein.RotatedTorsions>
[ 6907 6896 6895 6894 ] final  -97.06 input  -60.11 | X-H torsion
[ 7974 7965 7964 7962 ] final -159.09 input  175.53 | X-H torsion
[ 8008 7997 7996 7995 ] final   71.01 input   59.86 | X-H torsion
[ 10167 10162 10161 10158 ] final   -3.74 input  -65.29 | X-H torsion
[ 10718 10713 10712 10709 ] final   -9.87 input   66.30 | X-H torsion
[ 10763 10752 10751 10750 ] final  -86.81 input  -60.55 | X-H torsion
[ 11005 11000 10999 10996 ] final  -43.56 input  -57.11 | X-H torsion

> <Gold.Protein.ActiveResidues>
 VAL166  LYS551  ARG553  GLY616  TRP617  ASP618  TYR619  PRO620  LYS621  CYS622 
 ASP623  PHE694  ASN695  SER759  ASP760  ASP761  ALA762  ILE779  LEU786  VAL792 
 PHE793  MET794  SER795  GLU796  ALA797  LYS798  CYS799  TRP800  GLU811  SER814 

> <Gold.Protein.RotatedAtoms>
  150.7005  134.1407  159.4103 H   0  0  0  0  0  0  0  0  0  0  0  0  # atno 6907 bound_to 6896
  151.9392  135.0219  160.0544 H   0  0  0  0  0  0  0  0  0  0  0  0  # atno 6908 bound_to 6896
  152.2108  133.4875  159.5146 H   0  0  0  0  0  0  0  0  0  0  0  0  # atno 6909 bound_to 6896
  144.7479  140.3735  143.6071 H   0  0  0  0  0  0  0  0  0  0  0  0  # atno 7974 bound_to 7965
  155.7475  140.3489  155.5134 H   0  0  0  0  0  0  0  0  0  0  0  0  # atno 8008 bound_to 7997
  155.9036  140.1038  157.1353 H   0  0  0  0  0  0  0  0  0  0  0  0  # atno 8009 bound_to 7997
  154.4047  140.1281  156.4454 H   0  0  0  0  0  0  0  0  0  0  0  0  # atno 8010 bound_to 7997
  140.6902  143.6504  150.8355 H   0  0  0  0  0  0  0  0  0  0  0  0  # atno 10167 bound_to 10162
  156.6818  130.5039  149.5969 H   0  0  0  0  0  0  0  0  0  0  0  0  # atno 10718 bound_to 10713
  154.6266  135.5436  153.7634 H   0  0  0  0  0  0  0  0  0  0  0  0  # atno 10763 bound_to 10752
  153.0264  135.6426  154.1362 H   0  0  0  0  0  0  0  0  0  0  0  0  # atno 10764 bound_to 10752
  154.1294  135.2915  155.3169 H   0  0  0  0  0  0  0  0  0  0  0  0  # atno 10765 bound_to 10752
  141.0392  133.6787  156.2750 H   0  0  0  0  0  0  0  0  0  0  0  0  # atno 11005 bound_to 11000
  145.7053  139.1671  143.2570 LP  0  0  0  0  0  0  0  0  0  0  0  0  # atno 17320 bound_to 7965
  146.1386  140.7088  142.9378 LP  0  0  0  0  0  0  0  0  0  0  0  0  # atno 17321 bound_to 7965
  140.0216  143.5536  152.2798 LP  0  0  0  0  0  0  0  0  0  0  0  0  # atno 17342 bound_to 10162
  139.6297  144.7642  151.2563 LP  0  0  0  0  0  0  0  0  0  0  0  0  # atno 17343 bound_to 10162
  156.1862  130.6531  151.1009 LP  0  0  0  0  0  0  0  0  0  0  0  0  # atno 17370 bound_to 10713
  157.7041  131.0764  150.6725 LP  0  0  0  0  0  0  0  0  0  0  0  0  # atno 17371 bound_to 10713
  140.6266  134.5307  157.5554 LP  0  0  0  0  0  0  0  0  0  0  0  0  # atno 17394 bound_to 11000
  139.9263  134.8050  156.1059 LP  0  0  0  0  0  0  0  0  0  0  0  0  # atno 17395 bound_to 11000

$$$$
