AV-unprocessed.smi:2061|AV-procd|sdf|8361|dock9
  -GOLD-   2272011 33D 1   1.00000     0.00000
 Structure written by MMmdl.
 45 46  0  0  0  0  0  0  0  0  1 V2000
  149.3261  132.2641  154.3574 C   0  0  0  0  0  0  0  0  0  0  0  0
  149.9830  133.2467  155.2649 C   0  0  0  0  0  0  0  0  0  0  0  0
  150.4225  134.5283  155.0853 C   0  0  0  0  0  0  0  0  0  0  0  0
  150.9391  134.8712  156.3629 C   0  0  0  0  0  0  0  0  0  0  0  0
  151.4977  136.1527  156.6024 N   0  0  0  0  0  0  0  0  0  0  0  0
  151.4186  136.8830  157.7278 C   0  0  0  0  0  0  0  0  0  0  0  0
  150.8545  136.5287  158.7633 O   0  0  0  0  0  0  0  0  0  0  0  0
  152.0329  138.0664  157.5822 N   0  0  0  0  0  0  0  0  0  0  0  0
  152.1259  139.1079  158.6032 C   0  0  0  0  0  0  0  0  0  0  0  0
  152.2214  140.5400  158.0040 C   0  0  1  0  0  0  0  0  0  0  0  0
  151.3040  140.6319  156.7574 C   0  0  0  0  0  0  0  0  0  0  0  0
  151.9461  141.6069  158.9955 N   0  0  0  0  0  0  0  0  0  0  0  0
  152.7688  141.4879  160.2043 C   0  0  0  0  0  0  0  0  0  0  0  0
  152.5008  142.6084  161.2273 C   0  0  1  0  0  0  0  0  0  0  0  0
  153.4263  142.5148  162.4450 C   0  0  0  0  0  0  0  0  0  0  0  0
  152.7118  143.8692  160.6055 O   0  0  0  0  0  0  0  0  0  0  0  0
  151.8756  144.0675  159.4731 C   0  0  1  0  0  0  0  0  0  0  0  0
  152.1604  145.4614  158.9042 C   0  0  0  0  0  0  0  0  0  0  0  0
  152.1457  142.9524  158.4455 C   0  0  0  0  0  0  0  0  0  0  0  0
  150.8269  133.8875  157.2424 N   0  0  0  0  0  0  0  0  0  0  0  0
  150.2133  132.8416  156.5433 O   0  0  0  0  0  0  0  0  0  0  0  0
  149.6597  132.4018  153.3289 H   0  0  0  0  0  0  0  0  0  0  0  0
  148.2428  132.3828  154.3817 H   0  0  0  0  0  0  0  0  0  0  0  0
  149.5613  131.2413  154.6532 H   0  0  0  0  0  0  0  0  0  0  0  0
  150.3775  135.1224  154.1846 H   0  0  0  0  0  0  0  0  0  0  0  0
  151.9980  136.5640  155.8286 H   0  0  0  0  0  0  0  0  0  0  0  0
  152.4662  138.2683  156.6933 H   0  0  0  0  0  0  0  0  0  0  0  0
  151.2964  139.0533  159.3103 H   0  0  0  0  0  0  0  0  0  0  0  0
  153.0228  138.8552  159.1651 H   0  0  0  0  0  0  0  0  0  0  0  0
  153.2463  140.6675  157.6518 H   0  0  0  0  0  0  0  0  0  0  0  0
  151.4931  139.8325  156.0426 H   0  0  0  0  0  0  0  0  0  0  0  0
  151.4583  141.5499  156.1929 H   0  0  0  0  0  0  0  0  0  0  0  0
  150.2515  140.5792  157.0375 H   0  0  0  0  0  0  0  0  0  0  0  0
  152.5700  140.5461  160.7119 H   0  0  0  0  0  0  0  0  0  0  0  0
  153.8253  141.4863  159.9317 H   0  0  0  0  0  0  0  0  0  0  0  0
  151.4661  142.5504  161.5700 H   0  0  0  0  0  0  0  0  0  0  0  0
  153.2937  141.5669  162.9673 H   0  0  0  0  0  0  0  0  0  0  0  0
  153.2190  143.3168  163.1539 H   0  0  0  0  0  0  0  0  0  0  0  0
  154.4734  142.5925  162.1512 H   0  0  0  0  0  0  0  0  0  0  0  0
  150.8320  144.0264  159.7900 H   0  0  0  0  0  0  0  0  0  0  0  0
  151.5310  145.6678  158.0384 H   0  0  0  0  0  0  0  0  0  0  0  0
  153.2011  145.5561  158.5930 H   0  0  0  0  0  0  0  0  0  0  0  0
  151.9640  146.2327  159.6491 H   0  0  0  0  0  0  0  0  0  0  0  0
  153.1635  143.0463  158.0629 H   0  0  0  0  0  0  0  0  0  0  0  0
  151.4747  143.1263  157.6065 H   0  0  0  0  0  0  0  0  0  0  0  0
  1  2  1  0  0  0  0
  1 22  1  0  0  0  0
  1 23  1  0  0  0  0
  1 24  1  0  0  0  0
  2 21  1  0  0  0  0
  2  3  2  0  0  0  0
  3  4  1  0  0  0  0
  3 25  1  0  0  0  0
  4  5  1  0  0  0  0
  4 20  2  0  0  0  0
  5  6  1  0  0  0  0
  5 26  1  0  0  0  0
  6  7  2  0  0  0  0
  6  8  1  0  0  0  0
  8  9  1  0  0  0  0
  8 27  1  0  0  0  0
  9 10  1  0  0  0  0
  9 28  1  0  0  0  0
  9 29  1  0  0  0  0
 10 11  1  0  0  0  0
 10 12  1  0  0  0  0
 10 30  1  0  0  0  0
 11 31  1  0  0  0  0
 11 32  1  0  0  0  0
 11 33  1  0  0  0  0
 12 19  1  0  0  0  0
 12 13  1  0  0  0  0
 13 14  1  0  0  0  0
 13 34  1  0  0  0  0
 13 35  1  0  0  0  0
 14 15  1  0  0  0  0
 14 16  1  0  0  0  0
 14 36  1  0  0  0  0
 15 37  1  0  0  0  0
 15 38  1  0  0  0  0
 15 39  1  0  0  0  0
 16 17  1  0  0  0  0
 17 18  1  0  0  0  0
 17 19  1  0  0  0  0
 17 40  1  0  0  0  0
 18 41  1  0  0  0  0
 18 42  1  0  0  0  0
 18 43  1  0  0  0  0
 19 44  1  0  0  0  0
 19 45  1  0  0  0  0
 20 21  1  0  0  0  0
M  END
> <s_m_source_file>
AV-unprocessed.smi

> <i_m_source_file_index>
2061

> <i_lp_mmshare_version>
43012

> <i_f3d_flags>
0

> <s_epik_input>
W0NIM11jMVtjSF1jKG5vMSlbTkhdQyg9TylbTkhdW0NIMl1bQ0BIXShbQ0gzXSlOMltDSDJdW0NAQEhdKFtDSDNdKU9bQ0BASF0oW0NIM10pW0NIMl0y

> <s_epik_cmdline>
J2VwaWtfcHl0aG9uJywgJy1waCcsICc3LjAnLCAnLXRuJywgJzgnLCAnLW1hJywgJzIwMCcsICctbWV0YWxfYmluZGluZycsICctaW1hZScsICc8aW5maWxlLm1hZT4nLCAnLW9tYWUnLCAnPG91dGZpbGUubWFlPic=

> <r_epik_Ionization_Penalty>
0.214073

> <r_epik_Ionization_Penalty_Charging>
0

> <r_epik_Ionization_Penalty_Neutral>
0.214073

> <r_epik_State_Penalty>
0.204211

> <r_epik_Charging_Adjusted_Penalty>
0.204211

> <i_epik_Tot_Q>
0

> <i_epik_Tot_abs_Q>
0

> <r_epik_Metal_State_Penalty>
0.217067

> <b_epik_Metal_Only>
0

> <s_lp_Force_Field>
OPLS_2005

> <r_lp_Energy>
26.0702

> <b_lp_Chiralities_Consistent>
1

> <s_lp_Variant>
AV-unprocessed.smi:2061-2

> <Gold.Version>
5.8.1

> <Gold.Id.Protein>
6NUR|6NUR_protein|mol2

> <Gold.PLP.Fitness>
42.6927

> <Gold.PLP.PLP>
-39.3201

> <Gold.PLP.part.hbond>
-2.0000

> <Gold.PLP.part.metal>
0.0000

> <Gold.PLP.part.buried>
-4.7055

> <Gold.PLP.part.nonpolar>
-32.0809

> <Gold.PLP.part.repulsive>
0.2696

> <Gold.PLP.ligand.clash>
0.0000

> <Gold.PLP.ligand.torsion>
0.6361

> <Gold.PLP.Chemscore.Hbond>
1.5368

> <Gold.PLP.Chemscore.CHOScore>
0.0000

> <Gold.PLP.Chemscore.Metal>
0.0000

> <Gold.Chemscore.Hbonds>
donor molecule, donor type, donor heavy atom, donor atom, acceptor molecule, acceptor atom, score
      P1  H  6896  6908       L1    20  0.59
      P1  H  6896  6909       L1     7  0.94

> <Gold.PLP.Chemscore.Internal.Correction>
0.0343

> <Gold.Rescore>
     Score         DG    S(hbond)    S(metal)    S(lipo)     H(rot)  DE(clash)    DE(int)     intcor
     18.10     -18.85       1.65        0.00     100.98       1.55       0.00       0.75       ----

> <Gold.Chemscore.Fitness>
18.0961

> <Gold.Chemscore.DG>
-18.8463

> <Gold.Chemscore.ZeroCoef>
-5.4800

> <Gold.Chemscore.Hbond>
1.6505

> <Gold.Chemscore.Metal>
0.0000

> <Gold.Chemscore.Lipo>
100.9826

> <Gold.Chemscore.Internal_Hbond>
0.0000

> <Gold.Chemscore.DEClash>
0.0000

> <Gold.Chemscore.DEInternal>
0.7502

> <Gold.Chemscore.Rot>
1.5474

> <Gold.Chemscore.Internal.Correction>
   9.000000E+99

> <Gold.Chemscore.Hbonds>
donor molecule, donor type, donor heavy atom, donor atom, acceptor molecule, acceptor atom, score
      P1  H  6896  6908       L1    20  0.51
      P1  H  6896  6909       L1     7  0.91

> <Gold.Chemscore.Hbond.Weighted>
-5.5126

> <Gold.Chemscore.Metal.Weighted>
-0.0000

> <Gold.Chemscore.Lipo.Weighted>
-11.8150

> <Gold.Chemscore.Internal_Hbond.Weighted>
0.0000

> <Gold.Chemscore.DEClash.Weighted>
0.0000

> <Gold.Chemscore.DEInternal.Weighted>
0.7502

> <Gold.Chemscore.Rot.Weighted>
3.9612

> <Gold.Chemscore.Internal.Correction.Weighted>
   9.000000E+99

> <Gold.Protein.RotatedTorsions>
[ 6907 6896 6895 6894 ] final   96.31 input  -60.11 | X-H torsion
[ 7974 7965 7964 7962 ] final   47.49 input  175.53 | X-H torsion
[ 8008 7997 7996 7995 ] final  -32.23 input   59.86 | X-H torsion
[ 10167 10162 10161 10158 ] final   -1.65 input  -65.29 | X-H torsion
[ 10718 10713 10712 10709 ] final  109.01 input   66.30 | X-H torsion
[ 10763 10752 10751 10750 ] final -125.02 input  -60.55 | X-H torsion
[ 11005 11000 10999 10996 ] final   77.88 input  -57.11 | X-H torsion

> <Gold.Protein.ActiveResidues>
 VAL166  LYS551  ARG553  GLY616  TRP617  ASP618  TYR619  PRO620  LYS621  CYS622 
 ASP623  PHE694  ASN695  SER759  ASP760  ASP761  ALA762  ILE779  LEU786  VAL792 
 PHE793  MET794  SER795  GLU796  ALA797  LYS798  CYS799  TRP800  GLU811  SER814 

> <Gold.Protein.RotatedAtoms>
  152.5436  134.0906  159.8274 H   0  0  0  0  0  0  0  0  0  0  0  0  # atno 6907 bound_to 6896
  151.0996  133.5246  159.2618 H   0  0  0  0  0  0  0  0  0  0  0  0  # atno 6908 bound_to 6896
  151.2006  135.0450  159.8925 H   0  0  0  0  0  0  0  0  0  0  0  0  # atno 6909 bound_to 6896
  146.0292  139.4743  142.9848 H   0  0  0  0  0  0  0  0  0  0  0  0  # atno 7974 bound_to 7965
  154.4187  140.1743  156.1694 H   0  0  0  0  0  0  0  0  0  0  0  0  # atno 8008 bound_to 7997
  155.9773  140.3380  155.6606 H   0  0  0  0  0  0  0  0  0  0  0  0  # atno 8009 bound_to 7997
  155.6547  140.0694  157.2565 H   0  0  0  0  0  0  0  0  0  0  0  0  # atno 8010 bound_to 7997
  140.6819  143.6750  150.8153 H   0  0  0  0  0  0  0  0  0  0  0  0  # atno 10167 bound_to 10162
  157.6561  131.0905  150.6390 H   0  0  0  0  0  0  0  0  0  0  0  0  # atno 10718 bound_to 10713
  154.8731  135.4044  154.3200 H   0  0  0  0  0  0  0  0  0  0  0  0  # atno 10763 bound_to 10752
  153.4030  135.7018  153.6418 H   0  0  0  0  0  0  0  0  0  0  0  0  # atno 10764 bound_to 10752
  153.5153  135.3698  155.2577 H   0  0  0  0  0  0  0  0  0  0  0  0  # atno 10765 bound_to 10752
  139.9236  134.7719  156.1579 H   0  0  0  0  0  0  0  0  0  0  0  0  # atno 11005 bound_to 11000
  145.7068  141.0119  143.1475 LP  0  0  0  0  0  0  0  0  0  0  0  0  # atno 17320 bound_to 7965
  144.7023  139.8709  143.7440 LP  0  0  0  0  0  0  0  0  0  0  0  0  # atno 17321 bound_to 7965
  140.0451  143.5306  152.2700 LP  0  0  0  0  0  0  0  0  0  0  0  0  # atno 17342 bound_to 10162
  139.6147  144.7617  151.2872 LP  0  0  0  0  0  0  0  0  0  0  0  0  # atno 17343 bound_to 10162
  156.6696  130.4536  149.5661 LP  0  0  0  0  0  0  0  0  0  0  0  0  # atno 17370 bound_to 10713
  156.2007  130.6618  151.1164 LP  0  0  0  0  0  0  0  0  0  0  0  0  # atno 17371 bound_to 10713
  141.0776  133.6768  156.2268 LP  0  0  0  0  0  0  0  0  0  0  0  0  # atno 17394 bound_to 11000
  140.6403  134.5173  157.5569 LP  0  0  0  0  0  0  0  0  0  0  0  0  # atno 17395 bound_to 11000

$$$$
