AV-unprocessed.smi:3336|AV-procd|sdf|12858|dock1
  -GOLD-   2272019253D 1   1.00000     0.00000
 Structure written by MMmdl.
 41 42  0  0  0  0  0  0  0  0  1 V2000
  145.6162  136.2680  150.5197 C   0  0  0  0  0  0  0  0  0  0  0  0
  145.2463  136.3585  152.0093 C   0  0  1  0  0  0  0  0  0  0  0  0
  144.8583  135.0012  152.6293 C   0  0  0  0  0  0  0  0  0  0  0  0
  144.9842  133.9011  151.6901 N   0  0  0  0  0  0  0  0  0  0  0  0
  143.9816  133.2373  151.0152 C   0  0  0  0  0  0  0  0  0  0  0  0
  144.5751  132.2770  150.2473 C   0  0  0  0  0  0  0  0  0  0  0  0
  145.9623  132.4327  150.5239 C   0  0  0  0  0  0  0  0  0  0  0  0
  146.2040  133.4040  151.3895 N   0  0  0  0  0  0  0  0  0  0  0  0
  146.4010  136.8727  152.7393 N   0  0  0  0  0  0  0  0  0  0  0  0
  146.4824  138.3443  152.7787 C   0  0  2  0  0  0  0  0  0  0  0  0
  146.7601  138.9111  151.3711 C   0  0  0  0  0  0  0  0  0  0  0  0
  147.5788  138.8122  153.7607 C   0  0  0  0  0  0  0  0  0  0  0  0
  148.2702  137.9552  154.3157 O   0  0  0  0  0  0  0  0  0  0  0  0
  147.7644  140.1365  153.9956 N   0  0  0  0  0  0  0  0  0  0  0  0
  148.6743  140.7405  154.9772 C   0  0  0  0  0  0  0  0  0  0  0  0
  147.8361  141.5093  156.0151 C   0  0  0  0  0  0  0  0  0  0  0  0
  147.0376  142.4915  155.3615 O   0  0  0  0  0  0  0  0  0  0  0  0
  146.1568  141.9337  154.3907 C   0  0  0  0  0  0  0  0  0  0  0  0
  146.9756  141.1791  153.3290 C   0  0  0  0  0  0  0  0  0  0  0  0
  144.7676  135.9388  149.9197 H   0  0  0  0  0  0  0  0  0  0  0  0
  146.4328  135.5643  150.3541 H   0  0  0  0  0  0  0  0  0  0  0  0
  145.9276  137.2383  150.1311 H   0  0  0  0  0  0  0  0  0  0  0  0
  144.3932  137.0322  152.1052 H   0  0  0  0  0  0  0  0  0  0  0  0
  145.4728  134.7903  153.5067 H   0  0  0  0  0  0  0  0  0  0  0  0
  143.8240  135.0282  152.9750 H   0  0  0  0  0  0  0  0  0  0  0  0
  142.9414  133.5018  151.1364 H   0  0  0  0  0  0  0  0  0  0  0  0
  144.0923  131.5706  149.5884 H   0  0  0  0  0  0  0  0  0  0  0  0
  146.7946  131.8717  150.1250 H   0  0  0  0  0  0  0  0  0  0  0  0
  147.2511  136.4600  152.3823 H   0  0  0  0  0  0  0  0  0  0  0  0
  145.5226  138.7018  153.1500 H   0  0  0  0  0  0  0  0  0  0  0  0
  146.8680  139.9955  151.3841 H   0  0  0  0  0  0  0  0  0  0  0  0
  145.9512  138.6827  150.6774 H   0  0  0  0  0  0  0  0  0  0  0  0
  147.6779  138.4968  150.9517 H   0  0  0  0  0  0  0  0  0  0  0  0
  149.3073  140.0291  155.5016 H   0  0  0  0  0  0  0  0  0  0  0  0
  149.3535  141.4227  154.4638 H   0  0  0  0  0  0  0  0  0  0  0  0
  147.1979  140.8290  156.5811 H   0  0  0  0  0  0  0  0  0  0  0  0
  148.4881  142.0062  156.7335 H   0  0  0  0  0  0  0  0  0  0  0  0
  145.4385  141.2694  154.8738 H   0  0  0  0  0  0  0  0  0  0  0  0
  145.5875  142.7393  153.9271 H   0  0  0  0  0  0  0  0  0  0  0  0
  147.6488  141.8674  152.8160 H   0  0  0  0  0  0  0  0  0  0  0  0
  146.3070  140.7880  152.5613 H   0  0  0  0  0  0  0  0  0  0  0  0
  1  2  1  0  0  0  0
  1 20  1  0  0  0  0
  1 21  1  0  0  0  0
  1 22  1  0  0  0  0
  2  3  1  0  0  0  0
  2  9  1  0  0  0  0
  2 23  1  0  0  0  0
  3  4  1  0  0  0  0
  3 24  1  0  0  0  0
  3 25  1  0  0  0  0
  4  8  1  0  0  0  0
  4  5  1  0  0  0  0
  5  6  2  0  0  0  0
  5 26  1  0  0  0  0
  6  7  1  0  0  0  0
  6 27  1  0  0  0  0
  7  8  2  0  0  0  0
  7 28  1  0  0  0  0
  9 10  1  0  0  0  0
  9 29  1  0  0  0  0
 10 11  1  0  0  0  0
 10 12  1  0  0  0  0
 10 30  1  0  0  0  0
 11 31  1  0  0  0  0
 11 32  1  0  0  0  0
 11 33  1  0  0  0  0
 12 13  2  0  0  0  0
 12 14  1  0  0  0  0
 14 19  1  0  0  0  0
 14 15  1  0  0  0  0
 15 16  1  0  0  0  0
 15 34  1  0  0  0  0
 15 35  1  0  0  0  0
 16 17  1  0  0  0  0
 16 36  1  0  0  0  0
 16 37  1  0  0  0  0
 17 18  1  0  0  0  0
 18 19  1  0  0  0  0
 18 38  1  0  0  0  0
 18 39  1  0  0  0  0
 19 40  1  0  0  0  0
 19 41  1  0  0  0  0
M  END
> <s_m_source_file>
AV-unprocessed.smi

> <i_m_source_file_index>
3336

> <i_lp_mmshare_version>
43012

> <i_f3d_flags>
0

> <s_epik_input>
bjFbY0hdW2NIXVtjSF1uMVtDSDJdW0NAQEhdKFtDSDNdKVtOSF1bQ0BIXShbQ0gzXSlDKD1PKU4yW0NIMl1bQ0gyXU9bQ0gyXVtDSDJdMg==

> <s_epik_cmdline>
J2VwaWtfcHl0aG9uJywgJy1waCcsICc3LjAnLCAnLXRuJywgJzgnLCAnLW1hJywgJzIwMCcsICctbWV0YWxfYmluZGluZycsICctaW1hZScsICc8aW5maWxlLm1hZT4nLCAnLW9tYWUnLCAnPG91dGZpbGUubWFlPic=

> <r_lp_tautomer_probability>
1

> <r_epik_Ionization_Penalty>
0.739958

> <r_epik_Ionization_Penalty_Charging>
0

> <r_epik_Ionization_Penalty_Neutral>
0.739958

> <r_epik_State_Penalty>
0.765967

> <r_epik_Charging_Adjusted_Penalty>
0.765967

> <i_epik_Tot_Q>
0

> <i_epik_Tot_abs_Q>
0

> <r_epik_Metal_State_Penalty>
0.765947

> <b_epik_Metal_Only>
0

> <s_lp_Force_Field>
OPLS_2005

> <r_lp_Energy>
30.7433

> <b_lp_Chiralities_Consistent>
1

> <s_lp_Variant>
AV-unprocessed.smi:3336-6

> <Gold.Version>
5.8.1

> <Gold.Id.Protein>
6NUR|6NUR_protein|mol2

> <Gold.PLP.Fitness>
37.6250

> <Gold.PLP.PLP>
-30.9764

> <Gold.PLP.part.hbond>
-1.0000

> <Gold.PLP.part.metal>
0.0000

> <Gold.PLP.part.buried>
-2.4692

> <Gold.PLP.part.nonpolar>
-30.1236

> <Gold.PLP.part.repulsive>
2.2958

> <Gold.PLP.ligand.clash>
0.0000

> <Gold.PLP.ligand.torsion>
1.3533

> <Gold.PLP.Chemscore.Hbond>
1.0000

> <Gold.PLP.Chemscore.CHOScore>
2.0000

> <Gold.PLP.Chemscore.Metal>
0.0000

> <Gold.Chemscore.Hbonds>
donor molecule, donor type, donor heavy atom, donor atom, acceptor molecule, acceptor atom, score
      L1  H     9    29       P1  7948  1.00
      L1  C     5    26       P1 10186  0.68
      L1  C     7    28       P1 10747  1.00

> <Gold.PLP.Chemscore.Internal.Correction>
0.3551

> <Gold.Rescore>
     Score         DG    S(hbond)    S(metal)    S(lipo)     H(rot)  DE(clash)    DE(int)     intcor
     11.09     -13.30       1.00        0.00      77.55       1.79       0.57       1.65       ----

> <Gold.Chemscore.Fitness>
11.0888

> <Gold.Chemscore.DG>
-13.2991

> <Gold.Chemscore.ZeroCoef>
-5.4800

> <Gold.Chemscore.Hbond>
0.9991

> <Gold.Chemscore.Metal>
0.0000

> <Gold.Chemscore.Lipo>
77.5502

> <Gold.Chemscore.Internal_Hbond>
0.0000

> <Gold.Chemscore.DEClash>
0.5653

> <Gold.Chemscore.DEInternal>
1.6451

> <Gold.Chemscore.Rot>
1.7935

> <Gold.Chemscore.Internal.Correction>
   9.000000E+99

> <Gold.Chemscore.Hbonds>
donor molecule, donor type, donor heavy atom, donor atom, acceptor molecule, acceptor atom, score
      L1  H     9    29       P1  7948  1.00

> <Gold.Chemscore.Hbond.Weighted>
-3.3369

> <Gold.Chemscore.Metal.Weighted>
-0.0000

> <Gold.Chemscore.Lipo.Weighted>
-9.0734

> <Gold.Chemscore.Internal_Hbond.Weighted>
0.0000

> <Gold.Chemscore.DEClash.Weighted>
0.5653

> <Gold.Chemscore.DEInternal.Weighted>
1.6451

> <Gold.Chemscore.Rot.Weighted>
4.5912

> <Gold.Chemscore.Internal.Correction.Weighted>
   9.000000E+99

> <Gold.Protein.RotatedTorsions>
[ 6907 6896 6895 6894 ] final -112.06 input  -60.11 | X-H torsion
[ 7974 7965 7964 7962 ] final  172.71 input  175.53 | X-H torsion
[ 8008 7997 7996 7995 ] final   46.49 input   59.86 | X-H torsion
[ 10167 10162 10161 10158 ] final  -60.21 input  -65.29 | X-H torsion
[ 10718 10713 10712 10709 ] final -112.96 input   66.30 | X-H torsion
[ 10763 10752 10751 10750 ] final   15.87 input  -60.55 | X-H torsion
[ 11005 11000 10999 10996 ] final  117.49 input  -57.11 | X-H torsion

> <Gold.Protein.ActiveResidues>
 VAL166  LYS551  ARG553  GLY616  TRP617  ASP618  TYR619  PRO620  LYS621  CYS622 
 ASP623  PHE694  ASN695  SER759  ASP760  ASP761  ALA762  ILE779  LEU786  VAL792 
 PHE793  MET794  SER795  GLU796  ALA797  LYS798  CYS799  TRP800  GLU811  SER814 

> <Gold.Protein.RotatedAtoms>
  150.7733  133.9144  159.3378 H   0  0  0  0  0  0  0  0  0  0  0  0  # atno 6907 bound_to 6896
  151.7025  135.0925  160.0263 H   0  0  0  0  0  0  0  0  0  0  0  0  # atno 6908 bound_to 6896
  152.3759  133.6442  159.6159 H   0  0  0  0  0  0  0  0  0  0  0  0  # atno 6909 bound_to 6896
  144.7261  139.9539  143.6433 H   0  0  0  0  0  0  0  0  0  0  0  0  # atno 7974 bound_to 7965
  155.3534  140.3414  155.4239 H   0  0  0  0  0  0  0  0  0  0  0  0  # atno 8008 bound_to 7997
  156.1752  140.1645  156.8411 H   0  0  0  0  0  0  0  0  0  0  0  0  # atno 8009 bound_to 7997
  154.5274  140.0753  156.8266 H   0  0  0  0  0  0  0  0  0  0  0  0  # atno 8010 bound_to 7997
  140.6086  143.2380  151.5763 H   0  0  0  0  0  0  0  0  0  0  0  0  # atno 10167 bound_to 10162
  156.0737  130.5948  150.8579 H   0  0  0  0  0  0  0  0  0  0  0  0  # atno 10718 bound_to 10713
  153.1484  135.6774  153.8919 H   0  0  0  0  0  0  0  0  0  0  0  0  # atno 10763 bound_to 10752
  153.8353  135.3112  155.3423 H   0  0  0  0  0  0  0  0  0  0  0  0  # atno 10764 bound_to 10752
  154.7843  135.4871  153.9998 H   0  0  0  0  0  0  0  0  0  0  0  0  # atno 10765 bound_to 10752
  139.9076  134.9610  156.7359 H   0  0  0  0  0  0  0  0  0  0  0  0  # atno 11005 bound_to 11000
  146.0690  139.3680  143.0534 LP  0  0  0  0  0  0  0  0  0  0  0  0  # atno 17320 bound_to 7965
  145.7993  140.9778  143.1007 LP  0  0  0  0  0  0  0  0  0  0  0  0  # atno 17321 bound_to 7965
  139.5344  144.2824  152.1218 LP  0  0  0  0  0  0  0  0  0  0  0  0  # atno 17342 bound_to 10162
  140.2019  144.4650  150.6427 LP  0  0  0  0  0  0  0  0  0  0  0  0  # atno 17343 bound_to 10162
  157.5822  131.0946  150.9253 LP  0  0  0  0  0  0  0  0  0  0  0  0  # atno 17370 bound_to 10713
  156.9446  130.5397  149.5281 LP  0  0  0  0  0  0  0  0  0  0  0  0  # atno 17371 bound_to 10713
  140.6888  133.9409  155.7954 LP  0  0  0  0  0  0  0  0  0  0  0  0  # atno 17394 bound_to 11000
  141.0457  134.0558  157.3847 LP  0  0  0  0  0  0  0  0  0  0  0  0  # atno 17395 bound_to 11000

$$$$
