AV-unprocessed.smi:2135|AV-procd|sdf|8701|dock1
  -GOLD-   2272011463D 1   1.00000     0.00000
 Structure written by MMmdl.
 43 44  0  0  0  0  0  0  0  0  2 V2000
  150.7591  141.1284  156.8579 C   0  0  0  0  0  0  0  0  0  0  0  0
  150.2575  139.6738  155.8499 S   0  0  0  0  0  0  0  0  0  0  0  0
  151.0270  139.6979  154.5964 O   0  0  0  0  0  0  0  0  0  0  0  0
  150.3039  138.4824  156.7113 O   0  0  0  0  0  0  0  0  0  0  0  0
  148.5898  139.9802  155.4575 N   0  0  0  0  0  0  0  0  0  0  0  0
  148.0910  141.3685  155.3838 C   0  0  0  0  0  0  0  0  0  0  0  0
  147.9575  141.8476  153.9276 C   0  0  0  0  0  0  0  0  0  0  0  0
  147.1086  140.8765  153.0989 C   0  0  0  0  0  0  0  0  0  0  0  0
  147.7151  139.4636  153.1718 C   0  0  2  0  0  0  0  0  0  0  0  0
  146.8855  138.4592  152.3611 C   0  0  0  0  0  0  0  0  0  0  0  0
  146.7852  138.5772  151.1392 O   0  0  0  0  0  0  0  0  0  0  0  0
  146.2897  137.4761  153.0539 N   0  0  0  0  0  0  0  0  0  0  0  0
  145.4505  136.4353  152.4729 C   0  0  0  0  0  0  0  0  0  0  0  0
  146.1544  135.0683  152.4852 C   0  0  0  0  0  0  0  0  0  0  0  0
  145.4310  134.0474  151.6295 C   0  0  0  0  0  0  0  0  0  0  0  0
  146.0297  132.8041  151.3286 C   0  0  0  0  0  0  0  0  0  0  0  0
  145.3323  131.8776  150.5254 C   0  0  0  0  0  0  0  0  0  0  0  0
  144.0523  132.2161  150.0404 C   0  0  0  0  0  0  0  0  0  0  0  0
  143.5117  133.4153  150.3492 N   0  3  0  0  0  0  0  0  0  0  0  0
  144.1467  134.3292  151.1156 C   0  0  0  0  0  0  0  0  0  0  0  0
  147.8310  139.0088  154.6435 C   0  0  0  0  0  0  0  0  0  0  0  0
  151.7974  141.0059  157.1653 H   0  0  0  0  0  0  0  0  0  0  0  0
  150.1339  141.1970  157.7464 H   0  0  0  0  0  0  0  0  0  0  0  0
  150.6719  142.0383  156.2672 H   0  0  0  0  0  0  0  0  0  0  0  0
  147.1160  141.4089  155.8708 H   0  0  0  0  0  0  0  0  0  0  0  0
  148.7427  142.0373  155.9453 H   0  0  0  0  0  0  0  0  0  0  0  0
  147.5071  142.8404  153.9083 H   0  0  0  0  0  0  0  0  0  0  0  0
  148.9420  141.9527  153.4736 H   0  0  0  0  0  0  0  0  0  0  0  0
  146.0851  140.8750  153.4776 H   0  0  0  0  0  0  0  0  0  0  0  0
  147.0603  141.2186  152.0644 H   0  0  0  0  0  0  0  0  0  0  0  0
  148.7135  139.5034  152.7364 H   0  0  0  0  0  0  0  0  0  0  0  0
  146.4245  137.4507  154.0543 H   0  0  0  0  0  0  0  0  0  0  0  0
  144.5007  136.3827  153.0080 H   0  0  0  0  0  0  0  0  0  0  0  0
  145.2138  136.7227  151.4481 H   0  0  0  0  0  0  0  0  0  0  0  0
  147.1814  135.1723  152.1318 H   0  0  0  0  0  0  0  0  0  0  0  0
  146.2188  134.6831  153.5037 H   0  0  0  0  0  0  0  0  0  0  0  0
  147.0121  132.5615  151.7071 H   0  0  0  0  0  0  0  0  0  0  0  0
  145.7733  130.9214  150.2842 H   0  0  0  0  0  0  0  0  0  0  0  0
  143.4494  131.5691  149.4198 H   0  0  0  0  0  0  0  0  0  0  0  0
  143.6129  135.2521  151.2915 H   0  0  0  0  0  0  0  0  0  0  0  0
  148.2965  138.0250  154.7045 H   0  0  0  0  0  0  0  0  0  0  0  0
  146.8379  138.9031  155.0826 H   0  0  0  0  0  0  0  0  0  0  0  0
  142.5844  133.6409  149.9882 H   0  0  0  0  0  0  0  0  0  0  0  0
  1  2  1  0  0  0  0
  1 22  1  0  0  0  0
  1 23  1  0  0  0  0
  1 24  1  0  0  0  0
  2  3  2  0  0  0  0
  2  4  2  0  0  0  0
  2  5  1  0  0  0  0
  5 21  1  0  0  0  0
  5  6  1  0  0  0  0
  6  7  1  0  0  0  0
  6 25  1  0  0  0  0
  6 26  1  0  0  0  0
  7  8  1  0  0  0  0
  7 27  1  0  0  0  0
  7 28  1  0  0  0  0
  8  9  1  0  0  0  0
  8 29  1  0  0  0  0
  8 30  1  0  0  0  0
  9 10  1  0  0  0  0
  9 21  1  0  0  0  0
  9 31  1  0  0  0  0
 10 11  2  0  0  0  0
 10 12  1  0  0  0  0
 12 13  1  0  0  0  0
 12 32  1  0  0  0  0
 13 14  1  0  0  0  0
 13 33  1  0  0  0  0
 13 34  1  0  0  0  0
 14 15  1  0  0  0  0
 14 35  1  0  0  0  0
 14 36  1  0  0  0  0
 15 20  1  0  0  0  0
 15 16  2  0  0  0  0
 16 17  1  0  0  0  0
 16 37  1  0  0  0  0
 17 18  2  0  0  0  0
 17 38  1  0  0  0  0
 18 19  1  0  0  0  0
 18 39  1  0  0  0  0
 19 20  2  0  0  0  0
 19 43  1  0  0  0  0
 20 40  1  0  0  0  0
 21 41  1  0  0  0  0
 21 42  1  0  0  0  0
M  CHG  1  19   1
M  END
> <s_m_source_file>
AV-unprocessed.smi

> <i_m_source_file_index>
2135

> <i_lp_mmshare_version>
43012

> <i_f3d_flags>
0

> <s_epik_input>
W0NIM11TKD1PKSg9TylOMVtDSDJdW0NIMl1bQ0gyXVtDQEhdKFtDSDJdMSlDKD1PKVtOSF1bQ0gyXVtDSDJdYzJbY0hdW2NIXVtjSF1uW2NIXTI=

> <s_epik_cmdline>
J2VwaWtfcHl0aG9uJywgJy1waCcsICc3LjAnLCAnLXRuJywgJzgnLCAnLW1hJywgJzIwMCcsICctbWV0YWxfYmluZGluZycsICctaW1hZScsICc8aW5maWxlLm1hZT4nLCAnLW9tYWUnLCAnPG91dGZpbGUubWFlPic=

> <r_epik_Ionization_Penalty>
2.24912

> <r_epik_Ionization_Penalty_Charging>
2.24912

> <r_epik_Ionization_Penalty_Neutral>
2.62834e-08

> <r_epik_State_Penalty>
2.39611

> <r_epik_Charging_Adjusted_Penalty>
4.64523

> <i_epik_Tot_Q>
1

> <i_epik_Tot_abs_Q>
1

> <r_epik_Metal_State_Penalty>
2.40934

> <b_epik_Metal_Only>
0

> <s_lp_Force_Field>
OPLS_2005

> <r_lp_Energy>
6.9467

> <b_lp_Chiralities_Consistent>
1

> <s_lp_Variant>
AV-unprocessed.smi:2135-4

> <Gold.Version>
5.8.1

> <Gold.Id.Protein>
6NUR|6NUR_protein|mol2

> <Gold.PLP.Fitness>
44.6135

> <Gold.PLP.PLP>
-35.5974

> <Gold.PLP.part.hbond>
-3.8347

> <Gold.PLP.part.metal>
0.0000

> <Gold.PLP.part.buried>
-1.9722

> <Gold.PLP.part.nonpolar>
-30.6386

> <Gold.PLP.part.repulsive>
0.8730

> <Gold.PLP.ligand.clash>
2.0547

> <Gold.PLP.ligand.torsion>
1.4825

> <Gold.PLP.Chemscore.Hbond>
3.9760

> <Gold.PLP.Chemscore.CHOScore>
0.0000

> <Gold.PLP.Chemscore.Metal>
0.0000

> <Gold.Chemscore.Hbonds>
donor molecule, donor type, donor heavy atom, donor atom, acceptor molecule, acceptor atom, score
      L1  H    19    43       P1 10186  2.00
      P1  H  7954  7966       L1    11  1.00
      P1  H  7989  7998       L1     3  1.00

> <Gold.PLP.Chemscore.Internal.Correction>
2.1078

> <Gold.Rescore>
     Score         DG    S(hbond)    S(metal)    S(lipo)     H(rot)  DE(clash)    DE(int)     intcor
     17.59     -19.79       2.87        0.00      76.59       1.65       0.66       1.54       ----

> <Gold.Chemscore.Fitness>
17.5876

> <Gold.Chemscore.DG>
-19.7924

> <Gold.Chemscore.ZeroCoef>
-5.4800

> <Gold.Chemscore.Hbond>
2.8698

> <Gold.Chemscore.Metal>
0.0000

> <Gold.Chemscore.Lipo>
76.5893

> <Gold.Chemscore.Internal_Hbond>
0.0000

> <Gold.Chemscore.DEClash>
0.6633

> <Gold.Chemscore.DEInternal>
1.5414

> <Gold.Chemscore.Rot>
1.6538

> <Gold.Chemscore.Internal.Correction>
   9.000000E+99

> <Gold.Chemscore.Hbonds>
donor molecule, donor type, donor heavy atom, donor atom, acceptor molecule, acceptor atom, score
      L1  H    19    43       P1 10186  1.00
      P1  H  7954  7966       L1    11  0.93
      P1  H  7989  7998       L1     3  1.00

> <Gold.Chemscore.Hbond.Weighted>
-9.5851

> <Gold.Chemscore.Metal.Weighted>
-0.0000

> <Gold.Chemscore.Lipo.Weighted>
-8.9609

> <Gold.Chemscore.Internal_Hbond.Weighted>
0.0000

> <Gold.Chemscore.DEClash.Weighted>
0.6633

> <Gold.Chemscore.DEInternal.Weighted>
1.5414

> <Gold.Chemscore.Rot.Weighted>
4.2337

> <Gold.Chemscore.Internal.Correction.Weighted>
   9.000000E+99

> <Gold.Protein.RotatedTorsions>
[ 6907 6896 6895 6894 ] final  -69.04 input  -60.11 | X-H torsion
[ 7974 7965 7964 7962 ] final  166.68 input  175.53 | X-H torsion
[ 8008 7997 7996 7995 ] final  160.16 input   59.86 | X-H torsion
[ 10167 10162 10161 10158 ] final -131.60 input  -65.29 | X-H torsion
[ 10718 10713 10712 10709 ] final  -45.53 input   66.30 | X-H torsion
[ 10763 10752 10751 10750 ] final   46.45 input  -60.55 | X-H torsion
[ 11005 11000 10999 10996 ] final   15.54 input  -57.11 | X-H torsion

> <Gold.Protein.ActiveResidues>
 VAL166  LYS551  ARG553  GLY616  TRP617  ASP618  TYR619  PRO620  LYS621  CYS622 
 ASP623  PHE694  ASN695  SER759  ASP760  ASP761  ALA762  ILE779  LEU786  VAL792 
 PHE793  MET794  SER795  GLU796  ALA797  LYS798  CYS799  TRP800  GLU811  SER814 

> <Gold.Protein.RotatedAtoms>
  150.7326  134.5654  159.5863 H   0  0  0  0  0  0  0  0  0  0  0  0  # atno 6907 bound_to 6896
  152.3107  134.7498  160.0346 H   0  0  0  0  0  0  0  0  0  0  0  0  # atno 6908 bound_to 6896
  151.8047  133.3338  159.3574 H   0  0  0  0  0  0  0  0  0  0  0  0  # atno 6909 bound_to 6896
  144.7453  139.8651  143.6384 H   0  0  0  0  0  0  0  0  0  0  0  0  # atno 7974 bound_to 7965
  156.2191  140.1812  156.7519 H   0  0  0  0  0  0  0  0  0  0  0  0  # atno 8008 bound_to 7997
  154.5837  140.0662  156.9170 H   0  0  0  0  0  0  0  0  0  0  0  0  # atno 8009 bound_to 7997
  155.2457  140.3325  155.4290 H   0  0  0  0  0  0  0  0  0  0  0  0  # atno 8010 bound_to 7997
  139.9172  143.6424  152.2562 H   0  0  0  0  0  0  0  0  0  0  0  0  # atno 10167 bound_to 10162
  156.2274  130.4170  149.8917 H   0  0  0  0  0  0  0  0  0  0  0  0  # atno 10718 bound_to 10713
  152.9811  135.6007  154.3602 H   0  0  0  0  0  0  0  0  0  0  0  0  # atno 10763 bound_to 10752
  154.3284  135.2769  155.2486 H   0  0  0  0  0  0  0  0  0  0  0  0  # atno 10764 bound_to 10752
  154.4621  135.5963  153.6318 H   0  0  0  0  0  0  0  0  0  0  0  0  # atno 10765 bound_to 10752
  140.4572  134.1164  155.7711 H   0  0  0  0  0  0  0  0  0  0  0  0  # atno 11005 bound_to 11000
  146.1320  139.4358  143.0162 LP  0  0  0  0  0  0  0  0  0  0  0  0  # atno 17320 bound_to 7965
  145.7148  141.0094  143.1434 LP  0  0  0  0  0  0  0  0  0  0  0  0  # atno 17321 bound_to 7965
  139.6892  144.7648  151.1469 LP  0  0  0  0  0  0  0  0  0  0  0  0  # atno 17342 bound_to 10162
  140.7671  143.5613  150.9095 LP  0  0  0  0  0  0  0  0  0  0  0  0  # atno 17343 bound_to 10162
  156.6542  130.8756  151.3536 LP  0  0  0  0  0  0  0  0  0  0  0  0  # atno 17370 bound_to 10713
  157.7117  130.9448  150.1112 LP  0  0  0  0  0  0  0  0  0  0  0  0  # atno 17371 bound_to 10713
  141.1638  133.8743  157.1774 LP  0  0  0  0  0  0  0  0  0  0  0  0  # atno 17394 bound_to 11000
  139.9969  135.0043  157.0102 LP  0  0  0  0  0  0  0  0  0  0  0  0  # atno 17395 bound_to 11000

$$$$
