AV-unprocessed.smi:1672|AV-procd|sdf|6705|dock2
  -GOLD-   22720 7443D 1   1.00000     0.00000
 Structure written by MMmdl.
 49 51  0  0  0  0  0  0  0  0  3 V2000
  146.0390  134.0393  154.6282 C   0  0  0  0  0  0  0  0  0  0  0  0
  147.2743  134.7575  155.1889 C   0  0  2  0  0  0  0  0  0  0  0  0
  147.2271  136.2698  154.9134 C   0  0  0  0  0  0  0  0  0  0  0  0
  148.4837  136.9746  155.4505 C   0  0  0  0  0  0  0  0  0  0  0  0
  149.7189  136.3828  154.8705 N   0  3  1  0  0  0  0  0  0  0  0  0
  150.9537  137.1112  155.2587 C   0  0  0  0  0  0  0  0  0  0  0  0
  150.7777  138.6459  155.2222 C   0  0  2  0  0  0  0  0  0  0  0  0
  151.9715  139.2366  154.7504 O   0  0  0  0  0  0  0  0  0  0  0  0
  150.4781  139.2621  156.6039 C   0  0  0  0  0  0  0  0  0  0  0  0
  150.5924  140.7291  156.6185 N   0  0  0  0  0  0  0  0  0  0  0  0
  150.0622  141.6772  155.7898 C   0  0  0  0  0  0  0  0  0  0  0  0
  149.1945  141.4567  154.5918 C   0  0  0  0  0  0  0  0  0  0  0  0
  148.8280  142.6637  153.9600 O   0  0  0  0  0  0  0  0  0  0  0  0
  150.4756  142.8912  156.2529 N   0  3  0  0  0  0  0  0  0  0  0  0
  151.2726  142.7222  157.3849 C   0  0  0  0  0  0  0  0  0  0  0  0
  151.9149  143.6533  158.1951 C   0  0  0  0  0  0  0  0  0  0  0  0
  152.6536  143.1427  159.2827 C   0  0  0  0  0  0  0  0  0  0  0  0
  152.7327  141.7569  159.5303 C   0  0  0  0  0  0  0  0  0  0  0  0
  152.0778  140.8226  158.7010 C   0  0  0  0  0  0  0  0  0  0  0  0
  151.3499  141.3359  157.6276 C   0  0  0  0  0  0  0  0  0  0  0  0
  149.8086  134.9279  155.1561 C   0  0  0  0  0  0  0  0  0  0  0  0
  148.5786  134.1792  154.6154 C   0  0  0  0  0  0  0  0  0  0  0  0
  145.9714  134.1508  153.5455 H   0  0  0  0  0  0  0  0  0  0  0  0
  145.1221  134.4398  155.0616 H   0  0  0  0  0  0  0  0  0  0  0  0
  146.0700  132.9725  154.8518 H   0  0  0  0  0  0  0  0  0  0  0  0
  147.2824  134.6085  156.2697 H   0  0  0  0  0  0  0  0  0  0  0  0
  147.1393  136.4495  153.8408 H   0  0  0  0  0  0  0  0  0  0  0  0
  146.3387  136.7050  155.3726 H   0  0  0  0  0  0  0  0  0  0  0  0
  148.4211  138.0360  155.2141 H   0  0  0  0  0  0  0  0  0  0  0  0
  148.5178  136.8979  156.5384 H   0  0  0  0  0  0  0  0  0  0  0  0
  151.2547  136.7718  156.2503 H   0  0  0  0  0  0  0  0  0  0  0  0
  151.7731  136.8440  154.5895 H   0  0  0  0  0  0  0  0  0  0  0  0
  149.9766  138.9244  154.5390 H   0  0  0  0  0  0  0  0  0  0  0  0
  152.5569  138.5571  154.4537 H   0  0  0  0  0  0  0  0  0  0  0  0
  149.4720  138.9986  156.9311 H   0  0  0  0  0  0  0  0  0  0  0  0
  151.1525  138.8610  157.3619 H   0  0  0  0  0  0  0  0  0  0  0  0
  149.7080  140.8319  153.8619 H   0  0  0  0  0  0  0  0  0  0  0  0
  148.2935  140.9248  154.8975 H   0  0  0  0  0  0  0  0  0  0  0  0
  149.1390  143.3852  154.4861 H   0  0  0  0  0  0  0  0  0  0  0  0
  151.8543  144.7156  158.0088 H   0  0  0  0  0  0  0  0  0  0  0  0
  153.1682  143.8277  159.9412 H   0  0  0  0  0  0  0  0  0  0  0  0
  153.3065  141.4035  160.3750 H   0  0  0  0  0  0  0  0  0  0  0  0
  152.1434  139.7635  158.9020 H   0  0  0  0  0  0  0  0  0  0  0  0
  150.7065  134.5161  154.6934 H   0  0  0  0  0  0  0  0  0  0  0  0
  149.9046  134.7707  156.2317 H   0  0  0  0  0  0  0  0  0  0  0  0
  148.6574  133.1196  154.8616 H   0  0  0  0  0  0  0  0  0  0  0  0
  148.5647  134.2421  153.5263 H   0  0  0  0  0  0  0  0  0  0  0  0
  149.6441  136.4629  153.8666 H   0  0  0  0  0  0  0  0  0  0  0  0
  150.2275  143.7715  155.8192 H   0  0  0  0  0  0  0  0  0  0  0  0
  1  2  1  0  0  0  0
  1 23  1  0  0  0  0
  1 24  1  0  0  0  0
  1 25  1  0  0  0  0
  2 22  1  0  0  0  0
  2  3  1  0  0  0  0
  2 26  1  0  0  0  0
  3  4  1  0  0  0  0
  3 27  1  0  0  0  0
  3 28  1  0  0  0  0
  4  5  1  0  0  0  0
  4 29  1  0  0  0  0
  4 30  1  0  0  0  0
  5  6  1  0  0  0  0
  5 21  1  0  0  0  0
  5 48  1  0  0  0  0
  6  7  1  0  0  0  0
  6 31  1  0  0  0  0
  6 32  1  0  0  0  0
  7  8  1  0  0  0  0
  7  9  1  0  0  0  0
  7 33  1  0  0  0  0
  8 34  1  0  0  0  0
  9 10  1  0  0  0  0
  9 35  1  0  0  0  0
  9 36  1  0  0  0  0
 10 20  1  0  0  0  0
 10 11  1  0  0  0  0
 11 12  1  0  0  0  0
 11 14  2  0  0  0  0
 12 13  1  0  0  0  0
 12 37  1  0  0  0  0
 12 38  1  0  0  0  0
 13 39  1  0  0  0  0
 14 15  1  0  0  0  0
 14 49  1  0  0  0  0
 15 20  2  0  0  0  0
 15 16  1  0  0  0  0
 16 17  2  0  0  0  0
 16 40  1  0  0  0  0
 17 18  1  0  0  0  0
 17 41  1  0  0  0  0
 18 19  2  0  0  0  0
 18 42  1  0  0  0  0
 19 20  1  0  0  0  0
 19 43  1  0  0  0  0
 21 22  1  0  0  0  0
 21 44  1  0  0  0  0
 21 45  1  0  0  0  0
 22 46  1  0  0  0  0
 22 47  1  0  0  0  0
M  CHG  1   5   1
M  CHG  1  14   1
M  END
> <s_m_source_file>
AV-unprocessed.smi

> <i_m_source_file_index>
1672

> <i_lp_mmshare_version>
43012

> <i_f3d_flags>
0

> <s_epik_input>
W0NIM11bQ0hdMVtDSDJdW0NIMl1OKFtDSDJdW0NIMl0xKVtDSDJdW0NASF0oW09IXSlbQ0gyXW4oYyhuMilbQ0gyXVtPSF0pYyhjMjMpW2NIXVtjSF1bY0hdW2NIXTM=

> <s_epik_cmdline>
J2VwaWtfcHl0aG9uJywgJy1waCcsICc3LjAnLCAnLXRuJywgJzgnLCAnLW1hJywgJzIwMCcsICctbWV0YWxfYmluZGluZycsICctaW1hZScsICc8aW5maWxlLm1hZT4nLCAnLW9tYWUnLCAnPG91dGZpbGUubWFlPic=

> <r_epik_Ionization_Penalty>
1.51642

> <r_epik_Ionization_Penalty_Charging>
1.51557

> <r_epik_Ionization_Penalty_Neutral>
0.000856474

> <r_epik_State_Penalty>
1.6048

> <r_epik_Charging_Adjusted_Penalty>
3.12037

> <i_epik_Tot_Q>
2

> <i_epik_Tot_abs_Q>
2

> <r_epik_Metal_State_Penalty>
5.65673

> <b_epik_Metal_Only>
0

> <s_lp_Force_Field>
OPLS_2005

> <r_lp_Energy>
31.4563

> <b_lp_Chiralities_Consistent>
1

> <s_lp_Variant>
AV-unprocessed.smi:1672-5

> <Gold.Version>
5.8.1

> <Gold.Id.Protein>
6NUR|6NUR_protein|mol2

> <Gold.PLP.Fitness>
58.2720

> <Gold.PLP.PLP>
-42.1200

> <Gold.PLP.part.hbond>
-5.4361

> <Gold.PLP.part.metal>
0.0000

> <Gold.PLP.part.buried>
-4.0425

> <Gold.PLP.part.nonpolar>
-33.2163

> <Gold.PLP.part.repulsive>
0.1536

> <Gold.PLP.ligand.clash>
0.0000

> <Gold.PLP.ligand.torsion>
0.8079

> <Gold.PLP.Chemscore.Hbond>
5.9068

> <Gold.PLP.Chemscore.CHOScore>
0.0000

> <Gold.PLP.Chemscore.Metal>
0.0000

> <Gold.Chemscore.Hbonds>
donor molecule, donor type, donor heavy atom, donor atom, acceptor molecule, acceptor atom, score
      L1  H     5    48       P1  7948  1.66
      L1  H    13    39       P1  8028  1.00
      L1  H    14    49       P1  8028  1.57
      P1  H  7989  7998       L1     8  0.86
      P1  H  8011  8017       L1    13  0.05

> <Gold.PLP.Chemscore.Internal.Correction>
0.0475

> <Gold.Rescore>
     Score         DG    S(hbond)    S(metal)    S(lipo)     H(rot)  DE(clash)    DE(int)     intcor
     20.27     -21.80       3.77        0.00      96.53       2.96       0.77       0.76       ----

> <Gold.Chemscore.Fitness>
20.2689

> <Gold.Chemscore.DG>
-21.8035

> <Gold.Chemscore.ZeroCoef>
-5.4800

> <Gold.Chemscore.Hbond>
3.7710

> <Gold.Chemscore.Metal>
0.0000

> <Gold.Chemscore.Lipo>
96.5331

> <Gold.Chemscore.Internal_Hbond>
0.0000

> <Gold.Chemscore.DEClash>
0.7733

> <Gold.Chemscore.DEInternal>
0.7613

> <Gold.Chemscore.Rot>
2.9555

> <Gold.Chemscore.Internal.Correction>
   9.000000E+99

> <Gold.Chemscore.Hbonds>
donor molecule, donor type, donor heavy atom, donor atom, acceptor molecule, acceptor atom, score
      L1  H     5    48       P1  7948  0.52
      L1  H    13    39       P1  8028  0.96
      L1  H    14    49       P1  8028  0.77
      P1  H  7989  7998       L1     8  0.66
      P1  H  8011  8017       L1    13  0.01

> <Gold.Chemscore.Hbond.Weighted>
-12.5951

> <Gold.Chemscore.Metal.Weighted>
-0.0000

> <Gold.Chemscore.Lipo.Weighted>
-11.2944

> <Gold.Chemscore.Internal_Hbond.Weighted>
0.0000

> <Gold.Chemscore.DEClash.Weighted>
0.7733

> <Gold.Chemscore.DEInternal.Weighted>
0.7613

> <Gold.Chemscore.Rot.Weighted>
7.5660

> <Gold.Chemscore.Internal.Correction.Weighted>
   9.000000E+99

> <Gold.Protein.RotatedTorsions>
[ 6907 6896 6895 6894 ] final  110.10 input  -60.11 | X-H torsion
[ 7974 7965 7964 7962 ] final  -48.89 input  175.53 | X-H torsion
[ 8008 7997 7996 7995 ] final   -5.76 input   59.86 | X-H torsion
[ 10167 10162 10161 10158 ] final  -23.61 input  -65.29 | X-H torsion
[ 10718 10713 10712 10709 ] final  -59.50 input   66.30 | X-H torsion
[ 10763 10752 10751 10750 ] final  -24.77 input  -60.55 | X-H torsion
[ 11005 11000 10999 10996 ] final -153.50 input  -57.11 | X-H torsion

> <Gold.Protein.ActiveResidues>
 VAL166  LYS551  ARG553  GLY616  TRP617  ASP618  TYR619  PRO620  LYS621  CYS622 
 ASP623  PHE694  ASN695  SER759  ASP760  ASP761  ALA762  ILE779  LEU786  VAL792 
 PHE793  MET794  SER795  GLU796  ALA797  LYS798  CYS799  TRP800  GLU811  SER814 

> <Gold.Protein.RotatedAtoms>
  152.5036  133.8849  159.7364 H   0  0  0  0  0  0  0  0  0  0  0  0  # atno 6907 bound_to 6896
  150.9302  133.6767  159.2819 H   0  0  0  0  0  0  0  0  0  0  0  0  # atno 6908 bound_to 6896
  151.4114  135.0990  159.9639 H   0  0  0  0  0  0  0  0  0  0  0  0  # atno 6909 bound_to 6896
  145.9463  140.7614  142.9527 H   0  0  0  0  0  0  0  0  0  0  0  0  # atno 7974 bound_to 7965
  154.6006  140.2450  155.7798 H   0  0  0  0  0  0  0  0  0  0  0  0  # atno 8008 bound_to 7997
  156.2308  140.2967  156.0136 H   0  0  0  0  0  0  0  0  0  0  0  0  # atno 8009 bound_to 7997
  155.2218  140.0400  157.2940 H   0  0  0  0  0  0  0  0  0  0  0  0  # atno 8010 bound_to 7997
  140.7288  143.4427  151.0633 H   0  0  0  0  0  0  0  0  0  0  0  0  # atno 10167 bound_to 10162
  156.1057  130.4180  150.0724 H   0  0  0  0  0  0  0  0  0  0  0  0  # atno 10718 bound_to 10713
  153.6891  135.6962  153.5095 H   0  0  0  0  0  0  0  0  0  0  0  0  # atno 10763 bound_to 10752
  153.2427  135.4300  155.0714 H   0  0  0  0  0  0  0  0  0  0  0  0  # atno 10764 bound_to 10752
  154.8378  135.3512  154.6432 H   0  0  0  0  0  0  0  0  0  0  0  0  # atno 10765 bound_to 10752
  140.7074  134.3870  157.5202 H   0  0  0  0  0  0  0  0  0  0  0  0  # atno 11005 bound_to 11000
  144.6788  140.2362  143.7349 LP  0  0  0  0  0  0  0  0  0  0  0  0  # atno 17320 bound_to 7965
  145.8231  139.2052  143.1926 LP  0  0  0  0  0  0  0  0  0  0  0  0  # atno 17321 bound_to 7965
  139.8096  143.7970  152.3170 LP  0  0  0  0  0  0  0  0  0  0  0  0  # atno 17342 bound_to 10162
  139.8015  144.7372  150.9819 LP  0  0  0  0  0  0  0  0  0  0  0  0  # atno 17343 bound_to 10162
  156.8700  130.9521  151.3610 LP  0  0  0  0  0  0  0  0  0  0  0  0  # atno 17370 bound_to 10713
  157.6234  130.8672  149.9147 LP  0  0  0  0  0  0  0  0  0  0  0  0  # atno 17371 bound_to 10713
  139.8880  134.8867  156.2495 LP  0  0  0  0  0  0  0  0  0  0  0  0  # atno 17394 bound_to 11000
  141.0113  133.7094  156.1116 LP  0  0  0  0  0  0  0  0  0  0  0  0  # atno 17395 bound_to 11000

$$$$
