AV-unprocessed.smi:153|AV-procd|sdf|1252|dock4
  -GOLD-   2262018483D 1   1.00000     0.00000
 Structure written by MMmdl.
 60 63  0  0  0  0  0  0  0  0  2 V2000
  152.2240  140.4495  159.4358 C   0  0  0  0  0  0  0  0  0  0  0  0
  152.5819  141.6500  158.5422 C   0  0  2  0  0  0  0  0  0  0  0  0
  153.4312  142.5511  159.2500 O   0  0  0  0  0  0  0  0  0  0  0  0
  152.7869  143.8072  159.3950 C   0  0  0  0  0  0  0  0  0  0  0  0
  151.9067  143.9111  158.1569 C   0  0  0  0  0  0  0  0  0  0  0  0
  151.3968  142.4866  157.9928 C   0  0  2  0  0  0  0  0  0  0  0  0
  150.2496  142.3349  158.8143 O   0  0  0  0  0  0  0  0  0  0  0  0
  151.0044  142.1616  156.5301 C   0  0  0  0  0  0  0  0  0  0  0  0
  150.4290  140.8358  156.3698 N   0  0  0  0  0  0  0  0  0  0  0  0
  149.0997  140.4966  156.4759 C   0  0  0  0  0  0  0  0  0  0  0  0
  148.8276  139.2422  156.2450 N   0  0  0  0  0  0  0  0  0  0  0  0
  150.0650  138.6625  155.9870 C   0  0  0  0  0  0  0  0  0  0  0  0
  150.5016  137.3528  155.6270 C   0  0  0  0  0  0  0  0  0  0  0  0
  149.6801  136.2918  155.4243 N   0  0  0  0  0  0  0  0  0  0  0  0
  148.2395  136.4861  155.5278 C   0  0  0  0  0  0  0  0  0  0  0  0
  150.1869  135.1768  154.6219 C   0  0  0  0  0  0  0  0  0  0  0  0
  149.1404  134.0640  154.3886 C   0  0  2  0  0  0  0  0  0  0  0  0
  149.1383  133.2490  155.5434 O   0  0  0  0  0  0  0  0  0  0  0  0
  149.4548  133.1675  153.1672 C   0  0  0  0  0  0  0  0  0  0  0  0
  148.2751  132.4263  152.6527 N   0  3  0  0  0  0  0  0  0  0  0  0
  147.7643  131.3974  153.5956 C   0  0  0  0  0  0  0  0  0  0  0  0
  146.5310  130.6860  153.0137 C   0  0  0  0  0  0  0  0  0  0  0  0
  145.5304  131.6433  152.6943 O   0  0  0  0  0  0  0  0  0  0  0  0
  145.9778  132.5629  151.7073 C   0  0  0  0  0  0  0  0  0  0  0  0
  147.1847  133.3469  152.2480 C   0  0  0  0  0  0  0  0  0  0  0  0
  151.8315  137.1730  155.4184 N   0  0  0  0  0  0  0  0  0  0  0  0
  152.6830  138.1924  155.5583 C   0  0  0  0  0  0  0  0  0  0  0  0
  152.4191  139.4607  155.8746 N   0  0  0  0  0  0  0  0  0  0  0  0
  151.0843  139.6537  156.0736 C   0  0  0  0  0  0  0  0  0  0  0  0
  151.5352  139.7745  158.9289 H   0  0  0  0  0  0  0  0  0  0  0  0
  151.7556  140.7689  160.3671 H   0  0  0  0  0  0  0  0  0  0  0  0
  153.1161  139.8800  159.6972 H   0  0  0  0  0  0  0  0  0  0  0  0
  153.1806  141.2879  157.7060 H   0  0  0  0  0  0  0  0  0  0  0  0
  152.1811  143.7986  160.3022 H   0  0  0  0  0  0  0  0  0  0  0  0
  153.5073  144.6216  159.4716 H   0  0  0  0  0  0  0  0  0  0  0  0
  151.1142  144.6543  158.2553 H   0  0  0  0  0  0  0  0  0  0  0  0
  152.5246  144.1946  157.3037 H   0  0  0  0  0  0  0  0  0  0  0  0
  149.8729  143.1884  158.9659 H   0  0  0  0  0  0  0  0  0  0  0  0
  150.2916  142.8968  156.1540 H   0  0  0  0  0  0  0  0  0  0  0  0
  151.8799  142.2273  155.8827 H   0  0  0  0  0  0  0  0  0  0  0  0
  148.3301  141.2172  156.7105 H   0  0  0  0  0  0  0  0  0  0  0  0
  147.9925  137.1489  156.3580 H   0  0  0  0  0  0  0  0  0  0  0  0
  147.7411  135.5328  155.7054 H   0  0  0  0  0  0  0  0  0  0  0  0
  147.8356  136.9122  154.6093 H   0  0  0  0  0  0  0  0  0  0  0  0
  150.5915  135.5217  153.6698 H   0  0  0  0  0  0  0  0  0  0  0  0
  151.0368  134.7594  155.1636 H   0  0  0  0  0  0  0  0  0  0  0  0
  148.1563  134.5223  154.3072 H   0  0  0  0  0  0  0  0  0  0  0  0
  149.5340  132.4174  155.3336 H   0  0  0  0  0  0  0  0  0  0  0  0
  149.8530  133.7488  152.3385 H   0  0  0  0  0  0  0  0  0  0  0  0
  150.2432  132.4651  153.4435 H   0  0  0  0  0  0  0  0  0  0  0  0
  148.5313  130.6543  153.8082 H   0  0  0  0  0  0  0  0  0  0  0  0
  147.5065  131.8637  154.5468 H   0  0  0  0  0  0  0  0  0  0  0  0
  146.7964  130.1083  152.1266 H   0  0  0  0  0  0  0  0  0  0  0  0
  146.1259  129.9825  153.7413 H   0  0  0  0  0  0  0  0  0  0  0  0
  146.2336  132.0353  150.7870 H   0  0  0  0  0  0  0  0  0  0  0  0
  145.1636  133.2466  151.4665 H   0  0  0  0  0  0  0  0  0  0  0  0
  146.8804  133.9527  153.1029 H   0  0  0  0  0  0  0  0  0  0  0  0
  147.5468  134.0344  151.4826 H   0  0  0  0  0  0  0  0  0  0  0  0
  153.7232  137.9607  155.3819 H   0  0  0  0  0  0  0  0  0  0  0  0
  148.5698  131.9465  151.8141 H   0  0  0  0  0  0  0  0  0  0  0  0
  1  2  1  0  0  0  0
  1 30  1  0  0  0  0
  1 31  1  0  0  0  0
  1 32  1  0  0  0  0
  2  6  1  0  0  0  0
  2  3  1  0  0  0  0
  2 33  1  0  0  0  0
  3  4  1  0  0  0  0
  4  5  1  0  0  0  0
  4 34  1  0  0  0  0
  4 35  1  0  0  0  0
  5  6  1  0  0  0  0
  5 36  1  0  0  0  0
  5 37  1  0  0  0  0
  6  7  1  0  0  0  0
  6  8  1  0  0  0  0
  7 38  1  0  0  0  0
  8  9  1  0  0  0  0
  8 39  1  0  0  0  0
  8 40  1  0  0  0  0
  9 29  1  0  0  0  0
  9 10  1  0  0  0  0
 10 11  2  0  0  0  0
 10 41  1  0  0  0  0
 11 12  1  0  0  0  0
 12 29  2  0  0  0  0
 12 13  1  0  0  0  0
 13 14  1  0  0  0  0
 13 26  2  0  0  0  0
 14 15  1  0  0  0  0
 14 16  1  0  0  0  0
 15 42  1  0  0  0  0
 15 43  1  0  0  0  0
 15 44  1  0  0  0  0
 16 17  1  0  0  0  0
 16 45  1  0  0  0  0
 16 46  1  0  0  0  0
 17 18  1  0  0  0  0
 17 19  1  0  0  0  0
 17 47  1  0  0  0  0
 18 48  1  0  0  0  0
 19 20  1  0  0  0  0
 19 49  1  0  0  0  0
 19 50  1  0  0  0  0
 20 25  1  0  0  0  0
 20 21  1  0  0  0  0
 20 60  1  0  0  0  0
 21 22  1  0  0  0  0
 21 51  1  0  0  0  0
 21 52  1  0  0  0  0
 22 23  1  0  0  0  0
 22 53  1  0  0  0  0
 22 54  1  0  0  0  0
 23 24  1  0  0  0  0
 24 25  1  0  0  0  0
 24 55  1  0  0  0  0
 24 56  1  0  0  0  0
 25 57  1  0  0  0  0
 25 58  1  0  0  0  0
 26 27  1  0  0  0  0
 27 28  2  0  0  0  0
 27 59  1  0  0  0  0
 28 29  1  0  0  0  0
M  CHG  1  20   1
M  END
> <s_m_source_file>
AV-unprocessed.smi

> <i_m_source_file_index>
153

> <i_lp_mmshare_version>
43012

> <i_f3d_flags>
0

> <s_epik_input>
W0NIMl0xW0NIMl1PW0NAQEhdKFtDSDNdKVtDQEBdMShbT0hdKVtDSDJdbihbY0hdbjIpYyhjMjMpbltjSF1uYzNOKFtDSDNdKVtDSDJdW0NASF0oW09IXSlbQ0gyXU40W0NIMl1bQ0gyXU9bQ0gyXVtDSDJdNA==

> <s_epik_cmdline>
J2VwaWtfcHl0aG9uJywgJy1waCcsICc3LjAnLCAnLXRuJywgJzgnLCAnLW1hJywgJzIwMCcsICctbWV0YWxfYmluZGluZycsICctaW1hZScsICc8aW5maWxlLm1hZT4nLCAnLW9tYWUnLCAnPG91dGZpbGUubWFlPic=

> <r_lp_tautomer_probability>
1

> <r_epik_Ionization_Penalty>
0.403509

> <r_epik_Ionization_Penalty_Charging>
0.40072

> <r_epik_Ionization_Penalty_Neutral>
0.00278876

> <r_epik_State_Penalty>
0.400058

> <r_epik_Charging_Adjusted_Penalty>
0.800778

> <i_epik_Tot_Q>
1

> <i_epik_Tot_abs_Q>
1

> <r_epik_Metal_State_Penalty>
0.400321

> <b_epik_Metal_Only>
0

> <s_lp_Force_Field>
OPLS_2005

> <r_lp_Energy>
42.6993

> <b_lp_Chiralities_Consistent>
1

> <s_lp_Variant>
AV-unprocessed.smi:153-3

> <Gold.Version>
5.8.1

> <Gold.Id.Protein>
6NUR|6NUR_protein|mol2

> <Gold.PLP.Fitness>
50.8456

> <Gold.PLP.PLP>
-43.6120

> <Gold.PLP.part.hbond>
-3.0814

> <Gold.PLP.part.metal>
0.0000

> <Gold.PLP.part.buried>
-8.4421

> <Gold.PLP.part.nonpolar>
-32.1389

> <Gold.PLP.part.repulsive>
0.2276

> <Gold.PLP.ligand.clash>
0.0000

> <Gold.PLP.ligand.torsion>
1.0611

> <Gold.PLP.Chemscore.Hbond>
2.9263

> <Gold.PLP.Chemscore.CHOScore>
0.0000

> <Gold.PLP.Chemscore.Metal>
0.0000

> <Gold.Chemscore.Hbonds>
donor molecule, donor type, donor heavy atom, donor atom, acceptor molecule, acceptor atom, score
      L1  H    20    60       P1 10747  1.00
      P1  H  7997  8009       L1    28  0.91
      P1  H 10752 10763       L1    26  0.86

> <Gold.PLP.Chemscore.Internal.Correction>
0.5770

> <Gold.Rescore>
     Score         DG    S(hbond)    S(metal)    S(lipo)     H(rot)  DE(clash)    DE(int)     intcor
     12.60     -15.19       2.00        0.00     104.98       3.62       0.21       2.38       ----

> <Gold.Chemscore.Fitness>
12.5985

> <Gold.Chemscore.DG>
-15.1851

> <Gold.Chemscore.ZeroCoef>
-5.4800

> <Gold.Chemscore.Hbond>
2.0014

> <Gold.Chemscore.Metal>
0.0000

> <Gold.Chemscore.Lipo>
104.9822

> <Gold.Chemscore.Internal_Hbond>
0.0000

> <Gold.Chemscore.DEClash>
0.2073

> <Gold.Chemscore.DEInternal>
2.3792

> <Gold.Chemscore.Rot>
3.6182

> <Gold.Chemscore.Internal.Correction>
   9.000000E+99

> <Gold.Chemscore.Hbonds>
donor molecule, donor type, donor heavy atom, donor atom, acceptor molecule, acceptor atom, score
      L1  H    20    60       P1 10747  1.00
      P1  H  7997  8009       L1    28  0.22
      P1  H 10752 10763       L1    26  0.40

> <Gold.Chemscore.Hbond.Weighted>
-6.6846

> <Gold.Chemscore.Metal.Weighted>
-0.0000

> <Gold.Chemscore.Lipo.Weighted>
-12.2829

> <Gold.Chemscore.Internal_Hbond.Weighted>
0.0000

> <Gold.Chemscore.DEClash.Weighted>
0.2073

> <Gold.Chemscore.DEInternal.Weighted>
2.3792

> <Gold.Chemscore.Rot.Weighted>
9.2625

> <Gold.Chemscore.Internal.Correction.Weighted>
   9.000000E+99

> <Gold.Protein.RotatedTorsions>
[ 6907 6896 6895 6894 ] final   40.53 input  -60.11 | X-H torsion
[ 7974 7965 7964 7962 ] final -142.94 input  175.53 | X-H torsion
[ 8008 7997 7996 7995 ] final -157.86 input   59.86 | X-H torsion
[ 10167 10162 10161 10158 ] final -130.93 input  -65.29 | X-H torsion
[ 10718 10713 10712 10709 ] final -147.29 input   66.30 | X-H torsion
[ 10763 10752 10751 10750 ] final   68.71 input  -60.55 | X-H torsion
[ 11005 11000 10999 10996 ] final -174.23 input  -57.11 | X-H torsion

> <Gold.Protein.ActiveResidues>
 VAL166  LYS551  ARG553  GLY616  TRP617  ASP618  TYR619  PRO620  LYS621  CYS622 
 ASP623  PHE694  ASN695  SER759  ASP760  ASP761  ALA762  ILE779  LEU786  VAL792 
 PHE793  MET794  SER795  GLU796  ALA797  LYS798  CYS799  TRP800  GLU811  SER814 

> <Gold.Protein.RotatedAtoms>
  152.1837  134.8732  160.0523 H   0  0  0  0  0  0  0  0  0  0  0  0  # atno 6907 bound_to 6896
  151.9647  133.3701  159.4057 H   0  0  0  0  0  0  0  0  0  0  0  0  # atno 6908 bound_to 6896
  150.6922  134.4127  159.5213 H   0  0  0  0  0  0  0  0  0  0  0  0  # atno 6909 bound_to 6896
  144.8406  140.5896  143.5455 H   0  0  0  0  0  0  0  0  0  0  0  0  # atno 7974 bound_to 7965
  155.7389  140.0811  157.2255 H   0  0  0  0  0  0  0  0  0  0  0  0  # atno 8008 bound_to 7997
  154.4024  140.1581  156.2648 H   0  0  0  0  0  0  0  0  0  0  0  0  # atno 8009 bound_to 7997
  155.9039  140.3408  155.6050 H   0  0  0  0  0  0  0  0  0  0  0  0  # atno 8010 bound_to 7997
  139.9242  143.6347  152.2546 H   0  0  0  0  0  0  0  0  0  0  0  0  # atno 10167 bound_to 10162
  156.4057  130.7956  151.2170 H   0  0  0  0  0  0  0  0  0  0  0  0  # atno 10718 bound_to 10713
  153.0249  135.5237  154.7177 H   0  0  0  0  0  0  0  0  0  0  0  0  # atno 10763 bound_to 10752
  154.6241  135.2892  155.0294 H   0  0  0  0  0  0  0  0  0  0  0  0  # atno 10764 bound_to 10752
  154.1270  135.6599  153.4967 H   0  0  0  0  0  0  0  0  0  0  0  0  # atno 10765 bound_to 10752
  140.4768  134.6113  157.4904 H   0  0  0  0  0  0  0  0  0  0  0  0  # atno 11005 bound_to 11000
  145.4702  139.1504  143.3818 LP  0  0  0  0  0  0  0  0  0  0  0  0  # atno 17320 bound_to 7965
  146.2699  140.4835  142.8819 LP  0  0  0  0  0  0  0  0  0  0  0  0  # atno 17321 bound_to 7965
  139.6836  144.7653  151.1563 LP  0  0  0  0  0  0  0  0  0  0  0  0  # atno 17342 bound_to 10162
  140.7654  143.5689  150.9017 LP  0  0  0  0  0  0  0  0  0  0  0  0  # atno 17343 bound_to 10162
  157.7505  131.0273  150.4000 LP  0  0  0  0  0  0  0  0  0  0  0  0  # atno 17370 bound_to 10713
  156.4288  130.3968  149.6774 LP  0  0  0  0  0  0  0  0  0  0  0  0  # atno 17371 bound_to 10713
  139.9851  134.7075  155.9789 LP  0  0  0  0  0  0  0  0  0  0  0  0  # atno 17394 bound_to 11000
  141.1550  133.6544  156.4134 LP  0  0  0  0  0  0  0  0  0  0  0  0  # atno 17395 bound_to 11000

$$$$
