AV-unprocessed.smi:1662|AV-procd|sdf|6659|dock5
  -GOLD-   22720 7373D 1   1.00000     0.00000
 Structure written by MMmdl.
 47 48  0  0  0  0  0  0  0  0  1 V2000
  147.0916  140.0059  155.9716 C   0  0  0  0  0  0  0  0  0  0  0  0
  147.6955  138.9834  156.8959 C   0  0  0  0  0  0  0  0  0  0  0  0
  148.9319  138.6699  156.6861 N   0  0  0  0  0  0  0  0  0  0  0  0
  149.5809  137.7376  157.4724 N   0  0  0  0  0  0  0  0  0  0  0  0
  150.9779  137.4931  157.0841 C   0  0  0  0  0  0  0  0  0  0  0  0
  151.8638  138.7440  157.1761 C   0  0  0  0  0  0  0  0  0  0  0  0
  152.6166  139.0542  156.2516 O   0  0  0  0  0  0  0  0  0  0  0  0
  151.7460  139.4635  158.3024 N   0  0  0  0  0  0  0  0  0  0  0  0
  152.4788  140.6914  158.6074 C   0  0  2  0  0  0  0  0  0  0  0  0
  153.1569  140.5497  159.9845 C   0  0  0  0  0  0  0  0  0  0  0  0
  153.9006  141.8299  160.3746 C   0  0  0  0  0  0  0  0  0  0  0  0
  152.9475  143.0293  160.3673 C   0  0  0  0  0  0  0  0  0  0  0  0
  152.2702  143.2159  158.9948 C   0  0  2  0  0  0  0  0  0  0  0  0
  151.3531  144.4524  159.0398 C   0  0  0  0  0  0  0  0  0  0  0  0
  151.5305  141.9208  158.5528 C   0  0  1  0  0  0  0  0  0  0  0  0
  150.8954  142.0686  157.1523 C   0  0  0  0  0  0  0  0  0  0  0  0
  149.0119  137.0740  158.5202 C   0  0  0  0  0  0  0  0  0  0  0  0
  149.6295  136.2498  159.1964 O   0  0  0  0  0  0  0  0  0  0  0  0
  147.6122  137.4364  158.7535 C   0  0  0  0  0  0  0  0  0  0  0  0
  146.9767  136.7624  159.8395 C   0  0  0  0  0  0  0  0  0  0  0  0
  146.4805  136.2151  160.7310 N   0  0  0  0  0  0  0  0  0  0  0  0
  146.9641  138.3502  157.9885 C   0  0  0  0  0  0  0  0  0  0  0  0
  145.5117  138.7597  158.1900 C   0  0  0  0  0  0  0  0  0  0  0  0
  146.8460  140.9190  156.5138 H   0  0  0  0  0  0  0  0  0  0  0  0
  146.1769  139.6258  155.5167 H   0  0  0  0  0  0  0  0  0  0  0  0
  147.7719  140.2750  155.1623 H   0  0  0  0  0  0  0  0  0  0  0  0
  151.4175  136.7220  157.7196 H   0  0  0  0  0  0  0  0  0  0  0  0
  151.0165  137.0920  156.0693 H   0  0  0  0  0  0  0  0  0  0  0  0
  151.0994  139.1362  159.0056 H   0  0  0  0  0  0  0  0  0  0  0  0
  153.2558  140.8356  157.8538 H   0  0  0  0  0  0  0  0  0  0  0  0
  152.4086  140.3187  160.7442 H   0  0  0  0  0  0  0  0  0  0  0  0
  153.8566  139.7132  159.9768 H   0  0  0  0  0  0  0  0  0  0  0  0
  154.3465  141.7145  161.3628 H   0  0  0  0  0  0  0  0  0  0  0  0
  154.7233  142.0062  159.6806 H   0  0  0  0  0  0  0  0  0  0  0  0
  152.1879  142.8949  161.1388 H   0  0  0  0  0  0  0  0  0  0  0  0
  153.5022  143.9290  160.6361 H   0  0  0  0  0  0  0  0  0  0  0  0
  153.0567  143.4197  158.2665 H   0  0  0  0  0  0  0  0  0  0  0  0
  150.4914  144.2835  159.6860 H   0  0  0  0  0  0  0  0  0  0  0  0
  150.9853  144.7244  158.0513 H   0  0  0  0  0  0  0  0  0  0  0  0
  151.8880  145.3214  159.4238 H   0  0  0  0  0  0  0  0  0  0  0  0
  150.7196  141.7449  159.2620 H   0  0  0  0  0  0  0  0  0  0  0  0
  151.6496  142.3024  156.4003 H   0  0  0  0  0  0  0  0  0  0  0  0
  150.1439  142.8566  157.1288 H   0  0  0  0  0  0  0  0  0  0  0  0
  150.3876  141.1577  156.8360 H   0  0  0  0  0  0  0  0  0  0  0  0
  145.0813  138.3218  159.0899 H   0  0  0  0  0  0  0  0  0  0  0  0
  144.9054  138.4372  157.3432 H   0  0  0  0  0  0  0  0  0  0  0  0
  145.4243  139.8425  158.2837 H   0  0  0  0  0  0  0  0  0  0  0  0
  1  2  1  0  0  0  0
  1 24  1  0  0  0  0
  1 25  1  0  0  0  0
  1 26  1  0  0  0  0
  2 22  1  0  0  0  0
  2  3  2  0  0  0  0
  3  4  1  0  0  0  0
  4  5  1  0  0  0  0
  4 17  1  0  0  0  0
  5  6  1  0  0  0  0
  5 27  1  0  0  0  0
  5 28  1  0  0  0  0
  6  7  2  0  0  0  0
  6  8  1  0  0  0  0
  8  9  1  0  0  0  0
  8 29  1  0  0  0  0
  9 15  1  0  0  0  0
  9 10  1  0  0  0  0
  9 30  1  0  0  0  0
 10 11  1  0  0  0  0
 10 31  1  0  0  0  0
 10 32  1  0  0  0  0
 11 12  1  0  0  0  0
 11 33  1  0  0  0  0
 11 34  1  0  0  0  0
 12 13  1  0  0  0  0
 12 35  1  0  0  0  0
 12 36  1  0  0  0  0
 13 14  1  0  0  0  0
 13 15  1  0  0  0  0
 13 37  1  0  0  0  0
 14 38  1  0  0  0  0
 14 39  1  0  0  0  0
 14 40  1  0  0  0  0
 15 16  1  0  0  0  0
 15 41  1  0  0  0  0
 16 42  1  0  0  0  0
 16 43  1  0  0  0  0
 16 44  1  0  0  0  0
 17 18  2  0  0  0  0
 17 19  1  0  0  0  0
 19 20  1  0  0  0  0
 19 22  2  0  0  0  0
 20 21  3  0  0  0  0
 22 23  1  0  0  0  0
 23 45  1  0  0  0  0
 23 46  1  0  0  0  0
 23 47  1  0  0  0  0
M  END
> <s_m_source_file>
AV-unprocessed.smi

> <i_m_source_file_index>
1662

> <i_lp_mmshare_version>
43012

> <i_f3d_flags>
0

> <s_epik_input>
TiNDYyhjMVtDSDNdKWMoPU8pbihuYzFbQ0gzXSlbQ0gyXUMoPU8pW05IXVtDQEBIXTJbQ0gyXVtDSDJdW0NIMl1bQ0BASF0oW0NIM10pW0NASF0yW0NIM10=

> <s_epik_cmdline>
J2VwaWtfcHl0aG9uJywgJy1waCcsICc3LjAnLCAnLXRuJywgJzgnLCAnLW1hJywgJzIwMCcsICctbWV0YWxfYmluZGluZycsICctaW1hZScsICc8aW5maWxlLm1hZT4nLCAnLW9tYWUnLCAnPG91dGZpbGUubWFlPic=

> <r_lp_tautomer_probability>
1

> <r_epik_Ionization_Penalty>
1.90709e-08

> <r_epik_Ionization_Penalty_Charging>
2.37982e-11

> <r_epik_Ionization_Penalty_Neutral>
1.90471e-08

> <r_epik_State_Penalty>
-0

> <r_epik_Charging_Adjusted_Penalty>
2.37982e-11

> <i_epik_Tot_Q>
0

> <i_epik_Tot_abs_Q>
0

> <r_epik_Metal_State_Penalty>
-0

> <b_epik_Metal_Only>
0

> <s_lp_Force_Field>
OPLS_2005

> <r_lp_Energy>
27.4579

> <b_lp_Chiralities_Consistent>
1

> <s_lp_Variant>
AV-unprocessed.smi:1662-3

> <Gold.Version>
5.8.1

> <Gold.Id.Protein>
6NUR|6NUR_protein|mol2

> <Gold.PLP.Fitness>
38.5154

> <Gold.PLP.PLP>
-32.9799

> <Gold.PLP.part.hbond>
-2.0000

> <Gold.PLP.part.metal>
0.0000

> <Gold.PLP.part.buried>
-5.9354

> <Gold.PLP.part.nonpolar>
-25.6122

> <Gold.PLP.part.repulsive>
0.0938

> <Gold.PLP.ligand.clash>
0.0000

> <Gold.PLP.ligand.torsion>
0.2358

> <Gold.PLP.Chemscore.Hbond>
2.0000

> <Gold.PLP.Chemscore.CHOScore>
0.0000

> <Gold.PLP.Chemscore.Metal>
0.0000

> <Gold.Chemscore.Hbonds>
donor molecule, donor type, donor heavy atom, donor atom, acceptor molecule, acceptor atom, score
      P1  H  6896  6908       L1    18  1.00
      P1  H  7997  8010       L1     7  0.84

> <Gold.PLP.Chemscore.Internal.Correction>
0.0071

> <Gold.Rescore>
     Score         DG    S(hbond)    S(metal)    S(lipo)     H(rot)  DE(clash)    DE(int)     intcor
     18.41     -18.62       1.99        0.00      87.35       1.45       0.00       0.21       ----

> <Gold.Chemscore.Fitness>
18.4115

> <Gold.Chemscore.DG>
-18.6235

> <Gold.Chemscore.ZeroCoef>
-5.4800

> <Gold.Chemscore.Hbond>
1.9869

> <Gold.Chemscore.Metal>
0.0000

> <Gold.Chemscore.Lipo>
87.3532

> <Gold.Chemscore.Internal_Hbond>
0.0000

> <Gold.Chemscore.DEClash>
0.0000

> <Gold.Chemscore.DEInternal>
0.2121

> <Gold.Chemscore.Rot>
1.4504

> <Gold.Chemscore.Internal.Correction>
   9.000000E+99

> <Gold.Chemscore.Hbonds>
donor molecule, donor type, donor heavy atom, donor atom, acceptor molecule, acceptor atom, score
      P1  H  6896  6908       L1    18  1.00
      P1  H  7997  8010       L1     7  0.77

> <Gold.Chemscore.Hbond.Weighted>
-6.6361

> <Gold.Chemscore.Metal.Weighted>
-0.0000

> <Gold.Chemscore.Lipo.Weighted>
-10.2203

> <Gold.Chemscore.Internal_Hbond.Weighted>
0.0000

> <Gold.Chemscore.DEClash.Weighted>
0.0000

> <Gold.Chemscore.DEInternal.Weighted>
0.2121

> <Gold.Chemscore.Rot.Weighted>
3.7129

> <Gold.Chemscore.Internal.Correction.Weighted>
   9.000000E+99

> <Gold.Protein.RotatedTorsions>
[ 6907 6896 6895 6894 ] final -176.13 input  -60.11 | X-H torsion
[ 7974 7965 7964 7962 ] final  -13.35 input  175.53 | X-H torsion
[ 8008 7997 7996 7995 ] final   55.41 input   59.86 | X-H torsion
[ 10167 10162 10161 10158 ] final   41.35 input  -65.29 | X-H torsion
[ 10718 10713 10712 10709 ] final  -63.29 input   66.30 | X-H torsion
[ 10763 10752 10751 10750 ] final -162.62 input  -60.55 | X-H torsion
[ 11005 11000 10999 10996 ] final   50.46 input  -57.11 | X-H torsion

> <Gold.Protein.ActiveResidues>
 VAL166  LYS551  ARG553  GLY616  TRP617  ASP618  TYR619  PRO620  LYS621  CYS622 
 ASP623  PHE694  ASN695  SER759  ASP760  ASP761  ALA762  ILE779  LEU786  VAL792 
 PHE793  MET794  SER795  GLU796  ALA797  LYS798  CYS799  TRP800  GLU811  SER814 

> <Gold.Protein.RotatedAtoms>
  151.5998  133.3357  159.3044 H   0  0  0  0  0  0  0  0  0  0  0  0  # atno 6907 bound_to 6896
  150.8214  134.7427  159.6787 H   0  0  0  0  0  0  0  0  0  0  0  0  # atno 6908 bound_to 6896
  152.4307  134.5789  159.9993 H   0  0  0  0  0  0  0  0  0  0  0  0  # atno 6909 bound_to 6896
  146.2117  140.3191  142.8389 H   0  0  0  0  0  0  0  0  0  0  0  0  # atno 7974 bound_to 7965
  155.5006  140.3474  155.4370 H   0  0  0  0  0  0  0  0  0  0  0  0  # atno 8008 bound_to 7997
  156.0916  140.1412  156.9612 H   0  0  0  0  0  0  0  0  0  0  0  0  # atno 8009 bound_to 7997
  154.4638  140.0925  156.6943 H   0  0  0  0  0  0  0  0  0  0  0  0  # atno 8010 bound_to 7997
  140.3652  144.2177  150.6136 H   0  0  0  0  0  0  0  0  0  0  0  0  # atno 10167 bound_to 10162
  156.0800  130.4219  150.1256 H   0  0  0  0  0  0  0  0  0  0  0  0  # atno 10718 bound_to 10713
  154.7197  135.3023  154.9067 H   0  0  0  0  0  0  0  0  0  0  0  0  # atno 10763 bound_to 10752
  153.9942  135.6715  153.4760 H   0  0  0  0  0  0  0  0  0  0  0  0  # atno 10764 bound_to 10752
  153.0824  135.5002  154.8445 H   0  0  0  0  0  0  0  0  0  0  0  0  # atno 10765 bound_to 10752
  140.1016  134.5074  155.8757 H   0  0  0  0  0  0  0  0  0  0  0  0  # atno 11005 bound_to 11000
  144.8933  140.7551  143.5913 LP  0  0  0  0  0  0  0  0  0  0  0  0  # atno 17320 bound_to 7965
  145.3114  139.1817  143.4636 LP  0  0  0  0  0  0  0  0  0  0  0  0  # atno 17321 bound_to 7965
  140.5088  143.2296  151.8567 LP  0  0  0  0  0  0  0  0  0  0  0  0  # atno 17342 bound_to 10162
  139.4809  144.4974  151.9105 LP  0  0  0  0  0  0  0  0  0  0  0  0  # atno 17343 bound_to 10162
  156.9290  130.9707  151.3536 LP  0  0  0  0  0  0  0  0  0  0  0  0  # atno 17370 bound_to 10713
  157.5913  130.8446  149.8663 LP  0  0  0  0  0  0  0  0  0  0  0  0  # atno 17371 bound_to 10713
  141.2107  133.6698  156.6529 LP  0  0  0  0  0  0  0  0  0  0  0  0  # atno 17394 bound_to 11000
  140.3212  134.8006  157.4254 LP  0  0  0  0  0  0  0  0  0  0  0  0  # atno 17395 bound_to 11000

$$$$
