AV-unprocessed.smi:1309|AV-procd|sdf|5444|dock2
  -GOLD-   22720 5 13D 1   1.00000     0.00000
 Structure written by MMmdl.
 41 42  0  0  0  0  0  0  0  0  1 V2000
  144.2867  144.2807  155.2090 C   0  0  0  0  0  0  0  0  0  0  0  0
  145.0714  143.2209  155.9960 C   0  0  0  0  0  0  0  0  0  0  0  0
  145.6613  143.7597  157.3076 C   0  0  0  0  0  0  0  0  0  0  0  0
  146.1045  142.5432  155.1518 C   0  0  0  0  0  0  0  0  0  0  0  0
  146.9111  141.5769  155.6007 N   0  0  0  0  0  0  0  0  0  0  0  0
  147.7815  141.0959  154.6171 C   0  0  0  0  0  0  0  0  0  0  0  0
  148.7491  139.9963  154.9451 C   0  0  0  0  0  0  0  0  0  0  0  0
  150.1002  140.5881  155.3499 C   0  0  0  0  0  0  0  0  0  0  0  0
  151.1322  140.2002  154.8028 O   0  0  0  0  0  0  0  0  0  0  0  0
  150.0812  141.5263  156.3106 N   0  0  0  0  0  0  0  0  0  0  0  0
  151.2557  142.2205  156.8342 C   0  0  0  0  0  0  0  0  0  0  0  0
  151.8763  141.5394  158.0681 C   0  0  0  0  0  0  0  0  0  0  0  0
  152.1001  140.3275  158.0555 O   0  0  0  0  0  0  0  0  0  0  0  0
  152.1477  142.3049  159.1450 N   0  0  0  0  0  0  0  0  0  0  0  0
  151.8872  143.7394  159.2611 C   0  0  0  0  0  0  0  0  0  0  0  0
  152.1202  144.0833  160.7326 C   0  0  0  0  0  0  0  0  0  0  0  0
  153.0937  143.0169  161.2146 C   0  0  0  0  0  0  0  0  0  0  0  0
  152.7485  141.7879  160.3730 C   0  0  0  0  0  0  0  0  0  0  0  0
  147.6319  141.7300  153.4084 C   0  0  0  0  0  0  0  0  0  0  0  0
  146.3806  142.9407  153.4593 S   0  0  0  0  0  0  0  0  0  0  0  0
  143.8173  143.8461  154.3258 H   0  0  0  0  0  0  0  0  0  0  0  0
  144.9378  145.0899  154.8765 H   0  0  0  0  0  0  0  0  0  0  0  0
  143.4976  144.7196  155.8203 H   0  0  0  0  0  0  0  0  0  0  0  0
  144.3516  142.4509  156.2767 H   0  0  0  0  0  0  0  0  0  0  0  0
  146.1406  142.9637  157.8785 H   0  0  0  0  0  0  0  0  0  0  0  0
  144.8859  144.1971  157.9369 H   0  0  0  0  0  0  0  0  0  0  0  0
  146.4089  144.5310  157.1188 H   0  0  0  0  0  0  0  0  0  0  0  0
  148.3681  139.3739  155.7560 H   0  0  0  0  0  0  0  0  0  0  0  0
  148.8872  139.3344  154.0890 H   0  0  0  0  0  0  0  0  0  0  0  0
  149.1889  141.7777  156.7102 H   0  0  0  0  0  0  0  0  0  0  0  0
  152.0027  142.3180  156.0448 H   0  0  0  0  0  0  0  0  0  0  0  0
  150.9520  143.2307  157.1085 H   0  0  0  0  0  0  0  0  0  0  0  0
  152.5907  144.2818  158.6279 H   0  0  0  0  0  0  0  0  0  0  0  0
  150.8748  144.0049  158.9534 H   0  0  0  0  0  0  0  0  0  0  0  0
  152.4965  145.0967  160.8755 H   0  0  0  0  0  0  0  0  0  0  0  0
  151.1819  143.9946  161.2819 H   0  0  0  0  0  0  0  0  0  0  0  0
  154.1153  143.3324  160.9988 H   0  0  0  0  0  0  0  0  0  0  0  0
  153.0211  142.8297  162.2862 H   0  0  0  0  0  0  0  0  0  0  0  0
  152.0194  141.1619  160.8896 H   0  0  0  0  0  0  0  0  0  0  0  0
  153.6343  141.1828  160.1734 H   0  0  0  0  0  0  0  0  0  0  0  0
  148.1760  141.5548  152.4922 H   0  0  0  0  0  0  0  0  0  0  0  0
  1  2  1  0  0  0  0
  1 21  1  0  0  0  0
  1 22  1  0  0  0  0
  1 23  1  0  0  0  0
  2  3  1  0  0  0  0
  2  4  1  0  0  0  0
  2 24  1  0  0  0  0
  3 25  1  0  0  0  0
  3 26  1  0  0  0  0
  3 27  1  0  0  0  0
  4 20  1  0  0  0  0
  4  5  2  0  0  0  0
  5  6  1  0  0  0  0
  6  7  1  0  0  0  0
  6 19  2  0  0  0  0
  7  8  1  0  0  0  0
  7 28  1  0  0  0  0
  7 29  1  0  0  0  0
  8  9  2  0  0  0  0
  8 10  1  0  0  0  0
 10 11  1  0  0  0  0
 10 30  1  0  0  0  0
 11 12  1  0  0  0  0
 11 31  1  0  0  0  0
 11 32  1  0  0  0  0
 12 13  2  0  0  0  0
 12 14  1  0  0  0  0
 14 18  1  0  0  0  0
 14 15  1  0  0  0  0
 15 16  1  0  0  0  0
 15 33  1  0  0  0  0
 15 34  1  0  0  0  0
 16 17  1  0  0  0  0
 16 35  1  0  0  0  0
 16 36  1  0  0  0  0
 17 18  1  0  0  0  0
 17 37  1  0  0  0  0
 17 38  1  0  0  0  0
 18 39  1  0  0  0  0
 18 40  1  0  0  0  0
 19 20  1  0  0  0  0
 19 41  1  0  0  0  0
M  END
> <s_m_source_file>
AV-unprocessed.smi

> <i_m_source_file_index>
1309

> <i_lp_mmshare_version>
43012

> <i_f3d_flags>
0

> <s_epik_input>
W0NIM11bQ0hdKFtDSDNdKWMxbmMoW2NIXXMxKVtDSDJdQyg9TylbTkhdW0NIMl1DKD1PKU4yW0NIMl1bQ0gyXVtDSDJdW0NIMl0y

> <s_epik_cmdline>
J2VwaWtfcHl0aG9uJywgJy1waCcsICc3LjAnLCAnLXRuJywgJzgnLCAnLW1hJywgJzIwMCcsICctbWV0YWxfYmluZGluZycsICctaW1hZScsICc8aW5maWxlLm1hZT4nLCAnLW9tYWUnLCAnPG91dGZpbGUubWFlPic=

> <r_lp_tautomer_probability>
1

> <r_epik_Ionization_Penalty>
2.87584e-05

> <r_epik_Ionization_Penalty_Charging>
0

> <r_epik_Ionization_Penalty_Neutral>
2.87584e-05

> <r_epik_State_Penalty>
-0

> <r_epik_Charging_Adjusted_Penalty>
0

> <i_epik_Tot_Q>
0

> <i_epik_Tot_abs_Q>
0

> <r_epik_Metal_State_Penalty>
-0

> <b_epik_Metal_Only>
0

> <s_lp_Force_Field>
OPLS_2005

> <r_lp_Energy>
16.8696

> <b_lp_Chiralities_Consistent>
1

> <s_lp_Variant>
AV-unprocessed.smi:1309-1

> <Gold.Version>
5.8.1

> <Gold.Id.Protein>
6NUR|6NUR_protein|mol2

> <Gold.PLP.Fitness>
44.1148

> <Gold.PLP.PLP>
-39.5691

> <Gold.PLP.part.hbond>
-0.9665

> <Gold.PLP.part.metal>
0.0000

> <Gold.PLP.part.buried>
-7.5785

> <Gold.PLP.part.nonpolar>
-30.1193

> <Gold.PLP.part.repulsive>
0.2133

> <Gold.PLP.ligand.clash>
0.0000

> <Gold.PLP.ligand.torsion>
0.7802

> <Gold.PLP.Chemscore.Hbond>
1.0000

> <Gold.PLP.Chemscore.CHOScore>
1.0000

> <Gold.PLP.Chemscore.Metal>
0.0000

> <Gold.Chemscore.Hbonds>
donor molecule, donor type, donor heavy atom, donor atom, acceptor molecule, acceptor atom, score
      P1  H  7989  7998       L1     9  1.00
      L1  C    19    41       P1  7957  1.00

> <Gold.PLP.Chemscore.Internal.Correction>
0.1060

> <Gold.Rescore>
     Score         DG    S(hbond)    S(metal)    S(lipo)     H(rot)  DE(clash)    DE(int)     intcor
     14.33     -15.17       1.00        0.00      91.52       1.70       0.14       0.71       ----

> <Gold.Chemscore.Fitness>
14.3273

> <Gold.Chemscore.DG>
-15.1709

> <Gold.Chemscore.ZeroCoef>
-5.4800

> <Gold.Chemscore.Hbond>
0.9978

> <Gold.Chemscore.Metal>
0.0000

> <Gold.Chemscore.Lipo>
91.5205

> <Gold.Chemscore.Internal_Hbond>
0.0000

> <Gold.Chemscore.DEClash>
0.1351

> <Gold.Chemscore.DEInternal>
0.7085

> <Gold.Chemscore.Rot>
1.6991

> <Gold.Chemscore.Internal.Correction>
   9.000000E+99

> <Gold.Chemscore.Hbonds>
donor molecule, donor type, donor heavy atom, donor atom, acceptor molecule, acceptor atom, score
      P1  H  7989  7998       L1     9  0.94

> <Gold.Chemscore.Hbond.Weighted>
-3.3327

> <Gold.Chemscore.Metal.Weighted>
-0.0000

> <Gold.Chemscore.Lipo.Weighted>
-10.7079

> <Gold.Chemscore.Internal_Hbond.Weighted>
0.0000

> <Gold.Chemscore.DEClash.Weighted>
0.1351

> <Gold.Chemscore.DEInternal.Weighted>
0.7085

> <Gold.Chemscore.Rot.Weighted>
4.3497

> <Gold.Chemscore.Internal.Correction.Weighted>
   9.000000E+99

> <Gold.Protein.RotatedTorsions>
[ 6907 6896 6895 6894 ] final  -44.43 input  -60.11 | X-H torsion
[ 7974 7965 7964 7962 ] final  160.11 input  175.53 | X-H torsion
[ 8008 7997 7996 7995 ] final  174.01 input   59.86 | X-H torsion
[ 10167 10162 10161 10158 ] final    6.65 input  -65.29 | X-H torsion
[ 10718 10713 10712 10709 ] final  -82.82 input   66.30 | X-H torsion
[ 10763 10752 10751 10750 ] final  -87.21 input  -60.55 | X-H torsion
[ 11005 11000 10999 10996 ] final  158.35 input  -57.11 | X-H torsion

> <Gold.Protein.ActiveResidues>
 VAL166  LYS551  ARG553  GLY616  TRP617  ASP618  TYR619  PRO620  LYS621  CYS622 
 ASP623  PHE694  ASN695  SER759  ASP760  ASP761  ALA762  ILE779  LEU786  VAL792 
 PHE793  MET794  SER795  GLU796  ALA797  LYS798  CYS799  TRP800  GLU811  SER814 

> <Gold.Protein.RotatedAtoms>
  150.9329  134.8743  159.7562 H   0  0  0  0  0  0  0  0  0  0  0  0  # atno 6907 bound_to 6896
  152.5046  134.4053  159.9440 H   0  0  0  0  0  0  0  0  0  0  0  0  # atno 6908 bound_to 6896
  151.4078  133.3697  159.2775 H   0  0  0  0  0  0  0  0  0  0  0  0  # atno 6909 bound_to 6896
  144.7754  139.7712  143.6281 H   0  0  0  0  0  0  0  0  0  0  0  0  # atno 7974 bound_to 7965
  156.1017  140.1445  156.9458 H   0  0  0  0  0  0  0  0  0  0  0  0  # atno 8008 bound_to 7997
  154.4707  140.0911  156.7182 H   0  0  0  0  0  0  0  0  0  0  0  0  # atno 8009 bound_to 7997
  155.4748  140.3443  155.4333 H   0  0  0  0  0  0  0  0  0  0  0  0  # atno 8010 bound_to 7997
  140.6416  143.7761  150.7436 H   0  0  0  0  0  0  0  0  0  0  0  0  # atno 10167 bound_to 10162
  156.0027  130.4646  150.4163 H   0  0  0  0  0  0  0  0  0  0  0  0  # atno 10718 bound_to 10713
  154.6310  135.5421  153.7681 H   0  0  0  0  0  0  0  0  0  0  0  0  # atno 10763 bound_to 10752
  153.0285  135.6436  154.1300 H   0  0  0  0  0  0  0  0  0  0  0  0  # atno 10764 bound_to 10752
  154.1230  135.2919  155.3184 H   0  0  0  0  0  0  0  0  0  0  0  0  # atno 10765 bound_to 10752
  140.1857  134.8444  157.2854 H   0  0  0  0  0  0  0  0  0  0  0  0  # atno 11005 bound_to 11000
  146.1930  139.5180  142.9793 LP  0  0  0  0  0  0  0  0  0  0  0  0  # atno 17320 bound_to 7965
  145.6202  141.0324  143.1919 LP  0  0  0  0  0  0  0  0  0  0  0  0  # atno 17321 bound_to 7965
  140.1394  143.4455  152.2203 LP  0  0  0  0  0  0  0  0  0  0  0  0  # atno 17342 bound_to 10162
  139.5625  144.7415  151.4115 LP  0  0  0  0  0  0  0  0  0  0  0  0  # atno 17343 bound_to 10162
  157.2223  131.0485  151.2540 LP  0  0  0  0  0  0  0  0  0  0  0  0  # atno 17370 bound_to 10713
  157.3789  130.7221  149.6616 LP  0  0  0  0  0  0  0  0  0  0  0  0  # atno 17371 bound_to 10713
  140.2217  134.4015  155.7563 LP  0  0  0  0  0  0  0  0  0  0  0  0  # atno 17394 bound_to 11000
  141.2225  133.7169  156.8500 LP  0  0  0  0  0  0  0  0  0  0  0  0  # atno 17395 bound_to 11000

$$$$
