AV-unprocessed.smi:775|AV-procd|sdf|3696|dock7
  -GOLD-   22720 1113D 1   1.00000     0.00000
 Structure written by MMmdl.
 39 40  0  0  0  0  0  0  0  0  2 V2000
  150.9017  141.2896  156.1458 C   0  0  0  0  0  0  0  0  0  0  0  0
  150.6061  142.2322  157.3280 C   0  0  1  0  0  0  0  0  0  0  0  0
  151.6258  143.3869  157.4425 C   0  0  0  0  0  0  0  0  0  0  0  0
  151.4647  144.1920  158.6431 N   0  0  0  0  0  0  0  0  0  0  0  0
  150.6248  145.2675  158.8465 C   0  0  0  0  0  0  0  0  0  0  0  0
  150.8217  145.7019  160.1255 C   0  0  0  0  0  0  0  0  0  0  0  0
  151.8077  144.8124  160.6365 C   0  0  0  0  0  0  0  0  0  0  0  0
  152.1888  143.9092  159.7475 N   0  0  0  0  0  0  0  0  0  0  0  0
  149.2313  142.7772  157.2560 N   0  3  0  0  0  0  0  0  0  0  0  0
  148.1397  141.7785  157.2657 C   0  0  0  0  0  0  0  0  0  0  0  0
  146.7511  142.4345  157.2042 C   0  0  0  0  0  0  0  0  0  0  0  0
  146.3684  143.0927  158.1735 O   0  0  0  0  0  0  0  0  0  0  0  0
  145.9909  142.2712  156.0925 N   0  0  0  0  0  0  0  0  0  0  0  0
  146.4069  141.5249  154.9005 C   0  0  0  0  0  0  0  0  0  0  0  0
  146.6196  142.5258  153.7515 C   0  0  0  0  0  0  0  0  0  0  0  0
  145.5210  143.4878  153.6461 N   0  0  0  0  0  0  0  0  0  0  0  0
  144.6031  143.7278  154.6007 C   0  0  0  0  0  0  0  0  0  0  0  0
  143.7019  144.5466  154.4377 O   0  0  0  0  0  0  0  0  0  0  0  0
  144.6960  142.9521  155.9292 C   0  0  0  0  0  0  0  0  0  0  0  0
  151.9436  140.9682  156.1573 H   0  0  0  0  0  0  0  0  0  0  0  0
  150.7143  141.7732  155.1867 H   0  0  0  0  0  0  0  0  0  0  0  0
  150.2907  140.3882  156.1861 H   0  0  0  0  0  0  0  0  0  0  0  0
  150.6816  141.6538  158.2500 H   0  0  0  0  0  0  0  0  0  0  0  0
  152.6432  142.9934  157.4288 H   0  0  0  0  0  0  0  0  0  0  0  0
  151.5439  144.0423  156.5737 H   0  0  0  0  0  0  0  0  0  0  0  0
  149.9653  145.6323  158.0725 H   0  0  0  0  0  0  0  0  0  0  0  0
  150.3328  146.5268  160.6224 H   0  0  0  0  0  0  0  0  0  0  0  0
  152.2540  144.7959  161.6199 H   0  0  0  0  0  0  0  0  0  0  0  0
  149.0937  143.3742  158.0591 H   0  0  0  0  0  0  0  0  0  0  0  0
  148.2535  141.1138  156.4093 H   0  0  0  0  0  0  0  0  0  0  0  0
  148.2135  141.1808  158.1748 H   0  0  0  0  0  0  0  0  0  0  0  0
  147.2933  140.9069  155.0327 H   0  0  0  0  0  0  0  0  0  0  0  0
  145.6073  140.8306  154.6368 H   0  0  0  0  0  0  0  0  0  0  0  0
  147.5438  143.0829  153.9096 H   0  0  0  0  0  0  0  0  0  0  0  0
  146.7264  141.9976  152.8037 H   0  0  0  0  0  0  0  0  0  0  0  0
  145.4474  144.0054  152.7818 H   0  0  0  0  0  0  0  0  0  0  0  0
  143.9041  142.2025  155.9476 H   0  0  0  0  0  0  0  0  0  0  0  0
  144.4739  143.6500  156.7379 H   0  0  0  0  0  0  0  0  0  0  0  0
  149.1481  143.3443  156.4242 H   0  0  0  0  0  0  0  0  0  0  0  0
  1  2  1  0  0  0  0
  1 20  1  0  0  0  0
  1 21  1  0  0  0  0
  1 22  1  0  0  0  0
  2  3  1  0  0  0  0
  2  9  1  0  0  0  0
  2 23  1  0  0  0  0
  3  4  1  0  0  0  0
  3 24  1  0  0  0  0
  3 25  1  0  0  0  0
  4  8  1  0  0  0  0
  4  5  1  0  0  0  0
  5  6  2  0  0  0  0
  5 26  1  0  0  0  0
  6  7  1  0  0  0  0
  6 27  1  0  0  0  0
  7  8  2  0  0  0  0
  7 28  1  0  0  0  0
  9 10  1  0  0  0  0
  9 29  1  0  0  0  0
  9 39  1  0  0  0  0
 10 11  1  0  0  0  0
 10 30  1  0  0  0  0
 10 31  1  0  0  0  0
 11 12  2  0  0  0  0
 11 13  1  0  0  0  0
 13 19  1  0  0  0  0
 13 14  1  0  0  0  0
 14 15  1  0  0  0  0
 14 32  1  0  0  0  0
 14 33  1  0  0  0  0
 15 16  1  0  0  0  0
 15 34  1  0  0  0  0
 15 35  1  0  0  0  0
 16 17  1  0  0  0  0
 16 36  1  0  0  0  0
 17 18  2  0  0  0  0
 17 19  1  0  0  0  0
 19 37  1  0  0  0  0
 19 38  1  0  0  0  0
M  CHG  1   9   1
M  END
> <s_m_source_file>
AV-unprocessed.smi

> <i_m_source_file_index>
775

> <i_lp_mmshare_version>
43012

> <i_f3d_flags>
0

> <s_epik_input>
bjFbY0hdW2NIXVtjSF1uMVtDSDJdW0NAQEhdKFtDSDNdKVtOSF1bQ0gyXUMoPU8pTjJbQ0gyXVtDSDJdW05IXUMoPU8pW0NIMl0y

> <s_epik_cmdline>
J2VwaWtfcHl0aG9uJywgJy1waCcsICc3LjAnLCAnLXRuJywgJzgnLCAnLW1hJywgJzIwMCcsICctbWV0YWxfYmluZGluZycsICctaW1hZScsICc8aW5maWxlLm1hZT4nLCAnLW9tYWUnLCAnPG91dGZpbGUubWFlPic=

> <r_lp_tautomer_probability>
1

> <r_epik_Ionization_Penalty>
0.165651

> <r_epik_Ionization_Penalty_Charging>
0.165647

> <r_epik_Ionization_Penalty_Neutral>
3.4358e-06

> <r_epik_State_Penalty>
0.15499

> <r_epik_Charging_Adjusted_Penalty>
0.320637

> <i_epik_Tot_Q>
1

> <i_epik_Tot_abs_Q>
1

> <r_epik_Metal_State_Penalty>
0.155003

> <b_epik_Metal_Only>
0

> <s_lp_Force_Field>
OPLS_2005

> <r_lp_Energy>
22.1436

> <b_lp_Chiralities_Consistent>
1

> <s_lp_Variant>
AV-unprocessed.smi:775-2

> <Gold.Version>
5.8.1

> <Gold.Id.Protein>
6NUR|6NUR_protein|mol2

> <Gold.PLP.Fitness>
44.8065

> <Gold.PLP.PLP>
-36.6662

> <Gold.PLP.part.hbond>
-0.9910

> <Gold.PLP.part.metal>
0.0000

> <Gold.PLP.part.buried>
-7.6124

> <Gold.PLP.part.nonpolar>
-28.7682

> <Gold.PLP.part.repulsive>
0.3092

> <Gold.PLP.ligand.clash>
0.0000

> <Gold.PLP.ligand.torsion>
0.4431

> <Gold.PLP.Chemscore.Hbond>
2.0000

> <Gold.PLP.Chemscore.CHOScore>
0.9989

> <Gold.PLP.Chemscore.Metal>
0.0000

> <Gold.Chemscore.Hbonds>
donor molecule, donor type, donor heavy atom, donor atom, acceptor molecule, acceptor atom, score
      L1  H     9    39       P1  8028  2.00
      L1  C     5    26       P1  8029  1.00

> <Gold.PLP.Chemscore.Internal.Correction>
0.0301

> <Gold.Rescore>
     Score         DG    S(hbond)    S(metal)    S(lipo)     H(rot)  DE(clash)    DE(int)     intcor
     10.90     -11.11       0.92        0.00      69.71       2.18       0.01       0.20       ----

> <Gold.Chemscore.Fitness>
10.9037

> <Gold.Chemscore.DG>
-11.1118

> <Gold.Chemscore.ZeroCoef>
-5.4800

> <Gold.Chemscore.Hbond>
0.9172

> <Gold.Chemscore.Metal>
0.0000

> <Gold.Chemscore.Lipo>
69.7135

> <Gold.Chemscore.Internal_Hbond>
0.0000

> <Gold.Chemscore.DEClash>
0.0111

> <Gold.Chemscore.DEInternal>
0.1970

> <Gold.Chemscore.Rot>
2.1828

> <Gold.Chemscore.Internal.Correction>
   9.000000E+99

> <Gold.Chemscore.Hbonds>
donor molecule, donor type, donor heavy atom, donor atom, acceptor molecule, acceptor atom, score
      L1  H     9    39       P1  8028  0.95

> <Gold.Chemscore.Hbond.Weighted>
-3.0633

> <Gold.Chemscore.Metal.Weighted>
-0.0000

> <Gold.Chemscore.Lipo.Weighted>
-8.1565

> <Gold.Chemscore.Internal_Hbond.Weighted>
0.0000

> <Gold.Chemscore.DEClash.Weighted>
0.0111

> <Gold.Chemscore.DEInternal.Weighted>
0.1970

> <Gold.Chemscore.Rot.Weighted>
5.5880

> <Gold.Chemscore.Internal.Correction.Weighted>
   9.000000E+99

> <Gold.Protein.RotatedTorsions>
[ 6907 6896 6895 6894 ] final  178.20 input  -60.11 | X-H torsion
[ 7974 7965 7964 7962 ] final  -60.08 input  175.53 | X-H torsion
[ 8008 7997 7996 7995 ] final   44.14 input   59.86 | X-H torsion
[ 10167 10162 10161 10158 ] final -179.96 input  -65.29 | X-H torsion
[ 10718 10713 10712 10709 ] final -109.04 input   66.30 | X-H torsion
[ 10763 10752 10751 10750 ] final  -48.49 input  -60.55 | X-H torsion
[ 11005 11000 10999 10996 ] final -130.58 input  -57.11 | X-H torsion

> <Gold.Protein.ActiveResidues>
 VAL166  LYS551  ARG553  GLY616  TRP617  ASP618  TYR619  PRO620  LYS621  CYS622 
 ASP623  PHE694  ASN695  SER759  ASP760  ASP761  ALA762  ILE779  LEU786  VAL792 
 PHE793  MET794  SER795  GLU796  ALA797  LYS798  CYS799  TRP800  GLU811  SER814 

> <Gold.Protein.RotatedAtoms>
  151.6917  133.3311  159.3244 H   0  0  0  0  0  0  0  0  0  0  0  0  # atno 6907 bound_to 6896
  150.7776  134.6693  159.6392 H   0  0  0  0  0  0  0  0  0  0  0  0  # atno 6908 bound_to 6896
  152.3823  134.6574  160.0190 H   0  0  0  0  0  0  0  0  0  0  0  0  # atno 6909 bound_to 6896
  145.8198  140.8547  143.0139 H   0  0  0  0  0  0  0  0  0  0  0  0  # atno 7974 bound_to 7965
  155.3143  140.3393  155.4243 H   0  0  0  0  0  0  0  0  0  0  0  0  # atno 8008 bound_to 7997
  156.1940  140.1708  156.8073 H   0  0  0  0  0  0  0  0  0  0  0  0  # atno 8009 bound_to 7997
  154.5476  140.0712  156.8598 H   0  0  0  0  0  0  0  0  0  0  0  0  # atno 8010 bound_to 7997
  139.5363  144.2489  152.0801 H   0  0  0  0  0  0  0  0  0  0  0  0  # atno 10167 bound_to 10162
  156.0516  130.5743  150.8045 H   0  0  0  0  0  0  0  0  0  0  0  0  # atno 10718 bound_to 10713
  154.0786  135.6594  153.4834 H   0  0  0  0  0  0  0  0  0  0  0  0  # atno 10763 bound_to 10752
  153.0364  135.5174  154.7496 H   0  0  0  0  0  0  0  0  0  0  0  0  # atno 10764 bound_to 10752
  154.6584  135.3011  154.9866 H   0  0  0  0  0  0  0  0  0  0  0  0  # atno 10765 bound_to 10752
  140.9333  134.1290  157.4215 H   0  0  0  0  0  0  0  0  0  0  0  0  # atno 11005 bound_to 11000
  144.6749  140.0516  143.7478 LP  0  0  0  0  0  0  0  0  0  0  0  0  # atno 17320 bound_to 7965
  145.9687  139.2854  143.1111 LP  0  0  0  0  0  0  0  0  0  0  0  0  # atno 17321 bound_to 7965
  140.1960  144.4705  150.6455 LP  0  0  0  0  0  0  0  0  0  0  0  0  # atno 17342 bound_to 10162
  140.6571  143.2241  151.5944 LP  0  0  0  0  0  0  0  0  0  0  0  0  # atno 17343 bound_to 10162
  157.5448  131.0942  150.9778 LP  0  0  0  0  0  0  0  0  0  0  0  0  # atno 17370 bound_to 10713
  157.0052  130.5615  149.5315 LP  0  0  0  0  0  0  0  0  0  0  0  0  # atno 17371 bound_to 10713
  139.8801  135.0012  156.6056 LP  0  0  0  0  0  0  0  0  0  0  0  0  # atno 17394 bound_to 11000
  140.7833  133.8642  155.8585 LP  0  0  0  0  0  0  0  0  0  0  0  0  # atno 17395 bound_to 11000

$$$$
