AV-unprocessed.smi:1686|AV-procd|sdf|6765|dock8
  -GOLD-   22720 7523D 1   1.00000     0.00000
 Structure written by MMmdl.
 41 43  0  0  0  0  0  0  0  0  1 V2000
  156.1365  139.4945  164.3750 C   0  0  0  0  0  0  0  0  0  0  0  0
  155.3645  138.5923  163.4558 C   0  0  0  0  0  0  0  0  0  0  0  0
  154.7675  137.5185  163.9563 N   0  0  0  0  0  0  0  0  0  0  0  0
  154.1456  136.8752  162.8801 O   0  0  0  0  0  0  0  0  0  0  0  0
  154.4057  137.6106  161.7750 C   0  0  0  0  0  0  0  0  0  0  0  0
  153.8295  137.1665  160.2173 Cl  0  0  0  0  0  0  0  0  0  0  0  0
  155.1632  138.7127  162.0489 C   0  0  0  0  0  0  0  0  0  0  0  0
  155.6693  139.7833  161.1121 C   0  0  0  0  0  0  0  0  0  0  0  0
  154.7039  140.0238  159.9453 C   0  0  0  0  0  0  0  0  0  0  0  0
  154.8181  139.4081  158.8841 O   0  0  0  0  0  0  0  0  0  0  0  0
  153.7528  140.9450  160.1650 N   0  0  0  0  0  0  0  0  0  0  0  0
  152.7255  141.3715  159.2155 C   0  0  1  0  0  0  0  0  0  0  0  0
  151.8210  140.1705  158.8995 C   0  0  0  0  0  0  0  0  0  0  0  0
  151.9382  142.5685  159.8027 C   0  0  1  0  0  0  0  0  0  0  0  0
  152.8081  143.7614  160.2643 C   0  0  0  0  0  0  0  0  0  0  0  0
  152.1155  144.9709  159.6100 C   0  0  1  0  0  0  0  0  0  0  0  0
  152.4237  144.9685  158.1016 C   0  0  0  0  0  0  0  0  0  0  0  0
  151.5675  143.7982  157.5844 C   0  0  0  0  0  0  0  0  0  0  0  0
  150.9101  143.2592  158.8718 C   0  0  2  0  0  0  0  0  0  0  0  0
  150.6491  144.5554  159.6328 C   0  0  0  0  0  0  0  0  0  0  0  0
  156.7032  140.2410  163.8188 H   0  0  0  0  0  0  0  0  0  0  0  0
  156.8468  138.9273  164.9771 H   0  0  0  0  0  0  0  0  0  0  0  0
  155.4688  140.0228  165.0556 H   0  0  0  0  0  0  0  0  0  0  0  0
  155.8157  140.7273  161.6383 H   0  0  0  0  0  0  0  0  0  0  0  0
  156.6434  139.5135  160.7030 H   0  0  0  0  0  0  0  0  0  0  0  0
  153.7421  141.3963  161.0682 H   0  0  0  0  0  0  0  0  0  0  0  0
  153.2007  141.6783  158.2838 H   0  0  0  0  0  0  0  0  0  0  0  0
  151.0780  140.4215  158.1425 H   0  0  0  0  0  0  0  0  0  0  0  0
  151.2897  139.8274  159.7878 H   0  0  0  0  0  0  0  0  0  0  0  0
  152.4035  139.3329  158.5145 H   0  0  0  0  0  0  0  0  0  0  0  0
  151.3880  142.2023  160.6720 H   0  0  0  0  0  0  0  0  0  0  0  0
  152.7987  143.8428  161.3517 H   0  0  0  0  0  0  0  0  0  0  0  0
  153.8491  143.6815  159.9494 H   0  0  0  0  0  0  0  0  0  0  0  0
  152.3364  145.9199  160.0996 H   0  0  0  0  0  0  0  0  0  0  0  0
  152.1132  145.9056  157.6378 H   0  0  0  0  0  0  0  0  0  0  0  0
  153.4857  144.8296  157.8958 H   0  0  0  0  0  0  0  0  0  0  0  0
  150.8056  144.1661  156.8961 H   0  0  0  0  0  0  0  0  0  0  0  0
  152.1501  143.0509  157.0475 H   0  0  0  0  0  0  0  0  0  0  0  0
  150.0170  142.6615  158.6877 H   0  0  0  0  0  0  0  0  0  0  0  0
  150.2592  144.3988  160.6402 H   0  0  0  0  0  0  0  0  0  0  0  0
  149.9949  145.2482  159.1003 H   0  0  0  0  0  0  0  0  0  0  0  0
  1  2  1  0  0  0  0
  1 21  1  0  0  0  0
  1 22  1  0  0  0  0
  1 23  1  0  0  0  0
  2  7  1  0  0  0  0
  2  3  2  0  0  0  0
  3  4  1  0  0  0  0
  4  5  1  0  0  0  0
  5  6  1  0  0  0  0
  5  7  2  0  0  0  0
  7  8  1  0  0  0  0
  8  9  1  0  0  0  0
  8 24  1  0  0  0  0
  8 25  1  0  0  0  0
  9 10  2  0  0  0  0
  9 11  1  0  0  0  0
 11 12  1  0  0  0  0
 11 26  1  0  0  0  0
 12 13  1  0  0  0  0
 12 14  1  0  0  0  0
 12 27  1  0  0  0  0
 13 28  1  0  0  0  0
 13 29  1  0  0  0  0
 13 30  1  0  0  0  0
 14 19  1  0  0  0  0
 14 15  1  0  0  0  0
 14 31  1  0  0  0  0
 15 16  1  0  0  0  0
 15 32  1  0  0  0  0
 15 33  1  0  0  0  0
 16 20  1  0  0  0  0
 16 17  1  0  0  0  0
 16 34  1  0  0  0  0
 17 18  1  0  0  0  0
 17 35  1  0  0  0  0
 17 36  1  0  0  0  0
 18 19  1  0  0  0  0
 18 37  1  0  0  0  0
 18 38  1  0  0  0  0
 19 20  1  0  0  0  0
 19 39  1  0  0  0  0
 20 40  1  0  0  0  0
 20 41  1  0  0  0  0
M  END
> <s_m_source_file>
AV-unprocessed.smi

> <i_m_source_file_index>
1686

> <i_lp_mmshare_version>
43012

> <i_f3d_flags>
0

> <s_epik_input>
W0NIM11jMW5vYyhDbCljMVtDSDJdQyg9TylbTkhdW0NASF0oW0NIM10pW0NASF0oW0NIMl1bQ0BIXTIzKVtDQEhdKFtDSDJdMylbQ0gyXVtDSDJdMg==

> <s_epik_cmdline>
J2VwaWtfcHl0aG9uJywgJy1waCcsICc3LjAnLCAnLXRuJywgJzgnLCAnLW1hJywgJzIwMCcsICctbWV0YWxfYmluZGluZycsICctaW1hZScsICc8aW5maWxlLm1hZT4nLCAnLW9tYWUnLCAnPG91dGZpbGUubWFlPic=

> <r_lp_tautomer_probability>
1

> <r_epik_Ionization_Penalty>
2.01576e-08

> <r_epik_Ionization_Penalty_Charging>
0

> <r_epik_Ionization_Penalty_Neutral>
2.01576e-08

> <r_epik_State_Penalty>
-0

> <r_epik_Charging_Adjusted_Penalty>
0

> <i_epik_Tot_Q>
0

> <i_epik_Tot_abs_Q>
0

> <r_epik_Metal_State_Penalty>
-0

> <b_epik_Metal_Only>
0

> <s_lp_Force_Field>
OPLS_2005

> <r_lp_Energy>
47.064

> <b_lp_Chiralities_Consistent>
1

> <s_lp_Variant>
AV-unprocessed.smi:1686-8

> <Gold.Version>
5.8.1

> <Gold.Id.Protein>
6NUR|6NUR_protein|mol2

> <Gold.PLP.Fitness>
42.8408

> <Gold.PLP.PLP>
-41.4593

> <Gold.PLP.part.hbond>
-1.0000

> <Gold.PLP.part.metal>
0.0000

> <Gold.PLP.part.buried>
-6.9546

> <Gold.PLP.part.nonpolar>
-32.8876

> <Gold.PLP.part.repulsive>
0.1038

> <Gold.PLP.ligand.clash>
0.0000

> <Gold.PLP.ligand.torsion>
0.8135

> <Gold.PLP.Chemscore.Hbond>
1.0000

> <Gold.PLP.Chemscore.CHOScore>
0.0000

> <Gold.PLP.Chemscore.Metal>
0.0000

> <Gold.Chemscore.Hbonds>
donor molecule, donor type, donor heavy atom, donor atom, acceptor molecule, acceptor atom, score
      P1  H  7997  8008       L1    10  1.00

> <Gold.PLP.Chemscore.Internal.Correction>
0.0084

> <Gold.Rescore>
     Score         DG    S(hbond)    S(metal)    S(lipo)     H(rot)  DE(clash)    DE(int)     intcor
     18.74     -20.51       1.00        0.00     132.07       1.46       0.09       1.68       ----

> <Gold.Chemscore.Fitness>
18.7441

> <Gold.Chemscore.DG>
-20.5124

> <Gold.Chemscore.ZeroCoef>
-5.4800

> <Gold.Chemscore.Hbond>
0.9971

> <Gold.Chemscore.Metal>
0.0000

> <Gold.Chemscore.Lipo>
132.0703

> <Gold.Chemscore.Internal_Hbond>
0.0000

> <Gold.Chemscore.DEClash>
0.0869

> <Gold.Chemscore.DEInternal>
1.6814

> <Gold.Chemscore.Rot>
1.4648

> <Gold.Chemscore.Internal.Correction>
   9.000000E+99

> <Gold.Chemscore.Hbonds>
donor molecule, donor type, donor heavy atom, donor atom, acceptor molecule, acceptor atom, score
      P1  H  7997  8008       L1    10  1.00

> <Gold.Chemscore.Hbond.Weighted>
-3.3302

> <Gold.Chemscore.Metal.Weighted>
-0.0000

> <Gold.Chemscore.Lipo.Weighted>
-15.4522

> <Gold.Chemscore.Internal_Hbond.Weighted>
0.0000

> <Gold.Chemscore.DEClash.Weighted>
0.0869

> <Gold.Chemscore.DEInternal.Weighted>
1.6814

> <Gold.Chemscore.Rot.Weighted>
3.7500

> <Gold.Chemscore.Internal.Correction.Weighted>
   9.000000E+99

> <Gold.Protein.RotatedTorsions>
[ 6907 6896 6895 6894 ] final -176.15 input  -60.11 | X-H torsion
[ 7974 7965 7964 7962 ] final  101.57 input  175.53 | X-H torsion
[ 8008 7997 7996 7995 ] final -131.48 input   59.86 | X-H torsion
[ 10167 10162 10161 10158 ] final   44.58 input  -65.29 | X-H torsion
[ 10718 10713 10712 10709 ] final -147.32 input   66.30 | X-H torsion
[ 10763 10752 10751 10750 ] final  -22.92 input  -60.55 | X-H torsion
[ 11005 11000 10999 10996 ] final   28.14 input  -57.11 | X-H torsion

> <Gold.Protein.ActiveResidues>
 VAL166  LYS551  ARG553  GLY616  TRP617  ASP618  TYR619  PRO620  LYS621  CYS622 
 ASP623  PHE694  ASN695  SER759  ASP760  ASP761  ALA762  ILE779  LEU786  VAL792 
 PHE793  MET794  SER795  GLU796  ALA797  LYS798  CYS799  TRP800  GLU811  SER814 

> <Gold.Protein.RotatedAtoms>
  151.6001  133.3357  159.3045 H   0  0  0  0  0  0  0  0  0  0  0  0  # atno 6907 bound_to 6896
  150.8212  134.7425  159.6785 H   0  0  0  0  0  0  0  0  0  0  0  0  # atno 6908 bound_to 6896
  152.4306  134.5791  159.9994 H   0  0  0  0  0  0  0  0  0  0  0  0  # atno 6909 bound_to 6896
  145.3706  139.2399  143.3457 H   0  0  0  0  0  0  0  0  0  0  0  0  # atno 7974 bound_to 7965
  155.3130  140.0458  157.3036 H   0  0  0  0  0  0  0  0  0  0  0  0  # atno 8008 bound_to 7997
  154.5422  140.2291  155.8588 H   0  0  0  0  0  0  0  0  0  0  0  0  # atno 8009 bound_to 7997
  156.1891  140.3055  155.9304 H   0  0  0  0  0  0  0  0  0  0  0  0  # atno 8010 bound_to 7997
  140.3329  144.2566  150.6165 H   0  0  0  0  0  0  0  0  0  0  0  0  # atno 10167 bound_to 10162
  156.4060  130.7958  151.2172 H   0  0  0  0  0  0  0  0  0  0  0  0  # atno 10718 bound_to 10713
  153.6595  135.6977  153.5182 H   0  0  0  0  0  0  0  0  0  0  0  0  # atno 10763 bound_to 10752
  153.2642  135.4235  155.0924 H   0  0  0  0  0  0  0  0  0  0  0  0  # atno 10764 bound_to 10752
  154.8455  135.3562  154.6140 H   0  0  0  0  0  0  0  0  0  0  0  0  # atno 10765 bound_to 10752
  140.3188  134.2567  155.7721 H   0  0  0  0  0  0  0  0  0  0  0  0  # atno 11005 bound_to 11000
  146.2887  140.4357  142.8748 LP  0  0  0  0  0  0  0  0  0  0  0  0  # atno 17320 bound_to 7965
  144.8579  140.7097  143.6126 LP  0  0  0  0  0  0  0  0  0  0  0  0  # atno 17321 bound_to 7965
  140.5381  143.2229  151.8130 LP  0  0  0  0  0  0  0  0  0  0  0  0  # atno 17342 bound_to 10162
  139.4853  144.4636  151.9511 LP  0  0  0  0  0  0  0  0  0  0  0  0  # atno 17343 bound_to 10162
  157.7505  131.0272  150.3995 LP  0  0  0  0  0  0  0  0  0  0  0  0  # atno 17370 bound_to 10713
  156.4284  130.3967  149.6777 LP  0  0  0  0  0  0  0  0  0  0  0  0  # atno 17371 bound_to 10713
  141.2091  133.7757  157.0015 LP  0  0  0  0  0  0  0  0  0  0  0  0  # atno 17394 bound_to 11000
  140.0960  134.9564  157.1850 LP  0  0  0  0  0  0  0  0  0  0  0  0  # atno 17395 bound_to 11000

$$$$
