AV-unprocessed.smi:826|AV-procd|sdf|3853|dock1
  -GOLD-   22720 1303D 1   1.00000     0.00000
 Structure written by MMmdl.
 39 40  0  0  0  0  0  0  0  0  1 V2000
  146.9561  134.0199  162.4919 C   0  0  0  0  0  0  0  0  0  0  0  0
  147.4147  135.1004  161.5735 C   0  0  0  0  0  0  0  0  0  0  0  0
  147.5538  136.3708  161.9707 N   0  0  0  0  0  0  0  0  0  0  0  0
  147.9887  137.1981  160.9448 N   0  0  0  0  0  0  0  0  0  0  0  0
  148.1654  136.5241  159.7999 C   0  0  0  0  0  0  0  0  0  0  0  0
  148.5968  137.1262  158.5884 N   0  0  0  0  0  0  0  0  0  0  0  0
  149.6129  137.9867  158.4026 C   0  0  0  0  0  0  0  0  0  0  0  0
  150.3896  138.3721  159.2772 O   0  0  0  0  0  0  0  0  0  0  0  0
  149.6828  138.3884  157.1241 N   0  0  0  0  0  0  0  0  0  0  0  0
  150.6466  139.3545  156.5983 C   0  0  1  0  0  0  0  0  0  0  0  0
  150.5673  139.3260  155.0630 C   0  0  0  0  0  0  0  0  0  0  0  0
  150.3000  140.7725  157.0793 C   0  0  0  0  0  0  0  0  0  0  0  0
  149.2125  141.2800  156.8002 O   0  0  0  0  0  0  0  0  0  0  0  0
  151.2405  141.3985  157.8024 N   0  0  0  0  0  0  0  0  0  0  0  0
  151.1050  142.7312  158.3830 C   0  0  0  0  0  0  0  0  0  0  0  0
  151.6186  143.8082  157.4082 C   0  0  0  0  0  0  0  0  0  0  0  0
  152.5422  144.7137  158.2248 C   0  0  0  0  0  0  0  0  0  0  0  0
  153.1160  143.7959  159.2991 C   0  0  0  0  0  0  0  0  0  0  0  0
  151.9511  142.8758  159.6647 C   0  0  0  0  0  0  0  0  0  0  0  0
  147.8126  134.8067  159.8846 S   0  0  0  0  0  0  0  0  0  0  0  0
  147.6178  133.9566  163.3561 H   0  0  0  0  0  0  0  0  0  0  0  0
  146.9585  133.0581  161.9789 H   0  0  0  0  0  0  0  0  0  0  0  0
  145.9436  134.2286  162.8384 H   0  0  0  0  0  0  0  0  0  0  0  0
  148.0543  136.8901  157.7706 H   0  0  0  0  0  0  0  0  0  0  0  0
  149.0036  138.0254  156.4716 H   0  0  0  0  0  0  0  0  0  0  0  0
  151.6548  139.0806  156.9162 H   0  0  0  0  0  0  0  0  0  0  0  0
  151.2693  140.0324  154.6180 H   0  0  0  0  0  0  0  0  0  0  0  0
  149.5687  139.5771  154.7017 H   0  0  0  0  0  0  0  0  0  0  0  0
  150.8167  138.3363  154.6787 H   0  0  0  0  0  0  0  0  0  0  0  0
  152.1033  140.9067  157.9848 H   0  0  0  0  0  0  0  0  0  0  0  0
  150.0561  142.9240  158.6156 H   0  0  0  0  0  0  0  0  0  0  0  0
  152.1937  143.3536  156.6000 H   0  0  0  0  0  0  0  0  0  0  0  0
  150.8044  144.3676  156.9469 H   0  0  0  0  0  0  0  0  0  0  0  0
  153.3149  145.1841  157.6163 H   0  0  0  0  0  0  0  0  0  0  0  0
  151.9590  145.5065  158.6947 H   0  0  0  0  0  0  0  0  0  0  0  0
  153.9327  143.2061  158.8809 H   0  0  0  0  0  0  0  0  0  0  0  0
  153.5049  144.3440  160.1576 H   0  0  0  0  0  0  0  0  0  0  0  0
  151.3480  143.3502  160.4398 H   0  0  0  0  0  0  0  0  0  0  0  0
  152.2974  141.9235  160.0695 H   0  0  0  0  0  0  0  0  0  0  0  0
  1  2  1  0  0  0  0
  1 21  1  0  0  0  0
  1 22  1  0  0  0  0
  1 23  1  0  0  0  0
  2 20  1  0  0  0  0
  2  3  2  0  0  0  0
  3  4  1  0  0  0  0
  4  5  2  0  0  0  0
  5  6  1  0  0  0  0
  5 20  1  0  0  0  0
  6  7  1  0  0  0  0
  6 24  1  0  0  0  0
  7  8  2  0  0  0  0
  7  9  1  0  0  0  0
  9 10  1  0  0  0  0
  9 25  1  0  0  0  0
 10 11  1  0  0  0  0
 10 12  1  0  0  0  0
 10 26  1  0  0  0  0
 11 27  1  0  0  0  0
 11 28  1  0  0  0  0
 11 29  1  0  0  0  0
 12 13  2  0  0  0  0
 12 14  1  0  0  0  0
 14 15  1  0  0  0  0
 14 30  1  0  0  0  0
 15 19  1  0  0  0  0
 15 16  1  0  0  0  0
 15 31  1  0  0  0  0
 16 17  1  0  0  0  0
 16 32  1  0  0  0  0
 16 33  1  0  0  0  0
 17 18  1  0  0  0  0
 17 34  1  0  0  0  0
 17 35  1  0  0  0  0
 18 19  1  0  0  0  0
 18 36  1  0  0  0  0
 18 37  1  0  0  0  0
 19 38  1  0  0  0  0
 19 39  1  0  0  0  0
M  END
> <s_m_source_file>
AV-unprocessed.smi

> <i_m_source_file_index>
826

> <i_lp_mmshare_version>
43012

> <i_f3d_flags>
0

> <s_epik_input>
W0NIM11jMW5uYyhzMSlbTkhdQyg9TylbTkhdW0NASF0oW0NIM10pQyg9TylbTkhdW0NIXTJbQ0gyXVtDSDJdW0NIMl1bQ0gyXTI=

> <s_epik_cmdline>
J2VwaWtfcHl0aG9uJywgJy1waCcsICc3LjAnLCAnLXRuJywgJzgnLCAnLW1hJywgJzIwMCcsICctbWV0YWxfYmluZGluZycsICctaW1hZScsICc8aW5maWxlLm1hZT4nLCAnLW9tYWUnLCAnPG91dGZpbGUubWFlPic=

> <r_lp_tautomer_probability>
1

> <r_epik_Ionization_Penalty>
0.00368568

> <r_epik_Ionization_Penalty_Charging>
0

> <r_epik_Ionization_Penalty_Neutral>
0.00368568

> <r_epik_State_Penalty>
-0

> <r_epik_Charging_Adjusted_Penalty>
0

> <i_epik_Tot_Q>
0

> <i_epik_Tot_abs_Q>
0

> <r_epik_Metal_State_Penalty>
0.369753

> <b_epik_Metal_Only>
0

> <s_lp_Force_Field>
OPLS_2005

> <r_lp_Energy>
15.8717

> <b_lp_Chiralities_Consistent>
1

> <s_lp_Variant>
AV-unprocessed.smi:826-2

> <Gold.Version>
5.8.1

> <Gold.Id.Protein>
6NUR|6NUR_protein|mol2

> <Gold.PLP.Fitness>
40.3072

> <Gold.PLP.PLP>
-36.9574

> <Gold.PLP.part.hbond>
-3.0000

> <Gold.PLP.part.metal>
0.0000

> <Gold.PLP.part.buried>
-5.3073

> <Gold.PLP.part.nonpolar>
-29.4143

> <Gold.PLP.part.repulsive>
0.2855

> <Gold.PLP.ligand.clash>
0.0000

> <Gold.PLP.ligand.torsion>
0.8905

> <Gold.PLP.Chemscore.Hbond>
1.6894

> <Gold.PLP.Chemscore.CHOScore>
0.0000

> <Gold.PLP.Chemscore.Metal>
0.0000

> <Gold.Chemscore.Hbonds>
donor molecule, donor type, donor heavy atom, donor atom, acceptor molecule, acceptor atom, score
      P1  H  6931  6943       L1     4  0.82
      P1  H  6934  6947       L1     4  0.75

> <Gold.PLP.Chemscore.Internal.Correction>
0.0626

> <Gold.Rescore>
     Score         DG    S(hbond)    S(metal)    S(lipo)     H(rot)  DE(clash)    DE(int)     intcor
     15.21     -16.11       1.28        0.00      90.28       1.65       0.03       0.87       ----

> <Gold.Chemscore.Fitness>
15.2113

> <Gold.Chemscore.DG>
-16.1114

> <Gold.Chemscore.ZeroCoef>
-5.4800

> <Gold.Chemscore.Hbond>
1.2821

> <Gold.Chemscore.Metal>
0.0000

> <Gold.Chemscore.Lipo>
90.2783

> <Gold.Chemscore.Internal_Hbond>
0.0000

> <Gold.Chemscore.DEClash>
0.0259

> <Gold.Chemscore.DEInternal>
0.8742

> <Gold.Chemscore.Rot>
1.6458

> <Gold.Chemscore.Internal.Correction>
   9.000000E+99

> <Gold.Chemscore.Hbonds>
donor molecule, donor type, donor heavy atom, donor atom, acceptor molecule, acceptor atom, score
      P1  H  6931  6943       L1     4  0.16
      P1  H  6934  6947       L1     4  0.64

> <Gold.Chemscore.Hbond.Weighted>
-4.2821

> <Gold.Chemscore.Metal.Weighted>
-0.0000

> <Gold.Chemscore.Lipo.Weighted>
-10.5626

> <Gold.Chemscore.Internal_Hbond.Weighted>
0.0000

> <Gold.Chemscore.DEClash.Weighted>
0.0259

> <Gold.Chemscore.DEInternal.Weighted>
0.8742

> <Gold.Chemscore.Rot.Weighted>
4.2133

> <Gold.Chemscore.Internal.Correction.Weighted>
   9.000000E+99

> <Gold.Protein.RotatedTorsions>
[ 6907 6896 6895 6894 ] final  160.66 input  -60.11 | X-H torsion
[ 7974 7965 7964 7962 ] final   23.98 input  175.53 | X-H torsion
[ 8008 7997 7996 7995 ] final   -9.40 input   59.86 | X-H torsion
[ 10167 10162 10161 10158 ] final  -88.13 input  -65.29 | X-H torsion
[ 10718 10713 10712 10709 ] final   18.23 input   66.30 | X-H torsion
[ 10763 10752 10751 10750 ] final -179.76 input  -60.55 | X-H torsion
[ 11005 11000 10999 10996 ] final   72.19 input  -57.11 | X-H torsion

> <Gold.Protein.ActiveResidues>
 VAL166  LYS551  ARG553  GLY616  TRP617  ASP618  TYR619  PRO620  LYS621  CYS622 
 ASP623  PHE694  ASN695  SER759  ASP760  ASP761  ALA762  ILE779  LEU786  VAL792 
 PHE793  MET794  SER795  GLU796  ALA797  LYS798  CYS799  TRP800  GLU811  SER814 

> <Gold.Protein.RotatedAtoms>
  151.9674  133.3714  159.4057 H   0  0  0  0  0  0  0  0  0  0  0  0  # atno 6907 bound_to 6896
  150.6954  134.4177  159.5200 H   0  0  0  0  0  0  0  0  0  0  0  0  # atno 6908 bound_to 6896
  152.1875  134.8701  160.0571 H   0  0  0  0  0  0  0  0  0  0  0  0  # atno 6909 bound_to 6896
  146.1959  139.7669  142.8797 H   0  0  0  0  0  0  0  0  0  0  0  0  # atno 7974 bound_to 7965
  154.5650  140.2356  155.8277 H   0  0  0  0  0  0  0  0  0  0  0  0  # atno 8008 bound_to 7997
  156.2061  140.3039  155.9588 H   0  0  0  0  0  0  0  0  0  0  0  0  # atno 8009 bound_to 7997
  155.2818  140.0423  157.3006 H   0  0  0  0  0  0  0  0  0  0  0  0  # atno 8010 bound_to 7997
  140.3777  143.2763  151.9422 H   0  0  0  0  0  0  0  0  0  0  0  0  # atno 10167 bound_to 10162
  157.0934  130.6437  149.5854 H   0  0  0  0  0  0  0  0  0  0  0  0  # atno 10718 bound_to 10713
  154.5309  135.2800  155.1181 H   0  0  0  0  0  0  0  0  0  0  0  0  # atno 10763 bound_to 10752
  154.2701  135.6305  153.5310 H   0  0  0  0  0  0  0  0  0  0  0  0  # atno 10764 bound_to 10752
  152.9957  135.5626  154.5823 H   0  0  0  0  0  0  0  0  0  0  0  0  # atno 10765 bound_to 10752
  139.9503  134.7238  156.0878 H   0  0  0  0  0  0  0  0  0  0  0  0  # atno 11005 bound_to 11000
  145.3644  141.0331  143.3266 LP  0  0  0  0  0  0  0  0  0  0  0  0  # atno 17320 bound_to 7965
  144.8580  139.5220  143.6825 LP  0  0  0  0  0  0  0  0  0  0  0  0  # atno 17321 bound_to 7965
  139.4798  144.5848  151.7872 LP  0  0  0  0  0  0  0  0  0  0  0  0  # atno 17342 bound_to 10162
  140.4969  144.1227  150.5962 LP  0  0  0  0  0  0  0  0  0  0  0  0  # atno 17343 bound_to 10162
  155.9892  130.4938  150.7203 LP  0  0  0  0  0  0  0  0  0  0  0  0  # atno 17370 bound_to 10713
  157.4701  131.0892  151.0651 LP  0  0  0  0  0  0  0  0  0  0  0  0  # atno 17371 bound_to 10713
  141.1165  133.6626  156.3106 LP  0  0  0  0  0  0  0  0  0  0  0  0  # atno 17394 bound_to 11000
  140.5734  134.5818  157.5463 LP  0  0  0  0  0  0  0  0  0  0  0  0  # atno 17395 bound_to 11000

$$$$
