AV-unprocessed.smi:2481|AV-procd|sdf|9772|dock3
  -GOLD-   2272013413D 1   1.00000     0.00000
 Structure written by MMmdl.
 37 38  0  0  0  0  0  0  0  0  1 V2000
  148.9809  137.1433  159.6654 C   0  0  0  0  0  0  0  0  0  0  0  0
  149.9316  136.9654  158.5848 N   0  0  0  0  0  0  0  0  0  0  0  0
  149.8891  135.8679  157.7934 N   0  0  0  0  0  0  0  0  0  0  0  0
  150.8967  136.0781  156.9460 C   0  0  0  0  0  0  0  0  0  0  0  0
  151.5981  137.2363  157.1251 N   0  0  0  0  0  0  0  0  0  0  0  0
  150.9382  137.7372  158.1646 C   0  0  0  0  0  0  0  0  0  0  0  0
  151.2173  138.9662  158.8203 N   0  0  0  0  0  0  0  0  0  0  0  0
  152.2799  139.7697  158.6447 C   0  0  0  0  0  0  0  0  0  0  0  0
  153.2031  139.5640  157.8563 O   0  0  0  0  0  0  0  0  0  0  0  0
  152.2105  140.8451  159.4422 N   0  0  0  0  0  0  0  0  0  0  0  0
  153.1994  141.9229  159.5058 C   0  0  1  0  0  0  0  0  0  0  0  0
  152.5746  143.2647  159.0668 C   0  0  0  0  0  0  0  0  0  0  0  0
  151.5543  143.7915  160.0896 C   0  0  0  0  0  0  0  0  0  0  0  0
  152.1793  143.9028  161.4876 C   0  0  0  0  0  0  0  0  0  0  0  0
  152.7855  142.5642  161.9383 C   0  0  0  0  0  0  0  0  0  0  0  0
  153.8217  142.0348  160.9235 C   0  0  1  0  0  0  0  0  0  0  0  0
  154.4676  140.7243  161.4214 C   0  0  0  0  0  0  0  0  0  0  0  0
  155.1521  140.9316  162.6391 O   0  0  0  0  0  0  0  0  0  0  0  0
  148.3649  138.0213  159.4692 H   0  0  0  0  0  0  0  0  0  0  0  0
  149.5155  137.2844  160.6052 H   0  0  0  0  0  0  0  0  0  0  0  0
  148.3335  136.2699  159.7549 H   0  0  0  0  0  0  0  0  0  0  0  0
  151.1360  135.3684  156.1678 H   0  0  0  0  0  0  0  0  0  0  0  0
  150.5308  139.2653  159.4969 H   0  0  0  0  0  0  0  0  0  0  0  0
  151.4127  140.9307  160.0543 H   0  0  0  0  0  0  0  0  0  0  0  0
  154.0041  141.6877  158.8069 H   0  0  0  0  0  0  0  0  0  0  0  0
  153.3680  144.0030  158.9441 H   0  0  0  0  0  0  0  0  0  0  0  0
  152.1045  143.1649  158.0875 H   0  0  0  0  0  0  0  0  0  0  0  0
  151.1804  144.7651  159.7719 H   0  0  0  0  0  0  0  0  0  0  0  0
  150.6897  143.1276  160.1257 H   0  0  0  0  0  0  0  0  0  0  0  0
  152.9547  144.6700  161.4804 H   0  0  0  0  0  0  0  0  0  0  0  0
  151.4272  144.2310  162.2054 H   0  0  0  0  0  0  0  0  0  0  0  0
  153.2537  142.6929  162.9148 H   0  0  0  0  0  0  0  0  0  0  0  0
  151.9895  141.8313  162.0762 H   0  0  0  0  0  0  0  0  0  0  0  0
  154.6170  142.7805  160.8695 H   0  0  0  0  0  0  0  0  0  0  0  0
  153.7006  139.9685  161.5932 H   0  0  0  0  0  0  0  0  0  0  0  0
  155.1570  140.3119  160.6844 H   0  0  0  0  0  0  0  0  0  0  0  0
  156.0533  140.6703  162.5270 H   0  0  0  0  0  0  0  0  0  0  0  0
  1  2  1  0  0  0  0
  1 19  1  0  0  0  0
  1 20  1  0  0  0  0
  1 21  1  0  0  0  0
  2  6  1  0  0  0  0
  2  3  1  0  0  0  0
  3  4  2  0  0  0  0
  4  5  1  0  0  0  0
  4 22  1  0  0  0  0
  5  6  2  0  0  0  0
  6  7  1  0  0  0  0
  7  8  1  0  0  0  0
  7 23  1  0  0  0  0
  8  9  2  0  0  0  0
  8 10  1  0  0  0  0
 10 11  1  0  0  0  0
 10 24  1  0  0  0  0
 11 16  1  0  0  0  0
 11 12  1  0  0  0  0
 11 25  1  0  0  0  0
 12 13  1  0  0  0  0
 12 26  1  0  0  0  0
 12 27  1  0  0  0  0
 13 14  1  0  0  0  0
 13 28  1  0  0  0  0
 13 29  1  0  0  0  0
 14 15  1  0  0  0  0
 14 30  1  0  0  0  0
 14 31  1  0  0  0  0
 15 16  1  0  0  0  0
 15 32  1  0  0  0  0
 15 33  1  0  0  0  0
 16 17  1  0  0  0  0
 16 34  1  0  0  0  0
 17 18  1  0  0  0  0
 17 35  1  0  0  0  0
 17 36  1  0  0  0  0
 18 37  1  0  0  0  0
M  END
> <s_m_source_file>
AV-unprocessed.smi

> <i_m_source_file_index>
2481

> <i_lp_mmshare_version>
43012

> <i_f3d_flags>
0

> <s_epik_input>
W0NIM11uMW5bY0hdbmMxW05IXUMoPU8pW05IXVtDQEBIXTJbQ0gyXVtDSDJdW0NIMl1bQ0gyXVtDQEhdMltDSDJdW09IXQ==

> <s_epik_cmdline>
J2VwaWtfcHl0aG9uJywgJy1waCcsICc3LjAnLCAnLXRuJywgJzgnLCAnLW1hJywgJzIwMCcsICctbWV0YWxfYmluZGluZycsICctaW1hZScsICc8aW5maWxlLm1hZT4nLCAnLW9tYWUnLCAnPG91dGZpbGUubWFlPic=

> <r_lp_tautomer_probability>
1

> <r_epik_Ionization_Penalty>
2.32704e-05

> <r_epik_Ionization_Penalty_Charging>
0

> <r_epik_Ionization_Penalty_Neutral>
2.32704e-05

> <r_epik_State_Penalty>
-0

> <r_epik_Charging_Adjusted_Penalty>
0

> <i_epik_Tot_Q>
0

> <i_epik_Tot_abs_Q>
0

> <r_epik_Metal_State_Penalty>
-0

> <b_epik_Metal_Only>
0

> <s_lp_Force_Field>
OPLS_2005

> <r_lp_Energy>
12.0368

> <b_lp_Chiralities_Consistent>
1

> <s_lp_Variant>
AV-unprocessed.smi:2481-2

> <Gold.Version>
5.8.1

> <Gold.Id.Protein>
6NUR|6NUR_protein|mol2

> <Gold.PLP.Fitness>
39.4800

> <Gold.PLP.PLP>
-35.2309

> <Gold.PLP.part.hbond>
-2.9953

> <Gold.PLP.part.metal>
0.0000

> <Gold.PLP.part.buried>
-3.3651

> <Gold.PLP.part.nonpolar>
-29.4144

> <Gold.PLP.part.repulsive>
0.2884

> <Gold.PLP.ligand.clash>
0.0000

> <Gold.PLP.ligand.torsion>
0.0380

> <Gold.PLP.Chemscore.Hbond>
1.4357

> <Gold.PLP.Chemscore.CHOScore>
0.0000

> <Gold.PLP.Chemscore.Metal>
0.0000

> <Gold.Chemscore.Hbonds>
donor molecule, donor type, donor heavy atom, donor atom, acceptor molecule, acceptor atom, score
      P1  H  6896  6908       L1     3  0.10
      P1  H  7997  8009       L1     9  1.00

> <Gold.PLP.Chemscore.Internal.Correction>
0.0179

> <Gold.Rescore>
     Score         DG    S(hbond)    S(metal)    S(lipo)     H(rot)  DE(clash)    DE(int)     intcor
     11.99     -13.27       1.00        0.00      81.51       1.99       0.01       1.27       ----

> <Gold.Chemscore.Fitness>
11.9870

> <Gold.Chemscore.DG>
-13.2679

> <Gold.Chemscore.ZeroCoef>
-5.4800

> <Gold.Chemscore.Hbond>
0.9999

> <Gold.Chemscore.Metal>
0.0000

> <Gold.Chemscore.Lipo>
81.5098

> <Gold.Chemscore.Internal_Hbond>
0.0000

> <Gold.Chemscore.DEClash>
0.0149

> <Gold.Chemscore.DEInternal>
1.2661

> <Gold.Chemscore.Rot>
1.9877

> <Gold.Chemscore.Internal.Correction>
   9.000000E+99

> <Gold.Chemscore.Hbonds>
donor molecule, donor type, donor heavy atom, donor atom, acceptor molecule, acceptor atom, score
      P1  H  6896  6908       L1     3  0.01
      P1  H  7997  8009       L1     9  0.99

> <Gold.Chemscore.Hbond.Weighted>
-3.3398

> <Gold.Chemscore.Metal.Weighted>
-0.0000

> <Gold.Chemscore.Lipo.Weighted>
-9.5366

> <Gold.Chemscore.Internal_Hbond.Weighted>
0.0000

> <Gold.Chemscore.DEClash.Weighted>
0.0149

> <Gold.Chemscore.DEInternal.Weighted>
1.2661

> <Gold.Chemscore.Rot.Weighted>
5.0885

> <Gold.Chemscore.Internal.Correction.Weighted>
   9.000000E+99

> <Gold.Protein.RotatedTorsions>
[ 6907 6896 6895 6894 ] final  152.52 input  -60.11 | X-H torsion
[ 7974 7965 7964 7962 ] final -104.90 input  175.53 | X-H torsion
[ 8008 7997 7996 7995 ] final  147.90 input   59.86 | X-H torsion
[ 10167 10162 10161 10158 ] final   43.25 input  -65.29 | X-H torsion
[ 10718 10713 10712 10709 ] final  174.24 input   66.30 | X-H torsion
[ 10763 10752 10751 10750 ] final    9.84 input  -60.55 | X-H torsion
[ 11005 11000 10999 10996 ] final   44.56 input  -57.11 | X-H torsion

> <Gold.Protein.ActiveResidues>
 VAL166  LYS551  ARG553  GLY616  TRP617  ASP618  TYR619  PRO620  LYS621  CYS622 
 ASP623  PHE694  ASN695  SER759  ASP760  ASP761  ALA762  ILE779  LEU786  VAL792 
 PHE793  MET794  SER795  GLU796  ALA797  LYS798  CYS799  TRP800  GLU811  SER814 

> <Gold.Protein.RotatedAtoms>
  152.0856  133.4174  159.4520 H   0  0  0  0  0  0  0  0  0  0  0  0  # atno 6907 bound_to 6896
  150.6862  134.2931  159.4684 H   0  0  0  0  0  0  0  0  0  0  0  0  # atno 6908 bound_to 6896
  152.0777  134.9491  160.0624 H   0  0  0  0  0  0  0  0  0  0  0  0  # atno 6909 bound_to 6896
  145.2372  140.9192  143.3170 H   0  0  0  0  0  0  0  0  0  0  0  0  # atno 7974 bound_to 7965
  156.2809  140.2143  156.5612 H   0  0  0  0  0  0  0  0  0  0  0  0  # atno 8008 bound_to 7997
  154.7212  140.0503  157.0663 H   0  0  0  0  0  0  0  0  0  0  0  0  # atno 8009 bound_to 7997
  155.0476  140.3152  155.4706 H   0  0  0  0  0  0  0  0  0  0  0  0  # atno 8010 bound_to 7997
  140.3462  144.2408  150.6150 H   0  0  0  0  0  0  0  0  0  0  0  0  # atno 10167 bound_to 10162
  156.9525  131.0035  151.2945 H   0  0  0  0  0  0  0  0  0  0  0  0  # atno 10718 bound_to 10713
  153.2096  135.6867  153.8130 H   0  0  0  0  0  0  0  0  0  0  0  0  # atno 10763 bound_to 10752
  153.7367  135.3244  155.3297 H   0  0  0  0  0  0  0  0  0  0  0  0  # atno 10764 bound_to 10752
  154.8215  135.4648  154.0898 H   0  0  0  0  0  0  0  0  0  0  0  0  # atno 10765 bound_to 10752
  140.1540  134.4425  155.8362 H   0  0  0  0  0  0  0  0  0  0  0  0  # atno 11005 bound_to 11000
  144.9622  139.3968  143.6350 LP  0  0  0  0  0  0  0  0  0  0  0  0  # atno 17320 bound_to 7965
  146.3338  139.8680  142.8845 LP  0  0  0  0  0  0  0  0  0  0  0  0  # atno 17321 bound_to 7965
  140.5262  143.2254  151.8311 LP  0  0  0  0  0  0  0  0  0  0  0  0  # atno 17342 bound_to 10162
  139.4833  144.4776  151.9347 LP  0  0  0  0  0  0  0  0  0  0  0  0  # atno 17343 bound_to 10162
  157.5712  130.8312  149.8394 LP  0  0  0  0  0  0  0  0  0  0  0  0  # atno 17370 bound_to 10713
  156.0357  130.3752  150.1568 LP  0  0  0  0  0  0  0  0  0  0  0  0  # atno 17371 bound_to 10713
  141.2202  133.6884  156.7473 LP  0  0  0  0  0  0  0  0  0  0  0  0  # atno 17394 bound_to 11000
  140.2570  134.8496  157.3722 LP  0  0  0  0  0  0  0  0  0  0  0  0  # atno 17395 bound_to 11000

$$$$
