AV-unprocessed.smi:1013|AV-procd|sdf|4428|dock4
  -GOLD-   22720 2383D 1   1.00000     0.00000
 Structure written by MMmdl.
 29 30  0  0  0  0  0  0  0  0  2 V2000
  152.2114  137.3165  155.4880 O   0  0  0  0  0  0  0  0  0  0  0  0
  152.3560  138.5562  155.4101 C   0  0  0  0  0  0  0  0  0  0  0  0
  153.2818  139.1423  154.8060 O   0  5  0  0  0  0  0  0  0  0  0  0
  151.2934  139.4247  156.1085 C   0  0  2  0  0  0  0  0  0  0  0  0
  151.3294  139.2308  157.6401 C   0  0  0  0  0  0  0  0  0  0  0  0
  151.8619  140.3885  158.3393 N   0  0  0  0  0  0  0  0  0  0  0  0
  152.8600  140.4294  159.2886 C   0  0  0  0  0  0  0  0  0  0  0  0
  153.0165  141.7344  159.6569 C   0  0  0  0  0  0  0  0  0  0  0  0
  152.0592  142.4344  158.8662 C   0  0  0  0  0  0  0  0  0  0  0  0
  151.7679  143.9117  158.8426 C   0  0  0  0  0  0  0  0  0  0  0  0
  150.4914  144.1361  159.1550 F   0  0  0  0  0  0  0  0  0  0  0  0
  152.5414  144.5421  159.7266 F   0  0  0  0  0  0  0  0  0  0  0  0
  152.0046  144.4057  157.6273 F   0  0  0  0  0  0  0  0  0  0  0  0
  151.3783  141.6201  158.0716 N   0  0  0  0  0  0  0  0  0  0  0  0
  149.9239  139.1953  155.6111 N   0  0  0  0  0  0  0  0  0  0  0  0
  149.6365  139.9620  154.4085 C   0  0  0  0  0  0  0  0  0  0  0  0
  149.2211  141.4025  154.6044 C   0  0  0  0  0  0  0  0  0  0  0  0
  148.2049  140.3838  154.1577 C   0  0  0  0  0  0  0  0  0  0  0  0
  151.5379  140.4678  155.9017 H   0  0  0  0  0  0  0  0  0  0  0  0
  150.3208  139.0599  158.0182 H   0  0  0  0  0  0  0  0  0  0  0  0
  151.9107  138.3456  157.9058 H   0  0  0  0  0  0  0  0  0  0  0  0
  153.3655  139.5351  159.6223 H   0  0  0  0  0  0  0  0  0  0  0  0
  153.7088  142.1301  160.3848 H   0  0  0  0  0  0  0  0  0  0  0  0
  149.2456  139.4194  156.3239 H   0  0  0  0  0  0  0  0  0  0  0  0
  150.2471  139.7882  153.5240 H   0  0  0  0  0  0  0  0  0  0  0  0
  149.1381  141.7773  155.6228 H   0  0  0  0  0  0  0  0  0  0  0  0
  149.5613  142.1276  153.8679 H   0  0  0  0  0  0  0  0  0  0  0  0
  147.8704  140.4227  153.1232 H   0  0  0  0  0  0  0  0  0  0  0  0
  147.4494  140.0795  154.8797 H   0  0  0  0  0  0  0  0  0  0  0  0
  1  2  2  0  0  0  0
  2  3  1  0  0  0  0
  2  4  1  0  0  0  0
  4  5  1  0  0  0  0
  4 15  1  0  0  0  0
  4 19  1  0  0  0  0
  5  6  1  0  0  0  0
  5 20  1  0  0  0  0
  5 21  1  0  0  0  0
  6 14  1  0  0  0  0
  6  7  1  0  0  0  0
  7  8  2  0  0  0  0
  7 22  1  0  0  0  0
  8  9  1  0  0  0  0
  8 23  1  0  0  0  0
  9 10  1  0  0  0  0
  9 14  2  0  0  0  0
 10 11  1  0  0  0  0
 10 12  1  0  0  0  0
 10 13  1  0  0  0  0
 15 16  1  0  0  0  0
 15 24  1  0  0  0  0
 16 18  1  0  0  0  0
 16 17  1  0  0  0  0
 16 25  1  0  0  0  0
 17 18  1  0  0  0  0
 17 26  1  0  0  0  0
 17 27  1  0  0  0  0
 18 28  1  0  0  0  0
 18 29  1  0  0  0  0
M  CHG  1   3  -1
M  END
> <s_m_source_file>
AV-unprocessed.smi

> <i_m_source_file_index>
1013

> <i_lp_mmshare_version>
43012

> <i_f3d_flags>
0

> <s_epik_input>
W0NIMl0xW0NIMl1bQ0hdMVtOSF1bQ0BIXShDKD1PKVtPSF0pW0NIMl1uMltjSF1bY0hdYyhuMilDKEYpKEYpRg==

> <s_epik_cmdline>
J2VwaWtfcHl0aG9uJywgJy1waCcsICc3LjAnLCAnLXRuJywgJzgnLCAnLW1hJywgJzIwMCcsICctbWV0YWxfYmluZGluZycsICctaW1hZScsICc8aW5maWxlLm1hZT4nLCAnLW9tYWUnLCAnPG91dGZpbGUubWFlPic=

> <r_lp_tautomer_probability>
1

> <r_epik_Ionization_Penalty>
0.786284

> <r_epik_Ionization_Penalty_Charging>
0.00153368

> <r_epik_Ionization_Penalty_Neutral>
0.78475

> <r_epik_State_Penalty>
0.814638

> <r_epik_Charging_Adjusted_Penalty>
0.816172

> <i_epik_Tot_Q>
-1

> <i_epik_Tot_abs_Q>
1

> <r_epik_Metal_State_Penalty>
0.814638

> <b_epik_Metal_Only>
0

> <s_lp_Force_Field>
OPLS_2005

> <r_lp_Energy>
15.2289

> <b_lp_Chiralities_Consistent>
1

> <s_lp_Variant>
AV-unprocessed.smi:1013-3

> <Gold.Version>
5.8.1

> <Gold.Id.Protein>
6NUR|6NUR_protein|mol2

> <Gold.PLP.Fitness>
49.3962

> <Gold.PLP.PLP>
-40.6521

> <Gold.PLP.part.hbond>
-2.0478

> <Gold.PLP.part.metal>
0.0000

> <Gold.PLP.part.buried>
-5.1046

> <Gold.PLP.part.nonpolar>
-33.9141

> <Gold.PLP.part.repulsive>
0.0577

> <Gold.PLP.ligand.clash>
0.0000

> <Gold.PLP.ligand.torsion>
1.4285

> <Gold.PLP.Chemscore.Hbond>
3.6000

> <Gold.PLP.Chemscore.CHOScore>
0.0000

> <Gold.PLP.Chemscore.Metal>
0.0000

> <Gold.Chemscore.Hbonds>
donor molecule, donor type, donor heavy atom, donor atom, acceptor molecule, acceptor atom, score
      P1  H  7997  8009       L1     3  2.00
      P1  H 10752 10763       L1     1  1.53

> <Gold.PLP.Chemscore.Internal.Correction>
0.8010

> <Gold.Rescore>
     Score         DG    S(hbond)    S(metal)    S(lipo)     H(rot)  DE(clash)    DE(int)     intcor
     12.04     -13.48       1.81        0.00      71.85       2.52       0.03       1.41       ----

> <Gold.Chemscore.Fitness>
12.0382

> <Gold.Chemscore.DG>
-13.4841

> <Gold.Chemscore.ZeroCoef>
-5.4800

> <Gold.Chemscore.Hbond>
1.8076

> <Gold.Chemscore.Metal>
0.0000

> <Gold.Chemscore.Lipo>
71.8530

> <Gold.Chemscore.Internal_Hbond>
0.0000

> <Gold.Chemscore.DEClash>
0.0341

> <Gold.Chemscore.DEInternal>
1.4118

> <Gold.Chemscore.Rot>
2.5157

> <Gold.Chemscore.Internal.Correction>
   9.000000E+99

> <Gold.Chemscore.Hbonds>
donor molecule, donor type, donor heavy atom, donor atom, acceptor molecule, acceptor atom, score
      P1  H  7997  8009       L1     3  0.97
      P1  H 10752 10763       L1     1  0.73

> <Gold.Chemscore.Hbond.Weighted>
-6.0375

> <Gold.Chemscore.Metal.Weighted>
-0.0000

> <Gold.Chemscore.Lipo.Weighted>
-8.4068

> <Gold.Chemscore.Internal_Hbond.Weighted>
0.0000

> <Gold.Chemscore.DEClash.Weighted>
0.0341

> <Gold.Chemscore.DEInternal.Weighted>
1.4118

> <Gold.Chemscore.Rot.Weighted>
6.4402

> <Gold.Chemscore.Internal.Correction.Weighted>
   9.000000E+99

> <Gold.Protein.RotatedTorsions>
[ 6907 6896 6895 6894 ] final -117.21 input  -60.11 | X-H torsion
[ 7974 7965 7964 7962 ] final  -66.11 input  175.53 | X-H torsion
[ 8008 7997 7996 7995 ] final -130.90 input   59.86 | X-H torsion
[ 10167 10162 10161 10158 ] final  107.77 input  -65.29 | X-H torsion
[ 10718 10713 10712 10709 ] final -141.27 input   66.30 | X-H torsion
[ 10763 10752 10751 10750 ] final   71.73 input  -60.55 | X-H torsion
[ 11005 11000 10999 10996 ] final  -52.81 input  -57.11 | X-H torsion

> <Gold.Protein.ActiveResidues>
 VAL166  LYS551  ARG553  GLY616  TRP617  ASP618  TYR619  PRO620  LYS621  CYS622 
 ASP623  PHE694  ASN695  SER759  ASP760  ASP761  ALA762  ILE779  LEU786  VAL792 
 PHE793  MET794  SER795  GLU796  ALA797  LYS798  CYS799  TRP800  GLU811  SER814 

> <Gold.Protein.RotatedAtoms>
  150.8118  133.8408  159.3178 H   0  0  0  0  0  0  0  0  0  0  0  0  # atno 6907 bound_to 6896
  151.6191  135.1032  160.0107 H   0  0  0  0  0  0  0  0  0  0  0  0  # atno 6908 bound_to 6896
  152.4210  133.7076  159.6517 H   0  0  0  0  0  0  0  0  0  0  0  0  # atno 6909 bound_to 6896
  145.7458  140.8932  143.0506 H   0  0  0  0  0  0  0  0  0  0  0  0  # atno 7974 bound_to 7965
  155.3034  140.0454  157.3031 H   0  0  0  0  0  0  0  0  0  0  0  0  # atno 8008 bound_to 7997
  154.5474  140.2307  155.8508 H   0  0  0  0  0  0  0  0  0  0  0  0  # atno 8009 bound_to 7997
  156.1936  140.3044  155.9389 H   0  0  0  0  0  0  0  0  0  0  0  0  # atno 8010 bound_to 7997
  139.6900  144.7109  151.1365 H   0  0  0  0  0  0  0  0  0  0  0  0  # atno 10167 bound_to 10162
  156.3320  130.7591  151.1711 H   0  0  0  0  0  0  0  0  0  0  0  0  # atno 10718 bound_to 10713
  153.0416  135.5126  154.7637 H   0  0  0  0  0  0  0  0  0  0  0  0  # atno 10763 bound_to 10752
  154.6570  135.2933  154.9917 H   0  0  0  0  0  0  0  0  0  0  0  0  # atno 10764 bound_to 10752
  154.0781  135.6668  153.4886 H   0  0  0  0  0  0  0  0  0  0  0  0  # atno 10765 bound_to 10752
  141.0944  133.6627  156.4080 H   0  0  0  0  0  0  0  0  0  0  0  0  # atno 11005 bound_to 11000
  144.6860  139.9524  143.7478 LP  0  0  0  0  0  0  0  0  0  0  0  0  # atno 17320 bound_to 7965
  146.0404  139.3416  143.0701 LP  0  0  0  0  0  0  0  0  0  0  0  0  # atno 17321 bound_to 7965
  140.7679  143.5573  150.9137 LP  0  0  0  0  0  0  0  0  0  0  0  0  # atno 17342 bound_to 10162
  139.9250  143.6560  152.3089 LP  0  0  0  0  0  0  0  0  0  0  0  0  # atno 17343 bound_to 10162
  157.7432  131.0478  150.4965 LP  0  0  0  0  0  0  0  0  0  0  0  0  # atno 17370 bound_to 10713
  156.5132  130.4144  149.6290 LP  0  0  0  0  0  0  0  0  0  0  0  0  # atno 17371 bound_to 10713
  140.5176  134.6335  157.5306 LP  0  0  0  0  0  0  0  0  0  0  0  0  # atno 17394 bound_to 11000
  139.9777  134.7188  155.9919 LP  0  0  0  0  0  0  0  0  0  0  0  0  # atno 17395 bound_to 11000

$$$$
