AV-unprocessed.smi:415|AV-procd|sdf|2524|dock3
  -GOLD-   2262022483D 1   1.00000     0.00000
 Structure written by MMmdl.
 53 54  0  0  0  0  0  0  0  0  1 V2000
  146.3980  143.9525  161.3157 C   0  0  0  0  0  0  0  0  0  0  0  0
  146.2477  142.8169  160.4785 O   0  0  0  0  0  0  0  0  0  0  0  0
  146.5155  143.0712  159.1064 C   0  0  0  0  0  0  0  0  0  0  0  0
  145.7054  142.1560  158.1655 C   0  0  0  0  0  0  0  0  0  0  0  0
  146.3147  142.0101  156.8567 N   0  0  0  0  0  0  0  0  0  0  0  0
  145.9221  142.7601  155.7513 C   0  0  0  0  0  0  0  0  0  0  0  0
  144.8900  143.6730  155.8762 N   0  0  0  0  0  0  0  0  0  0  0  0
  146.5350  142.6263  154.5544 C   0  0  0  0  0  0  0  0  0  0  0  0
  147.6399  141.6994  154.3552 C   0  0  0  0  0  0  0  0  0  0  0  0
  148.2184  141.5719  153.2757 O   0  0  0  0  0  0  0  0  0  0  0  0
  148.0255  140.9514  155.4910 N   0  0  0  0  0  0  0  0  0  0  0  0
  149.1682  140.0184  155.3769 C   0  0  0  0  0  0  0  0  0  0  0  0
  150.4742  140.5901  155.9489 C   0  0  0  0  0  0  0  0  0  0  0  0
  151.5412  140.4592  155.3471 O   0  0  0  0  0  0  0  0  0  0  0  0
  150.3681  141.2252  157.1252 N   0  0  0  0  0  0  0  0  0  0  0  0
  151.4654  141.8783  157.8347 C   0  0  2  0  0  0  0  0  0  0  0  0
  151.7761  141.1099  159.1338 C   0  0  0  0  0  0  0  0  0  0  0  0
  152.9445  141.7527  159.8958 C   0  0  0  0  0  0  0  0  0  0  0  0
  152.6878  143.2429  160.1702 C   0  0  0  0  0  0  0  0  0  0  0  0
  152.3740  144.0093  158.8694 C   0  0  2  0  0  0  0  0  0  0  0  0
  152.2201  145.5188  159.1185 C   0  0  0  0  0  0  0  0  0  0  0  0
  151.1754  143.3802  158.1100 C   0  0  2  0  0  0  0  0  0  0  0  0
  149.8114  143.6217  158.7988 C   0  0  0  0  0  0  0  0  0  0  0  0
  147.3921  141.0936  156.7469 C   0  0  0  0  0  0  0  0  0  0  0  0
  147.7842  140.4363  157.7152 O   0  0  0  0  0  0  0  0  0  0  0  0
  146.1579  143.6795  162.3432 H   0  0  0  0  0  0  0  0  0  0  0  0
  145.7342  144.7661  161.0239 H   0  0  0  0  0  0  0  0  0  0  0  0
  147.4252  144.3186  161.2985 H   0  0  0  0  0  0  0  0  0  0  0  0
  146.3312  144.1205  158.8710 H   0  0  0  0  0  0  0  0  0  0  0  0
  147.5806  142.9087  158.9397 H   0  0  0  0  0  0  0  0  0  0  0  0
  145.5155  141.1676  158.5850 H   0  0  0  0  0  0  0  0  0  0  0  0
  144.7130  142.5708  157.9899 H   0  0  0  0  0  0  0  0  0  0  0  0
  144.4078  143.8138  156.7525 H   0  0  0  0  0  0  0  0  0  0  0  0
  144.5213  144.1714  155.0790 H   0  0  0  0  0  0  0  0  0  0  0  0
  146.2075  143.2248  153.7162 H   0  0  0  0  0  0  0  0  0  0  0  0
  148.9407  139.0767  155.8799 H   0  0  0  0  0  0  0  0  0  0  0  0
  149.3501  139.7263  154.3418 H   0  0  0  0  0  0  0  0  0  0  0  0
  149.4550  141.2804  157.5522 H   0  0  0  0  0  0  0  0  0  0  0  0
  152.3549  141.8143  157.2045 H   0  0  0  0  0  0  0  0  0  0  0  0
  150.8943  141.0778  159.7746 H   0  0  0  0  0  0  0  0  0  0  0  0
  152.0229  140.0731  158.9021 H   0  0  0  0  0  0  0  0  0  0  0  0
  153.1120  141.2243  160.8347 H   0  0  0  0  0  0  0  0  0  0  0  0
  153.8604  141.6433  159.3136 H   0  0  0  0  0  0  0  0  0  0  0  0
  151.8666  143.3509  160.8794 H   0  0  0  0  0  0  0  0  0  0  0  0
  153.5646  143.6755  160.6533 H   0  0  0  0  0  0  0  0  0  0  0  0
  153.2453  143.9002  158.2215 H   0  0  0  0  0  0  0  0  0  0  0  0
  151.4323  145.7332  159.8404 H   0  0  0  0  0  0  0  0  0  0  0  0
  151.9848  146.0481  158.1947 H   0  0  0  0  0  0  0  0  0  0  0  0
  153.1443  145.9425  159.5124 H   0  0  0  0  0  0  0  0  0  0  0  0
  151.1180  143.8799  157.1417 H   0  0  0  0  0  0  0  0  0  0  0  0
  149.7724  143.1849  159.7959 H   0  0  0  0  0  0  0  0  0  0  0  0
  148.9895  143.1965  158.2228 H   0  0  0  0  0  0  0  0  0  0  0  0
  149.5957  144.6852  158.8951 H   0  0  0  0  0  0  0  0  0  0  0  0
  1  2  1  0  0  0  0
  1 26  1  0  0  0  0
  1 27  1  0  0  0  0
  1 28  1  0  0  0  0
  2  3  1  0  0  0  0
  3  4  1  0  0  0  0
  3 29  1  0  0  0  0
  3 30  1  0  0  0  0
  4  5  1  0  0  0  0
  4 31  1  0  0  0  0
  4 32  1  0  0  0  0
  5 24  1  0  0  0  0
  5  6  1  0  0  0  0
  6  7  1  0  0  0  0
  6  8  2  0  0  0  0
  7 33  1  0  0  0  0
  7 34  1  0  0  0  0
  8  9  1  0  0  0  0
  8 35  1  0  0  0  0
  9 10  2  0  0  0  0
  9 11  1  0  0  0  0
 11 12  1  0  0  0  0
 11 24  1  0  0  0  0
 12 13  1  0  0  0  0
 12 36  1  0  0  0  0
 12 37  1  0  0  0  0
 13 14  2  0  0  0  0
 13 15  1  0  0  0  0
 15 16  1  0  0  0  0
 15 38  1  0  0  0  0
 16 22  1  0  0  0  0
 16 17  1  0  0  0  0
 16 39  1  0  0  0  0
 17 18  1  0  0  0  0
 17 40  1  0  0  0  0
 17 41  1  0  0  0  0
 18 19  1  0  0  0  0
 18 42  1  0  0  0  0
 18 43  1  0  0  0  0
 19 20  1  0  0  0  0
 19 44  1  0  0  0  0
 19 45  1  0  0  0  0
 20 21  1  0  0  0  0
 20 22  1  0  0  0  0
 20 46  1  0  0  0  0
 21 47  1  0  0  0  0
 21 48  1  0  0  0  0
 21 49  1  0  0  0  0
 22 23  1  0  0  0  0
 22 50  1  0  0  0  0
 23 51  1  0  0  0  0
 23 52  1  0  0  0  0
 23 53  1  0  0  0  0
 24 25  2  0  0  0  0
M  END
> <s_m_source_file>
AV-unprocessed.smi

> <i_m_source_file_index>
415

> <i_lp_mmshare_version>
43012

> <i_f3d_flags>
0

> <s_epik_input>
W0NIM11PW0NIMl1bQ0gyXW4xYyhbTkgyXSlbY0hdYyg9TyluKGMxPU8pW0NIMl1DKD1PKVtOSF1bQ0BASF0yW0NIMl1bQ0gyXVtDSDJdW0NAQEhdKFtDSDNdKVtDQEhdMltDSDNd

> <s_epik_cmdline>
J2VwaWtfcHl0aG9uJywgJy1waCcsICc3LjAnLCAnLXRuJywgJzgnLCAnLW1hJywgJzIwMCcsICctbWV0YWxfYmluZGluZycsICctaW1hZScsICc8aW5maWxlLm1hZT4nLCAnLW9tYWUnLCAnPG91dGZpbGUubWFlPic=

> <r_lp_tautomer_probability>
1

> <r_epik_Ionization_Penalty>
8.6647e-06

> <r_epik_Ionization_Penalty_Charging>
1.81162e-08

> <r_epik_Ionization_Penalty_Neutral>
8.64658e-06

> <r_epik_State_Penalty>
-0

> <r_epik_Charging_Adjusted_Penalty>
1.81162e-08

> <i_epik_Tot_Q>
0

> <i_epik_Tot_abs_Q>
0

> <r_epik_Metal_State_Penalty>
-0

> <b_epik_Metal_Only>
0

> <s_lp_Force_Field>
OPLS_2005

> <r_lp_Energy>
23.9123

> <b_lp_Chiralities_Consistent>
1

> <s_lp_Variant>
AV-unprocessed.smi:415-7

> <Gold.Version>
5.8.1

> <Gold.Id.Protein>
6NUR|6NUR_protein|mol2

> <Gold.PLP.Fitness>
50.4653

> <Gold.PLP.PLP>
-45.1854

> <Gold.PLP.part.hbond>
-3.4460

> <Gold.PLP.part.metal>
0.0000

> <Gold.PLP.part.buried>
-6.0202

> <Gold.PLP.part.nonpolar>
-36.4869

> <Gold.PLP.part.repulsive>
1.0312

> <Gold.PLP.ligand.clash>
0.0000

> <Gold.PLP.ligand.torsion>
1.1059

> <Gold.PLP.Chemscore.Hbond>
2.4560

> <Gold.PLP.Chemscore.CHOScore>
0.0000

> <Gold.PLP.Chemscore.Metal>
0.0000

> <Gold.Chemscore.Hbonds>
donor molecule, donor type, donor heavy atom, donor atom, acceptor molecule, acceptor atom, score
      P1  H  6934  6946       L1     2  0.89
      P1  H  7989  7998       L1    14  0.85
      P1  H  8011  8017       L1    10  0.66

> <Gold.PLP.Chemscore.Internal.Correction>
0.1236

> <Gold.Rescore>
     Score         DG    S(hbond)    S(metal)    S(lipo)     H(rot)  DE(clash)    DE(int)     intcor
     16.12     -19.38       2.39        0.00     100.15       2.26       1.74       1.52       ----

> <Gold.Chemscore.Fitness>
16.1239

> <Gold.Chemscore.DG>
-19.3839

> <Gold.Chemscore.ZeroCoef>
-5.4800

> <Gold.Chemscore.Hbond>
2.3904

> <Gold.Chemscore.Metal>
0.0000

> <Gold.Chemscore.Lipo>
100.1464

> <Gold.Chemscore.Internal_Hbond>
0.0000

> <Gold.Chemscore.DEClash>
1.7438

> <Gold.Chemscore.DEInternal>
1.5163

> <Gold.Chemscore.Rot>
2.2645

> <Gold.Chemscore.Internal.Correction>
   9.000000E+99

> <Gold.Chemscore.Hbonds>
donor molecule, donor type, donor heavy atom, donor atom, acceptor molecule, acceptor atom, score
      P1  H  6934  6946       L1     2  0.34
      P1  H  7989  7998       L1    14  0.81
      P1  H  8011  8017       L1    10  0.63

> <Gold.Chemscore.Hbond.Weighted>
-7.9839

> <Gold.Chemscore.Metal.Weighted>
-0.0000

> <Gold.Chemscore.Lipo.Weighted>
-11.7171

> <Gold.Chemscore.Internal_Hbond.Weighted>
0.0000

> <Gold.Chemscore.DEClash.Weighted>
1.7438

> <Gold.Chemscore.DEInternal.Weighted>
1.5163

> <Gold.Chemscore.Rot.Weighted>
5.7972

> <Gold.Chemscore.Internal.Correction.Weighted>
   9.000000E+99

> <Gold.Protein.RotatedTorsions>
[ 6907 6896 6895 6894 ] final   39.41 input  -60.11 | X-H torsion
[ 7974 7965 7964 7962 ] final  164.83 input  175.53 | X-H torsion
[ 8008 7997 7996 7995 ] final   29.51 input   59.86 | X-H torsion
[ 10167 10162 10161 10158 ] final  -60.11 input  -65.29 | X-H torsion
[ 10718 10713 10712 10709 ] final  164.47 input   66.30 | X-H torsion
[ 10763 10752 10751 10750 ] final   33.09 input  -60.55 | X-H torsion
[ 11005 11000 10999 10996 ] final  -21.36 input  -57.11 | X-H torsion

> <Gold.Protein.ActiveResidues>
 VAL166  LYS551  ARG553  GLY616  TRP617  ASP618  TYR619  PRO620  LYS621  CYS622 
 ASP623  PHE694  ASN695  SER759  ASP760  ASP761  ALA762  ILE779  LEU786  VAL792 
 PHE793  MET794  SER795  GLU796  ALA797  LYS798  CYS799  TRP800  GLU811  SER814 

> <Gold.Protein.RotatedAtoms>
  152.1692  134.8848  160.0535 H   0  0  0  0  0  0  0  0  0  0  0  0  # atno 6907 bound_to 6896
  151.9814  133.3754  159.4117 H   0  0  0  0  0  0  0  0  0  0  0  0  # atno 6908 bound_to 6896
  150.6899  134.3957  159.5140 H   0  0  0  0  0  0  0  0  0  0  0  0  # atno 6909 bound_to 6896
  144.7528  139.8383  143.6360 H   0  0  0  0  0  0  0  0  0  0  0  0  # atno 7974 bound_to 7965
  155.0757  140.3205  155.4617 H   0  0  0  0  0  0  0  0  0  0  0  0  # atno 8008 bound_to 7997
  156.2779  140.2104  156.5830 H   0  0  0  0  0  0  0  0  0  0  0  0  # atno 8009 bound_to 7997
  154.7019  140.0506  157.0453 H   0  0  0  0  0  0  0  0  0  0  0  0  # atno 8010 bound_to 7997
  140.6092  143.2382  151.5749 H   0  0  0  0  0  0  0  0  0  0  0  0  # atno 10167 bound_to 10162
  157.0939  131.0425  151.2526 H   0  0  0  0  0  0  0  0  0  0  0  0  # atno 10718 bound_to 10713
  153.0229  135.6396  154.1458 H   0  0  0  0  0  0  0  0  0  0  0  0  # atno 10763 bound_to 10752
  154.1190  135.2848  155.3214 H   0  0  0  0  0  0  0  0  0  0  0  0  # atno 10764 bound_to 10752
  154.6277  135.5503  153.7708 H   0  0  0  0  0  0  0  0  0  0  0  0  # atno 10765 bound_to 10752
  140.8554  133.7827  156.0013 H   0  0  0  0  0  0  0  0  0  0  0  0  # atno 11005 bound_to 11000
  146.1501  139.4581  143.0054 LP  0  0  0  0  0  0  0  0  0  0  0  0  # atno 17320 bound_to 7965
  145.6884  141.0171  143.1569 LP  0  0  0  0  0  0  0  0  0  0  0  0  # atno 17321 bound_to 7965
  139.5348  144.2812  152.1227 LP  0  0  0  0  0  0  0  0  0  0  0  0  # atno 17342 bound_to 10162
  140.2008  144.4660  150.6432 LP  0  0  0  0  0  0  0  0  0  0  0  0  # atno 17343 bound_to 10162
  157.4698  130.7702  149.7313 LP  0  0  0  0  0  0  0  0  0  0  0  0  # atno 17370 bound_to 10713
  155.9891  130.3954  150.3089 LP  0  0  0  0  0  0  0  0  0  0  0  0  # atno 17371 bound_to 10713
  140.8744  134.2688  157.5175 LP  0  0  0  0  0  0  0  0  0  0  0  0  # atno 17394 bound_to 11000
  139.8705  134.9583  156.4297 LP  0  0  0  0  0  0  0  0  0  0  0  0  # atno 17395 bound_to 11000

$$$$
