AV-unprocessed.smi:3263|AV-procd|sdf|12490|dock5
  -GOLD-   2272018393D 1   1.00000     0.00000
 Structure written by MMmdl.
 42 44  0  0  0  0  0  0  0  0  2 V2000
  150.6808  140.5074  155.2285 O   0  0  0  0  0  0  0  0  0  0  0  0
  150.4420  141.6354  155.6604 C   0  0  0  0  0  0  0  0  0  0  0  0
  151.5379  142.4405  156.3635 C   0  0  0  0  0  0  0  0  0  0  0  0
  151.5166  142.2711  157.8992 C   0  0  2  0  0  0  0  0  0  0  0  0
  150.2524  142.8402  158.5782 C   0  0  0  0  0  0  0  0  0  0  0  0
  150.8303  143.7074  159.7130 C   0  0  2  0  0  0  0  0  0  0  0  0
  151.4327  144.9900  159.1107 C   0  0  0  0  0  0  0  0  0  0  0  0
  152.7110  144.4732  158.4257 C   0  0  0  0  0  0  0  0  0  0  0  0
  152.6554  142.9557  158.6979 C   0  0  1  0  0  0  0  0  0  0  0  0
  152.0802  142.9297  160.1101 C   0  0  0  0  0  0  0  0  0  0  0  0
  149.2474  142.2335  155.5357 N   0  0  0  0  0  0  0  0  0  0  0  0
  148.1018  141.6650  154.8370 C   0  0  0  0  0  0  0  0  0  0  0  0
  146.8464  141.6718  155.7258 C   0  0  0  0  0  0  0  0  0  0  0  0
  145.8900  142.7891  155.3598 C   0  0  0  0  0  0  0  0  0  0  0  0
  145.8196  143.3237  154.0549 C   0  0  0  0  0  0  0  0  0  0  0  0
  144.9074  144.3656  153.7865 C   0  0  0  0  0  0  0  0  0  0  0  0
  144.0869  144.8502  154.8264 C   0  0  0  0  0  0  0  0  0  0  0  0
  144.1996  144.2801  156.1109 C   0  0  0  0  0  0  0  0  0  0  0  0
  145.0853  143.2834  156.3286 N   0  3  0  0  0  0  0  0  0  0  0  0
  152.5147  142.1679  155.9619 H   0  0  0  0  0  0  0  0  0  0  0  0
  151.3971  143.4927  156.1140 H   0  0  0  0  0  0  0  0  0  0  0  0
  151.5567  141.2016  158.1155 H   0  0  0  0  0  0  0  0  0  0  0  0
  149.6296  143.4243  157.8993 H   0  0  0  0  0  0  0  0  0  0  0  0
  149.6367  142.0331  158.9770 H   0  0  0  0  0  0  0  0  0  0  0  0
  150.1249  143.8946  160.5230 H   0  0  0  0  0  0  0  0  0  0  0  0
  150.7533  145.4775  158.4107 H   0  0  0  0  0  0  0  0  0  0  0  0
  151.6805  145.7092  159.8924 H   0  0  0  0  0  0  0  0  0  0  0  0
  152.7530  144.7220  157.3660 H   0  0  0  0  0  0  0  0  0  0  0  0
  153.5932  144.9110  158.8949 H   0  0  0  0  0  0  0  0  0  0  0  0
  153.6212  142.4594  158.5966 H   0  0  0  0  0  0  0  0  0  0  0  0
  152.7005  143.4510  160.8413 H   0  0  0  0  0  0  0  0  0  0  0  0
  151.8670  141.9233  160.4749 H   0  0  0  0  0  0  0  0  0  0  0  0
  149.1357  143.1583  155.9260 H   0  0  0  0  0  0  0  0  0  0  0  0
  147.9226  142.2139  153.9108 H   0  0  0  0  0  0  0  0  0  0  0  0
  148.3491  140.6426  154.5496 H   0  0  0  0  0  0  0  0  0  0  0  0
  146.3286  140.7149  155.6460 H   0  0  0  0  0  0  0  0  0  0  0  0
  147.1226  141.7829  156.7753 H   0  0  0  0  0  0  0  0  0  0  0  0
  146.4554  142.9426  153.2689 H   0  0  0  0  0  0  0  0  0  0  0  0
  144.8379  144.7879  152.7947 H   0  0  0  0  0  0  0  0  0  0  0  0
  143.3817  145.6473  154.6415 H   0  0  0  0  0  0  0  0  0  0  0  0
  143.6132  144.5884  156.9641 H   0  0  0  0  0  0  0  0  0  0  0  0
  145.1507  142.8854  157.2660 H   0  0  0  0  0  0  0  0  0  0  0  0
  1  2  2  0  0  0  0
  2  3  1  0  0  0  0
  2 11  1  0  0  0  0
  3  4  1  0  0  0  0
  3 20  1  0  0  0  0
  3 21  1  0  0  0  0
  4  9  1  0  0  0  0
  4  5  1  0  0  0  0
  4 22  1  0  0  0  0
  5  6  1  0  0  0  0
  5 23  1  0  0  0  0
  5 24  1  0  0  0  0
  6 10  1  0  0  0  0
  6  7  1  0  0  0  0
  6 25  1  0  0  0  0
  7  8  1  0  0  0  0
  7 26  1  0  0  0  0
  7 27  1  0  0  0  0
  8  9  1  0  0  0  0
  8 28  1  0  0  0  0
  8 29  1  0  0  0  0
  9 10  1  0  0  0  0
  9 30  1  0  0  0  0
 10 31  1  0  0  0  0
 10 32  1  0  0  0  0
 11 12  1  0  0  0  0
 11 33  1  0  0  0  0
 12 13  1  0  0  0  0
 12 34  1  0  0  0  0
 12 35  1  0  0  0  0
 13 14  1  0  0  0  0
 13 36  1  0  0  0  0
 13 37  1  0  0  0  0
 14 19  1  0  0  0  0
 14 15  2  0  0  0  0
 15 16  1  0  0  0  0
 15 38  1  0  0  0  0
 16 17  2  0  0  0  0
 16 39  1  0  0  0  0
 17 18  1  0  0  0  0
 17 40  1  0  0  0  0
 18 19  2  0  0  0  0
 18 41  1  0  0  0  0
 19 42  1  0  0  0  0
M  CHG  1  19   1
M  END
> <s_m_source_file>
AV-unprocessed.smi

> <i_m_source_file_index>
3263

> <i_lp_mmshare_version>
43012

> <i_f3d_flags>
0

> <s_epik_input>
W0NIMl0xW0NIMl1bQ0BASF0oW0NIMl0yKVtDQEBIXShbQ0gyXVtDQEhdMTIpW0NIMl1DKD1PKVtOSF1bQ0gyXVtDSDJdYzNbY0hdW2NIXVtjSF1bY0hdbjM=

> <s_epik_cmdline>
J2VwaWtfcHl0aG9uJywgJy1waCcsICc3LjAnLCAnLXRuJywgJzgnLCAnLW1hJywgJzIwMCcsICctbWV0YWxfYmluZGluZycsICctaW1hZScsICc8aW5maWxlLm1hZT4nLCAnLW9tYWUnLCAnPG91dGZpbGUubWFlPic=

> <r_epik_Ionization_Penalty>
1.83579

> <r_epik_Ionization_Penalty_Charging>
1.83579

> <r_epik_Ionization_Penalty_Neutral>
2.47288e-08

> <r_epik_State_Penalty>
1.95213

> <r_epik_Charging_Adjusted_Penalty>
3.78793

> <i_epik_Tot_Q>
1

> <i_epik_Tot_abs_Q>
1

> <r_epik_Metal_State_Penalty>
1.97847

> <b_epik_Metal_Only>
0

> <s_lp_Force_Field>
OPLS_2005

> <r_lp_Energy>
51.925

> <b_lp_Chiralities_Consistent>
1

> <s_lp_Variant>
AV-unprocessed.smi:3263-5

> <Gold.Version>
5.8.1

> <Gold.Id.Protein>
6NUR|6NUR_protein|mol2

> <Gold.PLP.Fitness>
46.8696

> <Gold.PLP.PLP>
-43.3925

> <Gold.PLP.part.hbond>
-1.8681

> <Gold.PLP.part.metal>
0.0000

> <Gold.PLP.part.buried>
-6.9159

> <Gold.PLP.part.nonpolar>
-33.3538

> <Gold.PLP.part.repulsive>
0.2567

> <Gold.PLP.ligand.clash>
0.0000

> <Gold.PLP.ligand.torsion>
1.0753

> <Gold.PLP.Chemscore.Hbond>
1.8600

> <Gold.PLP.Chemscore.CHOScore>
0.0000

> <Gold.PLP.Chemscore.Metal>
0.0000

> <Gold.Chemscore.Hbonds>
donor molecule, donor type, donor heavy atom, donor atom, acceptor molecule, acceptor atom, score
      L1  H    11    33       P1  8028  0.94
      P1  H  7989  7998       L1     1  0.99

> <Gold.PLP.Chemscore.Internal.Correction>
0.0478

> <Gold.Rescore>
     Score         DG    S(hbond)    S(metal)    S(lipo)     H(rot)  DE(clash)    DE(int)     intcor
     17.27     -19.87       1.00        0.00     128.65       1.56       1.64       0.96       ----

> <Gold.Chemscore.Fitness>
17.2719

> <Gold.Chemscore.DG>
-19.8666

> <Gold.Chemscore.ZeroCoef>
-5.4800

> <Gold.Chemscore.Hbond>
0.9994

> <Gold.Chemscore.Metal>
0.0000

> <Gold.Chemscore.Lipo>
128.6523

> <Gold.Chemscore.Internal_Hbond>
0.0000

> <Gold.Chemscore.DEClash>
1.6389

> <Gold.Chemscore.DEInternal>
0.9558

> <Gold.Chemscore.Rot>
1.5640

> <Gold.Chemscore.Internal.Correction>
   9.000000E+99

> <Gold.Chemscore.Hbonds>
donor molecule, donor type, donor heavy atom, donor atom, acceptor molecule, acceptor atom, score
      L1  H    11    33       P1  8028  0.90
      P1  H  7989  7998       L1     1  0.36

> <Gold.Chemscore.Hbond.Weighted>
-3.3380

> <Gold.Chemscore.Metal.Weighted>
-0.0000

> <Gold.Chemscore.Lipo.Weighted>
-15.0523

> <Gold.Chemscore.Internal_Hbond.Weighted>
0.0000

> <Gold.Chemscore.DEClash.Weighted>
1.6389

> <Gold.Chemscore.DEInternal.Weighted>
0.9558

> <Gold.Chemscore.Rot.Weighted>
4.0038

> <Gold.Chemscore.Internal.Correction.Weighted>
   9.000000E+99

> <Gold.Protein.RotatedTorsions>
[ 6907 6896 6895 6894 ] final   52.39 input  -60.11 | X-H torsion
[ 7974 7965 7964 7962 ] final  115.28 input  175.53 | X-H torsion
[ 8008 7997 7996 7995 ] final   19.60 input   59.86 | X-H torsion
[ 10167 10162 10161 10158 ] final  150.99 input  -65.29 | X-H torsion
[ 10718 10713 10712 10709 ] final  108.80 input   66.30 | X-H torsion
[ 10763 10752 10751 10750 ] final   29.30 input  -60.55 | X-H torsion
[ 11005 11000 10999 10996 ] final   80.15 input  -57.11 | X-H torsion

> <Gold.Protein.ActiveResidues>
 VAL166  LYS551  ARG553  GLY616  TRP617  ASP618  TYR619  PRO620  LYS621  CYS622 
 ASP623  PHE694  ASN695  SER759  ASP760  ASP761  ALA762  ILE779  LEU786  VAL792 
 PHE793  MET794  SER795  GLU796  ALA797  LYS798  CYS799  TRP800  GLU811  SER814 

> <Gold.Protein.RotatedAtoms>
  152.3228  134.7359  160.0309 H   0  0  0  0  0  0  0  0  0  0  0  0  # atno 6907 bound_to 6896
  151.7802  133.3343  159.3477 H   0  0  0  0  0  0  0  0  0  0  0  0  # atno 6908 bound_to 6896
  150.7379  134.5869  159.6012 H   0  0  0  0  0  0  0  0  0  0  0  0  # atno 6909 bound_to 6896
  145.1939  139.2986  143.4354 H   0  0  0  0  0  0  0  0  0  0  0  0  # atno 7974 bound_to 7965
  154.9231  140.3030  155.5206 H   0  0  0  0  0  0  0  0  0  0  0  0  # atno 8008 bound_to 7997
  156.3008  140.2368  156.4219 H   0  0  0  0  0  0  0  0  0  0  0  0  # atno 8009 bound_to 7997
  154.8311  140.0418  157.1466 H   0  0  0  0  0  0  0  0  0  0  0  0  # atno 8010 bound_to 7997
  139.4844  144.5477  151.7455 H   0  0  0  0  0  0  0  0  0  0  0  0  # atno 10167 bound_to 10162
  157.6570  131.0901  150.6360 H   0  0  0  0  0  0  0  0  0  0  0  0  # atno 10718 bound_to 10713
  153.0439  135.6492  154.0869 H   0  0  0  0  0  0  0  0  0  0  0  0  # atno 10763 bound_to 10752
  154.0571  135.2891  155.3332 H   0  0  0  0  0  0  0  0  0  0  0  0  # atno 10764 bound_to 10752
  154.6682  135.5366  153.8169 H   0  0  0  0  0  0  0  0  0  0  0  0  # atno 10765 bound_to 10752
  139.9145  134.7898  156.1871 H   0  0  0  0  0  0  0  0  0  0  0  0  # atno 11005 bound_to 11000
  146.3431  140.2161  142.8590 LP  0  0  0  0  0  0  0  0  0  0  0  0  # atno 17320 bound_to 7965
  145.0014  140.8635  143.5279 LP  0  0  0  0  0  0  0  0  0  0  0  0  # atno 17321 bound_to 7965
  140.5026  144.1145  150.5975 LP  0  0  0  0  0  0  0  0  0  0  0  0  # atno 17342 bound_to 10162
  140.4044  143.2688  151.9909 LP  0  0  0  0  0  0  0  0  0  0  0  0  # atno 17343 bound_to 10162
  156.6665  130.4527  149.5670 LP  0  0  0  0  0  0  0  0  0  0  0  0  # atno 17370 bound_to 10713
  156.2028  130.6631  151.1186 LP  0  0  0  0  0  0  0  0  0  0  0  0  # atno 17371 bound_to 10713
  141.0606  133.6843  156.1946 LP  0  0  0  0  0  0  0  0  0  0  0  0  # atno 17394 bound_to 11000
  140.6666  134.4912  157.5585 LP  0  0  0  0  0  0  0  0  0  0  0  0  # atno 17395 bound_to 11000

$$$$
