AV-unprocessed.smi:3083|AV-procd|sdf|11745|dock8
  -GOLD-   2272017143D 1   1.00000     0.00000
 Structure written by MMmdl.
 28 29  0  0  0  0  0  0  0  0  2 V2000
  149.1673  138.6094  153.2852 N   0  3  0  0  0  0  0  0  0  0  0  0
  148.0892  139.5073  153.7399 C   0  0  1  0  0  0  0  0  0  0  0  0
  147.2292  138.8353  154.8334 C   0  0  0  0  0  0  0  0  0  0  0  0
  146.1246  139.7750  155.3428 C   0  0  0  0  0  0  0  0  0  0  0  0
  146.6984  141.1211  155.8105 C   0  0  0  0  0  0  0  0  0  0  0  0
  147.4961  141.7996  154.6842 C   0  0  0  0  0  0  0  0  0  0  0  0
  148.6340  140.9085  154.1417 C   0  0  1  0  0  0  0  0  0  0  0  0
  149.7844  140.9016  155.0487 N   0  0  0  0  0  0  0  0  0  0  0  0
  149.9309  141.6350  156.2095 C   0  0  0  0  0  0  0  0  0  0  0  0
  151.1306  141.2978  156.7668 C   0  0  0  0  0  0  0  0  0  0  0  0
  151.6516  140.3205  155.8758 C   0  0  0  0  0  0  0  0  0  0  0  0
  150.8433  140.0823  154.8565 N   0  0  0  0  0  0  0  0  0  0  0  0
  149.7110  138.3134  154.0838 H   0  0  0  0  0  0  0  0  0  0  0  0
  149.7648  139.0993  152.6348 H   0  0  0  0  0  0  0  0  0  0  0  0
  147.4406  139.6535  152.8750 H   0  0  0  0  0  0  0  0  0  0  0  0
  146.7725  137.9283  154.4357 H   0  0  0  0  0  0  0  0  0  0  0  0
  147.8429  138.5102  155.6723 H   0  0  0  0  0  0  0  0  0  0  0  0
  145.3977  139.9475  154.5479 H   0  0  0  0  0  0  0  0  0  0  0  0
  145.5803  139.2991  156.1590 H   0  0  0  0  0  0  0  0  0  0  0  0
  145.8872  141.7751  156.1319 H   0  0  0  0  0  0  0  0  0  0  0  0
  147.3329  140.9718  156.6846 H   0  0  0  0  0  0  0  0  0  0  0  0
  146.8132  142.0406  153.8684 H   0  0  0  0  0  0  0  0  0  0  0  0
  147.8952  142.7532  155.0321 H   0  0  0  0  0  0  0  0  0  0  0  0
  148.9927  141.3790  153.2246 H   0  0  0  0  0  0  0  0  0  0  0  0
  149.1748  142.3313  156.5414 H   0  0  0  0  0  0  0  0  0  0  0  0
  151.5651  141.6838  157.6773 H   0  0  0  0  0  0  0  0  0  0  0  0
  152.5838  139.7788  155.9403 H   0  0  0  0  0  0  0  0  0  0  0  0
  148.7662  137.8007  152.8324 H   0  0  0  0  0  0  0  0  0  0  0  0
  1  2  1  0  0  0  0
  1 13  1  0  0  0  0
  1 14  1  0  0  0  0
  1 28  1  0  0  0  0
  2  7  1  0  0  0  0
  2  3  1  0  0  0  0
  2 15  1  0  0  0  0
  3  4  1  0  0  0  0
  3 16  1  0  0  0  0
  3 17  1  0  0  0  0
  4  5  1  0  0  0  0
  4 18  1  0  0  0  0
  4 19  1  0  0  0  0
  5  6  1  0  0  0  0
  5 20  1  0  0  0  0
  5 21  1  0  0  0  0
  6  7  1  0  0  0  0
  6 22  1  0  0  0  0
  6 23  1  0  0  0  0
  7  8  1  0  0  0  0
  7 24  1  0  0  0  0
  8 12  1  0  0  0  0
  8  9  1  0  0  0  0
  9 10  2  0  0  0  0
  9 25  1  0  0  0  0
 10 11  1  0  0  0  0
 10 26  1  0  0  0  0
 11 12  2  0  0  0  0
 11 27  1  0  0  0  0
M  CHG  1   1   1
M  END
> <s_m_source_file>
AV-unprocessed.smi

> <i_m_source_file_index>
3083

> <i_lp_mmshare_version>
43012

> <i_f3d_flags>
0

> <s_epik_input>
W05IMl1bQ0BASF0xW0NIMl1bQ0gyXVtDSDJdW0NIMl1bQ0BIXTFuMltjSF1bY0hdW2NIXW4y

> <s_epik_cmdline>
J2VwaWtfcHl0aG9uJywgJy1waCcsICc3LjAnLCAnLXRuJywgJzgnLCAnLW1hJywgJzIwMCcsICctbWV0YWxfYmluZGluZycsICctaW1hZScsICc8aW5maWxlLm1hZT4nLCAnLW9tYWUnLCAnPG91dGZpbGUubWFlPic=

> <r_lp_tautomer_probability>
1

> <r_epik_Ionization_Penalty>
0.00385053

> <r_epik_Ionization_Penalty_Charging>
0.0038389

> <r_epik_Ionization_Penalty_Neutral>
1.16305e-05

> <r_epik_State_Penalty>
-0

> <r_epik_Charging_Adjusted_Penalty>
0.0038389

> <i_epik_Tot_Q>
1

> <i_epik_Tot_abs_Q>
1

> <r_epik_Metal_State_Penalty>
-0

> <b_epik_Metal_Only>
0

> <s_lp_Force_Field>
OPLS_2005

> <r_lp_Energy>
16.3847

> <b_lp_Chiralities_Consistent>
1

> <s_lp_Variant>
AV-unprocessed.smi:3083-2

> <Gold.Version>
5.8.1

> <Gold.Id.Protein>
6NUR|6NUR_protein|mol2

> <Gold.PLP.Fitness>
36.1897

> <Gold.PLP.PLP>
-22.4185

> <Gold.PLP.part.hbond>
-3.0000

> <Gold.PLP.part.metal>
0.0000

> <Gold.PLP.part.buried>
-0.3152

> <Gold.PLP.part.nonpolar>
-18.3787

> <Gold.PLP.part.repulsive>
0.1419

> <Gold.PLP.ligand.clash>
0.0000

> <Gold.PLP.ligand.torsion>
0.1770

> <Gold.PLP.Chemscore.Hbond>
3.7200

> <Gold.PLP.Chemscore.CHOScore>
0.9668

> <Gold.PLP.Chemscore.Metal>
0.0000

> <Gold.Chemscore.Hbonds>
donor molecule, donor type, donor heavy atom, donor atom, acceptor molecule, acceptor atom, score
      L1  H     1    14       P1  7957  0.78
      L1  H     1    28       P1  7948  1.98
      P1  H  7989  7998       L1    12  1.00
      L1  C     9    25       P1  8028  0.84

> <Gold.PLP.Chemscore.Internal.Correction>
0.0647

> <Gold.Rescore>
     Score         DG    S(hbond)    S(metal)    S(lipo)     H(rot)  DE(clash)    DE(int)     intcor
     14.68     -16.20       2.44        0.00      43.83       1.00       0.05       1.47       ----

> <Gold.Chemscore.Fitness>
14.6802

> <Gold.Chemscore.DG>
-16.1969

> <Gold.Chemscore.ZeroCoef>
-5.4800

> <Gold.Chemscore.Hbond>
2.4396

> <Gold.Chemscore.Metal>
0.0000

> <Gold.Chemscore.Lipo>
43.8345

> <Gold.Chemscore.Internal_Hbond>
0.0000

> <Gold.Chemscore.DEClash>
0.0462

> <Gold.Chemscore.DEInternal>
1.4705

> <Gold.Chemscore.Rot>
1.0000

> <Gold.Chemscore.Internal.Correction>
   9.000000E+99

> <Gold.Chemscore.Hbonds>
donor molecule, donor type, donor heavy atom, donor atom, acceptor molecule, acceptor atom, score
      L1  H     1    14       P1  7957  0.70
      L1  H     1    28       P1  7948  0.93
      P1  H  7989  7998       L1    12  0.13

> <Gold.Chemscore.Hbond.Weighted>
-8.1483

> <Gold.Chemscore.Metal.Weighted>
-0.0000

> <Gold.Chemscore.Lipo.Weighted>
-5.1286

> <Gold.Chemscore.Internal_Hbond.Weighted>
0.0000

> <Gold.Chemscore.DEClash.Weighted>
0.0462

> <Gold.Chemscore.DEInternal.Weighted>
1.4705

> <Gold.Chemscore.Rot.Weighted>
2.5600

> <Gold.Chemscore.Internal.Correction.Weighted>
   9.000000E+99

> <Gold.Protein.RotatedTorsions>
[ 6907 6896 6895 6894 ] final   30.04 input  -60.11 | X-H torsion
[ 7974 7965 7964 7962 ] final  -46.47 input  175.53 | X-H torsion
[ 8008 7997 7996 7995 ] final   78.81 input   59.86 | X-H torsion
[ 10167 10162 10161 10158 ] final  132.04 input  -65.29 | X-H torsion
[ 10718 10713 10712 10709 ] final  113.95 input   66.30 | X-H torsion
[ 10763 10752 10751 10750 ] final   88.32 input  -60.55 | X-H torsion
[ 11005 11000 10999 10996 ] final  -36.95 input  -57.11 | X-H torsion

> <Gold.Protein.ActiveResidues>
 VAL166  LYS551  ARG553  GLY616  TRP617  ASP618  TYR619  PRO620  LYS621  CYS622 
 ASP623  PHE694  ASN695  SER759  ASP760  ASP761  ALA762  ILE779  LEU786  VAL792 
 PHE793  MET794  SER795  GLU796  ALA797  LYS798  CYS799  TRP800  GLU811  SER814 

> <Gold.Protein.RotatedAtoms>
  152.0402  134.9716  160.0573 H   0  0  0  0  0  0  0  0  0  0  0  0  # atno 6907 bound_to 6896
  152.1158  133.4321  159.4660 H   0  0  0  0  0  0  0  0  0  0  0  0  # atno 6908 bound_to 6896
  150.6846  134.2513  159.4555 H   0  0  0  0  0  0  0  0  0  0  0  0  # atno 6909 bound_to 6896
  145.9715  140.7378  142.9408 H   0  0  0  0  0  0  0  0  0  0  0  0  # atno 7974 bound_to 7965
  155.8610  140.3453  155.5756 H   0  0  0  0  0  0  0  0  0  0  0  0  # atno 8008 bound_to 7997
  155.7933  140.0875  157.2016 H   0  0  0  0  0  0  0  0  0  0  0  0  # atno 8009 bound_to 7997
  154.4012  140.1479  156.3176 H   0  0  0  0  0  0  0  0  0  0  0  0  # atno 8010 bound_to 7997
  139.5357  144.6680  151.4794 H   0  0  0  0  0  0  0  0  0  0  0  0  # atno 10167 bound_to 10162
  157.6309  131.0991  150.7115 H   0  0  0  0  0  0  0  0  0  0  0  0  # atno 10718 bound_to 10713
  153.1757  135.4511  154.9962 H   0  0  0  0  0  0  0  0  0  0  0  0  # atno 10763 bound_to 10752
  154.7996  135.3251  154.7584 H   0  0  0  0  0  0  0  0  0  0  0  0  # atno 10764 bound_to 10752
  153.8055  135.6959  153.4904 H   0  0  0  0  0  0  0  0  0  0  0  0  # atno 10765 bound_to 10752
  140.9914  133.7003  156.1857 H   0  0  0  0  0  0  0  0  0  0  0  0  # atno 11005 bound_to 11000
  144.6838  140.2757  143.7299 LP  0  0  0  0  0  0  0  0  0  0  0  0  # atno 17320 bound_to 7965
  145.7899  139.1923  143.2109 LP  0  0  0  0  0  0  0  0  0  0  0  0  # atno 17321 bound_to 7965
  140.6562  143.8594  150.6838 LP  0  0  0  0  0  0  0  0  0  0  0  0  # atno 17342 bound_to 10162
  140.1974  143.3987  152.1817 LP  0  0  0  0  0  0  0  0  0  0  0  0  # atno 17343 bound_to 10162
  156.7454  130.4752  149.5468 LP  0  0  0  0  0  0  0  0  0  0  0  0  # atno 17370 bound_to 10713
  156.1512  130.6311  151.0598 LP  0  0  0  0  0  0  0  0  0  0  0  0  # atno 17371 bound_to 10713
  140.7034  134.4540  157.5585 LP  0  0  0  0  0  0  0  0  0  0  0  0  # atno 17394 bound_to 11000
  139.8994  134.8592  156.1961 LP  0  0  0  0  0  0  0  0  0  0  0  0  # atno 17395 bound_to 11000

$$$$
