AV-unprocessed.smi:2027|AV-procd|sdf|8211|dock5
  -GOLD-   2272010473D 1   1.00000     0.00000
 Structure written by MMmdl.
 50 52  0  0  0  0  0  0  0  0  2 V2000
  153.2165  142.4336  160.9233 C   0  0  0  0  0  0  0  0  0  0  0  0
  152.3525  142.1920  159.6981 C   0  0  0  0  0  0  0  0  0  0  0  0
  152.5920  141.0483  158.9032 C   0  0  0  0  0  0  0  0  0  0  0  0
  151.8115  140.7872  157.7560 C   0  0  0  0  0  0  0  0  0  0  0  0
  151.8725  139.7474  156.8441 N   0  0  0  0  0  0  0  0  0  0  0  0
  150.8897  140.0658  156.0071 C   0  0  0  0  0  0  0  0  0  0  0  0
  150.1991  141.1926  156.2672 N   0  0  0  0  0  0  0  0  0  0  0  0
  149.0957  141.7391  155.4976 C   0  0  0  0  0  0  0  0  0  0  0  0
  148.6380  140.7941  154.3698 C   0  0  2  0  0  0  0  0  0  0  0  0
  149.4835  140.9555  153.2461 O   0  0  0  0  0  0  0  0  0  0  0  0
  147.1907  141.0876  153.9333 C   0  0  0  0  0  0  0  0  0  0  0  0
  146.5487  139.9019  153.3055 N   0  3  1  0  0  0  0  0  0  0  0  0
  147.1394  139.5624  151.9901 C   0  0  0  0  0  0  0  0  0  0  0  0
  146.4739  138.7217  154.2025 C   0  0  0  0  0  0  0  0  0  0  0  0
  146.0428  137.4895  153.4517 C   0  0  0  0  0  0  0  0  0  0  0  0
  146.5019  136.1533  153.6331 C   0  0  0  0  0  0  0  0  0  0  0  0
  145.9321  135.2962  152.8027 N   0  0  0  0  0  0  0  0  0  0  0  0
  145.0856  136.0485  152.0707 N   0  0  0  0  0  0  0  0  0  0  0  0
  144.2782  135.4216  151.0460 C   0  0  0  0  0  0  0  0  0  0  0  0
  145.1296  137.3753  152.4407 C   0  0  0  0  0  0  0  0  0  0  0  0
  150.7753  141.7080  157.4236 C   0  0  0  0  0  0  0  0  0  0  0  0
  150.5276  142.8498  158.2061 C   0  0  0  0  0  0  0  0  0  0  0  0
  151.3190  143.0975  159.3470 C   0  0  0  0  0  0  0  0  0  0  0  0
  151.0466  144.3364  160.1818 C   0  0  0  0  0  0  0  0  0  0  0  0
  153.9019  141.6036  161.0973 H   0  0  0  0  0  0  0  0  0  0  0  0
  152.5976  142.5460  161.8139 H   0  0  0  0  0  0  0  0  0  0  0  0
  153.8105  143.3391  160.7972 H   0  0  0  0  0  0  0  0  0  0  0  0
  153.3808  140.3598  159.1689 H   0  0  0  0  0  0  0  0  0  0  0  0
  150.6592  139.4451  155.1533 H   0  0  0  0  0  0  0  0  0  0  0  0
  148.2684  141.9377  156.1806 H   0  0  0  0  0  0  0  0  0  0  0  0
  149.4005  142.7044  155.0908 H   0  0  0  0  0  0  0  0  0  0  0  0
  148.7265  139.7647  154.7179 H   0  0  0  0  0  0  0  0  0  0  0  0
  149.2116  140.3472  152.5746 H   0  0  0  0  0  0  0  0  0  0  0  0
  146.5913  141.4165  154.7837 H   0  0  0  0  0  0  0  0  0  0  0  0
  147.2081  141.9311  153.2426 H   0  0  0  0  0  0  0  0  0  0  0  0
  148.1731  139.2317  152.1002 H   0  0  0  0  0  0  0  0  0  0  0  0
  147.1258  140.4184  151.3161 H   0  0  0  0  0  0  0  0  0  0  0  0
  146.5756  138.7620  151.5096 H   0  0  0  0  0  0  0  0  0  0  0  0
  147.4541  138.5490  154.6489 H   0  0  0  0  0  0  0  0  0  0  0  0
  145.8016  138.9432  155.0330 H   0  0  0  0  0  0  0  0  0  0  0  0
  147.2346  135.7845  154.3358 H   0  0  0  0  0  0  0  0  0  0  0  0
  143.6344  136.1626  150.5708 H   0  0  0  0  0  0  0  0  0  0  0  0
  143.6552  134.6441  151.4902 H   0  0  0  0  0  0  0  0  0  0  0  0
  144.9239  134.9748  150.2894 H   0  0  0  0  0  0  0  0  0  0  0  0
  144.5162  138.1216  151.9572 H   0  0  0  0  0  0  0  0  0  0  0  0
  149.7369  143.5311  157.9285 H   0  0  0  0  0  0  0  0  0  0  0  0
  150.2803  144.9633  159.7248 H   0  0  0  0  0  0  0  0  0  0  0  0
  151.9501  144.9377  160.2846 H   0  0  0  0  0  0  0  0  0  0  0  0
  150.7013  144.0558  161.1772 H   0  0  0  0  0  0  0  0  0  0  0  0
  145.5898  140.1670  153.1286 H   0  0  0  0  0  0  0  0  0  0  0  0
  1  2  1  0  0  0  0
  1 25  1  0  0  0  0
  1 26  1  0  0  0  0
  1 27  1  0  0  0  0
  2 23  1  0  0  0  0
  2  3  2  0  0  0  0
  3  4  1  0  0  0  0
  3 28  1  0  0  0  0
  4 21  2  0  0  0  0
  4  5  1  0  0  0  0
  5  6  2  0  0  0  0
  6  7  1  0  0  0  0
  6 29  1  0  0  0  0
  7  8  1  0  0  0  0
  7 21  1  0  0  0  0
  8  9  1  0  0  0  0
  8 30  1  0  0  0  0
  8 31  1  0  0  0  0
  9 10  1  0  0  0  0
  9 11  1  0  0  0  0
  9 32  1  0  0  0  0
 10 33  1  0  0  0  0
 11 12  1  0  0  0  0
 11 34  1  0  0  0  0
 11 35  1  0  0  0  0
 12 13  1  0  0  0  0
 12 14  1  0  0  0  0
 12 50  1  0  0  0  0
 13 36  1  0  0  0  0
 13 37  1  0  0  0  0
 13 38  1  0  0  0  0
 14 15  1  0  0  0  0
 14 39  1  0  0  0  0
 14 40  1  0  0  0  0
 15 20  2  0  0  0  0
 15 16  1  0  0  0  0
 16 17  2  0  0  0  0
 16 41  1  0  0  0  0
 17 18  1  0  0  0  0
 18 19  1  0  0  0  0
 18 20  1  0  0  0  0
 19 42  1  0  0  0  0
 19 43  1  0  0  0  0
 19 44  1  0  0  0  0
 20 45  1  0  0  0  0
 21 22  1  0  0  0  0
 22 23  2  0  0  0  0
 22 46  1  0  0  0  0
 23 24  1  0  0  0  0
 24 47  1  0  0  0  0
 24 48  1  0  0  0  0
 24 49  1  0  0  0  0
M  CHG  1  12   1
M  END
> <s_m_source_file>
AV-unprocessed.smi

> <i_m_source_file_index>
2027

> <i_lp_mmshare_version>
43012

> <i_f3d_flags>
0

> <s_epik_input>
W0NIM11jKFtjSF0xKWMoW0NIM10pW2NIXWMoYzEyKW4oW2NIXW4yKVtDSDJdW0NASF0oW09IXSlbQ0gyXU4oW0NIM10pW0NIMl1jM1tjSF1ubihbQ0gzXSlbY0hdMw==

> <s_epik_cmdline>
J2VwaWtfcHl0aG9uJywgJy1waCcsICc3LjAnLCAnLXRuJywgJzgnLCAnLW1hJywgJzIwMCcsICctbWV0YWxfYmluZGluZycsICctaW1hZScsICc8aW5maWxlLm1hZT4nLCAnLW9tYWUnLCAnPG91dGZpbGUubWFlPic=

> <r_lp_tautomer_probability>
1

> <r_epik_Ionization_Penalty>
0.646578

> <r_epik_Ionization_Penalty_Charging>
0.559419

> <r_epik_Ionization_Penalty_Neutral>
0.087159

> <r_epik_State_Penalty>
0.661677

> <r_epik_Charging_Adjusted_Penalty>
1.2211

> <i_epik_Tot_Q>
1

> <i_epik_Tot_abs_Q>
1

> <r_epik_Metal_State_Penalty>
0.649174

> <b_epik_Metal_Only>
0

> <s_lp_Force_Field>
OPLS_2005

> <r_lp_Energy>
8.87495

> <b_lp_Chiralities_Consistent>
1

> <s_lp_Variant>
AV-unprocessed.smi:2027-3

> <Gold.Version>
5.8.1

> <Gold.Id.Protein>
6NUR|6NUR_protein|mol2

> <Gold.PLP.Fitness>
59.1553

> <Gold.PLP.PLP>
-43.7982

> <Gold.PLP.part.hbond>
-2.9755

> <Gold.PLP.part.metal>
0.0000

> <Gold.PLP.part.buried>
-1.6024

> <Gold.PLP.part.nonpolar>
-40.0751

> <Gold.PLP.part.repulsive>
0.0839

> <Gold.PLP.ligand.clash>
0.0000

> <Gold.PLP.ligand.torsion>
0.9672

> <Gold.PLP.Chemscore.Hbond>
3.7062

> <Gold.PLP.Chemscore.CHOScore>
2.0000

> <Gold.PLP.Chemscore.Metal>
0.0000

> <Gold.Chemscore.Hbonds>
donor molecule, donor type, donor heavy atom, donor atom, acceptor molecule, acceptor atom, score
      L1  H    10    33       P1  7957  0.67
      L1  H    12    50       P1 10175  1.95
      P1  H  7989  7998       L1    10  0.15
      P1  H  8011  8017       L1    10  1.00
      L1  C    20    45       P1 10171  1.00
      L1  C    20    45       P1 10175  1.00

> <Gold.PLP.Chemscore.Internal.Correction>
0.1730

> <Gold.Rescore>
     Score         DG    S(hbond)    S(metal)    S(lipo)     H(rot)  DE(clash)    DE(int)     intcor
     17.79     -20.46       2.30        0.00     117.12       2.50       0.34       2.33       ----

> <Gold.Chemscore.Fitness>
17.7935

> <Gold.Chemscore.DG>
-20.4565

> <Gold.Chemscore.ZeroCoef>
-5.4800

> <Gold.Chemscore.Hbond>
2.3009

> <Gold.Chemscore.Metal>
0.0000

> <Gold.Chemscore.Lipo>
117.1241

> <Gold.Chemscore.Internal_Hbond>
0.0000

> <Gold.Chemscore.DEClash>
0.3368

> <Gold.Chemscore.DEInternal>
2.3262

> <Gold.Chemscore.Rot>
2.5047

> <Gold.Chemscore.Internal.Correction>
   9.000000E+99

> <Gold.Chemscore.Hbonds>
donor molecule, donor type, donor heavy atom, donor atom, acceptor molecule, acceptor atom, score
      L1  H    10    33       P1  7957  0.64
      L1  H    12    50       P1 10175  0.91
      P1  H  7989  7998       L1    10  0.10
      P1  H  8011  8017       L1    10  0.35

> <Gold.Chemscore.Hbond.Weighted>
-7.6850

> <Gold.Chemscore.Metal.Weighted>
-0.0000

> <Gold.Chemscore.Lipo.Weighted>
-13.7035

> <Gold.Chemscore.Internal_Hbond.Weighted>
0.0000

> <Gold.Chemscore.DEClash.Weighted>
0.3368

> <Gold.Chemscore.DEInternal.Weighted>
2.3262

> <Gold.Chemscore.Rot.Weighted>
6.4120

> <Gold.Chemscore.Internal.Correction.Weighted>
   9.000000E+99

> <Gold.Protein.RotatedTorsions>
[ 6907 6896 6895 6894 ] final -146.62 input  -60.11 | X-H torsion
[ 7974 7965 7964 7962 ] final -179.41 input  175.53 | X-H torsion
[ 8008 7997 7996 7995 ] final  -41.98 input   59.86 | X-H torsion
[ 10167 10162 10161 10158 ] final   31.88 input  -65.29 | X-H torsion
[ 10718 10713 10712 10709 ] final    4.59 input   66.30 | X-H torsion
[ 10763 10752 10751 10750 ] final   91.20 input  -60.55 | X-H torsion
[ 11005 11000 10999 10996 ] final  -55.96 input  -57.11 | X-H torsion

> <Gold.Protein.ActiveResidues>
 VAL166  LYS551  ARG553  GLY616  TRP617  ASP618  TYR619  PRO620  LYS621  CYS622 
 ASP623  PHE694  ASN695  SER759  ASP760  ASP761  ALA762  ILE779  LEU786  VAL792 
 PHE793  MET794  SER795  GLU796  ALA797  LYS798  CYS799  TRP800  GLU811  SER814 

> <Gold.Protein.RotatedAtoms>
  151.1442  133.4950  159.2596 H   0  0  0  0  0  0  0  0  0  0  0  0  # atno 6907 bound_to 6896
  151.1622  135.0278  159.8725 H   0  0  0  0  0  0  0  0  0  0  0  0  # atno 6908 bound_to 6896
  152.5463  134.1315  159.8494 H   0  0  0  0  0  0  0  0  0  0  0  0  # atno 6909 bound_to 6896
  144.7136  140.0722  143.6429 H   0  0  0  0  0  0  0  0  0  0  0  0  # atno 7974 bound_to 7965
  154.4001  140.1485  156.3280 H   0  0  0  0  0  0  0  0  0  0  0  0  # atno 8008 bound_to 7997
  155.8469  140.3459  155.5646 H   0  0  0  0  0  0  0  0  0  0  0  0  # atno 8009 bound_to 7997
  155.8027  140.0872  157.1939 H   0  0  0  0  0  0  0  0  0  0  0  0  # atno 8010 bound_to 7997
  140.4548  144.0994  150.6199 H   0  0  0  0  0  0  0  0  0  0  0  0  # atno 10167 bound_to 10162
  156.8948  130.5700  149.5649 H   0  0  0  0  0  0  0  0  0  0  0  0  # atno 10718 bound_to 10713
  153.2057  135.4406  155.0319 H   0  0  0  0  0  0  0  0  0  0  0  0  # atno 10763 bound_to 10752
  154.8172  135.3320  154.7145 H   0  0  0  0  0  0  0  0  0  0  0  0  # atno 10764 bound_to 10752
  153.7587  135.6993  153.4986 H   0  0  0  0  0  0  0  0  0  0  0  0  # atno 10765 bound_to 10752
  141.1098  133.6611  156.4547 H   0  0  0  0  0  0  0  0  0  0  0  0  # atno 11005 bound_to 11000
  145.9773  139.2915  143.1063 LP  0  0  0  0  0  0  0  0  0  0  0  0  # atno 17320 bound_to 7965
  145.9050  140.9218  143.0483 LP  0  0  0  0  0  0  0  0  0  0  0  0  # atno 17321 bound_to 7965
  140.4164  143.2632  151.9770 LP  0  0  0  0  0  0  0  0  0  0  0  0  # atno 17342 bound_to 10162
  139.4800  144.5870  151.7836 LP  0  0  0  0  0  0  0  0  0  0  0  0  # atno 17343 bound_to 10162
  156.0611  130.5663  150.9194 LP  0  0  0  0  0  0  0  0  0  0  0  0  # atno 17370 bound_to 10713
  157.6062  131.0939  150.8876 LP  0  0  0  0  0  0  0  0  0  0  0  0  # atno 17371 bound_to 10713
  140.4806  134.6668  157.5169 LP  0  0  0  0  0  0  0  0  0  0  0  0  # atno 17394 bound_to 11000
  139.9986  134.6872  155.9568 LP  0  0  0  0  0  0  0  0  0  0  0  0  # atno 17395 bound_to 11000

$$$$
