AV-unprocessed.smi:2472|AV-procd|sdf|9742|dock6
  -GOLD-   2272013383D 1   1.00000     0.00000
 Structure written by MMmdl.
 48 50  0  0  0  0  0  0  0  0  2 V2000
  146.3128  131.5790  150.8593 C   0  0  0  0  0  0  0  0  0  0  0  0
  145.5848  132.9113  150.8957 C   0  0  0  0  0  0  0  0  0  0  0  0
  144.3526  133.0503  150.2200 C   0  0  0  0  0  0  0  0  0  0  0  0
  143.6958  134.2293  150.2429 N   0  3  0  0  0  0  0  0  0  0  0  0
  144.1675  135.3154  150.8896 C   0  0  0  0  0  0  0  0  0  0  0  0
  145.3915  135.2429  151.5835 C   0  0  0  0  0  0  0  0  0  0  0  0
  146.1116  134.0215  151.6042 C   0  0  0  0  0  0  0  0  0  0  0  0
  147.3621  133.8816  152.2685 N   0  0  0  0  0  0  0  0  0  0  0  0
  147.7290  134.3983  153.4532 C   0  0  0  0  0  0  0  0  0  0  0  0
  147.0182  135.1079  154.1647 O   0  0  0  0  0  0  0  0  0  0  0  0
  148.9722  134.0104  153.7895 N   0  0  0  0  0  0  0  0  0  0  0  0
  149.7171  134.3303  155.0219 C   0  0  0  0  0  0  0  0  0  0  0  0
  150.3938  135.7309  154.9774 C   0  0  0  0  0  0  0  0  0  0  0  0
  151.5877  135.8469  155.2571 O   0  0  0  0  0  0  0  0  0  0  0  0
  149.6365  136.7898  154.6464 N   0  0  0  0  0  0  0  0  0  0  0  0
  150.1115  138.1608  154.5453 C   0  0  0  0  0  0  0  0  0  0  0  0
  150.9831  138.5889  155.7071 C   0  0  0  0  0  0  0  0  0  0  0  0
  151.1208  140.0494  156.0678 C   0  0  0  0  0  0  0  0  0  0  0  0
  152.2932  139.3045  155.4755 C   0  0  0  0  0  0  0  0  0  0  0  0
  148.7240  134.2987  156.2087 C   0  0  0  0  0  0  0  0  0  0  0  0
  149.4911  133.7228  157.3971 C   0  0  0  0  0  0  0  0  0  0  0  0
  150.4011  132.6746  156.7711 C   0  0  0  0  0  0  0  0  0  0  0  0
  150.7405  133.2040  155.3717 C   0  0  0  0  0  0  0  0  0  0  0  0
  145.7429  130.8313  150.3071 H   0  0  0  0  0  0  0  0  0  0  0  0
  146.4699  131.2021  151.8704 H   0  0  0  0  0  0  0  0  0  0  0  0
  147.2836  131.6889  150.3752 H   0  0  0  0  0  0  0  0  0  0  0  0
  143.8738  132.2586  149.6622 H   0  0  0  0  0  0  0  0  0  0  0  0
  143.5593  136.2059  150.8284 H   0  0  0  0  0  0  0  0  0  0  0  0
  145.7635  136.1275  152.0781 H   0  0  0  0  0  0  0  0  0  0  0  0
  148.0118  133.2366  151.8431 H   0  0  0  0  0  0  0  0  0  0  0  0
  149.4618  133.4223  153.1312 H   0  0  0  0  0  0  0  0  0  0  0  0
  148.6634  136.6268  154.4345 H   0  0  0  0  0  0  0  0  0  0  0  0
  150.6634  138.2817  153.6119 H   0  0  0  0  0  0  0  0  0  0  0  0
  149.2549  138.8351  154.4971 H   0  0  0  0  0  0  0  0  0  0  0  0
  150.9539  137.9014  156.5508 H   0  0  0  0  0  0  0  0  0  0  0  0
  150.6185  140.7788  155.4353 H   0  0  0  0  0  0  0  0  0  0  0  0
  151.1690  140.3035  157.1247 H   0  0  0  0  0  0  0  0  0  0  0  0
  153.1218  139.0603  156.1373 H   0  0  0  0  0  0  0  0  0  0  0  0
  152.5698  139.5387  154.4494 H   0  0  0  0  0  0  0  0  0  0  0  0
  148.2958  135.2749  156.4432 H   0  0  0  0  0  0  0  0  0  0  0  0
  147.8844  133.6384  155.9851 H   0  0  0  0  0  0  0  0  0  0  0  0
  150.0909  134.5029  157.8674 H   0  0  0  0  0  0  0  0  0  0  0  0
  148.8332  133.3045  158.1593 H   0  0  0  0  0  0  0  0  0  0  0  0
  151.2908  132.4848  157.3723 H   0  0  0  0  0  0  0  0  0  0  0  0
  149.8586  131.7325  156.6813 H   0  0  0  0  0  0  0  0  0  0  0  0
  150.7145  132.3744  154.6645 H   0  0  0  0  0  0  0  0  0  0  0  0
  151.7685  133.5690  155.3553 H   0  0  0  0  0  0  0  0  0  0  0  0
  142.8077  134.3040  149.7459 H   0  0  0  0  0  0  0  0  0  0  0  0
  1  2  1  0  0  0  0
  1 24  1  0  0  0  0
  1 25  1  0  0  0  0
  1 26  1  0  0  0  0
  2  7  1  0  0  0  0
  2  3  2  0  0  0  0
  3  4  1  0  0  0  0
  3 27  1  0  0  0  0
  4  5  2  0  0  0  0
  4 48  1  0  0  0  0
  5  6  1  0  0  0  0
  5 28  1  0  0  0  0
  6  7  2  0  0  0  0
  6 29  1  0  0  0  0
  7  8  1  0  0  0  0
  8  9  1  0  0  0  0
  8 30  1  0  0  0  0
  9 10  2  0  0  0  0
  9 11  1  0  0  0  0
 11 12  1  0  0  0  0
 11 31  1  0  0  0  0
 12 23  1  0  0  0  0
 12 13  1  0  0  0  0
 12 20  1  0  0  0  0
 13 14  2  0  0  0  0
 13 15  1  0  0  0  0
 15 16  1  0  0  0  0
 15 32  1  0  0  0  0
 16 17  1  0  0  0  0
 16 33  1  0  0  0  0
 16 34  1  0  0  0  0
 17 19  1  0  0  0  0
 17 18  1  0  0  0  0
 17 35  1  0  0  0  0
 18 19  1  0  0  0  0
 18 36  1  0  0  0  0
 18 37  1  0  0  0  0
 19 38  1  0  0  0  0
 19 39  1  0  0  0  0
 20 21  1  0  0  0  0
 20 40  1  0  0  0  0
 20 41  1  0  0  0  0
 21 22  1  0  0  0  0
 21 42  1  0  0  0  0
 21 43  1  0  0  0  0
 22 23  1  0  0  0  0
 22 44  1  0  0  0  0
 22 45  1  0  0  0  0
 23 46  1  0  0  0  0
 23 47  1  0  0  0  0
M  CHG  1   4   1
M  END
> <s_m_source_file>
AV-unprocessed.smi

> <i_m_source_file_index>
2472

> <i_lp_mmshare_version>
43012

> <i_f3d_flags>
0

> <s_epik_input>
W0NIM11jMVtjSF1uW2NIXVtjSF1jMVtOSF1DKD1PKVtOSF1DMihbQ0gyXVtDSDJdW0NIMl1bQ0gyXTIpQyg9TylbTkhdW0NIMl1bQ0hdM1tDSDJdW0NIMl0z

> <s_epik_cmdline>
J2VwaWtfcHl0aG9uJywgJy1waCcsICc3LjAnLCAnLXRuJywgJzgnLCAnLW1hJywgJzIwMCcsICctbWV0YWxfYmluZGluZycsICctaW1hZScsICc8aW5maWxlLm1hZT4nLCAnLW9tYWUnLCAnPG91dGZpbGUubWFlPic=

> <r_epik_Ionization_Penalty>
0.772167

> <r_epik_Ionization_Penalty_Charging>
0.772149

> <r_epik_Ionization_Penalty_Neutral>
1.87678e-05

> <r_epik_State_Penalty>
0.800952

> <r_epik_Charging_Adjusted_Penalty>
1.5731

> <i_epik_Tot_Q>
1

> <i_epik_Tot_abs_Q>
1

> <r_epik_Metal_State_Penalty>
0.9454

> <b_epik_Metal_Only>
0

> <s_lp_Force_Field>
OPLS_2005

> <r_lp_Energy>
39.076

> <b_lp_Chiralities_Consistent>
1

> <s_lp_Variant>
AV-unprocessed.smi:2472-2

> <Gold.Version>
5.8.1

> <Gold.Id.Protein>
6NUR|6NUR_protein|mol2

> <Gold.PLP.Fitness>
41.7243

> <Gold.PLP.PLP>
-35.0620

> <Gold.PLP.part.hbond>
-5.0000

> <Gold.PLP.part.metal>
0.0000

> <Gold.PLP.part.buried>
0.3464

> <Gold.PLP.part.nonpolar>
-30.9696

> <Gold.PLP.part.repulsive>
0.4087

> <Gold.PLP.ligand.clash>
0.0000

> <Gold.PLP.ligand.torsion>
1.4948

> <Gold.PLP.Chemscore.Hbond>
3.0000

> <Gold.PLP.Chemscore.CHOScore>
0.0000

> <Gold.PLP.Chemscore.Metal>
0.0000

> <Gold.Chemscore.Hbonds>
donor molecule, donor type, donor heavy atom, donor atom, acceptor molecule, acceptor atom, score
      L1  H     4    48       P1 10186  2.00
      P1  H 10752 10763       L1    14  0.94

> <Gold.PLP.Chemscore.Internal.Correction>
0.6519

> <Gold.Rescore>
     Score         DG    S(hbond)    S(metal)    S(lipo)     H(rot)  DE(clash)    DE(int)     intcor
     12.93     -17.83       1.96        0.00      85.21       1.63       1.27       3.63       ----

> <Gold.Chemscore.Fitness>
12.9310

> <Gold.Chemscore.DG>
-17.8316

> <Gold.Chemscore.ZeroCoef>
-5.4800

> <Gold.Chemscore.Hbond>
1.9615

> <Gold.Chemscore.Metal>
0.0000

> <Gold.Chemscore.Lipo>
85.2085

> <Gold.Chemscore.Internal_Hbond>
0.0000

> <Gold.Chemscore.DEClash>
1.2737

> <Gold.Chemscore.DEInternal>
3.6269

> <Gold.Chemscore.Rot>
1.6286

> <Gold.Chemscore.Internal.Correction>
   9.000000E+99

> <Gold.Chemscore.Hbonds>
donor molecule, donor type, donor heavy atom, donor atom, acceptor molecule, acceptor atom, score
      L1  H     4    48       P1 10186  0.98
      P1  H 10752 10763       L1    14  0.90

> <Gold.Chemscore.Hbond.Weighted>
-6.5514

> <Gold.Chemscore.Metal.Weighted>
-0.0000

> <Gold.Chemscore.Lipo.Weighted>
-9.9694

> <Gold.Chemscore.Internal_Hbond.Weighted>
0.0000

> <Gold.Chemscore.DEClash.Weighted>
1.2737

> <Gold.Chemscore.DEInternal.Weighted>
3.6269

> <Gold.Chemscore.Rot.Weighted>
4.1692

> <Gold.Chemscore.Internal.Correction.Weighted>
   9.000000E+99

> <Gold.Protein.RotatedTorsions>
[ 6907 6896 6895 6894 ] final  -26.26 input  -60.11 | X-H torsion
[ 7974 7965 7964 7962 ] final    9.60 input  175.53 | X-H torsion
[ 8008 7997 7996 7995 ] final -102.72 input   59.86 | X-H torsion
[ 10167 10162 10161 10158 ] final  -76.04 input  -65.29 | X-H torsion
[ 10718 10713 10712 10709 ] final  -36.10 input   66.30 | X-H torsion
[ 10763 10752 10751 10750 ] final   61.50 input  -60.55 | X-H torsion
[ 11005 11000 10999 10996 ] final   42.49 input  -57.11 | X-H torsion

> <Gold.Protein.ActiveResidues>
 VAL166  LYS551  ARG553  GLY616  TRP617  ASP618  TYR619  PRO620  LYS621  CYS622 
 ASP623  PHE694  ASN695  SER759  ASP760  ASP761  ALA762  ILE779  LEU786  VAL792 
 PHE793  MET794  SER795  GLU796  ALA797  LYS798  CYS799  TRP800  GLU811  SER814 

> <Gold.Protein.RotatedAtoms>
  151.1634  135.0284  159.8720 H   0  0  0  0  0  0  0  0  0  0  0  0  # atno 6907 bound_to 6896
  152.5451  134.1252  159.8426 H   0  0  0  0  0  0  0  0  0  0  0  0  # atno 6908 bound_to 6896
  151.1350  133.4964  159.2630 H   0  0  0  0  0  0  0  0  0  0  0  0  # atno 6909 bound_to 6896
  146.2401  139.9759  142.8441 H   0  0  0  0  0  0  0  0  0  0  0  0  # atno 7974 bound_to 7965
  154.8606  140.0427  157.1663 H   0  0  0  0  0  0  0  0  0  0  0  0  # atno 8008 bound_to 7997
  154.8844  140.2977  155.5386 H   0  0  0  0  0  0  0  0  0  0  0  0  # atno 8009 bound_to 7997
  156.2998  140.2405  156.3851 H   0  0  0  0  0  0  0  0  0  0  0  0  # atno 8010 bound_to 7997
  140.4891  143.2384  151.7936 H   0  0  0  0  0  0  0  0  0  0  0  0  # atno 10167 bound_to 10162
  156.3308  130.4279  149.7874 H   0  0  0  0  0  0  0  0  0  0  0  0  # atno 10718 bound_to 10713
  152.9952  135.5498  154.6043 H   0  0  0  0  0  0  0  0  0  0  0  0  # atno 10763 bound_to 10752
  154.5377  135.2818  155.1125 H   0  0  0  0  0  0  0  0  0  0  0  0  # atno 10764 bound_to 10752
  154.2415  135.6415  153.5261 H   0  0  0  0  0  0  0  0  0  0  0  0  # atno 10765 bound_to 10752
  140.1734  134.4193  155.8243 H   0  0  0  0  0  0  0  0  0  0  0  0  # atno 11005 bound_to 11000
  145.1637  140.9686  143.4362 LP  0  0  0  0  0  0  0  0  0  0  0  0  # atno 17320 bound_to 7965
  145.0092  139.3526  143.6128 LP  0  0  0  0  0  0  0  0  0  0  0  0  # atno 17321 bound_to 7965
  139.4847  144.4673  151.9468 LP  0  0  0  0  0  0  0  0  0  0  0  0  # atno 17342 bound_to 10162
  140.3759  144.2796  150.5914 LP  0  0  0  0  0  0  0  0  0  0  0  0  # atno 17343 bound_to 10162
  156.5147  130.8188  151.3182 LP  0  0  0  0  0  0  0  0  0  0  0  0  # atno 17370 bound_to 10713
  157.7430  130.9902  150.2558 LP  0  0  0  0  0  0  0  0  0  0  0  0  # atno 17371 bound_to 10713
  141.2219  133.6966  156.7804 LP  0  0  0  0  0  0  0  0  0  0  0  0  # atno 17394 bound_to 11000
  140.2351  134.8656  157.3516 LP  0  0  0  0  0  0  0  0  0  0  0  0  # atno 17395 bound_to 11000

$$$$
