AV-unprocessed.smi:1071|AV-procd|sdf|4678|dock7
  -GOLD-   22720 3193D 1   1.00000     0.00000
 Structure written by MMmdl.
 47 48  0  0  0  0  0  0  0  0  2 V2000
  152.1017  144.5818  159.2174 C   0  0  0  0  0  0  0  0  0  0  0  0
  151.0661  143.8027  158.6448 O   0  0  0  0  0  0  0  0  0  0  0  0
  151.4510  143.2071  157.4170 C   0  0  0  0  0  0  0  0  0  0  0  0
  150.5352  142.0143  157.1262 C   0  0  0  0  0  0  0  0  0  0  0  0
  150.8929  141.4556  155.8656 O   0  0  0  0  0  0  0  0  0  0  0  0
  150.4489  140.1860  155.5575 C   0  0  0  0  0  0  0  0  0  0  0  0
  150.0415  139.3416  156.6090 C   0  0  0  0  0  0  0  0  0  0  0  0
  149.5857  138.0460  156.3011 C   0  0  0  0  0  0  0  0  0  0  0  0
  149.5398  137.6357  154.9538 C   0  0  0  0  0  0  0  0  0  0  0  0
  149.0956  136.3164  154.6697 N   0  0  0  0  0  0  0  0  0  0  0  0
  148.9310  135.2856  155.5228 C   0  0  0  0  0  0  0  0  0  0  0  0
  149.3047  135.3246  156.6953 O   0  0  0  0  0  0  0  0  0  0  0  0
  148.4348  134.1586  154.9452 N   0  0  0  0  0  0  0  0  0  0  0  0
  148.2670  133.9693  153.4888 C   0  0  0  0  0  0  0  0  0  0  0  0
  146.8021  133.6738  153.1304 C   0  0  0  0  0  0  0  0  0  0  0  0
  146.2887  132.5186  153.8990 N   0  3  2  0  0  0  0  0  0  0  0  0
  144.9097  132.1484  153.5145 C   0  0  0  0  0  0  0  0  0  0  0  0
  146.4370  132.7116  155.3594 C   0  0  0  0  0  0  0  0  0  0  0  0
  147.8886  133.0513  155.7595 C   0  0  1  0  0  0  0  0  0  0  0  0
  148.8296  131.8339  155.7364 C   0  0  0  0  0  0  0  0  0  0  0  0
  149.9837  138.5525  153.9698 C   0  0  0  0  0  0  0  0  0  0  0  0
  150.4239  139.7953  154.2591 N   0  0  0  0  0  0  0  0  0  0  0  0
  151.7598  145.0123  160.1584 H   0  0  0  0  0  0  0  0  0  0  0  0
  152.3884  145.4010  158.5571 H   0  0  0  0  0  0  0  0  0  0  0  0
  152.9836  143.9745  159.4258 H   0  0  0  0  0  0  0  0  0  0  0  0
  151.4085  143.9292  156.5999 H   0  0  0  0  0  0  0  0  0  0  0  0
  152.4829  142.8616  157.4954 H   0  0  0  0  0  0  0  0  0  0  0  0
  150.6700  141.2638  157.9067 H   0  0  0  0  0  0  0  0  0  0  0  0
  149.4903  142.3292  157.1396 H   0  0  0  0  0  0  0  0  0  0  0  0
  150.0795  139.6811  157.6336 H   0  0  0  0  0  0  0  0  0  0  0  0
  149.2712  137.3804  157.0918 H   0  0  0  0  0  0  0  0  0  0  0  0
  148.9046  136.1231  153.6975 H   0  0  0  0  0  0  0  0  0  0  0  0
  148.5821  134.8270  152.8944 H   0  0  0  0  0  0  0  0  0  0  0  0
  148.9026  133.1440  153.1674 H   0  0  0  0  0  0  0  0  0  0  0  0
  146.1841  134.5504  153.3328 H   0  0  0  0  0  0  0  0  0  0  0  0
  146.7209  133.4671  152.0626 H   0  0  0  0  0  0  0  0  0  0  0  0
  144.2093  132.9524  153.7446 H   0  0  0  0  0  0  0  0  0  0  0  0
  144.5896  131.2520  154.0467 H   0  0  0  0  0  0  0  0  0  0  0  0
  144.8511  131.9387  152.4460 H   0  0  0  0  0  0  0  0  0  0  0  0
  145.7777  133.5231  155.6727 H   0  0  0  0  0  0  0  0  0  0  0  0
  146.1020  131.8178  155.8875 H   0  0  0  0  0  0  0  0  0  0  0  0
  147.8316  133.3398  156.8098 H   0  0  0  0  0  0  0  0  0  0  0  0
  148.4739  131.0542  156.4107 H   0  0  0  0  0  0  0  0  0  0  0  0
  149.8351  132.1091  156.0566 H   0  0  0  0  0  0  0  0  0  0  0  0
  148.9052  131.3951  154.7416 H   0  0  0  0  0  0  0  0  0  0  0  0
  150.0150  138.2934  152.9228 H   0  0  0  0  0  0  0  0  0  0  0  0
  146.8750  131.7327  153.6565 H   0  0  0  0  0  0  0  0  0  0  0  0
  1  2  1  0  0  0  0
  1 23  1  0  0  0  0
  1 24  1  0  0  0  0
  1 25  1  0  0  0  0
  2  3  1  0  0  0  0
  3  4  1  0  0  0  0
  3 26  1  0  0  0  0
  3 27  1  0  0  0  0
  4  5  1  0  0  0  0
  4 28  1  0  0  0  0
  4 29  1  0  0  0  0
  5  6  1  0  0  0  0
  6 22  1  0  0  0  0
  6  7  2  0  0  0  0
  7  8  1  0  0  0  0
  7 30  1  0  0  0  0
  8  9  2  0  0  0  0
  8 31  1  0  0  0  0
  9 10  1  0  0  0  0
  9 21  1  0  0  0  0
 10 11  1  0  0  0  0
 10 32  1  0  0  0  0
 11 12  2  0  0  0  0
 11 13  1  0  0  0  0
 13 19  1  0  0  0  0
 13 14  1  0  0  0  0
 14 15  1  0  0  0  0
 14 33  1  0  0  0  0
 14 34  1  0  0  0  0
 15 16  1  0  0  0  0
 15 35  1  0  0  0  0
 15 36  1  0  0  0  0
 16 17  1  0  0  0  0
 16 18  1  0  0  0  0
 16 47  1  0  0  0  0
 17 37  1  0  0  0  0
 17 38  1  0  0  0  0
 17 39  1  0  0  0  0
 18 19  1  0  0  0  0
 18 40  1  0  0  0  0
 18 41  1  0  0  0  0
 19 20  1  0  0  0  0
 19 42  1  0  0  0  0
 20 43  1  0  0  0  0
 20 44  1  0  0  0  0
 20 45  1  0  0  0  0
 21 22  2  0  0  0  0
 21 46  1  0  0  0  0
M  CHG  1  16   1
M  END
> <s_m_source_file>
AV-unprocessed.smi

> <i_m_source_file_index>
1071

> <i_lp_mmshare_version>
43012

> <i_f3d_flags>
0

> <s_epik_input>
W0NIM11PW0NIMl1bQ0gyXU9jMVtjSF1bY0hdYyhbY0hdbjEpW05IXUMoPU8pTjJbQ0gyXVtDSDJdTihbQ0gzXSlbQ0gyXVtDQEhdMltDSDNd

> <s_epik_cmdline>
J2VwaWtfcHl0aG9uJywgJy1waCcsICc3LjAnLCAnLXRuJywgJzgnLCAnLW1hJywgJzIwMCcsICctbWV0YWxfYmluZGluZycsICctaW1hZScsICc8aW5maWxlLm1hZT4nLCAnLW9tYWUnLCAnPG91dGZpbGUubWFlPic=

> <r_lp_tautomer_probability>
1

> <r_epik_Ionization_Penalty>
0.25455

> <r_epik_Ionization_Penalty_Charging>
0.254506

> <r_epik_Ionization_Penalty_Neutral>
4.43365e-05

> <r_epik_State_Penalty>
0.245983

> <r_epik_Charging_Adjusted_Penalty>
0.500488

> <i_epik_Tot_Q>
1

> <i_epik_Tot_abs_Q>
1

> <r_epik_Metal_State_Penalty>
0.245987

> <b_epik_Metal_Only>
0

> <s_lp_Force_Field>
OPLS_2005

> <r_lp_Energy>
56.9033

> <b_lp_Chiralities_Consistent>
1

> <s_lp_Variant>
AV-unprocessed.smi:1071-2

> <Gold.Version>
5.8.1

> <Gold.Id.Protein>
6NUR|6NUR_protein|mol2

> <Gold.PLP.Fitness>
43.8206

> <Gold.PLP.PLP>
-33.3813

> <Gold.PLP.part.hbond>
-2.3443

> <Gold.PLP.part.metal>
0.0000

> <Gold.PLP.part.buried>
-4.6239

> <Gold.PLP.part.nonpolar>
-26.6494

> <Gold.PLP.part.repulsive>
0.3576

> <Gold.PLP.ligand.clash>
0.0000

> <Gold.PLP.ligand.torsion>
0.5923

> <Gold.PLP.Chemscore.Hbond>
1.9913

> <Gold.PLP.Chemscore.CHOScore>
1.8510

> <Gold.PLP.Chemscore.Metal>
0.0000

> <Gold.Chemscore.Hbonds>
donor molecule, donor type, donor heavy atom, donor atom, acceptor molecule, acceptor atom, score
      L1  H    10    32       P1  7948  1.00
      P1  H  7989  7998       L1    22  1.00
      L1  C    21    46       P1  7948  0.94
      L1  C    21    46       P1  7957  0.83

> <Gold.PLP.Chemscore.Internal.Correction>
0.0972

> <Gold.Rescore>
     Score         DG    S(hbond)    S(metal)    S(lipo)     H(rot)  DE(clash)    DE(int)     intcor
     11.88     -14.15       1.14        0.00      76.70       1.60       0.23       2.04       ----

> <Gold.Chemscore.Fitness>
11.8819

> <Gold.Chemscore.DG>
-14.1543

> <Gold.Chemscore.ZeroCoef>
-5.4800

> <Gold.Chemscore.Hbond>
1.1399

> <Gold.Chemscore.Metal>
0.0000

> <Gold.Chemscore.Lipo>
76.7046

> <Gold.Chemscore.Internal_Hbond>
0.0000

> <Gold.Chemscore.DEClash>
0.2277

> <Gold.Chemscore.DEInternal>
2.0447

> <Gold.Chemscore.Rot>
1.6045

> <Gold.Chemscore.Internal.Correction>
   9.000000E+99

> <Gold.Chemscore.Hbonds>
donor molecule, donor type, donor heavy atom, donor atom, acceptor molecule, acceptor atom, score
      L1  H    10    32       P1  7948  0.98
      P1  H  7989  7998       L1    22  0.45

> <Gold.Chemscore.Hbond.Weighted>
-3.8074

> <Gold.Chemscore.Metal.Weighted>
-0.0000

> <Gold.Chemscore.Lipo.Weighted>
-8.9744

> <Gold.Chemscore.Internal_Hbond.Weighted>
0.0000

> <Gold.Chemscore.DEClash.Weighted>
0.2277

> <Gold.Chemscore.DEInternal.Weighted>
2.0447

> <Gold.Chemscore.Rot.Weighted>
4.1075

> <Gold.Chemscore.Internal.Correction.Weighted>
   9.000000E+99

> <Gold.Protein.RotatedTorsions>
[ 6907 6896 6895 6894 ] final -123.40 input  -60.11 | X-H torsion
[ 7974 7965 7964 7962 ] final -131.15 input  175.53 | X-H torsion
[ 8008 7997 7996 7995 ] final  -47.78 input   59.86 | X-H torsion
[ 10167 10162 10161 10158 ] final  -51.34 input  -65.29 | X-H torsion
[ 10718 10713 10712 10709 ] final   55.92 input   66.30 | X-H torsion
[ 10763 10752 10751 10750 ] final -120.39 input  -60.55 | X-H torsion
[ 11005 11000 10999 10996 ] final   85.39 input  -57.11 | X-H torsion

> <Gold.Protein.ActiveResidues>
 VAL166  LYS551  ARG553  GLY616  TRP617  ASP618  TYR619  PRO620  LYS621  CYS622 
 ASP623  PHE694  ASN695  SER759  ASP760  ASP761  ALA762  ILE779  LEU786  VAL792 
 PHE793  MET794  SER795  GLU796  ALA797  LYS798  CYS799  TRP800  GLU811  SER814 

> <Gold.Protein.RotatedAtoms>
  150.8667  133.7564  159.2974 H   0  0  0  0  0  0  0  0  0  0  0  0  # atno 6907 bound_to 6896
  151.5189  135.1065  159.9883 H   0  0  0  0  0  0  0  0  0  0  0  0  # atno 6908 bound_to 6896
  152.4666  133.7892  159.6948 H   0  0  0  0  0  0  0  0  0  0  0  0  # atno 6909 bound_to 6896
  144.9407  140.7235  143.4849 H   0  0  0  0  0  0  0  0  0  0  0  0  # atno 7974 bound_to 7965
  154.4021  140.1338  156.4231 H   0  0  0  0  0  0  0  0  0  0  0  0  # atno 8008 bound_to 7997
  155.7623  140.3486  155.5184 H   0  0  0  0  0  0  0  0  0  0  0  0  # atno 8009 bound_to 7997
  155.8847  140.0993  157.1451 H   0  0  0  0  0  0  0  0  0  0  0  0  # atno 8010 bound_to 7997
  140.6593  143.2623  151.4489 H   0  0  0  0  0  0  0  0  0  0  0  0  # atno 10167 bound_to 10162
  157.5386  130.8681  149.8790 H   0  0  0  0  0  0  0  0  0  0  0  0  # atno 10718 bound_to 10713
  154.8643  135.4204  154.2452 H   0  0  0  0  0  0  0  0  0  0  0  0  # atno 10763 bound_to 10752
  153.3409  135.6993  153.6873 H   0  0  0  0  0  0  0  0  0  0  0  0  # atno 10764 bound_to 10752
  153.5852  135.3565  155.2863 H   0  0  0  0  0  0  0  0  0  0  0  0  # atno 10765 bound_to 10752
  139.8973  134.8283  156.2576 H   0  0  0  0  0  0  0  0  0  0  0  0  # atno 11005 bound_to 11000
  145.2996  139.1855  143.4696 LP  0  0  0  0  0  0  0  0  0  0  0  0  # atno 17320 bound_to 7965
  146.3284  140.2985  142.8619 LP  0  0  0  0  0  0  0  0  0  0  0  0  # atno 17321 bound_to 7965
  139.5823  144.1682  152.1984 LP  0  0  0  0  0  0  0  0  0  0  0  0  # atno 17342 bound_to 10162
  140.1011  144.5539  150.6988 LP  0  0  0  0  0  0  0  0  0  0  0  0  # atno 17343 bound_to 10162
  156.0479  130.3724  150.1273 LP  0  0  0  0  0  0  0  0  0  0  0  0  # atno 17370 bound_to 10713
  156.9454  130.9758  151.3508 LP  0  0  0  0  0  0  0  0  0  0  0  0  # atno 17371 bound_to 10713
  141.0183  133.7055  156.1226 LP  0  0  0  0  0  0  0  0  0  0  0  0  # atno 17394 bound_to 11000
  140.7269  134.4297  157.5570 LP  0  0  0  0  0  0  0  0  0  0  0  0  # atno 17395 bound_to 11000

$$$$
