AV-unprocessed.smi:195|AV-procd|sdf|1527|dock1
  -GOLD-   2262019373D 1   1.00000     0.00000
 Structure written by MMmdl.
 45 48  0  0  0  0  0  0  0  0  1 V2000
  148.3378  142.1354  153.9319 N   0  0  0  0  0  0  0  0  0  0  0  0
  148.2998  141.0377  154.2957 C   0  0  0  0  0  0  0  0  0  0  0  0
  148.2513  139.6413  154.7572 C   0  0  0  0  0  0  0  0  0  0  0  0
  149.2268  138.7215  154.0172 C   0  0  0  0  0  0  0  0  0  0  0  0
  148.6125  138.4721  152.7703 O   0  0  0  0  0  0  0  0  0  0  0  0
  150.6918  139.1618  153.9426 C   0  0  0  0  0  0  0  0  0  0  0  0
  150.9776  138.2079  155.0109 N   0  0  0  0  0  0  0  0  0  0  0  0
  151.1318  138.8141  156.2973 C   0  0  0  0  0  0  0  0  0  0  0  0
  151.4797  138.0715  157.3833 N   0  0  0  0  0  0  0  0  0  0  0  0
  151.6350  138.6327  158.5860 C   0  0  0  0  0  0  0  0  0  0  0  0
  151.5055  139.9140  158.9300 N   0  0  0  0  0  0  0  0  0  0  0  0
  151.1768  140.6762  157.8498 C   0  0  0  0  0  0  0  0  0  0  0  0
  150.9768  140.2132  156.5181 C   0  0  0  0  0  0  0  0  0  0  0  0
  150.6623  141.2851  155.6903 N   0  0  0  0  0  0  0  0  0  0  0  0
  150.6718  142.3194  156.4863 C   0  0  0  0  0  0  0  0  0  0  0  0
  150.9722  142.0429  157.8003 N   0  0  0  0  0  0  0  0  0  0  0  0
  151.0579  142.9934  158.8941 C   0  0  0  0  0  0  0  0  0  0  0  0
  152.3888  143.7699  158.8918 C   0  0  1  0  0  0  0  0  0  0  0  0
  152.1731  145.1297  159.2183 O   0  0  0  0  0  0  0  0  0  0  0  0
  153.4432  143.1491  159.8298 C   0  0  1  0  0  0  0  0  0  0  0  0
  153.0334  142.9701  161.2940 C   0  0  0  0  0  0  0  0  0  0  0  0
  153.9856  141.8806  161.7334 C   0  0  0  0  0  0  0  0  0  0  0  0
  154.0405  140.9938  160.4917 C   0  0  0  0  0  0  0  0  0  0  0  0
  153.8695  141.8661  159.3776 O   0  0  0  0  0  0  0  0  0  0  0  0
  149.7386  137.4755  154.7476 C   0  0  0  0  0  0  0  0  0  0  0  0
  148.4410  139.6345  155.8311 H   0  0  0  0  0  0  0  0  0  0  0  0
  147.2233  139.3036  154.6270 H   0  0  0  0  0  0  0  0  0  0  0  0
  149.1010  138.9539  152.1205 H   0  0  0  0  0  0  0  0  0  0  0  0
  151.1830  138.8839  153.0091 H   0  0  0  0  0  0  0  0  0  0  0  0
  150.8532  140.2120  154.1890 H   0  0  0  0  0  0  0  0  0  0  0  0
  151.9033  137.9578  159.3855 H   0  0  0  0  0  0  0  0  0  0  0  0
  150.4636  143.3192  156.1338 H   0  0  0  0  0  0  0  0  0  0  0  0
  150.2120  143.6785  158.8265 H   0  0  0  0  0  0  0  0  0  0  0  0
  150.9419  142.4459  159.8303 H   0  0  0  0  0  0  0  0  0  0  0  0
  152.7952  143.7559  157.8797 H   0  0  0  0  0  0  0  0  0  0  0  0
  151.2417  145.2753  159.2833 H   0  0  0  0  0  0  0  0  0  0  0  0
  154.3323  143.7816  159.8104 H   0  0  0  0  0  0  0  0  0  0  0  0
  153.1312  143.8859  161.8775 H   0  0  0  0  0  0  0  0  0  0  0  0
  152.0063  142.6156  161.3857 H   0  0  0  0  0  0  0  0  0  0  0  0
  154.9702  142.3034  161.9379 H   0  0  0  0  0  0  0  0  0  0  0  0
  153.6495  141.3486  162.6236 H   0  0  0  0  0  0  0  0  0  0  0  0
  154.9729  140.4337  160.4207 H   0  0  0  0  0  0  0  0  0  0  0  0
  153.2166  140.2793  160.4996 H   0  0  0  0  0  0  0  0  0  0  0  0
  149.1460  137.1725  155.6104 H   0  0  0  0  0  0  0  0  0  0  0  0
  149.9131  136.6321  154.0783 H   0  0  0  0  0  0  0  0  0  0  0  0
  1  2  3  0  0  0  0
  2  3  1  0  0  0  0
  3  4  1  0  0  0  0
  3 26  1  0  0  0  0
  3 27  1  0  0  0  0
  4 25  1  0  0  0  0
  4  5  1  0  0  0  0
  4  6  1  0  0  0  0
  5 28  1  0  0  0  0
  6  7  1  0  0  0  0
  6 29  1  0  0  0  0
  6 30  1  0  0  0  0
  7  8  1  0  0  0  0
  7 25  1  0  0  0  0
  8 13  1  0  0  0  0
  8  9  2  0  0  0  0
  9 10  1  0  0  0  0
 10 11  2  0  0  0  0
 10 31  1  0  0  0  0
 11 12  1  0  0  0  0
 12 16  1  0  0  0  0
 12 13  2  0  0  0  0
 13 14  1  0  0  0  0
 14 15  2  0  0  0  0
 15 16  1  0  0  0  0
 15 32  1  0  0  0  0
 16 17  1  0  0  0  0
 17 18  1  0  0  0  0
 17 33  1  0  0  0  0
 17 34  1  0  0  0  0
 18 19  1  0  0  0  0
 18 20  1  0  0  0  0
 18 35  1  0  0  0  0
 19 36  1  0  0  0  0
 20 24  1  0  0  0  0
 20 21  1  0  0  0  0
 20 37  1  0  0  0  0
 21 22  1  0  0  0  0
 21 38  1  0  0  0  0
 21 39  1  0  0  0  0
 22 23  1  0  0  0  0
 22 40  1  0  0  0  0
 22 41  1  0  0  0  0
 23 24  1  0  0  0  0
 23 42  1  0  0  0  0
 23 43  1  0  0  0  0
 25 44  1  0  0  0  0
 25 45  1  0  0  0  0
M  END
> <s_m_source_file>
AV-unprocessed.smi

> <i_m_source_file_index>
195

> <i_lp_mmshare_version>
43012

> <i_f3d_flags>
0

> <s_epik_input>
TiNDW0NIMl1DMShbT0hdKVtDSDJdTihbQ0gyXTEpYyhuW2NIXW4yKWMoYzIzKW5bY0hdbjNbQ0gyXVtDQEhdKFtPSF0pW0NAQEhdNFtDSDJdW0NIMl1bQ0gyXU80

> <s_epik_cmdline>
J2VwaWtfcHl0aG9uJywgJy1waCcsICc3LjAnLCAnLXRuJywgJzgnLCAnLW1hJywgJzIwMCcsICctbWV0YWxfYmluZGluZycsICctaW1hZScsICc8aW5maWxlLm1hZT4nLCAnLW9tYWUnLCAnPG91dGZpbGUubWFlPic=

> <r_lp_tautomer_probability>
1

> <r_epik_Ionization_Penalty>
0.00307146

> <r_epik_Ionization_Penalty_Charging>
0

> <r_epik_Ionization_Penalty_Neutral>
0.00307146

> <r_epik_State_Penalty>
0.0020279

> <r_epik_Charging_Adjusted_Penalty>
0.0020279

> <i_epik_Tot_Q>
0

> <i_epik_Tot_abs_Q>
0

> <r_epik_Metal_State_Penalty>
-0

> <b_epik_Metal_Only>
0

> <s_lp_Force_Field>
OPLS_2005

> <r_lp_Energy>
44.2023

> <b_lp_Chiralities_Consistent>
1

> <s_lp_Variant>
AV-unprocessed.smi:195-4

> <Gold.Version>
5.8.1

> <Gold.Id.Protein>
6NUR|6NUR_protein|mol2

> <Gold.PLP.Fitness>
48.6811

> <Gold.PLP.PLP>
-43.9089

> <Gold.PLP.part.hbond>
-2.7353

> <Gold.PLP.part.metal>
0.0000

> <Gold.PLP.part.buried>
-6.1135

> <Gold.PLP.part.nonpolar>
-34.3843

> <Gold.PLP.part.repulsive>
0.3277

> <Gold.PLP.ligand.clash>
0.0000

> <Gold.PLP.ligand.torsion>
1.3463

> <Gold.PLP.Chemscore.Hbond>
1.3680

> <Gold.PLP.Chemscore.CHOScore>
1.0000

> <Gold.PLP.Chemscore.Metal>
0.0000

> <Gold.Chemscore.Hbonds>
donor molecule, donor type, donor heavy atom, donor atom, acceptor molecule, acceptor atom, score
      L1  H     5    28       P1  7957  0.96
      P1  H  7989  7998       L1    14  0.02
      P1  H  8011  8017       L1     1  0.22
      L1  C    15    32       P1  8028  1.00

> <Gold.PLP.Chemscore.Internal.Correction>
0.3608

> <Gold.Rescore>
     Score         DG    S(hbond)    S(metal)    S(lipo)     H(rot)  DE(clash)    DE(int)     intcor
      7.44      -9.68       0.98        0.00      89.43       3.72       0.07       2.17       ----

> <Gold.Chemscore.Fitness>
7.4441

> <Gold.Chemscore.DG>
-9.6820

> <Gold.Chemscore.ZeroCoef>
-5.4800

> <Gold.Chemscore.Hbond>
0.9774

> <Gold.Chemscore.Metal>
0.0000

> <Gold.Chemscore.Lipo>
89.4278

> <Gold.Chemscore.Internal_Hbond>
0.0000

> <Gold.Chemscore.DEClash>
0.0676

> <Gold.Chemscore.DEInternal>
2.1704

> <Gold.Chemscore.Rot>
3.7210

> <Gold.Chemscore.Internal.Correction>
   9.000000E+99

> <Gold.Chemscore.Hbonds>
donor molecule, donor type, donor heavy atom, donor atom, acceptor molecule, acceptor atom, score
      L1  H     5    28       P1  7957  0.78
      P1  H  7989  7998       L1    14  0.04
      P1  H  8011  8017       L1     1  0.19

> <Gold.Chemscore.Hbond.Weighted>
-3.2646

> <Gold.Chemscore.Metal.Weighted>
-0.0000

> <Gold.Chemscore.Lipo.Weighted>
-10.4631

> <Gold.Chemscore.Internal_Hbond.Weighted>
0.0000

> <Gold.Chemscore.DEClash.Weighted>
0.0676

> <Gold.Chemscore.DEInternal.Weighted>
2.1704

> <Gold.Chemscore.Rot.Weighted>
9.5256

> <Gold.Chemscore.Internal.Correction.Weighted>
   9.000000E+99

> <Gold.Protein.RotatedTorsions>
[ 6907 6896 6895 6894 ] final    2.35 input  -60.11 | X-H torsion
[ 7974 7965 7964 7962 ] final  133.68 input  175.53 | X-H torsion
[ 8008 7997 7996 7995 ] final -142.30 input   59.86 | X-H torsion
[ 10167 10162 10161 10158 ] final   92.09 input  -65.29 | X-H torsion
[ 10718 10713 10712 10709 ] final -152.60 input   66.30 | X-H torsion
[ 10763 10752 10751 10750 ] final  111.86 input  -60.55 | X-H torsion
[ 11005 11000 10999 10996 ] final   84.41 input  -57.11 | X-H torsion

> <Gold.Protein.ActiveResidues>
 VAL166  LYS551  ARG553  GLY616  TRP617  ASP618  TYR619  PRO620  LYS621  CYS622 
 ASP623  PHE694  ASN695  SER759  ASP760  ASP761  ALA762  ILE779  LEU786  VAL792 
 PHE793  MET794  SER795  GLU796  ALA797  LYS798  CYS799  TRP800  GLU811  SER814 

> <Gold.Protein.RotatedAtoms>
  151.6074  135.1043  160.0073 H   0  0  0  0  0  0  0  0  0  0  0  0  # atno 6907 bound_to 6896
  152.4226  133.7138  159.6504 H   0  0  0  0  0  0  0  0  0  0  0  0  # atno 6908 bound_to 6896
  150.8114  133.8342  159.3202 H   0  0  0  0  0  0  0  0  0  0  0  0  # atno 6909 bound_to 6896
  144.9840  139.4474  143.5372 H   0  0  0  0  0  0  0  0  0  0  0  0  # atno 7974 bound_to 7965
  155.4919  140.0568  157.2952 H   0  0  0  0  0  0  0  0  0  0  0  0  # atno 8008 bound_to 7997
  154.4620  140.2001  156.0170 H   0  0  0  0  0  0  0  0  0  0  0  0  # atno 8009 bound_to 7997
  156.0907  140.3234  155.7816 H   0  0  0  0  0  0  0  0  0  0  0  0  # atno 8010 bound_to 7997
  139.8311  144.6687  150.9399 H   0  0  0  0  0  0  0  0  0  0  0  0  # atno 10167 bound_to 10162
  156.4747  130.8275  151.2503 H   0  0  0  0  0  0  0  0  0  0  0  0  # atno 10718 bound_to 10713
  153.4695  135.3704  155.2383 H   0  0  0  0  0  0  0  0  0  0  0  0  # atno 10763 bound_to 10752
  154.8757  135.3928  154.3829 H   0  0  0  0  0  0  0  0  0  0  0  0  # atno 10764 bound_to 10752
  153.4415  135.7084  153.6230 H   0  0  0  0  0  0  0  0  0  0  0  0  # atno 10765 bound_to 10752
  139.9001  134.8214  156.2441 H   0  0  0  0  0  0  0  0  0  0  0  0  # atno 11005 bound_to 11000
  146.3415  139.9131  142.8777 LP  0  0  0  0  0  0  0  0  0  0  0  0  # atno 17320 bound_to 7965
  145.2380  140.9998  143.3952 LP  0  0  0  0  0  0  0  0  0  0  0  0  # atno 17321 bound_to 7965
  140.7806  143.4000  151.1165 LP  0  0  0  0  0  0  0  0  0  0  0  0  # atno 17342 bound_to 10162
  139.7654  143.8573  152.3109 LP  0  0  0  0  0  0  0  0  0  0  0  0  # atno 17343 bound_to 10162
  157.7488  131.0065  150.3153 LP  0  0  0  0  0  0  0  0  0  0  0  0  # atno 17370 bound_to 10713
  156.3583  130.3842  149.7272 LP  0  0  0  0  0  0  0  0  0  0  0  0  # atno 17371 bound_to 10713
  141.0266  133.7012  156.1358 LP  0  0  0  0  0  0  0  0  0  0  0  0  # atno 17394 bound_to 11000
  140.7158  134.4412  157.5578 LP  0  0  0  0  0  0  0  0  0  0  0  0  # atno 17395 bound_to 11000

$$$$
