AV-unprocessed.smi:3019|AV-procd|sdf|11487|dock5
  -GOLD-   2272016423D 1   1.00000     0.00000
 Structure written by MMmdl.
 31 32  0  0  0  0  0  0  0  0  2 V2000
  152.8210  143.5919  159.3364 C   0  0  0  0  0  0  0  0  0  0  0  0
  152.7467  142.0870  159.6336 C   0  0  0  0  0  0  0  0  0  0  0  0
  154.0972  141.4935  160.0615 C   0  0  0  0  0  0  0  0  0  0  0  0
  152.1439  141.3260  158.4926 C   0  0  0  0  0  0  0  0  0  0  0  0
  152.8088  140.3399  157.8918 N   0  0  0  0  0  0  0  0  0  0  0  0
  151.9296  139.9385  156.9501 N   0  0  0  0  0  0  0  0  0  0  0  0
  150.8214  140.6776  157.0355 C   0  0  0  0  0  0  0  0  0  0  0  0
  149.6576  140.4832  156.1157 C   0  0  2  0  0  0  0  0  0  0  0  0
  150.0905  140.3092  154.6471 C   0  0  0  0  0  0  0  0  0  0  0  0
  148.9014  140.2263  153.7767 N   0  3  0  0  0  0  0  0  0  0  0  0
  148.0109  141.3887  153.9659 C   0  0  0  0  0  0  0  0  0  0  0  0
  147.6449  141.5397  155.4531 C   0  0  0  0  0  0  0  0  0  0  0  0
  148.8320  141.6395  156.2328 O   0  0  0  0  0  0  0  0  0  0  0  0
  150.8940  141.5881  158.0014 N   0  0  0  0  0  0  0  0  0  0  0  0
  152.1221  139.1878  156.3024 H   0  0  0  0  0  0  0  0  0  0  0  0
  151.8347  143.9955  159.1049 H   0  0  0  0  0  0  0  0  0  0  0  0
  153.4733  143.7972  158.4870 H   0  0  0  0  0  0  0  0  0  0  0  0
  153.2095  144.1419  160.1939 H   0  0  0  0  0  0  0  0  0  0  0  0
  152.0772  141.9751  160.4881 H   0  0  0  0  0  0  0  0  0  0  0  0
  153.9956  140.4431  160.3360 H   0  0  0  0  0  0  0  0  0  0  0  0
  154.5017  142.0223  160.9247 H   0  0  0  0  0  0  0  0  0  0  0  0
  154.8320  141.5587  159.2585 H   0  0  0  0  0  0  0  0  0  0  0  0
  149.0970  139.6066  156.4470 H   0  0  0  0  0  0  0  0  0  0  0  0
  150.7053  141.1518  154.3270 H   0  0  0  0  0  0  0  0  0  0  0  0
  150.6916  139.4076  154.5258 H   0  0  0  0  0  0  0  0  0  0  0  0
  149.1939  140.1809  152.8106 H   0  0  0  0  0  0  0  0  0  0  0  0
  148.5146  142.2881  153.6088 H   0  0  0  0  0  0  0  0  0  0  0  0
  147.1135  141.2607  153.3603 H   0  0  0  0  0  0  0  0  0  0  0  0
  147.0461  142.4382  155.6041 H   0  0  0  0  0  0  0  0  0  0  0  0
  147.0437  140.6953  155.7942 H   0  0  0  0  0  0  0  0  0  0  0  0
  148.3899  139.3860  154.0056 H   0  0  0  0  0  0  0  0  0  0  0  0
  1  2  1  0  0  0  0
  1 16  1  0  0  0  0
  1 17  1  0  0  0  0
  1 18  1  0  0  0  0
  2  3  1  0  0  0  0
  2  4  1  0  0  0  0
  2 19  1  0  0  0  0
  3 20  1  0  0  0  0
  3 21  1  0  0  0  0
  3 22  1  0  0  0  0
  4 14  1  0  0  0  0
  4  5  2  0  0  0  0
  5  6  1  0  0  0  0
  6 15  1  0  0  0  0
  6  7  1  0  0  0  0
  7  8  1  0  0  0  0
  7 14  2  0  0  0  0
  8 13  1  0  0  0  0
  8  9  1  0  0  0  0
  8 23  1  0  0  0  0
  9 10  1  0  0  0  0
  9 24  1  0  0  0  0
  9 25  1  0  0  0  0
 10 11  1  0  0  0  0
 10 26  1  0  0  0  0
 10 31  1  0  0  0  0
 11 12  1  0  0  0  0
 11 27  1  0  0  0  0
 11 28  1  0  0  0  0
 12 13  1  0  0  0  0
 12 29  1  0  0  0  0
 12 30  1  0  0  0  0
M  CHG  1  10   1
M  END
> <s_m_source_file>
AV-unprocessed.smi

> <i_m_source_file_index>
3019

> <i_lp_mmshare_version>
43012

> <i_f3d_flags>
0

> <s_epik_input>
W0NIM11bQ0hdKFtDSDNdKWMxbltuSF1jKG4xKVtDQEBIXTJbQ0gyXVtOSF1bQ0gyXVtDSDJdTzI=

> <s_epik_cmdline>
J2VwaWtfcHl0aG9uJywgJy1waCcsICc3LjAnLCAnLXRuJywgJzgnLCAnLW1hJywgJzIwMCcsICctbWV0YWxfYmluZGluZycsICctaW1hZScsICc8aW5maWxlLm1hZT4nLCAnLW9tYWUnLCAnPG91dGZpbGUubWFlPic=

> <r_epik_Ionization_Penalty>
0.162344

> <r_epik_Ionization_Penalty_Charging>
0.125708

> <r_epik_Ionization_Penalty_Neutral>
0.0366363

> <r_epik_State_Penalty>
1.18286

> <r_epik_Charging_Adjusted_Penalty>
1.30856

> <i_epik_Tot_Q>
1

> <i_epik_Tot_abs_Q>
1

> <r_epik_Metal_State_Penalty>
1.49333

> <b_epik_Metal_Only>
0

> <s_lp_Force_Field>
OPLS_2005

> <r_lp_Energy>
8.53585

> <b_lp_Chiralities_Consistent>
1

> <s_lp_Variant>
AV-unprocessed.smi:3019-3

> <Gold.Version>
5.8.1

> <Gold.Id.Protein>
6NUR|6NUR_protein|mol2

> <Gold.PLP.Fitness>
30.8404

> <Gold.PLP.PLP>
-25.6437

> <Gold.PLP.part.hbond>
-2.0000

> <Gold.PLP.part.metal>
0.0000

> <Gold.PLP.part.buried>
-2.0326

> <Gold.PLP.part.nonpolar>
-22.1083

> <Gold.PLP.part.repulsive>
0.7901

> <Gold.PLP.ligand.clash>
0.0000

> <Gold.PLP.ligand.torsion>
0.4194

> <Gold.PLP.Chemscore.Hbond>
1.9920

> <Gold.PLP.Chemscore.CHOScore>
0.0000

> <Gold.PLP.Chemscore.Metal>
0.0000

> <Gold.Chemscore.Hbonds>
donor molecule, donor type, donor heavy atom, donor atom, acceptor molecule, acceptor atom, score
      L1  H    10    26       P1  7957  1.00
      P1  H  7997  8010       L1     5  0.91

> <Gold.PLP.Chemscore.Internal.Correction>
0.0595

> <Gold.Rescore>
     Score         DG    S(hbond)    S(metal)    S(lipo)     H(rot)  DE(clash)    DE(int)     intcor
     14.68     -15.03       1.86        0.00      56.39       1.28       0.07       0.27       ----

> <Gold.Chemscore.Fitness>
14.6829

> <Gold.Chemscore.DG>
-15.0274

> <Gold.Chemscore.ZeroCoef>
-5.4800

> <Gold.Chemscore.Hbond>
1.8637

> <Gold.Chemscore.Metal>
0.0000

> <Gold.Chemscore.Lipo>
56.3927

> <Gold.Chemscore.Internal_Hbond>
0.0000

> <Gold.Chemscore.DEClash>
0.0703

> <Gold.Chemscore.DEInternal>
0.2743

> <Gold.Chemscore.Rot>
1.2795

> <Gold.Chemscore.Internal.Correction>
   9.000000E+99

> <Gold.Chemscore.Hbonds>
donor molecule, donor type, donor heavy atom, donor atom, acceptor molecule, acceptor atom, score
      L1  H    10    26       P1  7957  1.00
      P1  H  7997  8010       L1     5  0.22

> <Gold.Chemscore.Hbond.Weighted>
-6.2249

> <Gold.Chemscore.Metal.Weighted>
-0.0000

> <Gold.Chemscore.Lipo.Weighted>
-6.5979

> <Gold.Chemscore.Internal_Hbond.Weighted>
0.0000

> <Gold.Chemscore.DEClash.Weighted>
0.0703

> <Gold.Chemscore.DEInternal.Weighted>
0.2743

> <Gold.Chemscore.Rot.Weighted>
3.2754

> <Gold.Chemscore.Internal.Correction.Weighted>
   9.000000E+99

> <Gold.Protein.RotatedTorsions>
[ 6907 6896 6895 6894 ] final  -79.40 input  -60.11 | X-H torsion
[ 7974 7965 7964 7962 ] final  -58.74 input  175.53 | X-H torsion
[ 8008 7997 7996 7995 ] final   42.95 input   59.86 | X-H torsion
[ 10167 10162 10161 10158 ] final   23.26 input  -65.29 | X-H torsion
[ 10718 10713 10712 10709 ] final  104.87 input   66.30 | X-H torsion
[ 10763 10752 10751 10750 ] final  -77.25 input  -60.55 | X-H torsion
[ 11005 11000 10999 10996 ] final  131.24 input  -57.11 | X-H torsion

> <Gold.Protein.ActiveResidues>
 VAL166  LYS551  ARG553  GLY616  TRP617  ASP618  TYR619  PRO620  LYS621  CYS622 
 ASP623  PHE694  ASN695  SER759  ASP760  ASP761  ALA762  ILE779  LEU786  VAL792 
 PHE793  MET794  SER795  GLU796  ALA797  LYS798  CYS799  TRP800  GLU811  SER814 

> <Gold.Protein.RotatedAtoms>
  150.6951  134.4127  159.5168 H   0  0  0  0  0  0  0  0  0  0  0  0  # atno 6907 bound_to 6896
  152.1883  134.8692  160.0529 H   0  0  0  0  0  0  0  0  0  0  0  0  # atno 6908 bound_to 6896
  151.9657  133.3674  159.4089 H   0  0  0  0  0  0  0  0  0  0  0  0  # atno 6909 bound_to 6896
  145.8357  140.8450  143.0060 H   0  0  0  0  0  0  0  0  0  0  0  0  # atno 7974 bound_to 7965
  155.2947  140.3381  155.4250 H   0  0  0  0  0  0  0  0  0  0  0  0  # atno 8008 bound_to 7997
  156.2030  140.1740  156.7900 H   0  0  0  0  0  0  0  0  0  0  0  0  # atno 8009 bound_to 7997
  154.5583  140.0692  156.8763 H   0  0  0  0  0  0  0  0  0  0  0  0  # atno 8010 bound_to 7997
  140.5283  143.9885  150.6452 H   0  0  0  0  0  0  0  0  0  0  0  0  # atno 10167 bound_to 10162
  157.6725  131.0814  150.5770 H   0  0  0  0  0  0  0  0  0  0  0  0  # atno 10718 bound_to 10713
  154.5105  135.5770  153.6601 H   0  0  0  0  0  0  0  0  0  0  0  0  # atno 10763 bound_to 10752
  152.9896  135.6157  154.2885 H   0  0  0  0  0  0  0  0  0  0  0  0  # atno 10764 bound_to 10752
  154.2799  135.2851  155.2681 H   0  0  0  0  0  0  0  0  0  0  0  0  # atno 10765 bound_to 10752
  139.9719  134.9575  156.9410 H   0  0  0  0  0  0  0  0  0  0  0  0  # atno 11005 bound_to 11000
  144.6736  140.0738  143.7472 LP  0  0  0  0  0  0  0  0  0  0  0  0  # atno 17320 bound_to 7965
  145.9521  139.2741  143.1206 LP  0  0  0  0  0  0  0  0  0  0  0  0  # atno 17321 bound_to 7965
  140.3253  143.3111  152.0743 LP  0  0  0  0  0  0  0  0  0  0  0  0  # atno 17342 bound_to 10162
  139.4946  144.6546  151.6600 LP  0  0  0  0  0  0  0  0  0  0  0  0  # atno 17343 bound_to 10162
  156.6071  130.4370  149.5873 LP  0  0  0  0  0  0  0  0  0  0  0  0  # atno 17370 bound_to 10713
  156.2460  130.6879  151.1600 LP  0  0  0  0  0  0  0  0  0  0  0  0  # atno 17371 bound_to 10713
  140.5276  134.0845  155.7307 LP  0  0  0  0  0  0  0  0  0  0  0  0  # atno 17394 bound_to 11000
  141.1398  133.9158  157.2352 LP  0  0  0  0  0  0  0  0  0  0  0  0  # atno 17395 bound_to 11000

$$$$
