AV-unprocessed.smi:2410|AV-procd|sdf|9527|dock6
  -GOLD-   2272013153D 1   1.00000     0.00000
 Structure written by MMmdl.
 46 48  0  0  0  0  0  0  0  0  1 V2000
  153.0966  140.9496  159.2240 C   0  0  0  0  0  0  0  0  0  0  0  0
  152.1044  140.9459  158.0745 C   0  0  0  0  0  0  0  0  0  0  0  0
  152.1822  139.9223  157.1031 C   0  0  0  0  0  0  0  0  0  0  0  0
  151.2804  139.8845  156.0170 C   0  0  0  0  0  0  0  0  0  0  0  0
  151.1752  138.9899  154.9653 N   0  0  0  0  0  0  0  0  0  0  0  0
  150.1455  139.4916  154.2889 C   0  0  0  0  0  0  0  0  0  0  0  0
  149.5713  140.6071  154.7789 N   0  0  0  0  0  0  0  0  0  0  0  0
  148.4435  141.3349  154.2269 C   0  0  0  0  0  0  0  0  0  0  0  0
  147.1939  140.4467  154.0730 C   0  0  1  0  0  0  0  0  0  0  0  0
  146.1176  141.2623  153.6512 O   0  0  0  0  0  0  0  0  0  0  0  0
  147.4100  139.3274  153.0316 C   0  0  0  0  0  0  0  0  0  0  0  0
  146.3189  138.3392  153.0485 N   0  0  0  0  0  0  0  0  0  0  0  0
  145.6300  138.1930  154.2634 C   0  0  0  0  0  0  0  0  0  0  0  0
  144.6469  137.3631  154.3908 N   0  0  0  0  0  0  0  0  0  0  0  0
  144.2518  136.5774  153.3042 C   0  0  0  0  0  0  0  0  0  0  0  0
  143.0839  135.6417  153.5615 C   0  0  0  0  0  0  0  0  0  0  0  0
  144.8885  136.6598  152.1039 C   0  0  0  0  0  0  0  0  0  0  0  0
  144.5075  135.8249  150.8877 C   0  0  0  0  0  0  0  0  0  0  0  0
  146.0106  137.5988  151.9443 C   0  0  0  0  0  0  0  0  0  0  0  0
  146.6385  137.7185  150.8900 O   0  0  0  0  0  0  0  0  0  0  0  0
  150.2906  140.9062  155.9300 C   0  0  0  0  0  0  0  0  0  0  0  0
  150.2018  141.9291  156.8907 C   0  0  0  0  0  0  0  0  0  0  0  0
  151.1119  141.9533  157.9680 C   0  0  0  0  0  0  0  0  0  0  0  0
  151.0111  143.0648  158.9977 C   0  0  0  0  0  0  0  0  0  0  0  0
  153.7551  140.0815  159.1846 H   0  0  0  0  0  0  0  0  0  0  0  0
  152.5748  140.9281  160.1809 H   0  0  0  0  0  0  0  0  0  0  0  0
  153.7184  141.8444  159.1878 H   0  0  0  0  0  0  0  0  0  0  0  0
  152.9385  139.1554  157.1833 H   0  0  0  0  0  0  0  0  0  0  0  0
  149.7889  139.0220  153.3839 H   0  0  0  0  0  0  0  0  0  0  0  0
  148.2309  142.1968  154.8613 H   0  0  0  0  0  0  0  0  0  0  0  0
  148.7464  141.7286  153.2560 H   0  0  0  0  0  0  0  0  0  0  0  0
  146.9448  140.0180  155.0445 H   0  0  0  0  0  0  0  0  0  0  0  0
  145.3923  140.7051  153.4138 H   0  0  0  0  0  0  0  0  0  0  0  0
  147.5730  139.7512  152.0384 H   0  0  0  0  0  0  0  0  0  0  0  0
  148.3414  138.8019  153.2507 H   0  0  0  0  0  0  0  0  0  0  0  0
  145.9829  138.8219  155.0827 H   0  0  0  0  0  0  0  0  0  0  0  0
  142.2563  135.8694  152.8892 H   0  0  0  0  0  0  0  0  0  0  0  0
  142.7173  135.7357  154.5845 H   0  0  0  0  0  0  0  0  0  0  0  0
  143.3839  134.6046  153.4086 H   0  0  0  0  0  0  0  0  0  0  0  0
  145.3512  135.2082  150.5761 H   0  0  0  0  0  0  0  0  0  0  0  0
  144.2378  136.4748  150.0547 H   0  0  0  0  0  0  0  0  0  0  0  0
  143.6653  135.1596  151.0699 H   0  0  0  0  0  0  0  0  0  0  0  0
  149.4413  142.6904  156.7959 H   0  0  0  0  0  0  0  0  0  0  0  0
  150.2093  143.7621  158.7535 H   0  0  0  0  0  0  0  0  0  0  0  0
  151.9426  143.6295  159.0432 H   0  0  0  0  0  0  0  0  0  0  0  0
  150.8059  142.6528  159.9859 H   0  0  0  0  0  0  0  0  0  0  0  0
  1  2  1  0  0  0  0
  1 25  1  0  0  0  0
  1 26  1  0  0  0  0
  1 27  1  0  0  0  0
  2 23  1  0  0  0  0
  2  3  2  0  0  0  0
  3  4  1  0  0  0  0
  3 28  1  0  0  0  0
  4 21  2  0  0  0  0
  4  5  1  0  0  0  0
  5  6  2  0  0  0  0
  6  7  1  0  0  0  0
  6 29  1  0  0  0  0
  7  8  1  0  0  0  0
  7 21  1  0  0  0  0
  8  9  1  0  0  0  0
  8 30  1  0  0  0  0
  8 31  1  0  0  0  0
  9 10  1  0  0  0  0
  9 11  1  0  0  0  0
  9 32  1  0  0  0  0
 10 33  1  0  0  0  0
 11 12  1  0  0  0  0
 11 34  1  0  0  0  0
 11 35  1  0  0  0  0
 12 19  1  0  0  0  0
 12 13  1  0  0  0  0
 13 14  2  0  0  0  0
 13 36  1  0  0  0  0
 14 15  1  0  0  0  0
 15 16  1  0  0  0  0
 15 17  2  0  0  0  0
 16 37  1  0  0  0  0
 16 38  1  0  0  0  0
 16 39  1  0  0  0  0
 17 18  1  0  0  0  0
 17 19  1  0  0  0  0
 18 40  1  0  0  0  0
 18 41  1  0  0  0  0
 18 42  1  0  0  0  0
 19 20  2  0  0  0  0
 21 22  1  0  0  0  0
 22 23  2  0  0  0  0
 22 43  1  0  0  0  0
 23 24  1  0  0  0  0
 24 44  1  0  0  0  0
 24 45  1  0  0  0  0
 24 46  1  0  0  0  0
M  END
> <s_m_source_file>
AV-unprocessed.smi

> <i_m_source_file_index>
2410

> <i_lp_mmshare_version>
43012

> <i_f3d_flags>
0

> <s_epik_input>
W0NIM11jKFtjSF0xKWMoW0NIM10pW2NIXWMoYzEyKW4oW2NIXW4yKVtDSDJdW0NASF0oW09IXSlbQ0gyXW4zW2NIXW5jKFtDSDNdKWMoW0NIM10pYzM9Tw==

> <s_epik_cmdline>
J2VwaWtfcHl0aG9uJywgJy1waCcsICc3LjAnLCAnLXRuJywgJzgnLCAnLW1hJywgJzIwMCcsICctbWV0YWxfYmluZGluZycsICctaW1hZScsICc8aW5maWxlLm1hZT4nLCAnLW9tYWUnLCAnPG91dGZpbGUubWFlPic=

> <r_lp_tautomer_probability>
1

> <r_epik_Ionization_Penalty>
0.113377

> <r_epik_Ionization_Penalty_Charging>
7.56033e-08

> <r_epik_Ionization_Penalty_Neutral>
0.113377

> <r_epik_State_Penalty>
0.103025

> <r_epik_Charging_Adjusted_Penalty>
0.103025

> <i_epik_Tot_Q>
0

> <i_epik_Tot_abs_Q>
0

> <r_epik_Metal_State_Penalty>
0.0863476

> <b_epik_Metal_Only>
0

> <s_lp_Force_Field>
OPLS_2005

> <r_lp_Energy>
18.3765

> <b_lp_Chiralities_Consistent>
1

> <s_lp_Variant>
AV-unprocessed.smi:2410-2

> <Gold.Version>
5.8.1

> <Gold.Id.Protein>
6NUR|6NUR_protein|mol2

> <Gold.PLP.Fitness>
45.7740

> <Gold.PLP.PLP>
-38.0423

> <Gold.PLP.part.hbond>
-2.0000

> <Gold.PLP.part.metal>
0.0000

> <Gold.PLP.part.buried>
-2.0032

> <Gold.PLP.part.nonpolar>
-36.5159

> <Gold.PLP.part.repulsive>
2.4385

> <Gold.PLP.ligand.clash>
0.0090

> <Gold.PLP.ligand.torsion>
0.4352

> <Gold.PLP.Chemscore.Hbond>
1.9600

> <Gold.PLP.Chemscore.CHOScore>
0.8980

> <Gold.PLP.Chemscore.Metal>
0.0000

> <Gold.Chemscore.Hbonds>
donor molecule, donor type, donor heavy atom, donor atom, acceptor molecule, acceptor atom, score
      L1  H    10    33       P1 10175  0.96
      P1  H  7954  7966       L1    20  1.00
      L1  C     6    29       P1  7957  0.95

> <Gold.PLP.Chemscore.Internal.Correction>
0.0372

> <Gold.Rescore>
     Score         DG    S(hbond)    S(metal)    S(lipo)     H(rot)  DE(clash)    DE(int)     intcor
     14.07     -17.00       1.78        0.00      99.00       2.35       1.58       1.35       ----

> <Gold.Chemscore.Fitness>
14.0693

> <Gold.Chemscore.DG>
-17.0018

> <Gold.Chemscore.ZeroCoef>
-5.4800

> <Gold.Chemscore.Hbond>
1.7812

> <Gold.Chemscore.Metal>
0.0000

> <Gold.Chemscore.Lipo>
99.0028

> <Gold.Chemscore.Internal_Hbond>
0.0000

> <Gold.Chemscore.DEClash>
1.5785

> <Gold.Chemscore.DEInternal>
1.3540

> <Gold.Chemscore.Rot>
2.3479

> <Gold.Chemscore.Internal.Correction>
   9.000000E+99

> <Gold.Chemscore.Hbonds>
donor molecule, donor type, donor heavy atom, donor atom, acceptor molecule, acceptor atom, score
      L1  H    10    33       P1 10175  0.80
      P1  H  7954  7966       L1    20  1.00

> <Gold.Chemscore.Hbond.Weighted>
-5.9491

> <Gold.Chemscore.Metal.Weighted>
-0.0000

> <Gold.Chemscore.Lipo.Weighted>
-11.5833

> <Gold.Chemscore.Internal_Hbond.Weighted>
0.0000

> <Gold.Chemscore.DEClash.Weighted>
1.5785

> <Gold.Chemscore.DEInternal.Weighted>
1.3540

> <Gold.Chemscore.Rot.Weighted>
6.0106

> <Gold.Chemscore.Internal.Correction.Weighted>
   9.000000E+99

> <Gold.Protein.RotatedTorsions>
[ 6907 6896 6895 6894 ] final  116.33 input  -60.11 | X-H torsion
[ 7974 7965 7964 7962 ] final  109.16 input  175.53 | X-H torsion
[ 8008 7997 7996 7995 ] final  -58.59 input   59.86 | X-H torsion
[ 10167 10162 10161 10158 ] final  -60.22 input  -65.29 | X-H torsion
[ 10718 10713 10712 10709 ] final  -28.75 input   66.30 | X-H torsion
[ 10763 10752 10751 10750 ] final -142.49 input  -60.55 | X-H torsion
[ 11005 11000 10999 10996 ] final  -37.00 input  -57.11 | X-H torsion

> <Gold.Protein.ActiveResidues>
 VAL166  LYS551  ARG553  GLY616  TRP617  ASP618  TYR619  PRO620  LYS621  CYS622 
 ASP623  PHE694  ASN695  SER759  ASP760  ASP761  ALA762  ILE779  LEU786  VAL792 
 PHE793  MET794  SER795  GLU796  ALA797  LYS798  CYS799  TRP800  GLU811  SER814 

> <Gold.Protein.RotatedAtoms>
  152.4685  133.7976  159.6935 H   0  0  0  0  0  0  0  0  0  0  0  0  # atno 6907 bound_to 6896
  150.8661  133.7563  159.2982 H   0  0  0  0  0  0  0  0  0  0  0  0  # atno 6908 bound_to 6896
  151.5113  135.1068  159.9906 H   0  0  0  0  0  0  0  0  0  0  0  0  # atno 6909 bound_to 6896
  145.2713  139.2665  143.3964 H   0  0  0  0  0  0  0  0  0  0  0  0  # atno 7974 bound_to 7965
  154.4315  140.1081  156.5981 H   0  0  0  0  0  0  0  0  0  0  0  0  # atno 8008 bound_to 7997
  155.5940  140.3492  155.4556 H   0  0  0  0  0  0  0  0  0  0  0  0  # atno 8009 bound_to 7997
  156.0224  140.1242  157.0333 H   0  0  0  0  0  0  0  0  0  0  0  0  # atno 8010 bound_to 7997
  140.6085  143.2380  151.5764 H   0  0  0  0  0  0  0  0  0  0  0  0  # atno 10167 bound_to 10162
  156.4213  130.4427  149.7182 H   0  0  0  0  0  0  0  0  0  0  0  0  # atno 10718 bound_to 10713
  154.8507  135.3494  154.6036 H   0  0  0  0  0  0  0  0  0  0  0  0  # atno 10763 bound_to 10752
  153.6645  135.6988  153.5171 H   0  0  0  0  0  0  0  0  0  0  0  0  # atno 10764 bound_to 10752
  153.2792  135.4269  155.1019 H   0  0  0  0  0  0  0  0  0  0  0  0  # atno 10765 bound_to 10752
  140.9918  133.7001  156.1864 H   0  0  0  0  0  0  0  0  0  0  0  0  # atno 11005 bound_to 11000
  146.3245  140.3157  142.8630 LP  0  0  0  0  0  0  0  0  0  0  0  0  # atno 17320 bound_to 7965
  144.9332  140.7998  143.5676 LP  0  0  0  0  0  0  0  0  0  0  0  0  # atno 17321 bound_to 7965
  139.5343  144.2825  152.1217 LP  0  0  0  0  0  0  0  0  0  0  0  0  # atno 17342 bound_to 10162
  140.2020  144.4648  150.6427 LP  0  0  0  0  0  0  0  0  0  0  0  0  # atno 17343 bound_to 10162
  156.4122  130.7727  151.2741 LP  0  0  0  0  0  0  0  0  0  0  0  0  # atno 17370 bound_to 10713
  157.7508  131.0208  150.3724 LP  0  0  0  0  0  0  0  0  0  0  0  0  # atno 17371 bound_to 10713
  140.7028  134.4546  157.5585 LP  0  0  0  0  0  0  0  0  0  0  0  0  # atno 17394 bound_to 11000
  139.8996  134.8588  156.1954 LP  0  0  0  0  0  0  0  0  0  0  0  0  # atno 17395 bound_to 11000

$$$$
