AV-unprocessed.smi:101|AV-procd|sdf|943|dock2
  -GOLD-   2262017463D 1   1.00000     0.00000
 Structure written by MMmdl.
 43 45  0  0  0  0  0  0  0  0  2 V2000
  145.0515  144.7740  152.3094 C   0  0  0  0  0  0  0  0  0  0  0  0
  144.8813  144.2642  153.7296 C   0  0  0  0  0  0  0  0  0  0  0  0
  145.6235  143.2495  154.2255 C   0  0  0  0  0  0  0  0  0  0  0  0
  145.4616  142.7855  155.5189 N   0  0  0  0  0  0  0  0  0  0  0  0
  146.3099  141.6424  156.0356 C   0  0  2  0  0  0  0  0  0  0  0  0
  147.6567  141.9744  155.8721 O   0  0  0  0  0  0  0  0  0  0  0  0
  148.3707  140.8480  155.3767 C   0  0  2  0  0  0  0  0  0  0  0  0
  149.6646  141.2820  154.6736 C   0  0  0  0  0  0  0  0  0  0  0  0
  150.4904  141.9695  155.5988 O   0  0  0  0  0  0  0  0  0  0  0  0
  150.7257  141.4401  156.8147 C   0  0  0  0  0  0  0  0  0  0  0  0
  150.4910  140.2648  157.1038 O   0  0  0  0  0  0  0  0  0  0  0  0
  151.2989  142.4258  157.7763 C   0  0  0  0  0  0  0  0  0  0  0  0
  151.7507  141.9791  159.0401 C   0  0  0  0  0  0  0  0  0  0  0  0
  152.2974  142.8866  159.9682 C   0  0  0  0  0  0  0  0  0  0  0  0
  152.3991  144.2519  159.6437 C   0  0  0  0  0  0  0  0  0  0  0  0
  151.9534  144.7089  158.3897 C   0  0  0  0  0  0  0  0  0  0  0  0
  151.4064  143.8029  157.4603 C   0  0  0  0  0  0  0  0  0  0  0  0
  147.3469  140.1218  154.4955 C   0  0  2  0  0  0  0  0  0  0  0  0
  147.2936  140.7027  153.2023 O   0  0  0  0  0  0  0  0  0  0  0  0
  146.0565  140.3166  155.2857 C   0  0  2  0  0  0  0  0  0  0  0  0
  144.8914  140.2703  154.4795 O   0  0  0  0  0  0  0  0  0  0  0  0
  144.4721  143.3659  156.3546 C   0  0  0  0  0  0  0  0  0  0  0  0
  144.3211  142.9014  157.4850 O   0  0  0  0  0  0  0  0  0  0  0  0
  143.7257  144.3973  155.8669 N   0  5  0  0  0  0  0  0  0  0  0  0
  143.8753  144.8837  154.6010 C   0  0  0  0  0  0  0  0  0  0  0  0
  143.1958  145.8172  154.1749 O   0  0  0  0  0  0  0  0  0  0  0  0
  145.8408  144.2334  151.7864 H   0  0  0  0  0  0  0  0  0  0  0  0
  145.3120  145.8329  152.3121 H   0  0  0  0  0  0  0  0  0  0  0  0
  144.1256  144.6476  151.7475 H   0  0  0  0  0  0  0  0  0  0  0  0
  146.3608  142.7851  153.5878 H   0  0  0  0  0  0  0  0  0  0  0  0
  146.1129  141.5674  157.1057 H   0  0  0  0  0  0  0  0  0  0  0  0
  148.6112  140.2020  156.2234 H   0  0  0  0  0  0  0  0  0  0  0  0
  150.2005  140.4047  154.3087 H   0  0  0  0  0  0  0  0  0  0  0  0
  149.4409  141.9160  153.8143 H   0  0  0  0  0  0  0  0  0  0  0  0
  151.6828  140.9355  159.3118 H   0  0  0  0  0  0  0  0  0  0  0  0
  152.6391  142.5340  160.9302 H   0  0  0  0  0  0  0  0  0  0  0  0
  152.8185  144.9476  160.3555 H   0  0  0  0  0  0  0  0  0  0  0  0
  152.0310  145.7566  158.1393 H   0  0  0  0  0  0  0  0  0  0  0  0
  151.0748  144.1868  156.5065 H   0  0  0  0  0  0  0  0  0  0  0  0
  147.5913  139.0653  154.3809 H   0  0  0  0  0  0  0  0  0  0  0  0
  148.0709  140.4538  152.7272 H   0  0  0  0  0  0  0  0  0  0  0  0
  145.9814  139.5347  156.0424 H   0  0  0  0  0  0  0  0  0  0  0  0
  145.1293  139.9201  153.6341 H   0  0  0  0  0  0  0  0  0  0  0  0
  1  2  1  0  0  0  0
  1 27  1  0  0  0  0
  1 28  1  0  0  0  0
  1 29  1  0  0  0  0
  2 25  1  0  0  0  0
  2  3  2  0  0  0  0
  3  4  1  0  0  0  0
  3 30  1  0  0  0  0
  4  5  1  0  0  0  0
  4 22  1  0  0  0  0
  5 20  1  0  0  0  0
  5  6  1  0  0  0  0
  5 31  1  0  0  0  0
  6  7  1  0  0  0  0
  7  8  1  0  0  0  0
  7 18  1  0  0  0  0
  7 32  1  0  0  0  0
  8  9  1  0  0  0  0
  8 33  1  0  0  0  0
  8 34  1  0  0  0  0
  9 10  1  0  0  0  0
 10 11  2  0  0  0  0
 10 12  1  0  0  0  0
 12 17  1  0  0  0  0
 12 13  2  0  0  0  0
 13 14  1  0  0  0  0
 13 35  1  0  0  0  0
 14 15  2  0  0  0  0
 14 36  1  0  0  0  0
 15 16  1  0  0  0  0
 15 37  1  0  0  0  0
 16 17  2  0  0  0  0
 16 38  1  0  0  0  0
 17 39  1  0  0  0  0
 18 19  1  0  0  0  0
 18 20  1  0  0  0  0
 18 40  1  0  0  0  0
 19 41  1  0  0  0  0
 20 21  1  0  0  0  0
 20 42  1  0  0  0  0
 21 43  1  0  0  0  0
 22 23  2  0  0  0  0
 22 24  1  0  0  0  0
 24 25  1  0  0  0  0
 25 26  2  0  0  0  0
M  CHG  1  24  -1
M  END
> <s_m_source_file>
AV-unprocessed.smi

> <i_m_source_file_index>
101

> <i_lp_mmshare_version>
43012

> <i_f3d_flags>
0

> <s_epik_input>
Tz1jMVtuSF1jKD1PKW4oW2NIXWMxW0NIM10pW0NAQEhdMk9bQ0BIXShbQ0BASF0oW09IXSlbQ0BIXTJbT0hdKVtDSDJdT0MoPU8pYzNbY0hdW2NIXVtjSF1bY0hdW2NIXTM=

> <s_epik_cmdline>
J2VwaWtfcHl0aG9uJywgJy1waCcsICc3LjAnLCAnLXRuJywgJzgnLCAnLW1hJywgJzIwMCcsICctbWV0YWxfYmluZGluZycsICctaW1hZScsICc8aW5maWxlLm1hZT4nLCAnLW9tYWUnLCAnPG91dGZpbGUubWFlPic=

> <r_lp_tautomer_probability>
0.999537

> <r_epik_Ionization_Penalty>
3.21006

> <r_epik_Ionization_Penalty_Charging>
5.75142e-08

> <r_epik_Ionization_Penalty_Neutral>
3.21006

> <r_epik_State_Penalty>
3.20925

> <r_epik_Charging_Adjusted_Penalty>
3.20925

> <i_epik_Tot_Q>
-1

> <i_epik_Tot_abs_Q>
1

> <r_epik_Metal_State_Penalty>
0.119957

> <b_epik_Metal_Only>
1

> <s_epik_Chemistry_Notes>
This compound has an ester and may undergo hydrolysis at high or low pH. This compound contains an acetal/aminal-like group ( X-CH(R)-Y where X, Y are N, S, or O) that may be acid/base labile, releasing an aldehyde.

> <s_lp_Force_Field>
OPLS_2005

> <r_lp_Energy>
51.0672

> <b_lp_Chiralities_Consistent>
1

> <s_lp_Variant>
AV-unprocessed.smi:101-31

> <Gold.Version>
5.8.1

> <Gold.Id.Protein>
6NUR|6NUR_protein|mol2

> <Gold.PLP.Fitness>
47.3106

> <Gold.PLP.PLP>
-45.7779

> <Gold.PLP.part.hbond>
-2.6138

> <Gold.PLP.part.metal>
0.0000

> <Gold.PLP.part.buried>
-4.8144

> <Gold.PLP.part.nonpolar>
-39.1447

> <Gold.PLP.part.repulsive>
1.7304

> <Gold.PLP.ligand.clash>
0.0000

> <Gold.PLP.ligand.torsion>
0.3023

> <Gold.PLP.Chemscore.Hbond>
0.6978

> <Gold.PLP.Chemscore.CHOScore>
0.0000

> <Gold.PLP.Chemscore.Metal>
0.0000

> <Gold.Chemscore.Hbonds>
donor molecule, donor type, donor heavy atom, donor atom, acceptor molecule, acceptor atom, score
      L1  H    19    41       P1  7957  0.52
      L1  H    21    43       P1 10175  0.08

> <Gold.PLP.Chemscore.Internal.Correction>
0.0441

> <Gold.Rescore>
     Score         DG    S(hbond)    S(metal)    S(lipo)     H(rot)  DE(clash)    DE(int)     intcor
      9.66     -11.60       0.69        0.00     104.06       3.27       0.21       1.73       ----

> <Gold.Chemscore.Fitness>
9.6568

> <Gold.Chemscore.DG>
-11.6019

> <Gold.Chemscore.ZeroCoef>
-5.4800

> <Gold.Chemscore.Hbond>
0.6905

> <Gold.Chemscore.Metal>
0.0000

> <Gold.Chemscore.Lipo>
104.0639

> <Gold.Chemscore.Internal_Hbond>
0.0000

> <Gold.Chemscore.DEClash>
0.2150

> <Gold.Chemscore.DEInternal>
1.7301

> <Gold.Chemscore.Rot>
3.2656

> <Gold.Chemscore.Internal.Correction>
   9.000000E+99

> <Gold.Chemscore.Hbonds>
donor molecule, donor type, donor heavy atom, donor atom, acceptor molecule, acceptor atom, score
      L1  H    19    41       P1  7957  0.52
      L1  H    21    43       P1 10175  0.10

> <Gold.Chemscore.Hbond.Weighted>
-2.3062

> <Gold.Chemscore.Metal.Weighted>
-0.0000

> <Gold.Chemscore.Lipo.Weighted>
-12.1755

> <Gold.Chemscore.Internal_Hbond.Weighted>
0.0000

> <Gold.Chemscore.DEClash.Weighted>
0.2150

> <Gold.Chemscore.DEInternal.Weighted>
1.7301

> <Gold.Chemscore.Rot.Weighted>
8.3598

> <Gold.Chemscore.Internal.Correction.Weighted>
   9.000000E+99

> <Gold.Protein.RotatedTorsions>
[ 6907 6896 6895 6894 ] final   39.02 input  -60.11 | X-H torsion
[ 7974 7965 7964 7962 ] final -111.75 input  175.53 | X-H torsion
[ 8008 7997 7996 7995 ] final   28.27 input   59.86 | X-H torsion
[ 10167 10162 10161 10158 ] final  144.46 input  -65.29 | X-H torsion
[ 10718 10713 10712 10709 ] final -107.44 input   66.30 | X-H torsion
[ 10763 10752 10751 10750 ] final   76.05 input  -60.55 | X-H torsion
[ 11005 11000 10999 10996 ] final -159.79 input  -57.11 | X-H torsion

> <Gold.Protein.ActiveResidues>
 VAL166  LYS551  ARG553  GLY616  TRP617  ASP618  TYR619  PRO620  LYS621  CYS622 
 ASP623  PHE694  ASN695  SER759  ASP760  ASP761  ALA762  ILE779  LEU786  VAL792 
 PHE793  MET794  SER795  GLU796  ALA797  LYS798  CYS799  TRP800  GLU811  SER814 

> <Gold.Protein.RotatedAtoms>
  152.1641  134.8888  160.0539 H   0  0  0  0  0  0  0  0  0  0  0  0  # atno 6907 bound_to 6896
  151.9873  133.3773  159.4139 H   0  0  0  0  0  0  0  0  0  0  0  0  # atno 6908 bound_to 6896
  150.6892  134.3897  159.5115 H   0  0  0  0  0  0  0  0  0  0  0  0  # atno 6909 bound_to 6896
  145.1523  140.8835  143.3639 H   0  0  0  0  0  0  0  0  0  0  0  0  # atno 7974 bound_to 7965
  155.0560  140.3185  155.4676 H   0  0  0  0  0  0  0  0  0  0  0  0  # atno 8008 bound_to 7997
  156.2824  140.2137  156.5630 H   0  0  0  0  0  0  0  0  0  0  0  0  # atno 8009 bound_to 7997
  154.7171  140.0493  157.0592 H   0  0  0  0  0  0  0  0  0  0  0  0  # atno 8010 bound_to 7997
  139.4946  144.5970  151.6561 H   0  0  0  0  0  0  0  0  0  0  0  0  # atno 10167 bound_to 10162
  156.0437  130.5662  150.7821 H   0  0  0  0  0  0  0  0  0  0  0  0  # atno 10718 bound_to 10713
  153.0697  135.4966  154.8279 H   0  0  0  0  0  0  0  0  0  0  0  0  # atno 10763 bound_to 10752
  154.7005  135.3001  154.9350 H   0  0  0  0  0  0  0  0  0  0  0  0  # atno 10764 bound_to 10752
  154.0075  135.6758  153.4816 H   0  0  0  0  0  0  0  0  0  0  0  0  # atno 10765 bound_to 10752
  140.6387  134.4575  157.5232 H   0  0  0  0  0  0  0  0  0  0  0  0  # atno 11005 bound_to 11000
  145.0418  139.3254  143.5973 LP  0  0  0  0  0  0  0  0  0  0  0  0  # atno 17320 bound_to 7965
  146.3493  139.9794  142.8697 LP  0  0  0  0  0  0  0  0  0  0  0  0  # atno 17321 bound_to 7965
  140.5611  144.0267  150.6170 LP  0  0  0  0  0  0  0  0  0  0  0  0  # atno 17342 bound_to 10162
  140.3354  143.3052  152.0644 LP  0  0  0  0  0  0  0  0  0  0  0  0  # atno 17343 bound_to 10162
  157.5286  131.0935  150.9985 LP  0  0  0  0  0  0  0  0  0  0  0  0  # atno 17370 bound_to 10713
  157.0297  130.5706  149.5341 LP  0  0  0  0  0  0  0  0  0  0  0  0  # atno 17371 bound_to 10713
  139.9088  134.8389  156.1603 LP  0  0  0  0  0  0  0  0  0  0  0  0  # atno 17394 bound_to 11000
  141.0623  133.6836  156.1976 LP  0  0  0  0  0  0  0  0  0  0  0  0  # atno 17395 bound_to 11000

$$$$
