AV-unprocessed.smi:2812|AV-procd|sdf|10833|dock7
  -GOLD-   2272015273D 1   1.00000     0.00000
 Structure written by MMmdl.
 55 56  0  0  0  0  0  0  0  0  2 V2000
  147.4082  132.5205  159.4796 C   0  0  0  0  0  0  0  0  0  0  0  0
  147.5001  133.6570  160.4857 C   0  0  0  0  0  0  0  0  0  0  0  0
  147.3678  133.3612  161.8973 C   0  0  0  0  0  0  0  0  0  0  0  0
  147.4344  134.3586  162.7890 C   0  0  0  0  0  0  0  0  0  0  0  0
  147.6441  135.6875  162.3935 N   0  0  0  0  0  0  0  0  0  0  0  0
  147.7130  136.7057  163.4451 C   0  0  0  0  0  0  0  0  0  0  0  0
  147.8091  136.0421  161.0866 C   0  0  0  0  0  0  0  0  0  0  0  0
  148.0644  137.2080  160.7766 O   0  0  0  0  0  0  0  0  0  0  0  0
  147.6815  134.9461  160.0950 C   0  0  0  0  0  0  0  0  0  0  0  0
  147.8290  135.2254  158.7270 N   0  0  0  0  0  0  0  0  0  0  0  0
  147.1091  136.1106  158.0156 C   0  0  0  0  0  0  0  0  0  0  0  0
  146.2148  136.8232  158.4738 O   0  0  0  0  0  0  0  0  0  0  0  0
  147.4628  136.1056  156.7227 N   0  0  0  0  0  0  0  0  0  0  0  0
  146.8555  136.9430  155.6936 C   0  0  0  0  0  0  0  0  0  0  0  0
  147.6973  136.9931  154.3884 C   0  0  2  0  0  0  0  0  0  0  0  0
  148.4683  138.3216  154.2012 C   0  0  0  0  0  0  0  0  0  0  0  0
  147.5387  139.4821  153.8251 C   0  0  0  0  0  0  0  0  0  0  0  0
  146.7336  139.1134  152.5749 C   0  0  0  0  0  0  0  0  0  0  0  0
  145.9789  137.7890  152.7722 C   0  0  0  0  0  0  0  0  0  0  0  0
  146.9002  136.6859  153.1583 N   0  3  2  0  0  0  0  0  0  0  0  0
  146.2162  135.3617  153.1350 C   0  0  0  0  0  0  0  0  0  0  0  0
  145.8854  134.8283  151.7222 C   0  0  0  0  0  0  0  0  0  0  0  0
  144.7481  135.6193  151.0545 C   0  0  0  0  0  0  0  0  0  0  0  0
  145.5330  133.3348  151.7840 C   0  0  0  0  0  0  0  0  0  0  0  0
  147.2389  131.5653  159.9774 H   0  0  0  0  0  0  0  0  0  0  0  0
  148.3322  132.4401  158.9062 H   0  0  0  0  0  0  0  0  0  0  0  0
  146.5828  132.6881  158.7867 H   0  0  0  0  0  0  0  0  0  0  0  0
  147.2096  132.3473  162.2342 H   0  0  0  0  0  0  0  0  0  0  0  0
  147.3404  134.1997  163.8532 H   0  0  0  0  0  0  0  0  0  0  0  0
  146.9769  137.4913  163.2668 H   0  0  0  0  0  0  0  0  0  0  0  0
  148.7020  137.1655  163.4687 H   0  0  0  0  0  0  0  0  0  0  0  0
  147.5166  136.3000  164.4381 H   0  0  0  0  0  0  0  0  0  0  0  0
  148.4495  134.6131  158.2181 H   0  0  0  0  0  0  0  0  0  0  0  0
  148.2044  135.4855  156.4315 H   0  0  0  0  0  0  0  0  0  0  0  0
  145.8521  136.5627  155.5011 H   0  0  0  0  0  0  0  0  0  0  0  0
  146.7273  137.9399  156.1134 H   0  0  0  0  0  0  0  0  0  0  0  0
  148.4688  136.2288  154.4655 H   0  0  0  0  0  0  0  0  0  0  0  0
  149.0403  138.5747  155.0939 H   0  0  0  0  0  0  0  0  0  0  0  0
  149.2063  138.1927  153.4081 H   0  0  0  0  0  0  0  0  0  0  0  0
  146.8650  139.7101  154.6517 H   0  0  0  0  0  0  0  0  0  0  0  0
  148.1217  140.3852  153.6422 H   0  0  0  0  0  0  0  0  0  0  0  0
  146.0304  139.9114  152.3354 H   0  0  0  0  0  0  0  0  0  0  0  0
  147.4056  139.0274  151.7199 H   0  0  0  0  0  0  0  0  0  0  0  0
  145.1986  137.9051  153.5252 H   0  0  0  0  0  0  0  0  0  0  0  0
  145.4730  137.5326  151.8406 H   0  0  0  0  0  0  0  0  0  0  0  0
  146.8123  134.6324  153.6841 H   0  0  0  0  0  0  0  0  0  0  0  0
  145.2816  135.4520  153.6905 H   0  0  0  0  0  0  0  0  0  0  0  0
  146.7710  134.9032  151.0915 H   0  0  0  0  0  0  0  0  0  0  0  0
  143.8327  135.5724  151.6450 H   0  0  0  0  0  0  0  0  0  0  0  0
  144.5240  135.2210  150.0645 H   0  0  0  0  0  0  0  0  0  0  0  0
  145.0101  136.6698  150.9273 H   0  0  0  0  0  0  0  0  0  0  0  0
  144.6431  133.1602  152.3899 H   0  0  0  0  0  0  0  0  0  0  0  0
  146.3493  132.7553  152.2162 H   0  0  0  0  0  0  0  0  0  0  0  0
  145.3403  132.9349  150.7880 H   0  0  0  0  0  0  0  0  0  0  0  0
  147.5803  136.6399  152.4130 H   0  0  0  0  0  0  0  0  0  0  0  0
  1  2  1  0  0  0  0
  1 25  1  0  0  0  0
  1 26  1  0  0  0  0
  1 27  1  0  0  0  0
  2  9  2  0  0  0  0
  2  3  1  0  0  0  0
  3  4  2  0  0  0  0
  3 28  1  0  0  0  0
  4  5  1  0  0  0  0
  4 29  1  0  0  0  0
  5  6  1  0  0  0  0
  5  7  1  0  0  0  0
  6 30  1  0  0  0  0
  6 31  1  0  0  0  0
  6 32  1  0  0  0  0
  7  8  2  0  0  0  0
  7  9  1  0  0  0  0
  9 10  1  0  0  0  0
 10 11  1  0  0  0  0
 10 33  1  0  0  0  0
 11 12  2  0  0  0  0
 11 13  1  0  0  0  0
 13 14  1  0  0  0  0
 13 34  1  0  0  0  0
 14 15  1  0  0  0  0
 14 35  1  0  0  0  0
 14 36  1  0  0  0  0
 15 20  1  0  0  0  0
 15 16  1  0  0  0  0
 15 37  1  0  0  0  0
 16 17  1  0  0  0  0
 16 38  1  0  0  0  0
 16 39  1  0  0  0  0
 17 18  1  0  0  0  0
 17 40  1  0  0  0  0
 17 41  1  0  0  0  0
 18 19  1  0  0  0  0
 18 42  1  0  0  0  0
 18 43  1  0  0  0  0
 19 20  1  0  0  0  0
 19 44  1  0  0  0  0
 19 45  1  0  0  0  0
 20 21  1  0  0  0  0
 20 55  1  0  0  0  0
 21 22  1  0  0  0  0
 21 46  1  0  0  0  0
 21 47  1  0  0  0  0
 22 23  1  0  0  0  0
 22 24  1  0  0  0  0
 22 48  1  0  0  0  0
 23 49  1  0  0  0  0
 23 50  1  0  0  0  0
 23 51  1  0  0  0  0
 24 52  1  0  0  0  0
 24 53  1  0  0  0  0
 24 54  1  0  0  0  0
M  CHG  1  20   1
M  END
> <s_m_source_file>
AV-unprocessed.smi

> <i_m_source_file_index>
2812

> <i_lp_mmshare_version>
43012

> <i_f3d_flags>
0

> <s_epik_input>
W0NIM11jMVtjSF1bY0hdbihbQ0gzXSljKD1PKWMxW05IXUMoPU8pW05IXVtDSDJdW0NAQEhdMltDSDJdW0NIMl1bQ0gyXVtDSDJdTjJbQ0gyXVtDSF0oW0NIM10pW0NIM10=

> <s_epik_cmdline>
J2VwaWtfcHl0aG9uJywgJy1waCcsICc3LjAnLCAnLXRuJywgJzgnLCAnLW1hJywgJzIwMCcsICctbWV0YWxfYmluZGluZycsICctaW1hZScsICc8aW5maWxlLm1hZT4nLCAnLW9tYWUnLCAnPG91dGZpbGUubWFlPic=

> <r_lp_tautomer_probability>
1

> <r_epik_Ionization_Penalty>
0.0010902

> <r_epik_Ionization_Penalty_Charging>
0.00107091

> <r_epik_Ionization_Penalty_Neutral>
1.92854e-05

> <r_epik_State_Penalty>
0.000697184

> <r_epik_Charging_Adjusted_Penalty>
0.0017681

> <i_epik_Tot_Q>
1

> <i_epik_Tot_abs_Q>
1

> <r_epik_Metal_State_Penalty>
-0

> <b_epik_Metal_Only>
0

> <s_lp_Force_Field>
OPLS_2005

> <r_lp_Energy>
39.0226

> <b_lp_Chiralities_Consistent>
1

> <s_lp_Variant>
AV-unprocessed.smi:2812-1

> <Gold.Version>
5.8.1

> <Gold.Id.Protein>
6NUR|6NUR_protein|mol2

> <Gold.PLP.Fitness>
44.8603

> <Gold.PLP.PLP>
-36.4178

> <Gold.PLP.part.hbond>
-2.8061

> <Gold.PLP.part.metal>
0.0000

> <Gold.PLP.part.buried>
-0.6350

> <Gold.PLP.part.nonpolar>
-33.1800

> <Gold.PLP.part.repulsive>
0.0659

> <Gold.PLP.ligand.clash>
0.0000

> <Gold.PLP.ligand.torsion>
1.5103

> <Gold.PLP.Chemscore.Hbond>
3.6000

> <Gold.PLP.Chemscore.CHOScore>
0.0000

> <Gold.PLP.Chemscore.Metal>
0.0000

> <Gold.Chemscore.Hbonds>
donor molecule, donor type, donor heavy atom, donor atom, acceptor molecule, acceptor atom, score
      L1  H    20    55       P1  7948  1.98
      P1  H  6931  6943       L1     8  0.85
      P1  H  6934  6947       L1     8  0.72

> <Gold.PLP.Chemscore.Internal.Correction>
0.6631

> <Gold.Rescore>
     Score         DG    S(hbond)    S(metal)    S(lipo)     H(rot)  DE(clash)    DE(int)     intcor
     18.26     -20.01       2.55        0.00      84.56       1.52       0.05       1.70       ----

> <Gold.Chemscore.Fitness>
18.2583

> <Gold.Chemscore.DG>
-20.0068

> <Gold.Chemscore.ZeroCoef>
-5.4800

> <Gold.Chemscore.Hbond>
2.5491

> <Gold.Chemscore.Metal>
0.0000

> <Gold.Chemscore.Lipo>
84.5568

> <Gold.Chemscore.Internal_Hbond>
0.0000

> <Gold.Chemscore.DEClash>
0.0511

> <Gold.Chemscore.DEInternal>
1.6973

> <Gold.Chemscore.Rot>
1.5157

> <Gold.Chemscore.Internal.Correction>
   9.000000E+99

> <Gold.Chemscore.Hbonds>
donor molecule, donor type, donor heavy atom, donor atom, acceptor molecule, acceptor atom, score
      L1  H    20    55       P1  7948  0.90
      P1  H  6931  6943       L1     8  0.83
      P1  H  6934  6947       L1     8  0.68

> <Gold.Chemscore.Hbond.Weighted>
-8.5139

> <Gold.Chemscore.Metal.Weighted>
-0.0000

> <Gold.Chemscore.Lipo.Weighted>
-9.8931

> <Gold.Chemscore.Internal_Hbond.Weighted>
0.0000

> <Gold.Chemscore.DEClash.Weighted>
0.0511

> <Gold.Chemscore.DEInternal.Weighted>
1.6973

> <Gold.Chemscore.Rot.Weighted>
3.8803

> <Gold.Chemscore.Internal.Correction.Weighted>
   9.000000E+99

> <Gold.Protein.RotatedTorsions>
[ 6907 6896 6895 6894 ] final -113.04 input  -60.11 | X-H torsion
[ 7974 7965 7964 7962 ] final  120.98 input  175.53 | X-H torsion
[ 8008 7997 7996 7995 ] final  111.85 input   59.86 | X-H torsion
[ 10167 10162 10161 10158 ] final -129.85 input  -65.29 | X-H torsion
[ 10718 10713 10712 10709 ] final    2.07 input   66.30 | X-H torsion
[ 10763 10752 10751 10750 ] final -131.20 input  -60.55 | X-H torsion
[ 11005 11000 10999 10996 ] final  132.09 input  -57.11 | X-H torsion

> <Gold.Protein.ActiveResidues>
 VAL166  LYS551  ARG553  GLY616  TRP617  ASP618  TYR619  PRO620  LYS621  CYS622 
 ASP623  PHE694  ASN695  SER759  ASP760  ASP761  ALA762  ILE779  LEU786  VAL792 
 PHE793  MET794  SER795  GLU796  ALA797  LYS798  CYS799  TRP800  GLU811  SER814 

> <Gold.Protein.RotatedAtoms>
  150.7801  133.9002  159.3338 H   0  0  0  0  0  0  0  0  0  0  0  0  # atno 6907 bound_to 6896
  151.6867  135.0951  160.0235 H   0  0  0  0  0  0  0  0  0  0  0  0  # atno 6908 bound_to 6896
  152.3849  133.6559  159.6226 H   0  0  0  0  0  0  0  0  0  0  0  0  # atno 6909 bound_to 6896
  145.1247  139.3366  143.4696 H   0  0  0  0  0  0  0  0  0  0  0  0  # atno 7974 bound_to 7965
  156.2152  140.3011  155.9824 H   0  0  0  0  0  0  0  0  0  0  0  0  # atno 8008 bound_to 7997
  155.2623  140.0430  157.3015 H   0  0  0  0  0  0  0  0  0  0  0  0  # atno 8009 bound_to 7997
  154.5758  140.2361  155.8134 H   0  0  0  0  0  0  0  0  0  0  0  0  # atno 8010 bound_to 7997
  139.9355  143.6223  152.2518 H   0  0  0  0  0  0  0  0  0  0  0  0  # atno 10167 bound_to 10162
  156.8576  130.5575  149.5665 H   0  0  0  0  0  0  0  0  0  0  0  0  # atno 10718 bound_to 10713
  154.8752  135.3838  154.4207 H   0  0  0  0  0  0  0  0  0  0  0  0  # atno 10763 bound_to 10752
  153.4911  135.7030  153.5889 H   0  0  0  0  0  0  0  0  0  0  0  0  # atno 10764 bound_to 10752
  153.4262  135.3889  155.2109 H   0  0  0  0  0  0  0  0  0  0  0  0  # atno 10765 bound_to 10752
  139.9769  134.9560  156.9532 H   0  0  0  0  0  0  0  0  0  0  0  0  # atno 11005 bound_to 11000
  146.3518  140.1221  142.8600 LP  0  0  0  0  0  0  0  0  0  0  0  0  # atno 17320 bound_to 7965
  145.0701  140.9149  143.4887 LP  0  0  0  0  0  0  0  0  0  0  0  0  # atno 17321 bound_to 7965
  139.6747  144.7659  151.1717 LP  0  0  0  0  0  0  0  0  0  0  0  0  # atno 17342 bound_to 10162
  140.7626  143.5812  150.8893 LP  0  0  0  0  0  0  0  0  0  0  0  0  # atno 17343 bound_to 10162
  156.0794  130.5808  150.9535 LP  0  0  0  0  0  0  0  0  0  0  0  0  # atno 17370 bound_to 10713
  157.6268  131.0925  150.8518 LP  0  0  0  0  0  0  0  0  0  0  0  0  # atno 17371 bound_to 10713
  140.5176  134.0939  155.7284 LP  0  0  0  0  0  0  0  0  0  0  0  0  # atno 17394 bound_to 11000
  141.1445  133.9079  157.2248 LP  0  0  0  0  0  0  0  0  0  0  0  0  # atno 17395 bound_to 11000

$$$$
