AV-unprocessed.smi:467|AV-procd|sdf|2648|dock2
  -GOLD-   2262023 53D 1   1.00000     0.00000
 Structure written by MMmdl.
 45 47  0  0  0  0  0  0  0  0  2 V2000
  152.3154  143.9957  160.8201 C   0  0  0  0  0  0  0  0  0  0  0  0
  152.0227  143.0375  159.6779 C   0  0  0  0  0  0  0  0  0  0  0  0
  151.1250  143.4484  158.6668 C   0  0  0  0  0  0  0  0  0  0  0  0
  150.8803  142.5518  157.6333 C   0  0  0  0  0  0  0  0  0  0  0  0
  150.0651  142.6588  156.5046 N   0  3  0  0  0  0  0  0  0  0  0  0
  150.1519  141.5146  155.7712 C   0  0  0  0  0  0  0  0  0  0  0  0
  151.0074  140.6764  156.4167 N   0  0  0  0  0  0  0  0  0  0  0  0
  151.4422  139.3195  156.0544 C   0  0  0  0  0  0  0  0  0  0  0  0
  150.5435  138.6625  154.9885 C   0  0  1  0  0  0  0  0  0  0  0  0
  150.6874  139.3473  153.7598 O   0  0  0  0  0  0  0  0  0  0  0  0
  150.9211  137.1843  154.7675 C   0  0  0  0  0  0  0  0  0  0  0  0
  150.1102  136.2089  155.4991 N   0  0  0  0  0  0  0  0  0  0  0  0
  149.9521  136.5454  156.9130 C   0  0  0  0  0  0  0  0  0  0  0  0
  149.1204  135.4903  157.6637 C   0  0  0  0  0  0  0  0  0  0  0  0
  149.7200  134.2082  157.5108 O   0  0  0  0  0  0  0  0  0  0  0  0
  149.8488  133.8231  156.1464 C   0  0  0  0  0  0  0  0  0  0  0  0
  150.6858  134.8720  155.3942 C   0  0  0  0  0  0  0  0  0  0  0  0
  151.4889  141.2825  157.5838 C   0  0  0  0  0  0  0  0  0  0  0  0
  152.3751  140.8623  158.5730 C   0  0  0  0  0  0  0  0  0  0  0  0
  152.6422  141.7618  159.6296 C   0  0  0  0  0  0  0  0  0  0  0  0
  153.6143  141.3336  160.7158 C   0  0  0  0  0  0  0  0  0  0  0  0
  151.7165  144.9037  160.7428 H   0  0  0  0  0  0  0  0  0  0  0  0
  153.3661  144.2869  160.8135 H   0  0  0  0  0  0  0  0  0  0  0  0
  152.0902  143.5314  161.7802 H   0  0  0  0  0  0  0  0  0  0  0  0
  150.6517  144.4191  158.6953 H   0  0  0  0  0  0  0  0  0  0  0  0
  149.6338  141.3086  154.8456 H   0  0  0  0  0  0  0  0  0  0  0  0
  152.4841  139.3488  155.7345 H   0  0  0  0  0  0  0  0  0  0  0  0
  151.4223  138.7253  156.9688 H   0  0  0  0  0  0  0  0  0  0  0  0
  149.5077  138.7519  155.3133 H   0  0  0  0  0  0  0  0  0  0  0  0
  149.9544  139.1205  153.2072 H   0  0  0  0  0  0  0  0  0  0  0  0
  150.8515  136.9770  153.6983 H   0  0  0  0  0  0  0  0  0  0  0  0
  151.9711  137.0398  155.0270 H   0  0  0  0  0  0  0  0  0  0  0  0
  150.9320  136.6352  157.3847 H   0  0  0  0  0  0  0  0  0  0  0  0
  149.4615  137.5112  157.0243 H   0  0  0  0  0  0  0  0  0  0  0  0
  149.0657  135.7344  158.7246 H   0  0  0  0  0  0  0  0  0  0  0  0
  148.0965  135.4669  157.2871 H   0  0  0  0  0  0  0  0  0  0  0  0
  150.3294  132.8461  156.0955 H   0  0  0  0  0  0  0  0  0  0  0  0
  148.8612  133.7198  155.6944 H   0  0  0  0  0  0  0  0  0  0  0  0
  150.7632  134.5835  154.3452 H   0  0  0  0  0  0  0  0  0  0  0  0
  151.7020  134.8740  155.7921 H   0  0  0  0  0  0  0  0  0  0  0  0
  152.8506  139.8934  158.5341 H   0  0  0  0  0  0  0  0  0  0  0  0
  154.0234  140.3427  160.5170 H   0  0  0  0  0  0  0  0  0  0  0  0
  153.1161  141.3001  161.6850 H   0  0  0  0  0  0  0  0  0  0  0  0
  154.4497  142.0312  160.7789 H   0  0  0  0  0  0  0  0  0  0  0  0
  149.4916  143.4531  156.2509 H   0  0  0  0  0  0  0  0  0  0  0  0
  1  2  1  0  0  0  0
  1 22  1  0  0  0  0
  1 23  1  0  0  0  0
  1 24  1  0  0  0  0
  2 20  1  0  0  0  0
  2  3  2  0  0  0  0
  3  4  1  0  0  0  0
  3 25  1  0  0  0  0
  4 18  2  0  0  0  0
  4  5  1  0  0  0  0
  5  6  2  0  0  0  0
  5 45  1  0  0  0  0
  6  7  1  0  0  0  0
  6 26  1  0  0  0  0
  7  8  1  0  0  0  0
  7 18  1  0  0  0  0
  8  9  1  0  0  0  0
  8 27  1  0  0  0  0
  8 28  1  0  0  0  0
  9 10  1  0  0  0  0
  9 11  1  0  0  0  0
  9 29  1  0  0  0  0
 10 30  1  0  0  0  0
 11 12  1  0  0  0  0
 11 31  1  0  0  0  0
 11 32  1  0  0  0  0
 12 17  1  0  0  0  0
 12 13  1  0  0  0  0
 13 14  1  0  0  0  0
 13 33  1  0  0  0  0
 13 34  1  0  0  0  0
 14 15  1  0  0  0  0
 14 35  1  0  0  0  0
 14 36  1  0  0  0  0
 15 16  1  0  0  0  0
 16 17  1  0  0  0  0
 16 37  1  0  0  0  0
 16 38  1  0  0  0  0
 17 39  1  0  0  0  0
 17 40  1  0  0  0  0
 18 19  1  0  0  0  0
 19 20  2  0  0  0  0
 19 41  1  0  0  0  0
 20 21  1  0  0  0  0
 21 42  1  0  0  0  0
 21 43  1  0  0  0  0
 21 44  1  0  0  0  0
M  CHG  1   5   1
M  END
> <s_m_source_file>
AV-unprocessed.smi

> <i_m_source_file_index>
467

> <i_lp_mmshare_version>
43012

> <i_f3d_flags>
0

> <s_epik_input>
W0NIM11jKFtjSF0xKWMoW0NIM10pW2NIXWMoYzEyKW4oW2NIXW4yKVtDSDJdW0NASF0oW09IXSlbQ0gyXU4zW0NIMl1bQ0gyXU9bQ0gyXVtDSDJdMw==

> <s_epik_cmdline>
J2VwaWtfcHl0aG9uJywgJy1waCcsICc3LjAnLCAnLXRuJywgJzgnLCAnLW1hJywgJzIwMCcsICctbWV0YWxfYmluZGluZycsICctaW1hZScsICc8aW5maWxlLm1hZT4nLCAnLW9tYWUnLCAnPG91dGZpbGUubWFlPic=

> <r_epik_Ionization_Penalty>
1.42557

> <r_epik_Ionization_Penalty_Charging>
1.21121

> <r_epik_Ionization_Penalty_Neutral>
0.214359

> <r_epik_State_Penalty>
1.47019

> <r_epik_Charging_Adjusted_Penalty>
2.68141

> <i_epik_Tot_Q>
1

> <i_epik_Tot_abs_Q>
1

> <r_epik_Metal_State_Penalty>
5.48819

> <b_epik_Metal_Only>
0

> <s_lp_Force_Field>
OPLS_2005

> <r_lp_Energy>
35.2286

> <b_lp_Chiralities_Consistent>
1

> <s_lp_Variant>
AV-unprocessed.smi:467-6

> <Gold.Version>
5.8.1

> <Gold.Id.Protein>
6NUR|6NUR_protein|mol2

> <Gold.PLP.Fitness>
51.2295

> <Gold.PLP.PLP>
-40.3781

> <Gold.PLP.part.hbond>
-3.9740

> <Gold.PLP.part.metal>
0.0000

> <Gold.PLP.part.buried>
-4.0416

> <Gold.PLP.part.nonpolar>
-33.5645

> <Gold.PLP.part.repulsive>
0.1693

> <Gold.PLP.ligand.clash>
0.0000

> <Gold.PLP.ligand.torsion>
0.8063

> <Gold.PLP.Chemscore.Hbond>
4.1300

> <Gold.PLP.Chemscore.CHOScore>
0.0000

> <Gold.PLP.Chemscore.Metal>
0.0000

> <Gold.Chemscore.Hbonds>
donor molecule, donor type, donor heavy atom, donor atom, acceptor molecule, acceptor atom, score
      L1  H     5    45       P1  8028  1.95
      L1  H    10    30       P1  7957  0.20
      P1  H  6896  6908       L1    15  0.91
      P1  H  7989  7998       L1    10  1.00

> <Gold.PLP.Chemscore.Internal.Correction>
0.0740

> <Gold.Rescore>
     Score         DG    S(hbond)    S(metal)    S(lipo)     H(rot)  DE(clash)    DE(int)     intcor
     20.35     -22.48       2.85        0.00     109.53       2.08       0.24       1.89       ----

> <Gold.Chemscore.Fitness>
20.3530

> <Gold.Chemscore.DG>
-22.4799

> <Gold.Chemscore.ZeroCoef>
-5.4800

> <Gold.Chemscore.Hbond>
2.8481

> <Gold.Chemscore.Metal>
0.0000

> <Gold.Chemscore.Lipo>
109.5287

> <Gold.Chemscore.Internal_Hbond>
0.0000

> <Gold.Chemscore.DEClash>
0.2362

> <Gold.Chemscore.DEInternal>
1.8908

> <Gold.Chemscore.Rot>
2.0811

> <Gold.Chemscore.Internal.Correction>
   9.000000E+99

> <Gold.Chemscore.Hbonds>
donor molecule, donor type, donor heavy atom, donor atom, acceptor molecule, acceptor atom, score
      L1  H     5    45       P1  8028  0.92
      L1  H    10    30       P1  7957  0.18
      P1  H  6896  6908       L1    15  0.43
      P1  H  7989  7998       L1    10  0.93

> <Gold.Chemscore.Hbond.Weighted>
-9.5126

> <Gold.Chemscore.Metal.Weighted>
-0.0000

> <Gold.Chemscore.Lipo.Weighted>
-12.8149

> <Gold.Chemscore.Internal_Hbond.Weighted>
0.0000

> <Gold.Chemscore.DEClash.Weighted>
0.2362

> <Gold.Chemscore.DEInternal.Weighted>
1.8908

> <Gold.Chemscore.Rot.Weighted>
5.3275

> <Gold.Chemscore.Internal.Correction.Weighted>
   9.000000E+99

> <Gold.Protein.RotatedTorsions>
[ 6907 6896 6895 6894 ] final  126.07 input  -60.11 | X-H torsion
[ 7974 7965 7964 7962 ] final  102.71 input  175.53 | X-H torsion
[ 8008 7997 7996 7995 ] final  -14.52 input   59.86 | X-H torsion
[ 10167 10162 10161 10158 ] final   -7.48 input  -65.29 | X-H torsion
[ 10718 10713 10712 10709 ] final -143.09 input   66.30 | X-H torsion
[ 10763 10752 10751 10750 ] final -109.37 input  -60.55 | X-H torsion
[ 11005 11000 10999 10996 ] final   22.57 input  -57.11 | X-H torsion

> <Gold.Protein.ActiveResidues>
 VAL166  LYS551  ARG553  GLY616  TRP617  ASP618  TYR619  PRO620  LYS621  CYS622 
 ASP623  PHE694  ASN695  SER759  ASP760  ASP761  ALA762  ILE779  LEU786  VAL792 
 PHE793  MET794  SER795  GLU796  ALA797  LYS798  CYS799  TRP800  GLU811  SER814 

> <Gold.Protein.RotatedAtoms>
  152.3936  133.6714  159.6257 H   0  0  0  0  0  0  0  0  0  0  0  0  # atno 6907 bound_to 6896
  150.7839  133.8912  159.3323 H   0  0  0  0  0  0  0  0  0  0  0  0  # atno 6908 bound_to 6896
  151.6694  135.0980  160.0246 H   0  0  0  0  0  0  0  0  0  0  0  0  # atno 6909 bound_to 6896
  145.3554  139.2430  143.3535 H   0  0  0  0  0  0  0  0  0  0  0  0  # atno 7974 bound_to 7965
  154.5203  140.2221  155.8988 H   0  0  0  0  0  0  0  0  0  0  0  0  # atno 8008 bound_to 7997
  156.1655  140.3133  155.8845 H   0  0  0  0  0  0  0  0  0  0  0  0  # atno 8009 bound_to 7997
  155.3666  140.0464  157.3036 H   0  0  0  0  0  0  0  0  0  0  0  0  # atno 8010 bound_to 7997
  140.7030  143.6076  150.8735 H   0  0  0  0  0  0  0  0  0  0  0  0  # atno 10167 bound_to 10162
  156.3538  130.7702  151.1859 H   0  0  0  0  0  0  0  0  0  0  0  0  # atno 10718 bound_to 10713
  154.8189  135.4603  154.0723 H   0  0  0  0  0  0  0  0  0  0  0  0  # atno 10763 bound_to 10752
  153.2092  135.6879  153.8141 H   0  0  0  0  0  0  0  0  0  0  0  0  # atno 10764 bound_to 10752
  153.7598  135.3286  155.3312 H   0  0  0  0  0  0  0  0  0  0  0  0  # atno 10765 bound_to 10752
  140.3791  134.1940  155.7664 H   0  0  0  0  0  0  0  0  0  0  0  0  # atno 11005 bound_to 11000
  146.2950  140.4178  142.8725 LP  0  0  0  0  0  0  0  0  0  0  0  0  # atno 17320 bound_to 7965
  144.8686  140.7240  143.6061 LP  0  0  0  0  0  0  0  0  0  0  0  0  # atno 17321 bound_to 7965
  139.9800  143.5962  152.2946 LP  0  0  0  0  0  0  0  0  0  0  0  0  # atno 17342 bound_to 10162
  139.6579  144.7662  151.2019 LP  0  0  0  0  0  0  0  0  0  0  0  0  # atno 17343 bound_to 10162
  157.7465  131.0420  150.4672 LP  0  0  0  0  0  0  0  0  0  0  0  0  # atno 17370 bound_to 10713
  156.4872  130.4087  149.6427 LP  0  0  0  0  0  0  0  0  0  0  0  0  # atno 17371 bound_to 10713
  141.1929  133.8162  157.0819 LP  0  0  0  0  0  0  0  0  0  0  0  0  # atno 17394 bound_to 11000
  140.0492  134.9814  157.1106 LP  0  0  0  0  0  0  0  0  0  0  0  0  # atno 17395 bound_to 11000

$$$$
