AV-unprocessed.smi:1805|AV-procd|sdf|7297|dock10
  -GOLD-   22720 8553D 1   1.00000     0.00000
 Structure written by MMmdl.
 29 30  0  0  0  0  0  0  0  0  1 V2000
  150.6562  140.6669  155.3087 O   0  0  0  0  0  0  0  0  0  0  0  0
  150.0456  141.7205  155.4904 C   0  0  0  0  0  0  0  0  0  0  0  0
  150.5307  142.7477  156.2016 N   0  0  0  0  0  0  0  0  0  0  0  0
  151.8276  142.7682  156.8689 C   0  0  0  0  0  0  0  0  0  0  0  0
  151.6954  143.1813  158.3438 C   0  0  2  0  0  0  0  0  0  0  0  0
  151.4978  144.6828  158.5477 C   0  0  0  0  0  0  0  0  0  0  0  0
  152.0479  144.9343  159.9439 C   0  0  0  0  0  0  0  0  0  0  0  0
  152.8094  143.6502  160.2838 C   0  0  0  0  0  0  0  0  0  0  0  0
  152.8975  142.9399  159.0576 O   0  0  0  0  0  0  0  0  0  0  0  0
  148.8215  141.9955  155.0108 N   0  0  0  0  0  0  0  0  0  0  0  0
  148.0030  141.1600  154.2093 C   0  0  0  0  0  0  0  0  0  0  0  0
  148.2634  139.7888  153.9409 C   0  0  0  0  0  0  0  0  0  0  0  0
  147.3278  139.2617  153.1640 N   0  0  0  0  0  0  0  0  0  0  0  0
  146.4726  140.2836  152.9341 N   0  0  0  0  0  0  0  0  0  0  0  0
  146.8436  141.4585  153.5501 C   0  0  0  0  0  0  0  0  0  0  0  0
  145.6492  140.1651  152.3612 H   0  0  0  0  0  0  0  0  0  0  0  0
  149.9579  143.5734  156.2965 H   0  0  0  0  0  0  0  0  0  0  0  0
  152.3289  141.8029  156.7794 H   0  0  0  0  0  0  0  0  0  0  0  0
  152.4540  143.4902  156.3444 H   0  0  0  0  0  0  0  0  0  0  0  0
  150.8805  142.6342  158.8221 H   0  0  0  0  0  0  0  0  0  0  0  0
  152.0863  145.2435  157.8200 H   0  0  0  0  0  0  0  0  0  0  0  0
  150.4560  144.9861  158.4408 H   0  0  0  0  0  0  0  0  0  0  0  0
  152.7066  145.8033  159.9480 H   0  0  0  0  0  0  0  0  0  0  0  0
  151.2507  145.1136  160.6661 H   0  0  0  0  0  0  0  0  0  0  0  0
  153.7987  143.8456  160.6983 H   0  0  0  0  0  0  0  0  0  0  0  0
  152.2499  143.0519  161.0042 H   0  0  0  0  0  0  0  0  0  0  0  0
  148.4359  142.9000  155.2393 H   0  0  0  0  0  0  0  0  0  0  0  0
  149.0830  139.1708  154.2772 H   0  0  0  0  0  0  0  0  0  0  0  0
  146.2640  142.3655  153.4627 H   0  0  0  0  0  0  0  0  0  0  0  0
  1  2  2  0  0  0  0
  2  3  1  0  0  0  0
  2 10  1  0  0  0  0
  3  4  1  0  0  0  0
  3 17  1  0  0  0  0
  4  5  1  0  0  0  0
  4 18  1  0  0  0  0
  4 19  1  0  0  0  0
  5  9  1  0  0  0  0
  5  6  1  0  0  0  0
  5 20  1  0  0  0  0
  6  7  1  0  0  0  0
  6 21  1  0  0  0  0
  6 22  1  0  0  0  0
  7  8  1  0  0  0  0
  7 23  1  0  0  0  0
  7 24  1  0  0  0  0
  8  9  1  0  0  0  0
  8 25  1  0  0  0  0
  8 26  1  0  0  0  0
 10 11  1  0  0  0  0
 10 27  1  0  0  0  0
 11 15  2  0  0  0  0
 11 12  1  0  0  0  0
 12 13  2  0  0  0  0
 12 28  1  0  0  0  0
 13 14  1  0  0  0  0
 14 16  1  0  0  0  0
 14 15  1  0  0  0  0
 15 29  1  0  0  0  0
M  END
> <s_m_source_file>
AV-unprocessed.smi

> <i_m_source_file_index>
1805

> <i_lp_mmshare_version>
43012

> <i_f3d_flags>
0

> <s_epik_input>
W2NIXTFbbkhdbltjSF1jMVtOSF1DKD1PKVtOSF1bQ0gyXVtDQEBIXTJbQ0gyXVtDSDJdW0NIMl1PMg==

> <s_epik_cmdline>
J2VwaWtfcHl0aG9uJywgJy1waCcsICc3LjAnLCAnLXRuJywgJzgnLCAnLW1hJywgJzIwMCcsICctbWV0YWxfYmluZGluZycsICctaW1hZScsICc8aW5maWxlLm1hZT4nLCAnLW9tYWUnLCAnPG91dGZpbGUubWFlPic=

> <r_lp_tautomer_probability>
1

> <r_epik_Ionization_Penalty>
4.81496e-05

> <r_epik_Ionization_Penalty_Charging>
0

> <r_epik_Ionization_Penalty_Neutral>
4.81496e-05

> <r_epik_State_Penalty>
-0

> <r_epik_Charging_Adjusted_Penalty>
0

> <i_epik_Tot_Q>
0

> <i_epik_Tot_abs_Q>
0

> <r_epik_Metal_State_Penalty>
-0

> <b_epik_Metal_Only>
0

> <s_lp_Force_Field>
OPLS_2005

> <r_lp_Energy>
19.369

> <b_lp_Chiralities_Consistent>
1

> <s_lp_Variant>
AV-unprocessed.smi:1805-1

> <Gold.Version>
5.8.1

> <Gold.Id.Protein>
6NUR|6NUR_protein|mol2

> <Gold.PLP.Fitness>
39.9417

> <Gold.PLP.PLP>
-29.6002

> <Gold.PLP.part.hbond>
-4.0000

> <Gold.PLP.part.metal>
0.0000

> <Gold.PLP.part.buried>
-5.6279

> <Gold.PLP.part.nonpolar>
-19.6198

> <Gold.PLP.part.repulsive>
1.0442

> <Gold.PLP.ligand.clash>
0.0000

> <Gold.PLP.ligand.torsion>
0.1644

> <Gold.PLP.Chemscore.Hbond>
3.5544

> <Gold.PLP.Chemscore.CHOScore>
0.0000

> <Gold.PLP.Chemscore.Metal>
0.0000

> <Gold.Chemscore.Hbonds>
donor molecule, donor type, donor heavy atom, donor atom, acceptor molecule, acceptor atom, score
      L1  H     3    17       P1  8028  1.00
      L1  H    10    27       P1  8028  0.90
      L1  H    14    16       P1 10175  0.80
      P1  H  7989  7998       L1     1  0.83

> <Gold.PLP.Chemscore.Internal.Correction>
0.0072

> <Gold.Rescore>
     Score         DG    S(hbond)    S(metal)    S(lipo)     H(rot)  DE(clash)    DE(int)     intcor
     19.22     -22.44       3.29        0.00      80.08       1.33       1.78       1.44       ----

> <Gold.Chemscore.Fitness>
19.2181

> <Gold.Chemscore.DG>
-22.4380

> <Gold.Chemscore.ZeroCoef>
-5.4800

> <Gold.Chemscore.Hbond>
3.2919

> <Gold.Chemscore.Metal>
0.0000

> <Gold.Chemscore.Lipo>
80.0781

> <Gold.Chemscore.Internal_Hbond>
0.0000

> <Gold.Chemscore.DEClash>
1.7771

> <Gold.Chemscore.DEInternal>
1.4427

> <Gold.Chemscore.Rot>
1.3306

> <Gold.Chemscore.Internal.Correction>
   9.000000E+99

> <Gold.Chemscore.Hbonds>
donor molecule, donor type, donor heavy atom, donor atom, acceptor molecule, acceptor atom, score
      L1  H     3    17       P1  8028  0.96
      L1  H    10    27       P1  8028  0.88
      L1  H    14    16       P1 10175  0.58
      P1  H  7989  7998       L1     1  0.43

> <Gold.Chemscore.Hbond.Weighted>
-10.9951

> <Gold.Chemscore.Metal.Weighted>
-0.0000

> <Gold.Chemscore.Lipo.Weighted>
-9.3691

> <Gold.Chemscore.Internal_Hbond.Weighted>
0.0000

> <Gold.Chemscore.DEClash.Weighted>
1.7771

> <Gold.Chemscore.DEInternal.Weighted>
1.4427

> <Gold.Chemscore.Rot.Weighted>
3.4063

> <Gold.Chemscore.Internal.Correction.Weighted>
   9.000000E+99

> <Gold.Protein.RotatedTorsions>
[ 6907 6896 6895 6894 ] final  129.18 input  -60.11 | X-H torsion
[ 7974 7965 7964 7962 ] final  137.52 input  175.53 | X-H torsion
[ 8008 7997 7996 7995 ] final -138.70 input   59.86 | X-H torsion
[ 10167 10162 10161 10158 ] final   43.56 input  -65.29 | X-H torsion
[ 10718 10713 10712 10709 ] final  -60.64 input   66.30 | X-H torsion
[ 10763 10752 10751 10750 ] final -174.25 input  -60.55 | X-H torsion
[ 11005 11000 10999 10996 ] final   41.09 input  -57.11 | X-H torsion

> <Gold.Protein.ActiveResidues>
 VAL166  LYS551  ARG553  GLY616  TRP617  ASP618  TYR619  PRO620  LYS621  CYS622 
 ASP623  PHE694  ASN695  SER759  ASP760  ASP761  ALA762  ILE779  LEU786  VAL792 
 PHE793  MET794  SER795  GLU796  ALA797  LYS798  CYS799  TRP800  GLU811  SER814 

> <Gold.Protein.RotatedAtoms>
  152.3649  133.6343  159.6042 H   0  0  0  0  0  0  0  0  0  0  0  0  # atno 6907 bound_to 6896
  150.7627  133.9364  159.3451 H   0  0  0  0  0  0  0  0  0  0  0  0  # atno 6908 bound_to 6896
  151.7197  135.0898  160.0333 H   0  0  0  0  0  0  0  0  0  0  0  0  # atno 6909 bound_to 6896
  144.9460  139.4874  143.5549 H   0  0  0  0  0  0  0  0  0  0  0  0  # atno 7974 bound_to 7965
  155.4327  140.0526  157.3017 H   0  0  0  0  0  0  0  0  0  0  0  0  # atno 8008 bound_to 7997
  154.4853  140.2098  155.9628 H   0  0  0  0  0  0  0  0  0  0  0  0  # atno 8009 bound_to 7997
  156.1265  140.3179  155.8290 H   0  0  0  0  0  0  0  0  0  0  0  0  # atno 8010 bound_to 7997
  140.3432  144.2444  150.6153 H   0  0  0  0  0  0  0  0  0  0  0  0  # atno 10167 bound_to 10162
  156.0976  130.4190  150.0883 H   0  0  0  0  0  0  0  0  0  0  0  0  # atno 10718 bound_to 10713
  154.5984  135.2852  155.0562 H   0  0  0  0  0  0  0  0  0  0  0  0  # atno 10763 bound_to 10752
  154.1836  135.6452  153.5044 H   0  0  0  0  0  0  0  0  0  0  0  0  # atno 10764 bound_to 10752
  153.0147  135.5429  154.6694 H   0  0  0  0  0  0  0  0  0  0  0  0  # atno 10765 bound_to 10752
  140.1867  134.4036  155.8169 H   0  0  0  0  0  0  0  0  0  0  0  0  # atno 11005 bound_to 11000
  146.3304  139.8513  142.8872 LP  0  0  0  0  0  0  0  0  0  0  0  0  # atno 17320 bound_to 7965
  145.2917  141.0169  143.3659 LP  0  0  0  0  0  0  0  0  0  0  0  0  # atno 17321 bound_to 7965
  140.5289  143.2248  151.8270 LP  0  0  0  0  0  0  0  0  0  0  0  0  # atno 17342 bound_to 10162
  139.4837  144.4744  151.9385 LP  0  0  0  0  0  0  0  0  0  0  0  0  # atno 17343 bound_to 10162
  156.8878  130.9578  151.3592 LP  0  0  0  0  0  0  0  0  0  0  0  0  # atno 17370 bound_to 10713
  157.6140  130.8604  149.8998 LP  0  0  0  0  0  0  0  0  0  0  0  0  # atno 17371 bound_to 10713
  141.2225  133.7026  156.8025 LP  0  0  0  0  0  0  0  0  0  0  0  0  # atno 17394 bound_to 11000
  140.2205  134.8760  157.3372 LP  0  0  0  0  0  0  0  0  0  0  0  0  # atno 17395 bound_to 11000

$$$$
