AV-unprocessed.smi:1940|AV-procd|sdf|7843|dock2
  -GOLD-   22720 9583D 1   1.00000     0.00000
 Structure written by MMmdl.
 50 52  0  0  0  0  0  0  0  0  2 V2000
  146.1828  137.6683  150.0922 C   0  0  0  0  0  0  0  0  0  0  0  0
  145.9962  137.6345  151.6160 C   0  0  2  0  0  0  0  0  0  0  0  0
  147.2647  137.9711  152.2620 N   0  0  0  0  0  0  0  0  0  0  0  0
  147.4538  138.9674  153.1391 C   0  0  0  0  0  0  0  0  0  0  0  0
  146.5678  139.7477  153.4860 O   0  0  0  0  0  0  0  0  0  0  0  0
  148.7278  139.0025  153.5653 N   0  0  0  0  0  0  0  0  0  0  0  0
  149.3089  139.8506  154.5468 C   0  0  0  0  0  0  0  0  0  0  0  0
  150.4611  139.3873  155.2182 C   0  0  0  0  0  0  0  0  0  0  0  0
  151.0591  140.1849  156.2153 C   0  0  0  0  0  0  0  0  0  0  0  0
  150.4882  141.4380  156.5336 C   0  0  0  0  0  0  0  0  0  0  0  0
  151.0088  142.2972  157.5102 N   0  0  0  0  0  0  0  0  0  0  0  0
  152.0468  141.6716  158.3261 C   0  0  0  0  0  0  0  0  0  0  0  0
  152.4492  142.5856  159.4966 C   0  0  0  0  0  0  0  0  0  0  0  0
  152.8603  143.9775  158.9897 C   0  0  0  0  0  0  0  0  0  0  0  0
  151.7446  144.5749  158.1172 C   0  0  0  0  0  0  0  0  0  0  0  0
  151.3620  143.6117  156.9802 C   0  0  0  0  0  0  0  0  0  0  0  0
  149.3796  141.8430  155.8770 N   0  3  0  0  0  0  0  0  0  0  0  0
  148.7763  141.1105  154.9158 C   0  0  0  0  0  0  0  0  0  0  0  0
  145.4469  136.2704  152.0956 C   0  0  1  0  0  0  0  0  0  0  0  0
  143.9650  135.9949  151.8067 C   0  0  0  0  0  0  0  0  0  0  0  0
  143.9404  134.4854  151.7313 C   0  0  0  0  0  0  0  0  0  0  0  0
  145.2622  134.1962  151.0296 C   0  0  0  0  0  0  0  0  0  0  0  0
  146.1658  135.1894  151.5028 O   0  0  0  0  0  0  0  0  0  0  0  0
  145.2460  137.4517  149.5780 H   0  0  0  0  0  0  0  0  0  0  0  0
  146.9193  136.9352  149.7621 H   0  0  0  0  0  0  0  0  0  0  0  0
  146.5197  138.6504  149.7593 H   0  0  0  0  0  0  0  0  0  0  0  0
  145.2592  138.4009  151.8627 H   0  0  0  0  0  0  0  0  0  0  0  0
  148.0544  137.3864  152.0319 H   0  0  0  0  0  0  0  0  0  0  0  0
  149.3618  138.3556  153.1195 H   0  0  0  0  0  0  0  0  0  0  0  0
  150.8897  138.4269  154.9710 H   0  0  0  0  0  0  0  0  0  0  0  0
  151.9430  139.8340  156.7277 H   0  0  0  0  0  0  0  0  0  0  0  0
  151.6865  140.7161  158.7099 H   0  0  0  0  0  0  0  0  0  0  0  0
  152.9202  141.4600  157.7077 H   0  0  0  0  0  0  0  0  0  0  0  0
  151.6123  142.6817  160.1900 H   0  0  0  0  0  0  0  0  0  0  0  0
  153.2673  142.1349  160.0589 H   0  0  0  0  0  0  0  0  0  0  0  0
  153.0773  144.6375  159.8301 H   0  0  0  0  0  0  0  0  0  0  0  0
  153.7798  143.8997  158.4079 H   0  0  0  0  0  0  0  0  0  0  0  0
  150.8677  144.7777  158.7335 H   0  0  0  0  0  0  0  0  0  0  0  0
  152.0625  145.5329  157.7052 H   0  0  0  0  0  0  0  0  0  0  0  0
  152.1965  143.5127  156.2844 H   0  0  0  0  0  0  0  0  0  0  0  0
  150.5217  144.0195  156.4166 H   0  0  0  0  0  0  0  0  0  0  0  0
  147.8884  141.5591  154.4964 H   0  0  0  0  0  0  0  0  0  0  0  0
  145.6093  136.1812  153.1708 H   0  0  0  0  0  0  0  0  0  0  0  0
  143.3029  136.3934  152.5757 H   0  0  0  0  0  0  0  0  0  0  0  0
  143.6556  136.4096  150.8473 H   0  0  0  0  0  0  0  0  0  0  0  0
  143.9439  134.0575  152.7347 H   0  0  0  0  0  0  0  0  0  0  0  0
  143.0761  134.0952  151.1933 H   0  0  0  0  0  0  0  0  0  0  0  0
  145.6328  133.1903  151.2281 H   0  0  0  0  0  0  0  0  0  0  0  0
  145.1539  134.3123  149.9504 H   0  0  0  0  0  0  0  0  0  0  0  0
  148.9740  142.7467  156.1218 H   0  0  0  0  0  0  0  0  0  0  0  0
  1  2  1  0  0  0  0
  1 24  1  0  0  0  0
  1 25  1  0  0  0  0
  1 26  1  0  0  0  0
  2  3  1  0  0  0  0
  2 19  1  0  0  0  0
  2 27  1  0  0  0  0
  3  4  1  0  0  0  0
  3 28  1  0  0  0  0
  4  5  2  0  0  0  0
  4  6  1  0  0  0  0
  6  7  1  0  0  0  0
  6 29  1  0  0  0  0
  7 18  1  0  0  0  0
  7  8  2  0  0  0  0
  8  9  1  0  0  0  0
  8 30  1  0  0  0  0
  9 10  2  0  0  0  0
  9 31  1  0  0  0  0
 10 11  1  0  0  0  0
 10 17  1  0  0  0  0
 11 16  1  0  0  0  0
 11 12  1  0  0  0  0
 12 13  1  0  0  0  0
 12 32  1  0  0  0  0
 12 33  1  0  0  0  0
 13 14  1  0  0  0  0
 13 34  1  0  0  0  0
 13 35  1  0  0  0  0
 14 15  1  0  0  0  0
 14 36  1  0  0  0  0
 14 37  1  0  0  0  0
 15 16  1  0  0  0  0
 15 38  1  0  0  0  0
 15 39  1  0  0  0  0
 16 40  1  0  0  0  0
 16 41  1  0  0  0  0
 17 18  2  0  0  0  0
 17 50  1  0  0  0  0
 18 42  1  0  0  0  0
 19 23  1  0  0  0  0
 19 20  1  0  0  0  0
 19 43  1  0  0  0  0
 20 21  1  0  0  0  0
 20 44  1  0  0  0  0
 20 45  1  0  0  0  0
 21 22  1  0  0  0  0
 21 46  1  0  0  0  0
 21 47  1  0  0  0  0
 22 23  1  0  0  0  0
 22 48  1  0  0  0  0
 22 49  1  0  0  0  0
M  CHG  1  17   1
M  END
> <s_m_source_file>
AV-unprocessed.smi

> <i_m_source_file_index>
1940

> <i_lp_mmshare_version>
43012

> <i_f3d_flags>
0

> <s_epik_input>
TzFbQ0gyXVtDSDJdW0NIMl1bQ0BIXTFbQ0BIXShbQ0gzXSlbTkhdQyg9TylbTkhdYzJbY0hdW2NIXWMobltjSF0yKU4zW0NIMl1bQ0gyXVtDSDJdW0NIMl1bQ0gyXTM=

> <s_epik_cmdline>
J2VwaWtfcHl0aG9uJywgJy1waCcsICc3LjAnLCAnLXRuJywgJzgnLCAnLW1hJywgJzIwMCcsICctbWV0YWxfYmluZGluZycsICctaW1hZScsICc8aW5maWxlLm1hZT4nLCAnLW9tYWUnLCAnPG91dGZpbGUubWFlPic=

> <r_lp_tautomer_probability>
0.999994

> <r_epik_Ionization_Penalty>
1.10603

> <r_epik_Ionization_Penalty_Charging>
1.10601

> <r_epik_Ionization_Penalty_Neutral>
1.929e-05

> <r_epik_State_Penalty>
1.16358

> <r_epik_Charging_Adjusted_Penalty>
2.26959

> <i_epik_Tot_Q>
1

> <i_epik_Tot_abs_Q>
1

> <r_epik_Metal_State_Penalty>
1.25013

> <b_epik_Metal_Only>
0

> <s_lp_Force_Field>
OPLS_2005

> <r_lp_Energy>
42.4745

> <b_lp_Chiralities_Consistent>
1

> <s_lp_Variant>
AV-unprocessed.smi:1940-7

> <Gold.Version>
5.8.1

> <Gold.Id.Protein>
6NUR|6NUR_protein|mol2

> <Gold.PLP.Fitness>
48.9924

> <Gold.PLP.PLP>
-40.8485

> <Gold.PLP.part.hbond>
-3.1329

> <Gold.PLP.part.metal>
0.0000

> <Gold.PLP.part.buried>
3.3744

> <Gold.PLP.part.nonpolar>
-42.6026

> <Gold.PLP.part.repulsive>
1.1288

> <Gold.PLP.ligand.clash>
0.0000

> <Gold.PLP.ligand.torsion>
0.4880

> <Gold.PLP.Chemscore.Hbond>
2.9840

> <Gold.PLP.Chemscore.CHOScore>
0.0000

> <Gold.PLP.Chemscore.Metal>
0.0000

> <Gold.Chemscore.Hbonds>
donor molecule, donor type, donor heavy atom, donor atom, acceptor molecule, acceptor atom, score
      L1  H     3    28       P1  7948  0.80
      L1  H    17    50       P1  8028  1.82

> <Gold.PLP.Chemscore.Internal.Correction>
0.1680

> <Gold.Rescore>
     Score         DG    S(hbond)    S(metal)    S(lipo)     H(rot)  DE(clash)    DE(int)     intcor
     18.26     -23.38       2.02        0.00     125.08       1.36       3.81       1.30       ----

> <Gold.Chemscore.Fitness>
18.2622

> <Gold.Chemscore.DG>
-23.3758

> <Gold.Chemscore.ZeroCoef>
-5.4800

> <Gold.Chemscore.Hbond>
2.0168

> <Gold.Chemscore.Metal>
0.0000

> <Gold.Chemscore.Lipo>
125.0759

> <Gold.Chemscore.Internal_Hbond>
0.0000

> <Gold.Chemscore.DEClash>
3.8094

> <Gold.Chemscore.DEInternal>
1.3042

> <Gold.Chemscore.Rot>
1.3571

> <Gold.Chemscore.Internal.Correction>
   9.000000E+99

> <Gold.Chemscore.Hbonds>
donor molecule, donor type, donor heavy atom, donor atom, acceptor molecule, acceptor atom, score
      L1  H     3    28       P1  7948  0.79
      L1  H     6    29       P1  7948  0.02
      L1  H    17    50       P1  8028  0.84

> <Gold.Chemscore.Hbond.Weighted>
-6.7360

> <Gold.Chemscore.Metal.Weighted>
-0.0000

> <Gold.Chemscore.Lipo.Weighted>
-14.6339

> <Gold.Chemscore.Internal_Hbond.Weighted>
0.0000

> <Gold.Chemscore.DEClash.Weighted>
3.8094

> <Gold.Chemscore.DEInternal.Weighted>
1.3042

> <Gold.Chemscore.Rot.Weighted>
3.4741

> <Gold.Chemscore.Internal.Correction.Weighted>
   9.000000E+99

> <Gold.Protein.RotatedTorsions>
[ 6907 6896 6895 6894 ] final   13.64 input  -60.11 | X-H torsion
[ 7974 7965 7964 7962 ] final  -14.75 input  175.53 | X-H torsion
[ 8008 7997 7996 7995 ] final  107.02 input   59.86 | X-H torsion
[ 10167 10162 10161 10158 ] final  -38.87 input  -65.29 | X-H torsion
[ 10718 10713 10712 10709 ] final  150.93 input   66.30 | X-H torsion
[ 10763 10752 10751 10750 ] final   61.41 input  -60.55 | X-H torsion
[ 11005 11000 10999 10996 ] final  -37.23 input  -57.11 | X-H torsion

> <Gold.Protein.ActiveResidues>
 VAL166  LYS551  ARG553  GLY616  TRP617  ASP618  TYR619  PRO620  LYS621  CYS622 
 ASP623  PHE694  ASN695  SER759  ASP760  ASP761  ALA762  ILE779  LEU786  VAL792 
 PHE793  MET794  SER795  GLU796  ALA797  LYS798  CYS799  TRP800  GLU811  SER814 

> <Gold.Protein.RotatedAtoms>
  151.7895  135.0739  160.0385 H   0  0  0  0  0  0  0  0  0  0  0  0  # atno 6907 bound_to 6896
  152.3166  133.5804  159.5725 H   0  0  0  0  0  0  0  0  0  0  0  0  # atno 6908 bound_to 6896
  150.7347  133.9989  159.3673 H   0  0  0  0  0  0  0  0  0  0  0  0  # atno 6909 bound_to 6896
  146.2061  140.3393  142.8406 H   0  0  0  0  0  0  0  0  0  0  0  0  # atno 7974 bound_to 7965
  156.1790  140.3102  155.9114 H   0  0  0  0  0  0  0  0  0  0  0  0  # atno 8008 bound_to 7997
  155.3424  140.0466  157.3062 H   0  0  0  0  0  0  0  0  0  0  0  0  # atno 8009 bound_to 7997
  154.5322  140.2234  155.8795 H   0  0  0  0  0  0  0  0  0  0  0  0  # atno 8010 bound_to 7997
  140.7080  143.3250  151.2702 H   0  0  0  0  0  0  0  0  0  0  0  0  # atno 10167 bound_to 10162
  157.2772  131.0828  151.1557 H   0  0  0  0  0  0  0  0  0  0  0  0  # atno 10718 bound_to 10713
  152.9950  135.5501  154.6029 H   0  0  0  0  0  0  0  0  0  0  0  0  # atno 10763 bound_to 10752
  154.5367  135.2817  155.1134 H   0  0  0  0  0  0  0  0  0  0  0  0  # atno 10764 bound_to 10752
  154.2428  135.6413  153.5266 H   0  0  0  0  0  0  0  0  0  0  0  0  # atno 10765 bound_to 10752
  140.9936  133.6992  156.1894 H   0  0  0  0  0  0  0  0  0  0  0  0  # atno 11005 bound_to 11000
  144.8797  140.7383  143.5994 LP  0  0  0  0  0  0  0  0  0  0  0  0  # atno 17320 bound_to 7965
  145.3313  139.1759  143.4535 LP  0  0  0  0  0  0  0  0  0  0  0  0  # atno 17321 bound_to 7965
  139.6715  144.0012  152.2756 LP  0  0  0  0  0  0  0  0  0  0  0  0  # atno 17342 bound_to 10162
  139.9612  144.6556  150.8078 LP  0  0  0  0  0  0  0  0  0  0  0  0  # atno 17343 bound_to 10162
  157.3006  130.6841  149.6162 LP  0  0  0  0  0  0  0  0  0  0  0  0  # atno 17370 bound_to 10713
  155.9664  130.4393  150.5254 LP  0  0  0  0  0  0  0  0  0  0  0  0  # atno 17371 bound_to 10713
  140.7001  134.4573  157.5586 LP  0  0  0  0  0  0  0  0  0  0  0  0  # atno 17394 bound_to 11000
  139.9004  134.8570  156.1921 LP  0  0  0  0  0  0  0  0  0  0  0  0  # atno 17395 bound_to 11000

$$$$
