AV-unprocessed.smi:1458|AV-procd|sdf|5923|dock1
  -GOLD-   22720 6 03D 1   1.00000     0.00000
 Structure written by MMmdl.
 46 47  0  0  0  0  0  0  0  0  1 V2000
  145.3718  135.6346  150.8043 C   0  0  0  0  0  0  0  0  0  0  0  0
  144.5789  136.3158  151.7610 O   0  0  0  0  0  0  0  0  0  0  0  0
  145.3506  137.1439  152.6156 C   0  0  0  0  0  0  0  0  0  0  0  0
  146.2008  138.1001  151.7713 C   0  0  0  0  0  0  0  0  0  0  0  0
  147.4713  138.3816  152.4262 N   0  0  0  0  0  0  0  0  0  0  0  0
  147.6381  139.2989  153.3876 C   0  0  0  0  0  0  0  0  0  0  0  0
  146.7252  140.0051  153.8152 O   0  0  0  0  0  0  0  0  0  0  0  0
  148.9181  139.3526  153.7944 N   0  0  0  0  0  0  0  0  0  0  0  0
  149.4845  140.1668  154.8123 C   0  0  0  0  0  0  0  0  0  0  0  0
  150.8048  139.8980  155.2217 C   0  0  0  0  0  0  0  0  0  0  0  0
  151.3820  140.6781  156.2416 C   0  0  0  0  0  0  0  0  0  0  0  0
  150.6178  141.7085  156.8379 C   0  0  0  0  0  0  0  0  0  0  0  0
  151.1778  142.5035  157.8606 N   0  0  0  0  0  0  0  0  0  0  0  0
  152.1121  141.8195  158.7482 C   0  0  0  0  0  0  0  0  0  0  0  0
  152.3648  142.6615  160.0120 C   0  0  1  0  0  0  0  0  0  0  0  0
  153.4447  142.0412  160.9048 C   0  0  0  0  0  0  0  0  0  0  0  0
  152.7986  143.9691  159.6395 O   0  0  0  0  0  0  0  0  0  0  0  0
  151.8933  144.6820  158.7934 C   0  0  2  0  0  0  0  0  0  0  0  0
  150.6265  145.1309  159.5439 C   0  0  0  0  0  0  0  0  0  0  0  0
  151.5961  143.8622  157.5227 C   0  0  0  0  0  0  0  0  0  0  0  0
  149.3396  141.9527  156.4586 N   0  0  0  0  0  0  0  0  0  0  0  0
  148.7909  141.2053  155.4776 C   0  0  0  0  0  0  0  0  0  0  0  0
  144.7338  135.0168  150.1727 H   0  0  0  0  0  0  0  0  0  0  0  0
  146.0996  134.9819  151.2880 H   0  0  0  0  0  0  0  0  0  0  0  0
  145.9041  136.3363  150.1610 H   0  0  0  0  0  0  0  0  0  0  0  0
  144.6875  137.7212  153.2613 H   0  0  0  0  0  0  0  0  0  0  0  0
  145.9884  136.5383  153.2616 H   0  0  0  0  0  0  0  0  0  0  0  0
  146.3812  137.6752  150.7828 H   0  0  0  0  0  0  0  0  0  0  0  0
  145.6569  139.0347  151.6249 H   0  0  0  0  0  0  0  0  0  0  0  0
  148.2724  137.8486  152.1207 H   0  0  0  0  0  0  0  0  0  0  0  0
  149.5719  138.7764  153.2849 H   0  0  0  0  0  0  0  0  0  0  0  0
  151.3735  139.1036  154.7605 H   0  0  0  0  0  0  0  0  0  0  0  0
  152.3915  140.4700  156.5637 H   0  0  0  0  0  0  0  0  0  0  0  0
  151.7435  140.8372  159.0405 H   0  0  0  0  0  0  0  0  0  0  0  0
  153.0474  141.6581  158.2106 H   0  0  0  0  0  0  0  0  0  0  0  0
  151.4460  142.7309  160.5949 H   0  0  0  0  0  0  0  0  0  0  0  0
  153.1553  141.0436  161.2359 H   0  0  0  0  0  0  0  0  0  0  0  0
  153.6127  142.6502  161.7932 H   0  0  0  0  0  0  0  0  0  0  0  0
  154.3936  141.9564  160.3747 H   0  0  0  0  0  0  0  0  0  0  0  0
  152.4147  145.5892  158.4872 H   0  0  0  0  0  0  0  0  0  0  0  0
  150.0172  145.7821  158.9166 H   0  0  0  0  0  0  0  0  0  0  0  0
  150.8851  145.6886  160.4441 H   0  0  0  0  0  0  0  0  0  0  0  0
  149.9995  144.2899  159.8390 H   0  0  0  0  0  0  0  0  0  0  0  0
  152.4931  143.8085  156.9040 H   0  0  0  0  0  0  0  0  0  0  0  0
  150.8284  144.3648  156.9329 H   0  0  0  0  0  0  0  0  0  0  0  0
  147.7637  141.4441  155.2507 H   0  0  0  0  0  0  0  0  0  0  0  0
  1  2  1  0  0  0  0
  1 23  1  0  0  0  0
  1 24  1  0  0  0  0
  1 25  1  0  0  0  0
  2  3  1  0  0  0  0
  3  4  1  0  0  0  0
  3 26  1  0  0  0  0
  3 27  1  0  0  0  0
  4  5  1  0  0  0  0
  4 28  1  0  0  0  0
  4 29  1  0  0  0  0
  5  6  1  0  0  0  0
  5 30  1  0  0  0  0
  6  7  2  0  0  0  0
  6  8  1  0  0  0  0
  8  9  1  0  0  0  0
  8 31  1  0  0  0  0
  9 22  1  0  0  0  0
  9 10  2  0  0  0  0
 10 11  1  0  0  0  0
 10 32  1  0  0  0  0
 11 12  2  0  0  0  0
 11 33  1  0  0  0  0
 12 13  1  0  0  0  0
 12 21  1  0  0  0  0
 13 20  1  0  0  0  0
 13 14  1  0  0  0  0
 14 15  1  0  0  0  0
 14 34  1  0  0  0  0
 14 35  1  0  0  0  0
 15 16  1  0  0  0  0
 15 17  1  0  0  0  0
 15 36  1  0  0  0  0
 16 37  1  0  0  0  0
 16 38  1  0  0  0  0
 16 39  1  0  0  0  0
 17 18  1  0  0  0  0
 18 19  1  0  0  0  0
 18 20  1  0  0  0  0
 18 40  1  0  0  0  0
 19 41  1  0  0  0  0
 19 42  1  0  0  0  0
 19 43  1  0  0  0  0
 20 44  1  0  0  0  0
 20 45  1  0  0  0  0
 21 22  2  0  0  0  0
 22 46  1  0  0  0  0
M  END
> <s_m_source_file>
AV-unprocessed.smi

> <i_m_source_file_index>
1458

> <i_lp_mmshare_version>
43012

> <i_f3d_flags>
0

> <s_epik_input>
W0NIM11PW0NIMl1bQ0gyXVtOSF1DKD1PKVtOSF1jMVtjSF1bY0hdYyhuW2NIXTEpTjJbQ0gyXVtDQEBIXShbQ0gzXSlPW0NAQEhdKFtDSDNdKVtDSDJdMg==

> <s_epik_cmdline>
J2VwaWtfcHl0aG9uJywgJy1waCcsICc3LjAnLCAnLXRuJywgJzgnLCAnLW1hJywgJzIwMCcsICctbWV0YWxfYmluZGluZycsICctaW1hZScsICc8aW5maWxlLm1hZT4nLCAnLW9tYWUnLCAnPG91dGZpbGUubWFlPic=

> <r_lp_tautomer_probability>
1

> <r_epik_Ionization_Penalty>
0.00266072

> <r_epik_Ionization_Penalty_Charging>
0

> <r_epik_Ionization_Penalty_Neutral>
0.00266072

> <r_epik_State_Penalty>
0.00182795

> <r_epik_Charging_Adjusted_Penalty>
0.00182795

> <i_epik_Tot_Q>
0

> <i_epik_Tot_abs_Q>
0

> <r_epik_Metal_State_Penalty>
-0

> <b_epik_Metal_Only>
0

> <s_lp_Force_Field>
OPLS_2005

> <r_lp_Energy>
23.589

> <b_lp_Chiralities_Consistent>
1

> <s_lp_Variant>
AV-unprocessed.smi:1458-3

> <Gold.Version>
5.8.1

> <Gold.Id.Protein>
6NUR|6NUR_protein|mol2

> <Gold.PLP.Fitness>
47.8936

> <Gold.PLP.PLP>
-46.5936

> <Gold.PLP.part.hbond>
-3.0000

> <Gold.PLP.part.metal>
0.0000

> <Gold.PLP.part.buried>
-5.3382

> <Gold.PLP.part.nonpolar>
-41.8555

> <Gold.PLP.part.repulsive>
2.4821

> <Gold.PLP.ligand.clash>
0.0000

> <Gold.PLP.ligand.torsion>
0.9678

> <Gold.PLP.Chemscore.Hbond>
0.9600

> <Gold.PLP.Chemscore.CHOScore>
0.0000

> <Gold.PLP.Chemscore.Metal>
0.0000

> <Gold.Chemscore.Hbonds>
donor molecule, donor type, donor heavy atom, donor atom, acceptor molecule, acceptor atom, score
      L1  H     5    30       P1  7948  0.94

> <Gold.PLP.Chemscore.Internal.Correction>
0.3555

> <Gold.Rescore>
     Score         DG    S(hbond)    S(metal)    S(lipo)     H(rot)  DE(clash)    DE(int)     intcor
     15.38     -17.57       0.98        0.00     110.79       1.62       0.08       2.11       ----

> <Gold.Chemscore.Fitness>
15.3850

> <Gold.Chemscore.DG>
-17.5694

> <Gold.Chemscore.ZeroCoef>
-5.4800

> <Gold.Chemscore.Hbond>
0.9807

> <Gold.Chemscore.Metal>
0.0000

> <Gold.Chemscore.Lipo>
110.7913

> <Gold.Chemscore.Internal_Hbond>
0.0000

> <Gold.Chemscore.DEClash>
0.0752

> <Gold.Chemscore.DEInternal>
2.1093

> <Gold.Chemscore.Rot>
1.6206

> <Gold.Chemscore.Internal.Correction>
   9.000000E+99

> <Gold.Chemscore.Hbonds>
donor molecule, donor type, donor heavy atom, donor atom, acceptor molecule, acceptor atom, score
      L1  H     5    30       P1  7948  0.92

> <Gold.Chemscore.Hbond.Weighted>
-3.2755

> <Gold.Chemscore.Metal.Weighted>
-0.0000

> <Gold.Chemscore.Lipo.Weighted>
-12.9626

> <Gold.Chemscore.Internal_Hbond.Weighted>
0.0000

> <Gold.Chemscore.DEClash.Weighted>
0.0752

> <Gold.Chemscore.DEInternal.Weighted>
2.1093

> <Gold.Chemscore.Rot.Weighted>
4.1486

> <Gold.Chemscore.Internal.Correction.Weighted>
   9.000000E+99

> <Gold.Protein.RotatedTorsions>
[ 6907 6896 6895 6894 ] final  121.00 input  -60.11 | X-H torsion
[ 7974 7965 7964 7962 ] final  -51.40 input  175.53 | X-H torsion
[ 8008 7997 7996 7995 ] final   78.98 input   59.86 | X-H torsion
[ 10167 10162 10161 10158 ] final -156.68 input  -65.29 | X-H torsion
[ 10718 10713 10712 10709 ] final  -46.18 input   66.30 | X-H torsion
[ 10763 10752 10751 10750 ] final   -4.15 input  -60.55 | X-H torsion
[ 11005 11000 10999 10996 ] final  -77.67 input  -57.11 | X-H torsion

> <Gold.Protein.ActiveResidues>
 VAL166  LYS551  ARG553  GLY616  TRP617  ASP618  TYR619  PRO620  LYS621  CYS622 
 ASP623  PHE694  ASN695  SER759  ASP760  ASP761  ALA762  ILE779  LEU786  VAL792 
 PHE793  MET794  SER795  GLU796  ALA797  LYS798  CYS799  TRP800  GLU811  SER814 

> <Gold.Protein.RotatedAtoms>
  152.4355  133.7354  159.6610 H   0  0  0  0  0  0  0  0  0  0  0  0  # atno 6907 bound_to 6896
  150.8239  133.8195  159.3133 H   0  0  0  0  0  0  0  0  0  0  0  0  # atno 6908 bound_to 6896
  151.5869  135.1058  160.0082 H   0  0  0  0  0  0  0  0  0  0  0  0  # atno 6909 bound_to 6896
  145.9193  140.7847  142.9655 H   0  0  0  0  0  0  0  0  0  0  0  0  # atno 7974 bound_to 7965
  155.8633  140.3452  155.5771 H   0  0  0  0  0  0  0  0  0  0  0  0  # atno 8008 bound_to 7997
  155.7909  140.0871  157.2029 H   0  0  0  0  0  0  0  0  0  0  0  0  # atno 8009 bound_to 7997
  154.4013  140.1483  156.3149 H   0  0  0  0  0  0  0  0  0  0  0  0  # atno 8010 bound_to 7997
  139.6831  143.9548  152.2347 H   0  0  0  0  0  0  0  0  0  0  0  0  # atno 10167 bound_to 10162
  156.2209  130.4166  149.8994 H   0  0  0  0  0  0  0  0  0  0  0  0  # atno 10718 bound_to 10713
  153.3810  135.6998  153.6565 H   0  0  0  0  0  0  0  0  0  0  0  0  # atno 10763 bound_to 10752
  153.5176  135.3618  155.2617 H   0  0  0  0  0  0  0  0  0  0  0  0  # atno 10764 bound_to 10752
  154.8692  135.4150  154.3108 H   0  0  0  0  0  0  0  0  0  0  0  0  # atno 10765 bound_to 10752
  141.1661  133.7032  156.7856 H   0  0  0  0  0  0  0  0  0  0  0  0  # atno 11005 bound_to 11000
  144.6751  140.1951  143.7393 LP  0  0  0  0  0  0  0  0  0  0  0  0  # atno 17320 bound_to 7965
  145.8570  139.2204  143.1739 LP  0  0  0  0  0  0  0  0  0  0  0  0  # atno 17321 bound_to 7965
  139.9343  144.6721  150.8330 LP  0  0  0  0  0  0  0  0  0  0  0  0  # atno 17342 bound_to 10162
  140.7658  143.3287  151.2458 LP  0  0  0  0  0  0  0  0  0  0  0  0  # atno 17343 bound_to 10162
  156.6641  130.8794  151.3552 LP  0  0  0  0  0  0  0  0  0  0  0  0  # atno 17370 bound_to 10713
  157.7087  130.9415  150.1016 LP  0  0  0  0  0  0  0  0  0  0  0  0  # atno 17371 bound_to 10713
  140.2362  134.8648  157.3527 LP  0  0  0  0  0  0  0  0  0  0  0  0  # atno 17394 bound_to 11000
  140.1841  134.4453  155.7754 LP  0  0  0  0  0  0  0  0  0  0  0  0  # atno 17395 bound_to 11000

$$$$
