AV-unprocessed.smi:1339|AV-procd|sdf|5502|dock2
  -GOLD-   22720 5 83D 1   1.00000     0.00000
 Structure written by MMmdl.
 40 41  0  0  0  0  0  0  0  0  1 V2000
  152.3246  144.5139  160.4111 C   0  0  0  0  0  0  0  0  0  0  0  0
  152.4513  143.7491  159.0828 C   0  0  0  0  0  0  0  0  0  0  0  0
  152.3131  144.7149  157.8958 C   0  0  0  0  0  0  0  0  0  0  0  0
  151.4327  142.5969  158.9693 C   0  0  0  0  0  0  0  0  0  0  0  0
  151.4719  141.8544  157.6207 C   0  0  0  0  0  0  0  0  0  0  0  0
  150.1476  141.3743  157.2454 N   0  0  0  0  0  0  0  0  0  0  0  0
  149.8640  140.6940  156.1234 C   0  0  0  0  0  0  0  0  0  0  0  0
  150.7017  140.4271  155.2618 O   0  0  0  0  0  0  0  0  0  0  0  0
  148.4158  140.2345  155.9510 C   0  0  0  0  0  0  0  0  0  0  0  0
  147.8100  140.8933  154.7461 C   0  0  0  0  0  0  0  0  0  0  0  0
  148.0338  140.5709  153.4294 C   0  0  0  0  0  0  0  0  0  0  0  0
  147.1374  141.5972  152.3435 S   0  0  0  0  0  0  0  0  0  0  0  0
  146.4684  142.4355  153.7419 C   0  0  0  0  0  0  0  0  0  0  0  0
  145.5491  143.5218  153.6392 N   0  0  0  0  0  0  0  0  0  0  0  0
  145.2543  144.1419  152.3534 C   0  0  0  0  0  0  0  0  0  0  0  0
  144.2552  145.2424  152.6979 C   0  0  0  0  0  0  0  0  0  0  0  0
  144.1171  145.0916  154.1271 N   0  0  0  0  0  0  0  0  0  0  0  0
  144.8601  144.1085  154.6404 C   0  0  0  0  0  0  0  0  0  0  0  0
  144.8841  143.8148  155.8348 O   0  0  0  0  0  0  0  0  0  0  0  0
  146.9120  141.9530  154.9086 N   0  0  0  0  0  0  0  0  0  0  0  0
  151.3242  144.9299  160.5341 H   0  0  0  0  0  0  0  0  0  0  0  0
  153.0347  145.3403  160.4561 H   0  0  0  0  0  0  0  0  0  0  0  0
  152.5267  143.8725  161.2683 H   0  0  0  0  0  0  0  0  0  0  0  0
  153.4537  143.3215  159.0360 H   0  0  0  0  0  0  0  0  0  0  0  0
  151.3261  145.1783  157.8748 H   0  0  0  0  0  0  0  0  0  0  0  0
  152.4583  144.1980  156.9468 H   0  0  0  0  0  0  0  0  0  0  0  0
  153.0540  145.5134  157.9489 H   0  0  0  0  0  0  0  0  0  0  0  0
  151.5888  141.8917  159.7872 H   0  0  0  0  0  0  0  0  0  0  0  0
  150.4278  142.9985  159.1080 H   0  0  0  0  0  0  0  0  0  0  0  0
  151.8226  142.5256  156.8366 H   0  0  0  0  0  0  0  0  0  0  0  0
  152.1714  141.0181  157.6502 H   0  0  0  0  0  0  0  0  0  0  0  0
  149.3963  141.5509  157.8964 H   0  0  0  0  0  0  0  0  0  0  0  0
  148.3822  139.1486  155.8547 H   0  0  0  0  0  0  0  0  0  0  0  0
  147.8535  140.4804  156.8530 H   0  0  0  0  0  0  0  0  0  0  0  0
  148.6755  139.7979  153.0336 H   0  0  0  0  0  0  0  0  0  0  0  0
  146.1607  144.5529  151.9068 H   0  0  0  0  0  0  0  0  0  0  0  0
  144.8231  143.4147  151.6639 H   0  0  0  0  0  0  0  0  0  0  0  0
  144.6361  146.2342  152.4523 H   0  0  0  0  0  0  0  0  0  0  0  0
  143.2954  145.0961  152.2014 H   0  0  0  0  0  0  0  0  0  0  0  0
  143.5115  145.6829  154.6778 H   0  0  0  0  0  0  0  0  0  0  0  0
  1  2  1  0  0  0  0
  1 21  1  0  0  0  0
  1 22  1  0  0  0  0
  1 23  1  0  0  0  0
  2  3  1  0  0  0  0
  2  4  1  0  0  0  0
  2 24  1  0  0  0  0
  3 25  1  0  0  0  0
  3 26  1  0  0  0  0
  3 27  1  0  0  0  0
  4  5  1  0  0  0  0
  4 28  1  0  0  0  0
  4 29  1  0  0  0  0
  5  6  1  0  0  0  0
  5 30  1  0  0  0  0
  5 31  1  0  0  0  0
  6  7  1  0  0  0  0
  6 32  1  0  0  0  0
  7  8  2  0  0  0  0
  7  9  1  0  0  0  0
  9 10  1  0  0  0  0
  9 33  1  0  0  0  0
  9 34  1  0  0  0  0
 10 20  1  0  0  0  0
 10 11  2  0  0  0  0
 11 12  1  0  0  0  0
 11 35  1  0  0  0  0
 12 13  1  0  0  0  0
 13 14  1  0  0  0  0
 13 20  2  0  0  0  0
 14 18  1  0  0  0  0
 14 15  1  0  0  0  0
 15 16  1  0  0  0  0
 15 36  1  0  0  0  0
 15 37  1  0  0  0  0
 16 17  1  0  0  0  0
 16 38  1  0  0  0  0
 16 39  1  0  0  0  0
 17 18  1  0  0  0  0
 17 40  1  0  0  0  0
 18 19  2  0  0  0  0
M  END
> <s_m_source_file>
AV-unprocessed.smi

> <i_m_source_file_index>
1339

> <i_lp_mmshare_version>
43012

> <i_f3d_flags>
0

> <s_epik_input>
W0NIM11bQ0hdKFtDSDNdKVtDSDJdW0NIMl1bTkhdQyg9TylbQ0gyXWMxW2NIXXNjKG4xKU4yW0NIMl1bQ0gyXVtOSF1DMj1P

> <s_epik_cmdline>
J2VwaWtfcHl0aG9uJywgJy1waCcsICc3LjAnLCAnLXRuJywgJzgnLCAnLW1hJywgJzIwMCcsICctbWV0YWxfYmluZGluZycsICctaW1hZScsICc8aW5maWxlLm1hZT4nLCAnLW9tYWUnLCAnPG91dGZpbGUubWFlPic=

> <r_lp_tautomer_probability>
1

> <r_epik_Ionization_Penalty>
0.000122408

> <r_epik_Ionization_Penalty_Charging>
0

> <r_epik_Ionization_Penalty_Neutral>
0.000122408

> <r_epik_State_Penalty>
-0

> <r_epik_Charging_Adjusted_Penalty>
0

> <i_epik_Tot_Q>
0

> <i_epik_Tot_abs_Q>
0

> <r_epik_Metal_State_Penalty>
-0

> <b_epik_Metal_Only>
0

> <s_lp_Force_Field>
OPLS_2005

> <r_lp_Energy>
32.4973

> <b_lp_Chiralities_Consistent>
1

> <s_lp_Variant>
AV-unprocessed.smi:1339-1

> <Gold.Version>
5.8.1

> <Gold.Id.Protein>
6NUR|6NUR_protein|mol2

> <Gold.PLP.Fitness>
41.6785

> <Gold.PLP.PLP>
-36.5312

> <Gold.PLP.part.hbond>
-1.0000

> <Gold.PLP.part.metal>
0.0000

> <Gold.PLP.part.buried>
-5.8180

> <Gold.PLP.part.nonpolar>
-30.1266

> <Gold.PLP.part.repulsive>
0.3367

> <Gold.PLP.ligand.clash>
0.0000

> <Gold.PLP.ligand.torsion>
0.4858

> <Gold.PLP.Chemscore.Hbond>
1.0000

> <Gold.PLP.Chemscore.CHOScore>
1.0000

> <Gold.PLP.Chemscore.Metal>
0.0000

> <Gold.Chemscore.Hbonds>
donor molecule, donor type, donor heavy atom, donor atom, acceptor molecule, acceptor atom, score
      P1  H  7989  7998       L1     8  0.98
      L1  C    11    35       P1  7957  0.81

> <Gold.PLP.Chemscore.Internal.Correction>
0.1190

> <Gold.Rescore>
     Score         DG    S(hbond)    S(metal)    S(lipo)     H(rot)  DE(clash)    DE(int)     intcor
     10.82     -15.21       0.99        0.00      97.66       1.95       2.54       1.85       ----

> <Gold.Chemscore.Fitness>
10.8230

> <Gold.Chemscore.DG>
-15.2113

> <Gold.Chemscore.ZeroCoef>
-5.4800

> <Gold.Chemscore.Hbond>
0.9850

> <Gold.Chemscore.Metal>
0.0000

> <Gold.Chemscore.Lipo>
97.6593

> <Gold.Chemscore.Internal_Hbond>
0.0000

> <Gold.Chemscore.DEClash>
2.5391

> <Gold.Chemscore.DEInternal>
1.8492

> <Gold.Chemscore.Rot>
1.9472

> <Gold.Chemscore.Internal.Correction>
   9.000000E+99

> <Gold.Chemscore.Hbonds>
donor molecule, donor type, donor heavy atom, donor atom, acceptor molecule, acceptor atom, score
      P1  H  7989  7998       L1     8  0.89

> <Gold.Chemscore.Hbond.Weighted>
-3.2901

> <Gold.Chemscore.Metal.Weighted>
-0.0000

> <Gold.Chemscore.Lipo.Weighted>
-11.4261

> <Gold.Chemscore.Internal_Hbond.Weighted>
0.0000

> <Gold.Chemscore.DEClash.Weighted>
2.5391

> <Gold.Chemscore.DEInternal.Weighted>
1.8492

> <Gold.Chemscore.Rot.Weighted>
4.9849

> <Gold.Chemscore.Internal.Correction.Weighted>
   9.000000E+99

> <Gold.Protein.RotatedTorsions>
[ 6907 6896 6895 6894 ] final  -45.01 input  -60.11 | X-H torsion
[ 7974 7965 7964 7962 ] final  115.00 input  175.53 | X-H torsion
[ 8008 7997 7996 7995 ] final   54.65 input   59.86 | X-H torsion
[ 10167 10162 10161 10158 ] final  118.04 input  -65.29 | X-H torsion
[ 10718 10713 10712 10709 ] final   38.88 input   66.30 | X-H torsion
[ 10763 10752 10751 10750 ] final   20.10 input  -60.55 | X-H torsion
[ 11005 11000 10999 10996 ] final   42.07 input  -57.11 | X-H torsion

> <Gold.Protein.ActiveResidues>
 VAL166  LYS551  ARG553  GLY616  TRP617  ASP618  TYR619  PRO620  LYS621  CYS622 
 ASP623  PHE694  ASN695  SER759  ASP760  ASP761  ALA762  ILE779  LEU786  VAL792 
 PHE793  MET794  SER795  GLU796  ALA797  LYS798  CYS799  TRP800  GLU811  SER814 

> <Gold.Protein.RotatedAtoms>
  150.9265  134.8682  159.7523 H   0  0  0  0  0  0  0  0  0  0  0  0  # atno 6907 bound_to 6896
  152.5018  134.4141  159.9468 H   0  0  0  0  0  0  0  0  0  0  0  0  # atno 6908 bound_to 6896
  151.4171  133.3670  159.2786 H   0  0  0  0  0  0  0  0  0  0  0  0  # atno 6909 bound_to 6896
  145.1974  139.2969  143.4336 H   0  0  0  0  0  0  0  0  0  0  0  0  # atno 7974 bound_to 7965
  155.4882  140.3470  155.4350 H   0  0  0  0  0  0  0  0  0  0  0  0  # atno 8008 bound_to 7997
  156.0994  140.1431  156.9515 H   0  0  0  0  0  0  0  0  0  0  0  0  # atno 8009 bound_to 7997
  154.4684  140.0909  156.7059 H   0  0  0  0  0  0  0  0  0  0  0  0  # atno 8010 bound_to 7997
  139.6138  144.7087  151.2785 H   0  0  0  0  0  0  0  0  0  0  0  0  # atno 10167 bound_to 10162
  157.3640  130.7665  149.7069 H   0  0  0  0  0  0  0  0  0  0  0  0  # atno 10718 bound_to 10713
  153.1106  135.6695  153.9508 H   0  0  0  0  0  0  0  0  0  0  0  0  # atno 10763 bound_to 10752
  153.9052  135.3031  155.3450 H   0  0  0  0  0  0  0  0  0  0  0  0  # atno 10764 bound_to 10752
  154.7525  135.5027  153.9393 H   0  0  0  0  0  0  0  0  0  0  0  0  # atno 10765 bound_to 10752
  140.1774  134.4146  155.8220 H   0  0  0  0  0  0  0  0  0  0  0  0  # atno 11005 bound_to 11000
  146.3424  140.2208  142.8591 LP  0  0  0  0  0  0  0  0  0  0  0  0  # atno 17320 bound_to 7965
  144.9981  140.8607  143.5298 LP  0  0  0  0  0  0  0  0  0  0  0  0  # atno 17321 bound_to 7965
  140.7337  143.6787  150.8020 LP  0  0  0  0  0  0  0  0  0  0  0  0  # atno 17342 bound_to 10162
  140.0386  143.5369  152.2728 LP  0  0  0  0  0  0  0  0  0  0  0  0  # atno 17343 bound_to 10162
  155.9743  130.4106  150.3937 LP  0  0  0  0  0  0  0  0  0  0  0  0  # atno 17370 bound_to 10713
  157.2018  131.0440  151.2646 LP  0  0  0  0  0  0  0  0  0  0  0  0  # atno 17371 bound_to 10713
  141.2221  133.6984  156.7870 LP  0  0  0  0  0  0  0  0  0  0  0  0  # atno 17394 bound_to 11000
  140.2307  134.8688  157.3473 LP  0  0  0  0  0  0  0  0  0  0  0  0  # atno 17395 bound_to 11000

$$$$
