AV-unprocessed.smi:54|AV-procd|sdf|559|dock1
  -GOLD-   2262016463D 1   1.00000     0.00000
 Structure written by MMmdl.
 43 45  0  0  0  0  0  0  0  0  2 V2000
  153.0167  143.4482  159.5918 C   0  0  0  0  0  0  0  0  0  0  0  0
  152.7166  142.1529  160.3643 C   0  0  0  0  0  0  0  0  0  0  0  0
  153.4953  142.0999  161.6892 C   0  0  0  0  0  0  0  0  0  0  0  0
  153.0266  140.9212  159.5017 C   0  0  0  0  0  0  0  0  0  0  0  0
  153.9571  140.1802  159.8261 O   0  0  0  0  0  0  0  0  0  0  0  0
  152.2335  140.7614  158.4194 N   0  0  0  0  0  0  0  0  0  0  0  0
  152.2686  139.7640  157.4385 C   0  0  0  0  0  0  0  0  0  0  0  0
  151.1159  139.5947  156.8387 N   0  0  0  0  0  0  0  0  0  0  0  0
  151.1504  138.5989  155.8817 C   0  0  0  0  0  0  0  0  0  0  0  0
  152.2165  137.8140  155.5352 C   0  0  0  0  0  0  0  0  0  0  0  0
  151.8809  136.9115  154.5337 N   0  0  0  0  0  0  0  0  0  0  0  0
  150.5995  137.2008  154.3174 C   0  0  0  0  0  0  0  0  0  0  0  0
  150.0878  138.1885  155.0782 N   0  0  0  0  0  0  0  0  0  0  0  0
  148.6740  138.6888  155.0278 C   0  0  2  0  0  0  0  0  0  0  0  0
  147.8937  137.8098  154.2694 O   0  0  0  0  0  0  0  0  0  0  0  0
  147.3463  138.4772  153.1324 C   0  0  1  0  0  0  0  0  0  0  0  0
  145.9893  137.8565  152.7670 C   0  0  0  0  0  0  0  0  0  0  0  0
  145.4300  138.5308  151.6599 O   0  0  0  0  0  0  0  0  0  0  0  0
  147.2510  139.9263  153.6118 C   0  0  2  0  0  0  0  0  0  0  0  0
  147.1275  140.8606  152.5570 O   0  0  0  0  0  0  0  0  0  0  0  0
  148.5432  140.0897  154.3994 C   0  0  2  0  0  0  0  0  0  0  0  0
  149.6390  140.4498  153.5709 O   0  0  0  0  0  0  0  0  0  0  0  0
  153.4871  138.0472  156.2616 C   0  0  0  0  0  0  0  0  0  0  0  0
  154.4693  137.3614  155.9845 O   0  0  0  0  0  0  0  0  0  0  0  0
  153.4509  139.0334  157.2063 N   0  5  0  0  0  0  0  0  0  0  0  0
  148.3315  138.6561  156.0629 H   0  0  0  0  0  0  0  0  0  0  0  0
  148.0430  138.4180  152.2945 H   0  0  0  0  0  0  0  0  0  0  0  0
  146.3994  140.0342  154.2856 H   0  0  0  0  0  0  0  0  0  0  0  0
  148.4469  140.8377  155.1870 H   0  0  0  0  0  0  0  0  0  0  0  0
  152.4673  143.4838  158.6503 H   0  0  0  0  0  0  0  0  0  0  0  0
  154.0787  143.5422  159.3616 H   0  0  0  0  0  0  0  0  0  0  0  0
  152.7264  144.3237  160.1729 H   0  0  0  0  0  0  0  0  0  0  0  0
  151.6518  142.1472  160.6039 H   0  0  0  0  0  0  0  0  0  0  0  0
  153.2897  141.1770  162.2329 H   0  0  0  0  0  0  0  0  0  0  0  0
  153.2157  142.9305  162.3377 H   0  0  0  0  0  0  0  0  0  0  0  0
  154.5721  142.1575  161.5252 H   0  0  0  0  0  0  0  0  0  0  0  0
  151.5680  141.5051  158.2696 H   0  0  0  0  0  0  0  0  0  0  0  0
  150.0100  136.6725  153.5827 H   0  0  0  0  0  0  0  0  0  0  0  0
  146.0836  136.7908  152.5568 H   0  0  0  0  0  0  0  0  0  0  0  0
  145.2917  137.9620  153.5981 H   0  0  0  0  0  0  0  0  0  0  0  0
  144.6941  139.0421  151.9598 H   0  0  0  0  0  0  0  0  0  0  0  0
  147.9350  140.8545  152.0652 H   0  0  0  0  0  0  0  0  0  0  0  0
  149.3430  140.4796  152.6739 H   0  0  0  0  0  0  0  0  0  0  0  0
  1  2  1  0  0  0  0
  1 30  1  0  0  0  0
  1 31  1  0  0  0  0
  1 32  1  0  0  0  0
  2  3  1  0  0  0  0
  2  4  1  0  0  0  0
  2 33  1  0  0  0  0
  3 34  1  0  0  0  0
  3 35  1  0  0  0  0
  3 36  1  0  0  0  0
  4  5  2  0  0  0  0
  4  6  1  0  0  0  0
  6 37  1  0  0  0  0
  6  7  1  0  0  0  0
  7 25  1  0  0  0  0
  7  8  2  0  0  0  0
  8  9  1  0  0  0  0
  9 13  1  0  0  0  0
  9 10  2  0  0  0  0
 10 11  1  0  0  0  0
 10 23  1  0  0  0  0
 11 12  2  0  0  0  0
 12 13  1  0  0  0  0
 12 38  1  0  0  0  0
 13 14  1  0  0  0  0
 14 26  1  0  0  0  0
 14 21  1  0  0  0  0
 14 15  1  0  0  0  0
 15 16  1  0  0  0  0
 16 27  1  0  0  0  0
 16 17  1  0  0  0  0
 16 19  1  0  0  0  0
 17 18  1  0  0  0  0
 17 39  1  0  0  0  0
 17 40  1  0  0  0  0
 18 41  1  0  0  0  0
 19 28  1  0  0  0  0
 19 20  1  0  0  0  0
 19 21  1  0  0  0  0
 20 42  1  0  0  0  0
 21 29  1  0  0  0  0
 21 22  1  0  0  0  0
 22 43  1  0  0  0  0
 23 24  2  0  0  0  0
 23 25  1  0  0  0  0
M  CHG  1  25  -1
M  END
> <s_m_source_file>
AV-unprocessed.smi

> <i_m_source_file_index>
54

> <i_lp_mmshare_version>
43012

> <i_f3d_flags>
0

> <s_epik_input>
W0NIM11bQ0hdKFtDSDNdKUMoPU8pW05IXWMobjEpW25IXWMoPU8pYyhjMTIpbltjSF1uMltDQEBIXTNPW0NASF0oW0NIMl1bT0hdKVtDQEBIXShbT0hdKVtDQEhdM1tPSF0=

> <s_epik_cmdline>
J2VwaWtfcHl0aG9uJywgJy1waCcsICc3LjAnLCAnLXRuJywgJzgnLCAnLW1hJywgJzIwMCcsICctbWV0YWxfYmluZGluZycsICctaW1hZScsICc8aW5maWxlLm1hZT4nLCAnLW9tYWUnLCAnPG91dGZpbGUubWFlPic=

> <r_lp_tautomer_probability>
0.85571

> <r_epik_Ionization_Penalty>
1.75936

> <r_epik_Ionization_Penalty_Charging>
4.55893e-11

> <r_epik_Ionization_Penalty_Neutral>
1.75936

> <r_epik_State_Penalty>
1.72072

> <r_epik_Charging_Adjusted_Penalty>
1.72072

> <i_epik_Tot_Q>
-1

> <i_epik_Tot_abs_Q>
1

> <r_epik_Metal_State_Penalty>
0.400338

> <b_epik_Metal_Only>
1

> <s_epik_Chemistry_Notes>
This compound contains an acetal/aminal-like group ( X-CH(R)-Y where X, Y are N, S, or O) that may be acid/base labile, releasing an aldehyde.

> <s_lp_Force_Field>
OPLS_2005

> <r_lp_Energy>
68.2846

> <b_lp_Chiralities_Consistent>
1

> <s_lp_Variant>
AV-unprocessed.smi:54-31

> <Gold.Version>
5.8.1

> <Gold.Id.Protein>
6NUR|6NUR_protein|mol2

> <Gold.PLP.Fitness>
59.1006

> <Gold.PLP.PLP>
-36.1733

> <Gold.PLP.part.hbond>
-7.7885

> <Gold.PLP.part.metal>
0.0000

> <Gold.PLP.part.buried>
-3.2926

> <Gold.PLP.part.nonpolar>
-26.5225

> <Gold.PLP.part.repulsive>
0.3709

> <Gold.PLP.ligand.clash>
0.0000

> <Gold.PLP.ligand.torsion>
0.5183

> <Gold.PLP.Chemscore.Hbond>
6.9769

> <Gold.PLP.Chemscore.CHOScore>
1.0000

> <Gold.PLP.Chemscore.Metal>
0.0000

> <Gold.Chemscore.Hbonds>
donor molecule, donor type, donor heavy atom, donor atom, acceptor molecule, acceptor atom, score
      L1  H    18    41       P1 10175  1.00
      L1  H    20    42       P1  7957  0.98
      L1  H    22    43       P1  7957  0.94
      P1  H  7989  7998       L1    22  0.51
      P1  H  7997  8009       L1    25  1.76
      P1  H 10752 10763       L1    24  0.22
      P1  H 10752 10765       L1    11  1.00
      L1  C    12    38       P1  7948  0.90

> <Gold.PLP.Chemscore.Internal.Correction>
0.0331

> <Gold.Rescore>
     Score         DG    S(hbond)    S(metal)    S(lipo)     H(rot)  DE(clash)    DE(int)     intcor
     16.10     -18.12       4.65        0.00      63.15       4.02       0.26       1.76       ----

> <Gold.Chemscore.Fitness>
16.0978

> <Gold.Chemscore.DG>
-18.1168

> <Gold.Chemscore.ZeroCoef>
-5.4800

> <Gold.Chemscore.Hbond>
4.6518

> <Gold.Chemscore.Metal>
0.0000

> <Gold.Chemscore.Lipo>
63.1549

> <Gold.Chemscore.Internal_Hbond>
0.0000

> <Gold.Chemscore.DEClash>
0.2560

> <Gold.Chemscore.DEInternal>
1.7631

> <Gold.Chemscore.Rot>
4.0192

> <Gold.Chemscore.Internal.Correction>
   9.000000E+99

> <Gold.Chemscore.Hbonds>
donor molecule, donor type, donor heavy atom, donor atom, acceptor molecule, acceptor atom, score
      L1  H    18    41       P1 10175  1.00
      L1  H    20    42       P1  7957  0.90
      L1  H    22    43       P1  7957  0.89
      P1  H  7989  7998       L1    22  0.21
      P1  H  7997  8009       L1    25  0.17
      P1  H 10752 10763       L1    24  0.21
      P1  H 10752 10765       L1    11  0.89

> <Gold.Chemscore.Hbond.Weighted>
-15.5370

> <Gold.Chemscore.Metal.Weighted>
-0.0000

> <Gold.Chemscore.Lipo.Weighted>
-7.3891

> <Gold.Chemscore.Internal_Hbond.Weighted>
0.0000

> <Gold.Chemscore.DEClash.Weighted>
0.2560

> <Gold.Chemscore.DEInternal.Weighted>
1.7631

> <Gold.Chemscore.Rot.Weighted>
10.2893

> <Gold.Chemscore.Internal.Correction.Weighted>
   9.000000E+99

> <Gold.Protein.RotatedTorsions>
[ 6907 6896 6895 6894 ] final  -23.42 input  -60.11 | X-H torsion
[ 7974 7965 7964 7962 ] final   -9.84 input  175.53 | X-H torsion
[ 8008 7997 7996 7995 ] final  175.39 input   59.86 | X-H torsion
[ 10167 10162 10161 10158 ] final  -80.75 input  -65.29 | X-H torsion
[ 10718 10713 10712 10709 ] final  -24.89 input   66.30 | X-H torsion
[ 10763 10752 10751 10750 ] final  165.13 input  -60.55 | X-H torsion
[ 11005 11000 10999 10996 ] final -101.92 input  -57.11 | X-H torsion

> <Gold.Protein.ActiveResidues>
 VAL166  LYS551  ARG553  GLY616  TRP617  ASP618  TYR619  PRO620  LYS621  CYS622 
 ASP623  PHE694  ASN695  SER759  ASP760  ASP761  ALA762  ILE779  LEU786  VAL792 
 PHE793  MET794  SER795  GLU796  ALA797  LYS798  CYS799  TRP800  GLU811  SER814 

> <Gold.Protein.RotatedAtoms>
  151.2043  135.0455  159.8884 H   0  0  0  0  0  0  0  0  0  0  0  0  # atno 6907 bound_to 6896
  152.5430  134.0816  159.8248 H   0  0  0  0  0  0  0  0  0  0  0  0  # atno 6908 bound_to 6896
  151.0960  133.5232  159.2644 H   0  0  0  0  0  0  0  0  0  0  0  0  # atno 6909 bound_to 6896
  146.2239  140.2675  142.8355 H   0  0  0  0  0  0  0  0  0  0  0  0  # atno 7974 bound_to 7965
  156.0876  140.1410  156.9634 H   0  0  0  0  0  0  0  0  0  0  0  0  # atno 8008 bound_to 7997
  154.4622  140.0939  156.6971 H   0  0  0  0  0  0  0  0  0  0  0  0  # atno 8009 bound_to 7997
  155.4974  140.3450  155.4367 H   0  0  0  0  0  0  0  0  0  0  0  0  # atno 8010 bound_to 7997
  140.4475  143.2494  151.8537 H   0  0  0  0  0  0  0  0  0  0  0  0  # atno 10167 bound_to 10162
  156.4716  130.4525  149.6866 H   0  0  0  0  0  0  0  0  0  0  0  0  # atno 10718 bound_to 10713
  154.3194  135.2756  155.2527 H   0  0  0  0  0  0  0  0  0  0  0  0  # atno 10763 bound_to 10752
  154.4887  135.5839  153.6446 H   0  0  0  0  0  0  0  0  0  0  0  0  # atno 10764 bound_to 10752
  152.9878  135.6129  154.3377 H   0  0  0  0  0  0  0  0  0  0  0  0  # atno 10765 bound_to 10752
  141.1211  133.8516  157.1293 H   0  0  0  0  0  0  0  0  0  0  0  0  # atno 11005 bound_to 11000
  144.9293  140.7956  143.5699 LP  0  0  0  0  0  0  0  0  0  0  0  0  # atno 17320 bound_to 7965
  145.2618  139.1989  143.4888 LP  0  0  0  0  0  0  0  0  0  0  0  0  # atno 17321 bound_to 7965
  139.4794  144.5159  151.8869 LP  0  0  0  0  0  0  0  0  0  0  0  0  # atno 17342 bound_to 10162
  140.4246  144.2197  150.5887 LP  0  0  0  0  0  0  0  0  0  0  0  0  # atno 17343 bound_to 10162
  156.3612  130.7482  151.2455 LP  0  0  0  0  0  0  0  0  0  0  0  0  # atno 17370 bound_to 10713
  157.7491  131.0349  150.4341 LP  0  0  0  0  0  0  0  0  0  0  0  0  # atno 17371 bound_to 10713
  140.0169  134.9963  157.0512 LP  0  0  0  0  0  0  0  0  0  0  0  0  # atno 17394 bound_to 11000
  140.4505  134.1588  155.7181 LP  0  0  0  0  0  0  0  0  0  0  0  0  # atno 17395 bound_to 11000

$$$$
