AV-unprocessed.smi:265|AV-procd|sdf|2017|dock4
  -GOLD-   2262021213D 1   1.00000     0.00000
 Structure written by MMmdl.
 52 56  0  0  0  0  0  0  0  0  1 V2000
  156.6908  131.8932  163.0353 C   0  0  0  0  0  0  0  0  0  0  0  0
  156.2749  132.9237  164.0967 C   0  0  2  0  0  0  0  0  0  0  0  0
  155.5059  132.3155  165.1335 O   0  0  0  0  0  0  0  0  0  0  0  0
  154.3479  133.0929  165.4143 C   0  0  0  0  0  0  0  0  0  0  0  0
  154.6445  134.4727  164.8372 C   0  0  0  0  0  0  0  0  0  0  0  0
  155.4643  134.1421  163.5971 C   0  0  2  0  0  0  0  0  0  0  0  0
  154.5763  133.7529  162.5625 O   0  0  0  0  0  0  0  0  0  0  0  0
  156.3048  135.3123  163.0226 C   0  0  0  0  0  0  0  0  0  0  0  0
  155.5573  136.5292  162.7463 N   0  0  0  0  0  0  0  0  0  0  0  0
  154.1990  136.7135  162.8852 C   0  0  0  0  0  0  0  0  0  0  0  0
  153.7615  137.9031  162.5735 N   0  0  0  0  0  0  0  0  0  0  0  0
  154.9087  138.5964  162.2117 C   0  0  0  0  0  0  0  0  0  0  0  0
  155.1622  139.9203  161.7703 C   0  0  0  0  0  0  0  0  0  0  0  0
  154.1706  140.8215  161.6101 N   0  0  0  0  0  0  0  0  0  0  0  0
  154.1358  141.8441  162.6560 C   0  0  0  0  0  0  0  0  0  0  0  0
  152.8699  142.7144  162.5381 C   0  0  0  0  0  0  0  0  0  0  0  0
  152.7685  143.2950  161.1209 C   0  0  2  0  0  0  0  0  0  0  0  0
  151.5634  144.0190  160.9244 O   0  0  0  0  0  0  0  0  0  0  0  0
  151.5149  144.7091  159.6705 C   0  0  0  0  0  0  0  0  0  0  0  0
  151.9519  143.8255  158.4818 C   0  0  0  0  0  0  0  0  0  0  0  0
  151.7406  144.2006  157.3308 O   0  0  0  0  0  0  0  0  0  0  0  0
  152.5964  142.6771  158.7476 N   0  0  0  0  0  0  0  0  0  0  0  0
  152.7639  142.1499  160.0953 C   0  0  1  0  0  0  0  0  0  0  0  0
  154.0465  141.3155  160.2389 C   0  0  0  0  0  0  0  0  0  0  0  0
  156.4477  140.2711  161.5043 N   0  0  0  0  0  0  0  0  0  0  0  0
  157.4272  139.3748  161.6616 C   0  0  0  0  0  0  0  0  0  0  0  0
  157.3404  138.1034  162.0609 N   0  0  0  0  0  0  0  0  0  0  0  0
  156.0484  137.7530  162.3252 C   0  0  0  0  0  0  0  0  0  0  0  0
  153.6202  143.9580  160.9534 H   0  0  0  0  0  0  0  0  0  0  0  0
  151.9061  141.5029  160.2884 H   0  0  0  0  0  0  0  0  0  0  0  0
  157.2734  132.3618  162.2421 H   0  0  0  0  0  0  0  0  0  0  0  0
  155.8255  131.4107  162.5804 H   0  0  0  0  0  0  0  0  0  0  0  0
  157.3050  131.1101  163.4799 H   0  0  0  0  0  0  0  0  0  0  0  0
  157.1766  133.2723  164.5975 H   0  0  0  0  0  0  0  0  0  0  0  0
  153.4917  132.6422  164.9111 H   0  0  0  0  0  0  0  0  0  0  0  0
  154.1359  133.1214  166.4832 H   0  0  0  0  0  0  0  0  0  0  0  0
  153.7456  135.0540  164.6283 H   0  0  0  0  0  0  0  0  0  0  0  0
  155.2379  135.0266  165.5636 H   0  0  0  0  0  0  0  0  0  0  0  0
  154.6214  134.3952  161.8709 H   0  0  0  0  0  0  0  0  0  0  0  0
  157.1107  135.5634  163.7136 H   0  0  0  0  0  0  0  0  0  0  0  0
  156.7898  135.0017  162.0961 H   0  0  0  0  0  0  0  0  0  0  0  0
  153.5366  135.9278  163.2190 H   0  0  0  0  0  0  0  0  0  0  0  0
  154.1679  141.3694  163.6377 H   0  0  0  0  0  0  0  0  0  0  0  0
  155.0237  142.4733  162.5769 H   0  0  0  0  0  0  0  0  0  0  0  0
  151.9868  142.1132  162.7581 H   0  0  0  0  0  0  0  0  0  0  0  0
  152.8948  143.5171  163.2752 H   0  0  0  0  0  0  0  0  0  0  0  0
  150.5012  145.0749  159.5055 H   0  0  0  0  0  0  0  0  0  0  0  0
  152.1685  145.5810  159.7167 H   0  0  0  0  0  0  0  0  0  0  0  0
  152.9151  142.1079  157.9769 H   0  0  0  0  0  0  0  0  0  0  0  0
  154.9188  141.9201  159.9855 H   0  0  0  0  0  0  0  0  0  0  0  0
  154.0244  140.4732  159.5458 H   0  0  0  0  0  0  0  0  0  0  0  0
  158.4230  139.7261  161.4346 H   0  0  0  0  0  0  0  0  0  0  0  0
  1  2  1  0  0  0  0
  1 31  1  0  0  0  0
  1 32  1  0  0  0  0
  1 33  1  0  0  0  0
  2  6  1  0  0  0  0
  2  3  1  0  0  0  0
  2 34  1  0  0  0  0
  3  4  1  0  0  0  0
  4  5  1  0  0  0  0
  4 35  1  0  0  0  0
  4 36  1  0  0  0  0
  5  6  1  0  0  0  0
  5 37  1  0  0  0  0
  5 38  1  0  0  0  0
  6  7  1  0  0  0  0
  6  8  1  0  0  0  0
  7 39  1  0  0  0  0
  8  9  1  0  0  0  0
  8 40  1  0  0  0  0
  8 41  1  0  0  0  0
  9 28  1  0  0  0  0
  9 10  1  0  0  0  0
 10 11  2  0  0  0  0
 10 42  1  0  0  0  0
 11 12  1  0  0  0  0
 12 28  2  0  0  0  0
 12 13  1  0  0  0  0
 13 14  1  0  0  0  0
 13 25  2  0  0  0  0
 14 24  1  0  0  0  0
 14 15  1  0  0  0  0
 15 16  1  0  0  0  0
 15 43  1  0  0  0  0
 15 44  1  0  0  0  0
 16 17  1  0  0  0  0
 16 45  1  0  0  0  0
 16 46  1  0  0  0  0
 17 29  1  0  0  0  0
 17 23  1  0  0  0  0
 17 18  1  0  0  0  0
 18 19  1  0  0  0  0
 19 20  1  0  0  0  0
 19 47  1  0  0  0  0
 19 48  1  0  0  0  0
 20 21  2  0  0  0  0
 20 22  1  0  0  0  0
 22 23  1  0  0  0  0
 22 49  1  0  0  0  0
 23 30  1  0  0  0  0
 23 24  1  0  0  0  0
 24 50  1  0  0  0  0
 24 51  1  0  0  0  0
 25 26  1  0  0  0  0
 26 27  2  0  0  0  0
 26 52  1  0  0  0  0
 27 28  1  0  0  0  0
M  END
> <s_m_source_file>
AV-unprocessed.smi

> <i_m_source_file_index>
265

> <i_lp_mmshare_version>
43012

> <i_f3d_flags>
0

> <s_epik_input>
W0NIMl0xW0NIMl1PW0NAQEhdKFtDSDNdKVtDQEBdMShbT0hdKVtDSDJdbihbY0hdbjIpYyhjMjMpbltjSF1uYzNOKFtDSDJdW0NIMl00KVtDSDJdW0NAQEhdKFtDQEhdNDUpW05IXUMoPU8pW0NIMl1PNQ==

> <s_epik_cmdline>
J2VwaWtfcHl0aG9uJywgJy1waCcsICc3LjAnLCAnLXRuJywgJzgnLCAnLW1hJywgJzIwMCcsICctbWV0YWxfYmluZGluZycsICctaW1hZScsICc8aW5maWxlLm1hZT4nLCAnLW9tYWUnLCAnPG91dGZpbGUubWFlPic=

> <r_lp_tautomer_probability>
1

> <r_epik_Ionization_Penalty>
0.00221504

> <r_epik_Ionization_Penalty_Charging>
0

> <r_epik_Ionization_Penalty_Neutral>
0.00221504

> <r_epik_State_Penalty>
-0

> <r_epik_Charging_Adjusted_Penalty>
0

> <i_epik_Tot_Q>
0

> <i_epik_Tot_abs_Q>
0

> <r_epik_Metal_State_Penalty>
-0

> <b_epik_Metal_Only>
0

> <s_lp_Force_Field>
OPLS_2005

> <r_lp_Energy>
49.4841

> <b_lp_Chiralities_Consistent>
1

> <s_lp_Variant>
AV-unprocessed.smi:265-3

> <Gold.Version>
5.8.1

> <Gold.Id.Protein>
6NUR|6NUR_protein|mol2

> <Gold.PLP.Fitness>
43.5392

> <Gold.PLP.PLP>
-43.7799

> <Gold.PLP.part.hbond>
-1.0000

> <Gold.PLP.part.metal>
0.0000

> <Gold.PLP.part.buried>
-4.4237

> <Gold.PLP.part.nonpolar>
-38.7448

> <Gold.PLP.part.repulsive>
0.3245

> <Gold.PLP.ligand.clash>
0.0000

> <Gold.PLP.ligand.torsion>
0.2306

> <Gold.PLP.Chemscore.Hbond>
0.0000

> <Gold.PLP.Chemscore.CHOScore>
0.0000

> <Gold.PLP.Chemscore.Metal>
0.0000

> <Gold.PLP.Chemscore.Internal.Correction>
0.2206

> <Gold.Rescore>
     Score         DG    S(hbond)    S(metal)    S(lipo)     H(rot)  DE(clash)    DE(int)     intcor
      9.87     -11.58       0.00        0.00     101.27       2.25       0.22       1.49       ----

> <Gold.Chemscore.Fitness>
9.8697

> <Gold.Chemscore.DG>
-11.5802

> <Gold.Chemscore.ZeroCoef>
-5.4800

> <Gold.Chemscore.Hbond>
0.0000

> <Gold.Chemscore.Metal>
0.0000

> <Gold.Chemscore.Lipo>
101.2663

> <Gold.Chemscore.Internal_Hbond>
0.0000

> <Gold.Chemscore.DEClash>
0.2235

> <Gold.Chemscore.DEInternal>
1.4870

> <Gold.Chemscore.Rot>
2.2453

> <Gold.Chemscore.Internal.Correction>
   9.000000E+99

> <Gold.Chemscore.Hbond.Weighted>
-0.0000

> <Gold.Chemscore.Metal.Weighted>
-0.0000

> <Gold.Chemscore.Lipo.Weighted>
-11.8482

> <Gold.Chemscore.Internal_Hbond.Weighted>
0.0000

> <Gold.Chemscore.DEClash.Weighted>
0.2235

> <Gold.Chemscore.DEInternal.Weighted>
1.4870

> <Gold.Chemscore.Rot.Weighted>
5.7479

> <Gold.Chemscore.Internal.Correction.Weighted>
   9.000000E+99

> <Gold.Protein.RotatedTorsions>
[ 6907 6896 6895 6894 ] final  -55.83 input  -60.11 | X-H torsion
[ 7974 7965 7964 7962 ] final  133.95 input  175.53 | X-H torsion
[ 8008 7997 7996 7995 ] final  -96.48 input   59.86 | X-H torsion
[ 10167 10162 10161 10158 ] final  -67.58 input  -65.29 | X-H torsion
[ 10718 10713 10712 10709 ] final   89.62 input   66.30 | X-H torsion
[ 10763 10752 10751 10750 ] final  -73.94 input  -60.55 | X-H torsion
[ 11005 11000 10999 10996 ] final   46.69 input  -57.11 | X-H torsion

> <Gold.Protein.ActiveResidues>
 VAL166  LYS551  ARG553  GLY616  TRP617  ASP618  TYR619  PRO620  LYS621  CYS622 
 ASP623  PHE694  ASN695  SER759  ASP760  ASP761  ALA762  ILE779  LEU786  VAL792 
 PHE793  MET794  SER795  GLU796  ALA797  LYS798  CYS799  TRP800  GLU811  SER814 

> <Gold.Protein.RotatedAtoms>
  150.8218  134.7429  159.6778 H   0  0  0  0  0  0  0  0  0  0  0  0  # atno 6907 bound_to 6896
  152.4333  134.5732  159.9937 H   0  0  0  0  0  0  0  0  0  0  0  0  # atno 6908 bound_to 6896
  151.5915  133.3328  159.3064 H   0  0  0  0  0  0  0  0  0  0  0  0  # atno 6909 bound_to 6896
  144.9813  139.4501  143.5385 H   0  0  0  0  0  0  0  0  0  0  0  0  # atno 7974 bound_to 7965
  154.7750  140.0471  157.1082 H   0  0  0  0  0  0  0  0  0  0  0  0  # atno 8008 bound_to 7997
  154.9774  140.3097  155.4942 H   0  0  0  0  0  0  0  0  0  0  0  0  # atno 8009 bound_to 7997
  156.2927  140.2242  156.4870 H   0  0  0  0  0  0  0  0  0  0  0  0  # atno 8010 bound_to 7997
  140.5572  143.2312  151.6798 H   0  0  0  0  0  0  0  0  0  0  0  0  # atno 10167 bound_to 10162
  157.6956  131.0340  150.3454 H   0  0  0  0  0  0  0  0  0  0  0  0  # atno 10718 bound_to 10713
  154.4663  135.5881  153.6290 H   0  0  0  0  0  0  0  0  0  0  0  0  # atno 10763 bound_to 10752
  152.9829  135.6056  154.3423 H   0  0  0  0  0  0  0  0  0  0  0  0  # atno 10764 bound_to 10752
  154.3300  135.2842  155.2456 H   0  0  0  0  0  0  0  0  0  0  0  0  # atno 10765 bound_to 10752
  140.1346  134.4662  155.8495 H   0  0  0  0  0  0  0  0  0  0  0  0  # atno 11005 bound_to 11000
  146.3409  139.9088  142.8783 LP  0  0  0  0  0  0  0  0  0  0  0  0  # atno 17320 bound_to 7965
  145.2416  141.0011  143.3932 LP  0  0  0  0  0  0  0  0  0  0  0  0  # atno 17321 bound_to 7965
  139.5053  144.3722  152.0459 LP  0  0  0  0  0  0  0  0  0  0  0  0  # atno 17342 bound_to 10162
  140.2845  144.3823  150.6108 LP  0  0  0  0  0  0  0  0  0  0  0  0  # atno 17343 bound_to 10162
  156.3909  130.3898  149.7030 LP  0  0  0  0  0  0  0  0  0  0  0  0  # atno 17370 bound_to 10713
  156.4380  130.7847  151.2868 LP  0  0  0  0  0  0  0  0  0  0  0  0  # atno 17371 bound_to 10713
  141.2176  133.6809  156.7133 LP  0  0  0  0  0  0  0  0  0  0  0  0  # atno 17394 bound_to 11000
  140.2799  134.8325  157.3924 LP  0  0  0  0  0  0  0  0  0  0  0  0  # atno 17395 bound_to 11000

$$$$
