AV-unprocessed.smi:2406|AV-procd|sdf|9517|dock3
  -GOLD-   2272013153D 1   1.00000     0.00000
 Structure written by MMmdl.
 36 37  0  0  0  0  0  0  0  0  1 V2000
  153.5558  136.1807  157.3291 C   0  0  0  0  0  0  0  0  0  0  0  0
  152.7934  135.9945  156.1418 O   0  0  0  0  0  0  0  0  0  0  0  0
  151.5003  135.5302  156.2645 C   0  0  0  0  0  0  0  0  0  0  0  0
  150.6670  135.4976  155.1275 C   0  0  0  0  0  0  0  0  0  0  0  0
  149.3522  135.0077  155.2950 C   0  0  0  0  0  0  0  0  0  0  0  0
  148.5499  134.9817  154.1239 N   0  0  0  0  0  0  0  0  0  0  0  0
  147.4173  134.2894  153.9098 C   0  0  0  0  0  0  0  0  0  0  0  0
  146.8531  133.5747  154.7386 O   0  0  0  0  0  0  0  0  0  0  0  0
  146.9730  134.4694  152.6573 N   0  0  0  0  0  0  0  0  0  0  0  0
  145.8047  133.8245  152.0608 C   0  0  1  0  0  0  0  0  0  0  0  0
  144.8794  134.8920  151.4599 C   0  0  0  0  0  0  0  0  0  0  0  0
  146.2500  132.7944  151.0057 C   0  0  0  0  0  0  0  0  0  0  0  0
  145.1052  131.9546  150.4656 C   0  0  0  0  0  0  0  0  0  0  0  0
  144.0498  132.5493  149.5615 C   0  0  0  0  0  0  0  0  0  0  0  0
  143.6970  132.1493  150.9750 C   0  0  0  0  0  0  0  0  0  0  0  0
  148.9342  134.5967  156.5176 N   0  0  0  0  0  0  0  0  0  0  0  0
  149.7985  134.6704  157.5315 C   0  0  0  0  0  0  0  0  0  0  0  0
  151.0555  135.1118  157.4740 N   0  0  0  0  0  0  0  0  0  0  0  0
  154.5506  136.5399  157.0663 H   0  0  0  0  0  0  0  0  0  0  0  0
  153.6763  135.2445  157.8761 H   0  0  0  0  0  0  0  0  0  0  0  0
  153.0986  136.9224  157.9855 H   0  0  0  0  0  0  0  0  0  0  0  0
  151.0293  135.8321  154.1662 H   0  0  0  0  0  0  0  0  0  0  0  0
  148.8931  135.5310  153.3500 H   0  0  0  0  0  0  0  0  0  0  0  0
  147.5034  135.0800  152.0531 H   0  0  0  0  0  0  0  0  0  0  0  0
  145.2408  133.2890  152.8267 H   0  0  0  0  0  0  0  0  0  0  0  0
  143.9897  134.4384  151.0223 H   0  0  0  0  0  0  0  0  0  0  0  0
  145.3827  135.4597  150.6767 H   0  0  0  0  0  0  0  0  0  0  0  0
  144.5466  135.5972  152.2222 H   0  0  0  0  0  0  0  0  0  0  0  0
  146.7128  133.3108  150.1641 H   0  0  0  0  0  0  0  0  0  0  0  0
  147.0143  132.1360  151.4213 H   0  0  0  0  0  0  0  0  0  0  0  0
  145.3874  130.9256  150.2500 H   0  0  0  0  0  0  0  0  0  0  0  0
  144.1102  133.6133  149.3413 H   0  0  0  0  0  0  0  0  0  0  0  0
  143.6757  131.9262  148.7517 H   0  0  0  0  0  0  0  0  0  0  0  0
  143.0841  131.2601  151.1077 H   0  0  0  0  0  0  0  0  0  0  0  0
  143.5210  132.9487  151.6923 H   0  0  0  0  0  0  0  0  0  0  0  0
  149.4446  134.3376  158.4959 H   0  0  0  0  0  0  0  0  0  0  0  0
  1  2  1  0  0  0  0
  1 19  1  0  0  0  0
  1 20  1  0  0  0  0
  1 21  1  0  0  0  0
  2  3  1  0  0  0  0
  3 18  1  0  0  0  0
  3  4  2  0  0  0  0
  4  5  1  0  0  0  0
  4 22  1  0  0  0  0
  5  6  1  0  0  0  0
  5 16  2  0  0  0  0
  6  7  1  0  0  0  0
  6 23  1  0  0  0  0
  7  8  2  0  0  0  0
  7  9  1  0  0  0  0
  9 10  1  0  0  0  0
  9 24  1  0  0  0  0
 10 11  1  0  0  0  0
 10 12  1  0  0  0  0
 10 25  1  0  0  0  0
 11 26  1  0  0  0  0
 11 27  1  0  0  0  0
 11 28  1  0  0  0  0
 12 13  1  0  0  0  0
 12 29  1  0  0  0  0
 12 30  1  0  0  0  0
 13 15  1  0  0  0  0
 13 14  1  0  0  0  0
 13 31  1  0  0  0  0
 14 15  1  0  0  0  0
 14 32  1  0  0  0  0
 14 33  1  0  0  0  0
 15 34  1  0  0  0  0
 15 35  1  0  0  0  0
 16 17  1  0  0  0  0
 17 18  2  0  0  0  0
 17 36  1  0  0  0  0
M  END
> <s_m_source_file>
AV-unprocessed.smi

> <i_m_source_file_index>
2406

> <i_lp_mmshare_version>
43012

> <i_f3d_flags>
0

> <s_epik_input>
W0NIM11PYzFbY0hdYyhuW2NIXW4xKVtOSF1DKD1PKVtOSF1bQ0BIXShbQ0gzXSlbQ0gyXVtDSF0yW0NIMl1bQ0gyXTI=

> <s_epik_cmdline>
J2VwaWtfcHl0aG9uJywgJy1waCcsICc3LjAnLCAnLXRuJywgJzgnLCAnLW1hJywgJzIwMCcsICctbWV0YWxfYmluZGluZycsICctaW1hZScsICc8aW5maWxlLm1hZT4nLCAnLW9tYWUnLCAnPG91dGZpbGUubWFlPic=

> <r_lp_tautomer_probability>
1

> <r_epik_Ionization_Penalty>
2.82876e-05

> <r_epik_Ionization_Penalty_Charging>
0

> <r_epik_Ionization_Penalty_Neutral>
2.82876e-05

> <r_epik_State_Penalty>
-0

> <r_epik_Charging_Adjusted_Penalty>
0

> <i_epik_Tot_Q>
0

> <i_epik_Tot_abs_Q>
0

> <r_epik_Metal_State_Penalty>
-0

> <b_epik_Metal_Only>
0

> <s_lp_Force_Field>
OPLS_2005

> <r_lp_Energy>
10.7025

> <b_lp_Chiralities_Consistent>
1

> <s_lp_Variant>
AV-unprocessed.smi:2406-2

> <Gold.Version>
5.8.1

> <Gold.Id.Protein>
6NUR|6NUR_protein|mol2

> <Gold.PLP.Fitness>
37.7651

> <Gold.PLP.PLP>
-28.2084

> <Gold.PLP.part.hbond>
-4.0000

> <Gold.PLP.part.metal>
0.0000

> <Gold.PLP.part.buried>
-4.2281

> <Gold.PLP.part.nonpolar>
-20.5084

> <Gold.PLP.part.repulsive>
0.0757

> <Gold.PLP.ligand.clash>
0.0000

> <Gold.PLP.ligand.torsion>
0.6299

> <Gold.PLP.Chemscore.Hbond>
3.4001

> <Gold.PLP.Chemscore.CHOScore>
0.0000

> <Gold.PLP.Chemscore.Metal>
0.0000

> <Gold.Chemscore.Hbonds>
donor molecule, donor type, donor heavy atom, donor atom, acceptor molecule, acceptor atom, score
      L1  H     6    23       P1  7948  1.00
      L1  H     9    24       P1  7948  0.98
      P1  H 10752 10764       L1     2  0.31

> <Gold.PLP.Chemscore.Internal.Correction>
0.6161

> <Gold.Rescore>
     Score         DG    S(hbond)    S(metal)    S(lipo)     H(rot)  DE(clash)    DE(int)     intcor
     16.25     -18.31       3.11        0.00      61.35       1.85       0.03       2.03       ----

> <Gold.Chemscore.Fitness>
16.2526

> <Gold.Chemscore.DG>
-18.3094

> <Gold.Chemscore.ZeroCoef>
-5.4800

> <Gold.Chemscore.Hbond>
3.1070

> <Gold.Chemscore.Metal>
0.0000

> <Gold.Chemscore.Lipo>
61.3459

> <Gold.Chemscore.Internal_Hbond>
0.0000

> <Gold.Chemscore.DEClash>
0.0260

> <Gold.Chemscore.DEInternal>
2.0308

> <Gold.Chemscore.Rot>
1.8458

> <Gold.Chemscore.Internal.Correction>
   9.000000E+99

> <Gold.Chemscore.Hbonds>
donor molecule, donor type, donor heavy atom, donor atom, acceptor molecule, acceptor atom, score
      L1  H     6    23       P1  7948  0.81
      L1  H     9    24       P1  7948  0.88
      P1  H 10752 10764       L1     2  0.17

> <Gold.Chemscore.Hbond.Weighted>
-10.3773

> <Gold.Chemscore.Metal.Weighted>
-0.0000

> <Gold.Chemscore.Lipo.Weighted>
-7.1775

> <Gold.Chemscore.Internal_Hbond.Weighted>
0.0000

> <Gold.Chemscore.DEClash.Weighted>
0.0260

> <Gold.Chemscore.DEInternal.Weighted>
2.0308

> <Gold.Chemscore.Rot.Weighted>
4.7254

> <Gold.Chemscore.Internal.Correction.Weighted>
   9.000000E+99

> <Gold.Protein.RotatedTorsions>
[ 6907 6896 6895 6894 ] final   51.75 input  -60.11 | X-H torsion
[ 7974 7965 7964 7962 ] final  152.38 input  175.53 | X-H torsion
[ 8008 7997 7996 7995 ] final  -55.32 input   59.86 | X-H torsion
[ 10167 10162 10161 10158 ] final -167.06 input  -65.29 | X-H torsion
[ 10718 10713 10712 10709 ] final  135.79 input   66.30 | X-H torsion
[ 10763 10752 10751 10750 ] final   -0.40 input  -60.55 | X-H torsion
[ 11005 11000 10999 10996 ] final   22.77 input  -57.11 | X-H torsion

> <Gold.Protein.ActiveResidues>
 VAL166  LYS551  ARG553  GLY616  TRP617  ASP618  TYR619  PRO620  LYS621  CYS622 
 ASP623  PHE694  ASN695  SER759  ASP760  ASP761  ALA762  ILE779  LEU786  VAL792 
 PHE793  MET794  SER795  GLU796  ALA797  LYS798  CYS799  TRP800  GLU811  SER814 

> <Gold.Protein.RotatedAtoms>
  152.3159  134.7440  160.0325 H   0  0  0  0  0  0  0  0  0  0  0  0  # atno 6907 bound_to 6896
  151.7905  133.3353  159.3505 H   0  0  0  0  0  0  0  0  0  0  0  0  # atno 6908 bound_to 6896
  150.7344  134.5778  159.5967 H   0  0  0  0  0  0  0  0  0  0  0  0  # atno 6909 bound_to 6896
  144.8227  139.6660  143.6093 H   0  0  0  0  0  0  0  0  0  0  0  0  # atno 7974 bound_to 7965
  154.4191  140.1156  156.5457 H   0  0  0  0  0  0  0  0  0  0  0  0  # atno 8008 bound_to 7997
  155.6462  140.3496  155.4713 H   0  0  0  0  0  0  0  0  0  0  0  0  # atno 8009 bound_to 7997
  155.9830  140.1164  157.0698 H   0  0  0  0  0  0  0  0  0  0  0  0  # atno 8010 bound_to 7997
  139.6074  144.0885  152.1807 H   0  0  0  0  0  0  0  0  0  0  0  0  # atno 10167 bound_to 10162
  157.4534  131.1068  151.0006 H   0  0  0  0  0  0  0  0  0  0  0  0  # atno 10718 bound_to 10713
  153.3314  135.6975  153.6945 H   0  0  0  0  0  0  0  0  0  0  0  0  # atno 10763 bound_to 10752
  153.5746  135.3510  155.2851 H   0  0  0  0  0  0  0  0  0  0  0  0  # atno 10764 bound_to 10752
  154.8619  135.4280  154.2504 H   0  0  0  0  0  0  0  0  0  0  0  0  # atno 10765 bound_to 10752
  140.3769  134.1962  155.7664 H   0  0  0  0  0  0  0  0  0  0  0  0  # atno 11005 bound_to 11000
  146.2532  139.6245  142.9413 LP  0  0  0  0  0  0  0  0  0  0  0  0  # atno 17320 bound_to 7965
  145.5070  141.0436  143.2509 LP  0  0  0  0  0  0  0  0  0  0  0  0  # atno 17321 bound_to 7965
  140.0495  144.5944  150.7347 LP  0  0  0  0  0  0  0  0  0  0  0  0  # atno 17342 bound_to 10162
  140.7295  143.2673  151.4004 LP  0  0  0  0  0  0  0  0  0  0  0  0  # atno 17343 bound_to 10162
  157.0828  130.5910  149.5424 LP  0  0  0  0  0  0  0  0  0  0  0  0  # atno 17370 bound_to 10713
  155.9997  130.5073  150.7616 LP  0  0  0  0  0  0  0  0  0  0  0  0  # atno 17371 bound_to 10713
  141.1936  133.8147  157.0791 LP  0  0  0  0  0  0  0  0  0  0  0  0  # atno 17394 bound_to 11000
  140.0508  134.9806  157.1133 LP  0  0  0  0  0  0  0  0  0  0  0  0  # atno 17395 bound_to 11000

$$$$
