AV-unprocessed.smi:1154|AV-procd|sdf|4903|dock7
  -GOLD-   22720 3483D 1   1.00000     0.00000
 Structure written by MMmdl.
 42 43  0  0  0  0  0  0  0  0  2 V2000
  145.2628  132.8294  150.0964 C   0  0  0  0  0  0  0  0  0  0  0  0
  145.9008  133.6548  151.2229 C   0  0  1  0  0  0  0  0  0  0  0  0
  144.8718  134.0034  152.3137 C   0  0  0  0  0  0  0  0  0  0  0  0
  145.5164  134.7752  153.4798 C   0  0  2  0  0  0  0  0  0  0  0  0
  145.8409  136.2369  153.1244 C   0  0  0  0  0  0  0  0  0  0  0  0
  146.7483  134.0175  154.0136 C   0  0  0  0  0  0  0  0  0  0  0  0
  147.7250  133.7258  152.9320 N   0  3  1  0  0  0  0  0  0  0  0  0
  148.9829  133.1343  153.4539 C   0  0  0  0  0  0  0  0  0  0  0  0
  149.4371  133.7937  154.7663 C   0  0  0  0  0  0  0  0  0  0  0  0
  149.6407  135.2226  154.5750 N   0  0  0  0  0  0  0  0  0  0  0  0
  150.5855  135.9435  155.1982 C   0  0  0  0  0  0  0  0  0  0  0  0
  151.3607  135.4640  156.0244 O   0  0  0  0  0  0  0  0  0  0  0  0
  150.6670  137.4324  154.8491 C   0  0  0  0  0  0  0  0  0  0  0  0
  151.9982  137.9671  155.0737 N   0  0  0  0  0  0  0  0  0  0  0  0
  152.4127  139.0118  155.7931 C   0  0  0  0  0  0  0  0  0  0  0  0
  153.7255  139.1674  155.7180 N   0  0  0  0  0  0  0  0  0  0  0  0
  154.1189  138.1271  154.8928 N   0  0  0  0  0  0  0  0  0  0  0  0
  153.0984  137.4108  154.5080 N   0  0  0  0  0  0  0  0  0  0  0  0
  147.1085  132.9245  151.8413 C   0  0  0  0  0  0  0  0  0  0  0  0
  144.8800  131.8783  150.4679 H   0  0  0  0  0  0  0  0  0  0  0  0
  145.9861  132.6129  149.3097 H   0  0  0  0  0  0  0  0  0  0  0  0
  144.4316  133.3670  149.6391 H   0  0  0  0  0  0  0  0  0  0  0  0
  146.2594  134.5832  150.7772 H   0  0  0  0  0  0  0  0  0  0  0  0
  144.0480  134.5794  151.8898 H   0  0  0  0  0  0  0  0  0  0  0  0
  144.4313  133.0824  152.6988 H   0  0  0  0  0  0  0  0  0  0  0  0
  144.7826  134.8135  154.2861 H   0  0  0  0  0  0  0  0  0  0  0  0
  146.5981  136.3097  152.3438 H   0  0  0  0  0  0  0  0  0  0  0  0
  146.2153  136.7759  153.9952 H   0  0  0  0  0  0  0  0  0  0  0  0
  144.9517  136.7618  152.7740 H   0  0  0  0  0  0  0  0  0  0  0  0
  147.2229  134.6071  154.7992 H   0  0  0  0  0  0  0  0  0  0  0  0
  146.4369  133.0784  154.4743 H   0  0  0  0  0  0  0  0  0  0  0  0
  148.8265  132.0725  153.6503 H   0  0  0  0  0  0  0  0  0  0  0  0
  149.7642  133.1949  152.6945 H   0  0  0  0  0  0  0  0  0  0  0  0
  148.6988  133.6554  155.5560 H   0  0  0  0  0  0  0  0  0  0  0  0
  150.3661  133.3336  155.1079 H   0  0  0  0  0  0  0  0  0  0  0  0
  149.0381  135.6918  153.9145 H   0  0  0  0  0  0  0  0  0  0  0  0
  150.3981  137.5772  153.8022 H   0  0  0  0  0  0  0  0  0  0  0  0
  149.9533  138.0004  155.4479 H   0  0  0  0  0  0  0  0  0  0  0  0
  151.7583  139.6574  156.3599 H   0  0  0  0  0  0  0  0  0  0  0  0
  146.8037  131.9525  152.2330 H   0  0  0  0  0  0  0  0  0  0  0  0
  147.8410  132.7306  151.0586 H   0  0  0  0  0  0  0  0  0  0  0  0
  147.9755  134.6205  152.5355 H   0  0  0  0  0  0  0  0  0  0  0  0
  1  2  1  0  0  0  0
  1 20  1  0  0  0  0
  1 21  1  0  0  0  0
  1 22  1  0  0  0  0
  2 19  1  0  0  0  0
  2  3  1  0  0  0  0
  2 23  1  0  0  0  0
  3  4  1  0  0  0  0
  3 24  1  0  0  0  0
  3 25  1  0  0  0  0
  4  5  1  0  0  0  0
  4  6  1  0  0  0  0
  4 26  1  0  0  0  0
  5 27  1  0  0  0  0
  5 28  1  0  0  0  0
  5 29  1  0  0  0  0
  6  7  1  0  0  0  0
  6 30  1  0  0  0  0
  6 31  1  0  0  0  0
  7  8  1  0  0  0  0
  7 19  1  0  0  0  0
  7 42  1  0  0  0  0
  8  9  1  0  0  0  0
  8 32  1  0  0  0  0
  8 33  1  0  0  0  0
  9 10  1  0  0  0  0
  9 34  1  0  0  0  0
  9 35  1  0  0  0  0
 10 11  1  0  0  0  0
 10 36  1  0  0  0  0
 11 12  2  0  0  0  0
 11 13  1  0  0  0  0
 13 14  1  0  0  0  0
 13 37  1  0  0  0  0
 13 38  1  0  0  0  0
 14 18  1  0  0  0  0
 14 15  1  0  0  0  0
 15 16  2  0  0  0  0
 15 39  1  0  0  0  0
 16 17  1  0  0  0  0
 17 18  2  0  0  0  0
 19 40  1  0  0  0  0
 19 41  1  0  0  0  0
M  CHG  1   7   1
M  END
> <s_m_source_file>
AV-unprocessed.smi

> <i_m_source_file_index>
1154

> <i_lp_mmshare_version>
43012

> <i_f3d_flags>
0

> <s_epik_input>
W0NIM11bQ0BASF0xW0NIMl1bQ0BASF0oW0NIM10pW0NIMl1OKFtDSDJdMSlbQ0gyXVtDSDJdW05IXUMoPU8pW0NIMl1uMltjSF1ubm4y

> <s_epik_cmdline>
J2VwaWtfcHl0aG9uJywgJy1waCcsICc3LjAnLCAnLXRuJywgJzgnLCAnLW1hJywgJzIwMCcsICctbWV0YWxfYmluZGluZycsICctaW1hZScsICc8aW5maWxlLm1hZT4nLCAnLW9tYWUnLCAnPG91dGZpbGUubWFlPic=

> <r_lp_tautomer_probability>
1

> <r_epik_Ionization_Penalty>
0.00217773

> <r_epik_Ionization_Penalty_Charging>
0.00217329

> <r_epik_Ionization_Penalty_Neutral>
4.43997e-06

> <r_epik_State_Penalty>
0.00149294

> <r_epik_Charging_Adjusted_Penalty>
0.00366623

> <i_epik_Tot_Q>
1

> <i_epik_Tot_abs_Q>
1

> <r_epik_Metal_State_Penalty>
-0

> <b_epik_Metal_Only>
0

> <s_lp_Force_Field>
OPLS_2005

> <r_lp_Energy>
22.3383

> <b_lp_Chiralities_Consistent>
1

> <s_lp_Variant>
AV-unprocessed.smi:1154-4

> <Gold.Version>
5.8.1

> <Gold.Id.Protein>
6NUR|6NUR_protein|mol2

> <Gold.PLP.Fitness>
45.7987

> <Gold.PLP.PLP>
-33.4682

> <Gold.PLP.part.hbond>
-5.4516

> <Gold.PLP.part.metal>
0.0000

> <Gold.PLP.part.buried>
-3.6810

> <Gold.PLP.part.nonpolar>
-24.6319

> <Gold.PLP.part.repulsive>
0.2053

> <Gold.PLP.ligand.clash>
0.0000

> <Gold.PLP.ligand.torsion>
0.6980

> <Gold.PLP.Chemscore.Hbond>
4.5654

> <Gold.PLP.Chemscore.CHOScore>
0.0000

> <Gold.PLP.Chemscore.Metal>
0.0000

> <Gold.Chemscore.Hbonds>
donor molecule, donor type, donor heavy atom, donor atom, acceptor molecule, acceptor atom, score
      L1  H     7    42       P1  7948  2.00
      L1  H    10    36       P1  7948  0.65
      P1  H  7997  8009       L1    16  0.32
      P1  H 10752 10763       L1    12  0.98

> <Gold.PLP.Chemscore.Internal.Correction>
0.0302

> <Gold.Rescore>
     Score         DG    S(hbond)    S(metal)    S(lipo)     H(rot)  DE(clash)    DE(int)     intcor
     13.26     -15.26       3.24        0.00      49.47       2.67       0.14       1.86       ----

> <Gold.Chemscore.Fitness>
13.2572

> <Gold.Chemscore.DG>
-15.2573

> <Gold.Chemscore.ZeroCoef>
-5.4800

> <Gold.Chemscore.Hbond>
3.2388

> <Gold.Chemscore.Metal>
0.0000

> <Gold.Chemscore.Lipo>
49.4717

> <Gold.Chemscore.Internal_Hbond>
0.0000

> <Gold.Chemscore.DEClash>
0.1363

> <Gold.Chemscore.DEInternal>
1.8638

> <Gold.Chemscore.Rot>
2.6674

> <Gold.Chemscore.Internal.Correction>
   9.000000E+99

> <Gold.Chemscore.Hbonds>
donor molecule, donor type, donor heavy atom, donor atom, acceptor molecule, acceptor atom, score
      L1  H     7    42       P1  7948  0.59
      L1  H    10    36       P1  7948  0.55
      P1  H  7997  8009       L1    16  0.19
      P1  H 10752 10763       L1    12  0.45
      P1  H 10752 10765       L1    18  0.01

> <Gold.Chemscore.Hbond.Weighted>
-10.8177

> <Gold.Chemscore.Metal.Weighted>
-0.0000

> <Gold.Chemscore.Lipo.Weighted>
-5.7882

> <Gold.Chemscore.Internal_Hbond.Weighted>
0.0000

> <Gold.Chemscore.DEClash.Weighted>
0.1363

> <Gold.Chemscore.DEInternal.Weighted>
1.8638

> <Gold.Chemscore.Rot.Weighted>
6.8286

> <Gold.Chemscore.Internal.Correction.Weighted>
   9.000000E+99

> <Gold.Protein.RotatedTorsions>
[ 6907 6896 6895 6894 ] final   95.40 input  -60.11 | X-H torsion
[ 7974 7965 7964 7962 ] final -108.72 input  175.53 | X-H torsion
[ 8008 7997 7996 7995 ] final -108.95 input   59.86 | X-H torsion
[ 10167 10162 10161 10158 ] final  -74.84 input  -65.29 | X-H torsion
[ 10718 10713 10712 10709 ] final  174.52 input   66.30 | X-H torsion
[ 10763 10752 10751 10750 ] final   94.23 input  -60.55 | X-H torsion
[ 11005 11000 10999 10996 ] final   -9.36 input  -57.11 | X-H torsion

> <Gold.Protein.ActiveResidues>
 VAL166  LYS551  ARG553  GLY616  TRP617  ASP618  TYR619  PRO620  LYS621  CYS622 
 ASP623  PHE694  ASN695  SER759  ASP760  ASP761  ALA762  ILE779  LEU786  VAL792 
 PHE793  MET794  SER795  GLU796  ALA797  LYS798  CYS799  TRP800  GLU811  SER814 

> <Gold.Protein.RotatedAtoms>
  152.5444  134.1046  159.8331 H   0  0  0  0  0  0  0  0  0  0  0  0  # atno 6907 bound_to 6896
  151.1119  133.5159  159.2612 H   0  0  0  0  0  0  0  0  0  0  0  0  # atno 6908 bound_to 6896
  151.1874  135.0397  159.8873 H   0  0  0  0  0  0  0  0  0  0  0  0  # atno 6909 bound_to 6896
  145.1894  140.9007  143.3433 H   0  0  0  0  0  0  0  0  0  0  0  0  # atno 7974 bound_to 7965
  154.9521  140.0400  157.2149 H   0  0  0  0  0  0  0  0  0  0  0  0  # atno 8008 bound_to 7997
  154.7969  140.2845  155.5928 H   0  0  0  0  0  0  0  0  0  0  0  0  # atno 8009 bound_to 7997
  156.2957  140.2562  156.2829 H   0  0  0  0  0  0  0  0  0  0  0  0  # atno 8010 bound_to 7997
  140.4993  143.2364  151.7779 H   0  0  0  0  0  0  0  0  0  0  0  0  # atno 10167 bound_to 10162
  156.9483  131.0023  151.2954 H   0  0  0  0  0  0  0  0  0  0  0  0  # atno 10718 bound_to 10713
  153.2393  135.4297  155.0681 H   0  0  0  0  0  0  0  0  0  0  0  0  # atno 10763 bound_to 10752
  154.8333  135.3399  154.6672 H   0  0  0  0  0  0  0  0  0  0  0  0  # atno 10764 bound_to 10752
  153.7096  135.7023  153.5097 H   0  0  0  0  0  0  0  0  0  0  0  0  # atno 10765 bound_to 10752
  140.7333  133.8730  155.8910 H   0  0  0  0  0  0  0  0  0  0  0  0  # atno 11005 bound_to 11000
  145.0057  139.3557  143.6145 LP  0  0  0  0  0  0  0  0  0  0  0  0  # atno 17320 bound_to 7965
  146.3439  139.9298  142.8755 LP  0  0  0  0  0  0  0  0  0  0  0  0  # atno 17321 bound_to 7965
  139.4868  144.4544  151.9616 LP  0  0  0  0  0  0  0  0  0  0  0  0  # atno 17342 bound_to 10162
  140.3632  144.2947  150.5930 LP  0  0  0  0  0  0  0  0  0  0  0  0  # atno 17343 bound_to 10162
  157.5739  130.8329  149.8429 LP  0  0  0  0  0  0  0  0  0  0  0  0  # atno 17370 bound_to 10713
  156.0374  130.3748  150.1525 LP  0  0  0  0  0  0  0  0  0  0  0  0  # atno 17371 bound_to 10713
  140.9901  134.1290  157.4416 LP  0  0  0  0  0  0  0  0  0  0  0  0  # atno 17394 bound_to 11000
  139.8821  135.0038  156.6208 LP  0  0  0  0  0  0  0  0  0  0  0  0  # atno 17395 bound_to 11000

$$$$
