AV-unprocessed.smi:610|AV-procd|sdf|3060|dock2
  -GOLD-   2262023583D 1   1.00000     0.00000
 Structure written by MMmdl.
 37 38  0  0  0  0  0  0  0  0  1 V2000
  151.5170  140.2942  158.0875 C   0  0  0  0  0  0  0  0  0  0  0  0
  150.4501  141.2412  157.5159 C   0  0  1  0  0  0  0  0  0  0  0  0
  151.0670  142.5783  157.0635 C   0  0  0  0  0  0  0  0  0  0  0  0
  151.2693  143.4932  158.1720 N   0  0  0  0  0  0  0  0  0  0  0  0
  150.7783  144.7866  158.2911 C   0  0  0  0  0  0  0  0  0  0  0  0
  151.2289  145.2681  159.4994 C   0  0  0  0  0  0  0  0  0  0  0  0
  151.9915  144.2930  160.1380 N   0  0  0  0  0  0  0  0  0  0  0  0
  151.9685  143.2701  159.2935 C   0  0  0  0  0  0  0  0  0  0  0  0
  149.7612  140.6065  156.3947 N   0  0  0  0  0  0  0  0  0  0  0  0
  150.3396  140.1547  155.2684 C   0  0  0  0  0  0  0  0  0  0  0  0
  151.5448  140.2862  155.0500 O   0  0  0  0  0  0  0  0  0  0  0  0
  149.4373  139.4528  154.2219 C   0  0  0  0  0  0  0  0  0  0  0  0
  150.2023  139.0008  153.0664 N   0  0  0  0  0  0  0  0  0  0  0  0
  148.6961  138.2436  154.8521 C   0  0  0  0  0  0  0  0  0  0  0  0
  147.1933  138.5124  154.7090 C   0  0  0  0  0  0  0  0  0  0  0  0
  147.0728  140.0224  154.5369 C   0  0  0  0  0  0  0  0  0  0  0  0
  148.3125  140.3938  153.7245 C   0  0  0  0  0  0  0  0  0  0  0  0
  152.0280  140.7491  158.9363 H   0  0  0  0  0  0  0  0  0  0  0  0
  152.2702  140.0461  157.3389 H   0  0  0  0  0  0  0  0  0  0  0  0
  151.0729  139.3612  158.4361 H   0  0  0  0  0  0  0  0  0  0  0  0
  149.7258  141.4531  158.3048 H   0  0  0  0  0  0  0  0  0  0  0  0
  152.0344  142.4060  156.5903 H   0  0  0  0  0  0  0  0  0  0  0  0
  150.4348  143.0617  156.3169 H   0  0  0  0  0  0  0  0  0  0  0  0
  150.1700  145.2455  157.5257 H   0  0  0  0  0  0  0  0  0  0  0  0
  151.0643  146.2335  159.9548 H   0  0  0  0  0  0  0  0  0  0  0  0
  152.4773  142.3384  159.4936 H   0  0  0  0  0  0  0  0  0  0  0  0
  148.7652  140.4682  156.4894 H   0  0  0  0  0  0  0  0  0  0  0  0
  149.8068  138.1361  152.7262 H   0  0  0  0  0  0  0  0  0  0  0  0
  150.0969  139.6716  152.3187 H   0  0  0  0  0  0  0  0  0  0  0  0
  148.9602  137.2928  154.3860 H   0  0  0  0  0  0  0  0  0  0  0  0
  148.9385  138.1362  155.9111 H   0  0  0  0  0  0  0  0  0  0  0  0
  146.8186  138.0152  153.8132 H   0  0  0  0  0  0  0  0  0  0  0  0
  146.6187  138.1408  155.5580 H   0  0  0  0  0  0  0  0  0  0  0  0
  146.1449  140.3173  154.0463 H   0  0  0  0  0  0  0  0  0  0  0  0
  147.1051  140.5105  155.5118 H   0  0  0  0  0  0  0  0  0  0  0  0
  148.5556  141.4530  153.8245 H   0  0  0  0  0  0  0  0  0  0  0  0
  148.0994  140.2239  152.6675 H   0  0  0  0  0  0  0  0  0  0  0  0
  1  2  1  0  0  0  0
  1 18  1  0  0  0  0
  1 19  1  0  0  0  0
  1 20  1  0  0  0  0
  2  3  1  0  0  0  0
  2  9  1  0  0  0  0
  2 21  1  0  0  0  0
  3  4  1  0  0  0  0
  3 22  1  0  0  0  0
  3 23  1  0  0  0  0
  4  8  1  0  0  0  0
  4  5  1  0  0  0  0
  5  6  2  0  0  0  0
  5 24  1  0  0  0  0
  6  7  1  0  0  0  0
  6 25  1  0  0  0  0
  7  8  2  0  0  0  0
  8 26  1  0  0  0  0
  9 10  1  0  0  0  0
  9 27  1  0  0  0  0
 10 11  2  0  0  0  0
 10 12  1  0  0  0  0
 12 17  1  0  0  0  0
 12 13  1  0  0  0  0
 12 14  1  0  0  0  0
 13 28  1  0  0  0  0
 13 29  1  0  0  0  0
 14 15  1  0  0  0  0
 14 30  1  0  0  0  0
 14 31  1  0  0  0  0
 15 16  1  0  0  0  0
 15 32  1  0  0  0  0
 15 33  1  0  0  0  0
 16 17  1  0  0  0  0
 16 34  1  0  0  0  0
 16 35  1  0  0  0  0
 17 36  1  0  0  0  0
 17 37  1  0  0  0  0
M  END
> <s_m_source_file>
AV-unprocessed.smi

> <i_m_source_file_index>
610

> <i_lp_mmshare_version>
43012

> <i_f3d_flags>
0

> <s_epik_input>
W2NIXTFuW2NIXVtjSF1uMVtDSDJdW0NAQEhdKFtDSDNdKVtOSF1DKD1PKUMyKFtOSDJdKVtDSDJdW0NIMl1bQ0gyXVtDSDJdMg==

> <s_epik_cmdline>
J2VwaWtfcHl0aG9uJywgJy1waCcsICc3LjAnLCAnLXRuJywgJzgnLCAnLW1hJywgJzIwMCcsICctbWV0YWxfYmluZGluZycsICctaW1hZScsICc8aW5maWxlLm1hZT4nLCAnLW9tYWUnLCAnPG91dGZpbGUubWFlPic=

> <r_lp_tautomer_probability>
1

> <r_epik_Ionization_Penalty>
1.91974

> <r_epik_Ionization_Penalty_Charging>
0.644069

> <r_epik_Ionization_Penalty_Neutral>
1.27567

> <r_epik_State_Penalty>
1.9806

> <r_epik_Charging_Adjusted_Penalty>
2.62467

> <i_epik_Tot_Q>
0

> <i_epik_Tot_abs_Q>
0

> <r_epik_Metal_State_Penalty>
1.61835

> <b_epik_Metal_Only>
0

> <s_lp_Force_Field>
OPLS_2005

> <r_lp_Energy>
21.6521

> <b_lp_Chiralities_Consistent>
1

> <s_lp_Variant>
AV-unprocessed.smi:610-8

> <Gold.Version>
5.8.1

> <Gold.Id.Protein>
6NUR|6NUR_protein|mol2

> <Gold.PLP.Fitness>
43.7383

> <Gold.PLP.PLP>
-32.2434

> <Gold.PLP.part.hbond>
-2.9646

> <Gold.PLP.part.metal>
0.0000

> <Gold.PLP.part.buried>
-4.5283

> <Gold.PLP.part.nonpolar>
-24.9899

> <Gold.PLP.part.repulsive>
0.0803

> <Gold.PLP.ligand.clash>
0.0000

> <Gold.PLP.ligand.torsion>
0.2717

> <Gold.PLP.Chemscore.Hbond>
2.9913

> <Gold.PLP.Chemscore.CHOScore>
1.0000

> <Gold.PLP.Chemscore.Metal>
0.0000

> <Gold.Chemscore.Hbonds>
donor molecule, donor type, donor heavy atom, donor atom, acceptor molecule, acceptor atom, score
      L1  H    13    28       P1  7948  0.55
      L1  H    13    29       P1  7957  0.42
      P1  H  7989  7998       L1    11  0.98
      L1  C     5    24       P1  8028  0.42
      L1  C     5    24       P1  8029  0.21

> <Gold.PLP.Chemscore.Internal.Correction>
0.0646

> <Gold.Rescore>
     Score         DG    S(hbond)    S(metal)    S(lipo)     H(rot)  DE(clash)    DE(int)     intcor
     15.90     -17.04       2.85        0.00      60.14       1.95       0.02       1.12       ----

> <Gold.Chemscore.Fitness>
15.9025

> <Gold.Chemscore.DG>
-17.0403

> <Gold.Chemscore.ZeroCoef>
-5.4800

> <Gold.Chemscore.Hbond>
2.8475

> <Gold.Chemscore.Metal>
0.0000

> <Gold.Chemscore.Lipo>
60.1414

> <Gold.Chemscore.Internal_Hbond>
0.0000

> <Gold.Chemscore.DEClash>
0.0174

> <Gold.Chemscore.DEInternal>
1.1203

> <Gold.Chemscore.Rot>
1.9480

> <Gold.Chemscore.Internal.Correction>
   9.000000E+99

> <Gold.Chemscore.Hbonds>
donor molecule, donor type, donor heavy atom, donor atom, acceptor molecule, acceptor atom, score
      L1  H    13    28       P1  7948  0.25
      L1  H    13    29       P1  7957  0.36
      P1  H  7989  7998       L1    11  0.51

> <Gold.Chemscore.Hbond.Weighted>
-9.5106

> <Gold.Chemscore.Metal.Weighted>
-0.0000

> <Gold.Chemscore.Lipo.Weighted>
-7.0365

> <Gold.Chemscore.Internal_Hbond.Weighted>
0.0000

> <Gold.Chemscore.DEClash.Weighted>
0.0174

> <Gold.Chemscore.DEInternal.Weighted>
1.1203

> <Gold.Chemscore.Rot.Weighted>
4.9869

> <Gold.Chemscore.Internal.Correction.Weighted>
   9.000000E+99

> <Gold.Protein.RotatedTorsions>
[ 6907 6896 6895 6894 ] final -139.52 input  -60.11 | X-H torsion
[ 7974 7965 7964 7962 ] final   72.85 input  175.53 | X-H torsion
[ 8008 7997 7996 7995 ] final  -44.75 input   59.86 | X-H torsion
[ 10167 10162 10161 10158 ] final  156.23 input  -65.29 | X-H torsion
[ 10718 10713 10712 10709 ] final  -91.87 input   66.30 | X-H torsion
[ 10763 10752 10751 10750 ] final  -29.14 input  -60.55 | X-H torsion
[ 11005 11000 10999 10996 ] final   29.89 input  -57.11 | X-H torsion

> <Gold.Protein.ActiveResidues>
 VAL166  LYS551  ARG553  GLY616  TRP617  ASP618  TYR619  PRO620  LYS621  CYS622 
 ASP623  PHE694  ASN695  SER759  ASP760  ASP761  ALA762  ILE779  LEU786  VAL792 
 PHE793  MET794  SER795  GLU796  ALA797  LYS798  CYS799  TRP800  GLU811  SER814 

> <Gold.Protein.RotatedAtoms>
  151.0488  133.5642  159.2643 H   0  0  0  0  0  0  0  0  0  0  0  0  # atno 6907 bound_to 6896
  151.2660  135.0669  159.9126 H   0  0  0  0  0  0  0  0  0  0  0  0  # atno 6908 bound_to 6896
  152.5378  134.0226  159.8042 H   0  0  0  0  0  0  0  0  0  0  0  0  # atno 6909 bound_to 6896
  145.7482  139.2749  143.1447 H   0  0  0  0  0  0  0  0  0  0  0  0  # atno 7974 bound_to 7965
  154.3998  140.1414  156.3735 H   0  0  0  0  0  0  0  0  0  0  0  0  # atno 8008 bound_to 7997
  155.8071  140.3474  155.5415 H   0  0  0  0  0  0  0  0  0  0  0  0  # atno 8009 bound_to 7997
  155.8425  140.0929  157.1716 H   0  0  0  0  0  0  0  0  0  0  0  0  # atno 8010 bound_to 7997
  139.4821  144.5027  151.8144 H   0  0  0  0  0  0  0  0  0  0  0  0  # atno 10167 bound_to 10162
  155.9997  130.4965  150.5539 H   0  0  0  0  0  0  0  0  0  0  0  0  # atno 10718 bound_to 10713
  153.7598  135.6920  153.4928 H   0  0  0  0  0  0  0  0  0  0  0  0  # atno 10763 bound_to 10752
  153.1946  135.4458  155.0191 H   0  0  0  0  0  0  0  0  0  0  0  0  # atno 10764 bound_to 10752
  154.8157  135.3398  154.7113 H   0  0  0  0  0  0  0  0  0  0  0  0  # atno 10765 bound_to 10752
  140.3002  134.2765  155.7755 H   0  0  0  0  0  0  0  0  0  0  0  0  # atno 11005 bound_to 11000
  146.0382  140.8191  142.9842 LP  0  0  0  0  0  0  0  0  0  0  0  0  # atno 17320 bound_to 7965
  144.6855  140.2871  143.7283 LP  0  0  0  0  0  0  0  0  0  0  0  0  # atno 17321 bound_to 7965
  140.4522  144.1839  150.5898 LP  0  0  0  0  0  0  0  0  0  0  0  0  # atno 17342 bound_to 10162
  140.4573  143.2463  151.9268 LP  0  0  0  0  0  0  0  0  0  0  0  0  # atno 17343 bound_to 10162
  157.3458  131.0725  151.1752 LP  0  0  0  0  0  0  0  0  0  0  0  0  # atno 17370 bound_to 10713
  157.2585  130.6647  149.5963 LP  0  0  0  0  0  0  0  0  0  0  0  0  # atno 17371 bound_to 10713
  141.2129  133.7641  156.9755 LP  0  0  0  0  0  0  0  0  0  0  0  0  # atno 17394 bound_to 11000
  140.1116  134.9473  157.2074 LP  0  0  0  0  0  0  0  0  0  0  0  0  # atno 17395 bound_to 11000

$$$$
