AV-unprocessed.smi:1824|AV-procd|sdf|7410|dock2
  -GOLD-   22720 9 83D 1   1.00000     0.00000
 Structure written by MMmdl.
 45 47  0  0  0  0  0  0  0  0  2 V2000
  144.4259  144.4548  153.5789 C   0  0  0  0  0  0  0  0  0  0  0  0
  145.1953  143.4606  154.4552 C   0  0  2  0  0  0  0  0  0  0  0  0
  146.3398  142.7713  153.6881 C   0  0  0  0  0  0  0  0  0  0  0  0
  147.0204  141.7717  154.5033 N   0  0  0  0  0  0  0  0  0  0  0  0
  148.1132  141.1440  153.7593 C   0  0  0  0  0  0  0  0  0  0  0  0
  149.2167  140.5060  154.6253 C   0  0  1  0  0  0  0  0  0  0  0  0
  150.2863  140.1412  153.7773 O   0  0  0  0  0  0  0  0  0  0  0  0
  149.7421  141.4643  155.7133 C   0  0  0  0  0  0  0  0  0  0  0  0
  150.4642  140.7665  156.7841 N   0  0  0  0  0  0  0  0  0  0  0  0
  150.7671  139.4472  156.9245 C   0  0  0  0  0  0  0  0  0  0  0  0
  151.4516  139.3064  158.0938 N   0  3  0  0  0  0  0  0  0  0  0  0
  151.5914  140.5545  158.7063 C   0  0  0  0  0  0  0  0  0  0  0  0
  152.2058  140.9237  159.8985 C   0  0  0  0  0  0  0  0  0  0  0  0
  152.1707  142.2935  160.2341 C   0  0  0  0  0  0  0  0  0  0  0  0
  152.7545  142.7072  161.3836 F   0  0  0  0  0  0  0  0  0  0  0  0
  151.5409  143.2390  159.3966 C   0  0  0  0  0  0  0  0  0  0  0  0
  151.5309  144.5446  159.7555 F   0  0  0  0  0  0  0  0  0  0  0  0
  150.9204  142.8524  158.1904 C   0  0  0  0  0  0  0  0  0  0  0  0
  150.9605  141.4969  157.8682 C   0  0  0  0  0  0  0  0  0  0  0  0
  146.0348  140.8065  154.9847 C   0  0  0  0  0  0  0  0  0  0  0  0
  144.8895  141.4903  155.7555 C   0  0  2  0  0  0  0  0  0  0  0  0
  143.8118  140.4944  156.1961 C   0  0  0  0  0  0  0  0  0  0  0  0
  144.2821  142.4688  154.9169 O   0  0  0  0  0  0  0  0  0  0  0  0
  145.0829  145.2431  153.2103 H   0  0  0  0  0  0  0  0  0  0  0  0
  143.6218  144.9287  154.1422 H   0  0  0  0  0  0  0  0  0  0  0  0
  143.9808  143.9586  152.7159 H   0  0  0  0  0  0  0  0  0  0  0  0
  145.6020  143.9943  155.3159 H   0  0  0  0  0  0  0  0  0  0  0  0
  145.9419  142.3023  152.7867 H   0  0  0  0  0  0  0  0  0  0  0  0
  147.0549  143.5253  153.3568 H   0  0  0  0  0  0  0  0  0  0  0  0
  147.7024  140.3913  153.0841 H   0  0  0  0  0  0  0  0  0  0  0  0
  148.5824  141.8924  153.1187 H   0  0  0  0  0  0  0  0  0  0  0  0
  148.8522  139.5858  155.0804 H   0  0  0  0  0  0  0  0  0  0  0  0
  149.9650  140.1021  152.8897 H   0  0  0  0  0  0  0  0  0  0  0  0
  150.4225  142.1984  155.2791 H   0  0  0  0  0  0  0  0  0  0  0  0
  148.9277  142.0307  156.1667 H   0  0  0  0  0  0  0  0  0  0  0  0
  150.5090  138.6561  156.2348 H   0  0  0  0  0  0  0  0  0  0  0  0
  152.6897  140.2041  160.5422 H   0  0  0  0  0  0  0  0  0  0  0  0
  150.4411  143.5831  157.5560 H   0  0  0  0  0  0  0  0  0  0  0  0
  145.6250  140.2470  154.1422 H   0  0  0  0  0  0  0  0  0  0  0  0
  146.5064  140.0787  155.6434 H   0  0  0  0  0  0  0  0  0  0  0  0
  145.2915  141.9850  156.6416 H   0  0  0  0  0  0  0  0  0  0  0  0
  144.2287  139.7299  156.8520 H   0  0  0  0  0  0  0  0  0  0  0  0
  143.3640  139.9923  155.3381 H   0  0  0  0  0  0  0  0  0  0  0  0
  143.0136  140.9996  156.7403 H   0  0  0  0  0  0  0  0  0  0  0  0
  151.7981  138.4222  158.4441 H   0  0  0  0  0  0  0  0  0  0  0  0
  1  2  1  0  0  0  0
  1 24  1  0  0  0  0
  1 25  1  0  0  0  0
  1 26  1  0  0  0  0
  2 23  1  0  0  0  0
  2  3  1  0  0  0  0
  2 27  1  0  0  0  0
  3  4  1  0  0  0  0
  3 28  1  0  0  0  0
  3 29  1  0  0  0  0
  4  5  1  0  0  0  0
  4 20  1  0  0  0  0
  5  6  1  0  0  0  0
  5 30  1  0  0  0  0
  5 31  1  0  0  0  0
  6  7  1  0  0  0  0
  6  8  1  0  0  0  0
  6 32  1  0  0  0  0
  7 33  1  0  0  0  0
  8  9  1  0  0  0  0
  8 34  1  0  0  0  0
  8 35  1  0  0  0  0
  9 19  1  0  0  0  0
  9 10  1  0  0  0  0
 10 11  2  0  0  0  0
 10 36  1  0  0  0  0
 11 12  1  0  0  0  0
 11 45  1  0  0  0  0
 12 19  2  0  0  0  0
 12 13  1  0  0  0  0
 13 14  2  0  0  0  0
 13 37  1  0  0  0  0
 14 15  1  0  0  0  0
 14 16  1  0  0  0  0
 16 17  1  0  0  0  0
 16 18  2  0  0  0  0
 18 19  1  0  0  0  0
 18 38  1  0  0  0  0
 20 21  1  0  0  0  0
 20 39  1  0  0  0  0
 20 40  1  0  0  0  0
 21 22  1  0  0  0  0
 21 23  1  0  0  0  0
 21 41  1  0  0  0  0
 22 42  1  0  0  0  0
 22 43  1  0  0  0  0
 22 44  1  0  0  0  0
M  CHG  1  11   1
M  END
> <s_m_source_file>
AV-unprocessed.smi

> <i_m_source_file_index>
1824

> <i_lp_mmshare_version>
43012

> <i_f3d_flags>
0

> <s_epik_input>
W0NIM11bQ0BASF0xW0NIMl1OKFtDSDJdW0NASF0oTzEpW0NIM10pW0NIMl1bQ0BIXShbT0hdKVtDSDJdbihbY0hdbjIpYyhjMjMpW2NIXWMoRiljKEYpW2NIXTM=

> <s_epik_cmdline>
J2VwaWtfcHl0aG9uJywgJy1waCcsICc3LjAnLCAnLXRuJywgJzgnLCAnLW1hJywgJzIwMCcsICctbWV0YWxfYmluZGluZycsICctaW1hZScsICc8aW5maWxlLm1hZT4nLCAnLW9tYWUnLCAnPG91dGZpbGUubWFlPic=

> <r_epik_Ionization_Penalty>
2.58709

> <r_epik_Ionization_Penalty_Charging>
2.37273

> <r_epik_Ionization_Penalty_Neutral>
0.214359

> <r_epik_State_Penalty>
2.71799

> <r_epik_Charging_Adjusted_Penalty>
5.09071

> <i_epik_Tot_Q>
1

> <i_epik_Tot_abs_Q>
1

> <r_epik_Metal_State_Penalty>
6.80217

> <b_epik_Metal_Only>
0

> <s_lp_Force_Field>
OPLS_2005

> <r_lp_Energy>
28.8683

> <b_lp_Chiralities_Consistent>
1

> <s_lp_Variant>
AV-unprocessed.smi:1824-18

> <Gold.Version>
5.8.1

> <Gold.Id.Protein>
6NUR|6NUR_protein|mol2

> <Gold.PLP.Fitness>
53.1183

> <Gold.PLP.PLP>
-48.3936

> <Gold.PLP.part.hbond>
-2.0000

> <Gold.PLP.part.metal>
0.0000

> <Gold.PLP.part.buried>
-8.3754

> <Gold.PLP.part.nonpolar>
-39.6961

> <Gold.PLP.part.repulsive>
0.3927

> <Gold.PLP.ligand.clash>
0.0000

> <Gold.PLP.ligand.torsion>
0.4160

> <Gold.PLP.Chemscore.Hbond>
1.8480

> <Gold.PLP.Chemscore.CHOScore>
0.0000

> <Gold.PLP.Chemscore.Metal>
0.0000

> <Gold.Chemscore.Hbonds>
donor molecule, donor type, donor heavy atom, donor atom, acceptor molecule, acceptor atom, score
      L1  H     7    33       P1  7957  1.00
      P1  H  7989  7998       L1     7  0.72

> <Gold.PLP.Chemscore.Internal.Correction>
0.0127

> <Gold.Rescore>
     Score         DG    S(hbond)    S(metal)    S(lipo)     H(rot)  DE(clash)    DE(int)     intcor
     15.41     -16.27       1.60        0.00      97.48       2.32       0.04       0.82       ----

> <Gold.Chemscore.Fitness>
15.4107

> <Gold.Chemscore.DG>
-16.2741

> <Gold.Chemscore.ZeroCoef>
-5.4800

> <Gold.Chemscore.Hbond>
1.5960

> <Gold.Chemscore.Metal>
0.0000

> <Gold.Chemscore.Lipo>
97.4805

> <Gold.Chemscore.Internal_Hbond>
0.0000

> <Gold.Chemscore.DEClash>
0.0411

> <Gold.Chemscore.DEInternal>
0.8224

> <Gold.Chemscore.Rot>
2.3210

> <Gold.Chemscore.Internal.Correction>
   9.000000E+99

> <Gold.Chemscore.Hbonds>
donor molecule, donor type, donor heavy atom, donor atom, acceptor molecule, acceptor atom, score
      L1  H     7    33       P1  7957  1.00
      P1  H  7989  7998       L1     7  0.12

> <Gold.Chemscore.Hbond.Weighted>
-5.3306

> <Gold.Chemscore.Metal.Weighted>
-0.0000

> <Gold.Chemscore.Lipo.Weighted>
-11.4052

> <Gold.Chemscore.Internal_Hbond.Weighted>
0.0000

> <Gold.Chemscore.DEClash.Weighted>
0.0411

> <Gold.Chemscore.DEInternal.Weighted>
0.8224

> <Gold.Chemscore.Rot.Weighted>
5.9416

> <Gold.Chemscore.Internal.Correction.Weighted>
   9.000000E+99

> <Gold.Protein.RotatedTorsions>
[ 6907 6896 6895 6894 ] final  -82.72 input  -60.11 | X-H torsion
[ 7974 7965 7964 7962 ] final  -51.84 input  175.53 | X-H torsion
[ 8008 7997 7996 7995 ] final  -99.98 input   59.86 | X-H torsion
[ 10167 10162 10161 10158 ] final    1.43 input  -65.29 | X-H torsion
[ 10718 10713 10712 10709 ] final  -32.07 input   66.30 | X-H torsion
[ 10763 10752 10751 10750 ] final  -20.33 input  -60.55 | X-H torsion
[ 11005 11000 10999 10996 ] final  -99.89 input  -57.11 | X-H torsion

> <Gold.Protein.ActiveResidues>
 VAL166  LYS551  ARG553  GLY616  TRP617  ASP618  TYR619  PRO620  LYS621  CYS622 
 ASP623  PHE694  ASN695  SER759  ASP760  ASP761  ALA762  ILE779  LEU786  VAL792 
 PHE793  MET794  SER795  GLU796  ALA797  LYS798  CYS799  TRP800  GLU811  SER814 

> <Gold.Protein.RotatedAtoms>
  150.6894  134.3621  159.4954 H   0  0  0  0  0  0  0  0  0  0  0  0  # atno 6907 bound_to 6896
  152.1449  134.9031  160.0561 H   0  0  0  0  0  0  0  0  0  0  0  0  # atno 6908 bound_to 6896
  152.0151  133.3842  159.4272 H   0  0  0  0  0  0  0  0  0  0  0  0  # atno 6909 bound_to 6896
  145.9145  140.7887  142.9678 H   0  0  0  0  0  0  0  0  0  0  0  0  # atno 7974 bound_to 7965
  154.8222  140.0444  157.1419 H   0  0  0  0  0  0  0  0  0  0  0  0  # atno 8008 bound_to 7997
  154.9246  140.3031  155.5178 H   0  0  0  0  0  0  0  0  0  0  0  0  # atno 8009 bound_to 7997
  156.2981  140.2334  156.4300 H   0  0  0  0  0  0  0  0  0  0  0  0  # atno 8010 bound_to 7997
  140.6683  143.7119  150.7871 H   0  0  0  0  0  0  0  0  0  0  0  0  # atno 10167 bound_to 10162
  156.3794  130.4353  149.7481 H   0  0  0  0  0  0  0  0  0  0  0  0  # atno 10718 bound_to 10713
  153.6187  135.6993  153.5319 H   0  0  0  0  0  0  0  0  0  0  0  0  # atno 10763 bound_to 10752
  153.2955  135.4144  155.1205 H   0  0  0  0  0  0  0  0  0  0  0  0  # atno 10764 bound_to 10752
  154.8548  135.3636  154.5728 H   0  0  0  0  0  0  0  0  0  0  0  0  # atno 10765 bound_to 10752
  141.1291  133.8356  157.1031 H   0  0  0  0  0  0  0  0  0  0  0  0  # atno 11005 bound_to 11000
  144.6746  140.1878  143.7399 LP  0  0  0  0  0  0  0  0  0  0  0  0  # atno 17320 bound_to 7965
  145.8629  139.2232  143.1706 LP  0  0  0  0  0  0  0  0  0  0  0  0  # atno 17321 bound_to 7965
  140.0800  143.4978  152.2535 LP  0  0  0  0  0  0  0  0  0  0  0  0  # atno 17342 bound_to 10162
  139.5940  144.7560  151.3330 LP  0  0  0  0  0  0  0  0  0  0  0  0  # atno 17343 bound_to 10162
  156.4577  130.7937  151.2957 LP  0  0  0  0  0  0  0  0  0  0  0  0  # atno 17370 bound_to 10713
  157.7491  131.0075  150.3194 LP  0  0  0  0  0  0  0  0  0  0  0  0  # atno 17371 bound_to 10713
  140.0321  134.9896  157.0800 LP  0  0  0  0  0  0  0  0  0  0  0  0  # atno 17394 bound_to 11000
  140.4268  134.1822  155.7166 LP  0  0  0  0  0  0  0  0  0  0  0  0  # atno 17395 bound_to 11000

$$$$
