AV-unprocessed.smi:2837|AV-procd|sdf|10920|dock1
  -GOLD-   2272015363D 1   1.00000     0.00000
 Structure written by MMmdl.
 32 34  0  0  0  0  0  0  0  0  1 V2000
  146.3982  138.4153  152.5471 F   0  0  0  0  0  0  0  0  0  0  0  0
  147.3893  139.1781  153.0702 C   0  0  0  0  0  0  0  0  0  0  0  0
  147.0386  140.4756  152.8999 F   0  0  0  0  0  0  0  0  0  0  0  0
  147.5433  138.9143  154.3950 O   0  0  0  0  0  0  0  0  0  0  0  0
  148.5003  139.5965  155.1121 C   0  0  0  0  0  0  0  0  0  0  0  0
  148.2804  140.1413  156.3993 C   0  0  0  0  0  0  0  0  0  0  0  0
  149.3269  140.8350  157.0366 C   0  0  0  0  0  0  0  0  0  0  0  0
  150.5601  140.9727  156.3672 C   0  0  0  0  0  0  0  0  0  0  0  0
  151.5964  141.6673  157.0076 N   0  0  0  0  0  0  0  0  0  0  0  0
  151.4161  142.2663  158.3255 C   0  0  2  0  0  0  0  0  0  0  0  0
  150.6409  143.5898  158.2886 C   0  0  0  0  0  0  0  0  0  0  0  0
  151.6178  144.5487  158.9804 C   0  0  1  0  0  0  0  0  0  0  0  0
  151.7755  144.2429  160.4765 C   0  0  0  0  0  0  0  0  0  0  0  0
  152.6092  142.9624  160.4478 C   0  0  0  0  0  0  0  0  0  0  0  0
  152.7533  142.7134  158.9404 C   0  0  2  0  0  0  0  0  0  0  0  0
  152.8462  144.0521  158.4801 O   0  0  0  0  0  0  0  0  0  0  0  0
  150.7736  140.4641  155.1310 N   0  0  0  0  0  0  0  0  0  0  0  0
  149.7666  139.7984  154.5268 C   0  0  0  0  0  0  0  0  0  0  0  0
  148.3121  139.0073  152.5151 H   0  0  0  0  0  0  0  0  0  0  0  0
  147.3284  140.0415  156.8989 H   0  0  0  0  0  0  0  0  0  0  0  0
  149.1792  141.2563  158.0203 H   0  0  0  0  0  0  0  0  0  0  0  0
  152.4884  141.7742  156.5465 H   0  0  0  0  0  0  0  0  0  0  0  0
  150.9335  141.5405  158.9819 H   0  0  0  0  0  0  0  0  0  0  0  0
  150.4538  143.9182  157.2651 H   0  0  0  0  0  0  0  0  0  0  0  0
  149.6819  143.5284  158.8034 H   0  0  0  0  0  0  0  0  0  0  0  0
  151.4352  145.6006  158.7594 H   0  0  0  0  0  0  0  0  0  0  0  0
  152.3198  145.0410  160.9825 H   0  0  0  0  0  0  0  0  0  0  0  0
  150.8146  144.1130  160.9757 H   0  0  0  0  0  0  0  0  0  0  0  0
  153.5846  143.1312  160.9057 H   0  0  0  0  0  0  0  0  0  0  0  0
  152.1290  142.1310  160.9649 H   0  0  0  0  0  0  0  0  0  0  0  0
  153.6050  142.0826  158.6825 H   0  0  0  0  0  0  0  0  0  0  0  0
  149.9793  139.4098  153.5419 H   0  0  0  0  0  0  0  0  0  0  0  0
  1  2  1  0  0  0  0
  2  3  1  0  0  0  0
  2  4  1  0  0  0  0
  2 19  1  0  0  0  0
  4  5  1  0  0  0  0
  5 18  1  0  0  0  0
  5  6  2  0  0  0  0
  6  7  1  0  0  0  0
  6 20  1  0  0  0  0
  7  8  2  0  0  0  0
  7 21  1  0  0  0  0
  8  9  1  0  0  0  0
  8 17  1  0  0  0  0
  9 10  1  0  0  0  0
  9 22  1  0  0  0  0
 10 15  1  0  0  0  0
 10 11  1  0  0  0  0
 10 23  1  0  0  0  0
 11 12  1  0  0  0  0
 11 24  1  0  0  0  0
 11 25  1  0  0  0  0
 12 16  1  0  0  0  0
 12 13  1  0  0  0  0
 12 26  1  0  0  0  0
 13 14  1  0  0  0  0
 13 27  1  0  0  0  0
 13 28  1  0  0  0  0
 14 15  1  0  0  0  0
 14 29  1  0  0  0  0
 14 30  1  0  0  0  0
 15 16  1  0  0  0  0
 15 31  1  0  0  0  0
 17 18  2  0  0  0  0
 18 32  1  0  0  0  0
M  END
> <s_m_source_file>
AV-unprocessed.smi

> <i_m_source_file_index>
2837

> <i_lp_mmshare_version>
43012

> <i_f3d_flags>
0

> <s_epik_input>
RltDSF0oRilPYzFbY0hdW2NIXWMobltjSF0xKVtOSF1bQ0BIXShbQ0gyXVtDQEBIXTIzKVtDQEBIXShPMylbQ0gyXVtDSDJdMg==

> <s_epik_cmdline>
J2VwaWtfcHl0aG9uJywgJy1waCcsICc3LjAnLCAnLXRuJywgJzgnLCAnLW1hJywgJzIwMCcsICctbWV0YWxfYmluZGluZycsICctaW1hZScsICc8aW5maWxlLm1hZT4nLCAnLW9tYWUnLCAnPG91dGZpbGUubWFlPic=

> <r_lp_tautomer_probability>
1

> <r_epik_Ionization_Penalty>
0.0124072

> <r_epik_Ionization_Penalty_Charging>
0

> <r_epik_Ionization_Penalty_Neutral>
0.0124072

> <r_epik_State_Penalty>
0.00959565

> <r_epik_Charging_Adjusted_Penalty>
0.00959565

> <i_epik_Tot_Q>
0

> <i_epik_Tot_abs_Q>
0

> <r_epik_Metal_State_Penalty>
9.67369e-06

> <b_epik_Metal_Only>
0

> <s_lp_Force_Field>
OPLS_2005

> <r_lp_Energy>
39.7079

> <b_lp_Chiralities_Consistent>
1

> <s_lp_Variant>
AV-unprocessed.smi:2837-1

> <Gold.Version>
5.8.1

> <Gold.Id.Protein>
6NUR|6NUR_protein|mol2

> <Gold.PLP.Fitness>
37.5004

> <Gold.PLP.PLP>
-33.1873

> <Gold.PLP.part.hbond>
-1.0000

> <Gold.PLP.part.metal>
0.0000

> <Gold.PLP.part.buried>
-1.8970

> <Gold.PLP.part.nonpolar>
-30.7112

> <Gold.PLP.part.repulsive>
0.2865

> <Gold.PLP.ligand.clash>
0.0000

> <Gold.PLP.ligand.torsion>
0.4111

> <Gold.PLP.Chemscore.Hbond>
0.7000

> <Gold.PLP.Chemscore.CHOScore>
1.0000

> <Gold.PLP.Chemscore.Metal>
0.0000

> <Gold.Chemscore.Hbonds>
donor molecule, donor type, donor heavy atom, donor atom, acceptor molecule, acceptor atom, score
      P1  H  7989  7998       L1    17  0.70
      L1  C    18    32       P1  7957  1.00

> <Gold.PLP.Chemscore.Internal.Correction>
0.0353

> <Gold.Rescore>
     Score         DG    S(hbond)    S(metal)    S(lipo)     H(rot)  DE(clash)    DE(int)     intcor
     11.84     -12.43       0.09        0.00      85.82       1.32       0.24       0.34       ----

> <Gold.Chemscore.Fitness>
11.8403

> <Gold.Chemscore.DG>
-12.4254

> <Gold.Chemscore.ZeroCoef>
-5.4800

> <Gold.Chemscore.Hbond>
0.0859

> <Gold.Chemscore.Metal>
0.0000

> <Gold.Chemscore.Lipo>
85.8196

> <Gold.Chemscore.Internal_Hbond>
0.0000

> <Gold.Chemscore.DEClash>
0.2423

> <Gold.Chemscore.DEInternal>
0.3428

> <Gold.Chemscore.Rot>
1.3213

> <Gold.Chemscore.Internal.Correction>
   9.000000E+99

> <Gold.Chemscore.Hbonds>
donor molecule, donor type, donor heavy atom, donor atom, acceptor molecule, acceptor atom, score
      P1  H  7989  7998       L1    17  0.07

> <Gold.Chemscore.Hbond.Weighted>
-0.2871

> <Gold.Chemscore.Metal.Weighted>
-0.0000

> <Gold.Chemscore.Lipo.Weighted>
-10.0409

> <Gold.Chemscore.Internal_Hbond.Weighted>
0.0000

> <Gold.Chemscore.DEClash.Weighted>
0.2423

> <Gold.Chemscore.DEInternal.Weighted>
0.3428

> <Gold.Chemscore.Rot.Weighted>
3.3825

> <Gold.Chemscore.Internal.Correction.Weighted>
   9.000000E+99

> <Gold.Protein.RotatedTorsions>
[ 6907 6896 6895 6894 ] final  -42.51 input  -60.11 | X-H torsion
[ 7974 7965 7964 7962 ] final   58.60 input  175.53 | X-H torsion
[ 8008 7997 7996 7995 ] final   37.23 input   59.86 | X-H torsion
[ 10167 10162 10161 10158 ] final   55.91 input  -65.29 | X-H torsion
[ 10718 10713 10712 10709 ] final  130.25 input   66.30 | X-H torsion
[ 10763 10752 10751 10750 ] final   70.83 input  -60.55 | X-H torsion
[ 11005 11000 10999 10996 ] final   21.37 input  -57.11 | X-H torsion

> <Gold.Protein.ActiveResidues>
 VAL166  LYS551  ARG553  GLY616  TRP617  ASP618  TYR619  PRO620  LYS621  CYS622 
 ASP623  PHE694  ASN695  SER759  ASP760  ASP761  ALA762  ILE779  LEU786  VAL792 
 PHE793  MET794  SER795  GLU796  ALA797  LYS798  CYS799  TRP800  GLU811  SER814 

> <Gold.Protein.RotatedAtoms>
  150.9545  134.8941  159.7692 H   0  0  0  0  0  0  0  0  0  0  0  0  # atno 6907 bound_to 6896
  152.5132  134.3760  159.9344 H   0  0  0  0  0  0  0  0  0  0  0  0  # atno 6908 bound_to 6896
  151.3775  133.3793  159.2741 H   0  0  0  0  0  0  0  0  0  0  0  0  # atno 6909 bound_to 6896
  145.9164  139.3694  143.0505 H   0  0  0  0  0  0  0  0  0  0  0  0  # atno 7974 bound_to 7965
  155.2004  140.3315  155.4344 H   0  0  0  0  0  0  0  0  0  0  0  0  # atno 8008 bound_to 7997
  156.2409  140.1894  156.7041 H   0  0  0  0  0  0  0  0  0  0  0  0  # atno 8009 bound_to 7997
  154.6145  140.0604  156.9523 H   0  0  0  0  0  0  0  0  0  0  0  0  # atno 8010 bound_to 7997
  140.2144  144.3855  150.6476 H   0  0  0  0  0  0  0  0  0  0  0  0  # atno 10167 bound_to 10162
  157.5079  131.1096  150.9335 H   0  0  0  0  0  0  0  0  0  0  0  0  # atno 10718 bound_to 10713
  153.0364  135.5159  154.7500 H   0  0  0  0  0  0  0  0  0  0  0  0  # atno 10763 bound_to 10752
  154.6474  135.2920  155.0032 H   0  0  0  0  0  0  0  0  0  0  0  0  # atno 10764 bound_to 10752
  154.0928  135.6647  153.4908 H   0  0  0  0  0  0  0  0  0  0  0  0  # atno 10765 bound_to 10752
  140.3923  134.1806  155.7663 H   0  0  0  0  0  0  0  0  0  0  0  0  # atno 11005 bound_to 11000
  145.8606  140.9477  143.0702 LP  0  0  0  0  0  0  0  0  0  0  0  0  # atno 17320 bound_to 7965
  144.6748  140.0525  143.7478 LP  0  0  0  0  0  0  0  0  0  0  0  0  # atno 17321 bound_to 7965
  140.6300  143.2186  151.6515 LP  0  0  0  0  0  0  0  0  0  0  0  0  # atno 17342 bound_to 10162
  139.5168  144.3336  152.0804 LP  0  0  0  0  0  0  0  0  0  0  0  0  # atno 17343 bound_to 10162
  156.9985  130.5590  149.5309 LP  0  0  0  0  0  0  0  0  0  0  0  0  # atno 17370 bound_to 10713
  156.0270  130.5363  150.8433 LP  0  0  0  0  0  0  0  0  0  0  0  0  # atno 17371 bound_to 10713
  141.1886  133.8256  157.0987 LP  0  0  0  0  0  0  0  0  0  0  0  0  # atno 17394 bound_to 11000
  140.0397  134.9860  157.0939 LP  0  0  0  0  0  0  0  0  0  0  0  0  # atno 17395 bound_to 11000

$$$$
