AV-unprocessed.smi:1392|AV-procd|sdf|5662|dock2
  -GOLD-   22720 5283D 1   1.00000     0.00000
 Structure written by MMmdl.
 39 40  0  0  0  0  0  0  0  0  1 V2000
  150.1588  141.3434  155.6082 C   0  0  0  0  0  0  0  0  0  0  0  0
  151.2262  140.4873  156.1104 N   0  0  0  0  0  0  0  0  0  0  0  0
  151.6834  139.3529  155.3143 C   0  0  0  0  0  0  0  0  0  0  0  0
  151.8663  140.7918  157.3337 C   0  0  0  0  0  0  0  0  0  0  0  0
  151.5141  141.9388  158.0873 C   0  0  0  0  0  0  0  0  0  0  0  0
  152.1847  142.1983  159.2975 C   0  0  0  0  0  0  0  0  0  0  0  0
  153.1958  141.3194  159.7301 C   0  0  0  0  0  0  0  0  0  0  0  0
  153.8428  141.6022  160.9637 N   0  0  0  0  0  0  0  0  0  0  0  0
  153.3280  142.1613  162.0724 C   0  0  0  0  0  0  0  0  0  0  0  0
  152.1570  142.5105  162.2184 O   0  0  0  0  0  0  0  0  0  0  0  0
  154.2584  142.2808  163.0299 N   0  0  0  0  0  0  0  0  0  0  0  0
  154.0289  142.8454  164.3556 C   0  0  0  0  0  0  0  0  0  0  0  0
  155.3170  142.8823  165.1997 C   0  0  1  0  0  0  0  0  0  0  0  0
  155.2575  143.8394  166.3719 C   0  0  0  0  0  0  0  0  0  0  0  0
  156.4029  143.3339  167.2422 C   0  0  0  0  0  0  0  0  0  0  0  0
  156.4420  141.9241  167.0428 O   0  0  0  0  0  0  0  0  0  0  0  0
  155.6611  141.5684  165.9049 C   0  0  0  0  0  0  0  0  0  0  0  0
  153.4718  140.1925  158.9209 C   0  0  0  0  0  0  0  0  0  0  0  0
  152.8296  139.9393  157.7611 N   0  0  0  0  0  0  0  0  0  0  0  0
  149.3049  141.3273  156.2860 H   0  0  0  0  0  0  0  0  0  0  0  0
  149.8123  141.0121  154.6291 H   0  0  0  0  0  0  0  0  0  0  0  0
  150.5062  142.3720  155.5059 H   0  0  0  0  0  0  0  0  0  0  0  0
  151.6309  138.4307  155.8939 H   0  0  0  0  0  0  0  0  0  0  0  0
  152.7147  139.5020  154.9927 H   0  0  0  0  0  0  0  0  0  0  0  0
  151.0705  139.2192  154.4230 H   0  0  0  0  0  0  0  0  0  0  0  0
  150.7437  142.6223  157.7642 H   0  0  0  0  0  0  0  0  0  0  0  0
  151.9242  143.0680  159.8832 H   0  0  0  0  0  0  0  0  0  0  0  0
  154.8032  141.2984  161.0264 H   0  0  0  0  0  0  0  0  0  0  0  0
  155.1945  141.9615  162.8273 H   0  0  0  0  0  0  0  0  0  0  0  0
  153.6084  143.8483  164.2648 H   0  0  0  0  0  0  0  0  0  0  0  0
  153.2714  142.2393  164.8530 H   0  0  0  0  0  0  0  0  0  0  0  0
  156.1601  143.1703  164.5690 H   0  0  0  0  0  0  0  0  0  0  0  0
  155.3750  144.8835  166.0805 H   0  0  0  0  0  0  0  0  0  0  0  0
  154.3105  143.7363  166.9039 H   0  0  0  0  0  0  0  0  0  0  0  0
  157.3500  143.7587  166.9072 H   0  0  0  0  0  0  0  0  0  0  0  0
  156.2712  143.5863  168.2945 H   0  0  0  0  0  0  0  0  0  0  0  0
  154.7573  141.0679  166.2547 H   0  0  0  0  0  0  0  0  0  0  0  0
  156.1990  140.8772  165.2553 H   0  0  0  0  0  0  0  0  0  0  0  0
  154.2053  139.4521  159.1980 H   0  0  0  0  0  0  0  0  0  0  0  0
  1  2  1  0  0  0  0
  1 20  1  0  0  0  0
  1 21  1  0  0  0  0
  1 22  1  0  0  0  0
  2  3  1  0  0  0  0
  2  4  1  0  0  0  0
  3 23  1  0  0  0  0
  3 24  1  0  0  0  0
  3 25  1  0  0  0  0
  4 19  1  0  0  0  0
  4  5  2  0  0  0  0
  5  6  1  0  0  0  0
  5 26  1  0  0  0  0
  6  7  2  0  0  0  0
  6 27  1  0  0  0  0
  7  8  1  0  0  0  0
  7 18  1  0  0  0  0
  8  9  1  0  0  0  0
  8 28  1  0  0  0  0
  9 10  2  0  0  0  0
  9 11  1  0  0  0  0
 11 12  1  0  0  0  0
 11 29  1  0  0  0  0
 12 13  1  0  0  0  0
 12 30  1  0  0  0  0
 12 31  1  0  0  0  0
 13 17  1  0  0  0  0
 13 14  1  0  0  0  0
 13 32  1  0  0  0  0
 14 15  1  0  0  0  0
 14 33  1  0  0  0  0
 14 34  1  0  0  0  0
 15 16  1  0  0  0  0
 15 35  1  0  0  0  0
 15 36  1  0  0  0  0
 16 17  1  0  0  0  0
 17 37  1  0  0  0  0
 17 38  1  0  0  0  0
 18 19  2  0  0  0  0
 18 39  1  0  0  0  0
M  END
> <s_m_source_file>
AV-unprocessed.smi

> <i_m_source_file_index>
1392

> <i_lp_mmshare_version>
43012

> <i_f3d_flags>
0

> <s_epik_input>
W0NIM11OKFtDSDNdKWMxW2NIXVtjSF1jKFtjSF1uMSlbTkhdQyg9TylbTkhdW0NIMl1bQ0BASF0yW0NIMl1bQ0gyXU9bQ0gyXTI=

> <s_epik_cmdline>
J2VwaWtfcHl0aG9uJywgJy1waCcsICc3LjAnLCAnLXRuJywgJzgnLCAnLW1hJywgJzIwMCcsICctbWV0YWxfYmluZGluZycsICctaW1hZScsICc8aW5maWxlLm1hZT4nLCAnLW9tYWUnLCAnPG91dGZpbGUubWFlPic=

> <r_lp_tautomer_probability>
1

> <r_epik_Ionization_Penalty>
0.612298

> <r_epik_Ionization_Penalty_Charging>
0

> <r_epik_Ionization_Penalty_Neutral>
0.612298

> <r_epik_State_Penalty>
0.626495

> <r_epik_Charging_Adjusted_Penalty>
0.626495

> <i_epik_Tot_Q>
0

> <i_epik_Tot_abs_Q>
0

> <r_epik_Metal_State_Penalty>
0.304101

> <b_epik_Metal_Only>
0

> <s_lp_Force_Field>
OPLS_2005

> <r_lp_Energy>
23.0629

> <b_lp_Chiralities_Consistent>
1

> <s_lp_Variant>
AV-unprocessed.smi:1392-4

> <Gold.Version>
5.8.1

> <Gold.Id.Protein>
6NUR|6NUR_protein|mol2

> <Gold.PLP.Fitness>
41.4813

> <Gold.PLP.PLP>
-39.1485

> <Gold.PLP.part.hbond>
-2.4501

> <Gold.PLP.part.metal>
0.0000

> <Gold.PLP.part.buried>
-2.7263

> <Gold.PLP.part.nonpolar>
-34.0821

> <Gold.PLP.part.repulsive>
0.5830

> <Gold.PLP.ligand.clash>
0.0000

> <Gold.PLP.ligand.torsion>
0.4519

> <Gold.PLP.Chemscore.Hbond>
1.0708

> <Gold.PLP.Chemscore.CHOScore>
0.0000

> <Gold.PLP.Chemscore.Metal>
0.0000

> <Gold.Chemscore.Hbonds>
donor molecule, donor type, donor heavy atom, donor atom, acceptor molecule, acceptor atom, score
      P1  H  6933  6945       L1    10  0.49
      P1  H  7997  8008       L1    19  0.50

> <Gold.PLP.Chemscore.Internal.Correction>
0.0244

> <Gold.Rescore>
     Score         DG    S(hbond)    S(metal)    S(lipo)     H(rot)  DE(clash)    DE(int)     intcor
     14.07     -15.62       0.78        0.00      90.92       1.21       0.03       1.53       ----

> <Gold.Chemscore.Fitness>
14.0660

> <Gold.Chemscore.DG>
-15.6198

> <Gold.Chemscore.ZeroCoef>
-5.4800

> <Gold.Chemscore.Hbond>
0.7818

> <Gold.Chemscore.Metal>
0.0000

> <Gold.Chemscore.Lipo>
90.9233

> <Gold.Chemscore.Internal_Hbond>
0.0000

> <Gold.Chemscore.DEClash>
0.0261

> <Gold.Chemscore.DEInternal>
1.5278

> <Gold.Chemscore.Rot>
1.2146

> <Gold.Chemscore.Internal.Correction>
   9.000000E+99

> <Gold.Chemscore.Hbonds>
donor molecule, donor type, donor heavy atom, donor atom, acceptor molecule, acceptor atom, score
      P1  H  6933  6945       L1    10  0.46
      P1  H  7997  8008       L1    19  0.02

> <Gold.Chemscore.Hbond.Weighted>
-2.6111

> <Gold.Chemscore.Metal.Weighted>
-0.0000

> <Gold.Chemscore.Lipo.Weighted>
-10.6380

> <Gold.Chemscore.Internal_Hbond.Weighted>
0.0000

> <Gold.Chemscore.DEClash.Weighted>
0.0261

> <Gold.Chemscore.DEInternal.Weighted>
1.5278

> <Gold.Chemscore.Rot.Weighted>
3.1093

> <Gold.Chemscore.Internal.Correction.Weighted>
   9.000000E+99

> <Gold.Protein.RotatedTorsions>
[ 6907 6896 6895 6894 ] final -124.99 input  -60.11 | X-H torsion
[ 7974 7965 7964 7962 ] final   12.20 input  175.53 | X-H torsion
[ 8008 7997 7996 7995 ] final  -71.86 input   59.86 | X-H torsion
[ 10167 10162 10161 10158 ] final -132.40 input  -65.29 | X-H torsion
[ 10718 10713 10712 10709 ] final -177.31 input   66.30 | X-H torsion
[ 10763 10752 10751 10750 ] final  123.02 input  -60.55 | X-H torsion
[ 11005 11000 10999 10996 ] final -160.83 input  -57.11 | X-H torsion

> <Gold.Protein.ActiveResidues>
 VAL166  LYS551  ARG553  GLY616  TRP617  ASP618  TYR619  PRO620  LYS621  CYS622 
 ASP623  PHE694  ASN695  SER759  ASP760  ASP761  ALA762  ILE779  LEU786  VAL792 
 PHE793  MET794  SER795  GLU796  ALA797  LYS798  CYS799  TRP800  GLU811  SER814 

> <Gold.Protein.RotatedAtoms>
  150.8823  133.7355  159.2928 H   0  0  0  0  0  0  0  0  0  0  0  0  # atno 6907 bound_to 6896
  151.4932  135.1057  159.9818 H   0  0  0  0  0  0  0  0  0  0  0  0  # atno 6908 bound_to 6896
  152.4768  133.8111  159.7059 H   0  0  0  0  0  0  0  0  0  0  0  0  # atno 6909 bound_to 6896
  146.2356  139.9372  142.8488 H   0  0  0  0  0  0  0  0  0  0  0  0  # atno 7974 bound_to 7965
  154.5121  140.0808  156.8009 H   0  0  0  0  0  0  0  0  0  0  0  0  # atno 8008 bound_to 7997
  155.3763  140.3425  155.4227 H   0  0  0  0  0  0  0  0  0  0  0  0  # atno 8009 bound_to 7997
  156.1585  140.1581  156.8640 H   0  0  0  0  0  0  0  0  0  0  0  0  # atno 8010 bound_to 7997
  139.9089  143.6518  152.2579 H   0  0  0  0  0  0  0  0  0  0  0  0  # atno 10167 bound_to 10162
  156.8276  130.9642  151.3108 H   0  0  0  0  0  0  0  0  0  0  0  0  # atno 10718 bound_to 10713
  153.6389  135.3383  155.3065 H   0  0  0  0  0  0  0  0  0  0  0  0  # atno 10763 bound_to 10752
  154.8564  135.4313  154.2026 H   0  0  0  0  0  0  0  0  0  0  0  0  # atno 10764 bound_to 10752
  153.2940  135.7019  153.7340 H   0  0  0  0  0  0  0  0  0  0  0  0  # atno 10765 bound_to 10752
  140.6271  134.4690  157.5227 H   0  0  0  0  0  0  0  0  0  0  0  0  # atno 11005 bound_to 11000
  145.1987  140.9845  143.4168 LP  0  0  0  0  0  0  0  0  0  0  0  0  # atno 17320 bound_to 7965
  144.9792  139.3800  143.6270 LP  0  0  0  0  0  0  0  0  0  0  0  0  # atno 17321 bound_to 7965
  139.6960  144.7641  151.1356 LP  0  0  0  0  0  0  0  0  0  0  0  0  # atno 17342 bound_to 10162
  140.7690  143.5523  150.9190 LP  0  0  0  0  0  0  0  0  0  0  0  0  # atno 17343 bound_to 10162
  157.6424  130.8816  149.9473 LP  0  0  0  0  0  0  0  0  0  0  0  0  # atno 17370 bound_to 10713
  156.0952  130.3660  150.0319 LP  0  0  0  0  0  0  0  0  0  0  0  0  # atno 17371 bound_to 10713
  139.9130  134.8304  156.1461 LP  0  0  0  0  0  0  0  0  0  0  0  0  # atno 17394 bound_to 11000
  141.0701  133.6800  156.2124 LP  0  0  0  0  0  0  0  0  0  0  0  0  # atno 17395 bound_to 11000

$$$$
