AV-unprocessed.smi:1641|AV-procd|sdf|6558|dock9
  -GOLD-   22720 7243D 1   1.00000     0.00000
 Structure written by MMmdl.
 41 42  0  0  0  0  0  0  0  0  1 V2000
  145.7033  129.9865  151.7195 C   0  0  0  0  0  0  0  0  0  0  0  0
  145.9763  131.3265  152.3122 C   0  0  0  0  0  0  0  0  0  0  0  0
  145.8838  131.5674  153.6256 N   0  0  0  0  0  0  0  0  0  0  0  0
  146.1857  132.8849  153.9416 N   0  0  0  0  0  0  0  0  0  0  0  0
  146.4969  133.6011  152.8524 C   0  0  0  0  0  0  0  0  0  0  0  0
  146.8462  134.9770  152.8849 N   0  0  0  0  0  0  0  0  0  0  0  0
  146.2232  135.9798  153.5281 C   0  0  0  0  0  0  0  0  0  0  0  0
  145.2228  135.8577  154.2355 O   0  0  0  0  0  0  0  0  0  0  0  0
  146.8357  137.1521  153.3046 N   0  0  0  0  0  0  0  0  0  0  0  0
  146.4073  138.4442  153.8321 C   0  0  0  0  0  0  0  0  0  0  0  0
  147.3935  139.5682  153.4561 C   0  0  0  0  0  0  0  0  0  0  0  0
  148.5014  139.7701  154.3893 N   0  0  0  0  0  0  0  0  0  0  0  0
  149.6464  138.9123  154.1008 C   0  0  0  0  0  0  0  0  0  0  0  0
  150.7770  139.1078  155.1266 C   0  0  1  0  0  0  0  0  0  0  0  0
  152.0166  138.2754  154.7837 C   0  0  0  0  0  0  0  0  0  0  0  0
  151.1577  140.4829  155.1578 O   0  0  0  0  0  0  0  0  0  0  0  0
  150.0925  141.4045  155.3977 C   0  0  2  0  0  0  0  0  0  0  0  0
  149.6377  141.3802  156.8672 C   0  0  0  0  0  0  0  0  0  0  0  0
  148.9428  141.1595  154.4004 C   0  0  0  0  0  0  0  0  0  0  0  0
  146.4382  132.7166  151.3375 S   0  0  0  0  0  0  0  0  0  0  0  0
  146.0861  129.1994  152.3698 H   0  0  0  0  0  0  0  0  0  0  0  0
  146.1864  129.8980  150.7462 H   0  0  0  0  0  0  0  0  0  0  0  0
  144.6298  129.8469  151.5927 H   0  0  0  0  0  0  0  0  0  0  0  0
  147.6679  135.2272  152.3552 H   0  0  0  0  0  0  0  0  0  0  0  0
  147.6529  137.1546  152.7122 H   0  0  0  0  0  0  0  0  0  0  0  0
  145.3861  138.6769  153.5295 H   0  0  0  0  0  0  0  0  0  0  0  0
  146.3775  138.3531  154.9181 H   0  0  0  0  0  0  0  0  0  0  0  0
  147.7918  139.3770  152.4587 H   0  0  0  0  0  0  0  0  0  0  0  0
  146.8229  140.4944  153.3728 H   0  0  0  0  0  0  0  0  0  0  0  0
  149.3493  137.8646  154.1095 H   0  0  0  0  0  0  0  0  0  0  0  0
  150.0207  139.1211  153.0973 H   0  0  0  0  0  0  0  0  0  0  0  0
  150.4261  138.8063  156.1141 H   0  0  0  0  0  0  0  0  0  0  0  0
  151.7804  137.2112  154.7654 H   0  0  0  0  0  0  0  0  0  0  0  0
  152.8047  138.4279  155.5216 H   0  0  0  0  0  0  0  0  0  0  0  0
  152.4167  138.5473  153.8064 H   0  0  0  0  0  0  0  0  0  0  0  0
  150.4977  142.3984  155.2056 H   0  0  0  0  0  0  0  0  0  0  0  0
  148.9058  142.1648  157.0588 H   0  0  0  0  0  0  0  0  0  0  0  0
  150.4812  141.5441  157.5380 H   0  0  0  0  0  0  0  0  0  0  0  0
  149.1743  140.4315  157.1383 H   0  0  0  0  0  0  0  0  0  0  0  0
  149.2750  141.4418  153.4000 H   0  0  0  0  0  0  0  0  0  0  0  0
  148.1061  141.8160  154.6422 H   0  0  0  0  0  0  0  0  0  0  0  0
  1  2  1  0  0  0  0
  1 21  1  0  0  0  0
  1 22  1  0  0  0  0
  1 23  1  0  0  0  0
  2 20  1  0  0  0  0
  2  3  2  0  0  0  0
  3  4  1  0  0  0  0
  4  5  2  0  0  0  0
  5  6  1  0  0  0  0
  5 20  1  0  0  0  0
  6  7  1  0  0  0  0
  6 24  1  0  0  0  0
  7  8  2  0  0  0  0
  7  9  1  0  0  0  0
  9 10  1  0  0  0  0
  9 25  1  0  0  0  0
 10 11  1  0  0  0  0
 10 26  1  0  0  0  0
 10 27  1  0  0  0  0
 11 12  1  0  0  0  0
 11 28  1  0  0  0  0
 11 29  1  0  0  0  0
 12 19  1  0  0  0  0
 12 13  1  0  0  0  0
 13 14  1  0  0  0  0
 13 30  1  0  0  0  0
 13 31  1  0  0  0  0
 14 15  1  0  0  0  0
 14 16  1  0  0  0  0
 14 32  1  0  0  0  0
 15 33  1  0  0  0  0
 15 34  1  0  0  0  0
 15 35  1  0  0  0  0
 16 17  1  0  0  0  0
 17 18  1  0  0  0  0
 17 19  1  0  0  0  0
 17 36  1  0  0  0  0
 18 37  1  0  0  0  0
 18 38  1  0  0  0  0
 18 39  1  0  0  0  0
 19 40  1  0  0  0  0
 19 41  1  0  0  0  0
M  END
> <s_m_source_file>
AV-unprocessed.smi

> <i_m_source_file_index>
1641

> <i_lp_mmshare_version>
43012

> <i_f3d_flags>
0

> <s_epik_input>
W0NIM11jMW5uYyhzMSlbTkhdQyg9TylbTkhdW0NIMl1bQ0gyXU4yW0NIMl1bQ0BASF0oW0NIM10pT1tDQEBIXShbQ0gzXSlbQ0gyXTI=

> <s_epik_cmdline>
J2VwaWtfcHl0aG9uJywgJy1waCcsICc3LjAnLCAnLXRuJywgJzgnLCAnLW1hJywgJzIwMCcsICctbWV0YWxfYmluZGluZycsICctaW1hZScsICc8aW5maWxlLm1hZT4nLCAnLW9tYWUnLCAnPG91dGZpbGUubWFlPic=

> <r_lp_tautomer_probability>
1

> <r_epik_Ionization_Penalty>
0.221104

> <r_epik_Ionization_Penalty_Charging>
0

> <r_epik_Ionization_Penalty_Neutral>
0.221104

> <r_epik_State_Penalty>
0.209349

> <r_epik_Charging_Adjusted_Penalty>
0.209349

> <i_epik_Tot_Q>
0

> <i_epik_Tot_abs_Q>
0

> <r_epik_Metal_State_Penalty>
0.560954

> <b_epik_Metal_Only>
0

> <s_lp_Force_Field>
OPLS_2005

> <r_lp_Energy>
25.2137

> <b_lp_Chiralities_Consistent>
1

> <s_lp_Variant>
AV-unprocessed.smi:1641-3

> <Gold.Version>
5.8.1

> <Gold.Id.Protein>
6NUR|6NUR_protein|mol2

> <Gold.PLP.Fitness>
38.7163

> <Gold.PLP.PLP>
-31.6447

> <Gold.PLP.part.hbond>
-3.0000

> <Gold.PLP.part.metal>
0.0000

> <Gold.PLP.part.buried>
-2.6987

> <Gold.PLP.part.nonpolar>
-25.4874

> <Gold.PLP.part.repulsive>
0.4852

> <Gold.PLP.ligand.clash>
0.0000

> <Gold.PLP.ligand.torsion>
0.9224

> <Gold.PLP.Chemscore.Hbond>
2.9680

> <Gold.PLP.Chemscore.CHOScore>
0.0000

> <Gold.PLP.Chemscore.Metal>
0.0000

> <Gold.Chemscore.Hbonds>
donor molecule, donor type, donor heavy atom, donor atom, acceptor molecule, acceptor atom, score
      L1  H     6    24       P1  7948  1.00
      L1  H     9    25       P1  7948  0.99
      P1  H  7989  7998       L1    16  0.98

> <Gold.PLP.Chemscore.Internal.Correction>
0.0124

> <Gold.Rescore>
     Score         DG    S(hbond)    S(metal)    S(lipo)     H(rot)  DE(clash)    DE(int)     intcor
     17.96     -18.97       2.55        0.00      77.35       1.60       0.10       0.91       ----

> <Gold.Chemscore.Fitness>
17.9596

> <Gold.Chemscore.DG>
-18.9700

> <Gold.Chemscore.ZeroCoef>
-5.4800

> <Gold.Chemscore.Hbond>
2.5538

> <Gold.Chemscore.Metal>
0.0000

> <Gold.Chemscore.Lipo>
77.3497

> <Gold.Chemscore.Internal_Hbond>
0.0000

> <Gold.Chemscore.DEClash>
0.0998

> <Gold.Chemscore.DEInternal>
0.9106

> <Gold.Chemscore.Rot>
1.5975

> <Gold.Chemscore.Internal.Correction>
   9.000000E+99

> <Gold.Chemscore.Hbonds>
donor molecule, donor type, donor heavy atom, donor atom, acceptor molecule, acceptor atom, score
      L1  H     6    24       P1  7948  0.98
      L1  H     9    25       P1  7948  0.94
      P1  H  7989  7998       L1    16  0.18

> <Gold.Chemscore.Hbond.Weighted>
-8.5296

> <Gold.Chemscore.Metal.Weighted>
-0.0000

> <Gold.Chemscore.Lipo.Weighted>
-9.0499

> <Gold.Chemscore.Internal_Hbond.Weighted>
0.0000

> <Gold.Chemscore.DEClash.Weighted>
0.0998

> <Gold.Chemscore.DEInternal.Weighted>
0.9106

> <Gold.Chemscore.Rot.Weighted>
4.0896

> <Gold.Chemscore.Internal.Correction.Weighted>
   9.000000E+99

> <Gold.Protein.RotatedTorsions>
[ 6907 6896 6895 6894 ] final  156.39 input  -60.11 | X-H torsion
[ 7974 7965 7964 7962 ] final  -10.60 input  175.53 | X-H torsion
[ 8008 7997 7996 7995 ] final  -45.49 input   59.86 | X-H torsion
[ 10167 10162 10161 10158 ] final  -31.59 input  -65.29 | X-H torsion
[ 10718 10713 10712 10709 ] final   -1.80 input   66.30 | X-H torsion
[ 10763 10752 10751 10750 ] final  104.07 input  -60.55 | X-H torsion
[ 11005 11000 10999 10996 ] final  148.84 input  -57.11 | X-H torsion

> <Gold.Protein.ActiveResidues>
 VAL166  LYS551  ARG553  GLY616  TRP617  ASP618  TYR619  PRO620  LYS621  CYS622 
 ASP623  PHE694  ASN695  SER759  ASP760  ASP761  ALA762  ILE779  LEU786  VAL792 
 PHE793  MET794  SER795  GLU796  ALA797  LYS798  CYS799  TRP800  GLU811  SER814 

> <Gold.Protein.RotatedAtoms>
  152.0304  133.3935  159.4294 H   0  0  0  0  0  0  0  0  0  0  0  0  # atno 6907 bound_to 6896
  150.6883  134.3527  159.4925 H   0  0  0  0  0  0  0  0  0  0  0  0  # atno 6908 bound_to 6896
  152.1313  134.9132  160.0609 H   0  0  0  0  0  0  0  0  0  0  0  0  # atno 6909 bound_to 6896
  146.2215  140.2788  142.8361 H   0  0  0  0  0  0  0  0  0  0  0  0  # atno 7974 bound_to 7965
  154.4001  140.1395  156.3856 H   0  0  0  0  0  0  0  0  0  0  0  0  # atno 8008 bound_to 7997
  155.7962  140.3477  155.5356 H   0  0  0  0  0  0  0  0  0  0  0  0  # atno 8009 bound_to 7997
  155.8529  140.0944  157.1653 H   0  0  0  0  0  0  0  0  0  0  0  0  # atno 8010 bound_to 7997
  140.7234  143.3759  151.1691 H   0  0  0  0  0  0  0  0  0  0  0  0  # atno 10167 bound_to 10162
  156.8002  130.5390  149.5723 H   0  0  0  0  0  0  0  0  0  0  0  0  # atno 10718 bound_to 10713
  153.3611  135.3955  155.1718 H   0  0  0  0  0  0  0  0  0  0  0  0  # atno 10763 bound_to 10752
  154.8679  135.3679  154.5099 H   0  0  0  0  0  0  0  0  0  0  0  0  # atno 10764 bound_to 10752
  153.5558  135.7082  153.5630 H   0  0  0  0  0  0  0  0  0  0  0  0  # atno 10765 bound_to 10752
  140.0994  134.8993  157.1772 H   0  0  0  0  0  0  0  0  0  0  0  0  # atno 11005 bound_to 11000
  144.9212  140.7870  143.5747 LP  0  0  0  0  0  0  0  0  0  0  0  0  # atno 17320 bound_to 7965
  145.2725  139.1949  143.4834 LP  0  0  0  0  0  0  0  0  0  0  0  0  # atno 17321 bound_to 7965
  139.7339  143.9030  152.3028 LP  0  0  0  0  0  0  0  0  0  0  0  0  # atno 17342 bound_to 10162
  139.8828  144.7008  150.8858 LP  0  0  0  0  0  0  0  0  0  0  0  0  # atno 17343 bound_to 10162
  156.1105  130.6037  151.0040 LP  0  0  0  0  0  0  0  0  0  0  0  0  # atno 17370 bound_to 10713
  157.6557  131.0889  150.7952 LP  0  0  0  0  0  0  0  0  0  0  0  0  # atno 17371 bound_to 10713
  140.3242  134.2883  155.7240 LP  0  0  0  0  0  0  0  0  0  0  0  0  # atno 17394 bound_to 11000
  141.2101  133.7729  156.9953 LP  0  0  0  0  0  0  0  0  0  0  0  0  # atno 17395 bound_to 11000

$$$$
