AV-unprocessed.smi:160|AV-procd|sdf|1343|dock8
  -GOLD-   2262019 43D 1   1.00000     0.00000
 Structure written by MMmdl.
 29 30  0  0  0  0  0  0  0  0  1 V2000
  147.0694  143.8647  158.7220 N   0  0  0  0  0  0  0  0  0  0  0  0
  146.4951  142.6648  158.5879 C   0  0  0  0  0  0  0  0  0  0  0  0
  146.1385  141.9941  159.5552 O   0  0  0  0  0  0  0  0  0  0  0  0
  146.3061  142.1721  157.1798 C   0  0  0  0  0  0  0  0  0  0  0  0
  145.0745  141.7981  156.7222 N   0  0  0  0  0  0  0  0  0  0  0  0
  145.4075  141.4526  155.4851 C   0  0  0  0  0  0  0  0  0  0  0  0
  146.7047  141.6102  155.2034 N   0  0  0  0  0  0  0  0  0  0  0  0
  147.4591  141.3027  153.9512 C   0  0  2  0  0  0  0  0  0  0  0  0
  146.6163  140.5390  153.1396 O   0  0  0  0  0  0  0  0  0  0  0  0
  147.2491  139.3212  152.7535 C   0  0  2  0  0  0  0  0  0  0  0  0
  146.1900  138.2199  152.5925 C   0  0  0  0  0  0  0  0  0  0  0  0
  146.7693  136.9526  152.8167 O   0  0  0  0  0  0  0  0  0  0  0  0
  148.2345  139.0582  153.8934 C   0  0  1  0  0  0  0  0  0  0  0  0
  149.2960  138.1942  153.5320 O   0  0  0  0  0  0  0  0  0  0  0  0
  148.7076  140.4607  154.2554 C   0  0  1  0  0  0  0  0  0  0  0  0
  149.8042  140.8871  153.4678 O   0  0  0  0  0  0  0  0  0  0  0  0
  147.3212  142.0742  156.3195 N   0  0  0  0  0  0  0  0  0  0  0  0
  147.6749  142.2780  153.5122 H   0  0  0  0  0  0  0  0  0  0  0  0
  147.7998  139.4851  151.8251 H   0  0  0  0  0  0  0  0  0  0  0  0
  147.7050  138.6256  154.7432 H   0  0  0  0  0  0  0  0  0  0  0  0
  148.9932  140.5391  155.3055 H   0  0  0  0  0  0  0  0  0  0  0  0
  147.2228  144.2488  159.6426 H   0  0  0  0  0  0  0  0  0  0  0  0
  147.3460  144.3791  157.8986 H   0  0  0  0  0  0  0  0  0  0  0  0
  144.6910  141.0756  154.7701 H   0  0  0  0  0  0  0  0  0  0  0  0
  145.3964  138.3501  153.3285 H   0  0  0  0  0  0  0  0  0  0  0  0
  145.7265  138.2582  151.6060 H   0  0  0  0  0  0  0  0  0  0  0  0
  147.5486  136.8798  152.2874 H   0  0  0  0  0  0  0  0  0  0  0  0
  148.9390  137.4656  153.0473 H   0  0  0  0  0  0  0  0  0  0  0  0
  149.9155  140.2721  152.7586 H   0  0  0  0  0  0  0  0  0  0  0  0
  1  2  1  0  0  0  0
  1 22  1  0  0  0  0
  1 23  1  0  0  0  0
  2  3  2  0  0  0  0
  2  4  1  0  0  0  0
  4 17  2  0  0  0  0
  4  5  1  0  0  0  0
  5  6  2  0  0  0  0
  6  7  1  0  0  0  0
  6 24  1  0  0  0  0
  7  8  1  0  0  0  0
  7 17  1  0  0  0  0
  8 18  1  0  0  0  0
  8 15  1  0  0  0  0
  8  9  1  0  0  0  0
  9 10  1  0  0  0  0
 10 19  1  0  0  0  0
 10 11  1  0  0  0  0
 10 13  1  0  0  0  0
 11 12  1  0  0  0  0
 11 25  1  0  0  0  0
 11 26  1  0  0  0  0
 12 27  1  0  0  0  0
 13 20  1  0  0  0  0
 13 14  1  0  0  0  0
 13 15  1  0  0  0  0
 14 28  1  0  0  0  0
 15 21  1  0  0  0  0
 15 16  1  0  0  0  0
 16 29  1  0  0  0  0
M  END
> <s_m_source_file>
AV-unprocessed.smi

> <i_m_source_file_index>
160

> <i_lp_mmshare_version>
43012

> <i_f3d_flags>
0

> <s_epik_input>
W05IMl1DKD1PKWMxbltjSF1uKG4xKVtDQEBIXTJPW0NASF0oW0NIMl1bT0hdKVtDQEBIXShbT0hdKVtDQEhdMltPSF0=

> <s_epik_cmdline>
J2VwaWtfcHl0aG9uJywgJy1waCcsICc3LjAnLCAnLXRuJywgJzgnLCAnLW1hJywgJzIwMCcsICctbWV0YWxfYmluZGluZycsICctaW1hZScsICc8aW5maWxlLm1hZT4nLCAnLW9tYWUnLCAnPG91dGZpbGUubWFlPic=

> <r_lp_tautomer_probability>
1

> <r_epik_Ionization_Penalty>
1.06932e-05

> <r_epik_Ionization_Penalty_Charging>
0

> <r_epik_Ionization_Penalty_Neutral>
1.06932e-05

> <r_epik_State_Penalty>
-0

> <r_epik_Charging_Adjusted_Penalty>
0

> <i_epik_Tot_Q>
0

> <i_epik_Tot_abs_Q>
0

> <r_epik_Metal_State_Penalty>
0.0142097

> <b_epik_Metal_Only>
0

> <s_epik_Chemistry_Notes>
This compound contains an acetal/aminal-like group ( X-CH(R)-Y where X, Y are N, S, or O) that may be acid/base labile, releasing an aldehyde.

> <s_lp_Force_Field>
OPLS_2005

> <r_lp_Energy>
39.0499

> <b_lp_Chiralities_Consistent>
1

> <s_lp_Variant>
AV-unprocessed.smi:160-1

> <Gold.Version>
5.8.1

> <Gold.Id.Protein>
6NUR|6NUR_protein|mol2

> <Gold.PLP.Fitness>
38.9916

> <Gold.PLP.PLP>
-22.4274

> <Gold.PLP.part.hbond>
-7.2434

> <Gold.PLP.part.metal>
0.0000

> <Gold.PLP.part.buried>
-0.8763

> <Gold.PLP.part.nonpolar>
-15.8406

> <Gold.PLP.part.repulsive>
1.2755

> <Gold.PLP.ligand.clash>
0.0000

> <Gold.PLP.ligand.torsion>
1.5371

> <Gold.PLP.Chemscore.Hbond>
5.5376

> <Gold.PLP.Chemscore.CHOScore>
1.0000

> <Gold.PLP.Chemscore.Metal>
0.0000

> <Gold.Chemscore.Hbonds>
donor molecule, donor type, donor heavy atom, donor atom, acceptor molecule, acceptor atom, score
      L1  H     1    23       P1  8029  0.93
      L1  H    12    27       P1  7948  1.00
      L1  H    14    28       P1  7948  1.00
      L1  H    16    29       P1  7957  0.86
      P1  H  6934  6946       L1     3  1.00
      P1  H  7989  7998       L1    16  0.05
      P1  H  8011  8017       L1    16  0.70
      L1  C     6    24       P1 10175  0.94

> <Gold.PLP.Chemscore.Internal.Correction>
0.0256

> <Gold.Rescore>
     Score         DG    S(hbond)    S(metal)    S(lipo)     H(rot)  DE(clash)    DE(int)     intcor
     11.27     -13.69       4.66        0.00      25.96       4.06       0.73       1.68       ----

> <Gold.Chemscore.Fitness>
11.2677

> <Gold.Chemscore.DG>
-13.6865

> <Gold.Chemscore.ZeroCoef>
-5.4800

> <Gold.Chemscore.Hbond>
4.6595

> <Gold.Chemscore.Metal>
0.0000

> <Gold.Chemscore.Lipo>
25.9598

> <Gold.Chemscore.Internal_Hbond>
0.0000

> <Gold.Chemscore.DEClash>
0.7349

> <Gold.Chemscore.DEInternal>
1.6840

> <Gold.Chemscore.Rot>
4.0600

> <Gold.Chemscore.Internal.Correction>
   9.000000E+99

> <Gold.Chemscore.Hbonds>
donor molecule, donor type, donor heavy atom, donor atom, acceptor molecule, acceptor atom, score
      L1  H     1    23       P1  8029  0.23
      L1  H    12    27       P1  7948  0.96
      L1  H    14    28       P1  7948  0.98
      L1  H    16    29       P1  7957  0.84
      P1  H  6934  6946       L1     3  0.99
      P1  H  8011  8017       L1    16  0.07

> <Gold.Chemscore.Hbond.Weighted>
-15.5628

> <Gold.Chemscore.Metal.Weighted>
-0.0000

> <Gold.Chemscore.Lipo.Weighted>
-3.0373

> <Gold.Chemscore.Internal_Hbond.Weighted>
0.0000

> <Gold.Chemscore.DEClash.Weighted>
0.7349

> <Gold.Chemscore.DEInternal.Weighted>
1.6840

> <Gold.Chemscore.Rot.Weighted>
10.3936

> <Gold.Chemscore.Internal.Correction.Weighted>
   9.000000E+99

> <Gold.Protein.RotatedTorsions>
[ 6907 6896 6895 6894 ] final  -53.68 input  -60.11 | X-H torsion
[ 7974 7965 7964 7962 ] final  118.08 input  175.53 | X-H torsion
[ 8008 7997 7996 7995 ] final   39.01 input   59.86 | X-H torsion
[ 10167 10162 10161 10158 ] final   35.91 input  -65.29 | X-H torsion
[ 10718 10713 10712 10709 ] final  -80.64 input   66.30 | X-H torsion
[ 10763 10752 10751 10750 ] final   87.82 input  -60.55 | X-H torsion
[ 11005 11000 10999 10996 ] final   99.10 input  -57.11 | X-H torsion

> <Gold.Protein.ActiveResidues>
 VAL166  LYS551  ARG553  GLY616  TRP617  ASP618  TYR619  PRO620  LYS621  CYS622 
 ASP623  PHE694  ASN695  SER759  ASP760  ASP761  ALA762  ILE779  LEU786  VAL792 
 PHE793  MET794  SER795  GLU796  ALA797  LYS798  CYS799  TRP800  GLU811  SER814 

> <Gold.Protein.RotatedAtoms>
  150.8405  134.7695  159.6928 H   0  0  0  0  0  0  0  0  0  0  0  0  # atno 6907 bound_to 6896
  152.4493  134.5424  159.9853 H   0  0  0  0  0  0  0  0  0  0  0  0  # atno 6908 bound_to 6896
  151.5565  133.3372  159.2998 H   0  0  0  0  0  0  0  0  0  0  0  0  # atno 6909 bound_to 6896
  145.1595  139.3163  143.4524 H   0  0  0  0  0  0  0  0  0  0  0  0  # atno 7974 bound_to 7965
  155.2296  140.3337  155.4305 H   0  0  0  0  0  0  0  0  0  0  0  0  # atno 8008 bound_to 7997
  156.2300  140.1846  156.7312 H   0  0  0  0  0  0  0  0  0  0  0  0  # atno 8009 bound_to 7997
  154.5962  140.0630  156.9292 H   0  0  0  0  0  0  0  0  0  0  0  0  # atno 8010 bound_to 7997
  140.4177  144.1503  150.6145 H   0  0  0  0  0  0  0  0  0  0  0  0  # atno 10167 bound_to 10162
  156.0066  130.4580  150.3831 H   0  0  0  0  0  0  0  0  0  0  0  0  # atno 10718 bound_to 10713
  153.1707  135.4529  154.9898 H   0  0  0  0  0  0  0  0  0  0  0  0  # atno 10763 bound_to 10752
  154.7963  135.3239  154.7660 H   0  0  0  0  0  0  0  0  0  0  0  0  # atno 10764 bound_to 10752
  153.8137  135.6952  153.4892 H   0  0  0  0  0  0  0  0  0  0  0  0  # atno 10765 bound_to 10752
  139.8771  134.9080  156.4555 H   0  0  0  0  0  0  0  0  0  0  0  0  # atno 11005 bound_to 11000
  146.3484  140.1701  142.8590 LP  0  0  0  0  0  0  0  0  0  0  0  0  # atno 17320 bound_to 7965
  145.0345  140.8897  143.5089 LP  0  0  0  0  0  0  0  0  0  0  0  0  # atno 17321 bound_to 7965
  140.4568  143.2464  151.9274 LP  0  0  0  0  0  0  0  0  0  0  0  0  # atno 17342 bound_to 10162
  139.4782  144.5508  151.8389 LP  0  0  0  0  0  0  0  0  0  0  0  0  # atno 17343 bound_to 10162
  157.1909  131.0415  151.2700 LP  0  0  0  0  0  0  0  0  0  0  0  0  # atno 17370 bound_to 10713
  157.4062  130.7360  149.6804 LP  0  0  0  0  0  0  0  0  0  0  0  0  # atno 17371 bound_to 10713
  140.8901  133.7854  155.9562 LP  0  0  0  0  0  0  0  0  0  0  0  0  # atno 17394 bound_to 11000
  140.8762  134.2666  157.5166 LP  0  0  0  0  0  0  0  0  0  0  0  0  # atno 17395 bound_to 11000

$$$$
