AV-unprocessed.smi:1033|AV-procd|sdf|4501|dock6
  -GOLD-   22720 2493D 1   1.00000     0.00000
 Structure written by MMmdl.
 57 59  0  0  0  0  0  0  0  0  3 V2000
  151.4948  144.0039  161.1230 C   0  0  0  0  0  0  0  0  0  0  0  0
  151.5182  143.0617  159.9313 C   0  0  0  0  0  0  0  0  0  0  0  0
  150.6418  143.3175  158.8524 C   0  0  0  0  0  0  0  0  0  0  0  0
  150.6874  142.4389  157.7764 C   0  0  0  0  0  0  0  0  0  0  0  0
  149.9619  142.4134  156.5834 N   0  3  0  0  0  0  0  0  0  0  0  0
  150.3577  141.3481  155.8330 C   0  0  0  0  0  0  0  0  0  0  0  0
  151.3349  140.7001  156.5246 N   0  0  0  0  0  0  0  0  0  0  0  0
  152.0995  139.4947  156.1790 C   0  0  0  0  0  0  0  0  0  0  0  0
  151.2195  138.2371  156.0223 C   0  0  1  0  0  0  0  0  0  0  0  0
  150.2147  138.3061  157.0136 O   0  0  0  0  0  0  0  0  0  0  0  0
  150.5549  138.1270  154.6318 C   0  0  0  0  0  0  0  0  0  0  0  0
  149.7261  136.9040  154.4777 N   0  3  0  0  0  0  0  0  0  0  0  0
  148.3313  137.0627  154.9716 C   0  0  0  0  0  0  0  0  0  0  0  0
  147.5281  135.7672  154.7352 C   0  0  0  0  0  0  0  0  0  0  0  0
  148.1370  134.5847  155.3500 N   0  0  0  0  0  0  0  0  0  0  0  0
  148.0658  134.5492  156.8155 C   0  0  0  0  0  0  0  0  0  0  0  0
  148.4614  133.2094  157.4671 C   0  0  1  0  0  0  0  0  0  0  0  0
  147.9824  131.9890  156.6679 C   0  0  0  0  0  0  0  0  0  0  0  0
  149.8701  133.1584  157.5441 O   0  0  0  0  0  0  0  0  0  0  0  0
  149.5038  134.4536  154.8472 C   0  0  0  0  0  0  0  0  0  0  0  0
  150.3649  135.7100  155.0896 C   0  0  0  0  0  0  0  0  0  0  0  0
  151.5653  141.3381  157.7480 C   0  0  0  0  0  0  0  0  0  0  0  0
  152.4315  141.0682  158.8046 C   0  0  0  0  0  0  0  0  0  0  0  0
  152.4002  141.9501  159.9085 C   0  0  0  0  0  0  0  0  0  0  0  0
  153.3343  141.6822  161.0763 C   0  0  0  0  0  0  0  0  0  0  0  0
  150.7914  144.8232  160.9704 H   0  0  0  0  0  0  0  0  0  0  0  0
  152.4808  144.4390  161.2876 H   0  0  0  0  0  0  0  0  0  0  0  0
  151.1952  143.4713  162.0258 H   0  0  0  0  0  0  0  0  0  0  0  0
  149.9645  144.1591  158.8657 H   0  0  0  0  0  0  0  0  0  0  0  0
  149.9687  141.0709  154.8636 H   0  0  0  0  0  0  0  0  0  0  0  0
  152.6584  139.6980  155.2642 H   0  0  0  0  0  0  0  0  0  0  0  0
  152.8398  139.3431  156.9662 H   0  0  0  0  0  0  0  0  0  0  0  0
  151.8301  137.3588  156.2259 H   0  0  0  0  0  0  0  0  0  0  0  0
  150.4395  137.7248  157.7237 H   0  0  0  0  0  0  0  0  0  0  0  0
  149.9360  139.0122  154.4760 H   0  0  0  0  0  0  0  0  0  0  0  0
  151.3026  138.1391  153.8381 H   0  0  0  0  0  0  0  0  0  0  0  0
  148.3355  137.3290  156.0293 H   0  0  0  0  0  0  0  0  0  0  0  0
  147.8371  137.8804  154.4486 H   0  0  0  0  0  0  0  0  0  0  0  0
  146.5033  135.8955  155.0810 H   0  0  0  0  0  0  0  0  0  0  0  0
  147.4476  135.6005  153.6600 H   0  0  0  0  0  0  0  0  0  0  0  0
  148.7234  135.3213  157.2178 H   0  0  0  0  0  0  0  0  0  0  0  0
  147.0636  134.8201  157.1468 H   0  0  0  0  0  0  0  0  0  0  0  0
  148.0866  133.1504  158.4881 H   0  0  0  0  0  0  0  0  0  0  0  0
  146.8943  131.9624  156.6061 H   0  0  0  0  0  0  0  0  0  0  0  0
  148.3055  131.0597  157.1379 H   0  0  0  0  0  0  0  0  0  0  0  0
  148.3724  132.0006  155.6496 H   0  0  0  0  0  0  0  0  0  0  0  0
  150.1628  132.3338  157.1865 H   0  0  0  0  0  0  0  0  0  0  0  0
  149.9826  133.5834  155.2975 H   0  0  0  0  0  0  0  0  0  0  0  0
  149.4699  134.2503  153.7760 H   0  0  0  0  0  0  0  0  0  0  0  0
  151.3507  135.5577  154.6481 H   0  0  0  0  0  0  0  0  0  0  0  0
  150.5217  135.8765  156.1561 H   0  0  0  0  0  0  0  0  0  0  0  0
  153.1001  140.2200  158.7888 H   0  0  0  0  0  0  0  0  0  0  0  0
  153.9188  140.7749  160.9208 H   0  0  0  0  0  0  0  0  0  0  0  0
  152.7678  141.5579  161.9995 H   0  0  0  0  0  0  0  0  0  0  0  0
  154.0322  142.5098  161.2056 H   0  0  0  0  0  0  0  0  0  0  0  0
  149.6708  136.7119  153.4878 H   0  0  0  0  0  0  0  0  0  0  0  0
  149.2444  143.0701  156.3027 H   0  0  0  0  0  0  0  0  0  0  0  0
  1  2  1  0  0  0  0
  1 26  1  0  0  0  0
  1 27  1  0  0  0  0
  1 28  1  0  0  0  0
  2 24  1  0  0  0  0
  2  3  2  0  0  0  0
  3  4  1  0  0  0  0
  3 29  1  0  0  0  0
  4 22  2  0  0  0  0
  4  5  1  0  0  0  0
  5  6  2  0  0  0  0
  5 57  1  0  0  0  0
  6  7  1  0  0  0  0
  6 30  1  0  0  0  0
  7  8  1  0  0  0  0
  7 22  1  0  0  0  0
  8  9  1  0  0  0  0
  8 31  1  0  0  0  0
  8 32  1  0  0  0  0
  9 10  1  0  0  0  0
  9 11  1  0  0  0  0
  9 33  1  0  0  0  0
 10 34  1  0  0  0  0
 11 12  1  0  0  0  0
 11 35  1  0  0  0  0
 11 36  1  0  0  0  0
 12 21  1  0  0  0  0
 12 13  1  0  0  0  0
 12 56  1  0  0  0  0
 13 14  1  0  0  0  0
 13 37  1  0  0  0  0
 13 38  1  0  0  0  0
 14 15  1  0  0  0  0
 14 39  1  0  0  0  0
 14 40  1  0  0  0  0
 15 16  1  0  0  0  0
 15 20  1  0  0  0  0
 16 17  1  0  0  0  0
 16 41  1  0  0  0  0
 16 42  1  0  0  0  0
 17 18  1  0  0  0  0
 17 19  1  0  0  0  0
 17 43  1  0  0  0  0
 18 44  1  0  0  0  0
 18 45  1  0  0  0  0
 18 46  1  0  0  0  0
 19 47  1  0  0  0  0
 20 21  1  0  0  0  0
 20 48  1  0  0  0  0
 20 49  1  0  0  0  0
 21 50  1  0  0  0  0
 21 51  1  0  0  0  0
 22 23  1  0  0  0  0
 23 24  2  0  0  0  0
 23 52  1  0  0  0  0
 24 25  1  0  0  0  0
 25 53  1  0  0  0  0
 25 54  1  0  0  0  0
 25 55  1  0  0  0  0
M  CHG  1   5   1
M  CHG  1  12   1
M  END
> <s_m_source_file>
AV-unprocessed.smi

> <i_m_source_file_index>
1033

> <i_lp_mmshare_version>
43012

> <i_f3d_flags>
0

> <s_epik_input>
W0NIM11jKFtjSF0xKWMoW0NIM10pW2NIXWMoYzEyKW4oW2NIXW4yKVtDSDJdW0NASF0oW09IXSlbQ0gyXU4zW0NIMl1bQ0gyXU4oW0NIMl1bQ0gyXTMpW0NIMl1bQ0BIXShbQ0gzXSlbT0hd

> <s_epik_cmdline>
J2VwaWtfcHl0aG9uJywgJy1waCcsICc3LjAnLCAnLXRuJywgJzgnLCAnLW1hJywgJzIwMCcsICctbWV0YWxfYmluZGluZycsICctaW1hZScsICc8aW5maWxlLm1hZT4nLCAnLW9tYWUnLCAnPG91dGZpbGUubWFlPic=

> <r_epik_Ionization_Penalty>
1.22049

> <r_epik_Ionization_Penalty_Charging>
1.17952

> <r_epik_Ionization_Penalty_Neutral>
0.0409743

> <r_epik_State_Penalty>
1.61468

> <r_epik_Charging_Adjusted_Penalty>
2.7942

> <i_epik_Tot_Q>
2

> <i_epik_Tot_abs_Q>
2

> <r_epik_Metal_State_Penalty>
5.63169

> <b_epik_Metal_Only>
0

> <s_lp_Force_Field>
OPLS_2005

> <r_lp_Energy>
46.1755

> <b_lp_Chiralities_Consistent>
1

> <s_lp_Variant>
AV-unprocessed.smi:1033-12

> <Gold.Version>
5.8.1

> <Gold.Id.Protein>
6NUR|6NUR_protein|mol2

> <Gold.PLP.Fitness>
55.7714

> <Gold.PLP.PLP>
-42.1077

> <Gold.PLP.part.hbond>
-3.0000

> <Gold.PLP.part.metal>
0.0000

> <Gold.PLP.part.buried>
-5.8001

> <Gold.PLP.part.nonpolar>
-33.4300

> <Gold.PLP.part.repulsive>
0.1398

> <Gold.PLP.ligand.clash>
0.0000

> <Gold.PLP.ligand.torsion>
0.7258

> <Gold.PLP.Chemscore.Hbond>
5.0000

> <Gold.PLP.Chemscore.CHOScore>
0.0000

> <Gold.PLP.Chemscore.Metal>
0.0000

> <Gold.Chemscore.Hbonds>
donor molecule, donor type, donor heavy atom, donor atom, acceptor molecule, acceptor atom, score
      L1  H     5    57       P1  8028  1.86
      L1  H    12    56       P1  7948  2.00
      P1  H  6896  6907       L1    19  0.98

> <Gold.PLP.Chemscore.Internal.Correction>
0.1153

> <Gold.Rescore>
     Score         DG    S(hbond)    S(metal)    S(lipo)     H(rot)  DE(clash)    DE(int)     intcor
     18.92     -19.92       2.85        0.00     110.90       3.15       0.01       0.99       ----

> <Gold.Chemscore.Fitness>
18.9226

> <Gold.Chemscore.DG>
-19.9179

> <Gold.Chemscore.ZeroCoef>
-5.4800

> <Gold.Chemscore.Hbond>
2.8509

> <Gold.Chemscore.Metal>
0.0000

> <Gold.Chemscore.Lipo>
110.9026

> <Gold.Chemscore.Internal_Hbond>
0.0000

> <Gold.Chemscore.DEClash>
0.0093

> <Gold.Chemscore.DEInternal>
0.9860

> <Gold.Chemscore.Rot>
3.1483

> <Gold.Chemscore.Internal.Correction>
   9.000000E+99

> <Gold.Chemscore.Hbonds>
donor molecule, donor type, donor heavy atom, donor atom, acceptor molecule, acceptor atom, score
      L1  H     5    57       P1  8028  0.91
      L1  H    12    56       P1  7948  0.55
      P1  H  6896  6907       L1    19  0.82

> <Gold.Chemscore.Hbond.Weighted>
-9.5220

> <Gold.Chemscore.Metal.Weighted>
-0.0000

> <Gold.Chemscore.Lipo.Weighted>
-12.9756

> <Gold.Chemscore.Internal_Hbond.Weighted>
0.0000

> <Gold.Chemscore.DEClash.Weighted>
0.0093

> <Gold.Chemscore.DEInternal.Weighted>
0.9860

> <Gold.Chemscore.Rot.Weighted>
8.0597

> <Gold.Chemscore.Internal.Correction.Weighted>
   9.000000E+99

> <Gold.Protein.RotatedTorsions>
[ 6907 6896 6895 6894 ] final -121.71 input  -60.11 | X-H torsion
[ 7974 7965 7964 7962 ] final  157.31 input  175.53 | X-H torsion
[ 8008 7997 7996 7995 ] final  -81.63 input   59.86 | X-H torsion
[ 10167 10162 10161 10158 ] final   37.72 input  -65.29 | X-H torsion
[ 10718 10713 10712 10709 ] final -128.55 input   66.30 | X-H torsion
[ 10763 10752 10751 10750 ] final -179.80 input  -60.55 | X-H torsion
[ 11005 11000 10999 10996 ] final  -20.11 input  -57.11 | X-H torsion

> <Gold.Protein.ActiveResidues>
 VAL166  LYS551  ARG553  GLY616  TRP617  ASP618  TYR619  PRO620  LYS621  CYS622 
 ASP623  PHE694  ASN695  SER759  ASP760  ASP761  ALA762  ILE779  LEU786  VAL792 
 PHE793  MET794  SER795  GLU796  ALA797  LYS798  CYS799  TRP800  GLU811  SER814 

> <Gold.Protein.RotatedAtoms>
  150.8508  133.7790  159.3026 H   0  0  0  0  0  0  0  0  0  0  0  0  # atno 6907 bound_to 6896
  151.5463  135.1066  159.9948 H   0  0  0  0  0  0  0  0  0  0  0  0  # atno 6908 bound_to 6896
  152.4551  133.7663  159.6830 H   0  0  0  0  0  0  0  0  0  0  0  0  # atno 6909 bound_to 6896
  144.7911  139.7323  143.6221 H   0  0  0  0  0  0  0  0  0  0  0  0  # atno 7974 bound_to 7965
  154.6003  140.0645  156.9360 H   0  0  0  0  0  0  0  0  0  0  0  0  # atno 8008 bound_to 7997
  155.2143  140.3325  155.4306 H   0  0  0  0  0  0  0  0  0  0  0  0  # atno 8009 bound_to 7997
  156.2314  140.1842  156.7216 H   0  0  0  0  0  0  0  0  0  0  0  0  # atno 8010 bound_to 7997
  140.4005  144.1729  150.6133 H   0  0  0  0  0  0  0  0  0  0  0  0  # atno 10167 bound_to 10162
  156.1961  130.6827  151.0483 H   0  0  0  0  0  0  0  0  0  0  0  0  # atno 10718 bound_to 10713
  154.5305  135.2799  155.1184 H   0  0  0  0  0  0  0  0  0  0  0  0  # atno 10763 bound_to 10752
  154.2706  135.6304  153.5312 H   0  0  0  0  0  0  0  0  0  0  0  0  # atno 10764 bound_to 10752
  152.9956  135.5627  154.5817 H   0  0  0  0  0  0  0  0  0  0  0  0  # atno 10765 bound_to 10752
  140.8432  133.7911  155.9883 H   0  0  0  0  0  0  0  0  0  0  0  0  # atno 11005 bound_to 11000
  146.2163  139.5555  142.9648 LP  0  0  0  0  0  0  0  0  0  0  0  0  # atno 17320 bound_to 7965
  145.5792  141.0384  143.2131 LP  0  0  0  0  0  0  0  0  0  0  0  0  # atno 17321 bound_to 7965
  140.4744  143.2401  151.9043 LP  0  0  0  0  0  0  0  0  0  0  0  0  # atno 17342 bound_to 10162
  139.4785  144.5335  151.8632 LP  0  0  0  0  0  0  0  0  0  0  0  0  # atno 17343 bound_to 10162
  157.6958  131.0794  150.6972 LP  0  0  0  0  0  0  0  0  0  0  0  0  # atno 17370 bound_to 10713
  156.7029  130.4628  149.5568 LP  0  0  0  0  0  0  0  0  0  0  0  0  # atno 17371 bound_to 10713
  140.8872  134.2539  157.5113 LP  0  0  0  0  0  0  0  0  0  0  0  0  # atno 17394 bound_to 11000
  139.8703  134.9644  156.4494 LP  0  0  0  0  0  0  0  0  0  0  0  0  # atno 17395 bound_to 11000

$$$$
