AV-unprocessed.smi:2519|AV-procd|sdf|9906|dock8
  -GOLD-   2272013543D 1   1.00000     0.00000
 Structure written by MMmdl.
 43 44  0  0  0  0  0  0  0  0  1 V2000
  147.7810  133.7473  161.6941 C   0  0  0  0  0  0  0  0  0  0  0  0
  146.7879  133.0063  160.9327 N   0  0  0  0  0  0  0  0  0  0  0  0
  145.5928  132.6223  161.4111 C   0  0  0  0  0  0  0  0  0  0  0  0
  145.2233  132.8600  162.5620 O   0  0  0  0  0  0  0  0  0  0  0  0
  144.7167  131.8510  160.4582 C   0  0  0  0  0  0  0  0  0  0  0  0
  143.4973  131.2970  160.9077 C   0  0  0  0  0  0  0  0  0  0  0  0
  142.6989  130.5879  159.9928 C   0  0  0  0  0  0  0  0  0  0  0  0
  143.1416  130.4543  158.6640 C   0  0  0  0  0  0  0  0  0  0  0  0
  144.3712  131.0335  158.2842 C   0  0  0  0  0  0  0  0  0  0  0  0
  144.7379  130.8379  156.9272 N   0  0  0  0  0  0  0  0  0  0  0  0
  145.8766  131.2085  156.3078 C   0  0  0  0  0  0  0  0  0  0  0  0
  146.7780  131.8618  156.8306 O   0  0  0  0  0  0  0  0  0  0  0  0
  145.9652  130.8057  155.0268 N   0  0  0  0  0  0  0  0  0  0  0  0
  147.0512  131.0297  154.0664 C   0  0  1  0  0  0  0  0  0  0  0  0
  147.4818  129.6903  153.4386 C   0  0  0  0  0  0  0  0  0  0  0  0
  146.4158  129.1286  152.4822 C   0  0  0  0  0  0  0  0  0  0  0  0
  146.0384  130.1514  151.3990 C   0  0  0  0  0  0  0  0  0  0  0  0
  145.5681  131.4867  152.0129 C   0  0  2  0  0  0  0  0  0  0  0  0
  145.1734  132.5147  150.9325 C   0  0  0  0  0  0  0  0  0  0  0  0
  144.0673  132.1318  150.2941 F   0  0  0  0  0  0  0  0  0  0  0  0
  144.9581  133.7056  151.4916 F   0  0  0  0  0  0  0  0  0  0  0  0
  146.1599  132.6447  150.0455 F   0  0  0  0  0  0  0  0  0  0  0  0
  146.6505  132.0399  152.9666 C   0  0  0  0  0  0  0  0  0  0  0  0
  145.1299  131.7170  159.1748 N   0  0  0  0  0  0  0  0  0  0  0  0
  148.6612  133.9286  161.0774 H   0  0  0  0  0  0  0  0  0  0  0  0
  148.0917  133.1865  162.5765 H   0  0  0  0  0  0  0  0  0  0  0  0
  147.3842  134.7114  162.0148 H   0  0  0  0  0  0  0  0  0  0  0  0
  147.0147  132.7677  159.9774 H   0  0  0  0  0  0  0  0  0  0  0  0
  143.1725  131.4081  161.9322 H   0  0  0  0  0  0  0  0  0  0  0  0
  141.7619  130.1515  160.3056 H   0  0  0  0  0  0  0  0  0  0  0  0
  142.5418  129.9102  157.9488 H   0  0  0  0  0  0  0  0  0  0  0  0
  144.0750  130.3210  156.3687 H   0  0  0  0  0  0  0  0  0  0  0  0
  145.1754  130.2862  154.6715 H   0  0  0  0  0  0  0  0  0  0  0  0
  147.9111  131.4244  154.6102 H   0  0  0  0  0  0  0  0  0  0  0  0
  148.4109  129.8375  152.8860 H   0  0  0  0  0  0  0  0  0  0  0  0
  147.7069  128.9614  154.2183 H   0  0  0  0  0  0  0  0  0  0  0  0
  146.7843  128.2153  152.0145 H   0  0  0  0  0  0  0  0  0  0  0  0
  145.5251  128.8460  153.0447 H   0  0  0  0  0  0  0  0  0  0  0  0
  146.8977  130.3254  150.7505 H   0  0  0  0  0  0  0  0  0  0  0  0
  145.2554  129.7329  150.7662 H   0  0  0  0  0  0  0  0  0  0  0  0
  144.6731  131.2832  152.6031 H   0  0  0  0  0  0  0  0  0  0  0  0
  146.3118  132.9739  153.4148 H   0  0  0  0  0  0  0  0  0  0  0  0
  147.5385  132.2964  152.3876 H   0  0  0  0  0  0  0  0  0  0  0  0
  1  2  1  0  0  0  0
  1 25  1  0  0  0  0
  1 26  1  0  0  0  0
  1 27  1  0  0  0  0
  2  3  1  0  0  0  0
  2 28  1  0  0  0  0
  3  4  2  0  0  0  0
  3  5  1  0  0  0  0
  5 24  1  0  0  0  0
  5  6  2  0  0  0  0
  6  7  1  0  0  0  0
  6 29  1  0  0  0  0
  7  8  2  0  0  0  0
  7 30  1  0  0  0  0
  8  9  1  0  0  0  0
  8 31  1  0  0  0  0
  9 10  1  0  0  0  0
  9 24  2  0  0  0  0
 10 11  1  0  0  0  0
 10 32  1  0  0  0  0
 11 12  2  0  0  0  0
 11 13  1  0  0  0  0
 13 14  1  0  0  0  0
 13 33  1  0  0  0  0
 14 23  1  0  0  0  0
 14 15  1  0  0  0  0
 14 34  1  0  0  0  0
 15 16  1  0  0  0  0
 15 35  1  0  0  0  0
 15 36  1  0  0  0  0
 16 17  1  0  0  0  0
 16 37  1  0  0  0  0
 16 38  1  0  0  0  0
 17 18  1  0  0  0  0
 17 39  1  0  0  0  0
 17 40  1  0  0  0  0
 18 19  1  0  0  0  0
 18 23  1  0  0  0  0
 18 41  1  0  0  0  0
 19 20  1  0  0  0  0
 19 21  1  0  0  0  0
 19 22  1  0  0  0  0
 23 42  1  0  0  0  0
 23 43  1  0  0  0  0
M  END
> <s_m_source_file>
AV-unprocessed.smi

> <i_m_source_file_index>
2519

> <i_lp_mmshare_version>
43012

> <i_f3d_flags>
0

> <s_epik_input>
W0NIM11bTkhdQyg9TyljMVtjSF1bY0hdW2NIXWMobjEpW05IXUMoPU8pW05IXVtDQEBIXTJbQ0gyXVtDSDJdW0NIMl1bQ0BASF0oQyhGKShGKUYpW0NIMl0y

> <s_epik_cmdline>
J2VwaWtfcHl0aG9uJywgJy1waCcsICc3LjAnLCAnLXRuJywgJzgnLCAnLW1hJywgJzIwMCcsICctbWV0YWxfYmluZGluZycsICctaW1hZScsICc8aW5maWxlLm1hZT4nLCAnLW9tYWUnLCAnPG91dGZpbGUubWFlPic=

> <r_lp_tautomer_probability>
1

> <r_epik_Ionization_Penalty>
3.74915e-05

> <r_epik_Ionization_Penalty_Charging>
0

> <r_epik_Ionization_Penalty_Neutral>
3.74915e-05

> <r_epik_State_Penalty>
-0

> <r_epik_Charging_Adjusted_Penalty>
0

> <i_epik_Tot_Q>
0

> <i_epik_Tot_abs_Q>
0

> <r_epik_Metal_State_Penalty>
-0

> <b_epik_Metal_Only>
0

> <s_lp_Force_Field>
OPLS_2005

> <r_lp_Energy>
26.6361

> <b_lp_Chiralities_Consistent>
1

> <s_lp_Variant>
AV-unprocessed.smi:2519-4

> <Gold.Version>
5.8.1

> <Gold.Id.Protein>
6NUR|6NUR_protein|mol2

> <Gold.PLP.Fitness>
39.6151

> <Gold.PLP.PLP>
-34.1388

> <Gold.PLP.part.hbond>
-3.0000

> <Gold.PLP.part.metal>
0.0000

> <Gold.PLP.part.buried>
-4.8006

> <Gold.PLP.part.nonpolar>
-26.7072

> <Gold.PLP.part.repulsive>
0.1302

> <Gold.PLP.ligand.clash>
0.0000

> <Gold.PLP.ligand.torsion>
0.2742

> <Gold.PLP.Chemscore.Hbond>
2.0000

> <Gold.PLP.Chemscore.CHOScore>
0.0000

> <Gold.PLP.Chemscore.Metal>
0.0000

> <Gold.Chemscore.Hbonds>
donor molecule, donor type, donor heavy atom, donor atom, acceptor molecule, acceptor atom, score
      L1  H    10    32       P1 10956  1.00
      L1  H    13    33       P1 10956  1.00

> <Gold.PLP.Chemscore.Internal.Correction>
0.0247

> <Gold.Rescore>
     Score         DG    S(hbond)    S(metal)    S(lipo)     H(rot)  DE(clash)    DE(int)     intcor
     15.00     -16.74       1.55        0.00      73.91       1.00       0.03       1.71       ----

> <Gold.Chemscore.Fitness>
15.0032

> <Gold.Chemscore.DG>
-16.7436

> <Gold.Chemscore.ZeroCoef>
-5.4800

> <Gold.Chemscore.Hbond>
1.5497

> <Gold.Chemscore.Metal>
0.0000

> <Gold.Chemscore.Lipo>
73.9119

> <Gold.Chemscore.Internal_Hbond>
0.0000

> <Gold.Chemscore.DEClash>
0.0283

> <Gold.Chemscore.DEInternal>
1.7120

> <Gold.Chemscore.Rot>
1.0000

> <Gold.Chemscore.Internal.Correction>
   9.000000E+99

> <Gold.Chemscore.Hbonds>
donor molecule, donor type, donor heavy atom, donor atom, acceptor molecule, acceptor atom, score
      L1  H    10    32       P1 10956  0.35
      L1  H    13    33       P1 10956  0.31

> <Gold.Chemscore.Hbond.Weighted>
-5.1759

> <Gold.Chemscore.Metal.Weighted>
-0.0000

> <Gold.Chemscore.Lipo.Weighted>
-8.6477

> <Gold.Chemscore.Internal_Hbond.Weighted>
0.0000

> <Gold.Chemscore.DEClash.Weighted>
0.0283

> <Gold.Chemscore.DEInternal.Weighted>
1.7120

> <Gold.Chemscore.Rot.Weighted>
2.5600

> <Gold.Chemscore.Internal.Correction.Weighted>
   9.000000E+99

> <Gold.Protein.RotatedTorsions>
[ 6907 6896 6895 6894 ] final  136.15 input  -60.11 | X-H torsion
[ 7974 7965 7964 7962 ] final -119.19 input  175.53 | X-H torsion
[ 8008 7997 7996 7995 ] final -133.40 input   59.86 | X-H torsion
[ 10167 10162 10161 10158 ] final  141.39 input  -65.29 | X-H torsion
[ 10718 10713 10712 10709 ] final -154.89 input   66.30 | X-H torsion
[ 10763 10752 10751 10750 ] final -111.92 input  -60.55 | X-H torsion
[ 11005 11000 10999 10996 ] final  -68.42 input  -57.11 | X-H torsion

> <Gold.Protein.ActiveResidues>
 VAL166  LYS551  ARG553  GLY616  TRP617  ASP618  TYR619  PRO620  LYS621  CYS622 
 ASP623  PHE694  ASN695  SER759  ASP760  ASP761  ALA762  ILE779  LEU786  VAL792 
 PHE793  MET794  SER795  GLU796  ALA797  LYS798  CYS799  TRP800  GLU811  SER814 

> <Gold.Protein.RotatedAtoms>
  152.2926  133.5576  159.5566 H   0  0  0  0  0  0  0  0  0  0  0  0  # atno 6907 bound_to 6896
  150.7242  134.0407  159.3773 H   0  0  0  0  0  0  0  0  0  0  0  0  # atno 6908 bound_to 6896
  151.8312  135.0621  160.0488 H   0  0  0  0  0  0  0  0  0  0  0  0  # atno 6909 bound_to 6896
  145.0653  140.8320  143.4128 H   0  0  0  0  0  0  0  0  0  0  0  0  # atno 7974 bound_to 7965
  155.3448  140.0474  157.3045 H   0  0  0  0  0  0  0  0  0  0  0  0  # atno 8008 bound_to 7997
  154.5258  140.2240  155.8858 H   0  0  0  0  0  0  0  0  0  0  0  0  # atno 8009 bound_to 7997
  156.1737  140.3090  155.9027 H   0  0  0  0  0  0  0  0  0  0  0  0  # atno 8010 bound_to 7997
  139.5022  144.6174  151.6131 H   0  0  0  0  0  0  0  0  0  0  0  0  # atno 10167 bound_to 10162
  156.5054  130.8410  151.2626 H   0  0  0  0  0  0  0  0  0  0  0  0  # atno 10718 bound_to 10713
  154.8324  135.4510  154.1113 H   0  0  0  0  0  0  0  0  0  0  0  0  # atno 10763 bound_to 10752
  153.2375  135.6912  153.7827 H   0  0  0  0  0  0  0  0  0  0  0  0  # atno 10764 bound_to 10752
  153.7186  135.3345  155.3238 H   0  0  0  0  0  0  0  0  0  0  0  0  # atno 10765 bound_to 10752
  141.1531  133.6740  156.6443 H   0  0  0  0  0  0  0  0  0  0  0  0  # atno 11005 bound_to 11000
  145.1359  139.2602  143.5515 LP  0  0  0  0  0  0  0  0  0  0  0  0  # atno 17320 bound_to 7965
  146.3526  140.1023  142.8607 LP  0  0  0  0  0  0  0  0  0  0  0  0  # atno 17321 bound_to 7965
  140.5866  143.9853  150.6299 LP  0  0  0  0  0  0  0  0  0  0  0  0  # atno 17342 bound_to 10162
  140.3020  143.3254  152.0963 LP  0  0  0  0  0  0  0  0  0  0  0  0  # atno 17343 bound_to 10162
  157.7457  130.9967  150.2791 LP  0  0  0  0  0  0  0  0  0  0  0  0  # atno 17370 bound_to 10713
  156.3292  130.3797  149.7506 LP  0  0  0  0  0  0  0  0  0  0  0  0  # atno 17371 bound_to 10713
  140.3369  134.7882  157.4368 LP  0  0  0  0  0  0  0  0  0  0  0  0  # atno 17394 bound_to 11000
  140.0970  134.5524  155.8389 LP  0  0  0  0  0  0  0  0  0  0  0  0  # atno 17395 bound_to 11000

$$$$
