AV-unprocessed.smi:2124|AV-procd|sdf|8656|dock10
  -GOLD-   2272011403D 1   1.00000     0.00000
 Structure written by MMmdl.
 47 49  0  0  0  0  0  0  0  0  1 V2000
  146.5680  139.4843  150.7516 C   0  0  0  0  0  0  0  0  0  0  0  0
  147.0255  139.8984  152.1341 C   0  0  0  0  0  0  0  0  0  0  0  0
  146.7557  141.0429  152.6697 N   0  0  0  0  0  0  0  0  0  0  0  0
  147.2273  141.3101  153.9622 C   0  0  0  0  0  0  0  0  0  0  0  0
  146.8454  142.6664  154.5297 C   0  0  0  0  0  0  0  0  0  0  0  0
  147.9652  140.3963  154.6588 C   0  0  0  0  0  0  0  0  0  0  0  0
  148.4557  140.6409  156.0867 C   0  0  0  0  0  0  0  0  0  0  0  0
  149.9739  140.7568  156.2242 C   0  0  0  0  0  0  0  0  0  0  0  0
  150.6763  140.9288  155.2286 O   0  0  0  0  0  0  0  0  0  0  0  0
  150.4535  140.7060  157.4757 N   0  0  0  0  0  0  0  0  0  0  0  0
  151.8054  141.0669  157.8871 C   0  0  2  0  0  0  0  0  0  0  0  0
  152.6149  139.7940  158.1791 C   0  0  0  0  0  0  0  0  0  0  0  0
  151.7263  142.0091  159.1118 C   0  0  1  0  0  0  0  0  0  0  0  0
  153.0917  142.5061  159.6365 C   0  0  0  0  0  0  0  0  0  0  0  0
  152.8894  144.0301  159.7371 C   0  0  1  0  0  0  0  0  0  0  0  0
  152.8846  144.6341  158.3203 C   0  0  0  0  0  0  0  0  0  0  0  0
  151.5258  144.1752  157.7611 C   0  0  0  0  0  0  0  0  0  0  0  0
  150.9473  143.3370  158.9194 C   0  0  2  0  0  0  0  0  0  0  0  0
  151.4199  144.1362  160.1286 C   0  0  0  0  0  0  0  0  0  0  0  0
  148.2727  139.0948  154.0339 C   0  0  0  0  0  0  0  0  0  0  0  0
  148.9178  138.1975  154.5736 O   0  0  0  0  0  0  0  0  0  0  0  0
  147.7736  138.9224  152.7897 N   0  0  0  0  0  0  0  0  0  0  0  0
  147.9528  138.0460  152.3212 H   0  0  0  0  0  0  0  0  0  0  0  0
  145.4798  139.5122  150.6932 H   0  0  0  0  0  0  0  0  0  0  0  0
  146.8972  138.4743  150.5033 H   0  0  0  0  0  0  0  0  0  0  0  0
  146.9693  140.1679  150.0032 H   0  0  0  0  0  0  0  0  0  0  0  0
  146.2400  142.5509  155.4287 H   0  0  0  0  0  0  0  0  0  0  0  0
  146.2647  143.2466  153.8116 H   0  0  0  0  0  0  0  0  0  0  0  0
  147.7357  143.2429  154.7807 H   0  0  0  0  0  0  0  0  0  0  0  0
  148.0001  141.5375  156.5084 H   0  0  0  0  0  0  0  0  0  0  0  0
  148.1087  139.8261  156.7228 H   0  0  0  0  0  0  0  0  0  0  0  0
  149.7930  140.5280  158.2186 H   0  0  0  0  0  0  0  0  0  0  0  0
  152.3019  141.5987  157.0738 H   0  0  0  0  0  0  0  0  0  0  0  0
  153.6370  140.0339  158.4719 H   0  0  0  0  0  0  0  0  0  0  0  0
  152.6695  139.1537  157.2980 H   0  0  0  0  0  0  0  0  0  0  0  0
  152.1656  139.2129  158.9851 H   0  0  0  0  0  0  0  0  0  0  0  0
  151.2315  141.4636  159.9177 H   0  0  0  0  0  0  0  0  0  0  0  0
  153.3035  142.0743  160.6154 H   0  0  0  0  0  0  0  0  0  0  0  0
  153.9223  142.2516  158.9773 H   0  0  0  0  0  0  0  0  0  0  0  0
  153.5861  144.5193  160.4180 H   0  0  0  0  0  0  0  0  0  0  0  0
  152.9344  145.7228  158.3599 H   0  0  0  0  0  0  0  0  0  0  0  0
  153.7225  144.2819  157.7176 H   0  0  0  0  0  0  0  0  0  0  0  0
  150.8876  145.0367  157.5603 H   0  0  0  0  0  0  0  0  0  0  0  0
  151.6192  143.6198  156.8287 H   0  0  0  0  0  0  0  0  0  0  0  0
  149.8660  143.2074  158.8629 H   0  0  0  0  0  0  0  0  0  0  0  0
  151.1897  143.6592  161.0829 H   0  0  0  0  0  0  0  0  0  0  0  0
  151.0479  145.1624  160.1432 H   0  0  0  0  0  0  0  0  0  0  0  0
  1  2  1  0  0  0  0
  1 24  1  0  0  0  0
  1 25  1  0  0  0  0
  1 26  1  0  0  0  0
  2 22  1  0  0  0  0
  2  3  2  0  0  0  0
  3  4  1  0  0  0  0
  4  5  1  0  0  0  0
  4  6  2  0  0  0  0
  5 27  1  0  0  0  0
  5 28  1  0  0  0  0
  5 29  1  0  0  0  0
  6  7  1  0  0  0  0
  6 20  1  0  0  0  0
  7  8  1  0  0  0  0
  7 30  1  0  0  0  0
  7 31  1  0  0  0  0
  8  9  2  0  0  0  0
  8 10  1  0  0  0  0
 10 11  1  0  0  0  0
 10 32  1  0  0  0  0
 11 12  1  0  0  0  0
 11 13  1  0  0  0  0
 11 33  1  0  0  0  0
 12 34  1  0  0  0  0
 12 35  1  0  0  0  0
 12 36  1  0  0  0  0
 13 18  1  0  0  0  0
 13 14  1  0  0  0  0
 13 37  1  0  0  0  0
 14 15  1  0  0  0  0
 14 38  1  0  0  0  0
 14 39  1  0  0  0  0
 15 19  1  0  0  0  0
 15 16  1  0  0  0  0
 15 40  1  0  0  0  0
 16 17  1  0  0  0  0
 16 41  1  0  0  0  0
 16 42  1  0  0  0  0
 17 18  1  0  0  0  0
 17 43  1  0  0  0  0
 17 44  1  0  0  0  0
 18 19  1  0  0  0  0
 18 45  1  0  0  0  0
 19 46  1  0  0  0  0
 19 47  1  0  0  0  0
 20 21  2  0  0  0  0
 20 22  1  0  0  0  0
 22 23  1  0  0  0  0
M  END
> <s_m_source_file>
AV-unprocessed.smi

> <i_m_source_file_index>
2124

> <i_lp_mmshare_version>
43012

> <i_f3d_flags>
0

> <s_epik_input>
W0NIM11jMW5jKFtDSDNdKWMoYyg9TylbbkhdMSlbQ0gyXUMoPU8pW05IXVtDQEhdKFtDSDNdKVtDQEhdKFtDSDJdW0NASF0yMylbQ0BIXShbQ0gyXTMpW0NIMl1bQ0gyXTI=

> <s_epik_cmdline>
J2VwaWtfcHl0aG9uJywgJy1waCcsICc3LjAnLCAnLXRuJywgJzgnLCAnLW1hJywgJzIwMCcsICctbWV0YWxfYmluZGluZycsICctaW1hZScsICc8aW5maWxlLm1hZT4nLCAnLW9tYWUnLCAnPG91dGZpbGUubWFlPic=

> <r_lp_tautomer_probability>
0.839158

> <r_epik_Ionization_Penalty>
0.000383628

> <r_epik_Ionization_Penalty_Charging>
0.00035045

> <r_epik_Ionization_Penalty_Neutral>
3.31781e-05

> <r_epik_State_Penalty>
0.09125

> <r_epik_Charging_Adjusted_Penalty>
0.0916005

> <i_epik_Tot_Q>
0

> <i_epik_Tot_abs_Q>
0

> <r_epik_Metal_State_Penalty>
0.255229

> <b_epik_Metal_Only>
0

> <s_lp_Force_Field>
OPLS_2005

> <r_lp_Energy>
50.9321

> <b_lp_Chiralities_Consistent>
1

> <s_lp_Variant>
AV-unprocessed.smi:2124-7

> <Gold.Version>
5.8.1

> <Gold.Id.Protein>
6NUR|6NUR_protein|mol2

> <Gold.PLP.Fitness>
46.0042

> <Gold.PLP.PLP>
-41.0371

> <Gold.PLP.part.hbond>
-2.9941

> <Gold.PLP.part.metal>
0.0000

> <Gold.PLP.part.buried>
1.1796

> <Gold.PLP.part.nonpolar>
-39.9451

> <Gold.PLP.part.repulsive>
0.6459

> <Gold.PLP.ligand.clash>
0.0000

> <Gold.PLP.ligand.torsion>
0.3700

> <Gold.PLP.Chemscore.Hbond>
1.8960

> <Gold.PLP.Chemscore.CHOScore>
0.0000

> <Gold.PLP.Chemscore.Metal>
0.0000

> <Gold.Chemscore.Hbonds>
donor molecule, donor type, donor heavy atom, donor atom, acceptor molecule, acceptor atom, score
      L1  H    22    23       P1  7948  0.83
      P1  H  7989  7998       L1     9  0.75

> <Gold.PLP.Chemscore.Internal.Correction>
0.0191

> <Gold.Rescore>
     Score         DG    S(hbond)    S(metal)    S(lipo)     H(rot)  DE(clash)    DE(int)     intcor
     20.65     -22.30       1.80        0.00     128.67       1.65       1.28       0.36       ----

> <Gold.Chemscore.Fitness>
20.6549

> <Gold.Chemscore.DG>
-22.3000

> <Gold.Chemscore.ZeroCoef>
-5.4800

> <Gold.Chemscore.Hbond>
1.7957

> <Gold.Chemscore.Metal>
0.0000

> <Gold.Chemscore.Lipo>
128.6747

> <Gold.Chemscore.Internal_Hbond>
0.0000

> <Gold.Chemscore.DEClash>
1.2842

> <Gold.Chemscore.DEInternal>
0.3609

> <Gold.Chemscore.Rot>
1.6534

> <Gold.Chemscore.Internal.Correction>
   9.000000E+99

> <Gold.Chemscore.Hbonds>
donor molecule, donor type, donor heavy atom, donor atom, acceptor molecule, acceptor atom, score
      L1  H    22    23       P1  7948  0.82
      P1  H  7989  7998       L1     9  0.74

> <Gold.Chemscore.Hbond.Weighted>
-5.9977

> <Gold.Chemscore.Metal.Weighted>
-0.0000

> <Gold.Chemscore.Lipo.Weighted>
-15.0549

> <Gold.Chemscore.Internal_Hbond.Weighted>
0.0000

> <Gold.Chemscore.DEClash.Weighted>
1.2842

> <Gold.Chemscore.DEInternal.Weighted>
0.3609

> <Gold.Chemscore.Rot.Weighted>
4.2326

> <Gold.Chemscore.Internal.Correction.Weighted>
   9.000000E+99

> <Gold.Protein.RotatedTorsions>
[ 6907 6896 6895 6894 ] final  102.10 input  -60.11 | X-H torsion
[ 7974 7965 7964 7962 ] final -170.99 input  175.53 | X-H torsion
[ 8008 7997 7996 7995 ] final   36.49 input   59.86 | X-H torsion
[ 10167 10162 10161 10158 ] final   78.09 input  -65.29 | X-H torsion
[ 10718 10713 10712 10709 ] final -106.28 input   66.30 | X-H torsion
[ 10763 10752 10751 10750 ] final  168.87 input  -60.55 | X-H torsion
[ 11005 11000 10999 10996 ] final  150.80 input  -57.11 | X-H torsion

> <Gold.Protein.ActiveResidues>
 VAL166  LYS551  ARG553  GLY616  TRP617  ASP618  TYR619  PRO620  LYS621  CYS622 
 ASP623  PHE694  ASN695  SER759  ASP760  ASP761  ALA762  ILE779  LEU786  VAL792 
 PHE793  MET794  SER795  GLU796  ALA797  LYS798  CYS799  TRP800  GLU811  SER814 

> <Gold.Protein.RotatedAtoms>
  152.5332  134.0026  159.7901 H   0  0  0  0  0  0  0  0  0  0  0  0  # atno 6907 bound_to 6896
  151.0242  133.5841  159.2675 H   0  0  0  0  0  0  0  0  0  0  0  0  # atno 6908 bound_to 6896
  151.2869  135.0737  159.9243 H   0  0  0  0  0  0  0  0  0  0  0  0  # atno 6909 bound_to 6896
  144.7163  140.1990  143.6340 H   0  0  0  0  0  0  0  0  0  0  0  0  # atno 7974 bound_to 7965
  155.1883  140.3306  155.4363 H   0  0  0  0  0  0  0  0  0  0  0  0  # atno 8008 bound_to 7997
  156.2451  140.1914  156.6927 H   0  0  0  0  0  0  0  0  0  0  0  0  # atno 8009 bound_to 7997
  154.6223  140.0593  156.9616 H   0  0  0  0  0  0  0  0  0  0  0  0  # atno 8010 bound_to 7997
  139.9746  144.5870  150.7955 H   0  0  0  0  0  0  0  0  0  0  0  0  # atno 10167 bound_to 10162
  156.0383  130.5605  150.7658 H   0  0  0  0  0  0  0  0  0  0  0  0  # atno 10718 bound_to 10713
  154.3748  135.2753  155.2245 H   0  0  0  0  0  0  0  0  0  0  0  0  # atno 10763 bound_to 10752
  154.4377  135.5962  153.6112 H   0  0  0  0  0  0  0  0  0  0  0  0  # atno 10764 bound_to 10752
  152.9837  135.6011  154.3984 H   0  0  0  0  0  0  0  0  0  0  0  0  # atno 10765 bound_to 10752
  140.1162  134.8892  157.2008 H   0  0  0  0  0  0  0  0  0  0  0  0  # atno 11005 bound_to 11000
  145.8698  139.2266  143.1668 LP  0  0  0  0  0  0  0  0  0  0  0  0  # atno 17320 bound_to 7965
  146.0096  140.8448  142.9978 LP  0  0  0  0  0  0  0  0  0  0  0  0  # atno 17321 bound_to 7965
  140.7510  143.2965  151.3190 LP  0  0  0  0  0  0  0  0  0  0  0  0  # atno 17342 bound_to 10162
  139.6455  144.0459  152.2587 LP  0  0  0  0  0  0  0  0  0  0  0  0  # atno 17343 bound_to 10162
  157.5165  131.0929  151.0132 LP  0  0  0  0  0  0  0  0  0  0  0  0  # atno 17370 bound_to 10713
  157.0474  130.5773  149.5365 LP  0  0  0  0  0  0  0  0  0  0  0  0  # atno 17371 bound_to 10713
  140.3025  134.3116  155.7286 LP  0  0  0  0  0  0  0  0  0  0  0  0  # atno 17394 bound_to 11000
  141.2142  133.7600  156.9661 LP  0  0  0  0  0  0  0  0  0  0  0  0  # atno 17395 bound_to 11000

$$$$
