AV-unprocessed.smi:44|AV-procd|sdf|399|dock4
  -GOLD-   2262016253D 1   1.00000     0.00000
 Structure written by MMmdl.
 29 31  0  0  0  0  0  0  0  0  3 V2000
  150.9312  139.2623  154.0117 O   0  0  0  0  0  0  0  0  0  0  0  0
  151.4667  139.2200  155.1175 C   0  0  0  0  0  0  0  0  0  0  0  0
  152.2901  138.2440  155.6192 N   0  5  0  0  0  0  0  0  0  0  0  0
  152.8256  138.3252  156.8999 C   0  0  0  0  0  0  0  0  0  0  0  0
  152.6519  139.2635  157.7617 N   0  0  0  0  0  0  0  0  0  0  0  0
  151.8255  140.3153  157.3379 C   0  0  0  0  0  0  0  0  0  0  0  0
  151.2395  140.3368  156.0937 C   0  0  0  0  0  0  0  0  0  0  0  0
  150.4806  141.4684  155.9635 N   0  3  0  0  0  0  0  0  0  0  0  0
  150.6421  142.0828  157.1354 C   0  0  0  0  0  0  0  0  0  0  0  0
  151.4617  141.4457  158.0263 N   0  0  0  0  0  0  0  0  0  0  0  0
  151.8162  141.8729  159.4175 C   0  0  1  0  0  0  0  0  0  0  0  0
  153.2675  142.3535  159.4571 C   0  0  0  0  0  0  0  0  0  0  0  0
  153.1066  143.8040  159.0620 C   0  0  0  0  0  0  0  0  0  0  0  0
  151.8124  144.1721  159.7882 C   0  0  1  0  0  0  0  0  0  0  0  0
  151.0639  145.3459  159.1390 C   0  0  0  0  0  0  0  0  0  0  0  0
  149.7041  145.3175  159.5142 O   0  0  0  0  0  0  0  0  0  0  0  0
  151.0253  142.9783  159.7504 O   0  0  0  0  0  0  0  0  0  0  0  0
  149.9231  141.7630  155.1721 H   0  0  0  0  0  0  0  0  0  0  0  0
  151.6076  140.9996  160.0364 H   0  0  0  0  0  0  0  0  0  0  0  0
  152.0518  144.3958  160.8295 H   0  0  0  0  0  0  0  0  0  0  0  0
  153.4544  137.4626  157.1341 H   0  0  0  0  0  0  0  0  0  0  0  0
  150.1569  143.0137  157.3646 H   0  0  0  0  0  0  0  0  0  0  0  0
  153.6380  142.2697  160.4797 H   0  0  0  0  0  0  0  0  0  0  0  0
  153.9183  141.7808  158.7961 H   0  0  0  0  0  0  0  0  0  0  0  0
  153.9522  144.4239  159.3611 H   0  0  0  0  0  0  0  0  0  0  0  0
  152.9859  143.8893  157.9808 H   0  0  0  0  0  0  0  0  0  0  0  0
  151.4787  146.2915  159.4894 H   0  0  0  0  0  0  0  0  0  0  0  0
  151.1600  145.3346  158.0536 H   0  0  0  0  0  0  0  0  0  0  0  0
  149.1778  145.5413  158.7617 H   0  0  0  0  0  0  0  0  0  0  0  0
  1  2  2  0  0  0  0
  2  7  1  0  0  0  0
  2  3  1  0  0  0  0
  3  4  1  0  0  0  0
  4 21  1  0  0  0  0
  4  5  2  0  0  0  0
  5  6  1  0  0  0  0
  6 10  1  0  0  0  0
  6  7  2  0  0  0  0
  7  8  1  0  0  0  0
  8  9  2  0  0  0  0
  8 18  1  0  0  0  0
  9 10  1  0  0  0  0
  9 22  1  0  0  0  0
 10 11  1  0  0  0  0
 11 19  1  0  0  0  0
 11 17  1  0  0  0  0
 11 12  1  0  0  0  0
 12 13  1  0  0  0  0
 12 23  1  0  0  0  0
 12 24  1  0  0  0  0
 13 14  1  0  0  0  0
 13 25  1  0  0  0  0
 13 26  1  0  0  0  0
 14 20  1  0  0  0  0
 14 15  1  0  0  0  0
 14 17  1  0  0  0  0
 15 16  1  0  0  0  0
 15 27  1  0  0  0  0
 15 28  1  0  0  0  0
 16 29  1  0  0  0  0
M  CHG  1   3  -1
M  CHG  1   8   1
M  END
> <s_m_source_file>
AV-unprocessed.smi

> <i_m_source_file_index>
44

> <i_lp_mmshare_version>
43012

> <i_f3d_flags>
0

> <s_epik_input>
bjFbY0hdW25IXWMoPU8pYyhjMTIpbltjSF1uMltDQEhdM1tDSDJdW0NIMl1bQ0BIXShPMylbQ0gyXVtPSF0=

> <s_epik_cmdline>
J2VwaWtfcHl0aG9uJywgJy1waCcsICc3LjAnLCAnLXRuJywgJzgnLCAnLW1hJywgJzIwMCcsICctbWV0YWxfYmluZGluZycsICctaW1hZScsICc8aW5maWxlLm1hZT4nLCAnLW9tYWUnLCAnPG91dGZpbGUubWFlPic=

> <r_lp_tautomer_probability>
0.144281

> <r_epik_Ionization_Penalty>
5.63685

> <r_epik_Ionization_Penalty_Charging>
5.58669

> <r_epik_Ionization_Penalty_Neutral>
0.0501585

> <r_epik_State_Penalty>
1.20809

> <r_epik_Charging_Adjusted_Penalty>
6.79478

> <i_epik_Tot_Q>
0

> <i_epik_Tot_abs_Q>
2

> <r_epik_Metal_State_Penalty>
1.52487

> <b_epik_Metal_Only>
0

> <s_epik_Chemistry_Notes>
This compound contains an acetal/aminal-like group ( X-CH(R)-Y where X, Y are N, S, or O) that may be acid/base labile, releasing an aldehyde.

> <s_lp_Force_Field>
OPLS_2005

> <r_lp_Energy>
45.4458

> <b_lp_Chiralities_Consistent>
1

> <s_lp_Variant>
AV-unprocessed.smi:44-5

> <Gold.Version>
5.8.1

> <Gold.Id.Protein>
6NUR|6NUR_protein|mol2

> <Gold.PLP.Fitness>
40.3065

> <Gold.PLP.PLP>
-33.4448

> <Gold.PLP.part.hbond>
-4.1028

> <Gold.PLP.part.metal>
0.0000

> <Gold.PLP.part.buried>
-2.5189

> <Gold.PLP.part.nonpolar>
-27.1262

> <Gold.PLP.part.repulsive>
0.3408

> <Gold.PLP.ligand.clash>
0.0000

> <Gold.PLP.ligand.torsion>
0.4231

> <Gold.PLP.Chemscore.Hbond>
2.0351

> <Gold.PLP.Chemscore.CHOScore>
0.5252

> <Gold.PLP.Chemscore.Metal>
0.0000

> <Gold.Chemscore.Hbonds>
donor molecule, donor type, donor heavy atom, donor atom, acceptor molecule, acceptor atom, score
      L1  H    16    29       P1  8029  1.00
      P1  H  7989  7998       L1     1  0.85
      P1  H  7997  8009       L1     5  0.13
      L1  C     9    22       P1  8028  0.52

> <Gold.PLP.Chemscore.Internal.Correction>
0.0271

> <Gold.Rescore>
     Score         DG    S(hbond)    S(metal)    S(lipo)     H(rot)  DE(clash)    DE(int)     intcor
     10.27     -10.93       1.49        0.00      53.70       2.27       0.05       0.61       ----

> <Gold.Chemscore.Fitness>
10.2707

> <Gold.Chemscore.DG>
-10.9319

> <Gold.Chemscore.ZeroCoef>
-5.4800

> <Gold.Chemscore.Hbond>
1.4927

> <Gold.Chemscore.Metal>
0.0000

> <Gold.Chemscore.Lipo>
53.6968

> <Gold.Chemscore.Internal_Hbond>
0.0000

> <Gold.Chemscore.DEClash>
0.0495

> <Gold.Chemscore.DEInternal>
0.6117

> <Gold.Chemscore.Rot>
2.2720

> <Gold.Chemscore.Internal.Correction>
   9.000000E+99

> <Gold.Chemscore.Hbonds>
donor molecule, donor type, donor heavy atom, donor atom, acceptor molecule, acceptor atom, score
      L1  H    16    29       P1  8029  0.96
      P1  H  7989  7998       L1     1  0.14

> <Gold.Chemscore.Hbond.Weighted>
-4.9858

> <Gold.Chemscore.Metal.Weighted>
-0.0000

> <Gold.Chemscore.Lipo.Weighted>
-6.2825

> <Gold.Chemscore.Internal_Hbond.Weighted>
0.0000

> <Gold.Chemscore.DEClash.Weighted>
0.0495

> <Gold.Chemscore.DEInternal.Weighted>
0.6117

> <Gold.Chemscore.Rot.Weighted>
5.8164

> <Gold.Chemscore.Internal.Correction.Weighted>
   9.000000E+99

> <Gold.Protein.RotatedTorsions>
[ 6907 6896 6895 6894 ] final   87.79 input  -60.11 | X-H torsion
[ 7974 7965 7964 7962 ] final  -13.31 input  175.53 | X-H torsion
[ 8008 7997 7996 7995 ] final  153.45 input   59.86 | X-H torsion
[ 10167 10162 10161 10158 ] final -106.86 input  -65.29 | X-H torsion
[ 10718 10713 10712 10709 ] final -116.01 input   66.30 | X-H torsion
[ 10763 10752 10751 10750 ] final  158.31 input  -60.55 | X-H torsion
[ 11005 11000 10999 10996 ] final  -80.21 input  -57.11 | X-H torsion

> <Gold.Protein.ActiveResidues>
 VAL166  LYS551  ARG553  GLY616  TRP617  ASP618  TYR619  PRO620  LYS621  CYS622 
 ASP623  PHE694  ASN695  SER759  ASP760  ASP761  ALA762  ILE779  LEU786  VAL792 
 PHE793  MET794  SER795  GLU796  ALA797  LYS798  CYS799  TRP800  GLU811  SER814 

> <Gold.Protein.RotatedAtoms>
  152.5416  134.2222  159.8791 H   0  0  0  0  0  0  0  0  0  0  0  0  # atno 6907 bound_to 6896
  151.2199  133.4502  159.2608 H   0  0  0  0  0  0  0  0  0  0  0  0  # atno 6908 bound_to 6896
  151.0816  134.9874  159.8414 H   0  0  0  0  0  0  0  0  0  0  0  0  # atno 6909 bound_to 6896
  146.2119  140.3185  142.8388 H   0  0  0  0  0  0  0  0  0  0  0  0  # atno 7974 bound_to 7965
  156.2581  140.1993  156.6492 H   0  0  0  0  0  0  0  0  0  0  0  0  # atno 8008 bound_to 7997
  154.6549  140.0567  157.0023 H   0  0  0  0  0  0  0  0  0  0  0  0  # atno 8009 bound_to 7997
  155.1362  140.3238  155.4465 H   0  0  0  0  0  0  0  0  0  0  0  0  # atno 8010 bound_to 7997
  140.1832  143.3950  152.1265 H   0  0  0  0  0  0  0  0  0  0  0  0  # atno 10167 bound_to 10162
  156.0935  130.6112  150.8981 H   0  0  0  0  0  0  0  0  0  0  0  0  # atno 10718 bound_to 10713
  154.2140  135.2785  155.2948 H   0  0  0  0  0  0  0  0  0  0  0  0  # atno 10763 bound_to 10752
  154.5755  135.5605  153.7139 H   0  0  0  0  0  0  0  0  0  0  0  0  # atno 10764 bound_to 10752
  153.0057  135.6332  154.2279 H   0  0  0  0  0  0  0  0  0  0  0  0  # atno 10765 bound_to 10752
  141.1668  133.7140  156.8239 H   0  0  0  0  0  0  0  0  0  0  0  0  # atno 11005 bound_to 11000
  144.8937  140.7556  143.5911 LP  0  0  0  0  0  0  0  0  0  0  0  0  # atno 17320 bound_to 7965
  145.3109  139.1819  143.4639 LP  0  0  0  0  0  0  0  0  0  0  0  0  # atno 17321 bound_to 7965
  139.5287  144.7134  151.5134 LP  0  0  0  0  0  0  0  0  0  0  0  0  # atno 17342 bound_to 10162
  140.6505  143.8705  150.6781 LP  0  0  0  0  0  0  0  0  0  0  0  0  # atno 17343 bound_to 10162
  157.6090  131.0937  150.8829 LP  0  0  0  0  0  0  0  0  0  0  0  0  # atno 17370 bound_to 10713
  156.8972  130.5234  149.5284 LP  0  0  0  0  0  0  0  0  0  0  0  0  # atno 17371 bound_to 10713
  140.2099  134.8835  157.3263 LP  0  0  0  0  0  0  0  0  0  0  0  0  # atno 17394 bound_to 11000
  140.2097  134.4153  155.7619 LP  0  0  0  0  0  0  0  0  0  0  0  0  # atno 17395 bound_to 11000

$$$$
