AV-unprocessed.smi:1428|AV-procd|sdf|5816|dock5
  -GOLD-   22720 5473D 1   1.00000     0.00000
 Structure written by MMmdl.
 43 44  0  0  0  0  0  0  0  0  3 V2000
  154.0787  138.9538  159.6352 C   0  0  0  0  0  0  0  0  0  0  0  0
  153.4190  139.7623  158.6668 O   0  0  0  0  0  0  0  0  0  0  0  0
  152.9228  140.9908  159.0604 C   0  0  0  0  0  0  0  0  0  0  0  0
  153.5563  141.6494  160.0632 N   0  0  0  0  0  0  0  0  0  0  0  0
  153.0768  142.8498  160.4476 C   0  0  0  0  0  0  0  0  0  0  0  0
  151.9555  143.4565  159.8539 C   0  0  0  0  0  0  0  0  0  0  0  0
  151.2974  142.7766  158.8126 C   0  0  0  0  0  0  0  0  0  0  0  0
  151.7791  141.5075  158.4066 C   0  0  0  0  0  0  0  0  0  0  0  0
  151.2029  140.7339  157.3596 N   0  0  0  0  0  0  0  0  0  0  0  0
  149.9148  140.6299  156.9900 C   0  0  0  0  0  0  0  0  0  0  0  0
  148.9674  141.2045  157.5255 O   0  0  0  0  0  0  0  0  0  0  0  0
  149.7766  139.7935  155.9512 N   0  0  0  0  0  0  0  0  0  0  0  0
  148.5121  139.4655  155.2987 C   0  0  2  0  0  0  0  0  0  0  0  0
  148.2761  137.9439  155.2791 C   0  0  0  0  0  0  0  0  0  0  0  0
  146.9917  137.5934  154.5103 C   0  0  0  0  0  0  0  0  0  0  0  0
  147.0317  138.1341  153.1253 N   0  3  1  0  0  0  0  0  0  0  0  0
  145.8756  137.7093  152.2951 C   0  0  0  0  0  0  0  0  0  0  0  0
  145.5612  136.2259  152.5178 C   0  0  0  0  0  0  0  0  0  0  0  0
  146.5883  135.4251  152.1682 N   0  5  0  0  0  0  0  0  0  0  0  0
  144.4667  135.8972  152.9691 O   0  0  0  0  0  0  0  0  0  0  0  0
  147.2267  139.6058  153.1146 C   0  0  0  0  0  0  0  0  0  0  0  0
  148.5137  140.0014  153.8579 C   0  0  0  0  0  0  0  0  0  0  0  0
  154.4022  138.0238  159.1683 H   0  0  0  0  0  0  0  0  0  0  0  0
  153.4139  138.6947  160.4605 H   0  0  0  0  0  0  0  0  0  0  0  0
  154.9655  139.4507  160.0316 H   0  0  0  0  0  0  0  0  0  0  0  0
  153.6066  143.3442  161.2484 H   0  0  0  0  0  0  0  0  0  0  0  0
  151.6103  144.4240  160.1868 H   0  0  0  0  0  0  0  0  0  0  0  0
  150.4496  143.2505  158.3443 H   0  0  0  0  0  0  0  0  0  0  0  0
  151.8535  140.1461  156.8587 H   0  0  0  0  0  0  0  0  0  0  0  0
  150.6082  139.3596  155.5778 H   0  0  0  0  0  0  0  0  0  0  0  0
  147.6967  139.9470  155.8424 H   0  0  0  0  0  0  0  0  0  0  0  0
  149.1252  137.4410  154.8135 H   0  0  0  0  0  0  0  0  0  0  0  0
  148.2081  137.5572  156.2966 H   0  0  0  0  0  0  0  0  0  0  0  0
  146.8748  136.5095  154.4888 H   0  0  0  0  0  0  0  0  0  0  0  0
  146.1215  137.9932  155.0331 H   0  0  0  0  0  0  0  0  0  0  0  0
  145.0029  138.3267  152.5131 H   0  0  0  0  0  0  0  0  0  0  0  0
  146.0968  137.8475  151.2353 H   0  0  0  0  0  0  0  0  0  0  0  0
  147.4354  135.8541  151.7765 H   0  0  0  0  0  0  0  0  0  0  0  0
  147.2875  139.9608  152.0851 H   0  0  0  0  0  0  0  0  0  0  0  0
  146.3616  140.0922  153.5682 H   0  0  0  0  0  0  0  0  0  0  0  0
  148.6168  141.0872  153.8614 H   0  0  0  0  0  0  0  0  0  0  0  0
  149.3768  139.6100  153.3167 H   0  0  0  0  0  0  0  0  0  0  0  0
  147.8429  137.7337  152.6742 H   0  0  0  0  0  0  0  0  0  0  0  0
  1  2  1  0  0  0  0
  1 23  1  0  0  0  0
  1 24  1  0  0  0  0
  1 25  1  0  0  0  0
  2  3  1  0  0  0  0
  3  8  1  0  0  0  0
  3  4  2  0  0  0  0
  4  5  1  0  0  0  0
  5  6  2  0  0  0  0
  5 26  1  0  0  0  0
  6  7  1  0  0  0  0
  6 27  1  0  0  0  0
  7  8  2  0  0  0  0
  7 28  1  0  0  0  0
  8  9  1  0  0  0  0
  9 10  1  0  0  0  0
  9 29  1  0  0  0  0
 10 11  2  0  0  0  0
 10 12  1  0  0  0  0
 12 13  1  0  0  0  0
 12 30  1  0  0  0  0
 13 22  1  0  0  0  0
 13 14  1  0  0  0  0
 13 31  1  0  0  0  0
 14 15  1  0  0  0  0
 14 32  1  0  0  0  0
 14 33  1  0  0  0  0
 15 16  1  0  0  0  0
 15 34  1  0  0  0  0
 15 35  1  0  0  0  0
 16 17  1  0  0  0  0
 16 21  1  0  0  0  0
 16 43  1  0  0  0  0
 17 18  1  0  0  0  0
 17 36  1  0  0  0  0
 17 37  1  0  0  0  0
 18 19  1  0  0  0  0
 18 20  2  0  0  0  0
 19 38  1  0  0  0  0
 21 22  1  0  0  0  0
 21 39  1  0  0  0  0
 21 40  1  0  0  0  0
 22 41  1  0  0  0  0
 22 42  1  0  0  0  0
M  CHG  1  16   1
M  CHG  1  19  -1
M  END
> <s_m_source_file>
AV-unprocessed.smi

> <i_m_source_file_index>
1428

> <i_lp_mmshare_version>
43012

> <i_f3d_flags>
0

> <s_epik_input>
W0NIM11PYzFuW2NIXVtjSF1bY0hdYzFbTkhdQyg9TylbTkhdW0NIXTJbQ0gyXVtDSDJdTihbQ0gyXVtDSDJdMilbQ0gyXUMoPU8pW05IMl0=

> <s_epik_cmdline>
J2VwaWtfcHl0aG9uJywgJy1waCcsICc3LjAnLCAnLXRuJywgJzgnLCAnLW1hJywgJzIwMCcsICctbWV0YWxfYmluZGluZycsICctaW1hZScsICc8aW5maWxlLm1hZT4nLCAnLW9tYWUnLCAnPG91dGZpbGUubWFlPic=

> <r_lp_tautomer_probability>
1

> <r_epik_Ionization_Penalty>
5.72888

> <r_epik_Ionization_Penalty_Charging>
5.7288

> <r_epik_Ionization_Penalty_Neutral>
7.84403e-05

> <r_epik_State_Penalty>
6.54882

> <r_epik_Charging_Adjusted_Penalty>
12.2776

> <i_epik_Tot_Q>
0

> <i_epik_Tot_abs_Q>
2

> <r_epik_Metal_State_Penalty>
2.51301

> <b_epik_Metal_Only>
1

> <s_lp_Force_Field>
OPLS_2005

> <r_lp_Energy>
10.0981

> <b_lp_Chiralities_Consistent>
1

> <s_lp_Variant>
AV-unprocessed.smi:1428-4

> <Gold.Version>
5.8.1

> <Gold.Id.Protein>
6NUR|6NUR_protein|mol2

> <Gold.PLP.Fitness>
38.1173

> <Gold.PLP.PLP>
-27.5402

> <Gold.PLP.part.hbond>
-2.8455

> <Gold.PLP.part.metal>
0.0000

> <Gold.PLP.part.buried>
-2.9804

> <Gold.PLP.part.nonpolar>
-22.4083

> <Gold.PLP.part.repulsive>
0.2658

> <Gold.PLP.ligand.clash>
0.0000

> <Gold.PLP.ligand.torsion>
0.7277

> <Gold.PLP.Chemscore.Hbond>
4.0000

> <Gold.PLP.Chemscore.CHOScore>
0.0000

> <Gold.PLP.Chemscore.Metal>
0.0000

> <Gold.Chemscore.Hbonds>
donor molecule, donor type, donor heavy atom, donor atom, acceptor molecule, acceptor atom, score
      L1  H    16    43       P1  7948  2.00
      L1  H    19    38       P1  7948  1.00
      P1  H  7997  8008       L1     2  1.00

> <Gold.PLP.Chemscore.Internal.Correction>
0.0326

> <Gold.Rescore>
     Score         DG    S(hbond)    S(metal)    S(lipo)     H(rot)  DE(clash)    DE(int)     intcor
     15.58     -16.51       2.53        0.00      72.20       2.29       0.18       0.75       ----

> <Gold.Chemscore.Fitness>
15.5775

> <Gold.Chemscore.DG>
-16.5086

> <Gold.Chemscore.ZeroCoef>
-5.4800

> <Gold.Chemscore.Hbond>
2.5275

> <Gold.Chemscore.Metal>
0.0000

> <Gold.Chemscore.Lipo>
72.2025

> <Gold.Chemscore.Internal_Hbond>
0.0000

> <Gold.Chemscore.DEClash>
0.1777

> <Gold.Chemscore.DEInternal>
0.7534

> <Gold.Chemscore.Rot>
2.2894

> <Gold.Chemscore.Internal.Correction>
   9.000000E+99

> <Gold.Chemscore.Hbonds>
donor molecule, donor type, donor heavy atom, donor atom, acceptor molecule, acceptor atom, score
      L1  H    16    43       P1  7948  0.92
      L1  H    19    38       P1  7948  0.91
      P1  H  7997  8008       L1     2  0.45

> <Gold.Chemscore.Hbond.Weighted>
-8.4418

> <Gold.Chemscore.Metal.Weighted>
-0.0000

> <Gold.Chemscore.Lipo.Weighted>
-8.4477

> <Gold.Chemscore.Internal_Hbond.Weighted>
0.0000

> <Gold.Chemscore.DEClash.Weighted>
0.1777

> <Gold.Chemscore.DEInternal.Weighted>
0.7534

> <Gold.Chemscore.Rot.Weighted>
5.8608

> <Gold.Chemscore.Internal.Correction.Weighted>
   9.000000E+99

> <Gold.Protein.RotatedTorsions>
[ 6907 6896 6895 6894 ] final  -94.12 input  -60.11 | X-H torsion
[ 7974 7965 7964 7962 ] final -111.11 input  175.53 | X-H torsion
[ 8008 7997 7996 7995 ] final  -88.13 input   59.86 | X-H torsion
[ 10167 10162 10161 10158 ] final -144.51 input  -65.29 | X-H torsion
[ 10718 10713 10712 10709 ] final  106.87 input   66.30 | X-H torsion
[ 10763 10752 10751 10750 ] final  151.46 input  -60.55 | X-H torsion
[ 11005 11000 10999 10996 ] final   59.73 input  -57.11 | X-H torsion

> <Gold.Protein.ActiveResidues>
 VAL166  LYS551  ARG553  GLY616  TRP617  ASP618  TYR619  PRO620  LYS621  CYS622 
 ASP623  PHE694  ASN695  SER759  ASP760  ASP761  ALA762  ILE779  LEU786  VAL792 
 PHE793  MET794  SER795  GLU796  ALA797  LYS798  CYS799  TRP800  GLU811  SER814 

> <Gold.Protein.RotatedAtoms>
  150.6935  134.1861  159.4266 H   0  0  0  0  0  0  0  0  0  0  0  0  # atno 6907 bound_to 6896
  151.9834  135.0014  160.0567 H   0  0  0  0  0  0  0  0  0  0  0  0  # atno 6908 bound_to 6896
  152.1734  133.4624  159.4958 H   0  0  0  0  0  0  0  0  0  0  0  0  # atno 6909 bound_to 6896
  145.1601  140.8874  143.3596 H   0  0  0  0  0  0  0  0  0  0  0  0  # atno 7974 bound_to 7965
  154.6713  140.0557  157.0168 H   0  0  0  0  0  0  0  0  0  0  0  0  # atno 8008 bound_to 7997
  155.1085  140.3236  155.4509 H   0  0  0  0  0  0  0  0  0  0  0  0  # atno 8009 bound_to 7997
  156.2658  140.2018  156.6209 H   0  0  0  0  0  0  0  0  0  0  0  0  # atno 8010 bound_to 7997
  139.7892  143.7990  152.2648 H   0  0  0  0  0  0  0  0  0  0  0  0  # atno 10167 bound_to 10162
  157.6651  131.0860  150.6071 H   0  0  0  0  0  0  0  0  0  0  0  0  # atno 10718 bound_to 10713
  154.1042  135.2843  155.3245 H   0  0  0  0  0  0  0  0  0  0  0  0  # atno 10763 bound_to 10752
  154.6534  135.5360  153.7933 H   0  0  0  0  0  0  0  0  0  0  0  0  # atno 10764 bound_to 10752
  153.0368  135.6516  154.1204 H   0  0  0  0  0  0  0  0  0  0  0  0  # atno 10765 bound_to 10752
  140.0282  134.6051  155.9543 H   0  0  0  0  0  0  0  0  0  0  0  0  # atno 11005 bound_to 11000
  145.0340  139.3316  143.6010 LP  0  0  0  0  0  0  0  0  0  0  0  0  # atno 17320 bound_to 7965
  146.3483  139.9688  142.8708 LP  0  0  0  0  0  0  0  0  0  0  0  0  # atno 17321 bound_to 7965
  139.8076  144.7349  150.9740 LP  0  0  0  0  0  0  0  0  0  0  0  0  # atno 17342 bound_to 10162
  140.7820  143.4282  151.0735 LP  0  0  0  0  0  0  0  0  0  0  0  0  # atno 17343 bound_to 10162
  156.6372  130.4448  149.5765 LP  0  0  0  0  0  0  0  0  0  0  0  0  # atno 17370 bound_to 10713
  156.2237  130.6752  151.1394 LP  0  0  0  0  0  0  0  0  0  0  0  0  # atno 17371 bound_to 10713
  141.1815  133.6547  156.5042 LP  0  0  0  0  0  0  0  0  0  0  0  0  # atno 17394 bound_to 11000
  140.4270  134.7136  157.4921 LP  0  0  0  0  0  0  0  0  0  0  0  0  # atno 17395 bound_to 11000

$$$$
