AV-unprocessed.smi:1704|AV-procd|sdf|6881|dock7
  -GOLD-   22720 8 83D 1   1.00000     0.00000
 Structure written by MMmdl.
 41 43  0  0  0  0  0  0  0  0  1 V2000
  152.9770  137.5587  154.0373 C   0  0  0  0  0  0  0  0  0  0  0  0
  151.8766  138.0711  154.8756 N   0  0  0  0  0  0  0  0  0  0  0  0
  151.9286  139.3777  155.2854 C   0  0  0  0  0  0  0  0  0  0  0  0
  152.8440  140.1595  155.0259 O   0  0  0  0  0  0  0  0  0  0  0  0
  150.7734  139.7949  156.0876 C   0  0  0  0  0  0  0  0  0  0  0  0
  149.7695  138.9496  156.4257 C   0  0  0  0  0  0  0  0  0  0  0  0
  148.8078  139.5867  157.2007 N   0  0  0  0  0  0  0  0  0  0  0  0
  149.2980  140.8235  157.2871 C   0  0  0  0  0  0  0  0  0  0  0  0
  150.4623  141.0381  156.6396 N   0  0  0  0  0  0  0  0  0  0  0  0
  151.1919  142.2995  156.5780 C   0  0  0  0  0  0  0  0  0  0  0  0
  151.4062  142.9866  157.9526 C   0  0  0  0  0  0  0  0  0  0  0  0
  151.7915  141.9931  158.8853 O   0  0  0  0  0  0  0  0  0  0  0  0
  152.5242  144.0590  157.9099 C   0  0  0  0  0  0  0  0  0  0  0  0
  152.6463  144.8579  159.2204 C   0  0  0  0  0  0  0  0  0  0  0  0
  151.3041  145.4802  159.6280 C   0  0  0  0  0  0  0  0  0  0  0  0
  150.2153  144.4052  159.7439 C   0  0  0  0  0  0  0  0  0  0  0  0
  150.0742  143.6083  158.4348 C   0  0  0  0  0  0  0  0  0  0  0  0
  149.8274  137.6079  155.9737 N   0  0  0  0  0  0  0  0  0  0  0  0
  148.7288  136.7209  156.3683 C   0  0  0  0  0  0  0  0  0  0  0  0
  150.8664  137.1758  155.1853 C   0  0  0  0  0  0  0  0  0  0  0  0
  150.8975  136.0160  154.7650 O   0  0  0  0  0  0  0  0  0  0  0  0
  153.7639  138.2814  153.8183 H   0  0  0  0  0  0  0  0  0  0  0  0
  152.5932  137.2191  153.0740 H   0  0  0  0  0  0  0  0  0  0  0  0
  153.4633  136.7109  154.5225 H   0  0  0  0  0  0  0  0  0  0  0  0
  148.7887  141.6042  157.8328 H   0  0  0  0  0  0  0  0  0  0  0  0
  152.1614  142.0967  156.1209 H   0  0  0  0  0  0  0  0  0  0  0  0
  150.6828  142.9697  155.8861 H   0  0  0  0  0  0  0  0  0  0  0  0
  152.7009  141.7823  158.7394 H   0  0  0  0  0  0  0  0  0  0  0  0
  153.4883  143.6015  157.6852 H   0  0  0  0  0  0  0  0  0  0  0  0
  152.3212  144.7545  157.0946 H   0  0  0  0  0  0  0  0  0  0  0  0
  153.0045  144.2066  160.0184 H   0  0  0  0  0  0  0  0  0  0  0  0
  153.3968  145.6406  159.1062 H   0  0  0  0  0  0  0  0  0  0  0  0
  151.4107  146.0059  160.5774 H   0  0  0  0  0  0  0  0  0  0  0  0
  151.0066  146.2274  158.8914 H   0  0  0  0  0  0  0  0  0  0  0  0
  150.4528  143.7296  160.5663 H   0  0  0  0  0  0  0  0  0  0  0  0
  149.2621  144.8707  159.9965 H   0  0  0  0  0  0  0  0  0  0  0  0
  149.6907  144.2776  157.6632 H   0  0  0  0  0  0  0  0  0  0  0  0
  149.3195  142.8306  158.5596 H   0  0  0  0  0  0  0  0  0  0  0  0
  148.8507  135.6844  156.0524 H   0  0  0  0  0  0  0  0  0  0  0  0
  147.7901  137.0832  155.9479 H   0  0  0  0  0  0  0  0  0  0  0  0
  148.6277  136.7144  157.4542 H   0  0  0  0  0  0  0  0  0  0  0  0
  1  2  1  0  0  0  0
  1 22  1  0  0  0  0
  1 23  1  0  0  0  0
  1 24  1  0  0  0  0
  2 20  1  0  0  0  0
  2  3  1  0  0  0  0
  3  4  2  0  0  0  0
  3  5  1  0  0  0  0
  5  9  1  0  0  0  0
  5  6  2  0  0  0  0
  6  7  1  0  0  0  0
  6 18  1  0  0  0  0
  7  8  2  0  0  0  0
  8  9  1  0  0  0  0
  8 25  1  0  0  0  0
  9 10  1  0  0  0  0
 10 11  1  0  0  0  0
 10 26  1  0  0  0  0
 10 27  1  0  0  0  0
 11 17  1  0  0  0  0
 11 12  1  0  0  0  0
 11 13  1  0  0  0  0
 12 28  1  0  0  0  0
 13 14  1  0  0  0  0
 13 29  1  0  0  0  0
 13 30  1  0  0  0  0
 14 15  1  0  0  0  0
 14 31  1  0  0  0  0
 14 32  1  0  0  0  0
 15 16  1  0  0  0  0
 15 33  1  0  0  0  0
 15 34  1  0  0  0  0
 16 17  1  0  0  0  0
 16 35  1  0  0  0  0
 16 36  1  0  0  0  0
 17 37  1  0  0  0  0
 17 38  1  0  0  0  0
 18 19  1  0  0  0  0
 18 20  1  0  0  0  0
 19 39  1  0  0  0  0
 19 40  1  0  0  0  0
 19 41  1  0  0  0  0
 20 21  2  0  0  0  0
M  END
> <s_m_source_file>
AV-unprocessed.smi

> <i_m_source_file_index>
1704

> <i_lp_mmshare_version>
43012

> <i_f3d_flags>
0

> <s_epik_input>
Tz1jMW4oW0NIM10pYyg9TyluKFtDSDNdKWMoYzEyKW5bY0hdbjJbQ0gyXUMzKFtPSF0pW0NIMl1bQ0gyXVtDSDJdW0NIMl1bQ0gyXTM=

> <s_epik_cmdline>
J2VwaWtfcHl0aG9uJywgJy1waCcsICc3LjAnLCAnLXRuJywgJzgnLCAnLW1hJywgJzIwMCcsICctbWV0YWxfYmluZGluZycsICctaW1hZScsICc8aW5maWxlLm1hZT4nLCAnLW9tYWUnLCAnPG91dGZpbGUubWFlPic=

> <r_lp_tautomer_probability>
1

> <r_epik_Ionization_Penalty>
6.70257e-06

> <r_epik_Ionization_Penalty_Charging>
6.65152e-09

> <r_epik_Ionization_Penalty_Neutral>
6.69592e-06

> <r_epik_State_Penalty>
-0

> <r_epik_Charging_Adjusted_Penalty>
6.65152e-09

> <i_epik_Tot_Q>
0

> <i_epik_Tot_abs_Q>
0

> <r_epik_Metal_State_Penalty>
-0

> <b_epik_Metal_Only>
0

> <s_lp_Force_Field>
OPLS_2005

> <r_lp_Energy>
39.0788

> <b_lp_Chiralities_Consistent>
1

> <s_lp_Variant>
AV-unprocessed.smi:1704-1

> <Gold.Version>
5.8.1

> <Gold.Id.Protein>
6NUR|6NUR_protein|mol2

> <Gold.PLP.Fitness>
38.3544

> <Gold.PLP.PLP>
-31.5154

> <Gold.PLP.part.hbond>
-3.0000

> <Gold.PLP.part.metal>
0.0000

> <Gold.PLP.part.buried>
1.1958

> <Gold.PLP.part.nonpolar>
-29.7783

> <Gold.PLP.part.repulsive>
0.1654

> <Gold.PLP.ligand.clash>
0.0000

> <Gold.PLP.ligand.torsion>
0.2894

> <Gold.PLP.Chemscore.Hbond>
2.4713

> <Gold.PLP.Chemscore.CHOScore>
0.0000

> <Gold.PLP.Chemscore.Metal>
0.0000

> <Gold.Chemscore.Hbonds>
donor molecule, donor type, donor heavy atom, donor atom, acceptor molecule, acceptor atom, score
      P1  H  7989  7998       L1     4  0.14
      P1  H  7997  8010       L1     4  1.00
      P1  H 10752 10763       L1    21  0.88

> <Gold.PLP.Chemscore.Internal.Correction>
0.0041

> <Gold.Rescore>
     Score         DG    S(hbond)    S(metal)    S(lipo)     H(rot)  DE(clash)    DE(int)     intcor
     13.72     -16.69       1.83        0.00      83.94       1.84       2.62       0.35       ----

> <Gold.Chemscore.Fitness>
13.7185

> <Gold.Chemscore.DG>
-16.6920

> <Gold.Chemscore.ZeroCoef>
-5.4800

> <Gold.Chemscore.Hbond>
1.8260

> <Gold.Chemscore.Metal>
0.0000

> <Gold.Chemscore.Lipo>
83.9375

> <Gold.Chemscore.Internal_Hbond>
0.0000

> <Gold.Chemscore.DEClash>
2.6188

> <Gold.Chemscore.DEInternal>
0.3547

> <Gold.Chemscore.Rot>
1.8389

> <Gold.Chemscore.Internal.Correction>
   9.000000E+99

> <Gold.Chemscore.Hbonds>
donor molecule, donor type, donor heavy atom, donor atom, acceptor molecule, acceptor atom, score
      P1  H  7997  8010       L1     4  0.96
      P1  H 10752 10763       L1    21  0.43

> <Gold.Chemscore.Hbond.Weighted>
-6.0988

> <Gold.Chemscore.Metal.Weighted>
-0.0000

> <Gold.Chemscore.Lipo.Weighted>
-9.8207

> <Gold.Chemscore.Internal_Hbond.Weighted>
0.0000

> <Gold.Chemscore.DEClash.Weighted>
2.6188

> <Gold.Chemscore.DEInternal.Weighted>
0.3547

> <Gold.Chemscore.Rot.Weighted>
4.7076

> <Gold.Chemscore.Internal.Correction.Weighted>
   9.000000E+99

> <Gold.Protein.RotatedTorsions>
[ 6907 6896 6895 6894 ] final -141.88 input  -60.11 | X-H torsion
[ 7974 7965 7964 7962 ] final  -10.66 input  175.53 | X-H torsion
[ 8008 7997 7996 7995 ] final   92.22 input   59.86 | X-H torsion
[ 10167 10162 10161 10158 ] final -155.10 input  -65.29 | X-H torsion
[ 10718 10713 10712 10709 ] final  145.99 input   66.30 | X-H torsion
[ 10763 10752 10751 10750 ] final   56.34 input  -60.55 | X-H torsion
[ 11005 11000 10999 10996 ] final   56.09 input  -57.11 | X-H torsion

> <Gold.Protein.ActiveResidues>
 VAL166  LYS551  ARG553  GLY616  TRP617  ASP618  TYR619  PRO620  LYS621  CYS622 
 ASP623  PHE694  ASN695  SER759  ASP760  ASP761  ALA762  ILE779  LEU786  VAL792 
 PHE793  MET794  SER795  GLU796  ALA797  LYS798  CYS799  TRP800  GLU811  SER814 

> <Gold.Protein.RotatedAtoms>
  151.0796  133.5400  159.2621 H   0  0  0  0  0  0  0  0  0  0  0  0  # atno 6907 bound_to 6896
  151.2309  135.0553  159.8997 H   0  0  0  0  0  0  0  0  0  0  0  0  # atno 6908 bound_to 6896
  152.5422  134.0585  159.8195 H   0  0  0  0  0  0  0  0  0  0  0  0  # atno 6909 bound_to 6896
  146.2213  140.2797  142.8361 H   0  0  0  0  0  0  0  0  0  0  0  0  # atno 7974 bound_to 7965
  156.0329  140.3328  155.7159 H   0  0  0  0  0  0  0  0  0  0  0  0  # atno 8008 bound_to 7997
  155.5858  140.0641  157.2789 H   0  0  0  0  0  0  0  0  0  0  0  0  # atno 8009 bound_to 7997
  154.4360  140.1836  156.1012 H   0  0  0  0  0  0  0  0  0  0  0  0  # atno 8010 bound_to 7997
  139.6959  143.9343  152.2407 H   0  0  0  0  0  0  0  0  0  0  0  0  # atno 10167 bound_to 10162
  157.3386  131.0932  151.1101 H   0  0  0  0  0  0  0  0  0  0  0  0  # atno 10718 bound_to 10713
  152.9830  135.5680  154.5212 H   0  0  0  0  0  0  0  0  0  0  0  0  # atno 10763 bound_to 10752
  154.4700  135.2784  155.1652 H   0  0  0  0  0  0  0  0  0  0  0  0  # atno 10764 bound_to 10752
  154.3204  135.6270  153.5558 H   0  0  0  0  0  0  0  0  0  0  0  0  # atno 10765 bound_to 10752
  140.0556  134.5675  155.9212 H   0  0  0  0  0  0  0  0  0  0  0  0  # atno 11005 bound_to 11000
  144.9206  140.7864  143.5750 LP  0  0  0  0  0  0  0  0  0  0  0  0  # atno 17320 bound_to 7965
  145.2733  139.1946  143.4830 LP  0  0  0  0  0  0  0  0  0  0  0  0  # atno 17321 bound_to 7965
  139.9172  144.6821  150.8499 LP  0  0  0  0  0  0  0  0  0  0  0  0  # atno 17342 bound_to 10162
  140.7696  143.3401  151.2227 LP  0  0  0  0  0  0  0  0  0  0  0  0  # atno 17343 bound_to 10162
  157.2322  130.6530  149.5854 LP  0  0  0  0  0  0  0  0  0  0  0  0  # atno 17370 bound_to 10713
  155.9704  130.4595  150.6038 LP  0  0  0  0  0  0  0  0  0  0  0  0  # atno 17371 bound_to 10713
  141.1950  133.6585  156.5623 LP  0  0  0  0  0  0  0  0  0  0  0  0  # atno 17394 bound_to 11000
  140.3850  134.7490  157.4685 LP  0  0  0  0  0  0  0  0  0  0  0  0  # atno 17395 bound_to 11000

$$$$
