AV-unprocessed.smi:1636|AV-procd|sdf|6542|dock2
  -GOLD-   22720 7223D 1   1.00000     0.00000
 Structure written by MMmdl.
 43 44  0  0  0  0  0  0  0  0  1 V2000
  151.9092  145.3630  159.5058 C   0  0  0  0  0  0  0  0  0  0  0  0
  152.4596  143.9381  159.3836 C   0  0  2  0  0  0  0  0  0  0  0  0
  151.7431  143.1328  158.2827 C   0  0  0  0  0  0  0  0  0  0  0  0
  152.2224  141.7522  158.2659 N   0  0  0  0  0  0  0  0  0  0  0  0
  151.8650  140.9418  157.1669 C   0  0  0  0  0  0  0  0  0  0  0  0
  150.7666  141.2988  156.3498 C   0  0  0  0  0  0  0  0  0  0  0  0
  150.4283  140.4779  155.2575 C   0  0  0  0  0  0  0  0  0  0  0  0
  151.1892  139.3198  155.0052 C   0  0  0  0  0  0  0  0  0  0  0  0
  150.8392  138.4314  153.8173 C   0  0  0  0  0  0  0  0  0  0  0  0
  150.1704  137.1777  154.1526 N   0  0  0  0  0  0  0  0  0  0  0  0
  150.6600  136.2443  154.9806 C   0  0  0  0  0  0  0  0  0  0  0  0
  151.7479  136.3305  155.5506 O   0  0  0  0  0  0  0  0  0  0  0  0
  149.8258  135.2029  155.1059 N   0  0  0  0  0  0  0  0  0  0  0  0
  150.0800  134.0165  155.9162 C   0  0  0  0  0  0  0  0  0  0  0  0
  149.1467  133.9495  157.1375 C   0  0  0  0  0  0  0  0  0  0  0  0
  149.4592  134.9841  158.0459 O   0  0  0  0  0  0  0  0  0  0  0  0
  152.2683  139.0437  155.8736 C   0  0  0  0  0  0  0  0  0  0  0  0
  152.5954  139.8254  156.9242 N   0  0  0  0  0  0  0  0  0  0  0  0
  152.1594  141.1021  159.5722 C   0  0  0  0  0  0  0  0  0  0  0  0
  152.8475  141.9728  160.6374 C   0  0  0  0  0  0  0  0  0  0  0  0
  152.2806  143.2789  160.6339 O   0  0  0  0  0  0  0  0  0  0  0  0
  152.0390  145.9145  158.5743 H   0  0  0  0  0  0  0  0  0  0  0  0
  152.4255  145.9134  160.2925 H   0  0  0  0  0  0  0  0  0  0  0  0
  150.8456  145.3563  159.7461 H   0  0  0  0  0  0  0  0  0  0  0  0
  153.5264  143.9972  159.1600 H   0  0  0  0  0  0  0  0  0  0  0  0
  150.6655  143.1375  158.4531 H   0  0  0  0  0  0  0  0  0  0  0  0
  151.9233  143.6026  157.3147 H   0  0  0  0  0  0  0  0  0  0  0  0
  150.1758  142.1790  156.5555 H   0  0  0  0  0  0  0  0  0  0  0  0
  149.5925  140.7356  154.6237 H   0  0  0  0  0  0  0  0  0  0  0  0
  150.2254  138.9952  153.1124 H   0  0  0  0  0  0  0  0  0  0  0  0
  151.7633  138.1889  153.2923 H   0  0  0  0  0  0  0  0  0  0  0  0
  149.2678  137.0148  153.7305 H   0  0  0  0  0  0  0  0  0  0  0  0
  148.9565  135.2232  154.5931 H   0  0  0  0  0  0  0  0  0  0  0  0
  149.9276  133.1315  155.2958 H   0  0  0  0  0  0  0  0  0  0  0  0
  151.1281  133.9923  156.2167 H   0  0  0  0  0  0  0  0  0  0  0  0
  148.0934  133.9942  156.8573 H   0  0  0  0  0  0  0  0  0  0  0  0
  149.2955  133.0039  157.6592 H   0  0  0  0  0  0  0  0  0  0  0  0
  148.6870  135.1803  158.5540 H   0  0  0  0  0  0  0  0  0  0  0  0
  152.8955  138.1767  155.7289 H   0  0  0  0  0  0  0  0  0  0  0  0
  151.1126  140.9474  159.8372 H   0  0  0  0  0  0  0  0  0  0  0  0
  152.6310  140.1205  159.5577 H   0  0  0  0  0  0  0  0  0  0  0  0
  152.7138  141.5317  161.6252 H   0  0  0  0  0  0  0  0  0  0  0  0
  153.9225  142.0306  160.4580 H   0  0  0  0  0  0  0  0  0  0  0  0
  1  2  1  0  0  0  0
  1 22  1  0  0  0  0
  1 23  1  0  0  0  0
  1 24  1  0  0  0  0
  2 21  1  0  0  0  0
  2  3  1  0  0  0  0
  2 25  1  0  0  0  0
  3  4  1  0  0  0  0
  3 26  1  0  0  0  0
  3 27  1  0  0  0  0
  4  5  1  0  0  0  0
  4 19  1  0  0  0  0
  5 18  1  0  0  0  0
  5  6  2  0  0  0  0
  6  7  1  0  0  0  0
  6 28  1  0  0  0  0
  7  8  2  0  0  0  0
  7 29  1  0  0  0  0
  8  9  1  0  0  0  0
  8 17  1  0  0  0  0
  9 10  1  0  0  0  0
  9 30  1  0  0  0  0
  9 31  1  0  0  0  0
 10 11  1  0  0  0  0
 10 32  1  0  0  0  0
 11 12  2  0  0  0  0
 11 13  1  0  0  0  0
 13 14  1  0  0  0  0
 13 33  1  0  0  0  0
 14 15  1  0  0  0  0
 14 34  1  0  0  0  0
 14 35  1  0  0  0  0
 15 16  1  0  0  0  0
 15 36  1  0  0  0  0
 15 37  1  0  0  0  0
 16 38  1  0  0  0  0
 17 18  2  0  0  0  0
 17 39  1  0  0  0  0
 19 20  1  0  0  0  0
 19 40  1  0  0  0  0
 19 41  1  0  0  0  0
 20 21  1  0  0  0  0
 20 42  1  0  0  0  0
 20 43  1  0  0  0  0
M  END
> <s_m_source_file>
AV-unprocessed.smi

> <i_m_source_file_index>
1636

> <i_lp_mmshare_version>
43012

> <i_f3d_flags>
0

> <s_epik_input>
W0NIM11bQ0BASF0xW0NIMl1OKFtDSDJdW0NIMl1PMSljMltjSF1bY0hdYyhbY0hdbjIpW0NIMl1bTkhdQyg9TylbTkhdW0NIMl1bQ0gyXVtPSF0=

> <s_epik_cmdline>
J2VwaWtfcHl0aG9uJywgJy1waCcsICc3LjAnLCAnLXRuJywgJzgnLCAnLW1hJywgJzIwMCcsICctbWV0YWxfYmluZGluZycsICctaW1hZScsICc8aW5maWxlLm1hZT4nLCAnLW9tYWUnLCAnPG91dGZpbGUubWFlPic=

> <r_lp_tautomer_probability>
1

> <r_epik_Ionization_Penalty>
0.00695222

> <r_epik_Ionization_Penalty_Charging>
0

> <r_epik_Ionization_Penalty_Neutral>
0.00695222

> <r_epik_State_Penalty>
0.00513345

> <r_epik_Charging_Adjusted_Penalty>
0.00513345

> <i_epik_Tot_Q>
0

> <i_epik_Tot_abs_Q>
0

> <r_epik_Metal_State_Penalty>
-0

> <b_epik_Metal_Only>
0

> <s_lp_Force_Field>
OPLS_2005

> <r_lp_Energy>
15.2616

> <b_lp_Chiralities_Consistent>
1

> <s_lp_Variant>
AV-unprocessed.smi:1636-1

> <Gold.Version>
5.8.1

> <Gold.Id.Protein>
6NUR|6NUR_protein|mol2

> <Gold.PLP.Fitness>
51.7064

> <Gold.PLP.PLP>
-41.8420

> <Gold.PLP.part.hbond>
-4.8609

> <Gold.PLP.part.metal>
0.0000

> <Gold.PLP.part.buried>
-4.1943

> <Gold.PLP.part.nonpolar>
-32.1549

> <Gold.PLP.part.repulsive>
0.2151

> <Gold.PLP.ligand.clash>
0.0000

> <Gold.PLP.ligand.torsion>
0.5178

> <Gold.PLP.Chemscore.Hbond>
3.5148

> <Gold.PLP.Chemscore.CHOScore>
0.0000

> <Gold.PLP.Chemscore.Metal>
0.0000

> <Gold.Chemscore.Hbonds>
donor molecule, donor type, donor heavy atom, donor atom, acceptor molecule, acceptor atom, score
      L1  H    10    32       P1  7948  0.48
      P1  H  6896  6908       L1    16  1.00
      P1  H  7997  8010       L1    18  0.99
      P1  H 10752 10763       L1    12  1.00

> <Gold.PLP.Chemscore.Internal.Correction>
0.3556

> <Gold.Rescore>
     Score         DG    S(hbond)    S(metal)    S(lipo)     H(rot)  DE(clash)    DE(int)     intcor
     16.27     -18.37       2.45        0.00     101.22       2.78       0.21       1.90       ----

> <Gold.Chemscore.Fitness>
16.2707

> <Gold.Chemscore.DG>
-18.3726

> <Gold.Chemscore.ZeroCoef>
-5.4800

> <Gold.Chemscore.Hbond>
2.4475

> <Gold.Chemscore.Metal>
0.0000

> <Gold.Chemscore.Lipo>
101.2156

> <Gold.Chemscore.Internal_Hbond>
0.0000

> <Gold.Chemscore.DEClash>
0.2055

> <Gold.Chemscore.DEInternal>
1.8964

> <Gold.Chemscore.Rot>
2.7828

> <Gold.Chemscore.Internal.Correction>
   9.000000E+99

> <Gold.Chemscore.Hbonds>
donor molecule, donor type, donor heavy atom, donor atom, acceptor molecule, acceptor atom, score
      L1  H    10    32       P1  7948  0.44
      P1  H  6896  6908       L1    16  0.20
      P1  H  7997  8010       L1    18  0.48
      P1  H 10752 10763       L1    12  0.98

> <Gold.Chemscore.Hbond.Weighted>
-8.1745

> <Gold.Chemscore.Metal.Weighted>
-0.0000

> <Gold.Chemscore.Lipo.Weighted>
-11.8422

> <Gold.Chemscore.Internal_Hbond.Weighted>
0.0000

> <Gold.Chemscore.DEClash.Weighted>
0.2055

> <Gold.Chemscore.DEInternal.Weighted>
1.8964

> <Gold.Chemscore.Rot.Weighted>
7.1241

> <Gold.Chemscore.Internal.Correction.Weighted>
   9.000000E+99

> <Gold.Protein.RotatedTorsions>
[ 6907 6896 6895 6894 ] final  155.45 input  -60.11 | X-H torsion
[ 7974 7965 7964 7962 ] final -111.22 input  175.53 | X-H torsion
[ 8008 7997 7996 7995 ] final   45.77 input   59.86 | X-H torsion
[ 10167 10162 10161 10158 ] final  161.53 input  -65.29 | X-H torsion
[ 10718 10713 10712 10709 ] final  -34.52 input   66.30 | X-H torsion
[ 10763 10752 10751 10750 ] final   84.39 input  -60.55 | X-H torsion
[ 11005 11000 10999 10996 ] final   35.57 input  -57.11 | X-H torsion

> <Gold.Protein.ActiveResidues>
 VAL166  LYS551  ARG553  GLY616  TRP617  ASP618  TYR619  PRO620  LYS621  CYS622 
 ASP623  PHE694  ASN695  SER759  ASP760  ASP761  ALA762  ILE779  LEU786  VAL792 
 PHE793  MET794  SER795  GLU796  ALA797  LYS798  CYS799  TRP800  GLU811  SER814 

> <Gold.Protein.RotatedAtoms>
  152.0439  133.3989  159.4348 H   0  0  0  0  0  0  0  0  0  0  0  0  # atno 6907 bound_to 6896
  150.6874  134.3383  159.4866 H   0  0  0  0  0  0  0  0  0  0  0  0  # atno 6908 bound_to 6896
  152.1185  134.9222  160.0614 H   0  0  0  0  0  0  0  0  0  0  0  0  # atno 6909 bound_to 6896
  145.1587  140.8867  143.3603 H   0  0  0  0  0  0  0  0  0  0  0  0  # atno 7974 bound_to 7965
  155.3414  140.3408  155.4239 H   0  0  0  0  0  0  0  0  0  0  0  0  # atno 8008 bound_to 7997
  156.1811  140.1664  156.8308 H   0  0  0  0  0  0  0  0  0  0  0  0  # atno 8009 bound_to 7997
  154.5335  140.0740  156.8369 H   0  0  0  0  0  0  0  0  0  0  0  0  # atno 8010 bound_to 7997
  139.4850  144.4527  151.8808 H   0  0  0  0  0  0  0  0  0  0  0  0  # atno 10167 bound_to 10162
  156.3495  130.4306  149.7716 H   0  0  0  0  0  0  0  0  0  0  0  0  # atno 10718 bound_to 10713
  153.1377  135.4656  154.9448 H   0  0  0  0  0  0  0  0  0  0  0  0  # atno 10763 bound_to 10752
  154.7720  135.3162  154.8171 H   0  0  0  0  0  0  0  0  0  0  0  0  # atno 10764 bound_to 10752
  153.8700  135.6904  153.4829 H   0  0  0  0  0  0  0  0  0  0  0  0  # atno 10765 bound_to 10752
  140.2413  134.3411  155.7924 H   0  0  0  0  0  0  0  0  0  0  0  0  # atno 11005 bound_to 11000
  145.0354  139.3305  143.6003 LP  0  0  0  0  0  0  0  0  0  0  0  0  # atno 17320 bound_to 7965
  146.3485  139.9707  142.8706 LP  0  0  0  0  0  0  0  0  0  0  0  0  # atno 17321 bound_to 7965
  140.3985  144.2524  150.5894 LP  0  0  0  0  0  0  0  0  0  0  0  0  # atno 17342 bound_to 10162
  140.5079  143.2299  151.8579 LP  0  0  0  0  0  0  0  0  0  0  0  0  # atno 17343 bound_to 10162
  156.4922  130.8090  151.3099 LP  0  0  0  0  0  0  0  0  0  0  0  0  # atno 17370 bound_to 10713
  157.7459  130.9971  150.2806 LP  0  0  0  0  0  0  0  0  0  0  0  0  # atno 17371 bound_to 10713
  141.2210  133.7300  156.8890 LP  0  0  0  0  0  0  0  0  0  0  0  0  # atno 17394 bound_to 11000
  140.1650  134.9139  157.2762 LP  0  0  0  0  0  0  0  0  0  0  0  0  # atno 17395 bound_to 11000

$$$$
