AV-unprocessed.smi:2317|AV-procd|sdf|9274|dock8
  -GOLD-   2272012493D 1   1.00000     0.00000
 Structure written by MMmdl.
 37 38  0  0  0  0  0  0  0  0  1 V2000
  144.3706  136.6025  152.2047 O   0  0  0  0  0  0  0  0  0  0  0  0
  145.5817  136.3944  152.2693 C   0  0  0  0  0  0  0  0  0  0  0  0
  146.4511  137.2552  152.8190 N   0  0  0  0  0  0  0  0  0  0  0  0
  146.1055  138.5303  153.4429 C   0  0  0  0  0  0  0  0  0  0  0  0
  147.3053  139.5057  153.5123 C   0  0  1  0  0  0  0  0  0  0  0  0
  146.8616  140.9354  153.9048 C   0  0  0  0  0  0  0  0  0  0  0  0
  148.0479  141.9041  154.0267 C   0  0  0  0  0  0  0  0  0  0  0  0
  149.0893  141.3819  155.0242 C   0  0  0  0  0  0  0  0  0  0  0  0
  149.5675  139.9807  154.6230 C   0  0  0  0  0  0  0  0  0  0  0  0
  148.3882  138.9979  154.4984 C   0  0  2  0  0  0  0  0  0  0  0  0
  148.9091  137.7571  154.0644 O   0  0  0  0  0  0  0  0  0  0  0  0
  146.2140  135.3079  151.7928 N   0  0  0  0  0  0  0  0  0  0  0  0
  145.6711  134.1604  151.1510 C   0  0  0  0  0  0  0  0  0  0  0  0
  144.4231  134.1317  150.4819 C   0  0  0  0  0  0  0  0  0  0  0  0
  143.9960  132.9209  149.9005 C   0  0  0  0  0  0  0  0  0  0  0  0
  144.7108  131.7772  149.9519 N   0  0  0  0  0  0  0  0  0  0  0  0
  145.8938  131.8047  150.6005 C   0  0  0  0  0  0  0  0  0  0  0  0
  146.4128  132.9617  151.2155 C   0  0  0  0  0  0  0  0  0  0  0  0
  147.6068  132.9181  151.8548 F   0  0  0  0  0  0  0  0  0  0  0  0
  147.4290  137.0045  152.8183 H   0  0  0  0  0  0  0  0  0  0  0  0
  145.2640  139.0025  152.9332 H   0  0  0  0  0  0  0  0  0  0  0  0
  145.7525  138.2984  154.4477 H   0  0  0  0  0  0  0  0  0  0  0  0
  147.7537  139.5601  152.5187 H   0  0  0  0  0  0  0  0  0  0  0  0
  146.1640  141.3339  153.1684 H   0  0  0  0  0  0  0  0  0  0  0  0
  146.3220  140.9037  154.8522 H   0  0  0  0  0  0  0  0  0  0  0  0
  148.5118  142.0402  153.0489 H   0  0  0  0  0  0  0  0  0  0  0  0
  147.6940  142.8865  154.3403 H   0  0  0  0  0  0  0  0  0  0  0  0
  149.9369  142.0660  155.0712 H   0  0  0  0  0  0  0  0  0  0  0  0
  148.6579  141.3513  156.0256 H   0  0  0  0  0  0  0  0  0  0  0  0
  150.1018  140.0420  153.6737 H   0  0  0  0  0  0  0  0  0  0  0  0
  150.2846  139.6138  155.3584 H   0  0  0  0  0  0  0  0  0  0  0  0
  147.9414  138.8503  155.4825 H   0  0  0  0  0  0  0  0  0  0  0  0
  148.6980  137.6462  153.1501 H   0  0  0  0  0  0  0  0  0  0  0  0
  147.2209  135.3194  151.8616 H   0  0  0  0  0  0  0  0  0  0  0  0
  143.7831  134.9968  150.4102 H   0  0  0  0  0  0  0  0  0  0  0  0
  143.0489  132.8691  149.3844 H   0  0  0  0  0  0  0  0  0  0  0  0
  146.4429  130.8754  150.6324 H   0  0  0  0  0  0  0  0  0  0  0  0
  1  2  2  0  0  0  0
  2  3  1  0  0  0  0
  2 12  1  0  0  0  0
  3  4  1  0  0  0  0
  3 20  1  0  0  0  0
  4  5  1  0  0  0  0
  4 21  1  0  0  0  0
  4 22  1  0  0  0  0
  5 10  1  0  0  0  0
  5  6  1  0  0  0  0
  5 23  1  0  0  0  0
  6  7  1  0  0  0  0
  6 24  1  0  0  0  0
  6 25  1  0  0  0  0
  7  8  1  0  0  0  0
  7 26  1  0  0  0  0
  7 27  1  0  0  0  0
  8  9  1  0  0  0  0
  8 28  1  0  0  0  0
  8 29  1  0  0  0  0
  9 10  1  0  0  0  0
  9 30  1  0  0  0  0
  9 31  1  0  0  0  0
 10 11  1  0  0  0  0
 10 32  1  0  0  0  0
 11 33  1  0  0  0  0
 12 13  1  0  0  0  0
 12 34  1  0  0  0  0
 13 18  1  0  0  0  0
 13 14  2  0  0  0  0
 14 15  1  0  0  0  0
 14 35  1  0  0  0  0
 15 16  2  0  0  0  0
 15 36  1  0  0  0  0
 16 17  1  0  0  0  0
 17 18  2  0  0  0  0
 17 37  1  0  0  0  0
 18 19  1  0  0  0  0
M  END
> <s_m_source_file>
AV-unprocessed.smi

> <i_m_source_file_index>
2317

> <i_lp_mmshare_version>
43012

> <i_f3d_flags>
0

> <s_epik_input>
RmMxW2NIXW5bY0hdW2NIXWMxW05IXUMoPU8pW05IXVtDSDJdW0NAQEhdMltDSDJdW0NIMl1bQ0gyXVtDSDJdW0NASF0yW09IXQ==

> <s_epik_cmdline>
J2VwaWtfcHl0aG9uJywgJy1waCcsICc3LjAnLCAnLXRuJywgJzgnLCAnLW1hJywgJzIwMCcsICctbWV0YWxfYmluZGluZycsICctaW1hZScsICc8aW5maWxlLm1hZT4nLCAnLW9tYWUnLCAnPG91dGZpbGUubWFlPic=

> <r_epik_Ionization_Penalty>
0.00317647

> <r_epik_Ionization_Penalty_Charging>
0

> <r_epik_Ionization_Penalty_Neutral>
0.00317647

> <r_epik_State_Penalty>
0.0022093

> <r_epik_Charging_Adjusted_Penalty>
0.0022093

> <i_epik_Tot_Q>
0

> <i_epik_Tot_abs_Q>
0

> <r_epik_Metal_State_Penalty>
-0

> <b_epik_Metal_Only>
0

> <s_lp_Force_Field>
OPLS_2005

> <r_lp_Energy>
17.8728

> <b_lp_Chiralities_Consistent>
1

> <s_lp_Variant>
AV-unprocessed.smi:2317-4

> <Gold.Version>
5.8.1

> <Gold.Id.Protein>
6NUR|6NUR_protein|mol2

> <Gold.PLP.Fitness>
46.6892

> <Gold.PLP.PLP>
-33.8297

> <Gold.PLP.part.hbond>
-3.5000

> <Gold.PLP.part.metal>
0.0000

> <Gold.PLP.part.buried>
-3.1331

> <Gold.PLP.part.nonpolar>
-28.7342

> <Gold.PLP.part.repulsive>
0.4109

> <Gold.PLP.ligand.clash>
0.0000

> <Gold.PLP.ligand.torsion>
0.3204

> <Gold.PLP.Chemscore.Hbond>
2.6480

> <Gold.PLP.Chemscore.CHOScore>
1.8508

> <Gold.PLP.Chemscore.Metal>
0.0000

> <Gold.Chemscore.Hbonds>
donor molecule, donor type, donor heavy atom, donor atom, acceptor molecule, acceptor atom, score
      L1  H     3    20       P1  7948  0.96
      L1  H    11    33       P1  7948  0.70
      L1  H    12    34       P1  7948  1.00
      L1  C    15    36       P1 10186  0.91
      L1  C    17    37       P1 10747  0.78

> <Gold.PLP.Chemscore.Internal.Correction>
0.0039

> <Gold.Rescore>
     Score         DG    S(hbond)    S(metal)    S(lipo)     H(rot)  DE(clash)    DE(int)     intcor
     16.70     -19.82       2.79        0.00      82.05       1.79       0.51       2.61       ----

> <Gold.Chemscore.Fitness>
16.7026

> <Gold.Chemscore.DG>
-19.8246

> <Gold.Chemscore.ZeroCoef>
-5.4800

> <Gold.Chemscore.Hbond>
2.7890

> <Gold.Chemscore.Metal>
0.0000

> <Gold.Chemscore.Lipo>
82.0479

> <Gold.Chemscore.Internal_Hbond>
0.0000

> <Gold.Chemscore.DEClash>
0.5102

> <Gold.Chemscore.DEInternal>
2.6118

> <Gold.Chemscore.Rot>
1.7853

> <Gold.Chemscore.Internal.Correction>
   9.000000E+99

> <Gold.Chemscore.Hbonds>
donor molecule, donor type, donor heavy atom, donor atom, acceptor molecule, acceptor atom, score
      L1  H     3    20       P1  7948  0.91
      L1  H    11    33       P1  7948  0.70
      L1  H    12    34       P1  7948  0.96

> <Gold.Chemscore.Hbond.Weighted>
-9.3154

> <Gold.Chemscore.Metal.Weighted>
-0.0000

> <Gold.Chemscore.Lipo.Weighted>
-9.5996

> <Gold.Chemscore.Internal_Hbond.Weighted>
0.0000

> <Gold.Chemscore.DEClash.Weighted>
0.5102

> <Gold.Chemscore.DEInternal.Weighted>
2.6118

> <Gold.Chemscore.Rot.Weighted>
4.5704

> <Gold.Chemscore.Internal.Correction.Weighted>
   9.000000E+99

> <Gold.Protein.RotatedTorsions>
[ 6907 6896 6895 6894 ] final  -40.50 input  -60.11 | X-H torsion
[ 7974 7965 7964 7962 ] final    0.62 input  175.53 | X-H torsion
[ 8008 7997 7996 7995 ] final   77.65 input   59.86 | X-H torsion
[ 10167 10162 10161 10158 ] final  114.88 input  -65.29 | X-H torsion
[ 10718 10713 10712 10709 ] final  128.21 input   66.30 | X-H torsion
[ 10763 10752 10751 10750 ] final -103.33 input  -60.55 | X-H torsion
[ 11005 11000 10999 10996 ] final  164.21 input  -57.11 | X-H torsion

> <Gold.Protein.ActiveResidues>
 VAL166  LYS551  ARG553  GLY616  TRP617  ASP618  TYR619  PRO620  LYS621  CYS622 
 ASP623  PHE694  ASN695  SER759  ASP760  ASP761  ALA762  ILE779  LEU786  VAL792 
 PHE793  MET794  SER795  GLU796  ALA797  LYS798  CYS799  TRP800  GLU811  SER814 

> <Gold.Protein.RotatedAtoms>
  150.9777  134.9138  159.7825 H   0  0  0  0  0  0  0  0  0  0  0  0  # atno 6907 bound_to 6896
  152.5211  134.3453  159.9242 H   0  0  0  0  0  0  0  0  0  0  0  0  # atno 6908 bound_to 6896
  151.3461  133.3902  159.2710 H   0  0  0  0  0  0  0  0  0  0  0  0  # atno 6909 bound_to 6896
  146.2435  140.1110  142.8344 H   0  0  0  0  0  0  0  0  0  0  0  0  # atno 7974 bound_to 7965
  155.8447  140.3461  155.5654 H   0  0  0  0  0  0  0  0  0  0  0  0  # atno 8008 bound_to 7997
  155.8103  140.0898  157.1927 H   0  0  0  0  0  0  0  0  0  0  0  0  # atno 8009 bound_to 7997
  154.4006  140.1449  156.3366 H   0  0  0  0  0  0  0  0  0  0  0  0  # atno 8010 bound_to 7997
  139.6357  144.7119  151.2340 H   0  0  0  0  0  0  0  0  0  0  0  0  # atno 10167 bound_to 10162
  157.5265  131.1098  150.9075 H   0  0  0  0  0  0  0  0  0  0  0  0  # atno 10718 bound_to 10713
  154.7799  135.4827  153.9822 H   0  0  0  0  0  0  0  0  0  0  0  0  # atno 10763 bound_to 10752
  153.1479  135.6785  153.8933 H   0  0  0  0  0  0  0  0  0  0  0  0  # atno 10764 bound_to 10752
  153.8587  135.3158  155.3415 H   0  0  0  0  0  0  0  0  0  0  0  0  # atno 10765 bound_to 10752
  140.2436  134.8032  157.3434 H   0  0  0  0  0  0  0  0  0  0  0  0  # atno 11005 bound_to 11000
  145.0487  140.9001  143.5008 LP  0  0  0  0  0  0  0  0  0  0  0  0  # atno 17320 bound_to 7965
  145.1204  139.2697  143.5591 LP  0  0  0  0  0  0  0  0  0  0  0  0  # atno 17321 bound_to 7965
  140.7464  143.6401  150.8343 LP  0  0  0  0  0  0  0  0  0  0  0  0  # atno 17342 bound_to 10162
  140.0032  143.5722  152.2868 LP  0  0  0  0  0  0  0  0  0  0  0  0  # atno 17343 bound_to 10162
  156.9669  130.5476  149.5288 LP  0  0  0  0  0  0  0  0  0  0  0  0  # atno 17370 bound_to 10713
  156.0391  130.5475  150.8726 LP  0  0  0  0  0  0  0  0  0  0  0  0  # atno 17371 bound_to 10713
  140.1628  134.4706  155.7883 LP  0  0  0  0  0  0  0  0  0  0  0  0  # atno 17394 bound_to 11000
  141.2208  133.6908  156.7574 LP  0  0  0  0  0  0  0  0  0  0  0  0  # atno 17395 bound_to 11000

$$$$
