AV-unprocessed.smi:2597|AV-procd|sdf|10174|dock3
  -GOLD-   2272014183D 1   1.00000     0.00000
 Structure written by MMmdl.
 30 31  0  0  0  0  0  0  0  0  1 V2000
  144.2393  134.7352  149.2608 N   0  0  0  0  0  0  0  0  0  0  0  0
  144.4087  133.8948  150.4332 C   0  0  1  0  0  0  0  0  0  0  0  0
  145.6451  132.9868  150.2659 C   0  0  0  0  0  0  0  0  0  0  0  0
  145.8583  132.1066  151.5080 C   0  0  0  0  0  0  0  0  0  0  0  0
  145.9362  132.9447  152.7943 C   0  0  0  0  0  0  0  0  0  0  0  0
  144.6843  133.8249  152.9631 C   0  0  0  0  0  0  0  0  0  0  0  0
  144.4134  134.7329  151.7431 C   0  0  1  0  0  0  0  0  0  0  0  0
  145.2894  135.9074  151.7367 N   0  0  0  0  0  0  0  0  0  0  0  0
  145.4874  136.8037  152.7679 C   0  0  0  0  0  0  0  0  0  0  0  0
  146.4152  137.6776  152.2725 C   0  0  0  0  0  0  0  0  0  0  0  0
  147.0554  138.8810  152.9032 C   0  0  0  0  0  0  0  0  0  0  0  0
  147.2299  139.8571  151.8966 O   0  0  0  0  0  0  0  0  0  0  0  0
  146.7521  137.2751  150.9825 N   0  0  0  0  0  0  0  0  0  0  0  0
  146.0789  136.2117  150.6765 N   0  0  0  0  0  0  0  0  0  0  0  0
  143.5350  133.2429  150.4704 H   0  0  0  0  0  0  0  0  0  0  0  0
  143.4027  135.1259  151.8645 H   0  0  0  0  0  0  0  0  0  0  0  0
  144.8689  134.4348  148.5305 H   0  0  0  0  0  0  0  0  0  0  0  0
  143.3025  134.6324  148.8977 H   0  0  0  0  0  0  0  0  0  0  0  0
  145.5172  132.3477  149.3915 H   0  0  0  0  0  0  0  0  0  0  0  0
  146.5426  133.5734  150.0734 H   0  0  0  0  0  0  0  0  0  0  0  0
  145.0370  131.3938  151.5908 H   0  0  0  0  0  0  0  0  0  0  0  0
  146.7678  131.5165  151.3927 H   0  0  0  0  0  0  0  0  0  0  0  0
  146.0368  132.2839  153.6557 H   0  0  0  0  0  0  0  0  0  0  0  0
  146.8348  133.5611  152.7821 H   0  0  0  0  0  0  0  0  0  0  0  0
  143.8220  133.1748  153.1153 H   0  0  0  0  0  0  0  0  0  0  0  0
  144.7689  134.4263  153.8692 H   0  0  0  0  0  0  0  0  0  0  0  0
  144.9761  136.7456  153.7172 H   0  0  0  0  0  0  0  0  0  0  0  0
  146.4308  139.2859  153.6995 H   0  0  0  0  0  0  0  0  0  0  0  0
  148.0251  138.6323  153.3350 H   0  0  0  0  0  0  0  0  0  0  0  0
  148.0868  139.7429  151.5149 H   0  0  0  0  0  0  0  0  0  0  0  0
  1  2  1  0  0  0  0
  1 17  1  0  0  0  0
  1 18  1  0  0  0  0
  2 15  1  0  0  0  0
  2  7  1  0  0  0  0
  2  3  1  0  0  0  0
  3  4  1  0  0  0  0
  3 19  1  0  0  0  0
  3 20  1  0  0  0  0
  4  5  1  0  0  0  0
  4 21  1  0  0  0  0
  4 22  1  0  0  0  0
  5  6  1  0  0  0  0
  5 23  1  0  0  0  0
  5 24  1  0  0  0  0
  6  7  1  0  0  0  0
  6 25  1  0  0  0  0
  6 26  1  0  0  0  0
  7 16  1  0  0  0  0
  7  8  1  0  0  0  0
  8 14  1  0  0  0  0
  8  9  1  0  0  0  0
  9 10  2  0  0  0  0
  9 27  1  0  0  0  0
 10 11  1  0  0  0  0
 10 13  1  0  0  0  0
 11 12  1  0  0  0  0
 11 28  1  0  0  0  0
 11 29  1  0  0  0  0
 12 30  1  0  0  0  0
 13 14  2  0  0  0  0
M  END
> <s_m_source_file>
AV-unprocessed.smi

> <i_m_source_file_index>
2597

> <i_lp_mmshare_version>
43012

> <i_f3d_flags>
0

> <s_epik_input>
W05IMl1bQ0BIXTFbQ0gyXVtDSDJdW0NIMl1bQ0gyXVtDQEhdMW4yW2NIXWMobm4yKVtDSDJdW09IXQ==

> <s_epik_cmdline>
J2VwaWtfcHl0aG9uJywgJy1waCcsICc3LjAnLCAnLXRuJywgJzgnLCAnLW1hJywgJzIwMCcsICctbWV0YWxfYmluZGluZycsICctaW1hZScsICc8aW5maWxlLm1hZT4nLCAnLW9tYWUnLCAnPG91dGZpbGUubWFlPic=

> <r_lp_tautomer_probability>
1

> <r_epik_Ionization_Penalty>
2.21303

> <r_epik_Ionization_Penalty_Charging>
0

> <r_epik_Ionization_Penalty_Neutral>
2.21303

> <r_epik_State_Penalty>
2.3573

> <r_epik_Charging_Adjusted_Penalty>
2.3573

> <i_epik_Tot_Q>
0

> <i_epik_Tot_abs_Q>
0

> <r_epik_Metal_State_Penalty>
2.35724

> <b_epik_Metal_Only>
0

> <s_lp_Force_Field>
OPLS_2005

> <r_lp_Energy>
16.8416

> <b_lp_Chiralities_Consistent>
1

> <s_lp_Variant>
AV-unprocessed.smi:2597-5

> <Gold.Version>
5.8.1

> <Gold.Id.Protein>
6NUR|6NUR_protein|mol2

> <Gold.PLP.Fitness>
34.8528

> <Gold.PLP.PLP>
-23.8843

> <Gold.PLP.part.hbond>
-4.3963

> <Gold.PLP.part.metal>
0.0000

> <Gold.PLP.part.buried>
-4.3111

> <Gold.PLP.part.nonpolar>
-18.0531

> <Gold.PLP.part.repulsive>
3.3201

> <Gold.PLP.ligand.clash>
0.0000

> <Gold.PLP.ligand.torsion>
0.3767

> <Gold.PLP.Chemscore.Hbond>
3.8863

> <Gold.PLP.Chemscore.CHOScore>
0.0000

> <Gold.PLP.Chemscore.Metal>
0.0000

> <Gold.Chemscore.Hbonds>
donor molecule, donor type, donor heavy atom, donor atom, acceptor molecule, acceptor atom, score
      L1  H     1    17       P1  7921  0.93
      L1  H     1    18       P1 10186  0.11
      L1  H    12    30       P1  7957  1.00
      P1  H  7954  7966       L1    13  1.00

> <Gold.PLP.Chemscore.Internal.Correction>
0.0631

> <Gold.Rescore>
     Score         DG    S(hbond)    S(metal)    S(lipo)     H(rot)  DE(clash)    DE(int)     intcor
     15.74     -19.17       3.67        0.00      52.01       1.82       1.65       1.77       ----

> <Gold.Chemscore.Fitness>
15.7381

> <Gold.Chemscore.DG>
-19.1669

> <Gold.Chemscore.ZeroCoef>
-5.4800

> <Gold.Chemscore.Hbond>
3.6728

> <Gold.Chemscore.Metal>
0.0000

> <Gold.Chemscore.Lipo>
52.0051

> <Gold.Chemscore.Internal_Hbond>
0.0000

> <Gold.Chemscore.DEClash>
1.6545

> <Gold.Chemscore.DEInternal>
1.7743

> <Gold.Chemscore.Rot>
1.8222

> <Gold.Chemscore.Internal.Correction>
   9.000000E+99

> <Gold.Chemscore.Hbonds>
donor molecule, donor type, donor heavy atom, donor atom, acceptor molecule, acceptor atom, score
      L1  H     1    17       P1  7921  0.89
      L1  H     1    18       P1 10186  0.14
      L1  H    12    30       P1  7957  0.95
      P1  H  7954  7966       L1    13  0.97

> <Gold.Chemscore.Hbond.Weighted>
-12.2672

> <Gold.Chemscore.Metal.Weighted>
-0.0000

> <Gold.Chemscore.Lipo.Weighted>
-6.0846

> <Gold.Chemscore.Internal_Hbond.Weighted>
0.0000

> <Gold.Chemscore.DEClash.Weighted>
1.6545

> <Gold.Chemscore.DEInternal.Weighted>
1.7743

> <Gold.Chemscore.Rot.Weighted>
4.6649

> <Gold.Chemscore.Internal.Correction.Weighted>
   9.000000E+99

> <Gold.Protein.RotatedTorsions>
[ 6907 6896 6895 6894 ] final  -43.61 input  -60.11 | X-H torsion
[ 7974 7965 7964 7962 ] final   30.26 input  175.53 | X-H torsion
[ 8008 7997 7996 7995 ] final  -13.47 input   59.86 | X-H torsion
[ 10167 10162 10161 10158 ] final  -13.31 input  -65.29 | X-H torsion
[ 10718 10713 10712 10709 ] final   99.90 input   66.30 | X-H torsion
[ 10763 10752 10751 10750 ] final  -20.21 input  -60.55 | X-H torsion
[ 11005 11000 10999 10996 ] final -136.72 input  -57.11 | X-H torsion

> <Gold.Protein.ActiveResidues>
 VAL166  LYS551  ARG553  GLY616  TRP617  ASP618  TYR619  PRO620  LYS621  CYS622 
 ASP623  PHE694  ASN695  SER759  ASP760  ASP761  ALA762  ILE779  LEU786  VAL792 
 PHE793  MET794  SER795  GLU796  ALA797  LYS798  CYS799  TRP800  GLU811  SER814 

> <Gold.Protein.RotatedAtoms>
  150.9420  134.8828  159.7618 H   0  0  0  0  0  0  0  0  0  0  0  0  # atno 6907 bound_to 6896
  152.5084  134.3928  159.9400 H   0  0  0  0  0  0  0  0  0  0  0  0  # atno 6908 bound_to 6896
  151.3948  133.3737  159.2760 H   0  0  0  0  0  0  0  0  0  0  0  0  # atno 6909 bound_to 6896
  146.1622  139.6812  142.9025 H   0  0  0  0  0  0  0  0  0  0  0  0  # atno 7974 bound_to 7965
  154.5290  140.2248  155.8839 H   0  0  0  0  0  0  0  0  0  0  0  0  # atno 8008 bound_to 7997
  156.1743  140.3115  155.8995 H   0  0  0  0  0  0  0  0  0  0  0  0  # atno 8009 bound_to 7997
  155.3492  140.0455  157.3036 H   0  0  0  0  0  0  0  0  0  0  0  0  # atno 8010 bound_to 7997
  140.7179  143.5440  150.9377 H   0  0  0  0  0  0  0  0  0  0  0  0  # atno 10167 bound_to 10162
  157.6866  131.0683  150.5018 H   0  0  0  0  0  0  0  0  0  0  0  0  # atno 10718 bound_to 10713
  153.6168  135.6994  153.5325 H   0  0  0  0  0  0  0  0  0  0  0  0  # atno 10763 bound_to 10752
  153.2970  135.4140  155.1218 H   0  0  0  0  0  0  0  0  0  0  0  0  # atno 10764 bound_to 10752
  154.8552  135.3639  154.5708 H   0  0  0  0  0  0  0  0  0  0  0  0  # atno 10765 bound_to 10752
  140.8778  134.1969  157.4610 H   0  0  0  0  0  0  0  0  0  0  0  0  # atno 11005 bound_to 11000
  145.4559  141.0430  143.2779 LP  0  0  0  0  0  0  0  0  0  0  0  0  # atno 17320 bound_to 7965
  144.8043  139.6081  143.7058 LP  0  0  0  0  0  0  0  0  0  0  0  0  # atno 17321 bound_to 7965
  139.9163  143.6660  152.3105 LP  0  0  0  0  0  0  0  0  0  0  0  0  # atno 17342 bound_to 10162
  139.7060  144.7628  151.1191 LP  0  0  0  0  0  0  0  0  0  0  0  0  # atno 17343 bound_to 10162
  156.5339  130.4191  149.6187 LP  0  0  0  0  0  0  0  0  0  0  0  0  # atno 17370 bound_to 10713
  156.3045  130.7195  151.2074 LP  0  0  0  0  0  0  0  0  0  0  0  0  # atno 17371 bound_to 10713
  139.8717  134.9804  156.5073 LP  0  0  0  0  0  0  0  0  0  0  0  0  # atno 17394 bound_to 11000
  140.8497  133.8141  155.9156 LP  0  0  0  0  0  0  0  0  0  0  0  0  # atno 17395 bound_to 11000

$$$$
