AV-unprocessed.smi:2300|AV-procd|sdf|9233|dock6
  -GOLD-   2272012453D 1   1.00000     0.00000
 Structure written by MMmdl.
 51 52  0  0  0  0  0  0  0  0  1 V2000
  146.6570  142.5455  153.0364 C   0  0  0  0  0  0  0  0  0  0  0  0
  147.1100  141.4449  153.9907 C   0  0  0  0  0  0  0  0  0  0  0  0
  146.7196  141.4463  155.1576 O   0  0  0  0  0  0  0  0  0  0  0  0
  147.9364  140.5154  153.4872 N   0  0  0  0  0  0  0  0  0  0  0  0
  148.4925  139.3938  154.2365 C   0  0  0  0  0  0  0  0  0  0  0  0
  149.9911  139.5873  154.5229 C   0  0  1  0  0  0  0  0  0  0  0  0
  150.2495  139.9525  155.9967 C   0  0  0  0  0  0  0  0  0  0  0  0
  151.6850  140.0346  156.2582 N   0  0  0  0  0  0  0  0  0  0  0  0
  152.1025  140.6208  157.4718 C   0  0  0  0  0  0  0  0  0  0  0  0
  151.6909  141.9267  157.8282 C   0  0  0  0  0  0  0  0  0  0  0  0
  152.1526  142.4298  159.0630 C   0  0  0  0  0  0  0  0  0  0  0  0
  151.7630  143.8203  159.5443 C   0  0  0  0  0  0  0  0  0  0  0  0
  152.2349  144.9137  158.5735 C   0  0  0  0  0  0  0  0  0  0  0  0
  152.2297  144.0767  160.9857 C   0  0  0  0  0  0  0  0  0  0  0  0
  152.9533  141.6987  159.8701 N   0  0  0  0  0  0  0  0  0  0  0  0
  153.2837  140.4757  159.4486 C   0  0  0  0  0  0  0  0  0  0  0  0
  154.1876  139.6558  160.3600 C   0  0  0  0  0  0  0  0  0  0  0  0
  153.5810  138.2819  160.6844 C   0  0  0  0  0  0  0  0  0  0  0  0
  154.6050  140.4401  161.6139 C   0  0  0  0  0  0  0  0  0  0  0  0
  152.9014  139.9061  158.3014 N   0  0  0  0  0  0  0  0  0  0  0  0
  152.4216  138.8458  155.8384 C   0  0  0  0  0  0  0  0  0  0  0  0
  152.0819  138.4933  154.3801 C   0  0  0  0  0  0  0  0  0  0  0  0
  150.6716  138.3693  154.2289 O   0  0  0  0  0  0  0  0  0  0  0  0
  146.8955  142.3003  152.0007 H   0  0  0  0  0  0  0  0  0  0  0  0
  147.1484  143.4857  153.2880 H   0  0  0  0  0  0  0  0  0  0  0  0
  145.5789  142.6914  153.1108 H   0  0  0  0  0  0  0  0  0  0  0  0
  148.2104  140.5968  152.5188 H   0  0  0  0  0  0  0  0  0  0  0  0
  147.9414  139.2663  155.1699 H   0  0  0  0  0  0  0  0  0  0  0  0
  148.3363  138.4817  153.6597 H   0  0  0  0  0  0  0  0  0  0  0  0
  150.3794  140.3832  153.8841 H   0  0  0  0  0  0  0  0  0  0  0  0
  149.7730  140.9081  156.2197 H   0  0  0  0  0  0  0  0  0  0  0  0
  149.8058  139.2046  156.6555 H   0  0  0  0  0  0  0  0  0  0  0  0
  151.0388  142.5142  157.1994 H   0  0  0  0  0  0  0  0  0  0  0  0
  150.6730  143.8612  159.5560 H   0  0  0  0  0  0  0  0  0  0  0  0
  151.8398  144.7439  157.5714 H   0  0  0  0  0  0  0  0  0  0  0  0
  153.3226  144.9434  158.5023 H   0  0  0  0  0  0  0  0  0  0  0  0
  151.8979  145.8983  158.8986 H   0  0  0  0  0  0  0  0  0  0  0  0
  151.8284  143.3250  161.6660 H   0  0  0  0  0  0  0  0  0  0  0  0
  151.8956  145.0527  161.3383 H   0  0  0  0  0  0  0  0  0  0  0  0
  153.3170  144.0509  161.0645 H   0  0  0  0  0  0  0  0  0  0  0  0
  155.1078  139.4583  159.8068 H   0  0  0  0  0  0  0  0  0  0  0  0
  153.3681  137.7234  159.7725 H   0  0  0  0  0  0  0  0  0  0  0  0
  152.6485  138.3787  161.2415 H   0  0  0  0  0  0  0  0  0  0  0  0
  154.2657  137.6835  161.2857 H   0  0  0  0  0  0  0  0  0  0  0  0
  155.0964  141.3756  161.3449 H   0  0  0  0  0  0  0  0  0  0  0  0
  155.3014  139.8636  162.2230 H   0  0  0  0  0  0  0  0  0  0  0  0
  153.7436  140.6834  162.2371 H   0  0  0  0  0  0  0  0  0  0  0  0
  153.4980  138.9848  155.9271 H   0  0  0  0  0  0  0  0  0  0  0  0
  152.1528  138.0170  156.4945 H   0  0  0  0  0  0  0  0  0  0  0  0
  152.4665  139.2520  153.6964 H   0  0  0  0  0  0  0  0  0  0  0  0
  152.5521  137.5496  154.1036 H   0  0  0  0  0  0  0  0  0  0  0  0
  1  2  1  0  0  0  0
  1 24  1  0  0  0  0
  1 25  1  0  0  0  0
  1 26  1  0  0  0  0
  2  3  2  0  0  0  0
  2  4  1  0  0  0  0
  4  5  1  0  0  0  0
  4 27  1  0  0  0  0
  5  6  1  0  0  0  0
  5 28  1  0  0  0  0
  5 29  1  0  0  0  0
  6 23  1  0  0  0  0
  6  7  1  0  0  0  0
  6 30  1  0  0  0  0
  7  8  1  0  0  0  0
  7 31  1  0  0  0  0
  7 32  1  0  0  0  0
  8  9  1  0  0  0  0
  8 21  1  0  0  0  0
  9 20  1  0  0  0  0
  9 10  2  0  0  0  0
 10 11  1  0  0  0  0
 10 33  1  0  0  0  0
 11 12  1  0  0  0  0
 11 15  2  0  0  0  0
 12 13  1  0  0  0  0
 12 14  1  0  0  0  0
 12 34  1  0  0  0  0
 13 35  1  0  0  0  0
 13 36  1  0  0  0  0
 13 37  1  0  0  0  0
 14 38  1  0  0  0  0
 14 39  1  0  0  0  0
 14 40  1  0  0  0  0
 15 16  1  0  0  0  0
 16 17  1  0  0  0  0
 16 20  2  0  0  0  0
 17 18  1  0  0  0  0
 17 19  1  0  0  0  0
 17 41  1  0  0  0  0
 18 42  1  0  0  0  0
 18 43  1  0  0  0  0
 18 44  1  0  0  0  0
 19 45  1  0  0  0  0
 19 46  1  0  0  0  0
 19 47  1  0  0  0  0
 21 22  1  0  0  0  0
 21 48  1  0  0  0  0
 21 49  1  0  0  0  0
 22 23  1  0  0  0  0
 22 50  1  0  0  0  0
 22 51  1  0  0  0  0
M  END
> <s_m_source_file>
AV-unprocessed.smi

> <i_m_source_file_index>
2300

> <i_lp_mmshare_version>
43012

> <i_f3d_flags>
0

> <s_epik_input>
W0NIM11DKD1PKVtOSF1bQ0gyXVtDQEBIXTFbQ0gyXU4oW0NIMl1bQ0gyXU8xKWMyW2NIXWMoW0NIXShbQ0gzXSlbQ0gzXSluYyhuMilbQ0hdKFtDSDNdKVtDSDNd

> <s_epik_cmdline>
J2VwaWtfcHl0aG9uJywgJy1waCcsICc3LjAnLCAnLXRuJywgJzgnLCAnLW1hJywgJzIwMCcsICctbWV0YWxfYmluZGluZycsICctaW1hZScsICc8aW5maWxlLm1hZT4nLCAnLW9tYWUnLCAnPG91dGZpbGUubWFlPic=

> <r_lp_tautomer_probability>
1

> <r_epik_Ionization_Penalty>
0.0035465

> <r_epik_Ionization_Penalty_Charging>
0

> <r_epik_Ionization_Penalty_Neutral>
0.0035465

> <r_epik_State_Penalty>
0.00247846

> <r_epik_Charging_Adjusted_Penalty>
0.00247846

> <i_epik_Tot_Q>
0

> <i_epik_Tot_abs_Q>
0

> <r_epik_Metal_State_Penalty>
-0

> <b_epik_Metal_Only>
0

> <s_lp_Force_Field>
OPLS_2005

> <r_lp_Energy>
1.47364

> <b_lp_Chiralities_Consistent>
1

> <s_lp_Variant>
AV-unprocessed.smi:2300-2

> <Gold.Version>
5.8.1

> <Gold.Id.Protein>
6NUR|6NUR_protein|mol2

> <Gold.PLP.Fitness>
47.6204

> <Gold.PLP.PLP>
-43.7548

> <Gold.PLP.part.hbond>
-2.0000

> <Gold.PLP.part.metal>
0.0000

> <Gold.PLP.part.buried>
-6.0932

> <Gold.PLP.part.nonpolar>
-34.2148

> <Gold.PLP.part.repulsive>
0.3946

> <Gold.PLP.ligand.clash>
0.0000

> <Gold.PLP.ligand.torsion>
1.0178

> <Gold.PLP.Chemscore.Hbond>
1.8088

> <Gold.PLP.Chemscore.CHOScore>
0.0000

> <Gold.PLP.Chemscore.Metal>
0.0000

> <Gold.Chemscore.Hbonds>
donor molecule, donor type, donor heavy atom, donor atom, acceptor molecule, acceptor atom, score
      L1  H     4    27       P1  7957  0.90
      P1  H  7997  8009       L1    20  0.59

> <Gold.PLP.Chemscore.Internal.Correction>
0.4747

> <Gold.Rescore>
     Score         DG    S(hbond)    S(metal)    S(lipo)     H(rot)  DE(clash)    DE(int)     intcor
     15.94     -18.50       1.15        0.00     118.25       1.82       1.43       1.13       ----

> <Gold.Chemscore.Fitness>
15.9407

> <Gold.Chemscore.DG>
-18.4986

> <Gold.Chemscore.ZeroCoef>
-5.4800

> <Gold.Chemscore.Hbond>
1.1472

> <Gold.Chemscore.Metal>
0.0000

> <Gold.Chemscore.Lipo>
118.2488

> <Gold.Chemscore.Internal_Hbond>
0.0000

> <Gold.Chemscore.DEClash>
1.4255

> <Gold.Chemscore.DEInternal>
1.1324

> <Gold.Chemscore.Rot>
1.8156

> <Gold.Chemscore.Internal.Correction>
   9.000000E+99

> <Gold.Chemscore.Hbonds>
donor molecule, donor type, donor heavy atom, donor atom, acceptor molecule, acceptor atom, score
      L1  H     4    27       P1  7957  0.84
      P1  H  7997  8009       L1    20  0.03

> <Gold.Chemscore.Hbond.Weighted>
-3.8315

> <Gold.Chemscore.Metal.Weighted>
-0.0000

> <Gold.Chemscore.Lipo.Weighted>
-13.8351

> <Gold.Chemscore.Internal_Hbond.Weighted>
0.0000

> <Gold.Chemscore.DEClash.Weighted>
1.4255

> <Gold.Chemscore.DEInternal.Weighted>
1.1324

> <Gold.Chemscore.Rot.Weighted>
4.6481

> <Gold.Chemscore.Internal.Correction.Weighted>
   9.000000E+99

> <Gold.Protein.RotatedTorsions>
[ 6907 6896 6895 6894 ] final  119.12 input  -60.11 | X-H torsion
[ 7974 7965 7964 7962 ] final   12.54 input  175.53 | X-H torsion
[ 8008 7997 7996 7995 ] final  142.52 input   59.86 | X-H torsion
[ 10167 10162 10161 10158 ] final  157.24 input  -65.29 | X-H torsion
[ 10718 10713 10712 10709 ] final -147.74 input   66.30 | X-H torsion
[ 10763 10752 10751 10750 ] final  -54.60 input  -60.55 | X-H torsion
[ 11005 11000 10999 10996 ] final  -89.51 input  -57.11 | X-H torsion

> <Gold.Protein.ActiveResidues>
 VAL166  LYS551  ARG553  GLY616  TRP617  ASP618  TYR619  PRO620  LYS621  CYS622 
 ASP623  PHE694  ASN695  SER759  ASP760  ASP761  ALA762  ILE779  LEU786  VAL792 
 PHE793  MET794  SER795  GLU796  ALA797  LYS798  CYS799  TRP800  GLU811  SER814 

> <Gold.Protein.RotatedAtoms>
  152.4495  133.7600  159.6741 H   0  0  0  0  0  0  0  0  0  0  0  0  # atno 6907 bound_to 6896
  150.8402  133.7937  159.3070 H   0  0  0  0  0  0  0  0  0  0  0  0  # atno 6908 bound_to 6896
  151.5564  135.1069  160.0014 H   0  0  0  0  0  0  0  0  0  0  0  0  # atno 6909 bound_to 6896
  146.2349  139.9321  142.8495 H   0  0  0  0  0  0  0  0  0  0  0  0  # atno 7974 bound_to 7965
  156.2948  140.2287  156.4740 H   0  0  0  0  0  0  0  0  0  0  0  0  # atno 8008 bound_to 7997
  154.7910  140.0454  157.1222 H   0  0  0  0  0  0  0  0  0  0  0  0  # atno 8009 bound_to 7997
  154.9645  140.3058  155.5019 H   0  0  0  0  0  0  0  0  0  0  0  0  # atno 8010 bound_to 7997
  139.4822  144.4936  151.8273 H   0  0  0  0  0  0  0  0  0  0  0  0  # atno 10167 bound_to 10162
  156.4114  130.7983  151.2201 H   0  0  0  0  0  0  0  0  0  0  0  0  # atno 10718 bound_to 10713
  154.1775  135.6449  153.5025 H   0  0  0  0  0  0  0  0  0  0  0  0  # atno 10763 bound_to 10752
  153.0068  135.5398  154.6549 H   0  0  0  0  0  0  0  0  0  0  0  0  # atno 10764 bound_to 10752
  154.5904  135.2933  155.0613 H   0  0  0  0  0  0  0  0  0  0  0  0  # atno 10765 bound_to 10752
  141.1583  133.7635  156.9605 H   0  0  0  0  0  0  0  0  0  0  0  0  # atno 11005 bound_to 11000
  145.2034  140.9864  143.4142 LP  0  0  0  0  0  0  0  0  0  0  0  0  # atno 17320 bound_to 7965
  144.9754  139.3837  143.6288 LP  0  0  0  0  0  0  0  0  0  0  0  0  # atno 17321 bound_to 7965
  140.4422  144.1971  150.5892 LP  0  0  0  0  0  0  0  0  0  0  0  0  # atno 17342 bound_to 10162
  140.4671  143.2426  151.9140 LP  0  0  0  0  0  0  0  0  0  0  0  0  # atno 17343 bound_to 10162
  157.7507  131.0256  150.3927 LP  0  0  0  0  0  0  0  0  0  0  0  0  # atno 17370 bound_to 10713
  156.4226  130.3956  149.6814 LP  0  0  0  0  0  0  0  0  0  0  0  0  # atno 17371 bound_to 10713
  140.1196  134.9425  157.2184 LP  0  0  0  0  0  0  0  0  0  0  0  0  # atno 17394 bound_to 11000
  140.3089  134.3046  155.7271 LP  0  0  0  0  0  0  0  0  0  0  0  0  # atno 17395 bound_to 11000

$$$$
