AV-unprocessed.smi:148|AV-procd|sdf|1220|dock4
  -GOLD-   2262018413D 1   1.00000     0.00000
 Structure written by MMmdl.
 63 67  0  0  0  0  0  0  0  0  1 V2000
  146.6320  136.1841  152.9851 O   0  0  0  0  0  0  0  0  0  0  0  0
  146.0223  135.3072  152.0608 C   0  0  0  0  0  0  0  0  0  0  0  0
  145.8075  133.9015  152.6726 C   0  0  2  0  0  0  0  0  0  0  0  0
  147.0354  133.4420  153.5021 C   0  0  0  0  0  0  0  0  0  0  0  0
  146.9205  133.7684  154.9125 N   0  0  0  0  0  0  0  0  0  0  0  0
  145.7802  134.1728  155.5695 C   0  0  0  0  0  0  0  0  0  0  0  0
  145.9248  134.4017  156.8463 N   0  0  0  0  0  0  0  0  0  0  0  0
  147.2670  134.1354  157.0851 C   0  0  0  0  0  0  0  0  0  0  0  0
  148.0915  134.1864  158.2397 C   0  0  0  0  0  0  0  0  0  0  0  0
  147.6000  134.5334  159.4535 N   0  0  0  0  0  0  0  0  0  0  0  0
  147.1544  133.3191  160.1406 C   0  0  0  0  0  0  0  0  0  0  0  0
  146.3914  133.6394  161.4312 C   0  0  0  0  0  0  0  0  0  0  0  0
  147.2437  134.5277  162.3407 C   0  0  0  0  0  0  0  0  0  0  0  0
  147.6394  135.8009  161.5843 C   0  0  0  0  0  0  0  0  0  0  0  0
  148.3905  135.4824  160.2634 C   0  0  2  0  0  0  0  0  0  0  0  0
  148.8074  136.7713  159.4792 C   0  0  2  0  0  0  0  0  0  0  0  0
  147.6941  137.3832  158.6072 C   0  0  0  0  0  0  0  0  0  0  0  0
  148.3950  138.1034  157.4434 C   0  0  0  0  0  0  0  0  0  0  0  0
  149.8988  137.9265  157.6717 C   0  0  0  0  0  0  0  0  0  0  0  0
  150.0112  136.6647  158.5263 C   0  0  1  0  0  0  0  0  0  0  0  0
  151.2497  136.6257  159.2038 O   0  0  0  0  0  0  0  0  0  0  0  0
  149.3974  133.8315  158.1026 N   0  0  0  0  0  0  0  0  0  0  0  0
  149.8703  133.4733  156.9049 C   0  0  0  0  0  0  0  0  0  0  0  0
  149.2215  133.3913  155.7409 N   0  0  0  0  0  0  0  0  0  0  0  0
  147.9080  133.7315  155.8814 C   0  0  0  0  0  0  0  0  0  0  0  0
  145.3659  132.8707  151.5955 C   0  0  1  0  0  0  0  0  0  0  0  0
  144.0101  133.1053  150.9292 C   0  0  0  0  0  0  0  0  0  0  0  0
  144.2442  132.7307  149.4627 C   0  0  0  0  0  0  0  0  0  0  0  0
  145.4875  132.0445  149.4511 O   0  0  0  0  0  0  0  0  0  0  0  0
  146.3162  132.6780  150.4103 C   0  0  0  0  0  0  0  0  0  0  0  0
  147.5694  136.0802  152.9245 H   0  0  0  0  0  0  0  0  0  0  0  0
  145.0766  135.7345  151.7263 H   0  0  0  0  0  0  0  0  0  0  0  0
  146.6757  135.2644  151.1902 H   0  0  0  0  0  0  0  0  0  0  0  0
  144.9759  133.9884  153.3738 H   0  0  0  0  0  0  0  0  0  0  0  0
  147.1741  132.3643  153.4385 H   0  0  0  0  0  0  0  0  0  0  0  0
  147.9528  133.8911  153.1231 H   0  0  0  0  0  0  0  0  0  0  0  0
  144.8309  134.2928  155.0675 H   0  0  0  0  0  0  0  0  0  0  0  0
  146.5124  132.7293  159.4844 H   0  0  0  0  0  0  0  0  0  0  0  0
  148.0226  132.7000  160.3725 H   0  0  0  0  0  0  0  0  0  0  0  0
  145.4553  134.1450  161.1900 H   0  0  0  0  0  0  0  0  0  0  0  0
  146.1247  132.7168  161.9473 H   0  0  0  0  0  0  0  0  0  0  0  0
  146.6889  134.7826  163.2439 H   0  0  0  0  0  0  0  0  0  0  0  0
  148.1373  133.9898  162.6599 H   0  0  0  0  0  0  0  0  0  0  0  0
  146.7283  136.3616  161.3780 H   0  0  0  0  0  0  0  0  0  0  0  0
  148.2433  136.4246  162.2411 H   0  0  0  0  0  0  0  0  0  0  0  0
  149.3097  134.9622  160.5374 H   0  0  0  0  0  0  0  0  0  0  0  0
  149.0487  137.5600  160.1918 H   0  0  0  0  0  0  0  0  0  0  0  0
  147.0212  136.6275  158.2056 H   0  0  0  0  0  0  0  0  0  0  0  0
  147.0795  138.0703  159.1900 H   0  0  0  0  0  0  0  0  0  0  0  0
  148.1057  137.6408  156.4989 H   0  0  0  0  0  0  0  0  0  0  0  0
  148.1201  139.1570  157.3874 H   0  0  0  0  0  0  0  0  0  0  0  0
  150.4602  137.8552  156.7396 H   0  0  0  0  0  0  0  0  0  0  0  0
  150.2812  138.7872  158.2232 H   0  0  0  0  0  0  0  0  0  0  0  0
  149.9294  135.7968  157.8736 H   0  0  0  0  0  0  0  0  0  0  0  0
  151.4369  137.4891  159.5387 H   0  0  0  0  0  0  0  0  0  0  0  0
  150.9183  133.2137  156.8758 H   0  0  0  0  0  0  0  0  0  0  0  0
  145.3096  131.8912  152.0724 H   0  0  0  0  0  0  0  0  0  0  0  0
  143.2517  132.4662  151.3829 H   0  0  0  0  0  0  0  0  0  0  0  0
  143.6566  134.1323  151.0068 H   0  0  0  0  0  0  0  0  0  0  0  0
  143.4453  132.1115  149.0543 H   0  0  0  0  0  0  0  0  0  0  0  0
  144.3270  133.6284  148.8484 H   0  0  0  0  0  0  0  0  0  0  0  0
  146.6758  133.6178  149.9934 H   0  0  0  0  0  0  0  0  0  0  0  0
  147.1802  132.0627  150.6617 H   0  0  0  0  0  0  0  0  0  0  0  0
  1  2  1  0  0  0  0
  1 31  1  0  0  0  0
  2  3  1  0  0  0  0
  2 32  1  0  0  0  0
  2 33  1  0  0  0  0
  3  4  1  0  0  0  0
  3 26  1  0  0  0  0
  3 34  1  0  0  0  0
  4  5  1  0  0  0  0
  4 35  1  0  0  0  0
  4 36  1  0  0  0  0
  5 25  1  0  0  0  0
  5  6  1  0  0  0  0
  6  7  2  0  0  0  0
  6 37  1  0  0  0  0
  7  8  1  0  0  0  0
  8 25  2  0  0  0  0
  8  9  1  0  0  0  0
  9 10  1  0  0  0  0
  9 22  2  0  0  0  0
 10 15  1  0  0  0  0
 10 11  1  0  0  0  0
 11 12  1  0  0  0  0
 11 38  1  0  0  0  0
 11 39  1  0  0  0  0
 12 13  1  0  0  0  0
 12 40  1  0  0  0  0
 12 41  1  0  0  0  0
 13 14  1  0  0  0  0
 13 42  1  0  0  0  0
 13 43  1  0  0  0  0
 14 15  1  0  0  0  0
 14 44  1  0  0  0  0
 14 45  1  0  0  0  0
 15 16  1  0  0  0  0
 15 46  1  0  0  0  0
 16 20  1  0  0  0  0
 16 17  1  0  0  0  0
 16 47  1  0  0  0  0
 17 18  1  0  0  0  0
 17 48  1  0  0  0  0
 17 49  1  0  0  0  0
 18 19  1  0  0  0  0
 18 50  1  0  0  0  0
 18 51  1  0  0  0  0
 19 20  1  0  0  0  0
 19 52  1  0  0  0  0
 19 53  1  0  0  0  0
 20 21  1  0  0  0  0
 20 54  1  0  0  0  0
 21 55  1  0  0  0  0
 22 23  1  0  0  0  0
 23 24  2  0  0  0  0
 23 56  1  0  0  0  0
 24 25  1  0  0  0  0
 26 30  1  0  0  0  0
 26 27  1  0  0  0  0
 26 57  1  0  0  0  0
 27 28  1  0  0  0  0
 27 58  1  0  0  0  0
 27 59  1  0  0  0  0
 28 29  1  0  0  0  0
 28 60  1  0  0  0  0
 28 61  1  0  0  0  0
 29 30  1  0  0  0  0
 30 62  1  0  0  0  0
 30 63  1  0  0  0  0
M  END
> <s_m_source_file>
AV-unprocessed.smi

> <i_m_source_file_index>
148

> <i_lp_mmshare_version>
43012

> <i_f3d_flags>
0

> <s_epik_input>
W0NIMl0xT1tDSDJdW0NIMl1bQ0BIXTFbQ0BIXShbQ0gyXVtPSF0pW0NIMl1uKFtjSF1uMiljKGMyMyluW2NIXW5jM040W0NIMl1bQ0gyXVtDSDJdW0NIMl1bQ0BIXTRbQ0BASF01W0NIMl1bQ0gyXVtDSDJdW0NASF01W09IXQ==

> <s_epik_cmdline>
J2VwaWtfcHl0aG9uJywgJy1waCcsICc3LjAnLCAnLXRuJywgJzgnLCAnLW1hJywgJzIwMCcsICctbWV0YWxfYmluZGluZycsICctaW1hZScsICc8aW5maWxlLm1hZT4nLCAnLW9tYWUnLCAnPG91dGZpbGUubWFlPic=

> <r_lp_tautomer_probability>
1

> <r_epik_Ionization_Penalty>
0.00556303

> <r_epik_Ionization_Penalty_Charging>
0

> <r_epik_Ionization_Penalty_Neutral>
0.00556303

> <r_epik_State_Penalty>
0.00401767

> <r_epik_Charging_Adjusted_Penalty>
0.00401767

> <i_epik_Tot_Q>
0

> <i_epik_Tot_abs_Q>
0

> <r_epik_Metal_State_Penalty>
-0

> <b_epik_Metal_Only>
0

> <s_lp_Force_Field>
OPLS_2005

> <r_lp_Energy>
68.7494

> <b_lp_Chiralities_Consistent>
1

> <s_lp_Variant>
AV-unprocessed.smi:148-19

> <Gold.Version>
5.8.1

> <Gold.Id.Protein>
6NUR|6NUR_protein|mol2

> <Gold.PLP.Fitness>
45.6747

> <Gold.PLP.PLP>
-39.5777

> <Gold.PLP.part.hbond>
-3.0000

> <Gold.PLP.part.metal>
0.0000

> <Gold.PLP.part.buried>
-7.9541

> <Gold.PLP.part.nonpolar>
-29.6007

> <Gold.PLP.part.repulsive>
0.1920

> <Gold.PLP.ligand.clash>
0.0000

> <Gold.PLP.ligand.torsion>
1.7802

> <Gold.PLP.Chemscore.Hbond>
3.0000

> <Gold.PLP.Chemscore.CHOScore>
0.0000

> <Gold.PLP.Chemscore.Metal>
0.0000

> <Gold.Chemscore.Hbonds>
donor molecule, donor type, donor heavy atom, donor atom, acceptor molecule, acceptor atom, score
      L1  H     1    31       P1  7948  0.88
      P1  H  6896  6908       L1    22  1.00
      P1  H  6896  6909       L1    21  0.99

> <Gold.PLP.Chemscore.Internal.Correction>
0.6573

> <Gold.Rescore>
     Score         DG    S(hbond)    S(metal)    S(lipo)     H(rot)  DE(clash)    DE(int)     intcor
     13.53     -16.61       2.65        0.00      92.17       3.32       0.03       3.05       ----

> <Gold.Chemscore.Fitness>
13.5259

> <Gold.Chemscore.DG>
-16.6060

> <Gold.Chemscore.ZeroCoef>
-5.4800

> <Gold.Chemscore.Hbond>
2.6473

> <Gold.Chemscore.Metal>
0.0000

> <Gold.Chemscore.Lipo>
92.1710

> <Gold.Chemscore.Internal_Hbond>
0.0000

> <Gold.Chemscore.DEClash>
0.0339

> <Gold.Chemscore.DEInternal>
3.0462

> <Gold.Chemscore.Rot>
3.3203

> <Gold.Chemscore.Internal.Correction>
   9.000000E+99

> <Gold.Chemscore.Hbonds>
donor molecule, donor type, donor heavy atom, donor atom, acceptor molecule, acceptor atom, score
      L1  H     1    31       P1  7948  0.87
      P1  H  6896  6908       L1    22  0.60
      P1  H  6896  6909       L1    21  0.80

> <Gold.Chemscore.Hbond.Weighted>
-8.8420

> <Gold.Chemscore.Metal.Weighted>
-0.0000

> <Gold.Chemscore.Lipo.Weighted>
-10.7840

> <Gold.Chemscore.Internal_Hbond.Weighted>
0.0000

> <Gold.Chemscore.DEClash.Weighted>
0.0339

> <Gold.Chemscore.DEInternal.Weighted>
3.0462

> <Gold.Chemscore.Rot.Weighted>
8.5000

> <Gold.Chemscore.Internal.Correction.Weighted>
   9.000000E+99

> <Gold.Protein.RotatedTorsions>
[ 6907 6896 6895 6894 ] final  117.39 input  -60.11 | X-H torsion
[ 7974 7965 7964 7962 ] final -159.37 input  175.53 | X-H torsion
[ 8008 7997 7996 7995 ] final   38.69 input   59.86 | X-H torsion
[ 10167 10162 10161 10158 ] final  -14.84 input  -65.29 | X-H torsion
[ 10718 10713 10712 10709 ] final    0.46 input   66.30 | X-H torsion
[ 10763 10752 10751 10750 ] final   99.78 input  -60.55 | X-H torsion
[ 11005 11000 10999 10996 ] final   33.09 input  -57.11 | X-H torsion

> <Gold.Protein.ActiveResidues>
 VAL166  LYS551  ARG553  GLY616  TRP617  ASP618  TYR619  PRO620  LYS621  CYS622 
 ASP623  PHE694  ASN695  SER759  ASP760  ASP761  ALA762  ILE779  LEU786  VAL792 
 PHE793  MET794  SER795  GLU796  ALA797  LYS798  CYS799  TRP800  GLU811  SER814 

> <Gold.Protein.RotatedAtoms>
  152.4615  133.7832  159.6861 H   0  0  0  0  0  0  0  0  0  0  0  0  # atno 6907 bound_to 6896
  150.8561  133.7703  159.3014 H   0  0  0  0  0  0  0  0  0  0  0  0  # atno 6908 bound_to 6896
  151.5283  135.1071  159.9948 H   0  0  0  0  0  0  0  0  0  0  0  0  # atno 6909 bound_to 6896
  144.7468  140.3695  143.6079 H   0  0  0  0  0  0  0  0  0  0  0  0  # atno 7974 bound_to 7965
  155.2244  140.3333  155.4311 H   0  0  0  0  0  0  0  0  0  0  0  0  # atno 8008 bound_to 7997
  156.2320  140.1855  156.7264 H   0  0  0  0  0  0  0  0  0  0  0  0  # atno 8009 bound_to 7997
  154.5994  140.0625  156.9334 H   0  0  0  0  0  0  0  0  0  0  0  0  # atno 8010 bound_to 7997
  140.7208  143.5280  150.9554 H   0  0  0  0  0  0  0  0  0  0  0  0  # atno 10167 bound_to 10162
  156.8338  130.5497  149.5684 H   0  0  0  0  0  0  0  0  0  0  0  0  # atno 10718 bound_to 10713
  153.3057  135.4101  155.1292 H   0  0  0  0  0  0  0  0  0  0  0  0  # atno 10763 bound_to 10752
  154.8562  135.3552  154.5791 H   0  0  0  0  0  0  0  0  0  0  0  0  # atno 10764 bound_to 10752
  153.6218  135.7064  153.5366 H   0  0  0  0  0  0  0  0  0  0  0  0  # atno 10765 bound_to 10752
  140.2667  134.3129  155.7840 H   0  0  0  0  0  0  0  0  0  0  0  0  # atno 11005 bound_to 11000
  145.7093  139.1680  143.2548 LP  0  0  0  0  0  0  0  0  0  0  0  0  # atno 17320 bound_to 7965
  146.1359  140.7124  142.9390 LP  0  0  0  0  0  0  0  0  0  0  0  0  # atno 17321 bound_to 7965
  139.8999  143.6849  152.3133 LP  0  0  0  0  0  0  0  0  0  0  0  0  # atno 17342 bound_to 10162
  139.7194  144.7605  151.0979 LP  0  0  0  0  0  0  0  0  0  0  0  0  # atno 17343 bound_to 10162
  156.0919  130.5902  150.9748 LP  0  0  0  0  0  0  0  0  0  0  0  0  # atno 17370 bound_to 10713
  157.6393  131.0912  150.8285 LP  0  0  0  0  0  0  0  0  0  0  0  0  # atno 17371 bound_to 10713
  141.2183  133.7442  156.9271 LP  0  0  0  0  0  0  0  0  0  0  0  0  # atno 17394 bound_to 11000
  140.1412  134.9292  157.2469 LP  0  0  0  0  0  0  0  0  0  0  0  0  # atno 17395 bound_to 11000

$$$$
