AV-unprocessed.smi:2131|AV-procd|sdf|8689|dock9
  -GOLD-   2272011443D 1   1.00000     0.00000
 Structure written by MMmdl.
 41 43  0  0  0  0  0  0  0  0  2 V2000
  144.4051  147.7192  154.6133 N   0  0  0  0  0  0  0  0  0  0  0  0
  144.1171  146.6548  154.9636 C   0  0  0  0  0  0  0  0  0  0  0  0
  143.7515  145.3014  155.4089 C   0  0  0  0  0  0  0  0  0  0  0  0
  144.8724  144.3074  155.1852 C   0  0  0  0  0  0  0  0  0  0  0  0
  145.4955  144.2131  153.9257 C   0  0  0  0  0  0  0  0  0  0  0  0
  146.5355  143.2862  153.7198 C   0  0  0  0  0  0  0  0  0  0  0  0
  146.9685  142.4421  154.7634 C   0  0  0  0  0  0  0  0  0  0  0  0
  147.9911  141.5638  154.4745 O   0  0  0  0  0  0  0  0  0  0  0  0
  148.5399  140.7967  155.5382 C   0  0  0  0  0  0  0  0  0  0  0  0
  150.0709  140.9159  155.5061 C   0  0  2  0  0  0  0  0  0  0  0  0
  150.5617  140.0661  154.4883 O   0  0  0  0  0  0  0  0  0  0  0  0
  150.7200  140.5549  156.8571 C   0  0  0  0  0  0  0  0  0  0  0  0
  151.3280  141.7158  157.5231 N   0  0  0  0  0  0  0  0  0  0  0  0
  151.1877  143.0416  157.2520 C   0  0  0  0  0  0  0  0  0  0  0  0
  151.9541  143.7279  158.1441 N   0  3  0  0  0  0  0  0  0  0  0  0
  152.5949  142.8278  158.9979 C   0  0  0  0  0  0  0  0  0  0  0  0
  153.4710  143.0446  160.0568 C   0  0  0  0  0  0  0  0  0  0  0  0
  153.9507  141.8995  160.7260 C   0  0  0  0  0  0  0  0  0  0  0  0
  153.5583  140.6026  160.3354 C   0  0  0  0  0  0  0  0  0  0  0  0
  152.6692  140.3948  159.2603 C   0  0  0  0  0  0  0  0  0  0  0  0
  152.1979  141.5320  158.6046 C   0  0  0  0  0  0  0  0  0  0  0  0
  146.3365  142.5428  156.0290 C   0  0  0  0  0  0  0  0  0  0  0  0
  145.2962  143.4696  156.2353 C   0  0  0  0  0  0  0  0  0  0  0  0
  143.4929  145.3439  156.4673 H   0  0  0  0  0  0  0  0  0  0  0  0
  142.8593  144.9883  154.8662 H   0  0  0  0  0  0  0  0  0  0  0  0
  145.1761  144.8501  153.1140 H   0  0  0  0  0  0  0  0  0  0  0  0
  147.0054  143.2215  152.7494 H   0  0  0  0  0  0  0  0  0  0  0  0
  148.1571  141.1401  156.5010 H   0  0  0  0  0  0  0  0  0  0  0  0
  148.2533  139.7508  155.4134 H   0  0  0  0  0  0  0  0  0  0  0  0
  150.3421  141.9373  155.2362 H   0  0  0  0  0  0  0  0  0  0  0  0
  150.7091  139.2091  154.8589 H   0  0  0  0  0  0  0  0  0  0  0  0
  149.9660  140.1575  157.5376 H   0  0  0  0  0  0  0  0  0  0  0  0
  151.4679  139.7702  156.7418 H   0  0  0  0  0  0  0  0  0  0  0  0
  150.5793  143.4715  156.4692 H   0  0  0  0  0  0  0  0  0  0  0  0
  153.7743  144.0369  160.3572 H   0  0  0  0  0  0  0  0  0  0  0  0
  154.6339  142.0179  161.5545 H   0  0  0  0  0  0  0  0  0  0  0  0
  153.9484  139.7488  160.8702 H   0  0  0  0  0  0  0  0  0  0  0  0
  152.3810  139.3967  158.9662 H   0  0  0  0  0  0  0  0  0  0  0  0
  146.6302  141.9188  156.8591 H   0  0  0  0  0  0  0  0  0  0  0  0
  144.8220  143.5345  157.2036 H   0  0  0  0  0  0  0  0  0  0  0  0
  152.0338  144.7365  158.1653 H   0  0  0  0  0  0  0  0  0  0  0  0
  1  2  3  0  0  0  0
  2  3  1  0  0  0  0
  3  4  1  0  0  0  0
  3 24  1  0  0  0  0
  3 25  1  0  0  0  0
  4 23  1  0  0  0  0
  4  5  2  0  0  0  0
  5  6  1  0  0  0  0
  5 26  1  0  0  0  0
  6  7  2  0  0  0  0
  6 27  1  0  0  0  0
  7  8  1  0  0  0  0
  7 22  1  0  0  0  0
  8  9  1  0  0  0  0
  9 10  1  0  0  0  0
  9 28  1  0  0  0  0
  9 29  1  0  0  0  0
 10 11  1  0  0  0  0
 10 12  1  0  0  0  0
 10 30  1  0  0  0  0
 11 31  1  0  0  0  0
 12 13  1  0  0  0  0
 12 32  1  0  0  0  0
 12 33  1  0  0  0  0
 13 21  1  0  0  0  0
 13 14  1  0  0  0  0
 14 15  2  0  0  0  0
 14 34  1  0  0  0  0
 15 16  1  0  0  0  0
 15 41  1  0  0  0  0
 16 21  2  0  0  0  0
 16 17  1  0  0  0  0
 17 18  2  0  0  0  0
 17 35  1  0  0  0  0
 18 19  1  0  0  0  0
 18 36  1  0  0  0  0
 19 20  2  0  0  0  0
 19 37  1  0  0  0  0
 20 21  1  0  0  0  0
 20 38  1  0  0  0  0
 22 23  2  0  0  0  0
 22 39  1  0  0  0  0
 23 40  1  0  0  0  0
M  CHG  1  15   1
M  END
> <s_m_source_file>
AV-unprocessed.smi

> <i_m_source_file_index>
2131

> <i_lp_mmshare_version>
43012

> <i_f3d_flags>
0

> <s_epik_input>
TiNDW0NIMl1jMVtjSF1bY0hdYyhbY0hdW2NIXTEpT1tDSDJdW0NASF0oW09IXSlbQ0gyXW4oW2NIXW4yKWMoYzIzKVtjSF1bY0hdW2NIXVtjSF0z

> <s_epik_cmdline>
J2VwaWtfcHl0aG9uJywgJy1waCcsICc3LjAnLCAnLXRuJywgJzgnLCAnLW1hJywgJzIwMCcsICctbWV0YWxfYmluZGluZycsICctaW1hZScsICc8aW5maWxlLm1hZT4nLCAnLW9tYWUnLCAnPG91dGZpbGUubWFlPic=

> <r_lp_tautomer_probability>
1

> <r_epik_Ionization_Penalty>
1.3774

> <r_epik_Ionization_Penalty_Charging>
1.37739

> <r_epik_Ionization_Penalty_Neutral>
2.3994e-06

> <r_epik_State_Penalty>
1.45762

> <r_epik_Charging_Adjusted_Penalty>
2.83501

> <i_epik_Tot_Q>
1

> <i_epik_Tot_abs_Q>
1

> <r_epik_Metal_State_Penalty>
5.49752

> <b_epik_Metal_Only>
0

> <s_lp_Force_Field>
OPLS_2005

> <r_lp_Energy>
20.896

> <b_lp_Chiralities_Consistent>
1

> <s_lp_Variant>
AV-unprocessed.smi:2131-3

> <Gold.Version>
5.8.1

> <Gold.Id.Protein>
6NUR|6NUR_protein|mol2

> <Gold.PLP.Fitness>
51.8642

> <Gold.PLP.PLP>
-48.8151

> <Gold.PLP.part.hbond>
-1.4718

> <Gold.PLP.part.metal>
0.0000

> <Gold.PLP.part.buried>
-8.7734

> <Gold.PLP.part.nonpolar>
-39.6024

> <Gold.PLP.part.repulsive>
0.1604

> <Gold.PLP.ligand.clash>
0.0000

> <Gold.PLP.ligand.torsion>
1.5221

> <Gold.PLP.Chemscore.Hbond>
0.9913

> <Gold.PLP.Chemscore.CHOScore>
1.0000

> <Gold.PLP.Chemscore.Metal>
0.0000

> <Gold.Chemscore.Hbonds>
donor molecule, donor type, donor heavy atom, donor atom, acceptor molecule, acceptor atom, score
      P1  H  7989  7998       L1    11  1.00
      L1  C    14    34       P1  8028  1.00

> <Gold.PLP.Chemscore.Internal.Correction>
0.1195

> <Gold.Rescore>
     Score         DG    S(hbond)    S(metal)    S(lipo)     H(rot)  DE(clash)    DE(int)     intcor
     12.54     -14.19       0.98        0.00     108.01       2.81       0.09       1.56       ----

> <Gold.Chemscore.Fitness>
12.5369

> <Gold.Chemscore.DG>
-14.1862

> <Gold.Chemscore.ZeroCoef>
-5.4800

> <Gold.Chemscore.Hbond>
0.9801

> <Gold.Chemscore.Metal>
0.0000

> <Gold.Chemscore.Lipo>
108.0053

> <Gold.Chemscore.Internal_Hbond>
0.0000

> <Gold.Chemscore.DEClash>
0.0901

> <Gold.Chemscore.DEInternal>
1.5592

> <Gold.Chemscore.Rot>
2.8140

> <Gold.Chemscore.Internal.Correction>
   9.000000E+99

> <Gold.Chemscore.Hbonds>
donor molecule, donor type, donor heavy atom, donor atom, acceptor molecule, acceptor atom, score
      P1  H  7989  7998       L1    11  0.78

> <Gold.Chemscore.Hbond.Weighted>
-3.2735

> <Gold.Chemscore.Metal.Weighted>
-0.0000

> <Gold.Chemscore.Lipo.Weighted>
-12.6366

> <Gold.Chemscore.Internal_Hbond.Weighted>
0.0000

> <Gold.Chemscore.DEClash.Weighted>
0.0901

> <Gold.Chemscore.DEInternal.Weighted>
1.5592

> <Gold.Chemscore.Rot.Weighted>
7.2039

> <Gold.Chemscore.Internal.Correction.Weighted>
   9.000000E+99

> <Gold.Protein.RotatedTorsions>
[ 6907 6896 6895 6894 ] final -153.21 input  -60.11 | X-H torsion
[ 7974 7965 7964 7962 ] final -151.25 input  175.53 | X-H torsion
[ 8008 7997 7996 7995 ] final -156.35 input   59.86 | X-H torsion
[ 10167 10162 10161 10158 ] final   55.57 input  -65.29 | X-H torsion
[ 10718 10713 10712 10709 ] final -120.87 input   66.30 | X-H torsion
[ 10763 10752 10751 10750 ] final -110.97 input  -60.55 | X-H torsion
[ 11005 11000 10999 10996 ] final  157.19 input  -57.11 | X-H torsion

> <Gold.Protein.ActiveResidues>
 VAL166  LYS551  ARG553  GLY616  TRP617  ASP618  TYR619  PRO620  LYS621  CYS622 
 ASP623  PHE694  ASN695  SER759  ASP760  ASP761  ALA762  ILE779  LEU786  VAL792 
 PHE793  MET794  SER795  GLU796  ALA797  LYS798  CYS799  TRP800  GLU811  SER814 

> <Gold.Protein.RotatedAtoms>
  151.2392  133.4409  159.2606 H   0  0  0  0  0  0  0  0  0  0  0  0  # atno 6907 bound_to 6896
  151.0722  134.9805  159.8324 H   0  0  0  0  0  0  0  0  0  0  0  0  # atno 6908 bound_to 6896
  152.5413  134.2336  159.8887 H   0  0  0  0  0  0  0  0  0  0  0  0  # atno 6909 bound_to 6896
  144.7861  140.4823  143.5805 H   0  0  0  0  0  0  0  0  0  0  0  0  # atno 7974 bound_to 7965
  155.7159  140.0784  157.2351 H   0  0  0  0  0  0  0  0  0  0  0  0  # atno 8008 bound_to 7997
  154.4052  140.1621  156.2402 H   0  0  0  0  0  0  0  0  0  0  0  0  # atno 8009 bound_to 7997
  155.9241  140.3396  155.6199 H   0  0  0  0  0  0  0  0  0  0  0  0  # atno 8010 bound_to 7997
  140.2181  144.3818  150.6461 H   0  0  0  0  0  0  0  0  0  0  0  0  # atno 10167 bound_to 10162
  156.1292  130.6382  150.9593 H   0  0  0  0  0  0  0  0  0  0  0  0  # atno 10718 bound_to 10713
  154.8276  135.4544  154.0968 H   0  0  0  0  0  0  0  0  0  0  0  0  # atno 10763 bound_to 10752
  153.2268  135.6901  153.7942 H   0  0  0  0  0  0  0  0  0  0  0  0  # atno 10764 bound_to 10752
  153.7339  135.3323  155.3267 H   0  0  0  0  0  0  0  0  0  0  0  0  # atno 10765 bound_to 10752
  140.1746  134.8519  157.2730 H   0  0  0  0  0  0  0  0  0  0  0  0  # atno 11005 bound_to 11000
  145.5919  139.1496  143.3177 LP  0  0  0  0  0  0  0  0  0  0  0  0  # atno 17320 bound_to 7965
  146.2093  140.6044  142.9067 LP  0  0  0  0  0  0  0  0  0  0  0  0  # atno 17321 bound_to 7965
  140.6275  143.2183  151.6565 LP  0  0  0  0  0  0  0  0  0  0  0  0  # atno 17342 bound_to 10162
  139.5154  144.3378  152.0768 LP  0  0  0  0  0  0  0  0  0  0  0  0  # atno 17343 bound_to 10162
  157.6471  131.0902  150.8130 LP  0  0  0  0  0  0  0  0  0  0  0  0  # atno 17370 bound_to 10713
  156.8217  130.4986  149.5342 LP  0  0  0  0  0  0  0  0  0  0  0  0  # atno 17371 bound_to 10713
  140.2338  134.3877  155.7510 LP  0  0  0  0  0  0  0  0  0  0  0  0  # atno 17394 bound_to 11000
  141.2219  133.7229  156.8682 LP  0  0  0  0  0  0  0  0  0  0  0  0  # atno 17395 bound_to 11000

$$$$
