AV-unprocessed.smi:235|AV-procd|sdf|1801|dock1
  -GOLD-   2262020373D 1   1.00000     0.00000
 Structure written by MMmdl.
 54 58  0  0  0  0  0  0  0  0  1 V2000
  150.8010  140.2672  155.2172 O   0  0  0  0  0  0  0  0  0  0  0  0
  149.9278  139.5429  154.7378 C   0  0  0  0  0  0  0  0  0  0  0  0
  150.0537  138.2136  154.6181 N   0  0  0  0  0  0  0  0  0  0  0  0
  151.1838  137.4457  155.0287 C   0  0  0  0  0  0  0  0  0  0  0  0
  151.8393  137.8099  156.3433 C   0  0  0  0  0  0  0  0  0  0  0  0
  152.5306  138.1361  155.0481 C   0  0  0  0  0  0  0  0  0  0  0  0
  148.6121  140.1410  154.2193 C   0  0  2  0  0  0  0  0  0  0  0  0
  148.6730  141.6704  154.1220 C   0  0  0  0  0  0  0  0  0  0  0  0
  147.2048  142.0730  154.1858 C   0  0  0  0  0  0  0  0  0  0  0  0
  146.6084  141.0552  155.1585 C   0  0  0  0  0  0  0  0  0  0  0  0
  147.4883  139.8905  155.1247 N   0  0  0  0  0  0  0  0  0  0  0  0
  146.8708  138.6972  154.9808 C   0  0  0  0  0  0  0  0  0  0  0  0
  146.6484  137.9740  156.1052 N   0  0  0  0  0  0  0  0  0  0  0  0
  146.0441  136.7846  156.0247 C   0  0  0  0  0  0  0  0  0  0  0  0
  145.5925  136.1480  154.9412 N   0  0  0  0  0  0  0  0  0  0  0  0
  145.8157  136.8764  153.8099 C   0  0  0  0  0  0  0  0  0  0  0  0
  146.4417  138.1518  153.7383 C   0  0  0  0  0  0  0  0  0  0  0  0
  146.4903  138.5848  152.4182 N   0  0  0  0  0  0  0  0  0  0  0  0
  145.9277  137.6172  151.7466 C   0  0  0  0  0  0  0  0  0  0  0  0
  145.4913  136.5542  152.5051 N   0  0  0  0  0  0  0  0  0  0  0  0
  144.8286  135.3552  152.0257 C   0  0  0  0  0  0  0  0  0  0  0  0
  145.6171  134.6505  150.9037 C   0  0  2  0  0  0  0  0  0  0  0  0
  145.5441  135.4308  149.7272 O   0  0  0  0  0  0  0  0  0  0  0  0
  145.1673  133.1995  150.6191 C   0  0  2  0  0  0  0  0  0  0  0  0
  144.9561  132.3026  151.8514 C   0  0  0  0  0  0  0  0  0  0  0  0
  145.8993  131.1367  151.6130 C   0  0  0  0  0  0  0  0  0  0  0  0
  146.0720  131.1488  150.0998 C   0  0  0  0  0  0  0  0  0  0  0  0
  146.1214  132.5327  149.7974 O   0  0  0  0  0  0  0  0  0  0  0  0
  149.2860  137.7042  154.2051 H   0  0  0  0  0  0  0  0  0  0  0  0
  151.1924  136.3882  154.7674 H   0  0  0  0  0  0  0  0  0  0  0  0
  151.4192  138.6386  156.9101 H   0  0  0  0  0  0  0  0  0  0  0  0
  152.2497  136.9984  156.9409 H   0  0  0  0  0  0  0  0  0  0  0  0
  153.4017  137.5419  154.7796 H   0  0  0  0  0  0  0  0  0  0  0  0
  152.5711  139.1821  154.7494 H   0  0  0  0  0  0  0  0  0  0  0  0
  148.3955  139.7320  153.2306 H   0  0  0  0  0  0  0  0  0  0  0  0
  149.2087  142.0982  154.9717 H   0  0  0  0  0  0  0  0  0  0  0  0
  149.1596  142.0145  153.2089 H   0  0  0  0  0  0  0  0  0  0  0  0
  147.0563  143.1049  154.5049 H   0  0  0  0  0  0  0  0  0  0  0  0
  146.7491  141.9538  153.2019 H   0  0  0  0  0  0  0  0  0  0  0  0
  146.6219  141.4532  156.1736 H   0  0  0  0  0  0  0  0  0  0  0  0
  145.5695  140.8300  154.9117 H   0  0  0  0  0  0  0  0  0  0  0  0
  145.9024  136.2688  156.9630 H   0  0  0  0  0  0  0  0  0  0  0  0
  145.8075  137.6555  150.6735 H   0  0  0  0  0  0  0  0  0  0  0  0
  144.6845  134.6809  152.8712 H   0  0  0  0  0  0  0  0  0  0  0  0
  143.8332  135.6302  151.6746 H   0  0  0  0  0  0  0  0  0  0  0  0
  146.6695  134.6233  151.1888 H   0  0  0  0  0  0  0  0  0  0  0  0
  145.9473  134.9460  149.0234 H   0  0  0  0  0  0  0  0  0  0  0  0
  144.2300  133.2213  150.0609 H   0  0  0  0  0  0  0  0  0  0  0  0
  145.1580  132.8012  152.7996 H   0  0  0  0  0  0  0  0  0  0  0  0
  143.9235  131.9529  151.8811 H   0  0  0  0  0  0  0  0  0  0  0  0
  146.8585  131.3314  152.0943 H   0  0  0  0  0  0  0  0  0  0  0  0
  145.5144  130.1894  151.9913 H   0  0  0  0  0  0  0  0  0  0  0  0
  146.9745  130.6324  149.7725 H   0  0  0  0  0  0  0  0  0  0  0  0
  145.2122  130.6955  149.6041 H   0  0  0  0  0  0  0  0  0  0  0  0
  1  2  2  0  0  0  0
  2  3  1  0  0  0  0
  2  7  1  0  0  0  0
  3  4  1  0  0  0  0
  3 29  1  0  0  0  0
  4  6  1  0  0  0  0
  4  5  1  0  0  0  0
  4 30  1  0  0  0  0
  5  6  1  0  0  0  0
  5 31  1  0  0  0  0
  5 32  1  0  0  0  0
  6 33  1  0  0  0  0
  6 34  1  0  0  0  0
  7 11  1  0  0  0  0
  7  8  1  0  0  0  0
  7 35  1  0  0  0  0
  8  9  1  0  0  0  0
  8 36  1  0  0  0  0
  8 37  1  0  0  0  0
  9 10  1  0  0  0  0
  9 38  1  0  0  0  0
  9 39  1  0  0  0  0
 10 11  1  0  0  0  0
 10 40  1  0  0  0  0
 10 41  1  0  0  0  0
 11 12  1  0  0  0  0
 12 17  1  0  0  0  0
 12 13  2  0  0  0  0
 13 14  1  0  0  0  0
 14 15  2  0  0  0  0
 14 42  1  0  0  0  0
 15 16  1  0  0  0  0
 16 20  1  0  0  0  0
 16 17  2  0  0  0  0
 17 18  1  0  0  0  0
 18 19  2  0  0  0  0
 19 20  1  0  0  0  0
 19 43  1  0  0  0  0
 20 21  1  0  0  0  0
 21 22  1  0  0  0  0
 21 44  1  0  0  0  0
 21 45  1  0  0  0  0
 22 23  1  0  0  0  0
 22 24  1  0  0  0  0
 22 46  1  0  0  0  0
 23 47  1  0  0  0  0
 24 28  1  0  0  0  0
 24 25  1  0  0  0  0
 24 48  1  0  0  0  0
 25 26  1  0  0  0  0
 25 49  1  0  0  0  0
 25 50  1  0  0  0  0
 26 27  1  0  0  0  0
 26 51  1  0  0  0  0
 26 52  1  0  0  0  0
 27 28  1  0  0  0  0
 27 53  1  0  0  0  0
 27 54  1  0  0  0  0
M  END
> <s_m_source_file>
AV-unprocessed.smi

> <i_m_source_file_index>
235

> <i_lp_mmshare_version>
43012

> <i_f3d_flags>
0

> <s_epik_input>
W0NIMl0xW0NIMl1bQ0hdMVtOSF1DKD1PKVtDQEBIXTJbQ0gyXVtDSDJdW0NIMl1OMmMobltjSF1uMyljKGMzNCluW2NIXW40W0NIMl1bQ0BIXShbT0hdKVtDQEBIXTVbQ0gyXVtDSDJdW0NIMl1PNQ==

> <s_epik_cmdline>
J2VwaWtfcHl0aG9uJywgJy1waCcsICc3LjAnLCAnLXRuJywgJzgnLCAnLW1hJywgJzIwMCcsICctbWV0YWxfYmluZGluZycsICctaW1hZScsICc8aW5maWxlLm1hZT4nLCAnLW9tYWUnLCAnPG91dGZpbGUubWFlPic=

> <r_lp_tautomer_probability>
1

> <r_epik_Ionization_Penalty>
0.000526714

> <r_epik_Ionization_Penalty_Charging>
0

> <r_epik_Ionization_Penalty_Neutral>
0.000526714

> <r_epik_State_Penalty>
0.000272704

> <r_epik_Charging_Adjusted_Penalty>
0.000272704

> <i_epik_Tot_Q>
0

> <i_epik_Tot_abs_Q>
0

> <r_epik_Metal_State_Penalty>
-0

> <b_epik_Metal_Only>
0

> <s_lp_Force_Field>
OPLS_2005

> <r_lp_Energy>
63.4887

> <b_lp_Chiralities_Consistent>
1

> <s_lp_Variant>
AV-unprocessed.smi:235-1

> <Gold.Version>
5.8.1

> <Gold.Id.Protein>
6NUR|6NUR_protein|mol2

> <Gold.PLP.Fitness>
44.6504

> <Gold.PLP.PLP>
-37.8662

> <Gold.PLP.part.hbond>
-2.2534

> <Gold.PLP.part.metal>
0.0000

> <Gold.PLP.part.buried>
-3.4701

> <Gold.PLP.part.nonpolar>
-33.1622

> <Gold.PLP.part.repulsive>
1.4144

> <Gold.PLP.ligand.clash>
0.0075

> <Gold.PLP.ligand.torsion>
1.3422

> <Gold.PLP.Chemscore.Hbond>
2.0000

> <Gold.PLP.Chemscore.CHOScore>
1.0000

> <Gold.PLP.Chemscore.Metal>
0.0000

> <Gold.Chemscore.Hbonds>
donor molecule, donor type, donor heavy atom, donor atom, acceptor molecule, acceptor atom, score
      L1  H    23    47       P1  7921  0.64
      P1  H  7989  7998       L1     1  0.90
      L1  C    19    43       P1 10171  0.78

> <Gold.PLP.Chemscore.Internal.Correction>
0.4761

> <Gold.Rescore>
     Score         DG    S(hbond)    S(metal)    S(lipo)     H(rot)  DE(clash)    DE(int)     intcor
      8.26     -14.90       1.90        0.00      91.87       3.00       2.05       4.58       ----

> <Gold.Chemscore.Fitness>
8.2635

> <Gold.Chemscore.DG>
-14.8993

> <Gold.Chemscore.ZeroCoef>
-5.4800

> <Gold.Chemscore.Hbond>
1.9004

> <Gold.Chemscore.Metal>
0.0000

> <Gold.Chemscore.Lipo>
91.8747

> <Gold.Chemscore.Internal_Hbond>
0.0000

> <Gold.Chemscore.DEClash>
2.0548

> <Gold.Chemscore.DEInternal>
4.5810

> <Gold.Chemscore.Rot>
2.9989

> <Gold.Chemscore.Internal.Correction>
   9.000000E+99

> <Gold.Chemscore.Hbonds>
donor molecule, donor type, donor heavy atom, donor atom, acceptor molecule, acceptor atom, score
      L1  H    23    47       P1  7921  0.55
      P1  H  7989  7998       L1     1  0.17

> <Gold.Chemscore.Hbond.Weighted>
-6.3472

> <Gold.Chemscore.Metal.Weighted>
-0.0000

> <Gold.Chemscore.Lipo.Weighted>
-10.7493

> <Gold.Chemscore.Internal_Hbond.Weighted>
0.0000

> <Gold.Chemscore.DEClash.Weighted>
2.0548

> <Gold.Chemscore.DEInternal.Weighted>
4.5810

> <Gold.Chemscore.Rot.Weighted>
7.6772

> <Gold.Chemscore.Internal.Correction.Weighted>
   9.000000E+99

> <Gold.Protein.RotatedTorsions>
[ 6907 6896 6895 6894 ] final   83.09 input  -60.11 | X-H torsion
[ 7974 7965 7964 7962 ] final   19.64 input  175.53 | X-H torsion
[ 8008 7997 7996 7995 ] final    1.11 input   59.86 | X-H torsion
[ 10167 10162 10161 10158 ] final   33.11 input  -65.29 | X-H torsion
[ 10718 10713 10712 10709 ] final   38.36 input   66.30 | X-H torsion
[ 10763 10752 10751 10750 ] final -134.43 input  -60.55 | X-H torsion
[ 11005 11000 10999 10996 ] final   34.94 input  -57.11 | X-H torsion

> <Gold.Protein.ActiveResidues>
 VAL166  LYS551  ARG553  GLY616  TRP617  ASP618  TYR619  PRO620  LYS621  CYS622 
 ASP623  PHE694  ASN695  SER759  ASP760  ASP761  ALA762  ILE779  LEU786  VAL792 
 PHE793  MET794  SER795  GLU796  ALA797  LYS798  CYS799  TRP800  GLU811  SER814 

> <Gold.Protein.RotatedAtoms>
  152.5317  134.2949  159.9056 H   0  0  0  0  0  0  0  0  0  0  0  0  # atno 6907 bound_to 6896
  151.2900  133.4163  159.2640 H   0  0  0  0  0  0  0  0  0  0  0  0  # atno 6908 bound_to 6896
  151.0209  134.9484  159.8116 H   0  0  0  0  0  0  0  0  0  0  0  0  # atno 6909 bound_to 6896
  146.2142  139.8284  142.8665 H   0  0  0  0  0  0  0  0  0  0  0  0  # atno 7974 bound_to 7965
  154.6760  140.2622  155.6958 H   0  0  0  0  0  0  0  0  0  0  0  0  # atno 8008 bound_to 7997
  156.2678  140.2820  156.1208 H   0  0  0  0  0  0  0  0  0  0  0  0  # atno 8009 bound_to 7997
  155.1100  140.0375  157.2711 H   0  0  0  0  0  0  0  0  0  0  0  0  # atno 8010 bound_to 7997
  140.4437  144.1150  150.6178 H   0  0  0  0  0  0  0  0  0  0  0  0  # atno 10167 bound_to 10162
  157.3579  130.7633  149.7026 H   0  0  0  0  0  0  0  0  0  0  0  0  # atno 10718 bound_to 10713
  154.8719  135.3735  154.4734 H   0  0  0  0  0  0  0  0  0  0  0  0  # atno 10763 bound_to 10752
  153.5393  135.7026  153.5649 H   0  0  0  0  0  0  0  0  0  0  0  0  # atno 10764 bound_to 10752
  153.3818  135.3994  155.1827 H   0  0  0  0  0  0  0  0  0  0  0  0  # atno 10765 bound_to 10752
  140.2477  134.3340  155.7902 H   0  0  0  0  0  0  0  0  0  0  0  0  # atno 11005 bound_to 11000
  145.3023  141.0197  143.3602 LP  0  0  0  0  0  0  0  0  0  0  0  0  # atno 17320 bound_to 7965
  144.8997  139.4666  143.6638 LP  0  0  0  0  0  0  0  0  0  0  0  0  # atno 17321 bound_to 7965
  140.4288  143.2577  151.9622 LP  0  0  0  0  0  0  0  0  0  0  0  0  # atno 17342 bound_to 10162
  139.4791  144.5763  151.8006 LP  0  0  0  0  0  0  0  0  0  0  0  0  # atno 17343 bound_to 10162
  155.9732  130.4122  150.4020 LP  0  0  0  0  0  0  0  0  0  0  0  0  # atno 17370 bound_to 10713
  157.2093  131.0456  151.2608 LP  0  0  0  0  0  0  0  0  0  0  0  0  # atno 17371 bound_to 10713
  141.2204  133.7335  156.8987 LP  0  0  0  0  0  0  0  0  0  0  0  0  # atno 17394 bound_to 11000
  140.1589  134.9179  157.2689 LP  0  0  0  0  0  0  0  0  0  0  0  0  # atno 17395 bound_to 11000

$$$$
