AV-unprocessed.smi:420|AV-procd|sdf|2532|dock2
  -GOLD-   2262022493D 1   1.00000     0.00000
 Structure written by MMmdl.
 36 38  0  0  0  0  0  0  0  0  1 V2000
  154.3294  139.9104  161.0526 C   0  0  0  0  0  0  0  0  0  0  0  0
  153.4826  140.7581  160.2222 N   0  0  0  0  0  0  0  0  0  0  0  0
  153.0476  140.4982  158.9667 C   0  0  0  0  0  0  0  0  0  0  0  0
  153.2953  139.4878  158.3089 O   0  0  0  0  0  0  0  0  0  0  0  0
  152.2910  141.5452  158.5611 N   0  0  0  0  0  0  0  0  0  0  0  0
  151.6116  141.6815  157.2744 C   0  0  0  0  0  0  0  0  0  0  0  0
  150.5395  140.5926  157.0715 C   0  0  2  0  0  0  0  0  0  0  0  0
  151.1417  139.4709  156.4562 O   0  0  0  0  0  0  0  0  0  0  0  0
  149.3795  141.1238  156.2434 C   0  0  0  0  0  0  0  0  0  0  0  0
  149.5004  141.2150  154.8399 C   0  0  0  0  0  0  0  0  0  0  0  0
  148.4266  141.6943  154.0644 C   0  0  0  0  0  0  0  0  0  0  0  0
  147.2250  142.0829  154.6872 C   0  0  0  0  0  0  0  0  0  0  0  0
  146.1936  142.5435  153.9409 F   0  0  0  0  0  0  0  0  0  0  0  0
  147.0964  141.9896  156.0862 C   0  0  0  0  0  0  0  0  0  0  0  0
  148.1696  141.5102  156.8621 C   0  0  0  0  0  0  0  0  0  0  0  0
  152.2340  142.4971  159.5892 C   0  0  0  0  0  0  0  0  0  0  0  0
  151.5779  143.7379  159.6674 C   0  0  0  0  0  0  0  0  0  0  0  0
  151.7215  144.4695  160.8697 C   0  0  0  0  0  0  0  0  0  0  0  0
  152.4990  143.9604  161.9426 C   0  0  0  0  0  0  0  0  0  0  0  0
  153.1476  142.7075  161.8371 C   0  0  0  0  0  0  0  0  0  0  0  0
  152.9864  142.0017  160.6328 C   0  0  0  0  0  0  0  0  0  0  0  0
  154.5597  138.9604  160.5686 H   0  0  0  0  0  0  0  0  0  0  0  0
  153.8329  139.6931  161.9985 H   0  0  0  0  0  0  0  0  0  0  0  0
  155.2709  140.4162  161.2681 H   0  0  0  0  0  0  0  0  0  0  0  0
  151.1373  142.6638  157.2677 H   0  0  0  0  0  0  0  0  0  0  0  0
  152.3231  141.6927  156.4468 H   0  0  0  0  0  0  0  0  0  0  0  0
  150.1508  140.2690  158.0383 H   0  0  0  0  0  0  0  0  0  0  0  0
  152.0640  139.6467  156.3487 H   0  0  0  0  0  0  0  0  0  0  0  0
  150.4163  140.9149  154.3519 H   0  0  0  0  0  0  0  0  0  0  0  0
  148.5240  141.7623  152.9910 H   0  0  0  0  0  0  0  0  0  0  0  0
  146.1739  142.2841  156.5647 H   0  0  0  0  0  0  0  0  0  0  0  0
  148.0597  141.4368  157.9343 H   0  0  0  0  0  0  0  0  0  0  0  0
  150.9870  144.1190  158.8476 H   0  0  0  0  0  0  0  0  0  0  0  0
  151.2336  145.4276  160.9723 H   0  0  0  0  0  0  0  0  0  0  0  0
  152.5959  144.5359  162.8515 H   0  0  0  0  0  0  0  0  0  0  0  0
  153.7398  142.3121  162.6493 H   0  0  0  0  0  0  0  0  0  0  0  0
  1  2  1  0  0  0  0
  1 22  1  0  0  0  0
  1 23  1  0  0  0  0
  1 24  1  0  0  0  0
  2 21  1  0  0  0  0
  2  3  1  0  0  0  0
  3  4  2  0  0  0  0
  3  5  1  0  0  0  0
  5  6  1  0  0  0  0
  5 16  1  0  0  0  0
  6  7  1  0  0  0  0
  6 25  1  0  0  0  0
  6 26  1  0  0  0  0
  7  8  1  0  0  0  0
  7  9  1  0  0  0  0
  7 27  1  0  0  0  0
  8 28  1  0  0  0  0
  9 15  1  0  0  0  0
  9 10  2  0  0  0  0
 10 11  1  0  0  0  0
 10 29  1  0  0  0  0
 11 12  2  0  0  0  0
 11 30  1  0  0  0  0
 12 13  1  0  0  0  0
 12 14  1  0  0  0  0
 14 15  2  0  0  0  0
 14 31  1  0  0  0  0
 15 32  1  0  0  0  0
 16 21  2  0  0  0  0
 16 17  1  0  0  0  0
 17 18  2  0  0  0  0
 17 33  1  0  0  0  0
 18 19  1  0  0  0  0
 18 34  1  0  0  0  0
 19 20  2  0  0  0  0
 19 35  1  0  0  0  0
 20 21  1  0  0  0  0
 20 36  1  0  0  0  0
M  END
> <s_m_source_file>
AV-unprocessed.smi

> <i_m_source_file_index>
420

> <i_lp_mmshare_version>
43012

> <i_f3d_flags>
0

> <s_epik_input>
W2NIXTFbY0hdW2NIXVtjSF1jKGMxMiluKFtDSDNdKWMoPU8pbjJbQ0gyXVtDQEhdKFtPSF0pYzNbY0hdW2NIXWMoRilbY0hdW2NIXTM=

> <s_epik_cmdline>
J2VwaWtfcHl0aG9uJywgJy1waCcsICc3LjAnLCAnLXRuJywgJzgnLCAnLW1hJywgJzIwMCcsICctbWV0YWxfYmluZGluZycsICctaW1hZScsICc8aW5maWxlLm1hZT4nLCAnLW9tYWUnLCAnPG91dGZpbGUubWFlPic=

> <r_lp_tautomer_probability>
1

> <r_epik_Ionization_Penalty>
1.79795e-06

> <r_epik_Ionization_Penalty_Charging>
2.57375e-09

> <r_epik_Ionization_Penalty_Neutral>
1.79538e-06

> <r_epik_State_Penalty>
-0

> <r_epik_Charging_Adjusted_Penalty>
2.57375e-09

> <i_epik_Tot_Q>
0

> <i_epik_Tot_abs_Q>
0

> <r_epik_Metal_State_Penalty>
-0

> <b_epik_Metal_Only>
0

> <s_lp_Force_Field>
OPLS_2005

> <r_lp_Energy>
42.8676

> <b_lp_Chiralities_Consistent>
1

> <s_lp_Variant>
AV-unprocessed.smi:420-1

> <Gold.Version>
5.8.1

> <Gold.Id.Protein>
6NUR|6NUR_protein|mol2

> <Gold.PLP.Fitness>
50.8102

> <Gold.PLP.PLP>
-49.6022

> <Gold.PLP.part.hbond>
-1.0000

> <Gold.PLP.part.metal>
0.0000

> <Gold.PLP.part.buried>
-4.1063

> <Gold.PLP.part.nonpolar>
-42.6078

> <Gold.PLP.part.repulsive>
0.0000

> <Gold.PLP.ligand.clash>
0.0000

> <Gold.PLP.ligand.torsion>
0.8997

> <Gold.PLP.Chemscore.Hbond>
1.0000

> <Gold.PLP.Chemscore.CHOScore>
0.0000

> <Gold.PLP.Chemscore.Metal>
0.0000

> <Gold.Chemscore.Hbonds>
donor molecule, donor type, donor heavy atom, donor atom, acceptor molecule, acceptor atom, score
      P1  H  7997  8010       L1     4  1.00

> <Gold.PLP.Chemscore.Internal.Correction>
0.0074

> <Gold.Rescore>
     Score         DG    S(hbond)    S(metal)    S(lipo)     H(rot)  DE(clash)    DE(int)     intcor
     16.89     -17.86       0.93        0.00     119.60       1.85       0.12       0.85       ----

> <Gold.Chemscore.Fitness>
16.8937

> <Gold.Chemscore.DG>
-17.8627

> <Gold.Chemscore.ZeroCoef>
-5.4800

> <Gold.Chemscore.Hbond>
0.9330

> <Gold.Chemscore.Metal>
0.0000

> <Gold.Chemscore.Lipo>
119.6038

> <Gold.Chemscore.Internal_Hbond>
0.0000

> <Gold.Chemscore.DEClash>
0.1232

> <Gold.Chemscore.DEInternal>
0.8458

> <Gold.Chemscore.Rot>
1.8465

> <Gold.Chemscore.Internal.Correction>
   9.000000E+99

> <Gold.Chemscore.Hbonds>
donor molecule, donor type, donor heavy atom, donor atom, acceptor molecule, acceptor atom, score
      P1  H  7997  8010       L1     4  0.50

> <Gold.Chemscore.Hbond.Weighted>
-3.1161

> <Gold.Chemscore.Metal.Weighted>
-0.0000

> <Gold.Chemscore.Lipo.Weighted>
-13.9936

> <Gold.Chemscore.Internal_Hbond.Weighted>
0.0000

> <Gold.Chemscore.DEClash.Weighted>
0.1232

> <Gold.Chemscore.DEInternal.Weighted>
0.8458

> <Gold.Chemscore.Rot.Weighted>
4.7270

> <Gold.Chemscore.Internal.Correction.Weighted>
   9.000000E+99

> <Gold.Protein.RotatedTorsions>
[ 6907 6896 6895 6894 ] final   -3.38 input  -60.11 | X-H torsion
[ 7974 7965 7964 7962 ] final  -26.91 input  175.53 | X-H torsion
[ 8008 7997 7996 7995 ] final   29.15 input   59.86 | X-H torsion
[ 10167 10162 10161 10158 ] final -103.08 input  -65.29 | X-H torsion
[ 10718 10713 10712 10709 ] final  -68.71 input   66.30 | X-H torsion
[ 10763 10752 10751 10750 ] final   32.73 input  -60.55 | X-H torsion
[ 11005 11000 10999 10996 ] final    2.14 input  -57.11 | X-H torsion

> <Gold.Protein.ActiveResidues>
 VAL166  LYS551  ARG553  GLY616  TRP617  ASP618  TYR619  PRO620  LYS621  CYS622 
 ASP623  PHE694  ASN695  SER759  ASP760  ASP761  ALA762  ILE779  LEU786  VAL792 
 PHE793  MET794  SER795  GLU796  ALA797  LYS798  CYS799  TRP800  GLU811  SER814 

> <Gold.Protein.RotatedAtoms>
  151.5147  135.1066  159.9862 H   0  0  0  0  0  0  0  0  0  0  0  0  # atno 6907 bound_to 6896
  152.4646  133.7892  159.6903 H   0  0  0  0  0  0  0  0  0  0  0  0  # atno 6908 bound_to 6896
  150.8624  133.7560  159.3013 H   0  0  0  0  0  0  0  0  0  0  0  0  # atno 6909 bound_to 6896
  146.1393  140.5083  142.8659 H   0  0  0  0  0  0  0  0  0  0  0  0  # atno 7974 bound_to 7965
  155.0699  140.3199  155.4634 H   0  0  0  0  0  0  0  0  0  0  0  0  # atno 8008 bound_to 7997
  156.2793  140.2114  156.5772 H   0  0  0  0  0  0  0  0  0  0  0  0  # atno 8009 bound_to 7997
  154.7063  140.0502  157.0495 H   0  0  0  0  0  0  0  0  0  0  0  0  # atno 8010 bound_to 7997
  140.2238  143.3656  152.0946 H   0  0  0  0  0  0  0  0  0  0  0  0  # atno 10167 bound_to 10162
  156.0491  130.4299  150.2041 H   0  0  0  0  0  0  0  0  0  0  0  0  # atno 10718 bound_to 10713
  153.0247  135.6405  154.1401 H   0  0  0  0  0  0  0  0  0  0  0  0  # atno 10763 bound_to 10752
  154.1131  135.2851  155.3227 H   0  0  0  0  0  0  0  0  0  0  0  0  # atno 10764 bound_to 10752
  154.6317  135.5490  153.7751 H   0  0  0  0  0  0  0  0  0  0  0  0  # atno 10765 bound_to 10752
  140.6076  133.9778  155.8161 H   0  0  0  0  0  0  0  0  0  0  0  0  # atno 11005 bound_to 11000
  144.7775  140.5770  143.6628 LP  0  0  0  0  0  0  0  0  0  0  0  0  # atno 17320 bound_to 7965
  145.5083  139.1480  143.3619 LP  0  0  0  0  0  0  0  0  0  0  0  0  # atno 17321 bound_to 7965
  139.5134  144.6932  151.5702 LP  0  0  0  0  0  0  0  0  0  0  0  0  # atno 17342 bound_to 10162
  140.6235  143.9213  150.6545 LP  0  0  0  0  0  0  0  0  0  0  0  0  # atno 17343 bound_to 10162
  157.0127  130.9956  151.3361 LP  0  0  0  0  0  0  0  0  0  0  0  0  # atno 17370 bound_to 10713
  157.5399  130.8113  149.8016 LP  0  0  0  0  0  0  0  0  0  0  0  0  # atno 17371 bound_to 10713
  141.0830  134.0033  157.3357 LP  0  0  0  0  0  0  0  0  0  0  0  0  # atno 17394 bound_to 11000
  139.9206  135.0200  156.8049 LP  0  0  0  0  0  0  0  0  0  0  0  0  # atno 17395 bound_to 11000

$$$$
