AV-unprocessed.smi:415|AV-procd|sdf|2524|dock5
  -GOLD-   2262022483D 1   1.00000     0.00000
 Structure written by MMmdl.
 53 54  0  0  0  0  0  0  0  0  1 V2000
  151.9340  131.9768  157.0132 C   0  0  0  0  0  0  0  0  0  0  0  0
  150.9300  132.9453  157.2721 O   0  0  0  0  0  0  0  0  0  0  0  0
  151.0101  134.0963  156.4425 C   0  0  0  0  0  0  0  0  0  0  0  0
  149.8530  135.0858  156.6897 C   0  0  0  0  0  0  0  0  0  0  0  0
  150.0835  136.3861  156.0883 N   0  0  0  0  0  0  0  0  0  0  0  0
  149.3085  136.8855  155.0450 C   0  0  0  0  0  0  0  0  0  0  0  0
  148.2837  136.1149  154.5251 N   0  0  0  0  0  0  0  0  0  0  0  0
  149.5258  138.1164  154.5314 C   0  0  0  0  0  0  0  0  0  0  0  0
  150.5737  138.9889  155.0416 C   0  0  0  0  0  0  0  0  0  0  0  0
  150.7794  140.1176  154.5947 O   0  0  0  0  0  0  0  0  0  0  0  0
  151.3455  138.4646  156.1035 N   0  0  0  0  0  0  0  0  0  0  0  0
  152.4025  139.3092  156.7023 C   0  0  0  0  0  0  0  0  0  0  0  0
  151.8903  140.1972  157.8463 C   0  0  0  0  0  0  0  0  0  0  0  0
  151.5283  139.7067  158.9169 O   0  0  0  0  0  0  0  0  0  0  0  0
  151.8658  141.5147  157.5970 N   0  0  0  0  0  0  0  0  0  0  0  0
  151.4559  142.5467  158.5463 C   0  0  2  0  0  0  0  0  0  0  0  0
  151.5944  143.9369  157.8961 C   0  0  0  0  0  0  0  0  0  0  0  0
  151.1467  145.0486  158.8567 C   0  0  0  0  0  0  0  0  0  0  0  0
  151.8986  144.9749  160.1950 C   0  0  0  0  0  0  0  0  0  0  0  0
  151.7615  143.5820  160.8423 C   0  0  2  0  0  0  0  0  0  0  0  0
  152.4205  143.5296  162.2306 C   0  0  0  0  0  0  0  0  0  0  0  0
  152.2394  142.4572  159.8856 C   0  0  2  0  0  0  0  0  0  0  0  0
  153.7740  142.4197  159.6930 C   0  0  0  0  0  0  0  0  0  0  0  0
  151.1167  137.1805  156.6489 C   0  0  0  0  0  0  0  0  0  0  0  0
  151.8013  136.7792  157.5942 O   0  0  0  0  0  0  0  0  0  0  0  0
  151.8146  131.1388  157.6997 H   0  0  0  0  0  0  0  0  0  0  0  0
  152.9367  132.3804  157.1520 H   0  0  0  0  0  0  0  0  0  0  0  0
  151.8525  131.5902  155.9966 H   0  0  0  0  0  0  0  0  0  0  0  0
  151.9726  134.5932  156.5733 H   0  0  0  0  0  0  0  0  0  0  0  0
  150.9836  133.7612  155.4054 H   0  0  0  0  0  0  0  0  0  0  0  0
  148.8846  134.7060  156.3628 H   0  0  0  0  0  0  0  0  0  0  0  0
  149.7264  135.2671  157.7568 H   0  0  0  0  0  0  0  0  0  0  0  0
  148.0782  135.1927  154.8822 H   0  0  0  0  0  0  0  0  0  0  0  0
  147.7573  136.4069  153.7143 H   0  0  0  0  0  0  0  0  0  0  0  0
  148.9051  138.4755  153.7228 H   0  0  0  0  0  0  0  0  0  0  0  0
  153.2204  138.6880  157.0720 H   0  0  0  0  0  0  0  0  0  0  0  0
  152.8758  139.9522  155.9592 H   0  0  0  0  0  0  0  0  0  0  0  0
  152.1747  141.8300  156.6892 H   0  0  0  0  0  0  0  0  0  0  0  0
  150.3959  142.3986  158.7627 H   0  0  0  0  0  0  0  0  0  0  0  0
  152.6267  144.1106  157.5904 H   0  0  0  0  0  0  0  0  0  0  0  0
  150.9948  143.9828  156.9862 H   0  0  0  0  0  0  0  0  0  0  0  0
  151.3020  146.0240  158.3951 H   0  0  0  0  0  0  0  0  0  0  0  0
  150.0745  144.9609  159.0375 H   0  0  0  0  0  0  0  0  0  0  0  0
  152.9504  145.2174  160.0406 H   0  0  0  0  0  0  0  0  0  0  0  0
  151.5074  145.7374  160.8693 H   0  0  0  0  0  0  0  0  0  0  0  0
  150.6960  143.4163  161.0104 H   0  0  0  0  0  0  0  0  0  0  0  0
  153.4794  143.7841  162.1875 H   0  0  0  0  0  0  0  0  0  0  0  0
  152.3295  142.5368  162.6723 H   0  0  0  0  0  0  0  0  0  0  0  0
  151.9452  144.2360  162.9118 H   0  0  0  0  0  0  0  0  0  0  0  0
  151.9701  141.5091  160.3536 H   0  0  0  0  0  0  0  0  0  0  0  0
  154.1551  143.3415  159.2552 H   0  0  0  0  0  0  0  0  0  0  0  0
  154.0775  141.5988  159.0434 H   0  0  0  0  0  0  0  0  0  0  0  0
  154.2912  142.2647  160.6392 H   0  0  0  0  0  0  0  0  0  0  0  0
  1  2  1  0  0  0  0
  1 26  1  0  0  0  0
  1 27  1  0  0  0  0
  1 28  1  0  0  0  0
  2  3  1  0  0  0  0
  3  4  1  0  0  0  0
  3 29  1  0  0  0  0
  3 30  1  0  0  0  0
  4  5  1  0  0  0  0
  4 31  1  0  0  0  0
  4 32  1  0  0  0  0
  5 24  1  0  0  0  0
  5  6  1  0  0  0  0
  6  7  1  0  0  0  0
  6  8  2  0  0  0  0
  7 33  1  0  0  0  0
  7 34  1  0  0  0  0
  8  9  1  0  0  0  0
  8 35  1  0  0  0  0
  9 10  2  0  0  0  0
  9 11  1  0  0  0  0
 11 12  1  0  0  0  0
 11 24  1  0  0  0  0
 12 13  1  0  0  0  0
 12 36  1  0  0  0  0
 12 37  1  0  0  0  0
 13 14  2  0  0  0  0
 13 15  1  0  0  0  0
 15 16  1  0  0  0  0
 15 38  1  0  0  0  0
 16 22  1  0  0  0  0
 16 17  1  0  0  0  0
 16 39  1  0  0  0  0
 17 18  1  0  0  0  0
 17 40  1  0  0  0  0
 17 41  1  0  0  0  0
 18 19  1  0  0  0  0
 18 42  1  0  0  0  0
 18 43  1  0  0  0  0
 19 20  1  0  0  0  0
 19 44  1  0  0  0  0
 19 45  1  0  0  0  0
 20 21  1  0  0  0  0
 20 22  1  0  0  0  0
 20 46  1  0  0  0  0
 21 47  1  0  0  0  0
 21 48  1  0  0  0  0
 21 49  1  0  0  0  0
 22 23  1  0  0  0  0
 22 50  1  0  0  0  0
 23 51  1  0  0  0  0
 23 52  1  0  0  0  0
 23 53  1  0  0  0  0
 24 25  2  0  0  0  0
M  END
> <s_m_source_file>
AV-unprocessed.smi

> <i_m_source_file_index>
415

> <i_lp_mmshare_version>
43012

> <i_f3d_flags>
0

> <s_epik_input>
W0NIM11PW0NIMl1bQ0gyXW4xYyhbTkgyXSlbY0hdYyg9TyluKGMxPU8pW0NIMl1DKD1PKVtOSF1bQ0BASF0yW0NIMl1bQ0gyXVtDSDJdW0NAQEhdKFtDSDNdKVtDQEhdMltDSDNd

> <s_epik_cmdline>
J2VwaWtfcHl0aG9uJywgJy1waCcsICc3LjAnLCAnLXRuJywgJzgnLCAnLW1hJywgJzIwMCcsICctbWV0YWxfYmluZGluZycsICctaW1hZScsICc8aW5maWxlLm1hZT4nLCAnLW9tYWUnLCAnPG91dGZpbGUubWFlPic=

> <r_lp_tautomer_probability>
1

> <r_epik_Ionization_Penalty>
8.6647e-06

> <r_epik_Ionization_Penalty_Charging>
1.81162e-08

> <r_epik_Ionization_Penalty_Neutral>
8.64658e-06

> <r_epik_State_Penalty>
-0

> <r_epik_Charging_Adjusted_Penalty>
1.81162e-08

> <i_epik_Tot_Q>
0

> <i_epik_Tot_abs_Q>
0

> <r_epik_Metal_State_Penalty>
-0

> <b_epik_Metal_Only>
0

> <s_lp_Force_Field>
OPLS_2005

> <r_lp_Energy>
23.9123

> <b_lp_Chiralities_Consistent>
1

> <s_lp_Variant>
AV-unprocessed.smi:415-7

> <Gold.Version>
5.8.1

> <Gold.Id.Protein>
6NUR|6NUR_protein|mol2

> <Gold.PLP.Fitness>
49.2716

> <Gold.PLP.PLP>
-43.8498

> <Gold.PLP.part.hbond>
-3.0000

> <Gold.PLP.part.metal>
0.0000

> <Gold.PLP.part.buried>
-3.7182

> <Gold.PLP.part.nonpolar>
-38.1800

> <Gold.PLP.part.repulsive>
0.1697

> <Gold.PLP.ligand.clash>
0.0000

> <Gold.PLP.ligand.torsion>
0.5612

> <Gold.PLP.Chemscore.Hbond>
2.1402

> <Gold.PLP.Chemscore.CHOScore>
0.0000

> <Gold.PLP.Chemscore.Metal>
0.0000

> <Gold.Chemscore.Hbonds>
donor molecule, donor type, donor heavy atom, donor atom, acceptor molecule, acceptor atom, score
      L1  H     7    34       P1  7948  0.12
      P1  H  6896  6907       L1     2  1.00
      P1  H  7989  7998       L1    10  1.00

> <Gold.PLP.Chemscore.Internal.Correction>
0.1236

> <Gold.Rescore>
     Score         DG    S(hbond)    S(metal)    S(lipo)     H(rot)  DE(clash)    DE(int)     intcor
     17.87     -19.42       1.85        0.00     115.77       2.26       0.25       1.30       ----

> <Gold.Chemscore.Fitness>
17.8707

> <Gold.Chemscore.DG>
-19.4214

> <Gold.Chemscore.ZeroCoef>
-5.4800

> <Gold.Chemscore.Hbond>
1.8543

> <Gold.Chemscore.Metal>
0.0000

> <Gold.Chemscore.Lipo>
115.7720

> <Gold.Chemscore.Internal_Hbond>
0.0000

> <Gold.Chemscore.DEClash>
0.2499

> <Gold.Chemscore.DEInternal>
1.3008

> <Gold.Chemscore.Rot>
2.2645

> <Gold.Chemscore.Internal.Correction>
   9.000000E+99

> <Gold.Chemscore.Hbonds>
donor molecule, donor type, donor heavy atom, donor atom, acceptor molecule, acceptor atom, score
      L1  H     7    34       P1  7948  0.12
      P1  H  6896  6907       L1     2  0.32
      P1  H  7989  7998       L1    10  0.97

> <Gold.Chemscore.Hbond.Weighted>
-6.1933

> <Gold.Chemscore.Metal.Weighted>
-0.0000

> <Gold.Chemscore.Lipo.Weighted>
-13.5453

> <Gold.Chemscore.Internal_Hbond.Weighted>
0.0000

> <Gold.Chemscore.DEClash.Weighted>
0.2499

> <Gold.Chemscore.DEInternal.Weighted>
1.3008

> <Gold.Chemscore.Rot.Weighted>
5.7972

> <Gold.Chemscore.Internal.Correction.Weighted>
   9.000000E+99

> <Gold.Protein.RotatedTorsions>
[ 6907 6896 6895 6894 ] final -152.87 input  -60.11 | X-H torsion
[ 7974 7965 7964 7962 ] final   30.87 input  175.53 | X-H torsion
[ 8008 7997 7996 7995 ] final   -2.21 input   59.86 | X-H torsion
[ 10167 10162 10161 10158 ] final   42.18 input  -65.29 | X-H torsion
[ 10718 10713 10712 10709 ] final  170.34 input   66.30 | X-H torsion
[ 10763 10752 10751 10750 ] final  -86.57 input  -60.55 | X-H torsion
[ 11005 11000 10999 10996 ] final -178.04 input  -57.11 | X-H torsion

> <Gold.Protein.ActiveResidues>
 VAL166  LYS551  ARG553  GLY616  TRP617  ASP618  TYR619  PRO620  LYS621  CYS622 
 ASP623  PHE694  ASN695  SER759  ASP760  ASP761  ALA762  ILE779  LEU786  VAL792 
 PHE793  MET794  SER795  GLU796  ALA797  LYS798  CYS799  TRP800  GLU811  SER814 

> <Gold.Protein.RotatedAtoms>
  151.2341  133.4434  159.2604 H   0  0  0  0  0  0  0  0  0  0  0  0  # atno 6907 bound_to 6896
  151.0767  134.9832  159.8346 H   0  0  0  0  0  0  0  0  0  0  0  0  # atno 6908 bound_to 6896
  152.5419  134.2283  159.8867 H   0  0  0  0  0  0  0  0  0  0  0  0  # atno 6909 bound_to 6896
  146.1585  139.6731  142.9050 H   0  0  0  0  0  0  0  0  0  0  0  0  # atno 7974 bound_to 7965
  154.6382  140.2540  155.7353 H   0  0  0  0  0  0  0  0  0  0  0  0  # atno 8008 bound_to 7997
  156.2515  140.2893  156.0685 H   0  0  0  0  0  0  0  0  0  0  0  0  # atno 8009 bound_to 7997
  155.1637  140.0385  157.2838 H   0  0  0  0  0  0  0  0  0  0  0  0  # atno 8010 bound_to 7997
  140.3570  144.2278  150.6141 H   0  0  0  0  0  0  0  0  0  0  0  0  # atno 10167 bound_to 10162
  157.0095  131.0200  151.2807 H   0  0  0  0  0  0  0  0  0  0  0  0  # atno 10718 bound_to 10713
  154.6240  135.5444  153.7606 H   0  0  0  0  0  0  0  0  0  0  0  0  # atno 10763 bound_to 10752
  153.0252  135.6419  154.1399 H   0  0  0  0  0  0  0  0  0  0  0  0  # atno 10764 bound_to 10752
  154.1332  135.2913  155.3160 H   0  0  0  0  0  0  0  0  0  0  0  0  # atno 10765 bound_to 10752
  140.4342  134.6491  157.4726 H   0  0  0  0  0  0  0  0  0  0  0  0  # atno 11005 bound_to 11000
  145.4648  141.0434  143.2731 LP  0  0  0  0  0  0  0  0  0  0  0  0  # atno 17320 bound_to 7965
  144.7995  139.6168  143.7078 LP  0  0  0  0  0  0  0  0  0  0  0  0  # atno 17321 bound_to 7965
  140.5164  143.2277  151.8456 LP  0  0  0  0  0  0  0  0  0  0  0  0  # atno 17342 bound_to 10162
  139.4819  144.4889  151.9211 LP  0  0  0  0  0  0  0  0  0  0  0  0  # atno 17343 bound_to 10162
  157.5331  130.8071  149.7940 LP  0  0  0  0  0  0  0  0  0  0  0  0  # atno 17370 bound_to 10713
  156.0141  130.3821  150.2167 LP  0  0  0  0  0  0  0  0  0  0  0  0  # atno 17371 bound_to 10713
  140.0114  134.6685  155.9375 LP  0  0  0  0  0  0  0  0  0  0  0  0  # atno 17394 bound_to 11000
  141.1733  133.6538  156.4732 LP  0  0  0  0  0  0  0  0  0  0  0  0  # atno 17395 bound_to 11000

$$$$
