AV-unprocessed.smi:3056|AV-procd|sdf|11656|dock8
  -GOLD-   2272017 53D 1   1.00000     0.00000
 Structure written by MMmdl.
 47 48  0  0  0  0  0  0  0  0  1 V2000
  144.3723  135.0621  149.2551 C   0  0  0  0  0  0  0  0  0  0  0  0
  145.0595  134.9746  150.5873 C   0  0  0  0  0  0  0  0  0  0  0  0
  145.2363  136.0065  151.5514 C   0  0  0  0  0  0  0  0  0  0  0  0
  145.8993  135.6017  152.6220 N   0  0  0  0  0  0  0  0  0  0  0  0
  146.1553  134.2954  152.3933 N   0  0  0  0  0  0  0  0  0  0  0  0
  146.9234  133.5312  153.3727 C   0  0  1  0  0  0  0  0  0  0  0  0
  148.1207  132.8152  152.7124 C   0  0  0  0  0  0  0  0  0  0  0  0
  147.3007  134.3997  154.6033 C   0  0  1  0  0  0  0  0  0  0  0  0
  147.1934  133.6183  155.9283 C   0  0  0  0  0  0  0  0  0  0  0  0
  148.6393  134.9513  154.4080 N   0  0  0  0  0  0  0  0  0  0  0  0
  148.9378  136.1271  155.2352 C   0  0  0  0  0  0  0  0  0  0  0  0
  150.4190  136.5098  155.1310 C   0  0  0  0  0  0  0  0  0  0  0  0
  151.2484  135.7178  155.5785 O   0  0  0  0  0  0  0  0  0  0  0  0
  150.7726  137.6946  154.5744 N   0  0  0  0  0  0  0  0  0  0  0  0
  152.1476  138.1981  154.5717 C   0  0  0  0  0  0  0  0  0  0  0  0
  152.2050  139.4192  155.5087 C   0  0  0  0  0  0  0  0  0  0  0  0
  151.2635  140.4044  155.0830 O   0  0  0  0  0  0  0  0  0  0  0  0
  149.9198  139.9243  155.0308 C   0  0  1  0  0  0  0  0  0  0  0  0
  149.0079  141.0718  154.5854 C   0  0  0  0  0  0  0  0  0  0  0  0
  149.8600  138.7228  154.0665 C   0  0  0  0  0  0  0  0  0  0  0  0
  145.6687  133.8966  151.1629 C   0  0  0  0  0  0  0  0  0  0  0  0
  144.3085  136.0905  148.8992 H   0  0  0  0  0  0  0  0  0  0  0  0
  143.3546  134.6744  149.3020 H   0  0  0  0  0  0  0  0  0  0  0  0
  144.8999  134.4910  148.4911 H   0  0  0  0  0  0  0  0  0  0  0  0
  144.9099  137.0350  151.5013 H   0  0  0  0  0  0  0  0  0  0  0  0
  146.2616  132.7407  153.7319 H   0  0  0  0  0  0  0  0  0  0  0  0
  148.5944  132.1142  153.3994 H   0  0  0  0  0  0  0  0  0  0  0  0
  148.8856  133.5175  152.3807 H   0  0  0  0  0  0  0  0  0  0  0  0
  147.7995  132.2415  151.8428 H   0  0  0  0  0  0  0  0  0  0  0  0
  146.5958  135.2318  154.6438 H   0  0  0  0  0  0  0  0  0  0  0  0
  146.2423  133.0888  155.9913 H   0  0  0  0  0  0  0  0  0  0  0  0
  147.2413  134.2792  156.7934 H   0  0  0  0  0  0  0  0  0  0  0  0
  147.9909  132.8815  156.0294 H   0  0  0  0  0  0  0  0  0  0  0  0
  148.7389  135.1760  153.4281 H   0  0  0  0  0  0  0  0  0  0  0  0
  148.3287  136.9687  154.9012 H   0  0  0  0  0  0  0  0  0  0  0  0
  148.6858  135.9507  156.2803 H   0  0  0  0  0  0  0  0  0  0  0  0
  152.8754  137.4509  154.8904 H   0  0  0  0  0  0  0  0  0  0  0  0
  152.4316  138.4849  153.5582 H   0  0  0  0  0  0  0  0  0  0  0  0
  151.9939  139.1266  156.5385 H   0  0  0  0  0  0  0  0  0  0  0  0
  153.2035  139.8565  155.4991 H   0  0  0  0  0  0  0  0  0  0  0  0
  149.6172  139.6107  156.0316 H   0  0  0  0  0  0  0  0  0  0  0  0
  147.9664  140.7511  154.5486 H   0  0  0  0  0  0  0  0  0  0  0  0
  149.2833  141.4336  153.5944 H   0  0  0  0  0  0  0  0  0  0  0  0
  149.0722  141.9116  155.2775 H   0  0  0  0  0  0  0  0  0  0  0  0
  150.1774  139.0252  153.0674 H   0  0  0  0  0  0  0  0  0  0  0  0
  148.8334  138.3789  153.9532 H   0  0  0  0  0  0  0  0  0  0  0  0
  145.7985  132.8889  150.7963 H   0  0  0  0  0  0  0  0  0  0  0  0
  1  2  1  0  0  0  0
  1 22  1  0  0  0  0
  1 23  1  0  0  0  0
  1 24  1  0  0  0  0
  2 21  2  0  0  0  0
  2  3  1  0  0  0  0
  3  4  2  0  0  0  0
  3 25  1  0  0  0  0
  4  5  1  0  0  0  0
  5  6  1  0  0  0  0
  5 21  1  0  0  0  0
  6  7  1  0  0  0  0
  6  8  1  0  0  0  0
  6 26  1  0  0  0  0
  7 27  1  0  0  0  0
  7 28  1  0  0  0  0
  7 29  1  0  0  0  0
  8  9  1  0  0  0  0
  8 10  1  0  0  0  0
  8 30  1  0  0  0  0
  9 31  1  0  0  0  0
  9 32  1  0  0  0  0
  9 33  1  0  0  0  0
 10 11  1  0  0  0  0
 10 34  1  0  0  0  0
 11 12  1  0  0  0  0
 11 35  1  0  0  0  0
 11 36  1  0  0  0  0
 12 13  2  0  0  0  0
 12 14  1  0  0  0  0
 14 20  1  0  0  0  0
 14 15  1  0  0  0  0
 15 16  1  0  0  0  0
 15 37  1  0  0  0  0
 15 38  1  0  0  0  0
 16 17  1  0  0  0  0
 16 39  1  0  0  0  0
 16 40  1  0  0  0  0
 17 18  1  0  0  0  0
 18 19  1  0  0  0  0
 18 20  1  0  0  0  0
 18 41  1  0  0  0  0
 19 42  1  0  0  0  0
 19 43  1  0  0  0  0
 19 44  1  0  0  0  0
 20 45  1  0  0  0  0
 20 46  1  0  0  0  0
 21 47  1  0  0  0  0
M  END
> <s_m_source_file>
AV-unprocessed.smi

> <i_m_source_file_index>
3056

> <i_lp_mmshare_version>
43012

> <i_f3d_flags>
0

> <s_epik_input>
W0NIM11jMVtjSF1ubihbY0hdMSlbQ0BIXShbQ0gzXSlbQ0BIXShbQ0gzXSlbTkhdW0NIMl1DKD1PKU4yW0NIMl1bQ0gyXU9bQ0BASF0oW0NIM10pW0NIMl0y

> <s_epik_cmdline>
J2VwaWtfcHl0aG9uJywgJy1waCcsICc3LjAnLCAnLXRuJywgJzgnLCAnLW1hJywgJzIwMCcsICctbWV0YWxfYmluZGluZycsICctaW1hZScsICc8aW5maWxlLm1hZT4nLCAnLW9tYWUnLCAnPG91dGZpbGUubWFlPic=

> <r_lp_tautomer_probability>
1

> <r_epik_Ionization_Penalty>
0.667689

> <r_epik_Ionization_Penalty_Charging>
0

> <r_epik_Ionization_Penalty_Neutral>
0.667689

> <r_epik_State_Penalty>
0.684601

> <r_epik_Charging_Adjusted_Penalty>
0.684601

> <i_epik_Tot_Q>
0

> <i_epik_Tot_abs_Q>
0

> <r_epik_Metal_State_Penalty>
0.681448

> <b_epik_Metal_Only>
0

> <s_lp_Force_Field>
OPLS_2005

> <r_lp_Energy>
30.7947

> <b_lp_Chiralities_Consistent>
1

> <s_lp_Variant>
AV-unprocessed.smi:3056-12

> <Gold.Version>
5.8.1

> <Gold.Id.Protein>
6NUR|6NUR_protein|mol2

> <Gold.PLP.Fitness>
44.9312

> <Gold.PLP.PLP>
-35.0760

> <Gold.PLP.part.hbond>
-3.0000

> <Gold.PLP.part.metal>
0.0000

> <Gold.PLP.part.buried>
0.8078

> <Gold.PLP.part.nonpolar>
-33.9952

> <Gold.PLP.part.repulsive>
0.2327

> <Gold.PLP.ligand.clash>
0.0000

> <Gold.PLP.ligand.torsion>
1.1664

> <Gold.PLP.Chemscore.Hbond>
3.0000

> <Gold.PLP.Chemscore.CHOScore>
0.9999

> <Gold.PLP.Chemscore.Metal>
0.0000

> <Gold.Chemscore.Hbonds>
donor molecule, donor type, donor heavy atom, donor atom, acceptor molecule, acceptor atom, score
      L1  H    10    34       P1  7948  1.00
      P1  H  7989  7998       L1    17  1.00
      P1  H 10752 10763       L1    13  1.00
      L1  C     3    25       P1 10171  1.00

> <Gold.PLP.Chemscore.Internal.Correction>
0.1884

> <Gold.Rescore>
     Score         DG    S(hbond)    S(metal)    S(lipo)     H(rot)  DE(clash)    DE(int)     intcor
     16.66     -18.17       2.30        0.00      79.44       1.68       0.34       1.16       ----

> <Gold.Chemscore.Fitness>
16.6619

> <Gold.Chemscore.DG>
-18.1681

> <Gold.Chemscore.ZeroCoef>
-5.4800

> <Gold.Chemscore.Hbond>
2.3031

> <Gold.Chemscore.Metal>
0.0000

> <Gold.Chemscore.Lipo>
79.4437

> <Gold.Chemscore.Internal_Hbond>
0.0000

> <Gold.Chemscore.DEClash>
0.3418

> <Gold.Chemscore.DEInternal>
1.1644

> <Gold.Chemscore.Rot>
1.6793

> <Gold.Chemscore.Internal.Correction>
   9.000000E+99

> <Gold.Chemscore.Hbonds>
donor molecule, donor type, donor heavy atom, donor atom, acceptor molecule, acceptor atom, score
      L1  H    10    34       P1  7948  0.74
      P1  H  7989  7998       L1    17  0.36
      P1  H 10752 10763       L1    13  0.95

> <Gold.Chemscore.Hbond.Weighted>
-7.6922

> <Gold.Chemscore.Metal.Weighted>
-0.0000

> <Gold.Chemscore.Lipo.Weighted>
-9.2949

> <Gold.Chemscore.Internal_Hbond.Weighted>
0.0000

> <Gold.Chemscore.DEClash.Weighted>
0.3418

> <Gold.Chemscore.DEInternal.Weighted>
1.1644

> <Gold.Chemscore.Rot.Weighted>
4.2990

> <Gold.Chemscore.Internal.Correction.Weighted>
   9.000000E+99

> <Gold.Protein.RotatedTorsions>
[ 6907 6896 6895 6894 ] final  106.25 input  -60.11 | X-H torsion
[ 7974 7965 7964 7962 ] final   21.22 input  175.53 | X-H torsion
[ 8008 7997 7996 7995 ] final -161.85 input   59.86 | X-H torsion
[ 10167 10162 10161 10158 ] final  105.06 input  -65.29 | X-H torsion
[ 10718 10713 10712 10709 ] final -133.02 input   66.30 | X-H torsion
[ 10763 10752 10751 10750 ] final   89.58 input  -60.55 | X-H torsion
[ 11005 11000 10999 10996 ] final  -17.98 input  -57.11 | X-H torsion

> <Gold.Protein.ActiveResidues>
 VAL166  LYS551  ARG553  GLY616  TRP617  ASP618  TYR619  PRO620  LYS621  CYS622 
 ASP623  PHE694  ASN695  SER759  ASP760  ASP761  ALA762  ILE779  LEU786  VAL792 
 PHE793  MET794  SER795  GLU796  ALA797  LYS798  CYS799  TRP800  GLU811  SER814 

> <Gold.Protein.RotatedAtoms>
  152.5200  133.9408  159.7625 H   0  0  0  0  0  0  0  0  0  0  0  0  # atno 6907 bound_to 6896
  150.9738  133.6307  159.2740 H   0  0  0  0  0  0  0  0  0  0  0  0  # atno 6908 bound_to 6896
  151.3509  135.0890  159.9455 H   0  0  0  0  0  0  0  0  0  0  0  0  # atno 6909 bound_to 6896
  146.2080  139.8058  142.8711 H   0  0  0  0  0  0  0  0  0  0  0  0  # atno 7974 bound_to 7965
  155.7982  140.0888  157.1972 H   0  0  0  0  0  0  0  0  0  0  0  0  # atno 8008 bound_to 7997
  154.3983  140.1477  156.3301 H   0  0  0  0  0  0  0  0  0  0  0  0  # atno 8009 bound_to 7997
  155.8490  140.3435  155.5683 H   0  0  0  0  0  0  0  0  0  0  0  0  # atno 8010 bound_to 7997
  139.7124  144.7075  151.1005 H   0  0  0  0  0  0  0  0  0  0  0  0  # atno 10167 bound_to 10162
  156.2406  130.7093  151.0953 H   0  0  0  0  0  0  0  0  0  0  0  0  # atno 10718 bound_to 10713
  153.1886  135.4465  155.0120 H   0  0  0  0  0  0  0  0  0  0  0  0  # atno 10763 bound_to 10752
  154.8076  135.3281  154.7393 H   0  0  0  0  0  0  0  0  0  0  0  0  # atno 10764 bound_to 10752
  153.7850  135.6974  153.4937 H   0  0  0  0  0  0  0  0  0  0  0  0  # atno 10765 bound_to 10752
  140.8222  133.8059  155.9671 H   0  0  0  0  0  0  0  0  0  0  0  0  # atno 11005 bound_to 11000
  145.3248  141.0252  143.3480 LP  0  0  0  0  0  0  0  0  0  0  0  0  # atno 17320 bound_to 7965
  144.8840  139.4864  143.6709 LP  0  0  0  0  0  0  0  0  0  0  0  0  # atno 17321 bound_to 7965
  140.7736  143.5275  150.9463 LP  0  0  0  0  0  0  0  0  0  0  0  0  # atno 17342 bound_to 10162
  139.8960  143.6895  152.3138 LP  0  0  0  0  0  0  0  0  0  0  0  0  # atno 17343 bound_to 10162
  157.7173  131.0702  150.6275 LP  0  0  0  0  0  0  0  0  0  0  0  0  # atno 17370 bound_to 10713
  156.6348  130.4442  149.5773 LP  0  0  0  0  0  0  0  0  0  0  0  0  # atno 17371 bound_to 10713
  140.9086  134.2288  157.4999 LP  0  0  0  0  0  0  0  0  0  0  0  0  # atno 17394 bound_to 11000
  139.8708  134.9740  156.4829 LP  0  0  0  0  0  0  0  0  0  0  0  0  # atno 17395 bound_to 11000

$$$$
