AV-unprocessed.smi:1965|AV-procd|sdf|7934|dock7
  -GOLD-   2272010103D 1   1.00000     0.00000
 Structure written by MMmdl.
 37 39  0  0  0  0  0  0  0  0  2 V2000
  146.9187  135.6891  157.8100 O   0  0  0  0  0  0  0  0  0  0  0  0
  147.9825  136.2931  157.9342 C   0  0  0  0  0  0  0  0  0  0  0  0
  148.4868  136.5716  159.1552 N   0  0  0  0  0  0  0  0  0  0  0  0
  148.0056  136.2861  160.4664 C   0  0  0  0  0  0  0  0  0  0  0  0
  148.1012  137.1050  161.5220 N   0  0  0  0  0  0  0  0  0  0  0  0
  147.5328  136.5530  162.6728 C   0  0  0  0  0  0  0  0  0  0  0  0
  147.0010  135.3034  162.4757 C   0  0  0  0  0  0  0  0  0  0  0  0
  147.1959  134.7680  160.8284 S   0  0  0  0  0  0  0  0  0  0  0  0
  148.7031  136.7134  156.8818 N   0  0  0  0  0  0  0  0  0  0  0  0
  148.3437  136.5350  155.4790 C   0  0  2  0  0  0  0  0  0  0  0  0
  146.9639  137.1244  155.1365 C   0  0  0  0  0  0  0  0  0  0  0  0
  146.3330  136.1350  154.1370 C   0  0  0  0  0  0  0  0  0  0  0  0
  147.3748  135.1230  153.8785 N   0  3  2  0  0  0  0  0  0  0  0  0
  146.9219  133.7922  153.4185 C   0  0  0  0  0  0  0  0  0  0  0  0
  148.1523  132.9109  153.1235 C   0  0  0  0  0  0  0  0  0  0  0  0
  149.1155  132.8525  154.3266 C   0  0  0  0  0  0  0  0  0  0  0  0
  149.4764  134.2669  154.8204 C   0  0  0  0  0  0  0  0  0  0  0  0
  148.1885  135.0596  155.1019 C   0  0  1  0  0  0  0  0  0  0  0  0
  149.3746  137.0526  159.1376 H   0  0  0  0  0  0  0  0  0  0  0  0
  147.5495  137.1202  163.5917 H   0  0  0  0  0  0  0  0  0  0  0  0
  146.5083  134.6682  163.1967 H   0  0  0  0  0  0  0  0  0  0  0  0
  149.5669  137.2011  157.0740 H   0  0  0  0  0  0  0  0  0  0  0  0
  149.0870  137.0018  154.8291 H   0  0  0  0  0  0  0  0  0  0  0  0
  146.3327  137.2046  156.0230 H   0  0  0  0  0  0  0  0  0  0  0  0
  147.0599  138.1245  154.7124 H   0  0  0  0  0  0  0  0  0  0  0  0
  145.4546  135.6645  154.5816 H   0  0  0  0  0  0  0  0  0  0  0  0
  146.0255  136.6188  153.2095 H   0  0  0  0  0  0  0  0  0  0  0  0
  146.2932  133.3291  154.1807 H   0  0  0  0  0  0  0  0  0  0  0  0
  146.3135  133.9023  152.5202 H   0  0  0  0  0  0  0  0  0  0  0  0
  147.8344  131.9044  152.8503 H   0  0  0  0  0  0  0  0  0  0  0  0
  148.6830  133.3110  152.2585 H   0  0  0  0  0  0  0  0  0  0  0  0
  148.6469  132.2945  155.1383 H   0  0  0  0  0  0  0  0  0  0  0  0
  150.0202  132.3062  154.0579 H   0  0  0  0  0  0  0  0  0  0  0  0
  150.0870  134.1993  155.7211 H   0  0  0  0  0  0  0  0  0  0  0  0
  150.0790  134.7809  154.0704 H   0  0  0  0  0  0  0  0  0  0  0  0
  147.6109  134.5507  155.8775 H   0  0  0  0  0  0  0  0  0  0  0  0
  147.9726  135.5035  153.1589 H   0  0  0  0  0  0  0  0  0  0  0  0
  1  2  2  0  0  0  0
  2  3  1  0  0  0  0
  2  9  1  0  0  0  0
  3  4  1  0  0  0  0
  3 19  1  0  0  0  0
  4  8  1  0  0  0  0
  4  5  2  0  0  0  0
  5  6  1  0  0  0  0
  6  7  2  0  0  0  0
  6 20  1  0  0  0  0
  7  8  1  0  0  0  0
  7 21  1  0  0  0  0
  9 10  1  0  0  0  0
  9 22  1  0  0  0  0
 10 18  1  0  0  0  0
 10 11  1  0  0  0  0
 10 23  1  0  0  0  0
 11 12  1  0  0  0  0
 11 24  1  0  0  0  0
 11 25  1  0  0  0  0
 12 13  1  0  0  0  0
 12 26  1  0  0  0  0
 12 27  1  0  0  0  0
 13 18  1  0  0  0  0
 13 14  1  0  0  0  0
 13 37  1  0  0  0  0
 14 15  1  0  0  0  0
 14 28  1  0  0  0  0
 14 29  1  0  0  0  0
 15 16  1  0  0  0  0
 15 30  1  0  0  0  0
 15 31  1  0  0  0  0
 16 17  1  0  0  0  0
 16 32  1  0  0  0  0
 16 33  1  0  0  0  0
 17 18  1  0  0  0  0
 17 34  1  0  0  0  0
 17 35  1  0  0  0  0
 18 36  1  0  0  0  0
M  CHG  1  13   1
M  END
> <s_m_source_file>
AV-unprocessed.smi

> <i_m_source_file_index>
1965

> <i_lp_mmshare_version>
43012

> <i_f3d_flags>
0

> <s_epik_input>
czFbY0hdW2NIXW5jMVtOSF1DKD1PKVtOSF1bQ0BIXShbQ0gyXVtDSDJdMilbQ0BASF0oTjIzKVtDSDJdW0NIMl1bQ0gyXVtDSDJdMw==

> <s_epik_cmdline>
J2VwaWtfcHl0aG9uJywgJy1waCcsICc3LjAnLCAnLXRuJywgJzgnLCAnLW1hJywgJzIwMCcsICctbWV0YWxfYmluZGluZycsICctaW1hZScsICc8aW5maWxlLm1hZT4nLCAnLW9tYWUnLCAnPG91dGZpbGUubWFlPic=

> <r_lp_tautomer_probability>
1

> <r_epik_Ionization_Penalty>
0.00125962

> <r_epik_Ionization_Penalty_Charging>
0.00107044

> <r_epik_Ionization_Penalty_Neutral>
0.000189176

> <r_epik_State_Penalty>
-0

> <r_epik_Charging_Adjusted_Penalty>
0.00107044

> <i_epik_Tot_Q>
1

> <i_epik_Tot_abs_Q>
1

> <r_epik_Metal_State_Penalty>
0.0179285

> <b_epik_Metal_Only>
0

> <s_lp_Force_Field>
OPLS_2005

> <r_lp_Energy>
35.2759

> <b_lp_Chiralities_Consistent>
1

> <s_lp_Variant>
AV-unprocessed.smi:1965-3

> <Gold.Version>
5.8.1

> <Gold.Id.Protein>
6NUR|6NUR_protein|mol2

> <Gold.PLP.Fitness>
38.4948

> <Gold.PLP.PLP>
-27.9149

> <Gold.PLP.part.hbond>
-3.0000

> <Gold.PLP.part.metal>
0.0000

> <Gold.PLP.part.buried>
-3.3610

> <Gold.PLP.part.nonpolar>
-21.0465

> <Gold.PLP.part.repulsive>
0.1553

> <Gold.PLP.ligand.clash>
0.0000

> <Gold.PLP.ligand.torsion>
0.2853

> <Gold.PLP.Chemscore.Hbond>
3.7137

> <Gold.PLP.Chemscore.CHOScore>
0.0000

> <Gold.PLP.Chemscore.Metal>
0.0000

> <Gold.Chemscore.Hbonds>
donor molecule, donor type, donor heavy atom, donor atom, acceptor molecule, acceptor atom, score
      L1  H    13    37       P1  7948  2.00
      P1  H  6931  6943       L1     5  0.99
      P1  H  6934  6947       L1     5  0.37

> <Gold.PLP.Chemscore.Internal.Correction>
0.0094

> <Gold.Rescore>
     Score         DG    S(hbond)    S(metal)    S(lipo)     H(rot)  DE(clash)    DE(int)     intcor
     16.02     -17.43       2.45        0.00      54.15       1.00       0.00       1.41       ----

> <Gold.Chemscore.Fitness>
16.0177

> <Gold.Chemscore.DG>
-17.4311

> <Gold.Chemscore.ZeroCoef>
-5.4800

> <Gold.Chemscore.Hbond>
2.4478

> <Gold.Chemscore.Metal>
0.0000

> <Gold.Chemscore.Lipo>
54.1483

> <Gold.Chemscore.Internal_Hbond>
0.0000

> <Gold.Chemscore.DEClash>
0.0029

> <Gold.Chemscore.DEInternal>
1.4104

> <Gold.Chemscore.Rot>
1.0000

> <Gold.Chemscore.Internal.Correction>
   9.000000E+99

> <Gold.Chemscore.Hbonds>
donor molecule, donor type, donor heavy atom, donor atom, acceptor molecule, acceptor atom, score
      L1  H    13    37       P1  7948  1.00
      P1  H  6931  6943       L1     5  0.69
      P1  H  6934  6947       L1     5  0.20

> <Gold.Chemscore.Hbond.Weighted>
-8.1757

> <Gold.Chemscore.Metal.Weighted>
-0.0000

> <Gold.Chemscore.Lipo.Weighted>
-6.3354

> <Gold.Chemscore.Internal_Hbond.Weighted>
0.0000

> <Gold.Chemscore.DEClash.Weighted>
0.0029

> <Gold.Chemscore.DEInternal.Weighted>
1.4104

> <Gold.Chemscore.Rot.Weighted>
2.5600

> <Gold.Chemscore.Internal.Correction.Weighted>
   9.000000E+99

> <Gold.Protein.RotatedTorsions>
[ 6907 6896 6895 6894 ] final   73.53 input  -60.11 | X-H torsion
[ 7974 7965 7964 7962 ] final  136.18 input  175.53 | X-H torsion
[ 8008 7997 7996 7995 ] final  -26.07 input   59.86 | X-H torsion
[ 10167 10162 10161 10158 ] final  -14.80 input  -65.29 | X-H torsion
[ 10718 10713 10712 10709 ] final  114.15 input   66.30 | X-H torsion
[ 10763 10752 10751 10750 ] final  -19.62 input  -60.55 | X-H torsion
[ 11005 11000 10999 10996 ] final  -66.84 input  -57.11 | X-H torsion

> <Gold.Protein.ActiveResidues>
 VAL166  LYS551  ARG553  GLY616  TRP617  ASP618  TYR619  PRO620  LYS621  CYS622 
 ASP623  PHE694  ASN695  SER759  ASP760  ASP761  ALA762  ILE779  LEU786  VAL792 
 PHE793  MET794  SER795  GLU796  ALA797  LYS798  CYS799  TRP800  GLU811  SER814 

> <Gold.Protein.RotatedAtoms>
  152.4928  134.4408  159.9542 H   0  0  0  0  0  0  0  0  0  0  0  0  # atno 6907 bound_to 6896
  151.4392  133.3642  159.2787 H   0  0  0  0  0  0  0  0  0  0  0  0  # atno 6908 bound_to 6896
  150.9100  134.8540  159.7478 H   0  0  0  0  0  0  0  0  0  0  0  0  # atno 6909 bound_to 6896
  144.9590  139.4732  143.5489 H   0  0  0  0  0  0  0  0  0  0  0  0  # atno 7974 bound_to 7965
  154.4443  140.1909  156.0718 H   0  0  0  0  0  0  0  0  0  0  0  0  # atno 8008 bound_to 7997
  156.0505  140.3309  155.7319 H   0  0  0  0  0  0  0  0  0  0  0  0  # atno 8009 bound_to 7997
  155.5564  140.0599  157.2829 H   0  0  0  0  0  0  0  0  0  0  0  0  # atno 8010 bound_to 7997
  140.7207  143.5284  150.9549 H   0  0  0  0  0  0  0  0  0  0  0  0  # atno 10167 bound_to 10162
  157.6298  131.0994  150.7144 H   0  0  0  0  0  0  0  0  0  0  0  0  # atno 10718 bound_to 10713
  153.6076  135.6997  153.5359 H   0  0  0  0  0  0  0  0  0  0  0  0  # atno 10763 bound_to 10752
  153.3044  135.4119  155.1280 H   0  0  0  0  0  0  0  0  0  0  0  0  # atno 10764 bound_to 10752
  154.8570  135.3656  154.5614 H   0  0  0  0  0  0  0  0  0  0  0  0  # atno 10765 bound_to 10752
  141.1492  133.6707  156.6201 H   0  0  0  0  0  0  0  0  0  0  0  0  # atno 11005 bound_to 11000
  146.3347  139.8727  142.8837 LP  0  0  0  0  0  0  0  0  0  0  0  0  # atno 17320 bound_to 7965
  145.2728  141.0114  143.3762 LP  0  0  0  0  0  0  0  0  0  0  0  0  # atno 17321 bound_to 7965
  139.9004  143.6843  152.3132 LP  0  0  0  0  0  0  0  0  0  0  0  0  # atno 17342 bound_to 10162
  139.7191  144.7606  151.0985 LP  0  0  0  0  0  0  0  0  0  0  0  0  # atno 17343 bound_to 10162
  156.7485  130.4761  149.5462 LP  0  0  0  0  0  0  0  0  0  0  0  0  # atno 17370 bound_to 10713
  156.1493  130.6299  151.0574 LP  0  0  0  0  0  0  0  0  0  0  0  0  # atno 17371 bound_to 10713
  140.3547  134.7738  157.4492 LP  0  0  0  0  0  0  0  0  0  0  0  0  # atno 17394 bound_to 11000
  140.0832  134.5702  155.8519 LP  0  0  0  0  0  0  0  0  0  0  0  0  # atno 17395 bound_to 11000

$$$$
