AV-unprocessed.smi:1705|AV-procd|sdf|6882|dock4
  -GOLD-   22720 8 83D 1   1.00000     0.00000
 Structure written by MMmdl.
 38 39  0  0  0  0  0  0  0  0  1 V2000
  144.8119  136.6611  155.1051 C   0  0  0  0  0  0  0  0  0  0  0  0
  146.2227  136.4113  154.5500 C   0  0  2  0  0  0  0  0  0  0  0  0
  146.9647  137.6626  154.5109 N   0  0  0  0  0  0  0  0  0  0  0  0
  148.3364  137.8198  154.6837 C   0  0  0  0  0  0  0  0  0  0  0  0
  149.1582  136.7586  154.9206 C   0  0  0  0  0  0  0  0  0  0  0  0
  148.6953  135.4135  155.0567 C   0  0  0  0  0  0  0  0  0  0  0  0
  148.2945  134.3343  155.1831 N   0  0  0  0  0  0  0  0  0  0  0  0
  150.6007  136.9190  155.0913 C   0  0  0  0  0  0  0  0  0  0  0  0
  151.3760  135.9829  155.3009 O   0  0  0  0  0  0  0  0  0  0  0  0
  151.0643  138.2463  154.9927 N   0  0  0  0  0  0  0  0  0  0  0  0
  152.4932  138.4406  155.1417 C   0  0  0  0  0  0  0  0  0  0  0  0
  150.2372  139.3615  154.7448 C   0  0  0  0  0  0  0  0  0  0  0  0
  150.6983  140.5027  154.6461 O   0  0  0  0  0  0  0  0  0  0  0  0
  148.8483  139.1187  154.6072 N   0  0  0  0  0  0  0  0  0  0  0  0
  148.0532  140.3022  154.3463 C   0  0  0  0  0  0  0  0  0  0  0  0
  146.1939  135.7886  153.1420 C   0  0  2  0  0  0  0  0  0  0  0  0
  145.5910  136.6794  152.0568 C   0  0  0  0  0  0  0  0  0  0  0  0
  145.1445  135.6846  150.9990 C   0  0  0  0  0  0  0  0  0  0  0  0
  145.0372  134.3594  151.7594 C   0  0  0  0  0  0  0  0  0  0  0  0
  145.3106  134.6771  153.1176 O   0  0  0  0  0  0  0  0  0  0  0  0
  144.2609  135.7284  155.2250 H   0  0  0  0  0  0  0  0  0  0  0  0
  144.2351  137.3067  154.4419 H   0  0  0  0  0  0  0  0  0  0  0  0
  144.8492  137.1429  156.0819 H   0  0  0  0  0  0  0  0  0  0  0  0
  146.7362  135.7122  155.2094 H   0  0  0  0  0  0  0  0  0  0  0  0
  146.5590  138.3170  153.8574 H   0  0  0  0  0  0  0  0  0  0  0  0
  152.7553  139.4977  155.1525 H   0  0  0  0  0  0  0  0  0  0  0  0
  152.9734  137.9420  154.2980 H   0  0  0  0  0  0  0  0  0  0  0  0
  152.7891  137.9904  156.0911 H   0  0  0  0  0  0  0  0  0  0  0  0
  148.3416  140.6739  153.3617 H   0  0  0  0  0  0  0  0  0  0  0  0
  148.2638  141.0285  155.1339 H   0  0  0  0  0  0  0  0  0  0  0  0
  146.9920  140.0646  154.3600 H   0  0  0  0  0  0  0  0  0  0  0  0
  147.1913  135.4593  152.8434 H   0  0  0  0  0  0  0  0  0  0  0  0
  144.7231  137.2123  152.4479 H   0  0  0  0  0  0  0  0  0  0  0  0
  146.2960  137.4167  151.6719 H   0  0  0  0  0  0  0  0  0  0  0  0
  144.1965  135.9796  150.5485 H   0  0  0  0  0  0  0  0  0  0  0  0
  145.8851  135.6041  150.2024 H   0  0  0  0  0  0  0  0  0  0  0  0
  144.0518  133.9029  151.6634 H   0  0  0  0  0  0  0  0  0  0  0  0
  145.7795  133.6467  151.3974 H   0  0  0  0  0  0  0  0  0  0  0  0
  1  2  1  0  0  0  0
  1 21  1  0  0  0  0
  1 22  1  0  0  0  0
  1 23  1  0  0  0  0
  2  3  1  0  0  0  0
  2 16  1  0  0  0  0
  2 24  1  0  0  0  0
  3  4  1  0  0  0  0
  3 25  1  0  0  0  0
  4 14  1  0  0  0  0
  4  5  2  0  0  0  0
  5  6  1  0  0  0  0
  5  8  1  0  0  0  0
  6  7  3  0  0  0  0
  8  9  2  0  0  0  0
  8 10  1  0  0  0  0
 10 11  1  0  0  0  0
 10 12  1  0  0  0  0
 11 26  1  0  0  0  0
 11 27  1  0  0  0  0
 11 28  1  0  0  0  0
 12 13  2  0  0  0  0
 12 14  1  0  0  0  0
 14 15  1  0  0  0  0
 15 29  1  0  0  0  0
 15 30  1  0  0  0  0
 15 31  1  0  0  0  0
 16 20  1  0  0  0  0
 16 17  1  0  0  0  0
 16 32  1  0  0  0  0
 17 18  1  0  0  0  0
 17 33  1  0  0  0  0
 17 34  1  0  0  0  0
 18 19  1  0  0  0  0
 18 35  1  0  0  0  0
 18 36  1  0  0  0  0
 19 20  1  0  0  0  0
 19 37  1  0  0  0  0
 19 38  1  0  0  0  0
M  END
> <s_m_source_file>
AV-unprocessed.smi

> <i_m_source_file_index>
1705

> <i_lp_mmshare_version>
43012

> <i_f3d_flags>
0

> <s_epik_input>
TzFbQ0gyXVtDSDJdW0NIMl1bQ0BIXTFbQ0BIXShbQ0gzXSlbTkhdYzJjKEMjTiljKD1PKW4oW0NIM10pYyg9TyluMltDSDNd

> <s_epik_cmdline>
J2VwaWtfcHl0aG9uJywgJy1waCcsICc3LjAnLCAnLXRuJywgJzgnLCAnLW1hJywgJzIwMCcsICctbWV0YWxfYmluZGluZycsICctaW1hZScsICc8aW5maWxlLm1hZT4nLCAnLW9tYWUnLCAnPG91dGZpbGUubWFlPic=

> <r_epik_Ionization_Penalty>
0.000446268

> <r_epik_Ionization_Penalty_Charging>
9.41922e-10

> <r_epik_Ionization_Penalty_Neutral>
0.000446267

> <r_epik_State_Penalty>
0.000275531

> <r_epik_Charging_Adjusted_Penalty>
0.000275532

> <i_epik_Tot_Q>
0

> <i_epik_Tot_abs_Q>
0

> <r_epik_Metal_State_Penalty>
-0

> <b_epik_Metal_Only>
0

> <s_lp_Force_Field>
OPLS_2005

> <r_lp_Energy>
37.8394

> <b_lp_Chiralities_Consistent>
1

> <s_lp_Variant>
AV-unprocessed.smi:1705-1

> <Gold.Version>
5.8.1

> <Gold.Id.Protein>
6NUR|6NUR_protein|mol2

> <Gold.PLP.Fitness>
28.6029

> <Gold.PLP.PLP>
-23.4258

> <Gold.PLP.part.hbond>
-1.8066

> <Gold.PLP.part.metal>
0.0000

> <Gold.PLP.part.buried>
-1.7496

> <Gold.PLP.part.nonpolar>
-20.2892

> <Gold.PLP.part.repulsive>
0.3379

> <Gold.PLP.ligand.clash>
9.0766

> <Gold.PLP.ligand.torsion>
0.4261

> <Gold.PLP.Chemscore.Hbond>
2.0000

> <Gold.PLP.Chemscore.CHOScore>
0.0000

> <Gold.PLP.Chemscore.Metal>
0.0000

> <Gold.Chemscore.Hbonds>
donor molecule, donor type, donor heavy atom, donor atom, acceptor molecule, acceptor atom, score
      P1  H  7989  7998       L1    13  0.98
      P1  H 10752 10765       L1     9  1.00

> <Gold.PLP.Chemscore.Internal.Correction>
9.1059

> <Gold.Rescore>
     Score         DG    S(hbond)    S(metal)    S(lipo)     H(rot)  DE(clash)    DE(int)     intcor
     10.08     -13.09       1.99        0.00      36.24       1.28       0.04       2.97       ----

> <Gold.Chemscore.Fitness>
10.0826

> <Gold.Chemscore.DG>
-13.0901

> <Gold.Chemscore.ZeroCoef>
-5.4800

> <Gold.Chemscore.Hbond>
1.9885

> <Gold.Chemscore.Metal>
0.0000

> <Gold.Chemscore.Lipo>
36.2399

> <Gold.Chemscore.Internal_Hbond>
0.0000

> <Gold.Chemscore.DEClash>
0.0407

> <Gold.Chemscore.DEInternal>
2.9668

> <Gold.Chemscore.Rot>
1.2780

> <Gold.Chemscore.Internal.Correction>
   9.000000E+99

> <Gold.Chemscore.Hbonds>
donor molecule, donor type, donor heavy atom, donor atom, acceptor molecule, acceptor atom, score
      P1  H  7989  7998       L1    13  0.88
      P1  H 10752 10765       L1     9  1.00

> <Gold.Chemscore.Hbond.Weighted>
-6.6416

> <Gold.Chemscore.Metal.Weighted>
-0.0000

> <Gold.Chemscore.Lipo.Weighted>
-4.2401

> <Gold.Chemscore.Internal_Hbond.Weighted>
0.0000

> <Gold.Chemscore.DEClash.Weighted>
0.0407

> <Gold.Chemscore.DEInternal.Weighted>
2.9668

> <Gold.Chemscore.Rot.Weighted>
3.2717

> <Gold.Chemscore.Internal.Correction.Weighted>
   9.000000E+99

> <Gold.Protein.RotatedTorsions>
[ 6907 6896 6895 6894 ] final  152.94 input  -60.11 | X-H torsion
[ 7974 7965 7964 7962 ] final   26.79 input  175.53 | X-H torsion
[ 8008 7997 7996 7995 ] final  117.53 input   59.86 | X-H torsion
[ 10167 10162 10161 10158 ] final  -70.54 input  -65.29 | X-H torsion
[ 10718 10713 10712 10709 ] final   17.42 input   66.30 | X-H torsion
[ 10763 10752 10751 10750 ] final -178.69 input  -60.55 | X-H torsion
[ 11005 11000 10999 10996 ] final  159.21 input  -57.11 | X-H torsion

> <Gold.Protein.ActiveResidues>
 VAL166  LYS551  ARG553  GLY616  TRP617  ASP618  TYR619  PRO620  LYS621  CYS622 
 ASP623  PHE694  ASN695  SER759  ASP760  ASP761  ALA762  ILE779  LEU786  VAL792 
 PHE793  MET794  SER795  GLU796  ALA797  LYS798  CYS799  TRP800  GLU811  SER814 

> <Gold.Protein.RotatedAtoms>
  152.0797  133.4146  159.4495 H   0  0  0  0  0  0  0  0  0  0  0  0  # atno 6907 bound_to 6896
  150.6862  134.2996  159.4710 H   0  0  0  0  0  0  0  0  0  0  0  0  # atno 6908 bound_to 6896
  152.0837  134.9453  160.0623 H   0  0  0  0  0  0  0  0  0  0  0  0  # atno 6909 bound_to 6896
  146.1819  139.7280  142.8894 H   0  0  0  0  0  0  0  0  0  0  0  0  # atno 7974 bound_to 7965
  156.2499  140.2894  156.0693 H   0  0  0  0  0  0  0  0  0  0  0  0  # atno 8008 bound_to 7997
  155.1689  140.0401  157.2876 H   0  0  0  0  0  0  0  0  0  0  0  0  # atno 8009 bound_to 7997
  154.6340  140.2506  155.7407 H   0  0  0  0  0  0  0  0  0  0  0  0  # atno 8010 bound_to 7997
  140.5344  143.2319  151.7203 H   0  0  0  0  0  0  0  0  0  0  0  0  # atno 10167 bound_to 10162
  157.0819  130.6391  149.5828 H   0  0  0  0  0  0  0  0  0  0  0  0  # atno 10718 bound_to 10713
  154.5445  135.2808  155.1065 H   0  0  0  0  0  0  0  0  0  0  0  0  # atno 10763 bound_to 10752
  154.2534  135.6335  153.5252 H   0  0  0  0  0  0  0  0  0  0  0  0  # atno 10764 bound_to 10752
  152.9987  135.5588  154.5994 H   0  0  0  0  0  0  0  0  0  0  0  0  # atno 10765 bound_to 10752
  140.1940  134.8386  157.2944 H   0  0  0  0  0  0  0  0  0  0  0  0  # atno 11005 bound_to 11000
  145.4051  141.0390  143.3048 LP  0  0  0  0  0  0  0  0  0  0  0  0  # atno 17320 bound_to 7965
  144.8330  139.5597  143.6935 LP  0  0  0  0  0  0  0  0  0  0  0  0  # atno 17321 bound_to 7965
  139.4966  144.4065  152.0126 LP  0  0  0  0  0  0  0  0  0  0  0  0  # atno 17342 bound_to 10162
  140.3169  144.3473  150.6019 LP  0  0  0  0  0  0  0  0  0  0  0  0  # atno 17343 bound_to 10162
  155.9921  130.4978  150.7327 LP  0  0  0  0  0  0  0  0  0  0  0  0  # atno 17370 bound_to 10713
  157.4793  131.0901  151.0555 LP  0  0  0  0  0  0  0  0  0  0  0  0  # atno 17371 bound_to 10713
  140.2128  134.4118  155.7604 LP  0  0  0  0  0  0  0  0  0  0  0  0  # atno 17394 bound_to 11000
  141.2227  133.7127  156.8365 LP  0  0  0  0  0  0  0  0  0  0  0  0  # atno 17395 bound_to 11000

$$$$
