AV-unprocessed.smi:2539|AV-procd|sdf|9985|dock8
  -GOLD-   2272014 33D 1   1.00000     0.00000
 Structure written by MMmdl.
 40 41  0  0  0  0  0  0  0  0  1 V2000
  149.1477  141.1822  155.9252 O   0  0  0  0  0  0  0  0  0  0  0  0
  150.3362  140.8585  155.9402 C   0  0  0  0  0  0  0  0  0  0  0  0
  151.1926  141.3155  156.8710 N   0  0  0  0  0  0  0  0  0  0  0  0
  150.8395  142.1426  158.0223 C   0  0  0  0  0  0  0  0  0  0  0  0
  151.9891  143.0855  158.4305 C   0  0  0  0  0  0  0  0  0  0  0  0
  152.6372  142.7178  159.7545 C   0  0  0  0  0  0  0  0  0  0  0  0
  153.4743  141.5878  159.8666 C   0  0  0  0  0  0  0  0  0  0  0  0
  154.0222  141.2721  161.1245 C   0  0  0  0  0  0  0  0  0  0  0  0
  153.7113  142.1031  162.2191 C   0  0  0  0  0  0  0  0  0  0  0  0
  152.9163  143.1902  162.1228 N   0  0  0  0  0  0  0  0  0  0  0  0
  152.3935  143.4854  160.9133 C   0  0  0  0  0  0  0  0  0  0  0  0
  150.8719  139.9662  155.0702 N   0  0  0  0  0  0  0  0  0  0  0  0
  152.1895  139.3224  155.1797 C   0  0  0  0  0  0  0  0  0  0  0  0
  151.9867  137.8651  155.6368 C   0  0  0  0  0  0  0  0  0  0  0  0
  151.0322  137.0816  154.6973 C   0  0  0  0  0  0  0  0  0  0  0  0
  151.7157  136.8638  153.4753 O   0  0  0  0  0  0  0  0  0  0  0  0
  150.6814  135.6900  155.2765 C   0  0  0  0  0  0  0  0  0  0  0  0
  149.9206  135.8235  156.3631 F   0  0  0  0  0  0  0  0  0  0  0  0
  150.0058  134.9663  154.3827 F   0  0  0  0  0  0  0  0  0  0  0  0
  151.7880  135.0316  155.6243 F   0  0  0  0  0  0  0  0  0  0  0  0
  149.7577  137.9087  154.3803 C   0  0  0  0  0  0  0  0  0  0  0  0
  150.0837  139.3645  153.9904 C   0  0  0  0  0  0  0  0  0  0  0  0
  152.1508  141.0027  156.8170 H   0  0  0  0  0  0  0  0  0  0  0  0
  149.9601  142.7314  157.7617 H   0  0  0  0  0  0  0  0  0  0  0  0
  150.5462  141.5193  158.8689 H   0  0  0  0  0  0  0  0  0  0  0  0
  152.7526  143.0910  157.6514 H   0  0  0  0  0  0  0  0  0  0  0  0
  151.6176  144.1087  158.4961 H   0  0  0  0  0  0  0  0  0  0  0  0
  153.6844  140.9659  159.0090 H   0  0  0  0  0  0  0  0  0  0  0  0
  154.6635  140.4123  161.2489 H   0  0  0  0  0  0  0  0  0  0  0  0
  154.1131  141.8895  163.1985 H   0  0  0  0  0  0  0  0  0  0  0  0
  151.7523  144.3537  160.8712 H   0  0  0  0  0  0  0  0  0  0  0  0
  152.6821  139.3448  154.2066 H   0  0  0  0  0  0  0  0  0  0  0  0
  152.8737  139.8379  155.8538 H   0  0  0  0  0  0  0  0  0  0  0  0
  152.9510  137.3603  155.7060 H   0  0  0  0  0  0  0  0  0  0  0  0
  151.5772  137.8738  156.6476 H   0  0  0  0  0  0  0  0  0  0  0  0
  151.1338  137.0864  152.7644 H   0  0  0  0  0  0  0  0  0  0  0  0
  149.1806  137.4324  153.5869 H   0  0  0  0  0  0  0  0  0  0  0  0
  149.1081  137.9240  155.2566 H   0  0  0  0  0  0  0  0  0  0  0  0
  149.1603  139.9087  153.7870 H   0  0  0  0  0  0  0  0  0  0  0  0
  150.6520  139.3933  153.0597 H   0  0  0  0  0  0  0  0  0  0  0  0
  1  2  2  0  0  0  0
  2  3  1  0  0  0  0
  2 12  1  0  0  0  0
  3  4  1  0  0  0  0
  3 23  1  0  0  0  0
  4  5  1  0  0  0  0
  4 24  1  0  0  0  0
  4 25  1  0  0  0  0
  5  6  1  0  0  0  0
  5 26  1  0  0  0  0
  5 27  1  0  0  0  0
  6 11  1  0  0  0  0
  6  7  2  0  0  0  0
  7  8  1  0  0  0  0
  7 28  1  0  0  0  0
  8  9  2  0  0  0  0
  8 29  1  0  0  0  0
  9 10  1  0  0  0  0
  9 30  1  0  0  0  0
 10 11  2  0  0  0  0
 11 31  1  0  0  0  0
 12 22  1  0  0  0  0
 12 13  1  0  0  0  0
 13 14  1  0  0  0  0
 13 32  1  0  0  0  0
 13 33  1  0  0  0  0
 14 15  1  0  0  0  0
 14 34  1  0  0  0  0
 14 35  1  0  0  0  0
 15 16  1  0  0  0  0
 15 17  1  0  0  0  0
 15 21  1  0  0  0  0
 16 36  1  0  0  0  0
 17 18  1  0  0  0  0
 17 19  1  0  0  0  0
 17 20  1  0  0  0  0
 21 22  1  0  0  0  0
 21 37  1  0  0  0  0
 21 38  1  0  0  0  0
 22 39  1  0  0  0  0
 22 40  1  0  0  0  0
M  END
> <s_m_source_file>
AV-unprocessed.smi

> <i_m_source_file_index>
2539

> <i_lp_mmshare_version>
43012

> <i_f3d_flags>
0

> <s_epik_input>
RkMoRikoRilDMShbT0hdKVtDSDJdW0NIMl1OKFtDSDJdW0NIMl0xKUMoPU8pW05IXVtDSDJdW0NIMl1jMltjSF1bY0hdW2NIXW5bY0hdMg==

> <s_epik_cmdline>
J2VwaWtfcHl0aG9uJywgJy1waCcsICc3LjAnLCAnLXRuJywgJzgnLCAnLW1hJywgJzIwMCcsICctbWV0YWxfYmluZGluZycsICctaW1hZScsICc8aW5maWxlLm1hZT4nLCAnLW9tYWUnLCAnPG91dGZpbGUubWFlPic=

> <r_epik_Ionization_Penalty>
0.0144431

> <r_epik_Ionization_Penalty_Charging>
0

> <r_epik_Ionization_Penalty_Neutral>
0.0144431

> <r_epik_State_Penalty>
0.0112443

> <r_epik_Charging_Adjusted_Penalty>
0.0112443

> <i_epik_Tot_Q>
0

> <i_epik_Tot_abs_Q>
0

> <r_epik_Metal_State_Penalty>
0.0109773

> <b_epik_Metal_Only>
0

> <s_lp_Force_Field>
OPLS_2005

> <r_lp_Energy>
34.3491

> <b_lp_Chiralities_Consistent>
1

> <s_lp_Variant>
AV-unprocessed.smi:2539-1

> <Gold.Version>
5.8.1

> <Gold.Id.Protein>
6NUR|6NUR_protein|mol2

> <Gold.PLP.Fitness>
51.2590

> <Gold.PLP.PLP>
-47.8327

> <Gold.PLP.part.hbond>
-2.0000

> <Gold.PLP.part.metal>
0.0000

> <Gold.PLP.part.buried>
-4.5789

> <Gold.PLP.part.nonpolar>
-41.2870

> <Gold.PLP.part.repulsive>
0.3425

> <Gold.PLP.ligand.clash>
0.0000

> <Gold.PLP.ligand.torsion>
0.8195

> <Gold.PLP.Chemscore.Hbond>
1.6720

> <Gold.PLP.Chemscore.CHOScore>
0.0000

> <Gold.PLP.Chemscore.Metal>
0.0000

> <Gold.Chemscore.Hbonds>
donor molecule, donor type, donor heavy atom, donor atom, acceptor molecule, acceptor atom, score
      L1  H    16    36       P1  7949  0.29
      P1  H 10752 10765       L1    16  1.00

> <Gold.PLP.Chemscore.Internal.Correction>
0.0492

> <Gold.Rescore>
     Score         DG    S(hbond)    S(metal)    S(lipo)     H(rot)  DE(clash)    DE(int)     intcor
     16.76     -17.71       1.43        0.00     106.83       1.97       0.33       0.62       ----

> <Gold.Chemscore.Fitness>
16.7631

> <Gold.Chemscore.DG>
-17.7117

> <Gold.Chemscore.ZeroCoef>
-5.4800

> <Gold.Chemscore.Hbond>
1.4327

> <Gold.Chemscore.Metal>
0.0000

> <Gold.Chemscore.Lipo>
106.8305

> <Gold.Chemscore.Internal_Hbond>
0.0000

> <Gold.Chemscore.DEClash>
0.3301

> <Gold.Chemscore.DEInternal>
0.6185

> <Gold.Chemscore.Rot>
1.9737

> <Gold.Chemscore.Internal.Correction>
   9.000000E+99

> <Gold.Chemscore.Hbonds>
donor molecule, donor type, donor heavy atom, donor atom, acceptor molecule, acceptor atom, score
      L1  H    16    36       P1  7949  0.13
      P1  H 10752 10765       L1    16  0.40

> <Gold.Chemscore.Hbond.Weighted>
-4.7853

> <Gold.Chemscore.Metal.Weighted>
-0.0000

> <Gold.Chemscore.Lipo.Weighted>
-12.4992

> <Gold.Chemscore.Internal_Hbond.Weighted>
0.0000

> <Gold.Chemscore.DEClash.Weighted>
0.3301

> <Gold.Chemscore.DEInternal.Weighted>
0.6185

> <Gold.Chemscore.Rot.Weighted>
5.0528

> <Gold.Chemscore.Internal.Correction.Weighted>
   9.000000E+99

> <Gold.Protein.RotatedTorsions>
[ 6907 6896 6895 6894 ] final  163.42 input  -60.11 | X-H torsion
[ 7974 7965 7964 7962 ] final  -41.69 input  175.53 | X-H torsion
[ 8008 7997 7996 7995 ] final -144.35 input   59.86 | X-H torsion
[ 10167 10162 10161 10158 ] final  -75.65 input  -65.29 | X-H torsion
[ 10718 10713 10712 10709 ] final   10.13 input   66.30 | X-H torsion
[ 10763 10752 10751 10750 ] final  142.41 input  -60.55 | X-H torsion
[ 11005 11000 10999 10996 ] final  149.36 input  -57.11 | X-H torsion

> <Gold.Protein.ActiveResidues>
 VAL166  LYS551  ARG553  GLY616  TRP617  ASP618  TYR619  PRO620  LYS621  CYS622 
 ASP623  PHE694  ASN695  SER759  ASP760  ASP761  ALA762  ILE779  LEU786  VAL792 
 PHE793  MET794  SER795  GLU796  ALA797  LYS798  CYS799  TRP800  GLU811  SER814 

> <Gold.Protein.RotatedAtoms>
  151.9255  133.3597  159.3911 H   0  0  0  0  0  0  0  0  0  0  0  0  # atno 6907 bound_to 6896
  150.7028  134.4591  159.5381 H   0  0  0  0  0  0  0  0  0  0  0  0  # atno 6908 bound_to 6896
  152.2222  134.8402  160.0535 H   0  0  0  0  0  0  0  0  0  0  0  0  # atno 6909 bound_to 6896
  146.0187  140.6876  142.9189 H   0  0  0  0  0  0  0  0  0  0  0  0  # atno 7974 bound_to 7965
  155.5255  140.0595  157.2899 H   0  0  0  0  0  0  0  0  0  0  0  0  # atno 8008 bound_to 7997
  154.4502  140.1945  156.0487 H   0  0  0  0  0  0  0  0  0  0  0  0  # atno 8009 bound_to 7997
  156.0689  140.3262  155.7555 H   0  0  0  0  0  0  0  0  0  0  0  0  # atno 8010 bound_to 7997
  140.4924  143.2377  151.7885 H   0  0  0  0  0  0  0  0  0  0  0  0  # atno 10167 bound_to 10162
  156.9765  130.5989  149.5673 H   0  0  0  0  0  0  0  0  0  0  0  0  # atno 10718 bound_to 10713
  153.9554  135.2965  155.3436 H   0  0  0  0  0  0  0  0  0  0  0  0  # atno 10763 bound_to 10752
  154.7404  135.5027  153.9116 H   0  0  0  0  0  0  0  0  0  0  0  0  # atno 10764 bound_to 10752
  153.0973  135.6724  153.9848 H   0  0  0  0  0  0  0  0  0  0  0  0  # atno 10765 bound_to 10752
  140.1038  134.8967  157.1836 H   0  0  0  0  0  0  0  0  0  0  0  0  # atno 11005 bound_to 11000
  144.6981  140.3527  143.7179 LP  0  0  0  0  0  0  0  0  0  0  0  0  # atno 17320 bound_to 7965
  145.7228  139.1714  143.2475 LP  0  0  0  0  0  0  0  0  0  0  0  0  # atno 17321 bound_to 7965
  139.4854  144.4631  151.9517 LP  0  0  0  0  0  0  0  0  0  0  0  0  # atno 17342 bound_to 10162
  140.3718  144.2846  150.5919 LP  0  0  0  0  0  0  0  0  0  0  0  0  # atno 17343 bound_to 10162
  156.0261  130.5355  150.8411 LP  0  0  0  0  0  0  0  0  0  0  0  0  # atno 17370 bound_to 10713
  157.5556  131.0945  150.9633 LP  0  0  0  0  0  0  0  0  0  0  0  0  # atno 17371 bound_to 10713
  140.3183  134.2945  155.7251 LP  0  0  0  0  0  0  0  0  0  0  0  0  # atno 17394 bound_to 11000
  141.2113  133.7694  156.9875 LP  0  0  0  0  0  0  0  0  0  0  0  0  # atno 17395 bound_to 11000

$$$$
