AV-unprocessed.smi:20|AV-procd|sdf|118|dock10
  -GOLD-   2262015293D 1   1.00000     0.00000
 Structure written by MMmdl.
 57 61  0  0  0  0  0  0  0  0  1 V2000
  143.9075  133.3369  148.0086 O   0  0  0  0  0  0  0  0  0  0  0  0
  144.1976  132.8428  149.0956 C   0  0  0  0  0  0  0  0  0  0  0  0
  145.4454  132.0100  149.3387 C   0  0  0  0  0  0  0  0  0  0  0  0
  145.5474  131.9589  150.8786 C   0  0  1  0  0  0  0  0  0  0  0  0
  146.0800  130.5955  151.3750 C   0  0  0  0  0  0  0  0  0  0  0  0
  146.2815  130.5892  152.8984 C   0  0  0  0  0  0  0  0  0  0  0  0
  147.1964  131.7411  153.3373 C   0  0  0  0  0  0  0  0  0  0  0  0
  146.7015  133.0192  152.8260 N   0  0  0  0  0  0  0  0  0  0  0  0
  147.1251  134.1302  153.4827 C   0  0  0  0  0  0  0  0  0  0  0  0
  146.3446  135.2389  153.3941 N   0  0  0  0  0  0  0  0  0  0  0  0
  146.6992  136.3717  154.0062 C   0  0  0  0  0  0  0  0  0  0  0  0
  147.7789  136.6143  154.7498 N   0  0  0  0  0  0  0  0  0  0  0  0
  148.5678  135.5068  154.8484 C   0  0  0  0  0  0  0  0  0  0  0  0
  148.3228  134.2349  154.2538 C   0  0  0  0  0  0  0  0  0  0  0  0
  149.3502  133.3599  154.5951 N   0  0  0  0  0  0  0  0  0  0  0  0
  150.1537  134.0721  155.3361 C   0  0  0  0  0  0  0  0  0  0  0  0
  149.7608  135.3749  155.5351 N   0  0  0  0  0  0  0  0  0  0  0  0
  150.4528  136.3870  156.3133 C   0  0  0  0  0  0  0  0  0  0  0  0
  150.2115  137.8259  155.7933 C   0  0  2  0  0  0  0  0  0  0  0  0
  150.5111  137.9704  154.2817 C   0  0  0  0  0  0  0  0  0  0  0  0
  150.3642  139.3084  153.8513 O   0  0  0  0  0  0  0  0  0  0  0  0
  150.9655  138.8740  156.6502 C   0  0  1  0  0  0  0  0  0  0  0  0
  150.7549  138.7476  158.1488 C   0  0  0  0  0  0  0  0  0  0  0  0
  151.9313  139.5405  158.7064 C   0  0  0  0  0  0  0  0  0  0  0  0
  152.9948  139.3455  157.7820 O   0  0  0  0  0  0  0  0  0  0  0  0
  152.4938  138.7765  156.5760 C   0  0  0  0  0  0  0  0  0  0  0  0
  146.4836  133.0892  151.3814 C   0  0  0  0  0  0  0  0  0  0  0  0
  144.0881  132.2285  151.3249 C   0  0  0  0  0  0  0  0  0  0  0  0
  143.4875  132.9455  150.2167 N   0  0  0  0  0  0  0  0  0  0  0  0
  145.2887  131.0191  148.9105 H   0  0  0  0  0  0  0  0  0  0  0  0
  146.3237  132.4507  148.8656 H   0  0  0  0  0  0  0  0  0  0  0  0
  145.4021  129.7911  151.0869 H   0  0  0  0  0  0  0  0  0  0  0  0
  147.0325  130.3797  150.8894 H   0  0  0  0  0  0  0  0  0  0  0  0
  145.3170  130.6773  153.3998 H   0  0  0  0  0  0  0  0  0  0  0  0
  146.7071  129.6367  153.2152 H   0  0  0  0  0  0  0  0  0  0  0  0
  147.2709  131.7414  154.4250 H   0  0  0  0  0  0  0  0  0  0  0  0
  148.2054  131.5821  152.9546 H   0  0  0  0  0  0  0  0  0  0  0  0
  146.0205  137.2029  153.8821 H   0  0  0  0  0  0  0  0  0  0  0  0
  151.0620  133.6658  155.7572 H   0  0  0  0  0  0  0  0  0  0  0  0
  150.1201  136.2896  157.3467 H   0  0  0  0  0  0  0  0  0  0  0  0
  151.5190  136.1569  156.3110 H   0  0  0  0  0  0  0  0  0  0  0  0
  149.1460  138.0289  155.9112 H   0  0  0  0  0  0  0  0  0  0  0  0
  151.5228  137.6368  154.0502 H   0  0  0  0  0  0  0  0  0  0  0  0
  149.8478  137.3381  153.6920 H   0  0  0  0  0  0  0  0  0  0  0  0
  149.8780  139.3121  153.0409 H   0  0  0  0  0  0  0  0  0  0  0  0
  150.6697  139.8790  156.3441 H   0  0  0  0  0  0  0  0  0  0  0  0
  149.7945  139.1392  158.4847 H   0  0  0  0  0  0  0  0  0  0  0  0
  150.8274  137.7040  158.4587 H   0  0  0  0  0  0  0  0  0  0  0  0
  151.6909  140.6038  158.7403 H   0  0  0  0  0  0  0  0  0  0  0  0
  152.2110  139.2236  159.7114 H   0  0  0  0  0  0  0  0  0  0  0  0
  152.8146  137.7346  156.5333 H   0  0  0  0  0  0  0  0  0  0  0  0
  152.9013  139.2895  155.7046 H   0  0  0  0  0  0  0  0  0  0  0  0
  147.4524  133.0125  150.8859 H   0  0  0  0  0  0  0  0  0  0  0  0
  146.0618  134.0590  151.1143 H   0  0  0  0  0  0  0  0  0  0  0  0
  143.5347  131.2999  151.4721 H   0  0  0  0  0  0  0  0  0  0  0  0
  144.0206  132.8051  152.2479 H   0  0  0  0  0  0  0  0  0  0  0  0
  142.6179  133.4524  150.2971 H   0  0  0  0  0  0  0  0  0  0  0  0
  1  2  2  0  0  0  0
  2 29  1  0  0  0  0
  2  3  1  0  0  0  0
  3  4  1  0  0  0  0
  3 30  1  0  0  0  0
  3 31  1  0  0  0  0
  4 27  1  0  0  0  0
  4  5  1  0  0  0  0
  4 28  1  0  0  0  0
  5  6  1  0  0  0  0
  5 32  1  0  0  0  0
  5 33  1  0  0  0  0
  6  7  1  0  0  0  0
  6 34  1  0  0  0  0
  6 35  1  0  0  0  0
  7  8  1  0  0  0  0
  7 36  1  0  0  0  0
  7 37  1  0  0  0  0
  8  9  1  0  0  0  0
  8 27  1  0  0  0  0
  9 14  1  0  0  0  0
  9 10  2  0  0  0  0
 10 11  1  0  0  0  0
 11 12  2  0  0  0  0
 11 38  1  0  0  0  0
 12 13  1  0  0  0  0
 13 17  1  0  0  0  0
 13 14  2  0  0  0  0
 14 15  1  0  0  0  0
 15 16  2  0  0  0  0
 16 17  1  0  0  0  0
 16 39  1  0  0  0  0
 17 18  1  0  0  0  0
 18 19  1  0  0  0  0
 18 40  1  0  0  0  0
 18 41  1  0  0  0  0
 19 20  1  0  0  0  0
 19 22  1  0  0  0  0
 19 42  1  0  0  0  0
 20 21  1  0  0  0  0
 20 43  1  0  0  0  0
 20 44  1  0  0  0  0
 21 45  1  0  0  0  0
 22 26  1  0  0  0  0
 22 23  1  0  0  0  0
 22 46  1  0  0  0  0
 23 24  1  0  0  0  0
 23 47  1  0  0  0  0
 23 48  1  0  0  0  0
 24 25  1  0  0  0  0
 24 49  1  0  0  0  0
 24 50  1  0  0  0  0
 25 26  1  0  0  0  0
 26 51  1  0  0  0  0
 26 52  1  0  0  0  0
 27 53  1  0  0  0  0
 27 54  1  0  0  0  0
 28 29  1  0  0  0  0
 28 55  1  0  0  0  0
 28 56  1  0  0  0  0
 29 57  1  0  0  0  0
M  END
> <s_m_source_file>
AV-unprocessed.smi

> <i_m_source_file_index>
20

> <i_lp_mmshare_version>
43012

> <i_f3d_flags>
0

> <s_epik_input>
W0NIMl0xW05IXUMoPU8pW0NIMl1bQ0BAXTEyW0NIMl1bQ0gyXVtDSDJdTihbQ0gyXTIpYyhuW2NIXW4zKWMoYzM0KW5bY0hdbjRbQ0gyXVtDQEhdKFtDSDJdW09IXSlbQ0BASF01W0NIMl1bQ0gyXU9bQ0gyXTU=

> <s_epik_cmdline>
J2VwaWtfcHl0aG9uJywgJy1waCcsICc3LjAnLCAnLXRuJywgJzgnLCAnLW1hJywgJzIwMCcsICctbWV0YWxfYmluZGluZycsICctaW1hZScsICc8aW5maWxlLm1hZT4nLCAnLW9tYWUnLCAnPG91dGZpbGUubWFlPic=

> <r_lp_tautomer_probability>
1

> <r_epik_Ionization_Penalty>
0.0019697

> <r_epik_Ionization_Penalty_Charging>
0

> <r_epik_Ionization_Penalty_Neutral>
0.0019697

> <r_epik_State_Penalty>
0.00113613

> <r_epik_Charging_Adjusted_Penalty>
0.00113613

> <i_epik_Tot_Q>
0

> <i_epik_Tot_abs_Q>
0

> <r_epik_Metal_State_Penalty>
-0

> <b_epik_Metal_Only>
0

> <s_lp_Force_Field>
OPLS_2005

> <r_lp_Energy>
59.1367

> <b_lp_Chiralities_Consistent>
1

> <s_lp_Variant>
AV-unprocessed.smi:20-6

> <Gold.Version>
5.8.1

> <Gold.Id.Protein>
6NUR|6NUR_protein|mol2

> <Gold.PLP.Fitness>
50.1285

> <Gold.PLP.PLP>
-40.1722

> <Gold.PLP.part.hbond>
-4.3576

> <Gold.PLP.part.metal>
0.0000

> <Gold.PLP.part.buried>
-2.0712

> <Gold.PLP.part.nonpolar>
-34.6081

> <Gold.PLP.part.repulsive>
2.8587

> <Gold.PLP.ligand.clash>
0.0000

> <Gold.PLP.ligand.torsion>
1.1266

> <Gold.PLP.Chemscore.Hbond>
3.9360

> <Gold.PLP.Chemscore.CHOScore>
0.0000

> <Gold.PLP.Chemscore.Metal>
0.0000

> <Gold.Chemscore.Hbonds>
donor molecule, donor type, donor heavy atom, donor atom, acceptor molecule, acceptor atom, score
      L1  H    21    45       P1  7957  0.99
      L1  H    29    57       P1 10186  1.00
      P1  H  7918  7932       L1     1  0.19
      P1  H  7989  7998       L1    21  0.95
      P1  H  7997  8010       L1    25  0.90

> <Gold.PLP.Chemscore.Internal.Correction>
0.4015

> <Gold.Rescore>
     Score         DG    S(hbond)    S(metal)    S(lipo)     H(rot)  DE(clash)    DE(int)     intcor
     13.70     -21.85       3.31        0.00      98.68       2.43       3.51       4.64       ----

> <Gold.Chemscore.Fitness>
13.7010

> <Gold.Chemscore.DG>
-21.8450

> <Gold.Chemscore.ZeroCoef>
-5.4800

> <Gold.Chemscore.Hbond>
3.3061

> <Gold.Chemscore.Metal>
0.0000

> <Gold.Chemscore.Lipo>
98.6814

> <Gold.Chemscore.Internal_Hbond>
0.0000

> <Gold.Chemscore.DEClash>
3.5090

> <Gold.Chemscore.DEInternal>
4.6350

> <Gold.Chemscore.Rot>
2.4309

> <Gold.Chemscore.Internal.Correction>
   9.000000E+99

> <Gold.Chemscore.Hbonds>
donor molecule, donor type, donor heavy atom, donor atom, acceptor molecule, acceptor atom, score
      L1  H    21    45       P1  7957  0.86
      L1  H    29    57       P1 10186  0.92
      P1  H  7918  7932       L1     1  0.20
      P1  H  7989  7998       L1    21  0.19
      P1  H  7997  8010       L1    25  0.18

> <Gold.Chemscore.Hbond.Weighted>
-11.0424

> <Gold.Chemscore.Metal.Weighted>
-0.0000

> <Gold.Chemscore.Lipo.Weighted>
-11.5457

> <Gold.Chemscore.Internal_Hbond.Weighted>
0.0000

> <Gold.Chemscore.DEClash.Weighted>
3.5090

> <Gold.Chemscore.DEInternal.Weighted>
4.6350

> <Gold.Chemscore.Rot.Weighted>
6.2231

> <Gold.Chemscore.Internal.Correction.Weighted>
   9.000000E+99

> <Gold.Protein.RotatedTorsions>
[ 6907 6896 6895 6894 ] final   80.13 input  -60.11 | X-H torsion
[ 7974 7965 7964 7962 ] final  111.29 input  175.53 | X-H torsion
[ 8008 7997 7996 7995 ] final   27.23 input   59.86 | X-H torsion
[ 10167 10162 10161 10158 ] final -109.64 input  -65.29 | X-H torsion
[ 10718 10713 10712 10709 ] final   97.95 input   66.30 | X-H torsion
[ 10763 10752 10751 10750 ] final  -91.67 input  -60.55 | X-H torsion
[ 11005 11000 10999 10996 ] final -156.60 input  -57.11 | X-H torsion

> <Gold.Protein.ActiveResidues>
 VAL166  LYS551  ARG553  GLY616  TRP617  ASP618  TYR619  PRO620  LYS621  CYS622 
 ASP623  PHE694  ASN695  SER759  ASP760  ASP761  ALA762  ILE779  LEU786  VAL792 
 PHE793  MET794  SER795  GLU796  ALA797  LYS798  CYS799  TRP800  GLU811  SER814 

> <Gold.Protein.RotatedAtoms>
  152.5224  134.3404  159.9214 H   0  0  0  0  0  0  0  0  0  0  0  0  # atno 6907 bound_to 6896
  151.3354  133.3977  159.2674 H   0  0  0  0  0  0  0  0  0  0  0  0  # atno 6908 bound_to 6896
  150.9846  134.9212  159.7922 H   0  0  0  0  0  0  0  0  0  0  0  0  # atno 6909 bound_to 6896
  145.2442  139.2766  143.4102 H   0  0  0  0  0  0  0  0  0  0  0  0  # atno 7974 bound_to 7965
  155.0397  140.3168  155.4729 H   0  0  0  0  0  0  0  0  0  0  0  0  # atno 8008 bound_to 7997
  156.2857  140.2165  156.5464 H   0  0  0  0  0  0  0  0  0  0  0  0  # atno 8009 bound_to 7997
  154.7300  140.0482  157.0705 H   0  0  0  0  0  0  0  0  0  0  0  0  # atno 8010 bound_to 7997
  140.1531  143.4182  152.1480 H   0  0  0  0  0  0  0  0  0  0  0  0  # atno 10167 bound_to 10162
  157.6904  131.0625  150.4722 H   0  0  0  0  0  0  0  0  0  0  0  0  # atno 10718 bound_to 10713
  154.6783  135.5259  153.8229 H   0  0  0  0  0  0  0  0  0  0  0  0  # atno 10763 bound_to 10752
  153.0547  135.6546  154.0615 H   0  0  0  0  0  0  0  0  0  0  0  0  # atno 10764 bound_to 10752
  154.0506  135.2969  155.3321 H   0  0  0  0  0  0  0  0  0  0  0  0  # atno 10765 bound_to 10752
  140.6738  134.4218  157.5230 H   0  0  0  0  0  0  0  0  0  0  0  0  # atno 11005 bound_to 11000
  146.3320  140.2813  142.8610 LP  0  0  0  0  0  0  0  0  0  0  0  0  # atno 17320 bound_to 7965
  144.9562  140.8228  143.5542 LP  0  0  0  0  0  0  0  0  0  0  0  0  # atno 17321 bound_to 7965
  139.5416  144.7262  151.4715 LP  0  0  0  0  0  0  0  0  0  0  0  0  # atno 17342 bound_to 10162
  140.6690  143.8335  150.6976 LP  0  0  0  0  0  0  0  0  0  0  0  0  # atno 17343 bound_to 10162
  156.5059  130.4128  149.6327 LP  0  0  0  0  0  0  0  0  0  0  0  0  # atno 17370 bound_to 10713
  156.3285  130.7319  151.2244 LP  0  0  0  0  0  0  0  0  0  0  0  0  # atno 17371 bound_to 10713
  139.8973  134.8640  156.2050 LP  0  0  0  0  0  0  0  0  0  0  0  0  # atno 17394 bound_to 11000
  141.0371  133.6957  156.1532 LP  0  0  0  0  0  0  0  0  0  0  0  0  # atno 17395 bound_to 11000

$$$$
