AV-unprocessed.smi:3353|AV-procd|sdf|12953|dock3
  -GOLD-   2272019393D 1   1.00000     0.00000
 Structure written by MMmdl.
 43 44  0  0  0  0  0  0  0  0  2 V2000
  154.0033  141.5643  160.6932 C   0  0  0  0  0  0  0  0  0  0  0  0
  152.9052  142.5263  161.1615 C   0  0  0  0  0  0  0  0  0  0  0  0
  152.1502  143.0595  160.0447 N   0  0  0  0  0  0  0  0  0  0  0  0
  151.3782  142.3703  159.1305 C   0  0  0  0  0  0  0  0  0  0  0  0
  150.8870  143.3157  158.2750 C   0  0  0  0  0  0  0  0  0  0  0  0
  150.0406  143.1570  157.1487 N   0  0  0  0  0  0  0  0  0  0  0  0
  150.0237  142.1325  156.2805 C   0  0  0  0  0  0  0  0  0  0  0  0
  150.7523  141.1415  156.3375 O   0  0  0  0  0  0  0  0  0  0  0  0
  149.1052  142.3181  155.3218 N   0  0  0  0  0  0  0  0  0  0  0  0
  148.8412  141.3844  154.2311 C   0  0  0  0  0  0  0  0  0  0  0  0
  147.4482  141.5908  153.5804 C   0  0  2  0  0  0  0  0  0  0  0  0
  146.4233  142.0864  154.6254 C   0  0  0  0  0  0  0  0  0  0  0  0
  146.9879  140.3365  152.9175 N   0  3  0  0  0  0  0  0  0  0  0  0
  147.7554  139.9191  151.7238 C   0  0  0  0  0  0  0  0  0  0  0  0
  147.4421  138.4378  151.5504 C   0  0  0  0  0  0  0  0  0  0  0  0
  147.3674  137.9335  152.9866 C   0  0  0  0  0  0  0  0  0  0  0  0
  146.9077  139.1478  153.8052 C   0  0  0  0  0  0  0  0  0  0  0  0
  151.4025  144.5565  158.7322 C   0  0  0  0  0  0  0  0  0  0  0  0
  152.1662  144.3934  159.8018 N   0  0  0  0  0  0  0  0  0  0  0  0
  154.5563  141.1642  161.5430 H   0  0  0  0  0  0  0  0  0  0  0  0
  154.7163  142.0670  160.0389 H   0  0  0  0  0  0  0  0  0  0  0  0
  153.5802  140.7223  160.1445 H   0  0  0  0  0  0  0  0  0  0  0  0
  152.2165  142.0138  161.8341 H   0  0  0  0  0  0  0  0  0  0  0  0
  153.3393  143.3549  161.7229 H   0  0  0  0  0  0  0  0  0  0  0  0
  151.2582  141.2981  159.1750 H   0  0  0  0  0  0  0  0  0  0  0  0
  149.3831  143.9055  156.9855 H   0  0  0  0  0  0  0  0  0  0  0  0
  148.5473  143.1594  155.3507 H   0  0  0  0  0  0  0  0  0  0  0  0
  149.6438  141.4808  153.4991 H   0  0  0  0  0  0  0  0  0  0  0  0
  148.9168  140.3726  154.6307 H   0  0  0  0  0  0  0  0  0  0  0  0
  147.5296  142.3560  152.8068 H   0  0  0  0  0  0  0  0  0  0  0  0
  146.7597  142.9987  155.1178 H   0  0  0  0  0  0  0  0  0  0  0  0
  146.2538  141.3374  155.3995 H   0  0  0  0  0  0  0  0  0  0  0  0
  145.4607  142.3251  154.1736 H   0  0  0  0  0  0  0  0  0  0  0  0
  147.4852  140.4985  150.8402 H   0  0  0  0  0  0  0  0  0  0  0  0
  148.8236  140.0497  151.9064 H   0  0  0  0  0  0  0  0  0  0  0  0
  146.4732  138.3177  151.0633 H   0  0  0  0  0  0  0  0  0  0  0  0
  148.1883  137.9123  150.9532 H   0  0  0  0  0  0  0  0  0  0  0  0
  146.6996  137.0777  153.0928 H   0  0  0  0  0  0  0  0  0  0  0  0
  148.3589  137.6221  153.3182 H   0  0  0  0  0  0  0  0  0  0  0  0
  147.5435  139.2573  154.6855 H   0  0  0  0  0  0  0  0  0  0  0  0
  145.8804  139.0272  154.1508 H   0  0  0  0  0  0  0  0  0  0  0  0
  151.2533  145.5487  158.3323 H   0  0  0  0  0  0  0  0  0  0  0  0
  146.0467  140.5026  152.5904 H   0  0  0  0  0  0  0  0  0  0  0  0
  1  2  1  0  0  0  0
  1 20  1  0  0  0  0
  1 21  1  0  0  0  0
  1 22  1  0  0  0  0
  2  3  1  0  0  0  0
  2 23  1  0  0  0  0
  2 24  1  0  0  0  0
  3 19  1  0  0  0  0
  3  4  1  0  0  0  0
  4  5  2  0  0  0  0
  4 25  1  0  0  0  0
  5  6  1  0  0  0  0
  5 18  1  0  0  0  0
  6  7  1  0  0  0  0
  6 26  1  0  0  0  0
  7  8  2  0  0  0  0
  7  9  1  0  0  0  0
  9 10  1  0  0  0  0
  9 27  1  0  0  0  0
 10 11  1  0  0  0  0
 10 28  1  0  0  0  0
 10 29  1  0  0  0  0
 11 12  1  0  0  0  0
 11 13  1  0  0  0  0
 11 30  1  0  0  0  0
 12 31  1  0  0  0  0
 12 32  1  0  0  0  0
 12 33  1  0  0  0  0
 13 17  1  0  0  0  0
 13 14  1  0  0  0  0
 13 43  1  0  0  0  0
 14 15  1  0  0  0  0
 14 34  1  0  0  0  0
 14 35  1  0  0  0  0
 15 16  1  0  0  0  0
 15 36  1  0  0  0  0
 15 37  1  0  0  0  0
 16 17  1  0  0  0  0
 16 38  1  0  0  0  0
 16 39  1  0  0  0  0
 17 40  1  0  0  0  0
 17 41  1  0  0  0  0
 18 19  2  0  0  0  0
 18 42  1  0  0  0  0
M  CHG  1  13   1
M  END
> <s_m_source_file>
AV-unprocessed.smi

> <i_m_source_file_index>
3353

> <i_lp_mmshare_version>
43012

> <i_f3d_flags>
0

> <s_epik_input>
W0NIM11bQ0gyXW4xW2NIXWMoW2NIXW4xKVtOSF1DKD1PKVtOSF1bQ0gyXVtDQEhdKFtDSDNdKU4yW0NIMl1bQ0gyXVtDSDJdW0NIMl0y

> <s_epik_cmdline>
J2VwaWtfcHl0aG9uJywgJy1waCcsICc3LjAnLCAnLXRuJywgJzgnLCAnLW1hJywgJzIwMCcsICctbWV0YWxfYmluZGluZycsICctaW1hZScsICc8aW5maWxlLm1hZT4nLCAnLW9tYWUnLCAnPG91dGZpbGUubWFlPic=

> <r_lp_tautomer_probability>
1

> <r_epik_Ionization_Penalty>
0.000914091

> <r_epik_Ionization_Penalty_Charging>
0.000761583

> <r_epik_Ionization_Penalty_Neutral>
0.000152508

> <r_epik_State_Penalty>
0.000487427

> <r_epik_Charging_Adjusted_Penalty>
0.00124901

> <i_epik_Tot_Q>
1

> <i_epik_Tot_abs_Q>
1

> <r_epik_Metal_State_Penalty>
-0

> <b_epik_Metal_Only>
0

> <s_lp_Force_Field>
OPLS_2005

> <r_lp_Energy>
33.6396

> <b_lp_Chiralities_Consistent>
1

> <s_lp_Variant>
AV-unprocessed.smi:3353-1

> <Gold.Version>
5.8.1

> <Gold.Id.Protein>
6NUR|6NUR_protein|mol2

> <Gold.PLP.Fitness>
53.9000

> <Gold.PLP.PLP>
-43.3357

> <Gold.PLP.part.hbond>
-3.0000

> <Gold.PLP.part.metal>
0.0000

> <Gold.PLP.part.buried>
-2.2165

> <Gold.PLP.part.nonpolar>
-39.3431

> <Gold.PLP.part.repulsive>
0.2815

> <Gold.PLP.ligand.clash>
0.0000

> <Gold.PLP.ligand.torsion>
0.7482

> <Gold.PLP.Chemscore.Hbond>
4.0000

> <Gold.PLP.Chemscore.CHOScore>
0.0000

> <Gold.PLP.Chemscore.Metal>
0.0000

> <Gold.Chemscore.Hbonds>
donor molecule, donor type, donor heavy atom, donor atom, acceptor molecule, acceptor atom, score
      L1  H     6    26       P1  8028  0.72
      L1  H     9    27       P1  8028  0.70
      L1  H    13    43       P1 10175  0.36

> <Gold.PLP.Chemscore.Internal.Correction>
0.0607

> <Gold.Rescore>
     Score         DG    S(hbond)    S(metal)    S(lipo)     H(rot)  DE(clash)    DE(int)     intcor
     19.95     -21.27       2.77        0.00      91.05       1.61       0.09       1.23       ----

> <Gold.Chemscore.Fitness>
19.9518

> <Gold.Chemscore.DG>
-21.2739

> <Gold.Chemscore.ZeroCoef>
-5.4800

> <Gold.Chemscore.Hbond>
2.7745

> <Gold.Chemscore.Metal>
0.0000

> <Gold.Chemscore.Lipo>
91.0527

> <Gold.Chemscore.Internal_Hbond>
0.0000

> <Gold.Chemscore.DEClash>
0.0940

> <Gold.Chemscore.DEInternal>
1.2281

> <Gold.Chemscore.Rot>
1.6117

> <Gold.Chemscore.Internal.Correction>
   9.000000E+99

> <Gold.Chemscore.Hbonds>
donor molecule, donor type, donor heavy atom, donor atom, acceptor molecule, acceptor atom, score
      L1  H     6    26       P1  8028  0.47
      L1  H     9    27       P1  8028  0.69
      L1  H    13    43       P1 10175  0.11

> <Gold.Chemscore.Hbond.Weighted>
-9.2668

> <Gold.Chemscore.Metal.Weighted>
-0.0000

> <Gold.Chemscore.Lipo.Weighted>
-10.6532

> <Gold.Chemscore.Internal_Hbond.Weighted>
0.0000

> <Gold.Chemscore.DEClash.Weighted>
0.0940

> <Gold.Chemscore.DEInternal.Weighted>
1.2281

> <Gold.Chemscore.Rot.Weighted>
4.1260

> <Gold.Chemscore.Internal.Correction.Weighted>
   9.000000E+99

> <Gold.Protein.RotatedTorsions>
[ 6907 6896 6895 6894 ] final -129.58 input  -60.11 | X-H torsion
[ 7974 7965 7964 7962 ] final -132.60 input  175.53 | X-H torsion
[ 8008 7997 7996 7995 ] final   73.76 input   59.86 | X-H torsion
[ 10167 10162 10161 10158 ] final -137.07 input  -65.29 | X-H torsion
[ 10718 10713 10712 10709 ] final   70.50 input   66.30 | X-H torsion
[ 10763 10752 10751 10750 ] final -101.39 input  -60.55 | X-H torsion
[ 11005 11000 10999 10996 ] final   83.08 input  -57.11 | X-H torsion

> <Gold.Protein.ActiveResidues>
 VAL166  LYS551  ARG553  GLY616  TRP617  ASP618  TYR619  PRO620  LYS621  CYS622 
 ASP623  PHE694  ASN695  SER759  ASP760  ASP761  ALA762  ILE779  LEU786  VAL792 
 PHE793  MET794  SER795  GLU796  ALA797  LYS798  CYS799  TRP800  GLU811  SER814 

> <Gold.Protein.RotatedAtoms>
  150.9303  133.6775  159.2812 H   0  0  0  0  0  0  0  0  0  0  0  0  # atno 6907 bound_to 6896
  151.4199  135.0995  159.9620 H   0  0  0  0  0  0  0  0  0  0  0  0  # atno 6908 bound_to 6896
  152.5022  133.8757  159.7376 H   0  0  0  0  0  0  0  0  0  0  0  0  # atno 6909 bound_to 6896
  144.9270  140.7083  143.4930 H   0  0  0  0  0  0  0  0  0  0  0  0  # atno 7974 bound_to 7965
  155.7884  140.3480  155.5335 H   0  0  0  0  0  0  0  0  0  0  0  0  # atno 8008 bound_to 7997
  155.8659  140.0978  157.1603 H   0  0  0  0  0  0  0  0  0  0  0  0  # atno 8009 bound_to 7997
  154.4014  140.1349  156.4005 H   0  0  0  0  0  0  0  0  0  0  0  0  # atno 8010 bound_to 7997
  139.8614  143.7072  152.2649 H   0  0  0  0  0  0  0  0  0  0  0  0  # atno 10167 bound_to 10162
  157.6403  130.9480  150.0659 H   0  0  0  0  0  0  0  0  0  0  0  0  # atno 10718 bound_to 10713
  154.7654  135.4900  153.9543 H   0  0  0  0  0  0  0  0  0  0  0  0  # atno 10763 bound_to 10752
  153.1301  135.6751  153.9200 H   0  0  0  0  0  0  0  0  0  0  0  0  # atno 10764 bound_to 10752
  153.8906  135.3121  155.3426 H   0  0  0  0  0  0  0  0  0  0  0  0  # atno 10765 bound_to 10752
  139.9042  134.8118  156.2261 H   0  0  0  0  0  0  0  0  0  0  0  0  # atno 11005 bound_to 11000
  145.3203  139.1790  143.4591 LP  0  0  0  0  0  0  0  0  0  0  0  0  # atno 17320 bound_to 7965
  146.3230  140.3220  142.8634 LP  0  0  0  0  0  0  0  0  0  0  0  0  # atno 17321 bound_to 7965
  139.7370  144.7569  151.0712 LP  0  0  0  0  0  0  0  0  0  0  0  0  # atno 17342 bound_to 10162
  140.7774  143.5018  150.9761 LP  0  0  0  0  0  0  0  0  0  0  0  0  # atno 17343 bound_to 10162
  156.1677  130.3645  149.9208 LP  0  0  0  0  0  0  0  0  0  0  0  0  # atno 17370 bound_to 10713
  156.7191  130.9000  151.3616 LP  0  0  0  0  0  0  0  0  0  0  0  0  # atno 17371 bound_to 10713
  141.0375  133.6955  156.1538 LP  0  0  0  0  0  0  0  0  0  0  0  0  # atno 17394 bound_to 11000
  140.7005  134.4569  157.5586 LP  0  0  0  0  0  0  0  0  0  0  0  0  # atno 17395 bound_to 11000

$$$$
