AV-unprocessed.smi:1218|AV-procd|sdf|5110|dock8
  -GOLD-   22720 4163D 1   1.00000     0.00000
 Structure written by MMmdl.
 44 45  0  0  0  0  0  0  0  0  1 V2000
  152.4233  144.4816  159.4582 C   0  0  0  0  0  0  0  0  0  0  0  0
  151.6255  143.7123  158.3936 C   0  0  0  0  0  0  0  0  0  0  0  0
  150.1229  143.7801  158.7168 C   0  0  0  0  0  0  0  0  0  0  0  0
  152.1236  142.2525  158.2750 C   0  0  0  0  0  0  0  0  0  0  0  0
  151.3299  141.3826  157.4059 N   0  0  0  0  0  0  0  0  0  0  0  0
  150.8156  142.1235  156.2590 C   0  0  0  0  0  0  0  0  0  0  0  0
  149.9798  141.2332  155.3256 C   0  0  0  0  0  0  0  0  0  0  0  0
  150.7652  140.1237  154.9059 O   0  0  0  0  0  0  0  0  0  0  0  0
  151.2353  139.3304  155.9931 C   0  0  1  0  0  0  0  0  0  0  0  0
  152.0533  138.1522  155.4380 C   0  0  0  0  0  0  0  0  0  0  0  0
  153.1850  138.6128  154.6401 N   0  0  0  0  0  0  0  0  0  0  0  0
  154.4630  138.2453  154.8185 C   0  0  0  0  0  0  0  0  0  0  0  0
  154.8203  137.4480  155.6872 O   0  0  0  0  0  0  0  0  0  0  0  0
  155.4763  138.8881  153.8625 C   0  0  0  0  0  0  0  0  0  0  0  0
  156.3653  137.9192  153.2412 N   0  0  0  0  0  0  0  0  0  0  0  0
  157.7402  137.9615  153.1364 C   0  0  0  0  0  0  0  0  0  0  0  0
  158.1326  136.8351  152.4719 C   0  0  0  0  0  0  0  0  0  0  0  0
  156.9107  136.1548  152.2098 C   0  0  0  0  0  0  0  0  0  0  0  0
  155.8551  136.8043  152.6734 N   0  0  0  0  0  0  0  0  0  0  0  0
  152.0786  140.2241  156.9249 C   0  0  0  0  0  0  0  0  0  0  0  0
  152.3136  144.0262  160.4431 H   0  0  0  0  0  0  0  0  0  0  0  0
  152.0880  145.5167  159.5305 H   0  0  0  0  0  0  0  0  0  0  0  0
  153.4863  144.4998  159.2154 H   0  0  0  0  0  0  0  0  0  0  0  0
  151.7954  144.2226  157.4444 H   0  0  0  0  0  0  0  0  0  0  0  0
  149.9068  143.3272  159.6848 H   0  0  0  0  0  0  0  0  0  0  0  0
  149.5225  143.2613  157.9708 H   0  0  0  0  0  0  0  0  0  0  0  0
  149.7764  144.8135  158.7509 H   0  0  0  0  0  0  0  0  0  0  0  0
  153.1399  142.2763  157.8790 H   0  0  0  0  0  0  0  0  0  0  0  0
  152.2177  141.8067  159.2666 H   0  0  0  0  0  0  0  0  0  0  0  0
  150.2037  142.9588  156.6011 H   0  0  0  0  0  0  0  0  0  0  0  0
  151.6447  142.5543  155.6953 H   0  0  0  0  0  0  0  0  0  0  0  0
  149.0772  140.8821  155.8280 H   0  0  0  0  0  0  0  0  0  0  0  0
  149.6611  141.7962  154.4484 H   0  0  0  0  0  0  0  0  0  0  0  0
  150.3794  138.9403  156.5475 H   0  0  0  0  0  0  0  0  0  0  0  0
  152.3812  137.4956  156.2457 H   0  0  0  0  0  0  0  0  0  0  0  0
  151.4234  137.5452  154.7872 H   0  0  0  0  0  0  0  0  0  0  0  0
  152.9821  139.2740  153.9043 H   0  0  0  0  0  0  0  0  0  0  0  0
  154.9449  139.4209  153.0731 H   0  0  0  0  0  0  0  0  0  0  0  0
  156.0690  139.6257  154.4059 H   0  0  0  0  0  0  0  0  0  0  0  0
  158.3167  138.7823  153.5364 H   0  0  0  0  0  0  0  0  0  0  0  0
  159.1387  136.5423  152.2116 H   0  0  0  0  0  0  0  0  0  0  0  0
  156.7609  135.2145  151.7003 H   0  0  0  0  0  0  0  0  0  0  0  0
  152.9753  140.5562  156.3993 H   0  0  0  0  0  0  0  0  0  0  0  0
  152.4127  139.6213  157.7686 H   0  0  0  0  0  0  0  0  0  0  0  0
  1  2  1  0  0  0  0
  1 21  1  0  0  0  0
  1 22  1  0  0  0  0
  1 23  1  0  0  0  0
  2  3  1  0  0  0  0
  2  4  1  0  0  0  0
  2 24  1  0  0  0  0
  3 25  1  0  0  0  0
  3 26  1  0  0  0  0
  3 27  1  0  0  0  0
  4  5  1  0  0  0  0
  4 28  1  0  0  0  0
  4 29  1  0  0  0  0
  5 20  1  0  0  0  0
  5  6  1  0  0  0  0
  6  7  1  0  0  0  0
  6 30  1  0  0  0  0
  6 31  1  0  0  0  0
  7  8  1  0  0  0  0
  7 32  1  0  0  0  0
  7 33  1  0  0  0  0
  8  9  1  0  0  0  0
  9 10  1  0  0  0  0
  9 20  1  0  0  0  0
  9 34  1  0  0  0  0
 10 11  1  0  0  0  0
 10 35  1  0  0  0  0
 10 36  1  0  0  0  0
 11 12  1  0  0  0  0
 11 37  1  0  0  0  0
 12 13  2  0  0  0  0
 12 14  1  0  0  0  0
 14 15  1  0  0  0  0
 14 38  1  0  0  0  0
 14 39  1  0  0  0  0
 15 19  1  0  0  0  0
 15 16  1  0  0  0  0
 16 17  2  0  0  0  0
 16 40  1  0  0  0  0
 17 18  1  0  0  0  0
 17 41  1  0  0  0  0
 18 19  2  0  0  0  0
 18 42  1  0  0  0  0
 20 43  1  0  0  0  0
 20 44  1  0  0  0  0
M  END
> <s_m_source_file>
AV-unprocessed.smi

> <i_m_source_file_index>
1218

> <i_lp_mmshare_version>
43012

> <i_f3d_flags>
0

> <s_epik_input>
W0NIM11bQ0hdKFtDSDNdKVtDSDJdTjFbQ0gyXVtDSDJdT1tDQEhdKFtDSDJdMSlbQ0gyXVtOSF1DKD1PKVtDSDJdbjJbY0hdW2NIXVtjSF1uMg==

> <s_epik_cmdline>
J2VwaWtfcHl0aG9uJywgJy1waCcsICc3LjAnLCAnLXRuJywgJzgnLCAnLW1hJywgJzIwMCcsICctbWV0YWxfYmluZGluZycsICctaW1hZScsICc8aW5maWxlLm1hZT4nLCAnLW9tYWUnLCAnPG91dGZpbGUubWFlPic=

> <r_lp_tautomer_probability>
1

> <r_epik_Ionization_Penalty>
1.10621

> <r_epik_Ionization_Penalty_Charging>
0

> <r_epik_Ionization_Penalty_Neutral>
1.10621

> <r_epik_State_Penalty>
1.16377

> <r_epik_Charging_Adjusted_Penalty>
1.16377

> <i_epik_Tot_Q>
0

> <i_epik_Tot_abs_Q>
0

> <r_epik_Metal_State_Penalty>
1.16377

> <b_epik_Metal_Only>
0

> <s_lp_Force_Field>
OPLS_2005

> <r_lp_Energy>
27.1639

> <b_lp_Chiralities_Consistent>
1

> <s_lp_Variant>
AV-unprocessed.smi:1218-5

> <Gold.Version>
5.8.1

> <Gold.Id.Protein>
6NUR|6NUR_protein|mol2

> <Gold.PLP.Fitness>
42.2260

> <Gold.PLP.PLP>
-36.6910

> <Gold.PLP.part.hbond>
-3.6496

> <Gold.PLP.part.metal>
0.0000

> <Gold.PLP.part.buried>
1.0453

> <Gold.PLP.part.nonpolar>
-35.1421

> <Gold.PLP.part.repulsive>
0.3864

> <Gold.PLP.ligand.clash>
0.0000

> <Gold.PLP.ligand.torsion>
0.5262

> <Gold.PLP.Chemscore.Hbond>
2.1498

> <Gold.PLP.Chemscore.CHOScore>
0.0000

> <Gold.PLP.Chemscore.Metal>
0.0000

> <Gold.Chemscore.Hbonds>
donor molecule, donor type, donor heavy atom, donor atom, acceptor molecule, acceptor atom, score
      P1  H  7989  7998       L1     8  1.00
      P1  H 10752 10764       L1    13  0.14
      P1  H 10752 10765       L1    19  1.00

> <Gold.PLP.Chemscore.Internal.Correction>
0.1381

> <Gold.Rescore>
     Score         DG    S(hbond)    S(metal)    S(lipo)     H(rot)  DE(clash)    DE(int)     intcor
     17.16     -20.09       1.48        0.00     124.23       1.90       2.38       0.54       ----

> <Gold.Chemscore.Fitness>
17.1648

> <Gold.Chemscore.DG>
-20.0860

> <Gold.Chemscore.ZeroCoef>
-5.4800

> <Gold.Chemscore.Hbond>
1.4754

> <Gold.Chemscore.Metal>
0.0000

> <Gold.Chemscore.Lipo>
124.2269

> <Gold.Chemscore.Internal_Hbond>
0.0000

> <Gold.Chemscore.DEClash>
2.3780

> <Gold.Chemscore.DEInternal>
0.5432

> <Gold.Chemscore.Rot>
1.8970

> <Gold.Chemscore.Internal.Correction>
   9.000000E+99

> <Gold.Chemscore.Hbonds>
donor molecule, donor type, donor heavy atom, donor atom, acceptor molecule, acceptor atom, score
      P1  H  7989  7998       L1     8  0.26
      P1  H 10752 10764       L1    13  0.13
      P1  H 10752 10765       L1    19  0.84

> <Gold.Chemscore.Hbond.Weighted>
-4.9279

> <Gold.Chemscore.Metal.Weighted>
-0.0000

> <Gold.Chemscore.Lipo.Weighted>
-14.5345

> <Gold.Chemscore.Internal_Hbond.Weighted>
0.0000

> <Gold.Chemscore.DEClash.Weighted>
2.3780

> <Gold.Chemscore.DEInternal.Weighted>
0.5432

> <Gold.Chemscore.Rot.Weighted>
4.8564

> <Gold.Chemscore.Internal.Correction.Weighted>
   9.000000E+99

> <Gold.Protein.RotatedTorsions>
[ 6907 6896 6895 6894 ] final -115.32 input  -60.11 | X-H torsion
[ 7974 7965 7964 7962 ] final  166.64 input  175.53 | X-H torsion
[ 8008 7997 7996 7995 ] final  169.76 input   59.86 | X-H torsion
[ 10167 10162 10161 10158 ] final -160.69 input  -65.29 | X-H torsion
[ 10718 10713 10712 10709 ] final  -49.99 input   66.30 | X-H torsion
[ 10763 10752 10751 10750 ] final   49.58 input  -60.55 | X-H torsion
[ 11005 11000 10999 10996 ] final  -24.45 input  -57.11 | X-H torsion

> <Gold.Protein.ActiveResidues>
 VAL166  LYS551  ARG553  GLY616  TRP617  ASP618  TYR619  PRO620  LYS621  CYS622 
 ASP623  PHE694  ASN695  SER759  ASP760  ASP761  ALA762  ILE779  LEU786  VAL792 
 PHE793  MET794  SER795  GLU796  ALA797  LYS798  CYS799  TRP800  GLU811  SER814 

> <Gold.Protein.RotatedAtoms>
  150.7968  133.8676  159.3249 H   0  0  0  0  0  0  0  0  0  0  0  0  # atno 6907 bound_to 6896
  151.6499  135.1001  160.0168 H   0  0  0  0  0  0  0  0  0  0  0  0  # atno 6908 bound_to 6896
  152.4051  133.6838  159.6385 H   0  0  0  0  0  0  0  0  0  0  0  0  # atno 6909 bound_to 6896
  144.7454  139.8645  143.6383 H   0  0  0  0  0  0  0  0  0  0  0  0  # atno 7974 bound_to 7965
  156.1428  140.1556  156.8894 H   0  0  0  0  0  0  0  0  0  0  0  0  # atno 8008 bound_to 7997
  154.5002  140.0827  156.7820 H   0  0  0  0  0  0  0  0  0  0  0  0  # atno 8009 bound_to 7997
  155.4046  140.3416  155.4261 H   0  0  0  0  0  0  0  0  0  0  0  0  # atno 8010 bound_to 7997
  139.6521  144.0065  152.2168 H   0  0  0  0  0  0  0  0  0  0  0  0  # atno 10167 bound_to 10162
  156.1842  130.4151  149.9463 H   0  0  0  0  0  0  0  0  0  0  0  0  # atno 10718 bound_to 10713
  152.9786  135.5907  154.4113 H   0  0  0  0  0  0  0  0  0  0  0  0  # atno 10763 bound_to 10752
  154.3748  135.2767  155.2247 H   0  0  0  0  0  0  0  0  0  0  0  0  # atno 10764 bound_to 10752
  154.4187  135.6064  153.6051 H   0  0  0  0  0  0  0  0  0  0  0  0  # atno 10765 bound_to 10752
  140.8847  133.7630  156.0345 H   0  0  0  0  0  0  0  0  0  0  0  0  # atno 11005 bound_to 11000
  146.1324  139.4362  143.0160 LP  0  0  0  0  0  0  0  0  0  0  0  0  # atno 17320 bound_to 7965
  145.7142  141.0096  143.1437 LP  0  0  0  0  0  0  0  0  0  0  0  0  # atno 17321 bound_to 7965
  139.9782  144.6447  150.7925 LP  0  0  0  0  0  0  0  0  0  0  0  0  # atno 17342 bound_to 10162
  140.7542  143.3023  151.3049 LP  0  0  0  0  0  0  0  0  0  0  0  0  # atno 17343 bound_to 10162
  156.7224  130.9012  151.3619 LP  0  0  0  0  0  0  0  0  0  0  0  0  # atno 17370 bound_to 10713
  157.6888  130.9212  150.0457 LP  0  0  0  0  0  0  0  0  0  0  0  0  # atno 17371 bound_to 10713
  140.8419  134.3056  157.5310 LP  0  0  0  0  0  0  0  0  0  0  0  0  # atno 17394 bound_to 11000
  139.8723  134.9421  156.3815 LP  0  0  0  0  0  0  0  0  0  0  0  0  # atno 17395 bound_to 11000

$$$$
