AV-unprocessed.smi:183|AV-procd|sdf|1460|dock7
  -GOLD-   2262019273D 1   1.00000     0.00000
 Structure written by MMmdl.
 55 57  0  0  0  0  0  0  0  0  1 V2000
  149.9997  130.4760  163.0796 C   0  0  0  0  0  0  0  0  0  0  0  0
  149.1717  130.7012  161.8195 C   0  0  0  0  0  0  0  0  0  0  0  0
  149.1729  129.8596  160.9210 O   0  0  0  0  0  0  0  0  0  0  0  0
  148.4668  131.8422  161.7667 N   0  0  0  0  0  0  0  0  0  0  0  0
  147.6201  132.2378  160.6487 C   0  0  0  0  0  0  0  0  0  0  0  0
  147.9551  133.6656  160.1699 C   0  0  0  0  0  0  0  0  0  0  0  0
  147.1257  134.7019  160.7926 N   0  0  0  0  0  0  0  0  0  0  0  0
  147.1544  135.8499  160.0702 C   0  0  0  0  0  0  0  0  0  0  0  0
  145.9927  136.5443  159.9718 N   0  0  0  0  0  0  0  0  0  0  0  0
  145.9389  137.6638  159.2450 C   0  0  0  0  0  0  0  0  0  0  0  0
  146.9085  138.2475  158.5387 N   0  0  0  0  0  0  0  0  0  0  0  0
  148.0757  137.5475  158.6251 C   0  0  0  0  0  0  0  0  0  0  0  0
  148.2899  136.3544  159.3718 C   0  0  0  0  0  0  0  0  0  0  0  0
  149.6080  135.9375  159.2251 N   0  0  0  0  0  0  0  0  0  0  0  0
  150.1396  136.8290  158.4351 C   0  0  0  0  0  0  0  0  0  0  0  0
  149.2850  137.8206  158.0103 N   0  0  0  0  0  0  0  0  0  0  0  0
  149.6059  138.9198  157.1141 C   0  0  0  0  0  0  0  0  0  0  0  0
  149.7818  138.4929  155.6297 C   0  0  2  0  0  0  0  0  0  0  0  0
  148.6116  137.8361  155.1809 O   0  0  0  0  0  0  0  0  0  0  0  0
  150.9809  137.5849  155.3825 C   0  0  0  0  0  0  0  0  0  0  0  0
  152.1321  138.5795  155.2679 C   0  0  0  0  0  0  0  0  0  0  0  0
  151.5587  139.7742  154.7444 O   0  0  0  0  0  0  0  0  0  0  0  0
  150.1396  139.6536  154.6818 C   0  0  2  0  0  0  0  0  0  0  0  0
  149.4642  141.0051  154.9580 C   0  0  0  0  0  0  0  0  0  0  0  0
  147.0533  134.8022  162.2600 C   0  0  0  0  0  0  0  0  0  0  0  0
  145.5974  134.7548  162.7624 C   0  0  0  0  0  0  0  0  0  0  0  0
  147.7182  136.0876  162.7996 C   0  0  0  0  0  0  0  0  0  0  0  0
  149.3499  130.3917  163.9511 H   0  0  0  0  0  0  0  0  0  0  0  0
  150.6876  131.3069  163.2387 H   0  0  0  0  0  0  0  0  0  0  0  0
  150.5851  129.5592  162.9997 H   0  0  0  0  0  0  0  0  0  0  0  0
  148.5219  132.4770  162.5502 H   0  0  0  0  0  0  0  0  0  0  0  0
  147.7510  131.5248  159.8346 H   0  0  0  0  0  0  0  0  0  0  0  0
  146.5785  132.1564  160.9582 H   0  0  0  0  0  0  0  0  0  0  0  0
  149.0045  133.8809  160.3784 H   0  0  0  0  0  0  0  0  0  0  0  0
  147.8687  133.7266  159.0854 H   0  0  0  0  0  0  0  0  0  0  0  0
  144.9797  138.1592  159.2201 H   0  0  0  0  0  0  0  0  0  0  0  0
  151.1731  136.7786  158.1246 H   0  0  0  0  0  0  0  0  0  0  0  0
  148.8157  139.6661  157.2041 H   0  0  0  0  0  0  0  0  0  0  0  0
  150.5154  139.3961  157.4819 H   0  0  0  0  0  0  0  0  0  0  0  0
  148.7131  137.6332  154.2638 H   0  0  0  0  0  0  0  0  0  0  0  0
  151.1453  136.8217  156.1420 H   0  0  0  0  0  0  0  0  0  0  0  0
  150.8706  137.0663  154.4284 H   0  0  0  0  0  0  0  0  0  0  0  0
  152.5535  138.7952  156.2503 H   0  0  0  0  0  0  0  0  0  0  0  0
  152.9350  138.2106  154.6293 H   0  0  0  0  0  0  0  0  0  0  0  0
  149.9072  139.3550  153.6576 H   0  0  0  0  0  0  0  0  0  0  0  0
  148.3781  140.9100  154.9426 H   0  0  0  0  0  0  0  0  0  0  0  0
  149.7437  141.7365  154.1997 H   0  0  0  0  0  0  0  0  0  0  0  0
  149.7550  141.4130  155.9260 H   0  0  0  0  0  0  0  0  0  0  0  0
  147.5746  133.9446  162.6854 H   0  0  0  0  0  0  0  0  0  0  0  0
  145.5533  134.8691  163.8457 H   0  0  0  0  0  0  0  0  0  0  0  0
  145.1149  133.8061  162.5292 H   0  0  0  0  0  0  0  0  0  0  0  0
  145.0000  135.5535  162.3214 H   0  0  0  0  0  0  0  0  0  0  0  0
  147.6145  136.1544  163.8828 H   0  0  0  0  0  0  0  0  0  0  0  0
  147.2601  136.9787  162.3694 H   0  0  0  0  0  0  0  0  0  0  0  0
  148.7860  136.1280  162.5877 H   0  0  0  0  0  0  0  0  0  0  0  0
  1  2  1  0  0  0  0
  1 28  1  0  0  0  0
  1 29  1  0  0  0  0
  1 30  1  0  0  0  0
  2  3  2  0  0  0  0
  2  4  1  0  0  0  0
  4  5  1  0  0  0  0
  4 31  1  0  0  0  0
  5  6  1  0  0  0  0
  5 32  1  0  0  0  0
  5 33  1  0  0  0  0
  6  7  1  0  0  0  0
  6 34  1  0  0  0  0
  6 35  1  0  0  0  0
  7  8  1  0  0  0  0
  7 25  1  0  0  0  0
  8 13  1  0  0  0  0
  8  9  2  0  0  0  0
  9 10  1  0  0  0  0
 10 11  2  0  0  0  0
 10 36  1  0  0  0  0
 11 12  1  0  0  0  0
 12 16  1  0  0  0  0
 12 13  2  0  0  0  0
 13 14  1  0  0  0  0
 14 15  2  0  0  0  0
 15 16  1  0  0  0  0
 15 37  1  0  0  0  0
 16 17  1  0  0  0  0
 17 18  1  0  0  0  0
 17 38  1  0  0  0  0
 17 39  1  0  0  0  0
 18 23  1  0  0  0  0
 18 19  1  0  0  0  0
 18 20  1  0  0  0  0
 19 40  1  0  0  0  0
 20 21  1  0  0  0  0
 20 41  1  0  0  0  0
 20 42  1  0  0  0  0
 21 22  1  0  0  0  0
 21 43  1  0  0  0  0
 21 44  1  0  0  0  0
 22 23  1  0  0  0  0
 23 24  1  0  0  0  0
 23 45  1  0  0  0  0
 24 46  1  0  0  0  0
 24 47  1  0  0  0  0
 24 48  1  0  0  0  0
 25 26  1  0  0  0  0
 25 27  1  0  0  0  0
 25 49  1  0  0  0  0
 26 50  1  0  0  0  0
 26 51  1  0  0  0  0
 26 52  1  0  0  0  0
 27 53  1  0  0  0  0
 27 54  1  0  0  0  0
 27 55  1  0  0  0  0
M  END
> <s_m_source_file>
AV-unprocessed.smi

> <i_m_source_file_index>
183

> <i_lp_mmshare_version>
43012

> <i_f3d_flags>
0

> <s_epik_input>
W0NIM11DKD1PKVtOSF1bQ0gyXVtDSDJdTihbQ0hdKFtDSDNdKVtDSDNdKWMobltjSF1uMSljKGMxMiluW2NIXW4yW0NIMl1bQ0BAXTMoW09IXSlbQ0gyXVtDSDJdT1tDQEhdM1tDSDNd

> <s_epik_cmdline>
J2VwaWtfcHl0aG9uJywgJy1waCcsICc3LjAnLCAnLXRuJywgJzgnLCAnLW1hJywgJzIwMCcsICctbWV0YWxfYmluZGluZycsICctaW1hZScsICc8aW5maWxlLm1hZT4nLCAnLW9tYWUnLCAnPG91dGZpbGUubWFlPic=

> <r_lp_tautomer_probability>
1

> <r_epik_Ionization_Penalty>
0.00156158

> <r_epik_Ionization_Penalty_Charging>
0

> <r_epik_Ionization_Penalty_Neutral>
0.00156158

> <r_epik_State_Penalty>
0.000865808

> <r_epik_Charging_Adjusted_Penalty>
0.000865808

> <i_epik_Tot_Q>
0

> <i_epik_Tot_abs_Q>
0

> <r_epik_Metal_State_Penalty>
-0

> <b_epik_Metal_Only>
0

> <s_lp_Force_Field>
OPLS_2005

> <r_lp_Energy>
30.6117

> <b_lp_Chiralities_Consistent>
1

> <s_lp_Variant>
AV-unprocessed.smi:183-4

> <Gold.Version>
5.8.1

> <Gold.Id.Protein>
6NUR|6NUR_protein|mol2

> <Gold.PLP.Fitness>
43.5000

> <Gold.PLP.PLP>
-40.6648

> <Gold.PLP.part.hbond>
-2.7581

> <Gold.PLP.part.metal>
0.0000

> <Gold.PLP.part.buried>
-6.1261

> <Gold.PLP.part.nonpolar>
-32.2524

> <Gold.PLP.part.repulsive>
0.1275

> <Gold.PLP.ligand.clash>
0.0000

> <Gold.PLP.ligand.torsion>
2.0988

> <Gold.PLP.Chemscore.Hbond>
2.0000

> <Gold.PLP.Chemscore.CHOScore>
0.0000

> <Gold.PLP.Chemscore.Metal>
0.0000

> <Gold.Chemscore.Hbonds>
donor molecule, donor type, donor heavy atom, donor atom, acceptor molecule, acceptor atom, score
      P1  H  6896  6909       L1    14  1.00
      P1  H  7989  7998       L1    22  0.75

> <Gold.PLP.Chemscore.Internal.Correction>
1.0328

> <Gold.Rescore>
     Score         DG    S(hbond)    S(metal)    S(lipo)     H(rot)  DE(clash)    DE(int)     intcor
      8.75     -12.22       1.90        0.00      78.68       3.45       0.04       3.43       ----

> <Gold.Chemscore.Fitness>
8.7529

> <Gold.Chemscore.DG>
-12.2250

> <Gold.Chemscore.ZeroCoef>
-5.4800

> <Gold.Chemscore.Hbond>
1.9038

> <Gold.Chemscore.Metal>
0.0000

> <Gold.Chemscore.Lipo>
78.6800

> <Gold.Chemscore.Internal_Hbond>
0.0000

> <Gold.Chemscore.DEClash>
0.0375

> <Gold.Chemscore.DEInternal>
3.4346

> <Gold.Chemscore.Rot>
3.4451

> <Gold.Chemscore.Internal.Correction>
   9.000000E+99

> <Gold.Chemscore.Hbonds>
donor molecule, donor type, donor heavy atom, donor atom, acceptor molecule, acceptor atom, score
      P1  H  6896  6909       L1    14  0.65
      P1  H  7989  7998       L1    22  0.09

> <Gold.Chemscore.Hbond.Weighted>
-6.3588

> <Gold.Chemscore.Metal.Weighted>
-0.0000

> <Gold.Chemscore.Lipo.Weighted>
-9.2056

> <Gold.Chemscore.Internal_Hbond.Weighted>
0.0000

> <Gold.Chemscore.DEClash.Weighted>
0.0375

> <Gold.Chemscore.DEInternal.Weighted>
3.4346

> <Gold.Chemscore.Rot.Weighted>
8.8194

> <Gold.Chemscore.Internal.Correction.Weighted>
   9.000000E+99

> <Gold.Protein.RotatedTorsions>
[ 6907 6896 6895 6894 ] final   71.26 input  -60.11 | X-H torsion
[ 7974 7965 7964 7962 ] final  112.19 input  175.53 | X-H torsion
[ 8008 7997 7996 7995 ] final    2.48 input   59.86 | X-H torsion
[ 10167 10162 10161 10158 ] final  -57.22 input  -65.29 | X-H torsion
[ 10718 10713 10712 10709 ] final  148.90 input   66.30 | X-H torsion
[ 10763 10752 10751 10750 ] final  -78.54 input  -60.55 | X-H torsion
[ 11005 11000 10999 10996 ] final -113.19 input  -57.11 | X-H torsion

> <Gold.Protein.ActiveResidues>
 VAL166  LYS551  ARG553  GLY616  TRP617  ASP618  TYR619  PRO620  LYS621  CYS622 
 ASP623  PHE694  ASN695  SER759  ASP760  ASP761  ALA762  ILE779  LEU786  VAL792 
 PHE793  MET794  SER795  GLU796  ALA797  LYS798  CYS799  TRP800  GLU811  SER814 

> <Gold.Protein.RotatedAtoms>
  152.4799  134.4746  159.9646 H   0  0  0  0  0  0  0  0  0  0  0  0  # atno 6907 bound_to 6896
  151.4754  133.3553  159.2838 H   0  0  0  0  0  0  0  0  0  0  0  0  # atno 6908 bound_to 6896
  150.8864  134.8289  159.7323 H   0  0  0  0  0  0  0  0  0  0  0  0  # atno 6909 bound_to 6896
  145.2326  139.2813  143.4160 H   0  0  0  0  0  0  0  0  0  0  0  0  # atno 7974 bound_to 7965
  154.6921  140.2655  155.6802 H   0  0  0  0  0  0  0  0  0  0  0  0  # atno 8008 bound_to 7997
  156.2736  140.2789  156.1426 H   0  0  0  0  0  0  0  0  0  0  0  0  # atno 8009 bound_to 7997
  155.0882  140.0373  157.2650 H   0  0  0  0  0  0  0  0  0  0  0  0  # atno 8010 bound_to 7997
  140.6271  143.2443  151.5337 H   0  0  0  0  0  0  0  0  0  0  0  0  # atno 10167 bound_to 10162
  157.3029  131.0874  151.1376 H   0  0  0  0  0  0  0  0  0  0  0  0  # atno 10718 bound_to 10713
  154.5272  135.5726  153.6729 H   0  0  0  0  0  0  0  0  0  0  0  0  # atno 10763 bound_to 10752
  152.9930  135.6196  154.2677 H   0  0  0  0  0  0  0  0  0  0  0  0  # atno 10764 bound_to 10752
  154.2601  135.2856  155.2761 H   0  0  0  0  0  0  0  0  0  0  0  0  # atno 10765 bound_to 10752
  141.0630  133.9505  157.2632 H   0  0  0  0  0  0  0  0  0  0  0  0  # atno 11005 bound_to 11000
  146.3349  140.2666  142.8604 LP  0  0  0  0  0  0  0  0  0  0  0  0  # atno 17320 bound_to 7965
  144.9662  140.8324  143.5483 LP  0  0  0  0  0  0  0  0  0  0  0  0  # atno 17321 bound_to 7965
  139.5489  144.2446  152.1495 LP  0  0  0  0  0  0  0  0  0  0  0  0  # atno 17342 bound_to 10162
  140.1680  144.4962  150.6595 LP  0  0  0  0  0  0  0  0  0  0  0  0  # atno 17343 bound_to 10162
  157.2728  130.6712  149.6028 LP  0  0  0  0  0  0  0  0  0  0  0  0  # atno 17370 bound_to 10713
  155.9672  130.4474  150.5577 LP  0  0  0  0  0  0  0  0  0  0  0  0  # atno 17371 bound_to 10713
  139.9450  135.0185  156.8824 LP  0  0  0  0  0  0  0  0  0  0  0  0  # atno 17394 bound_to 11000
  140.5831  134.0333  155.7471 LP  0  0  0  0  0  0  0  0  0  0  0  0  # atno 17395 bound_to 11000

$$$$
