AV-unprocessed.smi:1535|AV-procd|sdf|6185|dock5
  -GOLD-   22720 6343D 1   1.00000     0.00000
 Structure written by MMmdl.
 47 48  0  0  0  0  0  0  0  0  2 V2000
  153.0660  143.0839  161.2566 C   0  0  0  0  0  0  0  0  0  0  0  0
  152.4682  142.6622  159.9258 C   0  0  0  0  0  0  0  0  0  0  0  0
  152.7520  141.3727  159.4218 C   0  0  0  0  0  0  0  0  0  0  0  0
  152.2163  140.9433  158.1878 C   0  0  0  0  0  0  0  0  0  0  0  0
  152.3581  139.7417  157.5149 N   0  0  0  0  0  0  0  0  0  0  0  0
  151.6240  139.9545  156.4270 C   0  0  0  0  0  0  0  0  0  0  0  0
  151.0188  141.1526  156.3163 N   0  0  0  0  0  0  0  0  0  0  0  0
  150.1774  141.6099  155.2245 C   0  0  0  0  0  0  0  0  0  0  0  0
  148.6953  141.2376  155.4200 C   0  0  1  0  0  0  0  0  0  0  0  0
  147.8779  142.1898  154.7661 O   0  0  0  0  0  0  0  0  0  0  0  0
  148.3792  139.8448  154.8400 C   0  0  0  0  0  0  0  0  0  0  0  0
  148.9473  138.7516  155.6693 N   0  3  1  0  0  0  0  0  0  0  0  0
  148.7872  139.0133  157.1183 C   0  0  0  0  0  0  0  0  0  0  0  0
  148.4563  137.4047  155.2762 C   0  0  0  0  0  0  0  0  0  0  0  0
  149.2075  136.2734  156.0020 C   0  0  1  0  0  0  0  0  0  0  0  0
  148.7798  134.8932  155.4874 C   0  0  0  0  0  0  0  0  0  0  0  0
  150.6649  136.4450  155.8858 C   0  0  0  0  0  0  0  0  0  0  0  0
  151.8091  136.5818  155.7908 N   0  0  0  0  0  0  0  0  0  0  0  0
  151.3831  141.8468  157.4654 C   0  0  0  0  0  0  0  0  0  0  0  0
  151.0913  143.1312  157.9577 C   0  0  0  0  0  0  0  0  0  0  0  0
  151.6340  143.5441  159.1925 C   0  0  0  0  0  0  0  0  0  0  0  0
  151.3108  144.9322  159.7162 C   0  0  0  0  0  0  0  0  0  0  0  0
  153.6990  142.3009  161.6752 H   0  0  0  0  0  0  0  0  0  0  0  0
  152.2775  143.2987  161.9780 H   0  0  0  0  0  0  0  0  0  0  0  0
  153.6781  143.9781  161.1356 H   0  0  0  0  0  0  0  0  0  0  0  0
  153.3859  140.6999  159.9806 H   0  0  0  0  0  0  0  0  0  0  0  0
  151.5183  139.1950  155.6660 H   0  0  0  0  0  0  0  0  0  0  0  0
  150.2909  142.6904  155.1268 H   0  0  0  0  0  0  0  0  0  0  0  0
  150.5550  141.1741  154.2986 H   0  0  0  0  0  0  0  0  0  0  0  0
  148.4645  141.2700  156.4849 H   0  0  0  0  0  0  0  0  0  0  0  0
  148.2725  143.0438  154.8638 H   0  0  0  0  0  0  0  0  0  0  0  0
  147.2950  139.7391  154.7718 H   0  0  0  0  0  0  0  0  0  0  0  0
  148.7546  139.7550  153.8192 H   0  0  0  0  0  0  0  0  0  0  0  0
  147.7326  139.0531  157.3940 H   0  0  0  0  0  0  0  0  0  0  0  0
  149.2470  139.9642  157.3899 H   0  0  0  0  0  0  0  0  0  0  0  0
  149.2677  138.2411  157.7180 H   0  0  0  0  0  0  0  0  0  0  0  0
  147.3833  137.3395  155.4636 H   0  0  0  0  0  0  0  0  0  0  0  0
  148.5815  137.2596  154.2030 H   0  0  0  0  0  0  0  0  0  0  0  0
  148.9820  136.3108  157.0674 H   0  0  0  0  0  0  0  0  0  0  0  0
  149.3007  134.0990  156.0230 H   0  0  0  0  0  0  0  0  0  0  0  0
  149.0031  134.7795  154.4261 H   0  0  0  0  0  0  0  0  0  0  0  0
  147.7095  134.7354  155.6232 H   0  0  0  0  0  0  0  0  0  0  0  0
  150.4541  143.7935  157.3907 H   0  0  0  0  0  0  0  0  0  0  0  0
  150.6715  145.4804  159.0235 H   0  0  0  0  0  0  0  0  0  0  0  0
  152.2238  145.5111  159.8567 H   0  0  0  0  0  0  0  0  0  0  0  0
  150.7905  144.8676  160.6720 H   0  0  0  0  0  0  0  0  0  0  0  0
  149.9411  138.7685  155.4866 H   0  0  0  0  0  0  0  0  0  0  0  0
  1  2  1  0  0  0  0
  1 23  1  0  0  0  0
  1 24  1  0  0  0  0
  1 25  1  0  0  0  0
  2 21  1  0  0  0  0
  2  3  2  0  0  0  0
  3  4  1  0  0  0  0
  3 26  1  0  0  0  0
  4 19  2  0  0  0  0
  4  5  1  0  0  0  0
  5  6  2  0  0  0  0
  6  7  1  0  0  0  0
  6 27  1  0  0  0  0
  7  8  1  0  0  0  0
  7 19  1  0  0  0  0
  8  9  1  0  0  0  0
  8 28  1  0  0  0  0
  8 29  1  0  0  0  0
  9 10  1  0  0  0  0
  9 11  1  0  0  0  0
  9 30  1  0  0  0  0
 10 31  1  0  0  0  0
 11 12  1  0  0  0  0
 11 32  1  0  0  0  0
 11 33  1  0  0  0  0
 12 13  1  0  0  0  0
 12 14  1  0  0  0  0
 12 47  1  0  0  0  0
 13 34  1  0  0  0  0
 13 35  1  0  0  0  0
 13 36  1  0  0  0  0
 14 15  1  0  0  0  0
 14 37  1  0  0  0  0
 14 38  1  0  0  0  0
 15 16  1  0  0  0  0
 15 17  1  0  0  0  0
 15 39  1  0  0  0  0
 16 40  1  0  0  0  0
 16 41  1  0  0  0  0
 16 42  1  0  0  0  0
 17 18  3  0  0  0  0
 19 20  1  0  0  0  0
 20 21  2  0  0  0  0
 20 43  1  0  0  0  0
 21 22  1  0  0  0  0
 22 44  1  0  0  0  0
 22 45  1  0  0  0  0
 22 46  1  0  0  0  0
M  CHG  1  12   1
M  END
> <s_m_source_file>
AV-unprocessed.smi

> <i_m_source_file_index>
1535

> <i_lp_mmshare_version>
43012

> <i_f3d_flags>
0

> <s_epik_input>
W0NIM11jKFtjSF0xKWMoW0NIM10pW2NIXWMoYzEyKW4oW2NIXW4yKVtDSDJdW0NASF0oW09IXSlbQ0gyXU4oW0NIM10pW0NIMl1bQ0BIXShbQ0gzXSlDI04=

> <s_epik_cmdline>
J2VwaWtfcHl0aG9uJywgJy1waCcsICc3LjAnLCAnLXRuJywgJzgnLCAnLW1hJywgJzIwMCcsICctbWV0YWxfYmluZGluZycsICctaW1hZScsICc8aW5maWxlLm1hZT4nLCAnLW9tYWUnLCAnPG91dGZpbGUubWFlPic=

> <r_epik_Ionization_Penalty>
2.21058

> <r_epik_Ionization_Penalty_Charging>
2.12381

> <r_epik_Ionization_Penalty_Neutral>
0.0867699

> <r_epik_State_Penalty>
2.36208

> <r_epik_Charging_Adjusted_Penalty>
4.48589

> <i_epik_Tot_Q>
1

> <i_epik_Tot_abs_Q>
1

> <r_epik_Metal_State_Penalty>
2.2818

> <b_epik_Metal_Only>
0

> <s_lp_Force_Field>
OPLS_2005

> <r_lp_Energy>
14.5736

> <b_lp_Chiralities_Consistent>
1

> <s_lp_Variant>
AV-unprocessed.smi:1535-16

> <Gold.Version>
5.8.1

> <Gold.Id.Protein>
6NUR|6NUR_protein|mol2

> <Gold.PLP.Fitness>
47.2370

> <Gold.PLP.PLP>
-39.7492

> <Gold.PLP.part.hbond>
-3.0000

> <Gold.PLP.part.metal>
0.0000

> <Gold.PLP.part.buried>
-5.2773

> <Gold.PLP.part.nonpolar>
-31.0615

> <Gold.PLP.part.repulsive>
0.0700

> <Gold.PLP.ligand.clash>
0.0000

> <Gold.PLP.ligand.torsion>
0.9530

> <Gold.PLP.Chemscore.Hbond>
2.9920

> <Gold.PLP.Chemscore.CHOScore>
0.0000

> <Gold.PLP.Chemscore.Metal>
0.0000

> <Gold.Chemscore.Hbonds>
donor molecule, donor type, donor heavy atom, donor atom, acceptor molecule, acceptor atom, score
      L1  H    10    31       P1  8028  1.00
      P1  H  7997  8010       L1     5  0.48
      P1  H 10752 10764       L1    18  1.00

> <Gold.PLP.Chemscore.Internal.Correction>
0.4178

> <Gold.Rescore>
     Score         DG    S(hbond)    S(metal)    S(lipo)     H(rot)  DE(clash)    DE(int)     intcor
     18.35     -19.62       2.55        0.00     104.88       2.60       0.13       1.14       ----

> <Gold.Chemscore.Fitness>
18.3534

> <Gold.Chemscore.DG>
-19.6204

> <Gold.Chemscore.ZeroCoef>
-5.4800

> <Gold.Chemscore.Hbond>
2.5548

> <Gold.Chemscore.Metal>
0.0000

> <Gold.Chemscore.Lipo>
104.8837

> <Gold.Chemscore.Internal_Hbond>
0.0000

> <Gold.Chemscore.DEClash>
0.1261

> <Gold.Chemscore.DEInternal>
1.1410

> <Gold.Chemscore.Rot>
2.6031

> <Gold.Chemscore.Internal.Correction>
   9.000000E+99

> <Gold.Chemscore.Hbonds>
donor molecule, donor type, donor heavy atom, donor atom, acceptor molecule, acceptor atom, score
      L1  H    10    31       P1  8028  0.99
      P1  H  7997  8010       L1     5  0.03
      P1  H 10752 10764       L1    18  0.99

> <Gold.Chemscore.Hbond.Weighted>
-8.5330

> <Gold.Chemscore.Metal.Weighted>
-0.0000

> <Gold.Chemscore.Lipo.Weighted>
-12.2714

> <Gold.Chemscore.Internal_Hbond.Weighted>
0.0000

> <Gold.Chemscore.DEClash.Weighted>
0.1261

> <Gold.Chemscore.DEInternal.Weighted>
1.1410

> <Gold.Chemscore.Rot.Weighted>
6.6640

> <Gold.Chemscore.Internal.Correction.Weighted>
   9.000000E+99

> <Gold.Protein.RotatedTorsions>
[ 6907 6896 6895 6894 ] final   43.09 input  -60.11 | X-H torsion
[ 7974 7965 7964 7962 ] final  146.57 input  175.53 | X-H torsion
[ 8008 7997 7996 7995 ] final   53.88 input   59.86 | X-H torsion
[ 10167 10162 10161 10158 ] final   38.69 input  -65.29 | X-H torsion
[ 10718 10713 10712 10709 ] final   22.27 input   66.30 | X-H torsion
[ 10763 10752 10751 10750 ] final  -50.56 input  -60.55 | X-H torsion
[ 11005 11000 10999 10996 ] final -151.36 input  -57.11 | X-H torsion

> <Gold.Protein.ActiveResidues>
 VAL166  LYS551  ARG553  GLY616  TRP617  ASP618  TYR619  PRO620  LYS621  CYS622 
 ASP623  PHE694  ASN695  SER759  ASP760  ASP761  ALA762  ILE779  LEU786  VAL792 
 PHE793  MET794  SER795  GLU796  ALA797  LYS798  CYS799  TRP800  GLU811  SER814 

> <Gold.Protein.RotatedAtoms>
  152.2160  134.8457  160.0491 H   0  0  0  0  0  0  0  0  0  0  0  0  # atno 6907 bound_to 6896
  151.9259  133.3593  159.3921 H   0  0  0  0  0  0  0  0  0  0  0  0  # atno 6908 bound_to 6896
  150.6988  134.4513  159.5381 H   0  0  0  0  0  0  0  0  0  0  0  0  # atno 6909 bound_to 6896
  144.8660  139.5922  143.5909 H   0  0  0  0  0  0  0  0  0  0  0  0  # atno 7974 bound_to 7965
  155.4755  140.3466  155.4332 H   0  0  0  0  0  0  0  0  0  0  0  0  # atno 8008 bound_to 7997
  156.1073  140.1451  156.9416 H   0  0  0  0  0  0  0  0  0  0  0  0  # atno 8009 bound_to 7997
  154.4732  140.0893  156.7176 H   0  0  0  0  0  0  0  0  0  0  0  0  # atno 8010 bound_to 7997
  140.3912  144.1849  150.6131 H   0  0  0  0  0  0  0  0  0  0  0  0  # atno 10167 bound_to 10162
  157.1499  130.6670  149.6008 H   0  0  0  0  0  0  0  0  0  0  0  0  # atno 10718 bound_to 10713
  154.1124  135.6547  153.4887 H   0  0  0  0  0  0  0  0  0  0  0  0  # atno 10763 bound_to 10752
  153.0252  135.5251  154.7179 H   0  0  0  0  0  0  0  0  0  0  0  0  # atno 10764 bound_to 10752
  154.6362  135.2982  155.0127 H   0  0  0  0  0  0  0  0  0  0  0  0  # atno 10765 bound_to 10752
  140.7304  134.3627  157.5167 H   0  0  0  0  0  0  0  0  0  0  0  0  # atno 11005 bound_to 11000
  146.2896  139.7101  142.9170 LP  0  0  0  0  0  0  0  0  0  0  0  0  # atno 17320 bound_to 7965
  145.4221  141.0407  143.2958 LP  0  0  0  0  0  0  0  0  0  0  0  0  # atno 17321 bound_to 7965
  140.4837  143.2370  151.8918 LP  0  0  0  0  0  0  0  0  0  0  0  0  # atno 17342 bound_to 10162
  139.4789  144.5241  151.8759 LP  0  0  0  0  0  0  0  0  0  0  0  0  # atno 17343 bound_to 10162
  155.9772  130.4748  150.6580 LP  0  0  0  0  0  0  0  0  0  0  0  0  # atno 17370 bound_to 10713
  157.4230  131.0839  151.1113 LP  0  0  0  0  0  0  0  0  0  0  0  0  # atno 17371 bound_to 10713
  139.8827  134.9014  156.2811 LP  0  0  0  0  0  0  0  0  0  0  0  0  # atno 17394 bound_to 11000
  140.9926  133.7199  156.0837 LP  0  0  0  0  0  0  0  0  0  0  0  0  # atno 17395 bound_to 11000

$$$$
