AV-unprocessed.smi:832|AV-procd|sdf|3878|dock5
  -GOLD-   22720 1333D 1   1.00000     0.00000
 Structure written by MMmdl.
 42 43  0  0  0  0  0  0  0  0  2 V2000
  153.3559  137.7083  156.6989 C   0  0  0  0  0  0  0  0  0  0  0  0
  152.3584  138.3699  155.8109 C   0  0  0  0  0  0  0  0  0  0  0  0
  151.3689  137.8871  155.0015 C   0  0  0  0  0  0  0  0  0  0  0  0
  150.8008  139.0673  154.4526 C   0  0  0  0  0  0  0  0  0  0  0  0
  149.7129  138.9977  153.5452 N   0  0  0  0  0  0  0  0  0  0  0  0
  148.4018  138.9771  153.8397 C   0  0  0  0  0  0  0  0  0  0  0  0
  147.9288  139.0402  154.9749 O   0  0  0  0  0  0  0  0  0  0  0  0
  147.6537  138.8785  152.7308 N   0  0  0  0  0  0  0  0  0  0  0  0
  146.1964  138.7959  152.6992 C   0  0  0  0  0  0  0  0  0  0  0  0
  145.6963  137.3384  152.6862 C   0  0  2  0  0  0  0  0  0  0  0  0
  146.2956  136.4311  153.7592 C   0  0  0  0  0  0  0  0  0  0  0  0
  146.0819  135.0398  153.1753 C   0  0  0  0  0  0  0  0  0  0  0  0
  146.3277  135.1899  151.7240 N   0  3  1  0  0  0  0  0  0  0  0  0
  145.7057  134.1535  150.8517 C   0  0  0  0  0  0  0  0  0  0  0  0
  144.1673  134.1868  150.9320 C   0  0  0  0  0  0  0  0  0  0  0  0
  146.2057  132.7441  151.2222 C   0  0  0  0  0  0  0  0  0  0  0  0
  145.9983  136.5959  151.3740 C   0  0  0  0  0  0  0  0  0  0  0  0
  151.3931  140.1705  154.8838 N   0  0  0  0  0  0  0  0  0  0  0  0
  152.3944  139.7290  155.7569 O   0  0  0  0  0  0  0  0  0  0  0  0
  153.1913  136.6313  156.7358 H   0  0  0  0  0  0  0  0  0  0  0  0
  153.2854  138.0956  157.7155 H   0  0  0  0  0  0  0  0  0  0  0  0
  154.3695  137.8838  156.3386 H   0  0  0  0  0  0  0  0  0  0  0  0
  151.0962  136.8556  154.8347 H   0  0  0  0  0  0  0  0  0  0  0  0
  149.9618  138.9399  152.5688 H   0  0  0  0  0  0  0  0  0  0  0  0
  148.1293  138.8354  151.8412 H   0  0  0  0  0  0  0  0  0  0  0  0
  145.8197  139.3011  153.5890 H   0  0  0  0  0  0  0  0  0  0  0  0
  145.7955  139.3472  151.8466 H   0  0  0  0  0  0  0  0  0  0  0  0
  144.6133  137.3398  152.8232 H   0  0  0  0  0  0  0  0  0  0  0  0
  147.3634  136.6254  153.8710 H   0  0  0  0  0  0  0  0  0  0  0  0
  145.8245  136.5562  154.7348 H   0  0  0  0  0  0  0  0  0  0  0  0
  146.7433  134.2990  153.6255 H   0  0  0  0  0  0  0  0  0  0  0  0
  145.0505  134.7262  153.3460 H   0  0  0  0  0  0  0  0  0  0  0  0
  145.9944  134.3614  149.8200 H   0  0  0  0  0  0  0  0  0  0  0  0
  143.7286  133.3938  150.3252 H   0  0  0  0  0  0  0  0  0  0  0  0
  143.7567  135.1268  150.5635 H   0  0  0  0  0  0  0  0  0  0  0  0
  143.8197  134.0469  151.9562 H   0  0  0  0  0  0  0  0  0  0  0  0
  145.7323  131.9855  150.5980 H   0  0  0  0  0  0  0  0  0  0  0  0
  145.9774  132.5041  152.2613 H   0  0  0  0  0  0  0  0  0  0  0  0
  147.2816  132.6376  151.0857 H   0  0  0  0  0  0  0  0  0  0  0  0
  145.1394  136.6671  150.7054 H   0  0  0  0  0  0  0  0  0  0  0  0
  146.8556  137.0274  150.8557 H   0  0  0  0  0  0  0  0  0  0  0  0
  147.3277  135.1065  151.6083 H   0  0  0  0  0  0  0  0  0  0  0  0
  1  2  1  0  0  0  0
  1 20  1  0  0  0  0
  1 21  1  0  0  0  0
  1 22  1  0  0  0  0
  2 19  1  0  0  0  0
  2  3  2  0  0  0  0
  3  4  1  0  0  0  0
  3 23  1  0  0  0  0
  4  5  1  0  0  0  0
  4 18  2  0  0  0  0
  5  6  1  0  0  0  0
  5 24  1  0  0  0  0
  6  7  2  0  0  0  0
  6  8  1  0  0  0  0
  8  9  1  0  0  0  0
  8 25  1  0  0  0  0
  9 10  1  0  0  0  0
  9 26  1  0  0  0  0
  9 27  1  0  0  0  0
 10 17  1  0  0  0  0
 10 11  1  0  0  0  0
 10 28  1  0  0  0  0
 11 12  1  0  0  0  0
 11 29  1  0  0  0  0
 11 30  1  0  0  0  0
 12 13  1  0  0  0  0
 12 31  1  0  0  0  0
 12 32  1  0  0  0  0
 13 14  1  0  0  0  0
 13 17  1  0  0  0  0
 13 42  1  0  0  0  0
 14 15  1  0  0  0  0
 14 16  1  0  0  0  0
 14 33  1  0  0  0  0
 15 34  1  0  0  0  0
 15 35  1  0  0  0  0
 15 36  1  0  0  0  0
 16 37  1  0  0  0  0
 16 38  1  0  0  0  0
 16 39  1  0  0  0  0
 17 40  1  0  0  0  0
 17 41  1  0  0  0  0
 18 19  1  0  0  0  0
M  CHG  1  13   1
M  END
> <s_m_source_file>
AV-unprocessed.smi

> <i_m_source_file_index>
832

> <i_lp_mmshare_version>
43012

> <i_f3d_flags>
0

> <s_epik_input>
W0NIM11jMVtjSF1jKG5vMSlbTkhdQyg9TylbTkhdW0NIMl1bQ0BASF0yW0NIMl1bQ0gyXU4oW0NIMl0yKVtDSF0oW0NIM10pW0NIM10=

> <s_epik_cmdline>
J2VwaWtfcHl0aG9uJywgJy1waCcsICc3LjAnLCAnLXRuJywgJzgnLCAnLW1hJywgJzIwMCcsICctbWV0YWxfYmluZGluZycsICctaW1hZScsICc8aW5maWxlLm1hZT4nLCAnLW9tYWUnLCAnPG91dGZpbGUubWFlPic=

> <r_lp_tautomer_probability>
1

> <r_epik_Ionization_Penalty>
0.000242791

> <r_epik_Ionization_Penalty_Charging>
0.000220876

> <r_epik_Ionization_Penalty_Neutral>
2.19143e-05

> <r_epik_State_Penalty>
-0

> <r_epik_Charging_Adjusted_Penalty>
0.000220876

> <i_epik_Tot_Q>
1

> <i_epik_Tot_abs_Q>
1

> <r_epik_Metal_State_Penalty>
-0

> <b_epik_Metal_Only>
0

> <s_lp_Force_Field>
OPLS_2005

> <r_lp_Energy>
27.9623

> <b_lp_Chiralities_Consistent>
1

> <s_lp_Variant>
AV-unprocessed.smi:832-3

> <Gold.Version>
5.8.1

> <Gold.Id.Protein>
6NUR|6NUR_protein|mol2

> <Gold.PLP.Fitness>
42.0133

> <Gold.PLP.PLP>
-29.3227

> <Gold.PLP.part.hbond>
-6.0476

> <Gold.PLP.part.metal>
0.0000

> <Gold.PLP.part.buried>
-0.5190

> <Gold.PLP.part.nonpolar>
-23.3167

> <Gold.PLP.part.repulsive>
0.3639

> <Gold.PLP.ligand.clash>
0.0000

> <Gold.PLP.ligand.torsion>
0.9890

> <Gold.PLP.Chemscore.Hbond>
4.8800

> <Gold.PLP.Chemscore.CHOScore>
0.0000

> <Gold.PLP.Chemscore.Metal>
0.0000

> <Gold.Chemscore.Hbonds>
donor molecule, donor type, donor heavy atom, donor atom, acceptor molecule, acceptor atom, score
      L1  H     5    24       P1  7957  0.66
      L1  H     8    25       P1  7957  0.59
      L1  H    13    42       P1  7948  1.60
      P1  H  7989  7998       L1    18  0.95
      P1  H  7997  8009       L1    19  0.98

> <Gold.PLP.Chemscore.Internal.Correction>
0.0286

> <Gold.Rescore>
     Score         DG    S(hbond)    S(metal)    S(lipo)     H(rot)  DE(clash)    DE(int)     intcor
     19.62     -21.12       3.81        0.00      58.13       1.51       0.53       0.96       ----

> <Gold.Chemscore.Fitness>
19.6223

> <Gold.Chemscore.DG>
-21.1204

> <Gold.Chemscore.ZeroCoef>
-5.4800

> <Gold.Chemscore.Hbond>
3.8074

> <Gold.Chemscore.Metal>
0.0000

> <Gold.Chemscore.Lipo>
58.1289

> <Gold.Chemscore.Internal_Hbond>
0.0000

> <Gold.Chemscore.DEClash>
0.5338

> <Gold.Chemscore.DEInternal>
0.9644

> <Gold.Chemscore.Rot>
1.5146

> <Gold.Chemscore.Internal.Correction>
   9.000000E+99

> <Gold.Chemscore.Hbonds>
donor molecule, donor type, donor heavy atom, donor atom, acceptor molecule, acceptor atom, score
      L1  H     5    24       P1  7957  0.40
      L1  H     8    25       P1  7957  0.51
      L1  H    13    42       P1  7948  0.67
      P1  H  7989  7998       L1    18  0.21
      P1  H  7997  8009       L1    19  0.36

> <Gold.Chemscore.Hbond.Weighted>
-12.7167

> <Gold.Chemscore.Metal.Weighted>
-0.0000

> <Gold.Chemscore.Lipo.Weighted>
-6.8011

> <Gold.Chemscore.Internal_Hbond.Weighted>
0.0000

> <Gold.Chemscore.DEClash.Weighted>
0.5338

> <Gold.Chemscore.DEInternal.Weighted>
0.9644

> <Gold.Chemscore.Rot.Weighted>
3.8774

> <Gold.Chemscore.Internal.Correction.Weighted>
   9.000000E+99

> <Gold.Protein.RotatedTorsions>
[ 6907 6896 6895 6894 ] final  156.96 input  -60.11 | X-H torsion
[ 7974 7965 7964 7962 ] final  -11.95 input  175.53 | X-H torsion
[ 8008 7997 7996 7995 ] final -154.86 input   59.86 | X-H torsion
[ 10167 10162 10161 10158 ] final  -54.35 input  -65.29 | X-H torsion
[ 10718 10713 10712 10709 ] final   10.25 input   66.30 | X-H torsion
[ 10763 10752 10751 10750 ] final   54.65 input  -60.55 | X-H torsion
[ 11005 11000 10999 10996 ] final -110.52 input  -57.11 | X-H torsion

> <Gold.Protein.ActiveResidues>
 VAL166  LYS551  ARG553  GLY616  TRP617  ASP618  TYR619  PRO620  LYS621  CYS622 
 ASP623  PHE694  ASN695  SER759  ASP760  ASP761  ALA762  ILE779  LEU786  VAL792 
 PHE793  MET794  SER795  GLU796  ALA797  LYS798  CYS799  TRP800  GLU811  SER814 

> <Gold.Protein.RotatedAtoms>
  152.0221  133.3903  159.4262 H   0  0  0  0  0  0  0  0  0  0  0  0  # atno 6907 bound_to 6896
  150.6889  134.3614  159.4961 H   0  0  0  0  0  0  0  0  0  0  0  0  # atno 6908 bound_to 6896
  152.1389  134.9077  160.0605 H   0  0  0  0  0  0  0  0  0  0  0  0  # atno 6909 bound_to 6896
  146.2169  140.2987  142.8373 H   0  0  0  0  0  0  0  0  0  0  0  0  # atno 7974 bound_to 7965
  155.6930  140.0757  157.2441 H   0  0  0  0  0  0  0  0  0  0  0  0  # atno 8008 bound_to 7997
  154.4085  140.1661  156.2159 H   0  0  0  0  0  0  0  0  0  0  0  0  # atno 8009 bound_to 7997
  155.9435  140.3382  155.6350 H   0  0  0  0  0  0  0  0  0  0  0  0  # atno 8010 bound_to 7997
  140.6435  143.2521  151.4923 H   0  0  0  0  0  0  0  0  0  0  0  0  # atno 10167 bound_to 10162
  156.9782  130.5995  149.5674 H   0  0  0  0  0  0  0  0  0  0  0  0  # atno 10718 bound_to 10713
  152.9807  135.5737  154.4939 H   0  0  0  0  0  0  0  0  0  0  0  0  # atno 10763 bound_to 10752
  154.4469  135.2777  155.1810 H   0  0  0  0  0  0  0  0  0  0  0  0  # atno 10764 bound_to 10752
  154.3454  135.6220  153.5670 H   0  0  0  0  0  0  0  0  0  0  0  0  # atno 10765 bound_to 10752
  141.0787  133.9257  157.2336 H   0  0  0  0  0  0  0  0  0  0  0  0  # atno 11005 bound_to 11000
  144.9073  140.7715  143.5829 LP  0  0  0  0  0  0  0  0  0  0  0  0  # atno 17320 bound_to 7965
  145.2916  139.1882  143.4737 LP  0  0  0  0  0  0  0  0  0  0  0  0  # atno 17321 bound_to 7965
  139.5645  144.2076  152.1743 LP  0  0  0  0  0  0  0  0  0  0  0  0  # atno 17342 bound_to 10162
  140.1353  144.5251  150.6777 LP  0  0  0  0  0  0  0  0  0  0  0  0  # atno 17343 bound_to 10162
  156.0255  130.5349  150.8394 LP  0  0  0  0  0  0  0  0  0  0  0  0  # atno 17370 bound_to 10713
  157.5545  131.0944  150.9649 LP  0  0  0  0  0  0  0  0  0  0  0  0  # atno 17371 bound_to 10713
  139.9599  135.0156  156.9233 LP  0  0  0  0  0  0  0  0  0  0  0  0  # atno 17394 bound_to 11000
  140.5517  134.0620  155.7371 LP  0  0  0  0  0  0  0  0  0  0  0  0  # atno 17395 bound_to 11000

$$$$
