AV-unprocessed.smi:2224|AV-procd|sdf|8995|dock7
  -GOLD-   2272012203D 1   1.00000     0.00000
 Structure written by MMmdl.
 44 46  0  0  0  0  0  0  0  0  1 V2000
  148.9456  130.3811  153.5642 C   0  0  0  0  0  0  0  0  0  0  0  0
  149.6181  131.5088  154.3184 C   0  0  0  0  0  0  0  0  0  0  0  0
  150.5796  131.2432  155.3124 C   0  0  0  0  0  0  0  0  0  0  0  0
  151.1645  132.3369  155.9804 C   0  0  0  0  0  0  0  0  0  0  0  0
  152.2069  132.1244  157.0579 C   0  0  0  0  0  0  0  0  0  0  0  0
  150.8456  133.6211  155.7115 N   0  0  0  0  0  0  0  0  0  0  0  0
  149.9212  133.8885  154.7562 C   0  0  0  0  0  0  0  0  0  0  0  0
  149.5204  135.2016  154.3937 N   0  0  0  0  0  0  0  0  0  0  0  0
  149.5408  136.3145  155.1478 C   0  0  0  0  0  0  0  0  0  0  0  0
  149.8804  136.3699  156.3302 O   0  0  0  0  0  0  0  0  0  0  0  0
  149.1337  137.3817  154.4468 N   0  0  0  0  0  0  0  0  0  0  0  0
  149.0197  138.7334  154.9861 C   0  0  2  0  0  0  0  0  0  0  0  0
  148.7751  139.7805  153.8880 C   0  0  1  0  0  0  0  0  0  0  0  0
  147.4755  140.5382  153.8487 C   0  0  0  0  0  0  0  0  0  0  0  0
  147.8143  141.8354  154.5884 C   0  0  0  0  0  0  0  0  0  0  0  0
  148.9482  141.5072  155.3877 O   0  0  0  0  0  0  0  0  0  0  0  0
  149.7873  140.6538  154.6130 C   0  0  1  0  0  0  0  0  0  0  0  0
  150.3689  139.4169  155.3297 C   0  0  0  0  0  0  0  0  0  0  0  0
  150.6782  139.5913  156.8178 C   0  0  0  0  0  0  0  0  0  0  0  0
  151.6390  138.8515  154.6775 C   0  0  0  0  0  0  0  0  0  0  0  0
  149.2888  132.8499  154.0366 C   0  0  0  0  0  0  0  0  0  0  0  0
  149.2670  129.4077  153.9359 H   0  0  0  0  0  0  0  0  0  0  0  0
  149.1881  130.4394  152.5029 H   0  0  0  0  0  0  0  0  0  0  0  0
  147.8629  130.4466  153.6739 H   0  0  0  0  0  0  0  0  0  0  0  0
  150.8615  130.2293  155.5563 H   0  0  0  0  0  0  0  0  0  0  0  0
  152.3380  131.0645  157.2777 H   0  0  0  0  0  0  0  0  0  0  0  0
  151.9109  132.6279  157.9786 H   0  0  0  0  0  0  0  0  0  0  0  0
  153.1681  132.5281  156.7389 H   0  0  0  0  0  0  0  0  0  0  0  0
  149.1826  135.3064  153.4487 H   0  0  0  0  0  0  0  0  0  0  0  0
  148.8737  137.2509  153.4804 H   0  0  0  0  0  0  0  0  0  0  0  0
  148.2944  138.8211  155.7983 H   0  0  0  0  0  0  0  0  0  0  0  0
  149.1482  139.4638  152.9123 H   0  0  0  0  0  0  0  0  0  0  0  0
  147.1338  140.7338  152.8321 H   0  0  0  0  0  0  0  0  0  0  0  0
  146.6889  139.9895  154.3676 H   0  0  0  0  0  0  0  0  0  0  0  0
  148.0935  142.6180  153.8813 H   0  0  0  0  0  0  0  0  0  0  0  0
  146.9876  142.2031  155.1964 H   0  0  0  0  0  0  0  0  0  0  0  0
  150.4668  141.1924  153.9507 H   0  0  0  0  0  0  0  0  0  0  0  0
  151.4946  140.2963  156.9770 H   0  0  0  0  0  0  0  0  0  0  0  0
  150.9619  138.6460  157.2814 H   0  0  0  0  0  0  0  0  0  0  0  0
  149.8149  139.9684  157.3667 H   0  0  0  0  0  0  0  0  0  0  0  0
  152.4799  139.5371  154.7862 H   0  0  0  0  0  0  0  0  0  0  0  0
  151.5043  138.6791  153.6094 H   0  0  0  0  0  0  0  0  0  0  0  0
  151.9338  137.9016  155.1247 H   0  0  0  0  0  0  0  0  0  0  0  0
  148.5546  133.0761  153.2768 H   0  0  0  0  0  0  0  0  0  0  0  0
  1  2  1  0  0  0  0
  1 22  1  0  0  0  0
  1 23  1  0  0  0  0
  1 24  1  0  0  0  0
  2 21  1  0  0  0  0
  2  3  2  0  0  0  0
  3  4  1  0  0  0  0
  3 25  1  0  0  0  0
  4  5  1  0  0  0  0
  4  6  2  0  0  0  0
  5 26  1  0  0  0  0
  5 27  1  0  0  0  0
  5 28  1  0  0  0  0
  6  7  1  0  0  0  0
  7  8  1  0  0  0  0
  7 21  2  0  0  0  0
  8  9  1  0  0  0  0
  8 29  1  0  0  0  0
  9 10  2  0  0  0  0
  9 11  1  0  0  0  0
 11 12  1  0  0  0  0
 11 30  1  0  0  0  0
 12 18  1  0  0  0  0
 12 13  1  0  0  0  0
 12 31  1  0  0  0  0
 13 17  1  0  0  0  0
 13 14  1  0  0  0  0
 13 32  1  0  0  0  0
 14 15  1  0  0  0  0
 14 33  1  0  0  0  0
 14 34  1  0  0  0  0
 15 16  1  0  0  0  0
 15 35  1  0  0  0  0
 15 36  1  0  0  0  0
 16 17  1  0  0  0  0
 17 18  1  0  0  0  0
 17 37  1  0  0  0  0
 18 19  1  0  0  0  0
 18 20  1  0  0  0  0
 19 38  1  0  0  0  0
 19 39  1  0  0  0  0
 19 40  1  0  0  0  0
 20 41  1  0  0  0  0
 20 42  1  0  0  0  0
 20 43  1  0  0  0  0
 21 44  1  0  0  0  0
M  END
> <s_m_source_file>
AV-unprocessed.smi

> <i_m_source_file_index>
2224

> <i_lp_mmshare_version>
43012

> <i_f3d_flags>
0

> <s_epik_input>
W0NIM11jMVtjSF1jKFtDSDNdKW5jKFtjSF0xKVtOSF1DKD1PKVtOSF1bQ0BIXTJDKFtDSDNdKShbQ0gzXSlbQ0BIXShbQ0BASF0yMylPW0NIMl1bQ0gyXTM=

> <s_epik_cmdline>
J2VwaWtfcHl0aG9uJywgJy1waCcsICc3LjAnLCAnLXRuJywgJzgnLCAnLW1hJywgJzIwMCcsICctbWV0YWxfYmluZGluZycsICctaW1hZScsICc8aW5maWxlLm1hZT4nLCAnLW9tYWUnLCAnPG91dGZpbGUubWFlPic=

> <r_lp_tautomer_probability>
1

> <r_epik_Ionization_Penalty>
0.000276544

> <r_epik_Ionization_Penalty_Charging>
0

> <r_epik_Ionization_Penalty_Neutral>
0.000276544

> <r_epik_State_Penalty>
-0

> <r_epik_Charging_Adjusted_Penalty>
0

> <i_epik_Tot_Q>
0

> <i_epik_Tot_abs_Q>
0

> <r_epik_Metal_State_Penalty>
-0

> <b_epik_Metal_Only>
0

> <s_lp_Force_Field>
OPLS_2005

> <r_lp_Energy>
38.5894

> <b_lp_Chiralities_Consistent>
1

> <s_lp_Variant>
AV-unprocessed.smi:2224-5

> <Gold.Version>
5.8.1

> <Gold.Id.Protein>
6NUR|6NUR_protein|mol2

> <Gold.PLP.Fitness>
39.1994

> <Gold.PLP.PLP>
-33.4953

> <Gold.PLP.part.hbond>
-2.0000

> <Gold.PLP.part.metal>
0.0000

> <Gold.PLP.part.buried>
0.1367

> <Gold.PLP.part.nonpolar>
-31.6209

> <Gold.PLP.part.repulsive>
0.1799

> <Gold.PLP.ligand.clash>
0.0000

> <Gold.PLP.ligand.torsion>
0.2354

> <Gold.PLP.Chemscore.Hbond>
2.0000

> <Gold.PLP.Chemscore.CHOScore>
0.0000

> <Gold.PLP.Chemscore.Metal>
0.0000

> <Gold.Chemscore.Hbonds>
donor molecule, donor type, donor heavy atom, donor atom, acceptor molecule, acceptor atom, score
      L1  H     8    29       P1  7948  1.00
      L1  H    11    30       P1  7948  0.99

> <Gold.PLP.Chemscore.Internal.Correction>
0.1749

> <Gold.Rescore>
     Score         DG    S(hbond)    S(metal)    S(lipo)     H(rot)  DE(clash)    DE(int)     intcor
     15.44     -17.08       1.40        0.00      80.91       1.00       0.27       1.37       ----

> <Gold.Chemscore.Fitness>
15.4425

> <Gold.Chemscore.DG>
-17.0766

> <Gold.Chemscore.ZeroCoef>
-5.4800

> <Gold.Chemscore.Hbond>
1.4044

> <Gold.Chemscore.Metal>
0.0000

> <Gold.Chemscore.Lipo>
80.9052

> <Gold.Chemscore.Internal_Hbond>
0.0000

> <Gold.Chemscore.DEClash>
0.2662

> <Gold.Chemscore.DEInternal>
1.3679

> <Gold.Chemscore.Rot>
1.0000

> <Gold.Chemscore.Internal.Correction>
   9.000000E+99

> <Gold.Chemscore.Hbonds>
donor molecule, donor type, donor heavy atom, donor atom, acceptor molecule, acceptor atom, score
      L1  H     8    29       P1  7948  0.29
      L1  H    11    30       P1  7948  0.94

> <Gold.Chemscore.Hbond.Weighted>
-4.6907

> <Gold.Chemscore.Metal.Weighted>
-0.0000

> <Gold.Chemscore.Lipo.Weighted>
-9.4659

> <Gold.Chemscore.Internal_Hbond.Weighted>
0.0000

> <Gold.Chemscore.DEClash.Weighted>
0.2662

> <Gold.Chemscore.DEInternal.Weighted>
1.3679

> <Gold.Chemscore.Rot.Weighted>
2.5600

> <Gold.Chemscore.Internal.Correction.Weighted>
   9.000000E+99

> <Gold.Protein.RotatedTorsions>
[ 6907 6896 6895 6894 ] final   67.86 input  -60.11 | X-H torsion
[ 7974 7965 7964 7962 ] final  108.51 input  175.53 | X-H torsion
[ 8008 7997 7996 7995 ] final -169.63 input   59.86 | X-H torsion
[ 10167 10162 10161 10158 ] final  -97.25 input  -65.29 | X-H torsion
[ 10718 10713 10712 10709 ] final  107.36 input   66.30 | X-H torsion
[ 10763 10752 10751 10750 ] final   25.88 input  -60.55 | X-H torsion
[ 11005 11000 10999 10996 ] final -106.77 input  -57.11 | X-H torsion

> <Gold.Protein.ActiveResidues>
 VAL166  LYS551  ARG553  GLY616  TRP617  ASP618  TYR619  PRO620  LYS621  CYS622 
 ASP623  PHE694  ASN695  SER759  ASP760  ASP761  ALA762  ILE779  LEU786  VAL792 
 PHE793  MET794  SER795  GLU796  ALA797  LYS798  CYS799  TRP800  GLU811  SER814 

> <Gold.Protein.RotatedAtoms>
  152.4581  134.5246  159.9792 H   0  0  0  0  0  0  0  0  0  0  0  0  # atno 6907 bound_to 6896
  151.5302  133.3444  159.2924 H   0  0  0  0  0  0  0  0  0  0  0  0  # atno 6908 bound_to 6896
  150.8533  134.7894  159.7088 H   0  0  0  0  0  0  0  0  0  0  0  0  # atno 6909 bound_to 6896
  145.2797  139.2637  143.3922 H   0  0  0  0  0  0  0  0  0  0  0  0  # atno 7974 bound_to 7965
  155.9075  140.1051  157.1304 H   0  0  0  0  0  0  0  0  0  0  0  0  # atno 8008 bound_to 7997
  154.4035  140.1280  156.4580 H   0  0  0  0  0  0  0  0  0  0  0  0  # atno 8009 bound_to 7997
  155.7349  140.3468  155.5079 H   0  0  0  0  0  0  0  0  0  0  0  0  # atno 8010 bound_to 7997
  140.2854  143.3255  152.0400 H   0  0  0  0  0  0  0  0  0  0  0  0  # atno 10167 bound_to 10162
  157.6631  131.0871  150.6145 H   0  0  0  0  0  0  0  0  0  0  0  0  # atno 10718 bound_to 10713
  153.0661  135.6573  154.0352 H   0  0  0  0  0  0  0  0  0  0  0  0  # atno 10763 bound_to 10752
  154.0008  135.2937  155.3404 H   0  0  0  0  0  0  0  0  0  0  0  0  # atno 10764 bound_to 10752
  154.7019  135.5241  153.8608 H   0  0  0  0  0  0  0  0  0  0  0  0  # atno 10765 bound_to 10752
  141.0988  133.8923  157.1896 H   0  0  0  0  0  0  0  0  0  0  0  0  # atno 11005 bound_to 11000
  146.3220  140.3261  142.8637 LP  0  0  0  0  0  0  0  0  0  0  0  0  # atno 17320 bound_to 7965
  144.9264  140.7925  143.5717 LP  0  0  0  0  0  0  0  0  0  0  0  0  # atno 17321 bound_to 7965
  139.4952  144.6563  151.6566 LP  0  0  0  0  0  0  0  0  0  0  0  0  # atno 17342 bound_to 10162
  140.5777  144.0000  150.6251 LP  0  0  0  0  0  0  0  0  0  0  0  0  # atno 17343 bound_to 10162
  156.6447  130.4468  149.5740 LP  0  0  0  0  0  0  0  0  0  0  0  0  # atno 17370 bound_to 10713
  156.2182  130.6721  151.1341 LP  0  0  0  0  0  0  0  0  0  0  0  0  # atno 17371 bound_to 10713
  139.9832  135.0091  156.9800 LP  0  0  0  0  0  0  0  0  0  0  0  0  # atno 17394 bound_to 11000
  140.5075  134.1036  155.7263 LP  0  0  0  0  0  0  0  0  0  0  0  0  # atno 17395 bound_to 11000

$$$$
