AV-unprocessed.smi:1505|AV-procd|sdf|6075|dock3
  -GOLD-   22720 6193D 1   1.00000     0.00000
 Structure written by MMmdl.
 44 45  0  0  0  0  0  0  0  0  1 V2000
  151.6827  139.1932  158.8517 C   0  0  0  0  0  0  0  0  0  0  0  0
  152.3248  139.1786  157.4627 C   0  0  0  0  0  0  0  0  0  0  0  0
  153.4085  138.6091  157.3326 O   0  0  0  0  0  0  0  0  0  0  0  0
  151.6904  139.7897  156.4334 N   0  0  0  0  0  0  0  0  0  0  0  0
  152.1506  139.8020  155.0399 C   0  0  0  0  0  0  0  0  0  0  0  0
  151.2268  138.8975  154.2068 C   0  0  0  0  0  0  0  0  0  0  0  0
  149.7459  139.3327  154.3342 C   0  0  0  0  0  0  0  0  0  0  0  0
  148.8689  138.3469  153.7106 N   0  0  0  0  0  0  0  0  0  0  0  0
  147.5301  138.3946  153.7302 C   0  0  0  0  0  0  0  0  0  0  0  0
  146.8803  139.2288  154.3615 O   0  0  0  0  0  0  0  0  0  0  0  0
  146.9874  137.4670  152.9278 N   0  0  0  0  0  0  0  0  0  0  0  0
  145.5761  137.4042  152.5521 C   0  0  0  0  0  0  0  0  0  0  0  0
  145.3825  136.8495  151.1254 C   0  0  0  0  0  0  0  0  0  0  0  0
  145.2510  135.3485  151.0907 C   0  0  0  0  0  0  0  0  0  0  0  0
  146.1567  134.3816  151.6142 C   0  0  0  0  0  0  0  0  0  0  0  0
  145.7781  133.1372  151.3738 N   0  0  0  0  0  0  0  0  0  0  0  0
  144.6187  133.2651  150.6969 N   0  0  0  0  0  0  0  0  0  0  0  0
  143.9194  132.0792  150.2522 C   0  0  0  0  0  0  0  0  0  0  0  0
  144.2702  134.5869  150.5201 C   0  0  0  0  0  0  0  0  0  0  0  0
  149.3402  139.5254  155.8115 C   0  0  0  0  0  0  0  0  0  0  0  0
  150.3608  140.3962  156.5670 C   0  0  0  0  0  0  0  0  0  0  0  0
  151.5237  140.2162  159.1944 H   0  0  0  0  0  0  0  0  0  0  0  0
  152.3270  138.6964  159.5778 H   0  0  0  0  0  0  0  0  0  0  0  0
  150.7269  138.6690  158.8409 H   0  0  0  0  0  0  0  0  0  0  0  0
  152.1120  140.8234  154.6585 H   0  0  0  0  0  0  0  0  0  0  0  0
  153.1860  139.4875  154.9177 H   0  0  0  0  0  0  0  0  0  0  0  0
  151.5405  138.9152  153.1622 H   0  0  0  0  0  0  0  0  0  0  0  0
  151.3404  137.8653  154.5424 H   0  0  0  0  0  0  0  0  0  0  0  0
  149.6213  140.2911  153.8265 H   0  0  0  0  0  0  0  0  0  0  0  0
  149.3125  137.6249  153.1622 H   0  0  0  0  0  0  0  0  0  0  0  0
  147.6090  136.8232  152.4607 H   0  0  0  0  0  0  0  0  0  0  0  0
  145.0541  136.7693  153.2682 H   0  0  0  0  0  0  0  0  0  0  0  0
  145.1154  138.3904  152.6316 H   0  0  0  0  0  0  0  0  0  0  0  0
  144.4973  137.3130  150.6883 H   0  0  0  0  0  0  0  0  0  0  0  0
  146.2165  137.1750  150.5031 H   0  0  0  0  0  0  0  0  0  0  0  0
  147.0840  134.5480  152.1423 H   0  0  0  0  0  0  0  0  0  0  0  0
  143.0031  132.3585  149.7316 H   0  0  0  0  0  0  0  0  0  0  0  0
  143.6643  131.4568  151.1103 H   0  0  0  0  0  0  0  0  0  0  0  0
  144.5544  131.5113  149.5715 H   0  0  0  0  0  0  0  0  0  0  0  0
  143.3746  134.8748  149.9895 H   0  0  0  0  0  0  0  0  0  0  0  0
  148.3490  139.9763  155.8721 H   0  0  0  0  0  0  0  0  0  0  0  0
  149.2686  138.5548  156.3053 H   0  0  0  0  0  0  0  0  0  0  0  0
  150.0521  140.5125  157.6067 H   0  0  0  0  0  0  0  0  0  0  0  0
  150.3778  141.4036  156.1487 H   0  0  0  0  0  0  0  0  0  0  0  0
  1  2  1  0  0  0  0
  1 22  1  0  0  0  0
  1 23  1  0  0  0  0
  1 24  1  0  0  0  0
  2  3  2  0  0  0  0
  2  4  1  0  0  0  0
  4 21  1  0  0  0  0
  4  5  1  0  0  0  0
  5  6  1  0  0  0  0
  5 25  1  0  0  0  0
  5 26  1  0  0  0  0
  6  7  1  0  0  0  0
  6 27  1  0  0  0  0
  6 28  1  0  0  0  0
  7  8  1  0  0  0  0
  7 20  1  0  0  0  0
  7 29  1  0  0  0  0
  8  9  1  0  0  0  0
  8 30  1  0  0  0  0
  9 10  2  0  0  0  0
  9 11  1  0  0  0  0
 11 12  1  0  0  0  0
 11 31  1  0  0  0  0
 12 13  1  0  0  0  0
 12 32  1  0  0  0  0
 12 33  1  0  0  0  0
 13 14  1  0  0  0  0
 13 34  1  0  0  0  0
 13 35  1  0  0  0  0
 14 19  2  0  0  0  0
 14 15  1  0  0  0  0
 15 16  2  0  0  0  0
 15 36  1  0  0  0  0
 16 17  1  0  0  0  0
 17 18  1  0  0  0  0
 17 19  1  0  0  0  0
 18 37  1  0  0  0  0
 18 38  1  0  0  0  0
 18 39  1  0  0  0  0
 19 40  1  0  0  0  0
 20 21  1  0  0  0  0
 20 41  1  0  0  0  0
 20 42  1  0  0  0  0
 21 43  1  0  0  0  0
 21 44  1  0  0  0  0
M  END
> <s_m_source_file>
AV-unprocessed.smi

> <i_m_source_file_index>
1505

> <i_lp_mmshare_version>
43012

> <i_f3d_flags>
0

> <s_epik_input>
W0NIM11DKD1PKU4xW0NIMl1bQ0gyXVtDSF0oW0NIMl1bQ0gyXTEpW05IXUMoPU8pW05IXVtDSDJdW0NIMl1jMltjSF1ubihbQ0gzXSlbY0hdMg==

> <s_epik_cmdline>
J2VwaWtfcHl0aG9uJywgJy1waCcsICc3LjAnLCAnLXRuJywgJzgnLCAnLW1hJywgJzIwMCcsICctbWV0YWxfYmluZGluZycsICctaW1hZScsICc8aW5maWxlLm1hZT4nLCAnLW9tYWUnLCAnPG91dGZpbGUubWFlPic=

> <r_lp_tautomer_probability>
1

> <r_epik_Ionization_Penalty>
0.000559595

> <r_epik_Ionization_Penalty_Charging>
0

> <r_epik_Ionization_Penalty_Neutral>
0.000559595

> <r_epik_State_Penalty>
-0

> <r_epik_Charging_Adjusted_Penalty>
0

> <i_epik_Tot_Q>
0

> <i_epik_Tot_abs_Q>
0

> <r_epik_Metal_State_Penalty>
-0

> <b_epik_Metal_Only>
0

> <s_lp_Force_Field>
OPLS_2005

> <r_lp_Energy>
17.177

> <b_lp_Chiralities_Consistent>
1

> <s_lp_Variant>
AV-unprocessed.smi:1505-1

> <Gold.Version>
5.8.1

> <Gold.Id.Protein>
6NUR|6NUR_protein|mol2

> <Gold.PLP.Fitness>
46.6896

> <Gold.PLP.PLP>
-32.9797

> <Gold.PLP.part.hbond>
-3.4541

> <Gold.PLP.part.metal>
0.0000

> <Gold.PLP.part.buried>
0.6445

> <Gold.PLP.part.nonpolar>
-31.2786

> <Gold.PLP.part.repulsive>
0.3280

> <Gold.PLP.ligand.clash>
0.0000

> <Gold.PLP.ligand.torsion>
0.4404

> <Gold.PLP.Chemscore.Hbond>
2.8480

> <Gold.PLP.Chemscore.CHOScore>
2.0000

> <Gold.PLP.Chemscore.Metal>
0.0000

> <Gold.Chemscore.Hbonds>
donor molecule, donor type, donor heavy atom, donor atom, acceptor molecule, acceptor atom, score
      L1  H     8    30       P1  7948  0.88
      L1  H    11    31       P1  7948  1.00
      P1  H  7997  8010       L1     3  1.00
      L1  C    15    36       P1  7948  1.00
      L1  C    19    40       P1 10186  1.00

> <Gold.PLP.Chemscore.Internal.Correction>
0.0467

> <Gold.Rescore>
     Score         DG    S(hbond)    S(metal)    S(lipo)     H(rot)  DE(clash)    DE(int)     intcor
     15.65     -18.43       2.62        0.00      72.87       1.69       1.04       1.74       ----

> <Gold.Chemscore.Fitness>
15.6470

> <Gold.Chemscore.DG>
-18.4293

> <Gold.Chemscore.ZeroCoef>
-5.4800

> <Gold.Chemscore.Hbond>
2.6196

> <Gold.Chemscore.Metal>
0.0000

> <Gold.Chemscore.Lipo>
72.8674

> <Gold.Chemscore.Internal_Hbond>
0.0000

> <Gold.Chemscore.DEClash>
1.0397

> <Gold.Chemscore.DEInternal>
1.7426

> <Gold.Chemscore.Rot>
1.6896

> <Gold.Chemscore.Internal.Correction>
   9.000000E+99

> <Gold.Chemscore.Hbonds>
donor molecule, donor type, donor heavy atom, donor atom, acceptor molecule, acceptor atom, score
      L1  H     8    30       P1  7948  0.84
      L1  H    11    31       P1  7948  0.97
      P1  H  7997  8010       L1     3  0.39

> <Gold.Chemscore.Hbond.Weighted>
-8.7494

> <Gold.Chemscore.Metal.Weighted>
-0.0000

> <Gold.Chemscore.Lipo.Weighted>
-8.5255

> <Gold.Chemscore.Internal_Hbond.Weighted>
0.0000

> <Gold.Chemscore.DEClash.Weighted>
1.0397

> <Gold.Chemscore.DEInternal.Weighted>
1.7426

> <Gold.Chemscore.Rot.Weighted>
4.3255

> <Gold.Chemscore.Internal.Correction.Weighted>
   9.000000E+99

> <Gold.Protein.RotatedTorsions>
[ 6907 6896 6895 6894 ] final   68.81 input  -60.11 | X-H torsion
[ 7974 7965 7964 7962 ] final -136.60 input  175.53 | X-H torsion
[ 8008 7997 7996 7995 ] final   37.30 input   59.86 | X-H torsion
[ 10167 10162 10161 10158 ] final  -35.07 input  -65.29 | X-H torsion
[ 10718 10713 10712 10709 ] final -134.03 input   66.30 | X-H torsion
[ 10763 10752 10751 10750 ] final   30.34 input  -60.55 | X-H torsion
[ 11005 11000 10999 10996 ] final  -52.38 input  -57.11 | X-H torsion

> <Gold.Protein.ActiveResidues>
 VAL166  LYS551  ARG553  GLY616  TRP617  ASP618  TYR619  PRO620  LYS621  CYS622 
 ASP623  PHE694  ASN695  SER759  ASP760  ASP761  ALA762  ILE779  LEU786  VAL792 
 PHE793  MET794  SER795  GLU796  ALA797  LYS798  CYS799  TRP800  GLU811  SER814 

> <Gold.Protein.RotatedAtoms>
  152.4645  134.5107  159.9752 H   0  0  0  0  0  0  0  0  0  0  0  0  # atno 6907 bound_to 6896
  151.5148  133.3472  159.2899 H   0  0  0  0  0  0  0  0  0  0  0  0  # atno 6908 bound_to 6896
  150.8623  134.8007  159.7154 H   0  0  0  0  0  0  0  0  0  0  0  0  # atno 6909 bound_to 6896
  144.8913  140.6646  143.5143 H   0  0  0  0  0  0  0  0  0  0  0  0  # atno 7974 bound_to 7965
  155.2014  140.3316  155.4342 H   0  0  0  0  0  0  0  0  0  0  0  0  # atno 8008 bound_to 7997
  156.2405  140.1893  156.7051 H   0  0  0  0  0  0  0  0  0  0  0  0  # atno 8009 bound_to 7997
  154.6139  140.0605  156.9514 H   0  0  0  0  0  0  0  0  0  0  0  0  # atno 8010 bound_to 7997
  140.7172  143.3503  151.2170 H   0  0  0  0  0  0  0  0  0  0  0  0  # atno 10167 bound_to 10162
  156.2511  130.7154  151.1053 H   0  0  0  0  0  0  0  0  0  0  0  0  # atno 10718 bound_to 10713
  153.0377  135.6466  154.1029 H   0  0  0  0  0  0  0  0  0  0  0  0  # atno 10763 bound_to 10752
  154.0741  135.2878  155.3304 H   0  0  0  0  0  0  0  0  0  0  0  0  # atno 10764 bound_to 10752
  154.6574  135.5404  153.8040 H   0  0  0  0  0  0  0  0  0  0  0  0  # atno 10765 bound_to 10752
  141.0921  133.6631  156.4015 H   0  0  0  0  0  0  0  0  0  0  0  0  # atno 11005 bound_to 11000
  145.3778  139.1644  143.4297 LP  0  0  0  0  0  0  0  0  0  0  0  0  # atno 17320 bound_to 7965
  146.3055  140.3856  142.8688 LP  0  0  0  0  0  0  0  0  0  0  0  0  # atno 17321 bound_to 7965
  139.7032  143.9499  152.2915 LP  0  0  0  0  0  0  0  0  0  0  0  0  # atno 17342 bound_to 10162
  139.9199  144.6806  150.8473 LP  0  0  0  0  0  0  0  0  0  0  0  0  # atno 17343 bound_to 10162
  157.7215  131.0678  150.6116 LP  0  0  0  0  0  0  0  0  0  0  0  0  # atno 17370 bound_to 10713
  156.6196  130.4402  149.5827 LP  0  0  0  0  0  0  0  0  0  0  0  0  # atno 17371 bound_to 10713
  140.5227  134.6288  157.5323 LP  0  0  0  0  0  0  0  0  0  0  0  0  # atno 17394 bound_to 11000
  139.9749  134.7232  155.9969 LP  0  0  0  0  0  0  0  0  0  0  0  0  # atno 17395 bound_to 11000

$$$$
