AV-unprocessed.smi:1870|AV-procd|sdf|7597|dock5
  -GOLD-   22720 9313D 1   1.00000     0.00000
 Structure written by MMmdl.
 47 49  0  0  0  0  0  0  0  0  1 V2000
  157.0557  137.4706  155.9754 C   0  0  0  0  0  0  0  0  0  0  0  0
  156.1221  137.0467  157.0769 C   0  0  0  0  0  0  0  0  0  0  0  0
  155.5363  137.9907  157.7375 N   0  0  0  0  0  0  0  0  0  0  0  0
  154.6625  137.7113  158.7707 N   0  0  0  0  0  0  0  0  0  0  0  0
  154.0988  138.9043  159.4145 C   0  0  0  0  0  0  0  0  0  0  0  0
  155.0815  139.5358  160.4240 C   0  0  2  0  0  0  0  0  0  0  0  0
  155.8236  138.5004  161.0365 O   0  0  0  0  0  0  0  0  0  0  0  0
  154.3290  140.2756  161.5499 C   0  0  0  0  0  0  0  0  0  0  0  0
  153.9196  141.6481  161.2431 N   0  0  0  0  0  0  0  0  0  0  0  0
  153.1314  142.2127  162.3342 C   0  0  0  0  0  0  0  0  0  0  0  0
  152.9073  143.7219  162.1539 C   0  0  0  0  0  0  0  0  0  0  0  0
  152.4542  144.0698  160.7462 C   0  0  0  0  0  0  0  0  0  0  0  0
  151.9157  145.3432  160.4701 C   0  0  0  0  0  0  0  0  0  0  0  0
  151.5205  145.6732  159.1594 C   0  0  0  0  0  0  0  0  0  0  0  0
  151.6635  144.7317  158.1220 C   0  0  0  0  0  0  0  0  0  0  0  0
  152.2023  143.4591  158.3937 C   0  0  0  0  0  0  0  0  0  0  0  0
  152.6040  143.1246  159.7033 C   0  0  0  0  0  0  0  0  0  0  0  0
  153.1517  141.7330  159.9952 C   0  0  0  0  0  0  0  0  0  0  0  0
  154.3390  136.4568  159.1960 C   0  0  0  0  0  0  0  0  0  0  0  0
  153.5604  136.2503  160.1279 O   0  0  0  0  0  0  0  0  0  0  0  0
  155.0028  135.3920  158.4401 C   0  0  0  0  0  0  0  0  0  0  0  0
  154.6882  134.0616  158.8502 C   0  0  0  0  0  0  0  0  0  0  0  0
  154.4135  132.9892  159.1886 N   0  0  0  0  0  0  0  0  0  0  0  0
  155.8584  135.6532  157.4203 C   0  0  0  0  0  0  0  0  0  0  0  0
  156.5737  134.5838  156.6057 C   0  0  0  0  0  0  0  0  0  0  0  0
  156.7054  137.1056  155.0099 H   0  0  0  0  0  0  0  0  0  0  0  0
  158.0576  137.0755  156.1437 H   0  0  0  0  0  0  0  0  0  0  0  0
  157.1379  138.5564  155.9066 H   0  0  0  0  0  0  0  0  0  0  0  0
  153.8825  139.6276  158.6263 H   0  0  0  0  0  0  0  0  0  0  0  0
  153.1304  138.7072  159.8789 H   0  0  0  0  0  0  0  0  0  0  0  0
  155.7578  140.2112  159.9014 H   0  0  0  0  0  0  0  0  0  0  0  0
  156.7257  138.5810  160.7655 H   0  0  0  0  0  0  0  0  0  0  0  0
  153.4448  139.7008  161.8298 H   0  0  0  0  0  0  0  0  0  0  0  0
  154.9680  140.2776  162.4346 H   0  0  0  0  0  0  0  0  0  0  0  0
  152.1699  141.7000  162.3932 H   0  0  0  0  0  0  0  0  0  0  0  0
  153.6295  142.0465  163.2901 H   0  0  0  0  0  0  0  0  0  0  0  0
  152.1752  144.0810  162.8779 H   0  0  0  0  0  0  0  0  0  0  0  0
  153.8369  144.2571  162.3508 H   0  0  0  0  0  0  0  0  0  0  0  0
  151.8085  146.0705  161.2615 H   0  0  0  0  0  0  0  0  0  0  0  0
  151.1087  146.6491  158.9491 H   0  0  0  0  0  0  0  0  0  0  0  0
  151.3578  144.9851  157.1176 H   0  0  0  0  0  0  0  0  0  0  0  0
  152.3030  142.7389  157.5950 H   0  0  0  0  0  0  0  0  0  0  0  0
  153.7719  141.4387  159.1495 H   0  0  0  0  0  0  0  0  0  0  0  0
  152.3084  141.0415  160.0261 H   0  0  0  0  0  0  0  0  0  0  0  0
  156.2744  133.5763  156.8930 H   0  0  0  0  0  0  0  0  0  0  0  0
  157.6528  134.6580  156.7432 H   0  0  0  0  0  0  0  0  0  0  0  0
  156.3535  134.6971  155.5436 H   0  0  0  0  0  0  0  0  0  0  0  0
  1  2  1  0  0  0  0
  1 26  1  0  0  0  0
  1 27  1  0  0  0  0
  1 28  1  0  0  0  0
  2 24  1  0  0  0  0
  2  3  2  0  0  0  0
  3  4  1  0  0  0  0
  4  5  1  0  0  0  0
  4 19  1  0  0  0  0
  5  6  1  0  0  0  0
  5 29  1  0  0  0  0
  5 30  1  0  0  0  0
  6  7  1  0  0  0  0
  6  8  1  0  0  0  0
  6 31  1  0  0  0  0
  7 32  1  0  0  0  0
  8  9  1  0  0  0  0
  8 33  1  0  0  0  0
  8 34  1  0  0  0  0
  9 18  1  0  0  0  0
  9 10  1  0  0  0  0
 10 11  1  0  0  0  0
 10 35  1  0  0  0  0
 10 36  1  0  0  0  0
 11 12  1  0  0  0  0
 11 37  1  0  0  0  0
 11 38  1  0  0  0  0
 12 17  2  0  0  0  0
 12 13  1  0  0  0  0
 13 14  2  0  0  0  0
 13 39  1  0  0  0  0
 14 15  1  0  0  0  0
 14 40  1  0  0  0  0
 15 16  2  0  0  0  0
 15 41  1  0  0  0  0
 16 17  1  0  0  0  0
 16 42  1  0  0  0  0
 17 18  1  0  0  0  0
 18 43  1  0  0  0  0
 18 44  1  0  0  0  0
 19 20  2  0  0  0  0
 19 21  1  0  0  0  0
 21 22  1  0  0  0  0
 21 24  2  0  0  0  0
 22 23  3  0  0  0  0
 24 25  1  0  0  0  0
 25 45  1  0  0  0  0
 25 46  1  0  0  0  0
 25 47  1  0  0  0  0
M  END
> <s_m_source_file>
AV-unprocessed.smi

> <i_m_source_file_index>
1870

> <i_lp_mmshare_version>
43012

> <i_f3d_flags>
0

> <s_epik_input>
TiNDYyhjMVtDSDNdKWMoPU8pbihuYzFbQ0gzXSlbQ0gyXVtDQEhdKFtPSF0pW0NIMl1OKFtDSDJdW0NIMl0yKVtDSDJdYyhjMjMpW2NIXVtjSF1bY0hdW2NIXTM=

> <s_epik_cmdline>
J2VwaWtfcHl0aG9uJywgJy1waCcsICc3LjAnLCAnLXRuJywgJzgnLCAnLW1hJywgJzIwMCcsICctbWV0YWxfYmluZGluZycsICctaW1hZScsICc8aW5maWxlLm1hZT4nLCAnLW9tYWUnLCAnPG91dGZpbGUubWFlPic=

> <r_epik_Ionization_Penalty>
2.30251

> <r_epik_Ionization_Penalty_Charging>
1.06171e-10

> <r_epik_Ionization_Penalty_Neutral>
2.30251

> <r_epik_State_Penalty>
2.45335

> <r_epik_Charging_Adjusted_Penalty>
2.45335

> <i_epik_Tot_Q>
0

> <i_epik_Tot_abs_Q>
0

> <r_epik_Metal_State_Penalty>
2.45335

> <b_epik_Metal_Only>
0

> <s_lp_Force_Field>
OPLS_2005

> <r_lp_Energy>
46.0919

> <b_lp_Chiralities_Consistent>
1

> <s_lp_Variant>
AV-unprocessed.smi:1870-5

> <Gold.Version>
5.8.1

> <Gold.Id.Protein>
6NUR|6NUR_protein|mol2

> <Gold.PLP.Fitness>
50.6799

> <Gold.PLP.PLP>
-47.5106

> <Gold.PLP.part.hbond>
-2.0269

> <Gold.PLP.part.metal>
0.0000

> <Gold.PLP.part.buried>
-5.5055

> <Gold.PLP.part.nonpolar>
-38.2803

> <Gold.PLP.part.repulsive>
0.0238

> <Gold.PLP.ligand.clash>
0.0000

> <Gold.PLP.ligand.torsion>
0.8618

> <Gold.PLP.Chemscore.Hbond>
1.6240

> <Gold.PLP.Chemscore.CHOScore>
0.0000

> <Gold.PLP.Chemscore.Metal>
0.0000

> <Gold.Chemscore.Hbonds>
donor molecule, donor type, donor heavy atom, donor atom, acceptor molecule, acceptor atom, score
      P1  H  6896  6909       L1    20  1.00
      P1  H  7997  8009       L1     3  0.59

> <Gold.PLP.Chemscore.Internal.Correction>
0.0210

> <Gold.Rescore>
     Score         DG    S(hbond)    S(metal)    S(lipo)     H(rot)  DE(clash)    DE(int)     intcor
     20.51     -21.96       1.58        0.00     141.64       2.10       0.04       1.40       ----

> <Gold.Chemscore.Fitness>
20.5135

> <Gold.Chemscore.DG>
-21.9557

> <Gold.Chemscore.ZeroCoef>
-5.4800

> <Gold.Chemscore.Hbond>
1.5785

> <Gold.Chemscore.Metal>
0.0000

> <Gold.Chemscore.Lipo>
141.6410

> <Gold.Chemscore.Internal_Hbond>
0.0000

> <Gold.Chemscore.DEClash>
0.0391

> <Gold.Chemscore.DEInternal>
1.4031

> <Gold.Chemscore.Rot>
2.0971

> <Gold.Chemscore.Internal.Correction>
   9.000000E+99

> <Gold.Chemscore.Hbonds>
donor molecule, donor type, donor heavy atom, donor atom, acceptor molecule, acceptor atom, score
      P1  H  6896  6909       L1    20  0.98
      P1  H  7997  8009       L1     3  0.39

> <Gold.Chemscore.Hbond.Weighted>
-5.2722

> <Gold.Chemscore.Metal.Weighted>
-0.0000

> <Gold.Chemscore.Lipo.Weighted>
-16.5720

> <Gold.Chemscore.Internal_Hbond.Weighted>
0.0000

> <Gold.Chemscore.DEClash.Weighted>
0.0391

> <Gold.Chemscore.DEInternal.Weighted>
1.4031

> <Gold.Chemscore.Rot.Weighted>
5.3685

> <Gold.Chemscore.Internal.Correction.Weighted>
   9.000000E+99

> <Gold.Protein.RotatedTorsions>
[ 6907 6896 6895 6894 ] final  168.38 input  -60.11 | X-H torsion
[ 7974 7965 7964 7962 ] final  -51.46 input  175.53 | X-H torsion
[ 8008 7997 7996 7995 ] final  101.90 input   59.86 | X-H torsion
[ 10167 10162 10161 10158 ] final -179.91 input  -65.29 | X-H torsion
[ 10718 10713 10712 10709 ] final   -3.49 input   66.30 | X-H torsion
[ 10763 10752 10751 10750 ] final -105.28 input  -60.55 | X-H torsion
[ 11005 11000 10999 10996 ] final  162.16 input  -57.11 | X-H torsion

> <Gold.Protein.ActiveResidues>
 VAL166  LYS551  ARG553  GLY616  TRP617  ASP618  TYR619  PRO620  LYS621  CYS622 
 ASP623  PHE694  ASN695  SER759  ASP760  ASP761  ALA762  ILE779  LEU786  VAL792 
 PHE793  MET794  SER795  GLU796  ALA797  LYS798  CYS799  TRP800  GLU811  SER814 

> <Gold.Protein.RotatedAtoms>
  151.8486  133.3436  159.3665 H   0  0  0  0  0  0  0  0  0  0  0  0  # atno 6907 bound_to 6896
  150.7213  134.5321  159.5715 H   0  0  0  0  0  0  0  0  0  0  0  0  # atno 6908 bound_to 6896
  152.2810  134.7829  160.0447 H   0  0  0  0  0  0  0  0  0  0  0  0  # atno 6909 bound_to 6896
  145.9187  140.7853  142.9658 H   0  0  0  0  0  0  0  0  0  0  0  0  # atno 7974 bound_to 7965
  156.1343  140.3190  155.8396 H   0  0  0  0  0  0  0  0  0  0  0  0  # atno 8008 bound_to 7997
  155.4274  140.0516  157.3038 H   0  0  0  0  0  0  0  0  0  0  0  0  # atno 8009 bound_to 7997
  154.4924  140.2097  155.9533 H   0  0  0  0  0  0  0  0  0  0  0  0  # atno 8010 bound_to 7997
  139.5365  144.2482  152.0805 H   0  0  0  0  0  0  0  0  0  0  0  0  # atno 10167 bound_to 10162
  156.7753  130.5313  149.5760 H   0  0  0  0  0  0  0  0  0  0  0  0  # atno 10718 bound_to 10713
  154.7936  135.4755  154.0109 H   0  0  0  0  0  0  0  0  0  0  0  0  # atno 10763 bound_to 10752
  153.1669  135.6818  153.8670 H   0  0  0  0  0  0  0  0  0  0  0  0  # atno 10764 bound_to 10752
  153.8265  135.3197  155.3393 H   0  0  0  0  0  0  0  0  0  0  0  0  # atno 10765 bound_to 10752
  140.2230  134.8182  157.3239 H   0  0  0  0  0  0  0  0  0  0  0  0  # atno 11005 bound_to 11000
  144.6750  140.1940  143.7394 LP  0  0  0  0  0  0  0  0  0  0  0  0  # atno 17320 bound_to 7965
  145.8578  139.2208  143.1734 LP  0  0  0  0  0  0  0  0  0  0  0  0  # atno 17321 bound_to 7965
  140.1954  144.4711  150.6458 LP  0  0  0  0  0  0  0  0  0  0  0  0  # atno 17342 bound_to 10162
  140.6574  143.2242  151.5936 LP  0  0  0  0  0  0  0  0  0  0  0  0  # atno 17343 bound_to 10162
  156.1252  130.6138  151.0253 LP  0  0  0  0  0  0  0  0  0  0  0  0  # atno 17370 bound_to 10713
  157.6672  131.0869  150.7700 LP  0  0  0  0  0  0  0  0  0  0  0  0  # atno 17371 bound_to 10713
  140.1830  134.4466  155.7760 LP  0  0  0  0  0  0  0  0  0  0  0  0  # atno 17394 bound_to 11000
  141.2222  133.6992  156.7900 LP  0  0  0  0  0  0  0  0  0  0  0  0  # atno 17395 bound_to 11000

$$$$
