AV-unprocessed.smi:3274|AV-procd|sdf|12529|dock3
  -GOLD-   2272018443D 1   1.00000     0.00000
 Structure written by MMmdl.
 43 44  0  0  0  0  0  0  0  0  2 V2000
  152.7932  140.6052  159.9201 C   0  0  0  0  0  0  0  0  0  0  0  0
  152.5148  142.0881  160.1038 C   0  0  0  0  0  0  0  0  0  0  0  0
  152.5901  142.6575  161.3231 C   0  0  0  0  0  0  0  0  0  0  0  0
  152.3792  144.1351  161.6048 C   0  0  0  0  0  0  0  0  0  0  0  0
  151.8826  144.9195  160.3789 C   0  0  0  0  0  0  0  0  0  0  0  0
  152.5298  144.4048  159.0818 C   0  0  2  0  0  0  0  0  0  0  0  0
  152.2334  145.3222  157.8828 C   0  0  0  0  0  0  0  0  0  0  0  0
  152.1895  142.9059  158.8465 C   0  0  2  0  0  0  0  0  0  0  0  0
  150.7301  142.6807  158.3721 C   0  0  0  0  0  0  0  0  0  0  0  0
  150.6067  142.6671  156.8991 N   0  3  0  0  0  0  0  0  0  0  0  0
  150.4214  141.3324  156.2891 C   0  0  1  0  0  0  0  0  0  0  0  0
  149.7091  141.4894  154.9349 C   0  0  0  0  0  0  0  0  0  0  0  0
  151.7758  140.5965  156.1688 C   0  0  0  0  0  0  0  0  0  0  0  0
  151.6561  139.2847  155.5589 N   0  0  0  0  0  0  0  0  0  0  0  0
  152.0542  138.0871  155.9915 C   0  0  0  0  0  0  0  0  0  0  0  0
  151.7742  137.0965  155.1564 N   0  0  0  0  0  0  0  0  0  0  0  0
  151.1666  137.8040  154.1577 C   0  0  0  0  0  0  0  0  0  0  0  0
  151.0705  139.1199  154.3499 N   0  0  0  0  0  0  0  0  0  0  0  0
  153.4937  140.4452  159.1002 H   0  0  0  0  0  0  0  0  0  0  0  0
  151.8801  140.0493  159.7145 H   0  0  0  0  0  0  0  0  0  0  0  0
  153.2350  140.1760  160.8201 H   0  0  0  0  0  0  0  0  0  0  0  0
  152.8446  142.0515  162.1807 H   0  0  0  0  0  0  0  0  0  0  0  0
  151.6806  144.2516  162.4337 H   0  0  0  0  0  0  0  0  0  0  0  0
  153.3340  144.5427  161.9384 H   0  0  0  0  0  0  0  0  0  0  0  0
  150.7977  144.8393  160.3066 H   0  0  0  0  0  0  0  0  0  0  0  0
  152.0962  145.9798  160.5190 H   0  0  0  0  0  0  0  0  0  0  0  0
  153.6103  144.4576  159.2281 H   0  0  0  0  0  0  0  0  0  0  0  0
  151.1639  145.4676  157.7324 H   0  0  0  0  0  0  0  0  0  0  0  0
  152.6554  144.9182  156.9624 H   0  0  0  0  0  0  0  0  0  0  0  0
  152.6707  146.3091  158.0368 H   0  0  0  0  0  0  0  0  0  0  0  0
  152.8559  142.5588  158.0552 H   0  0  0  0  0  0  0  0  0  0  0  0
  150.3512  141.7466  158.7853 H   0  0  0  0  0  0  0  0  0  0  0  0
  150.0754  143.4730  158.7317 H   0  0  0  0  0  0  0  0  0  0  0  0
  149.8049  143.2336  156.6615 H   0  0  0  0  0  0  0  0  0  0  0  0
  149.7599  140.7538  156.9359 H   0  0  0  0  0  0  0  0  0  0  0  0
  149.4555  140.5224  154.4996 H   0  0  0  0  0  0  0  0  0  0  0  0
  150.3332  142.0236  154.2177 H   0  0  0  0  0  0  0  0  0  0  0  0
  148.7771  142.0450  155.0440 H   0  0  0  0  0  0  0  0  0  0  0  0
  152.4750  141.1926  155.5797 H   0  0  0  0  0  0  0  0  0  0  0  0
  152.2355  140.4625  157.1479 H   0  0  0  0  0  0  0  0  0  0  0  0
  152.5560  137.9363  156.9361 H   0  0  0  0  0  0  0  0  0  0  0  0
  150.7836  137.3358  153.2630 H   0  0  0  0  0  0  0  0  0  0  0  0
  151.4281  143.0935  156.4945 H   0  0  0  0  0  0  0  0  0  0  0  0
  1  2  1  0  0  0  0
  1 19  1  0  0  0  0
  1 20  1  0  0  0  0
  1 21  1  0  0  0  0
  2  8  1  0  0  0  0
  2  3  2  0  0  0  0
  3  4  1  0  0  0  0
  3 22  1  0  0  0  0
  4  5  1  0  0  0  0
  4 23  1  0  0  0  0
  4 24  1  0  0  0  0
  5  6  1  0  0  0  0
  5 25  1  0  0  0  0
  5 26  1  0  0  0  0
  6  7  1  0  0  0  0
  6  8  1  0  0  0  0
  6 27  1  0  0  0  0
  7 28  1  0  0  0  0
  7 29  1  0  0  0  0
  7 30  1  0  0  0  0
  8  9  1  0  0  0  0
  8 31  1  0  0  0  0
  9 10  1  0  0  0  0
  9 32  1  0  0  0  0
  9 33  1  0  0  0  0
 10 11  1  0  0  0  0
 10 34  1  0  0  0  0
 10 43  1  0  0  0  0
 11 12  1  0  0  0  0
 11 13  1  0  0  0  0
 11 35  1  0  0  0  0
 12 36  1  0  0  0  0
 12 37  1  0  0  0  0
 12 38  1  0  0  0  0
 13 14  1  0  0  0  0
 13 39  1  0  0  0  0
 13 40  1  0  0  0  0
 14 18  1  0  0  0  0
 14 15  1  0  0  0  0
 15 16  2  0  0  0  0
 15 41  1  0  0  0  0
 16 17  1  0  0  0  0
 17 18  2  0  0  0  0
 17 42  1  0  0  0  0
M  CHG  1  10   1
M  END
> <s_m_source_file>
AV-unprocessed.smi

> <i_m_source_file_index>
3274

> <i_lp_mmshare_version>
43012

> <i_f3d_flags>
0

> <s_epik_input>
W0NIM11DMT1bQ0hdW0NIMl1bQ0gyXVtDQEBIXShbQ0gzXSlbQ0BIXTFbQ0gyXVtOSF1bQ0BIXShbQ0gzXSlbQ0gyXW4yW2NIXW5bY0hdbjI=

> <s_epik_cmdline>
J2VwaWtfcHl0aG9uJywgJy1waCcsICc3LjAnLCAnLXRuJywgJzgnLCAnLW1hJywgJzIwMCcsICctbWV0YWxfYmluZGluZycsICctaW1hZScsICc8aW5maWxlLm1hZT4nLCAnLW9tYWUnLCAnPG91dGZpbGUubWFlPic=

> <r_lp_tautomer_probability>
1

> <r_epik_Ionization_Penalty>
0.0017527

> <r_epik_Ionization_Penalty_Charging>
0.00175191

> <r_epik_Ionization_Penalty_Neutral>
7.94565e-07

> <r_epik_State_Penalty>
0.00118605

> <r_epik_Charging_Adjusted_Penalty>
0.00293796

> <i_epik_Tot_Q>
1

> <i_epik_Tot_abs_Q>
1

> <r_epik_Metal_State_Penalty>
-0

> <b_epik_Metal_Only>
0

> <s_lp_Force_Field>
OPLS_2005

> <r_lp_Energy>
19.123

> <b_lp_Chiralities_Consistent>
1

> <s_lp_Variant>
AV-unprocessed.smi:3274-8

> <Gold.Version>
5.8.1

> <Gold.Id.Protein>
6NUR|6NUR_protein|mol2

> <Gold.PLP.Fitness>
59.1829

> <Gold.PLP.PLP>
-45.9633

> <Gold.PLP.part.hbond>
-3.0000

> <Gold.PLP.part.metal>
0.0000

> <Gold.PLP.part.buried>
-4.2374

> <Gold.PLP.part.nonpolar>
-38.1547

> <Gold.PLP.part.repulsive>
0.2763

> <Gold.PLP.ligand.clash>
0.0000

> <Gold.PLP.ligand.torsion>
1.0456

> <Gold.PLP.Chemscore.Hbond>
3.9825

> <Gold.PLP.Chemscore.CHOScore>
1.0555

> <Gold.PLP.Chemscore.Metal>
0.0000

> <Gold.Chemscore.Hbonds>
donor molecule, donor type, donor heavy atom, donor atom, acceptor molecule, acceptor atom, score
      L1  H    10    34       P1  8028  2.00
      P1  H  7989  7998       L1    18  0.95
      P1  H 10752 10764       L1    16  1.00
      L1  C    17    42       P1  7948  0.25
      L1  C    17    42       P1  7949  0.79

> <Gold.PLP.Chemscore.Internal.Correction>
0.1967

> <Gold.Rescore>
     Score         DG    S(hbond)    S(metal)    S(lipo)     H(rot)  DE(clash)    DE(int)     intcor
     17.99     -21.91       2.37        0.00     124.38       2.36       1.65       2.27       ----

> <Gold.Chemscore.Fitness>
17.9877

> <Gold.Chemscore.DG>
-21.9069

> <Gold.Chemscore.ZeroCoef>
-5.4800

> <Gold.Chemscore.Hbond>
2.3713

> <Gold.Chemscore.Metal>
0.0000

> <Gold.Chemscore.Lipo>
124.3780

> <Gold.Chemscore.Internal_Hbond>
0.0000

> <Gold.Chemscore.DEClash>
1.6502

> <Gold.Chemscore.DEInternal>
2.2690

> <Gold.Chemscore.Rot>
2.3615

> <Gold.Chemscore.Internal.Correction>
   9.000000E+99

> <Gold.Chemscore.Hbonds>
donor molecule, donor type, donor heavy atom, donor atom, acceptor molecule, acceptor atom, score
      L1  H    10    34       P1  8028  0.92
      P1  H  7989  7998       L1    18  0.20
      P1  H 10752 10764       L1    16  0.85

> <Gold.Chemscore.Hbond.Weighted>
-7.9201

> <Gold.Chemscore.Metal.Weighted>
-0.0000

> <Gold.Chemscore.Lipo.Weighted>
-14.5522

> <Gold.Chemscore.Internal_Hbond.Weighted>
0.0000

> <Gold.Chemscore.DEClash.Weighted>
1.6502

> <Gold.Chemscore.DEInternal.Weighted>
2.2690

> <Gold.Chemscore.Rot.Weighted>
6.0454

> <Gold.Chemscore.Internal.Correction.Weighted>
   9.000000E+99

> <Gold.Protein.RotatedTorsions>
[ 6907 6896 6895 6894 ] final  102.21 input  -60.11 | X-H torsion
[ 7974 7965 7964 7962 ] final -128.06 input  175.53 | X-H torsion
[ 8008 7997 7996 7995 ] final -167.57 input   59.86 | X-H torsion
[ 10167 10162 10161 10158 ] final  -32.90 input  -65.29 | X-H torsion
[ 10718 10713 10712 10709 ] final -154.29 input   66.30 | X-H torsion
[ 10763 10752 10751 10750 ] final  -62.37 input  -60.55 | X-H torsion
[ 11005 11000 10999 10996 ] final   -6.17 input  -57.11 | X-H torsion

> <Gold.Protein.ActiveResidues>
 VAL166  LYS551  ARG553  GLY616  TRP617  ASP618  TYR619  PRO620  LYS621  CYS622 
 ASP623  PHE694  ASN695  SER759  ASP760  ASP761  ALA762  ILE779  LEU786  VAL792 
 PHE793  MET794  SER795  GLU796  ALA797  LYS798  CYS799  TRP800  GLU811  SER814 

> <Gold.Protein.RotatedAtoms>
  152.5330  134.0010  159.7894 H   0  0  0  0  0  0  0  0  0  0  0  0  # atno 6907 bound_to 6896
  151.0229  133.5852  159.2676 H   0  0  0  0  0  0  0  0  0  0  0  0  # atno 6908 bound_to 6896
  151.2885  135.0742  159.9249 H   0  0  0  0  0  0  0  0  0  0  0  0  # atno 6909 bound_to 6896
  144.9708  140.7543  143.4672 H   0  0  0  0  0  0  0  0  0  0  0  0  # atno 7974 bound_to 7965
  155.8795  140.1006  157.1495 H   0  0  0  0  0  0  0  0  0  0  0  0  # atno 8008 bound_to 7997
  154.4004  140.1332  156.4241 H   0  0  0  0  0  0  0  0  0  0  0  0  # atno 8009 bound_to 7997
  155.7659  140.3462  155.5224 H   0  0  0  0  0  0  0  0  0  0  0  0  # atno 8010 bound_to 7997
  140.7213  143.3660  151.1869 H   0  0  0  0  0  0  0  0  0  0  0  0  # atno 10167 bound_to 10162
  156.4973  130.8375  151.2595 H   0  0  0  0  0  0  0  0  0  0  0  0  # atno 10718 bound_to 10713
  154.2988  135.6239  153.5416 H   0  0  0  0  0  0  0  0  0  0  0  0  # atno 10763 bound_to 10752
  152.9843  135.5673  154.5308 H   0  0  0  0  0  0  0  0  0  0  0  0  # atno 10764 bound_to 10752
  154.4934  135.2868  155.1455 H   0  0  0  0  0  0  0  0  0  0  0  0  # atno 10765 bound_to 10752
  140.6991  133.9005  155.8670 H   0  0  0  0  0  0  0  0  0  0  0  0  # atno 11005 bound_to 11000
  145.2562  139.2011  143.4916 LP  0  0  0  0  0  0  0  0  0  0  0  0  # atno 17320 bound_to 7965
  146.3381  140.2484  142.8598 LP  0  0  0  0  0  0  0  0  0  0  0  0  # atno 17321 bound_to 7965
  139.7222  143.9205  152.2989 LP  0  0  0  0  0  0  0  0  0  0  0  0  # atno 17342 bound_to 10162
  139.8966  144.6936  150.8711 LP  0  0  0  0  0  0  0  0  0  0  0  0  # atno 17343 bound_to 10162
  157.7467  130.9993  150.2885 LP  0  0  0  0  0  0  0  0  0  0  0  0  # atno 17370 bound_to 10713
  156.3367  130.3809  149.7444 LP  0  0  0  0  0  0  0  0  0  0  0  0  # atno 17371 bound_to 10713
  141.0179  134.0930  157.4153 LP  0  0  0  0  0  0  0  0  0  0  0  0  # atno 17394 bound_to 11000
  139.8902  135.0110  156.6721 LP  0  0  0  0  0  0  0  0  0  0  0  0  # atno 17395 bound_to 11000

$$$$
