AV-unprocessed.smi:937|AV-procd|sdf|4213|dock4
  -GOLD-   22720 2123D 1   1.00000     0.00000
 Structure written by MMmdl.
 46 47  0  0  0  0  0  0  0  0  2 V2000
  151.1873  143.3605  158.5988 C   0  0  0  0  0  0  0  0  0  0  0  0
  151.0253  142.2646  157.5667 C   0  0  0  0  0  0  0  0  0  0  0  0
  151.7195  141.0393  157.6593 C   0  0  0  0  0  0  0  0  0  0  0  0
  151.5248  140.0609  156.6625 C   0  0  0  0  0  0  0  0  0  0  0  0
  150.6402  140.3266  155.5941 C   0  0  0  0  0  0  0  0  0  0  0  0
  150.4138  139.2915  154.5102 C   0  0  0  0  0  0  0  0  0  0  0  0
  150.7904  137.8754  154.9748 C   0  0  0  0  0  0  0  0  0  0  0  0
  149.9355  136.8678  154.3598 N   0  0  0  0  0  0  0  0  0  0  0  0
  149.2052  135.9656  155.0371 C   0  0  0  0  0  0  0  0  0  0  0  0
  149.1921  135.8920  156.2646 O   0  0  0  0  0  0  0  0  0  0  0  0
  148.4772  135.1352  154.2698 N   0  0  0  0  0  0  0  0  0  0  0  0
  147.5828  134.0500  154.6862 C   0  0  2  0  0  0  0  0  0  0  0  0
  148.3541  132.7297  154.9008 C   0  0  0  0  0  0  0  0  0  0  0  0
  148.8688  132.1400  153.5776 C   0  0  0  0  0  0  0  0  0  0  0  0
  147.7255  131.9524  152.5682 C   0  0  0  0  0  0  0  0  0  0  0  0
  146.9677  133.2717  152.3111 C   0  0  1  0  0  0  0  0  0  0  0  0
  145.8273  133.0940  151.2876 C   0  0  0  0  0  0  0  0  0  0  0  0
  145.1780  134.2427  151.0955 F   0  0  0  0  0  0  0  0  0  0  0  0
  146.3217  132.6783  150.1217 F   0  0  0  0  0  0  0  0  0  0  0  0
  144.9623  132.1775  151.7225 F   0  0  0  0  0  0  0  0  0  0  0  0
  146.4594  133.8631  153.6465 C   0  0  0  0  0  0  0  0  0  0  0  0
  149.9759  141.5711  155.5513 C   0  0  0  0  0  0  0  0  0  0  0  0
  150.1899  142.4826  156.5256 N   0  3  0  0  0  0  0  0  0  0  0  0
  151.5001  142.9457  159.5577 H   0  0  0  0  0  0  0  0  0  0  0  0
  150.2483  143.8938  158.7515 H   0  0  0  0  0  0  0  0  0  0  0  0
  151.9419  144.0768  158.2730 H   0  0  0  0  0  0  0  0  0  0  0  0
  152.3936  140.8492  158.4820 H   0  0  0  0  0  0  0  0  0  0  0  0
  152.0500  139.1180  156.7181 H   0  0  0  0  0  0  0  0  0  0  0  0
  149.3659  139.3267  154.2090 H   0  0  0  0  0  0  0  0  0  0  0  0
  150.9953  139.5627  153.6277 H   0  0  0  0  0  0  0  0  0  0  0  0
  151.8245  137.6568  154.7073 H   0  0  0  0  0  0  0  0  0  0  0  0
  150.7279  137.7996  156.0618 H   0  0  0  0  0  0  0  0  0  0  0  0
  149.8921  136.8544  153.3511 H   0  0  0  0  0  0  0  0  0  0  0  0
  148.5678  135.2613  153.2720 H   0  0  0  0  0  0  0  0  0  0  0  0
  147.1072  134.3348  155.6261 H   0  0  0  0  0  0  0  0  0  0  0  0
  149.1855  132.8748  155.5911 H   0  0  0  0  0  0  0  0  0  0  0  0
  147.6925  132.0051  155.3771 H   0  0  0  0  0  0  0  0  0  0  0  0
  149.6308  132.7942  153.1522 H   0  0  0  0  0  0  0  0  0  0  0  0
  149.3565  131.1832  153.7650 H   0  0  0  0  0  0  0  0  0  0  0  0
  148.1307  131.5646  151.6331 H   0  0  0  0  0  0  0  0  0  0  0  0
  147.0343  131.1956  152.9413 H   0  0  0  0  0  0  0  0  0  0  0  0
  147.6768  133.9796  151.8790 H   0  0  0  0  0  0  0  0  0  0  0  0
  145.6996  133.2016  154.0648 H   0  0  0  0  0  0  0  0  0  0  0  0
  145.9613  134.8172  153.4704 H   0  0  0  0  0  0  0  0  0  0  0  0
  149.2856  141.8642  154.7735 H   0  0  0  0  0  0  0  0  0  0  0  0
  149.6988  143.3755  156.4733 H   0  0  0  0  0  0  0  0  0  0  0  0
  1  2  1  0  0  0  0
  1 24  1  0  0  0  0
  1 25  1  0  0  0  0
  1 26  1  0  0  0  0
  2 23  1  0  0  0  0
  2  3  2  0  0  0  0
  3  4  1  0  0  0  0
  3 27  1  0  0  0  0
  4  5  2  0  0  0  0
  4 28  1  0  0  0  0
  5  6  1  0  0  0  0
  5 22  1  0  0  0  0
  6  7  1  0  0  0  0
  6 29  1  0  0  0  0
  6 30  1  0  0  0  0
  7  8  1  0  0  0  0
  7 31  1  0  0  0  0
  7 32  1  0  0  0  0
  8  9  1  0  0  0  0
  8 33  1  0  0  0  0
  9 10  2  0  0  0  0
  9 11  1  0  0  0  0
 11 12  1  0  0  0  0
 11 34  1  0  0  0  0
 12 21  1  0  0  0  0
 12 13  1  0  0  0  0
 12 35  1  0  0  0  0
 13 14  1  0  0  0  0
 13 36  1  0  0  0  0
 13 37  1  0  0  0  0
 14 15  1  0  0  0  0
 14 38  1  0  0  0  0
 14 39  1  0  0  0  0
 15 16  1  0  0  0  0
 15 40  1  0  0  0  0
 15 41  1  0  0  0  0
 16 17  1  0  0  0  0
 16 21  1  0  0  0  0
 16 42  1  0  0  0  0
 17 18  1  0  0  0  0
 17 19  1  0  0  0  0
 17 20  1  0  0  0  0
 21 43  1  0  0  0  0
 21 44  1  0  0  0  0
 22 23  2  0  0  0  0
 22 45  1  0  0  0  0
 23 46  1  0  0  0  0
M  CHG  1  23   1
M  END
> <s_m_source_file>
AV-unprocessed.smi

> <i_m_source_file_index>
937

> <i_lp_mmshare_version>
43012

> <i_f3d_flags>
0

> <s_epik_input>
W0NIM11jMVtjSF1bY0hdYyhbY0hdbjEpW0NIMl1bQ0gyXVtOSF1DKD1PKVtOSF1bQ0BASF0yW0NIMl1bQ0gyXVtDSDJdW0NAQEhdKEMoRikoRilGKVtDSDJdMg==

> <s_epik_cmdline>
J2VwaWtfcHl0aG9uJywgJy1waCcsICc3LjAnLCAnLXRuJywgJzgnLCAnLW1hJywgJzIwMCcsICctbWV0YWxfYmluZGluZycsICctaW1hZScsICc8aW5maWxlLm1hZT4nLCAnLW9tYWUnLCAnPG91dGZpbGUubWFlPic=

> <r_epik_Ionization_Penalty>
1.4226

> <r_epik_Ionization_Penalty_Charging>
1.42255

> <r_epik_Ionization_Penalty_Neutral>
5.16456e-05

> <r_epik_State_Penalty>
1.50646

> <r_epik_Charging_Adjusted_Penalty>
2.92901

> <i_epik_Tot_Q>
1

> <i_epik_Tot_abs_Q>
1

> <r_epik_Metal_State_Penalty>
1.55846

> <b_epik_Metal_Only>
0

> <s_lp_Force_Field>
OPLS_2005

> <r_lp_Energy>
23.8668

> <b_lp_Chiralities_Consistent>
1

> <s_lp_Variant>
AV-unprocessed.smi:937-5

> <Gold.Version>
5.8.1

> <Gold.Id.Protein>
6NUR|6NUR_protein|mol2

> <Gold.PLP.Fitness>
49.9840

> <Gold.PLP.PLP>
-39.8709

> <Gold.PLP.part.hbond>
-3.3404

> <Gold.PLP.part.metal>
0.0000

> <Gold.PLP.part.buried>
-2.3457

> <Gold.PLP.part.nonpolar>
-34.7452

> <Gold.PLP.part.repulsive>
0.1387

> <Gold.PLP.ligand.clash>
0.0000

> <Gold.PLP.ligand.torsion>
0.9094

> <Gold.PLP.Chemscore.Hbond>
3.9600

> <Gold.PLP.Chemscore.CHOScore>
0.0000

> <Gold.PLP.Chemscore.Metal>
0.0000

> <Gold.Chemscore.Hbonds>
donor molecule, donor type, donor heavy atom, donor atom, acceptor molecule, acceptor atom, score
      L1  H     8    33       P1  7948  0.94
      L1  H    11    34       P1  7948  1.00
      L1  H    23    46       P1  8028  2.00

> <Gold.PLP.Chemscore.Internal.Correction>
0.0519

> <Gold.Rescore>
     Score         DG    S(hbond)    S(metal)    S(lipo)     H(rot)  DE(clash)    DE(int)     intcor
     18.01     -19.05       2.10        0.00      92.26       1.66       0.10       0.94       ----

> <Gold.Chemscore.Fitness>
18.0134

> <Gold.Chemscore.DG>
-19.0485

> <Gold.Chemscore.ZeroCoef>
-5.4800

> <Gold.Chemscore.Hbond>
2.1016

> <Gold.Chemscore.Metal>
0.0000

> <Gold.Chemscore.Lipo>
92.2624

> <Gold.Chemscore.Internal_Hbond>
0.0000

> <Gold.Chemscore.DEClash>
0.0984

> <Gold.Chemscore.DEInternal>
0.9366

> <Gold.Chemscore.Rot>
1.6585

> <Gold.Chemscore.Internal.Correction>
   9.000000E+99

> <Gold.Chemscore.Hbonds>
donor molecule, donor type, donor heavy atom, donor atom, acceptor molecule, acceptor atom, score
      L1  H     8    33       P1  7948  0.23
      L1  H    11    34       P1  7948  0.85
      L1  H    23    46       P1  8028  0.99

> <Gold.Chemscore.Hbond.Weighted>
-7.0195

> <Gold.Chemscore.Metal.Weighted>
-0.0000

> <Gold.Chemscore.Lipo.Weighted>
-10.7947

> <Gold.Chemscore.Internal_Hbond.Weighted>
0.0000

> <Gold.Chemscore.DEClash.Weighted>
0.0984

> <Gold.Chemscore.DEInternal.Weighted>
0.9366

> <Gold.Chemscore.Rot.Weighted>
4.2457

> <Gold.Chemscore.Internal.Correction.Weighted>
   9.000000E+99

> <Gold.Protein.RotatedTorsions>
[ 6907 6896 6895 6894 ] final  -21.05 input  -60.11 | X-H torsion
[ 7974 7965 7964 7962 ] final  136.12 input  175.53 | X-H torsion
[ 8008 7997 7996 7995 ] final   62.68 input   59.86 | X-H torsion
[ 10167 10162 10161 10158 ] final -107.42 input  -65.29 | X-H torsion
[ 10718 10713 10712 10709 ] final  -61.77 input   66.30 | X-H torsion
[ 10763 10752 10751 10750 ] final  -77.49 input  -60.55 | X-H torsion
[ 11005 11000 10999 10996 ] final  118.59 input  -57.11 | X-H torsion

> <Gold.Protein.ActiveResidues>
 VAL166  LYS551  ARG553  GLY616  TRP617  ASP618  TYR619  PRO620  LYS621  CYS622 
 ASP623  PHE694  ASN695  SER759  ASP760  ASP761  ALA762  ILE779  LEU786  VAL792 
 PHE793  MET794  SER795  GLU796  ALA797  LYS798  CYS799  TRP800  GLU811  SER814 

> <Gold.Protein.RotatedAtoms>
  151.2390  135.0582  159.9017 H   0  0  0  0  0  0  0  0  0  0  0  0  # atno 6907 bound_to 6896
  152.5395  134.0455  159.8097 H   0  0  0  0  0  0  0  0  0  0  0  0  # atno 6908 bound_to 6896
  151.0646  133.5467  159.2663 H   0  0  0  0  0  0  0  0  0  0  0  0  # atno 6909 bound_to 6896
  144.9596  139.4725  143.5486 H   0  0  0  0  0  0  0  0  0  0  0  0  # atno 7974 bound_to 7965
  155.6182  140.3495  155.4644 H   0  0  0  0  0  0  0  0  0  0  0  0  # atno 8008 bound_to 7997
  156.0100  140.1231  157.0487 H   0  0  0  0  0  0  0  0  0  0  0  0  # atno 8009 bound_to 7997
  154.4277  140.1083  156.5802 H   0  0  0  0  0  0  0  0  0  0  0  0  # atno 8010 bound_to 7997
  140.1772  143.3996  152.1309 H   0  0  0  0  0  0  0  0  0  0  0  0  # atno 10167 bound_to 10162
  156.0899  130.4202  150.1041 H   0  0  0  0  0  0  0  0  0  0  0  0  # atno 10718 bound_to 10713
  154.5136  135.5762  153.6624 H   0  0  0  0  0  0  0  0  0  0  0  0  # atno 10763 bound_to 10752
  152.9902  135.6164  154.2847 H   0  0  0  0  0  0  0  0  0  0  0  0  # atno 10764 bound_to 10752
  154.2763  135.2852  155.2696 H   0  0  0  0  0  0  0  0  0  0  0  0  # atno 10765 bound_to 10752
  139.9115  134.9621  156.7526 H   0  0  0  0  0  0  0  0  0  0  0  0  # atno 11005 bound_to 11000
  146.3349  139.8737  142.8836 LP  0  0  0  0  0  0  0  0  0  0  0  0  # atno 17320 bound_to 7965
  145.2720  141.0111  143.3766 LP  0  0  0  0  0  0  0  0  0  0  0  0  # atno 17321 bound_to 7965
  139.5312  144.7161  151.5050 LP  0  0  0  0  0  0  0  0  0  0  0  0  # atno 17342 bound_to 10162
  140.6544  143.8631  150.6819 LP  0  0  0  0  0  0  0  0  0  0  0  0  # atno 17343 bound_to 10162
  156.9054  130.9634  151.3570 LP  0  0  0  0  0  0  0  0  0  0  0  0  # atno 17370 bound_to 10713
  157.6045  130.8537  149.8854 LP  0  0  0  0  0  0  0  0  0  0  0  0  # atno 17371 bound_to 10713
  140.6761  133.9516  155.7884 LP  0  0  0  0  0  0  0  0  0  0  0  0  # atno 17394 bound_to 11000
  141.0543  134.0439  157.3743 LP  0  0  0  0  0  0  0  0  0  0  0  0  # atno 17395 bound_to 11000

$$$$
