AV-unprocessed.smi:1952|AV-procd|sdf|7891|dock9
  -GOLD-   2272010 43D 1   1.00000     0.00000
 Structure written by MMmdl.
 39 40  0  0  0  0  0  0  0  0  3 V2000
  153.5200  143.1649  163.4285 C   0  0  0  0  0  0  0  0  0  0  0  0
  153.2752  142.6007  162.0707 C   0  0  0  0  0  0  0  0  0  0  0  0
  152.5075  143.0153  161.0192 C   0  0  0  0  0  0  0  0  0  0  0  0
  152.7363  142.0136  160.0390 C   0  0  0  0  0  0  0  0  0  0  0  0
  152.0940  142.0775  158.7746 N   0  0  0  0  0  0  0  0  0  0  0  0
  152.1368  141.1913  157.7640 C   0  0  0  0  0  0  0  0  0  0  0  0
  152.8568  140.1887  157.8413 O   0  0  0  0  0  0  0  0  0  0  0  0
  151.3168  141.5402  156.7337 N   0  5  0  0  0  0  0  0  0  0  0  0
  150.5894  140.6003  155.8703 C   0  0  2  0  0  0  0  0  0  0  0  0
  151.5806  139.5609  155.3285 C   0  0  0  0  0  0  0  0  0  0  0  0
  149.8900  141.3640  154.7186 C   0  0  0  0  0  0  0  0  0  0  0  0
  148.7380  142.1735  155.1983 N   0  3  0  0  0  0  0  0  0  0  0  0
  147.6771  142.3614  154.1823 C   0  0  0  0  0  0  0  0  0  0  0  0
  146.6028  143.3230  154.7173 C   0  0  0  0  0  0  0  0  0  0  0  0
  146.0717  142.8186  155.9372 O   0  0  0  0  0  0  0  0  0  0  0  0
  147.0692  142.7010  156.9454 C   0  0  0  0  0  0  0  0  0  0  0  0
  148.1535  141.7145  156.4833 C   0  0  0  0  0  0  0  0  0  0  0  0
  153.5660  141.0692  160.4573 N   0  0  0  0  0  0  0  0  0  0  0  0
  153.9176  141.4421  161.7598 O   0  0  0  0  0  0  0  0  0  0  0  0
  152.5798  143.4325  163.9107 H   0  0  0  0  0  0  0  0  0  0  0  0
  154.1361  144.0620  163.3669 H   0  0  0  0  0  0  0  0  0  0  0  0
  154.0332  142.4457  164.0671 H   0  0  0  0  0  0  0  0  0  0  0  0
  151.8830  143.8943  160.9623 H   0  0  0  0  0  0  0  0  0  0  0  0
  151.5085  142.8854  158.6237 H   0  0  0  0  0  0  0  0  0  0  0  0
  149.8256  140.0542  156.4257 H   0  0  0  0  0  0  0  0  0  0  0  0
  151.0761  138.8365  154.6887 H   0  0  0  0  0  0  0  0  0  0  0  0
  152.0532  139.0065  156.1401 H   0  0  0  0  0  0  0  0  0  0  0  0
  152.3705  140.0293  154.7399 H   0  0  0  0  0  0  0  0  0  0  0  0
  150.6250  142.0107  154.2358 H   0  0  0  0  0  0  0  0  0  0  0  0
  149.5534  140.6714  153.9459 H   0  0  0  0  0  0  0  0  0  0  0  0
  148.1092  142.7715  153.2686 H   0  0  0  0  0  0  0  0  0  0  0  0
  147.2341  141.3972  153.9288 H   0  0  0  0  0  0  0  0  0  0  0  0
  147.0174  144.3206  154.8723 H   0  0  0  0  0  0  0  0  0  0  0  0
  145.7938  143.4230  153.9934 H   0  0  0  0  0  0  0  0  0  0  0  0
  147.5010  143.6792  157.1637 H   0  0  0  0  0  0  0  0  0  0  0  0
  146.6039  142.3454  157.8646 H   0  0  0  0  0  0  0  0  0  0  0  0
  147.7283  140.7173  156.3597 H   0  0  0  0  0  0  0  0  0  0  0  0
  148.9289  141.6407  157.2462 H   0  0  0  0  0  0  0  0  0  0  0  0
  149.1224  143.0936  155.3671 H   0  0  0  0  0  0  0  0  0  0  0  0
  1  2  1  0  0  0  0
  1 20  1  0  0  0  0
  1 21  1  0  0  0  0
  1 22  1  0  0  0  0
  2 19  1  0  0  0  0
  2  3  2  0  0  0  0
  3  4  1  0  0  0  0
  3 23  1  0  0  0  0
  4  5  1  0  0  0  0
  4 18  2  0  0  0  0
  5  6  1  0  0  0  0
  5 24  1  0  0  0  0
  6  7  2  0  0  0  0
  6  8  1  0  0  0  0
  8  9  1  0  0  0  0
  9 10  1  0  0  0  0
  9 11  1  0  0  0  0
  9 25  1  0  0  0  0
 10 26  1  0  0  0  0
 10 27  1  0  0  0  0
 10 28  1  0  0  0  0
 11 12  1  0  0  0  0
 11 29  1  0  0  0  0
 11 30  1  0  0  0  0
 12 17  1  0  0  0  0
 12 13  1  0  0  0  0
 12 39  1  0  0  0  0
 13 14  1  0  0  0  0
 13 31  1  0  0  0  0
 13 32  1  0  0  0  0
 14 15  1  0  0  0  0
 14 33  1  0  0  0  0
 14 34  1  0  0  0  0
 15 16  1  0  0  0  0
 16 17  1  0  0  0  0
 16 35  1  0  0  0  0
 16 36  1  0  0  0  0
 17 37  1  0  0  0  0
 17 38  1  0  0  0  0
 18 19  1  0  0  0  0
M  CHG  1   8  -1
M  CHG  1  12   1
M  END
> <s_m_source_file>
AV-unprocessed.smi

> <i_m_source_file_index>
1952

> <i_lp_mmshare_version>
43012

> <i_f3d_flags>
0

> <s_epik_input>
W0NIM11jMVtjSF1jKG5vMSlbTkhdQyg9TylbTkhdW0NASF0oW0NIM10pW0NIMl1OMltDSDJdW0NIMl1PW0NIMl1bQ0gyXTI=

> <s_epik_cmdline>
J2VwaWtfcHl0aG9uJywgJy1waCcsICc3LjAnLCAnLXRuJywgJzgnLCAnLW1hJywgJzIwMCcsICctbWV0YWxfYmluZGluZycsICctaW1hZScsICc8aW5maWxlLm1hZT4nLCAnLW9tYWUnLCAnPG91dGZpbGUubWFlPic=

> <r_epik_Ionization_Penalty>
6.76648

> <r_epik_Ionization_Penalty_Charging>
6.76648

> <r_epik_Ionization_Penalty_Neutral>
5.6208e-06

> <r_epik_State_Penalty>
7.45901

> <r_epik_Charging_Adjusted_Penalty>
14.2255

> <i_epik_Tot_Q>
0

> <i_epik_Tot_abs_Q>
2

> <r_epik_Metal_State_Penalty>
3.38802

> <b_epik_Metal_Only>
1

> <s_lp_Force_Field>
OPLS_2005

> <r_lp_Energy>
9.23167

> <b_lp_Chiralities_Consistent>
1

> <s_lp_Variant>
AV-unprocessed.smi:1952-9

> <Gold.Version>
5.8.1

> <Gold.Id.Protein>
6NUR|6NUR_protein|mol2

> <Gold.PLP.Fitness>
46.2386

> <Gold.PLP.PLP>
-38.6614

> <Gold.PLP.part.hbond>
-2.0000

> <Gold.PLP.part.metal>
0.0000

> <Gold.PLP.part.buried>
-5.6877

> <Gold.PLP.part.nonpolar>
-30.0693

> <Gold.PLP.part.repulsive>
0.3723

> <Gold.PLP.ligand.clash>
0.0769

> <Gold.PLP.ligand.torsion>
0.7791

> <Gold.PLP.Chemscore.Hbond>
3.0000

> <Gold.PLP.Chemscore.CHOScore>
0.0000

> <Gold.PLP.Chemscore.Metal>
0.0000

> <Gold.Chemscore.Hbonds>
donor molecule, donor type, donor heavy atom, donor atom, acceptor molecule, acceptor atom, score
      L1  H    12    39       P1  8028  1.95
      P1  H  7997  8008       L1     7  1.00

> <Gold.PLP.Chemscore.Internal.Correction>
0.2123

> <Gold.Rescore>
     Score         DG    S(hbond)    S(metal)    S(lipo)     H(rot)  DE(clash)    DE(int)     intcor
     10.08     -13.30       0.99        0.00      73.22       1.58       0.11       3.11       ----

> <Gold.Chemscore.Fitness>
10.0809

> <Gold.Chemscore.DG>
-13.3037

> <Gold.Chemscore.ZeroCoef>
-5.4800

> <Gold.Chemscore.Hbond>
0.9882

> <Gold.Chemscore.Metal>
0.0000

> <Gold.Chemscore.Lipo>
73.2235

> <Gold.Chemscore.Internal_Hbond>
0.0000

> <Gold.Chemscore.DEClash>
0.1127

> <Gold.Chemscore.DEInternal>
3.1101

> <Gold.Chemscore.Rot>
1.5798

> <Gold.Chemscore.Internal.Correction>
   9.000000E+99

> <Gold.Chemscore.Hbonds>
donor molecule, donor type, donor heavy atom, donor atom, acceptor molecule, acceptor atom, score
      L1  H    12    39       P1  8028  0.93
      P1  H  7997  8008       L1     7  0.93

> <Gold.Chemscore.Hbond.Weighted>
-3.3007

> <Gold.Chemscore.Metal.Weighted>
-0.0000

> <Gold.Chemscore.Lipo.Weighted>
-8.5672

> <Gold.Chemscore.Internal_Hbond.Weighted>
0.0000

> <Gold.Chemscore.DEClash.Weighted>
0.1127

> <Gold.Chemscore.DEInternal.Weighted>
3.1101

> <Gold.Chemscore.Rot.Weighted>
4.0442

> <Gold.Chemscore.Internal.Correction.Weighted>
   9.000000E+99

> <Gold.Protein.RotatedTorsions>
[ 6907 6896 6895 6894 ] final  107.28 input  -60.11 | X-H torsion
[ 7974 7965 7964 7962 ] final  -33.39 input  175.53 | X-H torsion
[ 8008 7997 7996 7995 ] final  -74.19 input   59.86 | X-H torsion
[ 10167 10162 10161 10158 ] final  -93.72 input  -65.29 | X-H torsion
[ 10718 10713 10712 10709 ] final -174.79 input   66.30 | X-H torsion
[ 10763 10752 10751 10750 ] final  135.00 input  -60.55 | X-H torsion
[ 11005 11000 10999 10996 ] final  -94.36 input  -57.11 | X-H torsion

> <Gold.Protein.ActiveResidues>
 VAL166  LYS551  ARG553  GLY616  TRP617  ASP618  TYR619  PRO620  LYS621  CYS622 
 ASP623  PHE694  ASN695  SER759  ASP760  ASP761  ALA762  ILE779  LEU786  VAL792 
 PHE793  MET794  SER795  GLU796  ALA797  LYS798  CYS799  TRP800  GLU811  SER814 

> <Gold.Protein.RotatedAtoms>
  152.5160  133.9258  159.7556 H   0  0  0  0  0  0  0  0  0  0  0  0  # atno 6907 bound_to 6896
  150.9619  133.6427  159.2760 H   0  0  0  0  0  0  0  0  0  0  0  0  # atno 6908 bound_to 6896
  151.3669  135.0920  159.9506 H   0  0  0  0  0  0  0  0  0  0  0  0  # atno 6909 bound_to 6896
  146.0914  140.5910  142.8862 H   0  0  0  0  0  0  0  0  0  0  0  0  # atno 7974 bound_to 7965
  154.5310  140.0766  156.8344 H   0  0  0  0  0  0  0  0  0  0  0  0  # atno 8008 bound_to 7997
  155.3376  140.3405  155.4221 H   0  0  0  0  0  0  0  0  0  0  0  0  # atno 8009 bound_to 7997
  156.1781  140.1642  156.8313 H   0  0  0  0  0  0  0  0  0  0  0  0  # atno 8010 bound_to 7997
  140.3217  143.3045  152.0038 H   0  0  0  0  0  0  0  0  0  0  0  0  # atno 10167 bound_to 10162
  156.7902  130.9515  151.3120 H   0  0  0  0  0  0  0  0  0  0  0  0  # atno 10718 bound_to 10713
  153.8327  135.3101  155.3420 H   0  0  0  0  0  0  0  0  0  0  0  0  # atno 10763 bound_to 10752
  154.7966  135.4751  154.0179 H   0  0  0  0  0  0  0  0  0  0  0  0  # atno 10764 bound_to 10752
  153.1624  135.6863  153.8815 H   0  0  0  0  0  0  0  0  0  0  0  0  # atno 10765 bound_to 10752
  141.1472  133.7950  157.0286 H   0  0  0  0  0  0  0  0  0  0  0  0  # atno 11005 bound_to 11000
  144.7363  140.4817  143.6901 LP  0  0  0  0  0  0  0  0  0  0  0  0  # atno 17320 bound_to 7965
  145.6031  139.1505  143.3118 LP  0  0  0  0  0  0  0  0  0  0  0  0  # atno 17321 bound_to 7965
  139.4873  144.6305  151.7079 LP  0  0  0  0  0  0  0  0  0  0  0  0  # atno 17342 bound_to 10162
  140.5477  144.0476  150.6114 LP  0  0  0  0  0  0  0  0  0  0  0  0  # atno 17343 bound_to 10162
  157.6604  130.8961  149.9818 LP  0  0  0  0  0  0  0  0  0  0  0  0  # atno 17370 bound_to 10713
  156.1164  130.3647  149.9962 LP  0  0  0  0  0  0  0  0  0  0  0  0  # atno 17371 bound_to 10713
  140.0768  134.9671  157.1559 LP  0  0  0  0  0  0  0  0  0  0  0  0  # atno 17394 bound_to 11000
  140.3632  134.2471  155.7185 LP  0  0  0  0  0  0  0  0  0  0  0  0  # atno 17395 bound_to 11000

$$$$
