AV-unprocessed.smi:3047|AV-procd|sdf|11621|dock1
  -GOLD-   2272017 03D 1   1.00000     0.00000
 Structure written by MMmdl.
 38 39  0  0  0  0  0  0  0  0  2 V2000
  149.9867  136.5323  155.7486 C   0  0  0  0  0  0  0  0  0  0  0  0
  150.4321  135.2872  157.0262 S   0  0  0  0  0  0  0  0  0  0  0  0
  151.8864  135.0724  156.9733 O   0  0  0  0  0  0  0  0  0  0  0  0
  149.7902  135.6491  158.2991 O   0  0  0  0  0  0  0  0  0  0  0  0
  149.6720  133.8469  156.4414 N   0  0  0  0  0  0  0  0  0  0  0  0
  149.8717  132.5915  157.1785 C   0  0  0  0  0  0  0  0  0  0  0  0
  149.6389  131.4759  156.1628 C   0  0  0  0  0  0  0  0  0  0  0  0
  150.0799  132.1090  154.8503 C   0  0  0  0  0  0  0  0  0  0  0  0
  149.6759  133.5872  154.9925 C   0  0  1  0  0  0  0  0  0  0  0  0
  148.3306  133.9189  154.3311 C   0  0  0  0  0  0  0  0  0  0  0  0
  147.7881  135.0086  154.5189 O   0  0  0  0  0  0  0  0  0  0  0  0
  147.8076  132.9681  153.5416 N   0  0  0  0  0  0  0  0  0  0  0  0
  146.5636  133.0927  152.7924 C   0  0  0  0  0  0  0  0  0  0  0  0
  146.8003  133.0032  151.2755 C   0  0  0  0  0  0  0  0  0  0  0  0
  145.5466  133.1068  150.5273 N   0  0  0  0  0  0  0  0  0  0  0  0
  145.1534  132.3400  149.4607 C   0  0  0  0  0  0  0  0  0  0  0  0
  143.9127  132.7921  149.0911 C   0  0  0  0  0  0  0  0  0  0  0  0
  143.6017  133.8148  149.9473 N   0  3  0  0  0  0  0  0  0  0  0  0
  144.5966  134.0042  150.8205 C   0  0  0  0  0  0  0  0  0  0  0  0
  150.4553  137.4849  155.9941 H   0  0  0  0  0  0  0  0  0  0  0  0
  148.9050  136.6603  155.7211 H   0  0  0  0  0  0  0  0  0  0  0  0
  150.3387  136.1963  154.7736 H   0  0  0  0  0  0  0  0  0  0  0  0
  150.8951  132.5485  157.5528 H   0  0  0  0  0  0  0  0  0  0  0  0
  149.1929  132.5283  158.0293 H   0  0  0  0  0  0  0  0  0  0  0  0
  150.1903  130.5659  156.4005 H   0  0  0  0  0  0  0  0  0  0  0  0
  148.5781  131.2260  156.1199 H   0  0  0  0  0  0  0  0  0  0  0  0
  151.1638  132.0345  154.7514 H   0  0  0  0  0  0  0  0  0  0  0  0
  149.6420  131.6122  153.9833 H   0  0  0  0  0  0  0  0  0  0  0  0
  150.4479  134.1969  154.5196 H   0  0  0  0  0  0  0  0  0  0  0  0
  148.3266  132.1086  153.4297 H   0  0  0  0  0  0  0  0  0  0  0  0
  145.8585  132.3256  153.1176 H   0  0  0  0  0  0  0  0  0  0  0  0
  146.1133  134.0537  153.0431 H   0  0  0  0  0  0  0  0  0  0  0  0
  147.4716  133.7948  150.9386 H   0  0  0  0  0  0  0  0  0  0  0  0
  147.2643  132.0530  151.0072 H   0  0  0  0  0  0  0  0  0  0  0  0
  145.7694  131.5495  149.0557 H   0  0  0  0  0  0  0  0  0  0  0  0
  143.2457  132.4711  148.3042 H   0  0  0  0  0  0  0  0  0  0  0  0
  144.6251  134.7374  151.6071 H   0  0  0  0  0  0  0  0  0  0  0  0
  142.7432  134.3511  149.9255 H   0  0  0  0  0  0  0  0  0  0  0  0
  1  2  1  0  0  0  0
  1 20  1  0  0  0  0
  1 21  1  0  0  0  0
  1 22  1  0  0  0  0
  2  3  2  0  0  0  0
  2  4  2  0  0  0  0
  2  5  1  0  0  0  0
  5  9  1  0  0  0  0
  5  6  1  0  0  0  0
  6  7  1  0  0  0  0
  6 23  1  0  0  0  0
  6 24  1  0  0  0  0
  7  8  1  0  0  0  0
  7 25  1  0  0  0  0
  7 26  1  0  0  0  0
  8  9  1  0  0  0  0
  8 27  1  0  0  0  0
  8 28  1  0  0  0  0
  9 10  1  0  0  0  0
  9 29  1  0  0  0  0
 10 11  2  0  0  0  0
 10 12  1  0  0  0  0
 12 13  1  0  0  0  0
 12 30  1  0  0  0  0
 13 14  1  0  0  0  0
 13 31  1  0  0  0  0
 13 32  1  0  0  0  0
 14 15  1  0  0  0  0
 14 33  1  0  0  0  0
 14 34  1  0  0  0  0
 15 19  1  0  0  0  0
 15 16  1  0  0  0  0
 16 17  2  0  0  0  0
 16 35  1  0  0  0  0
 17 18  1  0  0  0  0
 17 36  1  0  0  0  0
 18 19  2  0  0  0  0
 18 38  1  0  0  0  0
 19 37  1  0  0  0  0
M  CHG  1  18   1
M  END
> <s_m_source_file>
AV-unprocessed.smi

> <i_m_source_file_index>
3047

> <i_lp_mmshare_version>
43012

> <i_f3d_flags>
0

> <s_epik_input>
W0NIM11TKD1PKSg9TylOMVtDSDJdW0NIMl1bQ0gyXVtDQEhdMUMoPU8pW05IXVtDSDJdW0NIMl1uMltjSF1bY0hdbltjSF0y

> <s_epik_cmdline>
J2VwaWtfcHl0aG9uJywgJy1waCcsICc3LjAnLCAnLXRuJywgJzgnLCAnLW1hJywgJzIwMCcsICctbWV0YWxfYmluZGluZycsICctaW1hZScsICc8aW5maWxlLm1hZT4nLCAnLW9tYWUnLCAnPG91dGZpbGUubWFlPic=

> <r_lp_tautomer_probability>
1

> <r_epik_Ionization_Penalty>
0.281738

> <r_epik_Ionization_Penalty_Charging>
0

> <r_epik_Ionization_Penalty_Neutral>
0.281738

> <r_epik_State_Penalty>
0.274352

> <r_epik_Charging_Adjusted_Penalty>
0.274352

> <i_epik_Tot_Q>
1

> <i_epik_Tot_abs_Q>
1

> <r_epik_Metal_State_Penalty>
0.555562

> <b_epik_Metal_Only>
0

> <s_lp_Force_Field>
OPLS_2005

> <r_lp_Energy>
11.1573

> <b_lp_Chiralities_Consistent>
1

> <s_lp_Variant>
AV-unprocessed.smi:3047-1

> <Gold.Version>
5.8.1

> <Gold.Id.Protein>
6NUR|6NUR_protein|mol2

> <Gold.PLP.Fitness>
40.7564

> <Gold.PLP.PLP>
-30.1951

> <Gold.PLP.part.hbond>
-3.0000

> <Gold.PLP.part.metal>
0.0000

> <Gold.PLP.part.buried>
-4.8777

> <Gold.PLP.part.nonpolar>
-23.2145

> <Gold.PLP.part.repulsive>
0.9125

> <Gold.PLP.ligand.clash>
0.0000

> <Gold.PLP.ligand.torsion>
0.8772

> <Gold.PLP.Chemscore.Hbond>
3.9120

> <Gold.PLP.Chemscore.CHOScore>
0.0000

> <Gold.PLP.Chemscore.Metal>
0.0000

> <Gold.Chemscore.Hbonds>
donor molecule, donor type, donor heavy atom, donor atom, acceptor molecule, acceptor atom, score
      L1  H    18    38       P1 10186  1.98
      P1  H  6896  6908       L1     4  1.00
      P1  H 10752 10763       L1     3  0.37

> <Gold.PLP.Chemscore.Internal.Correction>
0.5797

> <Gold.Rescore>
     Score         DG    S(hbond)    S(metal)    S(lipo)     H(rot)  DE(clash)    DE(int)     intcor
     13.46     -15.36       2.88        0.00      56.34       2.47       0.10       1.80       ----

> <Gold.Chemscore.Fitness>
13.4644

> <Gold.Chemscore.DG>
-15.3628

> <Gold.Chemscore.ZeroCoef>
-5.4800

> <Gold.Chemscore.Hbond>
2.8776

> <Gold.Chemscore.Metal>
0.0000

> <Gold.Chemscore.Lipo>
56.3426

> <Gold.Chemscore.Internal_Hbond>
0.0000

> <Gold.Chemscore.DEClash>
0.0975

> <Gold.Chemscore.DEInternal>
1.8009

> <Gold.Chemscore.Rot>
2.4689

> <Gold.Chemscore.Internal.Correction>
   9.000000E+99

> <Gold.Chemscore.Hbonds>
donor molecule, donor type, donor heavy atom, donor atom, acceptor molecule, acceptor atom, score
      L1  H    18    38       P1 10186  0.89
      P1  H  6896  6908       L1     4  0.29
      P1  H 10752 10763       L1     3  0.37

> <Gold.Chemscore.Hbond.Weighted>
-9.6111

> <Gold.Chemscore.Metal.Weighted>
-0.0000

> <Gold.Chemscore.Lipo.Weighted>
-6.5921

> <Gold.Chemscore.Internal_Hbond.Weighted>
0.0000

> <Gold.Chemscore.DEClash.Weighted>
0.0975

> <Gold.Chemscore.DEInternal.Weighted>
1.8009

> <Gold.Chemscore.Rot.Weighted>
6.3204

> <Gold.Chemscore.Internal.Correction.Weighted>
   9.000000E+99

> <Gold.Protein.RotatedTorsions>
[ 6907 6896 6895 6894 ] final  162.38 input  -60.11 | X-H torsion
[ 7974 7965 7964 7962 ] final  157.28 input  175.53 | X-H torsion
[ 8008 7997 7996 7995 ] final  130.17 input   59.86 | X-H torsion
[ 10167 10162 10161 10158 ] final   -3.31 input  -65.29 | X-H torsion
[ 10718 10713 10712 10709 ] final   91.36 input   66.30 | X-H torsion
[ 10763 10752 10751 10750 ] final  100.89 input  -60.55 | X-H torsion
[ 11005 11000 10999 10996 ] final  173.06 input  -57.11 | X-H torsion

> <Gold.Protein.ActiveResidues>
 VAL166  LYS551  ARG553  GLY616  TRP617  ASP618  TYR619  PRO620  LYS621  CYS622 
 ASP623  PHE694  ASN695  SER759  ASP760  ASP761  ALA762  ILE779  LEU786  VAL792 
 PHE793  MET794  SER795  GLU796  ALA797  LYS798  CYS799  TRP800  GLU811  SER814 

> <Gold.Protein.RotatedAtoms>
  151.9413  133.3638  159.3965 H   0  0  0  0  0  0  0  0  0  0  0  0  # atno 6907 bound_to 6896
  150.6998  134.4436  159.5313 H   0  0  0  0  0  0  0  0  0  0  0  0  # atno 6908 bound_to 6896
  152.2094  134.8515  160.0550 H   0  0  0  0  0  0  0  0  0  0  0  0  # atno 6909 bound_to 6896
  144.7913  139.7319  143.6220 H   0  0  0  0  0  0  0  0  0  0  0  0  # atno 7974 bound_to 7965
  156.2950  140.2602  156.2718 H   0  0  0  0  0  0  0  0  0  0  0  0  # atno 8008 bound_to 7997
  154.9687  140.0391  157.2243 H   0  0  0  0  0  0  0  0  0  0  0  0  # atno 8009 bound_to 7997
  154.7879  140.2806  155.6019 H   0  0  0  0  0  0  0  0  0  0  0  0  # atno 8010 bound_to 7997
  140.6885  143.6555  150.8312 H   0  0  0  0  0  0  0  0  0  0  0  0  # atno 10167 bound_to 10162
  157.6960  131.0405  150.3718 H   0  0  0  0  0  0  0  0  0  0  0  0  # atno 10718 bound_to 10713
  153.3197  135.4063  155.1406 H   0  0  0  0  0  0  0  0  0  0  0  0  # atno 10763 bound_to 10752
  154.8597  135.3584  154.5613 H   0  0  0  0  0  0  0  0  0  0  0  0  # atno 10764 bound_to 10752
  153.6046  135.7070  153.5430 H   0  0  0  0  0  0  0  0  0  0  0  0  # atno 10765 bound_to 10752
  140.3364  134.7314  157.4171 H   0  0  0  0  0  0  0  0  0  0  0  0  # atno 11005 bound_to 11000
  146.2165  139.5559  142.9646 LP  0  0  0  0  0  0  0  0  0  0  0  0  # atno 17320 bound_to 7965
  145.5788  141.0385  143.2133 LP  0  0  0  0  0  0  0  0  0  0  0  0  # atno 17321 bound_to 7965
  140.0265  143.5488  152.2778 LP  0  0  0  0  0  0  0  0  0  0  0  0  # atno 17342 bound_to 10162
  139.6265  144.7638  151.2628 LP  0  0  0  0  0  0  0  0  0  0  0  0  # atno 17343 bound_to 10162
  156.4142  130.3940  149.6870 LP  0  0  0  0  0  0  0  0  0  0  0  0  # atno 17370 bound_to 10713
  156.4143  130.7737  151.2752 LP  0  0  0  0  0  0  0  0  0  0  0  0  # atno 17371 bound_to 10713
  140.0818  134.5721  155.8533 LP  0  0  0  0  0  0  0  0  0  0  0  0  # atno 17394 bound_to 11000
  141.2050  133.6643  156.6155 LP  0  0  0  0  0  0  0  0  0  0  0  0  # atno 17395 bound_to 11000

$$$$
