AV-unprocessed.smi:1033|AV-procd|sdf|4493|dock2
  -GOLD-   22720 2483D 1   1.00000     0.00000
 Structure written by MMmdl.
 56 58  0  0  0  0  0  0  0  0  2 V2000
  147.4689  129.6125  152.7580 C   0  0  0  0  0  0  0  0  0  0  0  0
  146.7006  130.8069  152.2201 C   0  0  0  0  0  0  0  0  0  0  0  0
  145.7341  130.6037  151.2092 C   0  0  0  0  0  0  0  0  0  0  0  0
  144.9979  131.6874  150.6826 C   0  0  0  0  0  0  0  0  0  0  0  0
  144.0190  131.7200  149.7042 N   0  0  0  0  0  0  0  0  0  0  0  0
  143.7227  133.0157  149.6632 C   0  0  0  0  0  0  0  0  0  0  0  0
  144.4009  133.8291  150.4957 N   0  0  0  0  0  0  0  0  0  0  0  0
  144.2616  135.2679  150.6280 C   0  0  0  0  0  0  0  0  0  0  0  0
  145.5517  135.9322  151.1445 C   0  0  1  0  0  0  0  0  0  0  0  0
  146.1811  136.6156  150.0774 O   0  0  0  0  0  0  0  0  0  0  0  0
  145.2649  136.9360  152.2783 C   0  0  0  0  0  0  0  0  0  0  0  0
  146.5020  137.5319  152.8448 N   0  3  0  0  0  0  0  0  0  0  0  0
  146.5483  137.5200  154.3317 C   0  0  0  0  0  0  0  0  0  0  0  0
  147.8892  138.0977  154.8270 C   0  0  0  0  0  0  0  0  0  0  0  0
  148.1519  139.4545  154.3407 N   0  0  0  0  0  0  0  0  0  0  0  0
  147.3021  140.4946  154.9328 C   0  0  0  0  0  0  0  0  0  0  0  0
  147.2639  141.8349  154.1715 C   0  0  1  0  0  0  0  0  0  0  0  0
  146.2216  142.8151  154.7288 C   0  0  0  0  0  0  0  0  0  0  0  0
  148.5362  142.4366  154.2809 O   0  0  0  0  0  0  0  0  0  0  0  0
  148.0959  139.4421  152.8789 C   0  0  0  0  0  0  0  0  0  0  0  0
  146.7625  138.8990  152.3242 C   0  0  0  0  0  0  0  0  0  0  0  0
  145.2582  132.9904  151.1988 C   0  0  0  0  0  0  0  0  0  0  0  0
  146.2162  133.2058  152.2050 C   0  0  0  0  0  0  0  0  0  0  0  0
  146.9422  132.1117  152.7206 C   0  0  0  0  0  0  0  0  0  0  0  0
  147.9739  132.3534  153.8082 C   0  0  0  0  0  0  0  0  0  0  0  0
  147.1841  128.6927  152.2463 H   0  0  0  0  0  0  0  0  0  0  0  0
  147.2705  129.4793  153.8217 H   0  0  0  0  0  0  0  0  0  0  0  0
  148.5410  129.7527  152.6198 H   0  0  0  0  0  0  0  0  0  0  0  0
  145.5488  129.6099  150.8287 H   0  0  0  0  0  0  0  0  0  0  0  0
  142.9735  133.3970  148.9846 H   0  0  0  0  0  0  0  0  0  0  0  0
  143.9731  135.6846  149.6617 H   0  0  0  0  0  0  0  0  0  0  0  0
  143.4353  135.4647  151.3121 H   0  0  0  0  0  0  0  0  0  0  0  0
  146.2255  135.1500  151.4922 H   0  0  0  0  0  0  0  0  0  0  0  0
  146.0940  136.0941  149.2932 H   0  0  0  0  0  0  0  0  0  0  0  0
  144.6252  137.7279  151.8849 H   0  0  0  0  0  0  0  0  0  0  0  0
  144.6989  136.4580  153.0792 H   0  0  0  0  0  0  0  0  0  0  0  0
  145.7072  138.0827  154.7386 H   0  0  0  0  0  0  0  0  0  0  0  0
  146.4502  136.5018  154.7052 H   0  0  0  0  0  0  0  0  0  0  0  0
  147.9321  138.0643  155.9147 H   0  0  0  0  0  0  0  0  0  0  0  0
  148.6942  137.4430  154.4901 H   0  0  0  0  0  0  0  0  0  0  0  0
  146.2802  140.1173  154.9942 H   0  0  0  0  0  0  0  0  0  0  0  0
  147.6047  140.6833  155.9626 H   0  0  0  0  0  0  0  0  0  0  0  0
  147.0826  141.6705  153.1098 H   0  0  0  0  0  0  0  0  0  0  0  0
  145.2123  142.4157  154.6261 H   0  0  0  0  0  0  0  0  0  0  0  0
  146.2517  143.7660  154.1959 H   0  0  0  0  0  0  0  0  0  0  0  0
  146.3914  143.0192  155.7865 H   0  0  0  0  0  0  0  0  0  0  0  0
  148.4410  143.2662  154.7236 H   0  0  0  0  0  0  0  0  0  0  0  0
  148.2775  140.4457  152.4921 H   0  0  0  0  0  0  0  0  0  0  0  0
  148.9120  138.8265  152.4979 H   0  0  0  0  0  0  0  0  0  0  0  0
  146.8147  138.8703  151.2352 H   0  0  0  0  0  0  0  0  0  0  0  0
  145.9338  139.5600  152.5811 H   0  0  0  0  0  0  0  0  0  0  0  0
  146.3900  134.2044  152.5776 H   0  0  0  0  0  0  0  0  0  0  0  0
  148.0264  133.4080  154.0805 H   0  0  0  0  0  0  0  0  0  0  0  0
  148.9637  132.0456  153.4704 H   0  0  0  0  0  0  0  0  0  0  0  0
  147.7223  131.7881  154.7058 H   0  0  0  0  0  0  0  0  0  0  0  0
  147.2679  136.9577  152.5217 H   0  0  0  0  0  0  0  0  0  0  0  0
  1  2  1  0  0  0  0
  1 26  1  0  0  0  0
  1 27  1  0  0  0  0
  1 28  1  0  0  0  0
  2 24  1  0  0  0  0
  2  3  2  0  0  0  0
  3  4  1  0  0  0  0
  3 29  1  0  0  0  0
  4 22  2  0  0  0  0
  4  5  1  0  0  0  0
  5  6  2  0  0  0  0
  6  7  1  0  0  0  0
  6 30  1  0  0  0  0
  7  8  1  0  0  0  0
  7 22  1  0  0  0  0
  8  9  1  0  0  0  0
  8 31  1  0  0  0  0
  8 32  1  0  0  0  0
  9 10  1  0  0  0  0
  9 11  1  0  0  0  0
  9 33  1  0  0  0  0
 10 34  1  0  0  0  0
 11 12  1  0  0  0  0
 11 35  1  0  0  0  0
 11 36  1  0  0  0  0
 12 21  1  0  0  0  0
 12 13  1  0  0  0  0
 12 56  1  0  0  0  0
 13 14  1  0  0  0  0
 13 37  1  0  0  0  0
 13 38  1  0  0  0  0
 14 15  1  0  0  0  0
 14 39  1  0  0  0  0
 14 40  1  0  0  0  0
 15 16  1  0  0  0  0
 15 20  1  0  0  0  0
 16 17  1  0  0  0  0
 16 41  1  0  0  0  0
 16 42  1  0  0  0  0
 17 18  1  0  0  0  0
 17 19  1  0  0  0  0
 17 43  1  0  0  0  0
 18 44  1  0  0  0  0
 18 45  1  0  0  0  0
 18 46  1  0  0  0  0
 19 47  1  0  0  0  0
 20 21  1  0  0  0  0
 20 48  1  0  0  0  0
 20 49  1  0  0  0  0
 21 50  1  0  0  0  0
 21 51  1  0  0  0  0
 22 23  1  0  0  0  0
 23 24  2  0  0  0  0
 23 52  1  0  0  0  0
 24 25  1  0  0  0  0
 25 53  1  0  0  0  0
 25 54  1  0  0  0  0
 25 55  1  0  0  0  0
M  CHG  1  12   1
M  END
> <s_m_source_file>
AV-unprocessed.smi

> <i_m_source_file_index>
1033

> <i_lp_mmshare_version>
43012

> <i_f3d_flags>
0

> <s_epik_input>
W0NIM11jKFtjSF0xKWMoW0NIM10pW2NIXWMoYzEyKW4oW2NIXW4yKVtDSDJdW0NASF0oW09IXSlbQ0gyXU4zW0NIMl1bQ0gyXU4oW0NIMl1bQ0gyXTMpW0NIMl1bQ0BIXShbQ0gzXSlbT0hd

> <s_epik_cmdline>
J2VwaWtfcHl0aG9uJywgJy1waCcsICc3LjAnLCAnLXRuJywgJzgnLCAnLW1hJywgJzIwMCcsICctbWV0YWxfYmluZGluZycsICctaW1hZScsICc8aW5maWxlLm1hZT4nLCAnLW9tYWUnLCAnPG91dGZpbGUubWFlPic=

> <r_epik_Ionization_Penalty>
0.131893

> <r_epik_Ionization_Penalty_Charging>
0.00208556

> <r_epik_Ionization_Penalty_Neutral>
0.129808

> <r_epik_State_Penalty>
0.452125

> <r_epik_Charging_Adjusted_Penalty>
0.454211

> <i_epik_Tot_Q>
1

> <i_epik_Tot_abs_Q>
1

> <r_epik_Metal_State_Penalty>
0.376389

> <b_epik_Metal_Only>
0

> <s_lp_Force_Field>
OPLS_2005

> <r_lp_Energy>
31.8043

> <b_lp_Chiralities_Consistent>
1

> <s_lp_Variant>
AV-unprocessed.smi:1033-4

> <Gold.Version>
5.8.1

> <Gold.Id.Protein>
6NUR|6NUR_protein|mol2

> <Gold.PLP.Fitness>
58.0964

> <Gold.PLP.PLP>
-43.9820

> <Gold.PLP.part.hbond>
-7.2908

> <Gold.PLP.part.metal>
0.0000

> <Gold.PLP.part.buried>
2.4472

> <Gold.PLP.part.nonpolar>
-40.2658

> <Gold.PLP.part.repulsive>
0.3186

> <Gold.PLP.ligand.clash>
0.0042

> <Gold.PLP.ligand.torsion>
1.8606

> <Gold.PLP.Chemscore.Hbond>
4.9483

> <Gold.PLP.Chemscore.CHOScore>
0.9568

> <Gold.PLP.Chemscore.Metal>
0.0000

> <Gold.Chemscore.Hbonds>
donor molecule, donor type, donor heavy atom, donor atom, acceptor molecule, acceptor atom, score
      L1  H    10    34       P1  7921  0.91
      L1  H    12    56       P1  7948  2.00
      L1  H    19    47       P1  8028  1.00
      P1  H  7954  7966       L1    10  0.15
      P1  H  8011  8017       L1    19  0.06
      P1  H 10785 10796       L1     5  0.72
      L1  C     6    30       P1 10186  0.95

> <Gold.PLP.Chemscore.Internal.Correction>
0.1243

> <Gold.Rescore>
     Score         DG    S(hbond)    S(metal)    S(lipo)     H(rot)  DE(clash)    DE(int)     intcor
     18.68     -23.92       3.95        0.00     111.93       3.07       3.46       1.77       ----

> <Gold.Chemscore.Fitness>
18.6813

> <Gold.Chemscore.DG>
-23.9158

> <Gold.Chemscore.ZeroCoef>
-5.4800

> <Gold.Chemscore.Hbond>
3.9481

> <Gold.Chemscore.Metal>
0.0000

> <Gold.Chemscore.Lipo>
111.9274

> <Gold.Chemscore.Internal_Hbond>
0.0000

> <Gold.Chemscore.DEClash>
3.4641

> <Gold.Chemscore.DEInternal>
1.7704

> <Gold.Chemscore.Rot>
3.0650

> <Gold.Chemscore.Internal.Correction>
   9.000000E+99

> <Gold.Chemscore.Hbonds>
donor molecule, donor type, donor heavy atom, donor atom, acceptor molecule, acceptor atom, score
      L1  H    10    34       P1  7921  0.84
      L1  H    12    56       P1  7948  0.99
      L1  H    19    47       P1  8028  1.00
      P1  H  7954  7966       L1    10  0.09
      P1  H  8011  8017       L1    19  0.05
      P1  H 10785 10796       L1     5  0.68

> <Gold.Chemscore.Hbond.Weighted>
-13.1868

> <Gold.Chemscore.Metal.Weighted>
-0.0000

> <Gold.Chemscore.Lipo.Weighted>
-13.0955

> <Gold.Chemscore.Internal_Hbond.Weighted>
0.0000

> <Gold.Chemscore.DEClash.Weighted>
3.4641

> <Gold.Chemscore.DEInternal.Weighted>
1.7704

> <Gold.Chemscore.Rot.Weighted>
7.8465

> <Gold.Chemscore.Internal.Correction.Weighted>
   9.000000E+99

> <Gold.Protein.RotatedTorsions>
[ 6907 6896 6895 6894 ] final  153.75 input  -60.11 | X-H torsion
[ 7974 7965 7964 7962 ] final   58.97 input  175.53 | X-H torsion
[ 8008 7997 7996 7995 ] final  -36.29 input   59.86 | X-H torsion
[ 10167 10162 10161 10158 ] final  142.73 input  -65.29 | X-H torsion
[ 10718 10713 10712 10709 ] final   69.76 input   66.30 | X-H torsion
[ 10763 10752 10751 10750 ] final -134.62 input  -60.55 | X-H torsion
[ 11005 11000 10999 10996 ] final   50.87 input  -57.11 | X-H torsion

> <Gold.Protein.ActiveResidues>
 VAL166  LYS551  ARG553  GLY616  TRP617  ASP618  TYR619  PRO620  LYS621  CYS622 
 ASP623  PHE694  ASN695  SER759  ASP760  ASP761  ALA762  ILE779  LEU786  VAL792 
 PHE793  MET794  SER795  GLU796  ALA797  LYS798  CYS799  TRP800  GLU811  SER814 

> <Gold.Protein.RotatedAtoms>
  152.0682  133.4094  159.4447 H   0  0  0  0  0  0  0  0  0  0  0  0  # atno 6907 bound_to 6896
  150.6864  134.3122  159.4760 H   0  0  0  0  0  0  0  0  0  0  0  0  # atno 6908 bound_to 6896
  152.0951  134.9380  160.0621 H   0  0  0  0  0  0  0  0  0  0  0  0  # atno 6909 bound_to 6896
  145.9123  139.3664  143.0528 H   0  0  0  0  0  0  0  0  0  0  0  0  # atno 7974 bound_to 7965
  154.4076  140.1634  156.2350 H   0  0  0  0  0  0  0  0  0  0  0  0  # atno 8008 bound_to 7997
  155.9250  140.3418  155.6180 H   0  0  0  0  0  0  0  0  0  0  0  0  # atno 8009 bound_to 7997
  155.7176  140.0764  157.2335 H   0  0  0  0  0  0  0  0  0  0  0  0  # atno 8010 bound_to 7997
  139.4987  144.6087  151.6320 H   0  0  0  0  0  0  0  0  0  0  0  0  # atno 10167 bound_to 10162
  157.6363  130.9442  150.0557 H   0  0  0  0  0  0  0  0  0  0  0  0  # atno 10718 bound_to 10713
  154.8716  135.3729  154.4766 H   0  0  0  0  0  0  0  0  0  0  0  0  # atno 10763 bound_to 10752
  153.5422  135.7026  153.5636 H   0  0  0  0  0  0  0  0  0  0  0  0  # atno 10764 bound_to 10752
  153.3793  135.4001  155.1809 H   0  0  0  0  0  0  0  0  0  0  0  0  # atno 10765 bound_to 10752
  140.0981  134.5118  155.8788 H   0  0  0  0  0  0  0  0  0  0  0  0  # atno 11005 bound_to 11000
  145.8656  140.9450  143.0677 LP  0  0  0  0  0  0  0  0  0  0  0  0  # atno 17320 bound_to 7965
  144.6744  140.0587  143.7476 LP  0  0  0  0  0  0  0  0  0  0  0  0  # atno 17321 bound_to 7965
  140.5756  144.0034  150.6240 LP  0  0  0  0  0  0  0  0  0  0  0  0  # atno 17342 bound_to 10162
  140.3166  143.3164  152.0826 LP  0  0  0  0  0  0  0  0  0  0  0  0  # atno 17343 bound_to 10162
  156.1605  130.3644  149.9306 LP  0  0  0  0  0  0  0  0  0  0  0  0  # atno 17370 bound_to 10713
  156.7305  130.9041  151.3625 LP  0  0  0  0  0  0  0  0  0  0  0  0  # atno 17371 bound_to 10713
  141.2098  133.6687  156.6463 LP  0  0  0  0  0  0  0  0  0  0  0  0  # atno 17394 bound_to 11000
  140.3258  134.7970  157.4288 LP  0  0  0  0  0  0  0  0  0  0  0  0  # atno 17395 bound_to 11000

$$$$
