AV-unprocessed.smi:3117|AV-procd|sdf|11883|dock2
  -GOLD-   2272017273D 1   1.00000     0.00000
 Structure written by MMmdl.
 36 36  0  0  0  0  0  0  0  0  1 V2000
  151.0977  142.0654  157.6543 C   0  0  0  0  0  0  0  0  0  0  0  0
  152.0102  140.9834  158.2760 C   0  0  1  0  0  0  0  0  0  0  0  0
  152.4973  140.0540  157.2491 N   0  0  0  0  0  0  0  0  0  0  0  0
  151.5228  139.0842  156.7441 C   0  0  0  0  0  0  0  0  0  0  0  0
  151.5875  138.9348  155.2081 C   0  0  0  0  0  0  0  0  0  0  0  0
  153.0251  138.7788  154.6752 C   0  0  0  0  0  0  0  0  0  0  0  0
  150.7270  137.7401  154.7648 C   0  0  0  0  0  0  0  0  0  0  0  0
  151.0051  140.0847  154.6250 O   0  0  0  0  0  0  0  0  0  0  0  0
  153.2233  141.5837  159.0387 C   0  0  2  0  0  0  0  0  0  0  0  0
  154.0928  140.4983  159.7034 C   0  0  0  0  0  0  0  0  0  0  0  0
  152.8276  142.5797  160.0277 N   0  0  0  0  0  0  0  0  0  0  0  0
  153.0684  142.5736  161.3862 C   0  0  0  0  0  0  0  0  0  0  0  0
  152.5149  143.7087  161.9054 C   0  0  0  0  0  0  0  0  0  0  0  0
  151.9500  144.3576  160.7725 C   0  0  0  0  0  0  0  0  0  0  0  0
  152.1391  143.6818  159.6510 N   0  0  0  0  0  0  0  0  0  0  0  0
  150.7051  142.7472  158.4082 H   0  0  0  0  0  0  0  0  0  0  0  0
  150.2270  141.6349  157.1615 H   0  0  0  0  0  0  0  0  0  0  0  0
  151.6375  142.6620  156.9184 H   0  0  0  0  0  0  0  0  0  0  0  0
  151.4104  140.4263  158.9970 H   0  0  0  0  0  0  0  0  0  0  0  0
  152.8864  140.5746  156.4692 H   0  0  0  0  0  0  0  0  0  0  0  0
  151.7099  138.1141  157.2060 H   0  0  0  0  0  0  0  0  0  0  0  0
  150.5105  139.3709  157.0276 H   0  0  0  0  0  0  0  0  0  0  0  0
  153.5179  137.9163  155.1251 H   0  0  0  0  0  0  0  0  0  0  0  0
  153.6372  139.6561  154.8878 H   0  0  0  0  0  0  0  0  0  0  0  0
  153.0333  138.6357  153.5941 H   0  0  0  0  0  0  0  0  0  0  0  0
  151.1141  136.8052  155.1717 H   0  0  0  0  0  0  0  0  0  0  0  0
  150.7076  137.6416  153.6788 H   0  0  0  0  0  0  0  0  0  0  0  0
  149.6954  137.8436  155.1046 H   0  0  0  0  0  0  0  0  0  0  0  0
  150.3972  140.4594  155.2438 H   0  0  0  0  0  0  0  0  0  0  0  0
  153.8501  142.1051  158.3130 H   0  0  0  0  0  0  0  0  0  0  0  0
  154.5170  139.8176  158.9651 H   0  0  0  0  0  0  0  0  0  0  0  0
  153.5159  139.8997  160.4092 H   0  0  0  0  0  0  0  0  0  0  0  0
  154.9258  140.9436  160.2484 H   0  0  0  0  0  0  0  0  0  0  0  0
  153.6087  141.7706  161.8657 H   0  0  0  0  0  0  0  0  0  0  0  0
  152.5139  144.0271  162.9372 H   0  0  0  0  0  0  0  0  0  0  0  0
  151.4122  145.2931  160.7319 H   0  0  0  0  0  0  0  0  0  0  0  0
  1  2  1  0  0  0  0
  1 16  1  0  0  0  0
  1 17  1  0  0  0  0
  1 18  1  0  0  0  0
  2  3  1  0  0  0  0
  2  9  1  0  0  0  0
  2 19  1  0  0  0  0
  3  4  1  0  0  0  0
  3 20  1  0  0  0  0
  4  5  1  0  0  0  0
  4 21  1  0  0  0  0
  4 22  1  0  0  0  0
  5  6  1  0  0  0  0
  5  7  1  0  0  0  0
  5  8  1  0  0  0  0
  6 23  1  0  0  0  0
  6 24  1  0  0  0  0
  6 25  1  0  0  0  0
  7 26  1  0  0  0  0
  7 27  1  0  0  0  0
  7 28  1  0  0  0  0
  8 29  1  0  0  0  0
  9 10  1  0  0  0  0
  9 11  1  0  0  0  0
  9 30  1  0  0  0  0
 10 31  1  0  0  0  0
 10 32  1  0  0  0  0
 10 33  1  0  0  0  0
 11 15  1  0  0  0  0
 11 12  1  0  0  0  0
 12 13  2  0  0  0  0
 12 34  1  0  0  0  0
 13 14  1  0  0  0  0
 13 35  1  0  0  0  0
 14 15  2  0  0  0  0
 14 36  1  0  0  0  0
M  END
> <s_m_source_file>
AV-unprocessed.smi

> <i_m_source_file_index>
3117

> <i_lp_mmshare_version>
43012

> <i_f3d_flags>
0

> <s_epik_input>
W0NIM11DKFtDSDNdKShbT0hdKVtDSDJdW05IXVtDQEBIXShbQ0gzXSlbQ0BIXShbQ0gzXSluMVtjSF1bY0hdW2NIXW4x

> <s_epik_cmdline>
J2VwaWtfcHl0aG9uJywgJy1waCcsICc3LjAnLCAnLXRuJywgJzgnLCAnLW1hJywgJzIwMCcsICctbWV0YWxfYmluZGluZycsICctaW1hZScsICc8aW5maWxlLm1hZT4nLCAnLW9tYWUnLCAnPG91dGZpbGUubWFlPic=

> <r_lp_tautomer_probability>
1

> <r_epik_Ionization_Penalty>
2.13419

> <r_epik_Ionization_Penalty_Charging>
0

> <r_epik_Ionization_Penalty_Neutral>
2.13419

> <r_epik_State_Penalty>
2.27148

> <r_epik_Charging_Adjusted_Penalty>
2.27148

> <i_epik_Tot_Q>
0

> <i_epik_Tot_abs_Q>
0

> <r_epik_Metal_State_Penalty>
2.27029

> <b_epik_Metal_Only>
0

> <s_lp_Force_Field>
OPLS_2005

> <r_lp_Energy>
18.8486

> <b_lp_Chiralities_Consistent>
1

> <s_lp_Variant>
AV-unprocessed.smi:3117-6

> <Gold.Version>
5.8.1

> <Gold.Id.Protein>
6NUR|6NUR_protein|mol2

> <Gold.PLP.Fitness>
40.2003

> <Gold.PLP.PLP>
-38.2824

> <Gold.PLP.part.hbond>
-2.0000

> <Gold.PLP.part.metal>
0.0000

> <Gold.PLP.part.buried>
-6.0266

> <Gold.PLP.part.nonpolar>
-29.9327

> <Gold.PLP.part.repulsive>
0.0038

> <Gold.PLP.ligand.clash>
0.0000

> <Gold.PLP.ligand.torsion>
0.6105

> <Gold.PLP.Chemscore.Hbond>
1.0000

> <Gold.PLP.Chemscore.CHOScore>
0.0000

> <Gold.PLP.Chemscore.Metal>
0.0000

> <Gold.Chemscore.Hbonds>
donor molecule, donor type, donor heavy atom, donor atom, acceptor molecule, acceptor atom, score
      P1  H  7989  7998       L1     8  0.94

> <Gold.PLP.Chemscore.Internal.Correction>
0.1389

> <Gold.Rescore>
     Score         DG    S(hbond)    S(metal)    S(lipo)     H(rot)  DE(clash)    DE(int)     intcor
     12.64     -14.58       0.99        0.00      97.44       2.19       0.02       1.92       ----

> <Gold.Chemscore.Fitness>
12.6383

> <Gold.Chemscore.DG>
-14.5827

> <Gold.Chemscore.ZeroCoef>
-5.4800

> <Gold.Chemscore.Hbond>
0.9891

> <Gold.Chemscore.Metal>
0.0000

> <Gold.Chemscore.Lipo>
97.4435

> <Gold.Chemscore.Internal_Hbond>
0.0000

> <Gold.Chemscore.DEClash>
0.0195

> <Gold.Chemscore.DEInternal>
1.9249

> <Gold.Chemscore.Rot>
2.1882

> <Gold.Chemscore.Internal.Correction>
   9.000000E+99

> <Gold.Chemscore.Hbonds>
donor molecule, donor type, donor heavy atom, donor atom, acceptor molecule, acceptor atom, score
      P1  H  7989  7998       L1     8  0.89

> <Gold.Chemscore.Hbond.Weighted>
-3.3036

> <Gold.Chemscore.Metal.Weighted>
-0.0000

> <Gold.Chemscore.Lipo.Weighted>
-11.4009

> <Gold.Chemscore.Internal_Hbond.Weighted>
0.0000

> <Gold.Chemscore.DEClash.Weighted>
0.0195

> <Gold.Chemscore.DEInternal.Weighted>
1.9249

> <Gold.Chemscore.Rot.Weighted>
5.6018

> <Gold.Chemscore.Internal.Correction.Weighted>
   9.000000E+99

> <Gold.Protein.RotatedTorsions>
[ 6907 6896 6895 6894 ] final  -24.53 input  -60.11 | X-H torsion
[ 7974 7965 7964 7962 ] final  108.99 input  175.53 | X-H torsion
[ 8008 7997 7996 7995 ] final  -48.93 input   59.86 | X-H torsion
[ 10167 10162 10161 10158 ] final   11.85 input  -65.29 | X-H torsion
[ 10718 10713 10712 10709 ] final  -74.12 input   66.30 | X-H torsion
[ 10763 10752 10751 10750 ] final -143.39 input  -60.55 | X-H torsion
[ 11005 11000 10999 10996 ] final -130.19 input  -57.11 | X-H torsion

> <Gold.Protein.ActiveResidues>
 VAL166  LYS551  ARG553  GLY616  TRP617  ASP618  TYR619  PRO620  LYS621  CYS622 
 ASP623  PHE694  ASN695  SER759  ASP760  ASP761  ALA762  ILE779  LEU786  VAL792 
 PHE793  MET794  SER795  GLU796  ALA797  LYS798  CYS799  TRP800  GLU811  SER814 

> <Gold.Protein.RotatedAtoms>
  151.1883  135.0391  159.8821 H   0  0  0  0  0  0  0  0  0  0  0  0  # atno 6907 bound_to 6896
  152.5441  134.0985  159.8318 H   0  0  0  0  0  0  0  0  0  0  0  0  # atno 6908 bound_to 6896
  151.1110  133.5125  159.2638 H   0  0  0  0  0  0  0  0  0  0  0  0  # atno 6909 bound_to 6896
  145.2735  139.2658  143.3953 H   0  0  0  0  0  0  0  0  0  0  0  0  # atno 7974 bound_to 7965
  154.4036  140.1309  156.4419 H   0  0  0  0  0  0  0  0  0  0  0  0  # atno 8008 bound_to 7997
  155.7451  140.3489  155.5103 H   0  0  0  0  0  0  0  0  0  0  0  0  # atno 8009 bound_to 7997
  155.9003  140.1018  157.1345 H   0  0  0  0  0  0  0  0  0  0  0  0  # atno 8010 bound_to 7997
  140.6105  143.8417  150.7061 H   0  0  0  0  0  0  0  0  0  0  0  0  # atno 10167 bound_to 10162
  156.0254  130.4409  150.2844 H   0  0  0  0  0  0  0  0  0  0  0  0  # atno 10718 bound_to 10713
  154.8471  135.3469  154.6180 H   0  0  0  0  0  0  0  0  0  0  0  0  # atno 10763 bound_to 10752
  153.6789  135.6981  153.5128 H   0  0  0  0  0  0  0  0  0  0  0  0  # atno 10764 bound_to 10752
  153.2684  135.4301  155.0919 H   0  0  0  0  0  0  0  0  0  0  0  0  # atno 10765 bound_to 10752
  140.9367  134.1248  157.4187 H   0  0  0  0  0  0  0  0  0  0  0  0  # atno 11005 bound_to 11000
  146.3239  140.3184  142.8631 LP  0  0  0  0  0  0  0  0  0  0  0  0  # atno 17320 bound_to 7965
  144.9314  140.7979  143.5687 LP  0  0  0  0  0  0  0  0  0  0  0  0  # atno 17321 bound_to 7965
  140.1984  143.3979  152.1810 LP  0  0  0  0  0  0  0  0  0  0  0  0  # atno 17342 bound_to 10162
  139.5358  144.7208  151.4899 LP  0  0  0  0  0  0  0  0  0  0  0  0  # atno 17343 bound_to 10162
  157.0948  131.0179  151.3108 LP  0  0  0  0  0  0  0  0  0  0  0  0  # atno 17370 bound_to 10713
  157.4826  130.7774  149.7429 LP  0  0  0  0  0  0  0  0  0  0  0  0  # atno 17371 bound_to 10713
  139.8809  135.0023  156.6119 LP  0  0  0  0  0  0  0  0  0  0  0  0  # atno 17394 bound_to 11000
  140.7790  133.8676  155.8552 LP  0  0  0  0  0  0  0  0  0  0  0  0  # atno 17395 bound_to 11000

$$$$
