AV-unprocessed.smi:9|AV-procd|sdf|51|dock9
  -GOLD-   2262015173D 1   1.00000     0.00000
 Structure written by MMmdl.
 35 37  0  0  0  0  0  0  0  0  1 V2000
  153.4272  136.3989  160.3597 O   0  0  0  0  0  0  0  0  0  0  0  0
  153.2393  137.4175  159.6982 C   0  0  0  0  0  0  0  0  0  0  0  0
  152.6976  137.4173  158.4558 N   0  0  0  0  0  0  0  0  0  0  0  0
  152.4847  138.5963  157.6962 C   0  0  0  0  0  0  0  0  0  0  0  0
  151.8644  138.2747  156.3457 C   0  0  0  0  0  0  0  0  0  0  0  0
  150.8612  139.1078  156.0654 F   0  0  0  0  0  0  0  0  0  0  0  0
  152.7740  138.3821  155.3765 F   0  0  0  0  0  0  0  0  0  0  0  0
  151.3847  137.0307  156.3379 F   0  0  0  0  0  0  0  0  0  0  0  0
  152.7707  139.8159  158.0740 N   0  0  0  0  0  0  0  0  0  0  0  0
  153.3195  139.8381  159.3407 C   0  0  0  0  0  0  0  0  0  0  0  0
  153.5801  138.7812  160.1735 C   0  0  0  0  0  0  0  0  0  0  0  0
  154.1463  139.2073  161.3685 N   0  0  0  0  0  0  0  0  0  0  0  0
  154.2008  140.5272  161.2013 C   0  0  0  0  0  0  0  0  0  0  0  0
  153.7187  140.9800  160.0276 N   0  0  0  0  0  0  0  0  0  0  0  0
  153.6525  142.3651  159.5818 C   0  0  0  0  0  0  0  0  0  0  0  0
  152.3548  143.1076  159.9931 C   0  0  1  0  0  0  0  0  0  0  0  0
  152.1945  142.9379  161.3894 O   0  0  0  0  0  0  0  0  0  0  0  0
  152.4198  144.6164  159.6676 C   0  0  0  0  0  0  0  0  0  0  0  0
  151.0539  145.2918  159.8265 C   0  0  0  0  0  0  0  0  0  0  0  0
  149.9885  144.5212  159.0391 C   0  0  0  0  0  0  0  0  0  0  0  0
  149.9338  143.1844  159.5172 O   0  0  0  0  0  0  0  0  0  0  0  0
  151.1351  142.4460  159.3079 C   0  0  0  0  0  0  0  0  0  0  0  0
  152.4349  136.5288  158.0547 H   0  0  0  0  0  0  0  0  0  0  0  0
  154.5980  141.1869  161.9590 H   0  0  0  0  0  0  0  0  0  0  0  0
  154.5200  142.8862  159.9892 H   0  0  0  0  0  0  0  0  0  0  0  0
  153.7745  142.3844  158.4979 H   0  0  0  0  0  0  0  0  0  0  0  0
  151.4450  142.3816  161.5373 H   0  0  0  0  0  0  0  0  0  0  0  0
  153.1560  145.1221  160.2934 H   0  0  0  0  0  0  0  0  0  0  0  0
  152.7521  144.7459  158.6366 H   0  0  0  0  0  0  0  0  0  0  0  0
  150.7760  145.3284  160.8803 H   0  0  0  0  0  0  0  0  0  0  0  0
  151.1046  146.3247  159.4810 H   0  0  0  0  0  0  0  0  0  0  0  0
  149.0117  144.9850  159.1775 H   0  0  0  0  0  0  0  0  0  0  0  0
  150.2008  144.5342  157.9689 H   0  0  0  0  0  0  0  0  0  0  0  0
  151.3047  142.3669  158.2329 H   0  0  0  0  0  0  0  0  0  0  0  0
  150.9926  141.4276  159.6718 H   0  0  0  0  0  0  0  0  0  0  0  0
  1  2  2  0  0  0  0
  2 11  1  0  0  0  0
  2  3  1  0  0  0  0
  3 23  1  0  0  0  0
  3  4  1  0  0  0  0
  4  5  1  0  0  0  0
  4  9  2  0  0  0  0
  5  6  1  0  0  0  0
  5  7  1  0  0  0  0
  5  8  1  0  0  0  0
  9 10  1  0  0  0  0
 10 14  1  0  0  0  0
 10 11  2  0  0  0  0
 11 12  1  0  0  0  0
 12 13  2  0  0  0  0
 13 14  1  0  0  0  0
 13 24  1  0  0  0  0
 14 15  1  0  0  0  0
 15 16  1  0  0  0  0
 15 25  1  0  0  0  0
 15 26  1  0  0  0  0
 16 22  1  0  0  0  0
 16 17  1  0  0  0  0
 16 18  1  0  0  0  0
 17 27  1  0  0  0  0
 18 19  1  0  0  0  0
 18 28  1  0  0  0  0
 18 29  1  0  0  0  0
 19 20  1  0  0  0  0
 19 30  1  0  0  0  0
 19 31  1  0  0  0  0
 20 21  1  0  0  0  0
 20 32  1  0  0  0  0
 20 33  1  0  0  0  0
 21 22  1  0  0  0  0
 22 34  1  0  0  0  0
 22 35  1  0  0  0  0
M  END
> <s_m_source_file>
AV-unprocessed.smi

> <i_m_source_file_index>
9

> <i_lp_mmshare_version>
43012

> <i_f3d_flags>
0

> <s_epik_input>
RkMoRikoRiljKG4xKVtuSF1jKD1PKWMoYzEyKW5bY0hdbjJbQ0gyXVtDQEBdMyhbT0hdKVtDSDJdW0NIMl1bQ0gyXU9bQ0gyXTM=

> <s_epik_cmdline>
J2VwaWtfcHl0aG9uJywgJy1waCcsICc3LjAnLCAnLXRuJywgJzgnLCAnLW1hJywgJzIwMCcsICctbWV0YWxfYmluZGluZycsICctaW1hZScsICc8aW5maWxlLm1hZT4nLCAnLW9tYWUnLCAnPG91dGZpbGUubWFlPic=

> <r_lp_tautomer_probability>
0.85571

> <r_epik_Ionization_Penalty>
0.770127

> <r_epik_Ionization_Penalty_Charging>
0.770101

> <r_epik_Ionization_Penalty_Neutral>
2.64604e-05

> <r_epik_State_Penalty>
2.30539

> <r_epik_Charging_Adjusted_Penalty>
3.07549

> <i_epik_Tot_Q>
0

> <i_epik_Tot_abs_Q>
0

> <r_epik_Metal_State_Penalty>
2.4903

> <b_epik_Metal_Only>
0

> <s_lp_Force_Field>
OPLS_2005

> <r_lp_Energy>
27.1686

> <b_lp_Chiralities_Consistent>
1

> <s_lp_Variant>
AV-unprocessed.smi:9-3

> <Gold.Version>
5.8.1

> <Gold.Id.Protein>
6NUR|6NUR_protein|mol2

> <Gold.PLP.Fitness>
41.5671

> <Gold.PLP.PLP>
-38.1422

> <Gold.PLP.part.hbond>
-3.1064

> <Gold.PLP.part.metal>
0.0000

> <Gold.PLP.part.buried>
-5.0508

> <Gold.PLP.part.nonpolar>
-30.6070

> <Gold.PLP.part.repulsive>
0.1880

> <Gold.PLP.ligand.clash>
0.0000

> <Gold.PLP.ligand.torsion>
0.9619

> <Gold.PLP.Chemscore.Hbond>
1.7808

> <Gold.PLP.Chemscore.CHOScore>
0.0000

> <Gold.PLP.Chemscore.Metal>
0.0000

> <Gold.Chemscore.Hbonds>
donor molecule, donor type, donor heavy atom, donor atom, acceptor molecule, acceptor atom, score
      P1  H  6896  6907       L1     1  1.00
      P1  H  7997  8010       L1     9  0.33

> <Gold.PLP.Chemscore.Internal.Correction>
0.0063

> <Gold.Rescore>
     Score         DG    S(hbond)    S(metal)    S(lipo)     H(rot)  DE(clash)    DE(int)     intcor
     11.51     -12.20       1.06        0.00      73.99       2.14       0.01       0.68       ----

> <Gold.Chemscore.Fitness>
11.5082

> <Gold.Chemscore.DG>
-12.1986

> <Gold.Chemscore.ZeroCoef>
-5.4800

> <Gold.Chemscore.Hbond>
1.0577

> <Gold.Chemscore.Metal>
0.0000

> <Gold.Chemscore.Lipo>
73.9928

> <Gold.Chemscore.Internal_Hbond>
0.0000

> <Gold.Chemscore.DEClash>
0.0123

> <Gold.Chemscore.DEInternal>
0.6781

> <Gold.Chemscore.Rot>
2.1373

> <Gold.Chemscore.Internal.Correction>
   9.000000E+99

> <Gold.Chemscore.Hbonds>
donor molecule, donor type, donor heavy atom, donor atom, acceptor molecule, acceptor atom, score
      P1  H  6896  6907       L1     1  0.97
      P1  H  7997  8010       L1     9  0.01

> <Gold.Chemscore.Hbond.Weighted>
-3.5329

> <Gold.Chemscore.Metal.Weighted>
-0.0000

> <Gold.Chemscore.Lipo.Weighted>
-8.6572

> <Gold.Chemscore.Internal_Hbond.Weighted>
0.0000

> <Gold.Chemscore.DEClash.Weighted>
0.0123

> <Gold.Chemscore.DEInternal.Weighted>
0.6781

> <Gold.Chemscore.Rot.Weighted>
5.4714

> <Gold.Chemscore.Internal.Correction.Weighted>
   9.000000E+99

> <Gold.Protein.RotatedTorsions>
[ 6907 6896 6895 6894 ] final   49.91 input  -60.11 | X-H torsion
[ 7974 7965 7964 7962 ] final   -3.50 input  175.53 | X-H torsion
[ 8008 7997 7996 7995 ] final   21.80 input   59.86 | X-H torsion
[ 10167 10162 10161 10158 ] final    4.67 input  -65.29 | X-H torsion
[ 10718 10713 10712 10709 ] final  -75.04 input   66.30 | X-H torsion
[ 10763 10752 10751 10750 ] final -163.66 input  -60.55 | X-H torsion
[ 11005 11000 10999 10996 ] final  -51.85 input  -57.11 | X-H torsion

> <Gold.Protein.ActiveResidues>
 VAL166  LYS551  ARG553  GLY616  TRP617  ASP618  TYR619  PRO620  LYS621  CYS622 
 ASP623  PHE694  ASN695  SER759  ASP760  ASP761  ALA762  ILE779  LEU786  VAL792 
 PHE793  MET794  SER795  GLU796  ALA797  LYS798  CYS799  TRP800  GLU811  SER814 

> <Gold.Protein.RotatedAtoms>
  152.2960  134.7667  160.0367 H   0  0  0  0  0  0  0  0  0  0  0  0  # atno 6907 bound_to 6896
  151.8196  133.3387  159.3588 H   0  0  0  0  0  0  0  0  0  0  0  0  # atno 6908 bound_to 6896
  150.7251  134.5515  159.5841 H   0  0  0  0  0  0  0  0  0  0  0  0  # atno 6909 bound_to 6896
  146.2388  140.1730  142.8332 H   0  0  0  0  0  0  0  0  0  0  0  0  # atno 7974 bound_to 7965
  154.9560  140.3072  155.5053 H   0  0  0  0  0  0  0  0  0  0  0  0  # atno 8008 bound_to 7997
  156.2982  140.2310  156.4580 H   0  0  0  0  0  0  0  0  0  0  0  0  # atno 8009 bound_to 7997
  154.8009  140.0434  157.1261 H   0  0  0  0  0  0  0  0  0  0  0  0  # atno 8010 bound_to 7997
  140.6523  143.7515  150.7595 H   0  0  0  0  0  0  0  0  0  0  0  0  # atno 10167 bound_to 10162
  156.0221  130.4431  150.2983 H   0  0  0  0  0  0  0  0  0  0  0  0  # atno 10718 bound_to 10713
  154.7102  135.3004  154.9209 H   0  0  0  0  0  0  0  0  0  0  0  0  # atno 10763 bound_to 10752
  154.0113  135.6694  153.4769 H   0  0  0  0  0  0  0  0  0  0  0  0  # atno 10764 bound_to 10752
  153.0749  135.5040  154.8295 H   0  0  0  0  0  0  0  0  0  0  0  0  # atno 10765 bound_to 10752
  141.0893  133.6636  156.3937 H   0  0  0  0  0  0  0  0  0  0  0  0  # atno 11005 bound_to 11000
  144.9996  140.8620  143.5290 LP  0  0  0  0  0  0  0  0  0  0  0  0  # atno 17320 bound_to 7965
  145.1748  139.2384  143.5323 LP  0  0  0  0  0  0  0  0  0  0  0  0  # atno 17321 bound_to 7965
  140.1168  143.4648  152.2337 LP  0  0  0  0  0  0  0  0  0  0  0  0  # atno 17342 bound_to 10162
  139.5739  144.7477  151.3816 LP  0  0  0  0  0  0  0  0  0  0  0  0  # atno 17343 bound_to 10162
  157.1086  131.0215  151.3057 LP  0  0  0  0  0  0  0  0  0  0  0  0  # atno 17370 bound_to 10713
  157.4722  130.7716  149.7335 LP  0  0  0  0  0  0  0  0  0  0  0  0  # atno 17371 bound_to 10713
  140.5290  134.6231  157.5343 LP  0  0  0  0  0  0  0  0  0  0  0  0  # atno 17394 bound_to 11000
  139.9716  134.7283  156.0030 LP  0  0  0  0  0  0  0  0  0  0  0  0  # atno 17395 bound_to 11000

$$$$
