AV-unprocessed.smi:1700|AV-procd|sdf|6820|dock3
  -GOLD-   22720 7593D 1   1.00000     0.00000
 Structure written by MMmdl.
 34 35  0  0  0  0  0  0  0  0  1 V2000
  150.8302  137.5567  154.4747 C   0  0  0  0  0  0  0  0  0  0  0  0
  150.2438  138.9352  154.7334 C   0  0  0  0  0  0  0  0  0  0  0  0
  150.9733  139.8601  155.5103 C   0  0  0  0  0  0  0  0  0  0  0  0
  150.4309  141.1345  155.7485 C   0  0  0  0  0  0  0  0  0  0  0  0
  149.1737  141.4319  155.1955 C   0  0  0  0  0  0  0  0  0  0  0  0
  148.4695  140.5540  154.4525 N   0  0  0  0  0  0  0  0  0  0  0  0
  148.9783  139.3190  154.2136 C   0  0  0  0  0  0  0  0  0  0  0  0
  148.2899  138.3412  153.4407 N   0  0  0  0  0  0  0  0  0  0  0  0
  146.9642  138.1858  153.2758 C   0  0  0  0  0  0  0  0  0  0  0  0
  146.0936  138.8976  153.7777 O   0  0  0  0  0  0  0  0  0  0  0  0
  146.6941  137.1394  152.4824 N   0  0  0  0  0  0  0  0  0  0  0  0
  145.3551  136.6912  152.1177 C   0  0  0  0  0  0  0  0  0  0  0  0
  145.3990  135.5794  151.0567 C   0  0  1  0  0  0  0  0  0  0  0  0
  146.2096  134.3584  151.4806 C   0  0  0  0  0  0  0  0  0  0  0  0
  145.6492  133.2922  150.5666 C   0  0  0  0  0  0  0  0  0  0  0  0
  144.1725  133.6759  150.4809 C   0  0  0  0  0  0  0  0  0  0  0  0
  144.0952  135.0601  150.8153 O   0  0  0  0  0  0  0  0  0  0  0  0
  151.8029  137.4425  154.9539 H   0  0  0  0  0  0  0  0  0  0  0  0
  150.9621  137.3926  153.4049 H   0  0  0  0  0  0  0  0  0  0  0  0
  150.1710  136.7817  154.8665 H   0  0  0  0  0  0  0  0  0  0  0  0
  151.9379  139.5993  155.9204 H   0  0  0  0  0  0  0  0  0  0  0  0
  150.9645  141.8645  156.3390 H   0  0  0  0  0  0  0  0  0  0  0  0
  148.7207  142.3996  155.3531 H   0  0  0  0  0  0  0  0  0  0  0  0
  148.8792  137.6784  152.9599 H   0  0  0  0  0  0  0  0  0  0  0  0
  147.4675  136.6048  152.1148 H   0  0  0  0  0  0  0  0  0  0  0  0
  144.8272  136.3431  153.0072 H   0  0  0  0  0  0  0  0  0  0  0  0
  144.7950  137.5474  151.7411 H   0  0  0  0  0  0  0  0  0  0  0  0
  145.7972  135.9593  150.1142 H   0  0  0  0  0  0  0  0  0  0  0  0
  147.2843  134.5004  151.3636 H   0  0  0  0  0  0  0  0  0  0  0  0
  146.0072  134.1032  152.5218 H   0  0  0  0  0  0  0  0  0  0  0  0
  146.1129  133.3677  149.5820 H   0  0  0  0  0  0  0  0  0  0  0  0
  145.8062  132.2800  150.9406 H   0  0  0  0  0  0  0  0  0  0  0  0
  143.7619  133.4885  149.4885 H   0  0  0  0  0  0  0  0  0  0  0  0
  143.5827  133.1107  151.2031 H   0  0  0  0  0  0  0  0  0  0  0  0
  1  2  1  0  0  0  0
  1 18  1  0  0  0  0
  1 19  1  0  0  0  0
  1 20  1  0  0  0  0
  2  7  1  0  0  0  0
  2  3  2  0  0  0  0
  3  4  1  0  0  0  0
  3 21  1  0  0  0  0
  4  5  2  0  0  0  0
  4 22  1  0  0  0  0
  5  6  1  0  0  0  0
  5 23  1  0  0  0  0
  6  7  2  0  0  0  0
  7  8  1  0  0  0  0
  8  9  1  0  0  0  0
  8 24  1  0  0  0  0
  9 10  2  0  0  0  0
  9 11  1  0  0  0  0
 11 12  1  0  0  0  0
 11 25  1  0  0  0  0
 12 13  1  0  0  0  0
 12 26  1  0  0  0  0
 12 27  1  0  0  0  0
 13 17  1  0  0  0  0
 13 14  1  0  0  0  0
 13 28  1  0  0  0  0
 14 15  1  0  0  0  0
 14 29  1  0  0  0  0
 14 30  1  0  0  0  0
 15 16  1  0  0  0  0
 15 31  1  0  0  0  0
 15 32  1  0  0  0  0
 16 17  1  0  0  0  0
 16 33  1  0  0  0  0
 16 34  1  0  0  0  0
M  END
> <s_m_source_file>
AV-unprocessed.smi

> <i_m_source_file_index>
1700

> <i_lp_mmshare_version>
43012

> <i_f3d_flags>
0

> <s_epik_input>
W0NIM11jMVtjSF1bY0hdW2NIXW5jMVtOSF1DKD1PKVtOSF1bQ0gyXVtDQEBIXTJbQ0gyXVtDSDJdW0NIMl1PMg==

> <s_epik_cmdline>
J2VwaWtfcHl0aG9uJywgJy1waCcsICc3LjAnLCAnLXRuJywgJzgnLCAnLW1hJywgJzIwMCcsICctbWV0YWxfYmluZGluZycsICctaW1hZScsICc8aW5maWxlLm1hZT4nLCAnLW9tYWUnLCAnPG91dGZpbGUubWFlPic=

> <r_lp_tautomer_probability>
1

> <r_epik_Ionization_Penalty>
5.57253e-05

> <r_epik_Ionization_Penalty_Charging>
0

> <r_epik_Ionization_Penalty_Neutral>
5.57253e-05

> <r_epik_State_Penalty>
-0

> <r_epik_Charging_Adjusted_Penalty>
0

> <i_epik_Tot_Q>
0

> <i_epik_Tot_abs_Q>
0

> <r_epik_Metal_State_Penalty>
-0

> <b_epik_Metal_Only>
0

> <s_lp_Force_Field>
OPLS_2005

> <r_lp_Energy>
19.2835

> <b_lp_Chiralities_Consistent>
1

> <s_lp_Variant>
AV-unprocessed.smi:1700-2

> <Gold.Version>
5.8.1

> <Gold.Id.Protein>
6NUR|6NUR_protein|mol2

> <Gold.PLP.Fitness>
39.1728

> <Gold.PLP.PLP>
-30.7059

> <Gold.PLP.part.hbond>
-2.8230

> <Gold.PLP.part.metal>
0.0000

> <Gold.PLP.part.buried>
-2.1414

> <Gold.PLP.part.nonpolar>
-27.3117

> <Gold.PLP.part.repulsive>
0.6085

> <Gold.PLP.ligand.clash>
0.0000

> <Gold.PLP.ligand.torsion>
0.2087

> <Gold.PLP.Chemscore.Hbond>
1.9600

> <Gold.PLP.Chemscore.CHOScore>
1.0000

> <Gold.PLP.Chemscore.Metal>
0.0000

> <Gold.Chemscore.Hbonds>
donor molecule, donor type, donor heavy atom, donor atom, acceptor molecule, acceptor atom, score
      L1  H     8    24       P1  7948  0.96
      L1  H    11    25       P1  7948  1.00
      L1  C     5    23       P1  8028  1.00

> <Gold.PLP.Chemscore.Internal.Correction>
0.0043

> <Gold.Rescore>
     Score         DG    S(hbond)    S(metal)    S(lipo)     H(rot)  DE(clash)    DE(int)     intcor
     15.15     -16.58       1.94        0.00      66.59       1.23       0.09       1.34       ----

> <Gold.Chemscore.Fitness>
15.1454

> <Gold.Chemscore.DG>
-16.5795

> <Gold.Chemscore.ZeroCoef>
-5.4800

> <Gold.Chemscore.Hbond>
1.9361

> <Gold.Chemscore.Metal>
0.0000

> <Gold.Chemscore.Lipo>
66.5897

> <Gold.Chemscore.Internal_Hbond>
0.0000

> <Gold.Chemscore.DEClash>
0.0900

> <Gold.Chemscore.DEInternal>
1.3441

> <Gold.Chemscore.Rot>
1.2337

> <Gold.Chemscore.Internal.Correction>
   9.000000E+99

> <Gold.Chemscore.Hbonds>
donor molecule, donor type, donor heavy atom, donor atom, acceptor molecule, acceptor atom, score
      L1  H     8    24       P1  7948  0.92
      L1  H    11    25       P1  7948  0.93

> <Gold.Chemscore.Hbond.Weighted>
-6.4667

> <Gold.Chemscore.Metal.Weighted>
-0.0000

> <Gold.Chemscore.Lipo.Weighted>
-7.7910

> <Gold.Chemscore.Internal_Hbond.Weighted>
0.0000

> <Gold.Chemscore.DEClash.Weighted>
0.0900

> <Gold.Chemscore.DEInternal.Weighted>
1.3441

> <Gold.Chemscore.Rot.Weighted>
3.1582

> <Gold.Chemscore.Internal.Correction.Weighted>
   9.000000E+99

> <Gold.Protein.RotatedTorsions>
[ 6907 6896 6895 6894 ] final   95.11 input  -60.11 | X-H torsion
[ 7974 7965 7964 7962 ] final  -57.61 input  175.53 | X-H torsion
[ 8008 7997 7996 7995 ] final  -73.03 input   59.86 | X-H torsion
[ 10167 10162 10161 10158 ] final   43.81 input  -65.29 | X-H torsion
[ 10718 10713 10712 10709 ] final   33.61 input   66.30 | X-H torsion
[ 10763 10752 10751 10750 ] final   10.98 input  -60.55 | X-H torsion
[ 11005 11000 10999 10996 ] final   42.28 input  -57.11 | X-H torsion

> <Gold.Protein.ActiveResidues>
 VAL166  LYS551  ARG553  GLY616  TRP617  ASP618  TYR619  PRO620  LYS621  CYS622 
 ASP623  PHE694  ASN695  SER759  ASP760  ASP761  ALA762  ILE779  LEU786  VAL792 
 PHE793  MET794  SER795  GLU796  ALA797  LYS798  CYS799  TRP800  GLU811  SER814 

> <Gold.Protein.RotatedAtoms>
  152.5446  134.1090  159.8350 H   0  0  0  0  0  0  0  0  0  0  0  0  # atno 6907 bound_to 6896
  151.1159  133.5131  159.2611 H   0  0  0  0  0  0  0  0  0  0  0  0  # atno 6908 bound_to 6896
  151.1832  135.0380  159.8856 H   0  0  0  0  0  0  0  0  0  0  0  0  # atno 6909 bound_to 6896
  145.8490  140.8365  142.9995 H   0  0  0  0  0  0  0  0  0  0  0  0  # atno 7974 bound_to 7965
  154.5214  140.0786  156.8179 H   0  0  0  0  0  0  0  0  0  0  0  0  # atno 8008 bound_to 7997
  155.3568  140.3415  155.4222 H   0  0  0  0  0  0  0  0  0  0  0  0  # atno 8009 bound_to 7997
  156.1685  140.1612  156.8476 H   0  0  0  0  0  0  0  0  0  0  0  0  # atno 8010 bound_to 7997
  140.3406  144.2475  150.6156 H   0  0  0  0  0  0  0  0  0  0  0  0  # atno 10167 bound_to 10162
  157.3000  130.7345  149.6661 H   0  0  0  0  0  0  0  0  0  0  0  0  # atno 10718 bound_to 10713
  153.1975  135.6851  153.8274 H   0  0  0  0  0  0  0  0  0  0  0  0  # atno 10763 bound_to 10752
  153.7552  135.3218  155.3329 H   0  0  0  0  0  0  0  0  0  0  0  0  # atno 10764 bound_to 10752
  154.8152  135.4690  154.0725 H   0  0  0  0  0  0  0  0  0  0  0  0  # atno 10765 bound_to 10752
  140.1754  134.4170  155.8232 H   0  0  0  0  0  0  0  0  0  0  0  0  # atno 11005 bound_to 11000
  144.6730  140.0925  143.7464 LP  0  0  0  0  0  0  0  0  0  0  0  0  # atno 17320 bound_to 7965
  145.9379  139.2649  143.1286 LP  0  0  0  0  0  0  0  0  0  0  0  0  # atno 17321 bound_to 7965
  140.5312  143.2243  151.8235 LP  0  0  0  0  0  0  0  0  0  0  0  0  # atno 17342 bound_to 10162
  139.4841  144.4718  151.9416 LP  0  0  0  0  0  0  0  0  0  0  0  0  # atno 17343 bound_to 10162
  155.9671  130.4283  150.4782 LP  0  0  0  0  0  0  0  0  0  0  0  0  # atno 17370 bound_to 10713
  157.2761  131.0597  151.2228 LP  0  0  0  0  0  0  0  0  0  0  0  0  # atno 17371 bound_to 10713
  141.2220  133.6975  156.7836 LP  0  0  0  0  0  0  0  0  0  0  0  0  # atno 17394 bound_to 11000
  140.2329  134.8672  157.3495 LP  0  0  0  0  0  0  0  0  0  0  0  0  # atno 17395 bound_to 11000

$$$$
