AV-unprocessed.smi:1047|AV-procd|sdf|4588|dock9
  -GOLD-   22720 3 63D 1   1.00000     0.00000
 Structure written by MMmdl.
 57 59  0  0  0  0  0  0  0  0  3 V2000
  152.7653  129.8734  155.2893 C   0  0  0  0  0  0  0  0  0  0  0  0
  152.0960  131.1357  155.8514 C   0  0  0  0  0  0  0  0  0  0  0  0
  150.8900  131.5629  155.1437 N   0  0  0  0  0  0  0  0  0  0  0  0
  149.7352  130.7206  155.4449 C   0  0  0  0  0  0  0  0  0  0  0  0
  148.4688  131.2047  154.7191 C   0  0  0  0  0  0  0  0  0  0  0  0
  148.2178  132.5669  155.0495 O   0  0  0  0  0  0  0  0  0  0  0  0
  149.3013  133.4314  154.7162 C   0  0  1  0  0  0  0  0  0  0  0  0
  148.9102  134.8599  155.1182 C   0  0  0  0  0  0  0  0  0  0  0  0
  149.7449  135.8575  154.4199 N   0  3  0  0  0  0  0  0  0  0  0  0
  149.6031  137.2295  154.9470 C   0  0  0  0  0  0  0  0  0  0  0  0
  150.8303  138.0998  154.6116 C   0  0  2  0  0  0  0  0  0  0  0  0
  151.7818  137.3141  153.9224 O   0  0  0  0  0  0  0  0  0  0  0  0
  151.5366  138.6867  155.8512 C   0  0  0  0  0  0  0  0  0  0  0  0
  151.1922  140.0940  156.1019 N   0  0  0  0  0  0  0  0  0  0  0  0
  150.4030  140.9333  155.3772 C   0  0  0  0  0  0  0  0  0  0  0  0
  150.3982  142.1404  156.0071 N   0  3  0  0  0  0  0  0  0  0  0  0
  151.2004  142.0743  157.1480 C   0  0  0  0  0  0  0  0  0  0  0  0
  151.5046  143.0382  158.1020 C   0  0  0  0  0  0  0  0  0  0  0  0
  152.3601  142.6526  159.1586 C   0  0  0  0  0  0  0  0  0  0  0  0
  152.7101  143.6814  160.2206 C   0  0  0  0  0  0  0  0  0  0  0  0
  152.8826  141.3356  159.2307 C   0  0  0  0  0  0  0  0  0  0  0  0
  153.8012  140.9315  160.3713 C   0  0  0  0  0  0  0  0  0  0  0  0
  152.5616  140.3697  158.2499 C   0  0  0  0  0  0  0  0  0  0  0  0
  151.7163  140.7649  157.2149 C   0  0  0  0  0  0  0  0  0  0  0  0
  150.5618  132.9482  155.4612 C   0  0  0  0  0  0  0  0  0  0  0  0
  153.7139  129.6874  155.7933 H   0  0  0  0  0  0  0  0  0  0  0  0
  152.9722  129.9779  154.2240 H   0  0  0  0  0  0  0  0  0  0  0  0
  152.1469  128.9870  155.4300 H   0  0  0  0  0  0  0  0  0  0  0  0
  151.8744  130.9884  156.9096 H   0  0  0  0  0  0  0  0  0  0  0  0
  152.8311  131.9404  155.8088 H   0  0  0  0  0  0  0  0  0  0  0  0
  149.9315  129.6898  155.1513 H   0  0  0  0  0  0  0  0  0  0  0  0
  149.5541  130.7111  156.5209 H   0  0  0  0  0  0  0  0  0  0  0  0
  148.5791  131.0994  153.6387 H   0  0  0  0  0  0  0  0  0  0  0  0
  147.6099  130.6020  155.0139 H   0  0  0  0  0  0  0  0  0  0  0  0
  149.4801  133.3930  153.6399 H   0  0  0  0  0  0  0  0  0  0  0  0
  147.8571  135.0371  154.8954 H   0  0  0  0  0  0  0  0  0  0  0  0
  149.0384  134.9918  156.1935 H   0  0  0  0  0  0  0  0  0  0  0  0
  150.7126  135.5787  154.4973 H   0  0  0  0  0  0  0  0  0  0  0  0
  148.7067  137.6590  154.4996 H   0  0  0  0  0  0  0  0  0  0  0  0
  149.4382  137.1984  156.0251 H   0  0  0  0  0  0  0  0  0  0  0  0
  150.5292  138.9203  153.9587 H   0  0  0  0  0  0  0  0  0  0  0  0
  151.5245  137.2401  153.0162 H   0  0  0  0  0  0  0  0  0  0  0  0
  151.3260  138.0966  156.7431 H   0  0  0  0  0  0  0  0  0  0  0  0
  152.6182  138.6475  155.7131 H   0  0  0  0  0  0  0  0  0  0  0  0
  149.8770  140.6876  154.4655 H   0  0  0  0  0  0  0  0  0  0  0  0
  151.1039  144.0396  158.0402 H   0  0  0  0  0  0  0  0  0  0  0  0
  152.4197  143.3259  161.2096 H   0  0  0  0  0  0  0  0  0  0  0  0
  152.1974  144.6278  160.0446 H   0  0  0  0  0  0  0  0  0  0  0  0
  153.7825  143.8784  160.2235 H   0  0  0  0  0  0  0  0  0  0  0  0
  154.1545  139.9063  160.2558 H   0  0  0  0  0  0  0  0  0  0  0  0
  153.2772  140.9984  161.3252 H   0  0  0  0  0  0  0  0  0  0  0  0
  154.6760  141.5811  160.4097 H   0  0  0  0  0  0  0  0  0  0  0  0
  152.9596  139.3679  158.3117 H   0  0  0  0  0  0  0  0  0  0  0  0
  150.4105  133.0533  156.5372 H   0  0  0  0  0  0  0  0  0  0  0  0
  151.4023  133.5929  155.2017 H   0  0  0  0  0  0  0  0  0  0  0  0
  149.4861  135.8592  153.4434 H   0  0  0  0  0  0  0  0  0  0  0  0
  149.8879  142.9503  155.6781 H   0  0  0  0  0  0  0  0  0  0  0  0
  1  2  1  0  0  0  0
  1 26  1  0  0  0  0
  1 27  1  0  0  0  0
  1 28  1  0  0  0  0
  2  3  1  0  0  0  0
  2 29  1  0  0  0  0
  2 30  1  0  0  0  0
  3 25  1  0  0  0  0
  3  4  1  0  0  0  0
  4  5  1  0  0  0  0
  4 31  1  0  0  0  0
  4 32  1  0  0  0  0
  5  6  1  0  0  0  0
  5 33  1  0  0  0  0
  5 34  1  0  0  0  0
  6  7  1  0  0  0  0
  7  8  1  0  0  0  0
  7 25  1  0  0  0  0
  7 35  1  0  0  0  0
  8  9  1  0  0  0  0
  8 36  1  0  0  0  0
  8 37  1  0  0  0  0
  9 10  1  0  0  0  0
  9 38  1  0  0  0  0
  9 56  1  0  0  0  0
 10 11  1  0  0  0  0
 10 39  1  0  0  0  0
 10 40  1  0  0  0  0
 11 12  1  0  0  0  0
 11 13  1  0  0  0  0
 11 41  1  0  0  0  0
 12 42  1  0  0  0  0
 13 14  1  0  0  0  0
 13 43  1  0  0  0  0
 13 44  1  0  0  0  0
 14 24  1  0  0  0  0
 14 15  1  0  0  0  0
 15 16  2  0  0  0  0
 15 45  1  0  0  0  0
 16 17  1  0  0  0  0
 16 57  1  0  0  0  0
 17 24  2  0  0  0  0
 17 18  1  0  0  0  0
 18 19  2  0  0  0  0
 18 46  1  0  0  0  0
 19 20  1  0  0  0  0
 19 21  1  0  0  0  0
 20 47  1  0  0  0  0
 20 48  1  0  0  0  0
 20 49  1  0  0  0  0
 21 22  1  0  0  0  0
 21 23  2  0  0  0  0
 22 50  1  0  0  0  0
 22 51  1  0  0  0  0
 22 52  1  0  0  0  0
 23 24  1  0  0  0  0
 23 53  1  0  0  0  0
 25 54  1  0  0  0  0
 25 55  1  0  0  0  0
M  CHG  1   9   1
M  CHG  1  16   1
M  END
> <s_m_source_file>
AV-unprocessed.smi

> <i_m_source_file_index>
1047

> <i_lp_mmshare_version>
43012

> <i_f3d_flags>
0

> <s_epik_input>
W0NIM11bQ0gyXU4xW0NIMl1bQ0gyXU9bQ0BIXShbQ0gyXTEpW0NIMl1bTkhdW0NIMl1bQ0BIXShbT0hdKVtDSDJdbihbY0hdbjIpYyhjMjMpW2NIXWMoW0NIM10pYyhbY0hdMylbQ0gzXQ==

> <s_epik_cmdline>
J2VwaWtfcHl0aG9uJywgJy1waCcsICc3LjAnLCAnLXRuJywgJzgnLCAnLW1hJywgJzIwMCcsICctbWV0YWxfYmluZGluZycsICctaW1hZScsICc8aW5maWxlLm1hZT4nLCAnLW9tYWUnLCAnPG91dGZpbGUubWFlPic=

> <r_epik_Ionization_Penalty>
1.75732

> <r_epik_Ionization_Penalty_Charging>
1.18089

> <r_epik_Ionization_Penalty_Neutral>
0.576429

> <r_epik_State_Penalty>
1.69377

> <r_epik_Charging_Adjusted_Penalty>
2.87466

> <i_epik_Tot_Q>
2

> <i_epik_Tot_abs_Q>
2

> <r_epik_Metal_State_Penalty>
5.70174

> <b_epik_Metal_Only>
0

> <s_lp_Force_Field>
OPLS_2005

> <r_lp_Energy>
42.0789

> <b_lp_Chiralities_Consistent>
1

> <s_lp_Variant>
AV-unprocessed.smi:1047-29

> <Gold.Version>
5.8.1

> <Gold.Id.Protein>
6NUR|6NUR_protein|mol2

> <Gold.PLP.Fitness>
61.1788

> <Gold.PLP.PLP>
-47.1861

> <Gold.PLP.part.hbond>
-4.1737

> <Gold.PLP.part.metal>
0.0000

> <Gold.PLP.part.buried>
-3.6788

> <Gold.PLP.part.nonpolar>
-39.6046

> <Gold.PLP.part.repulsive>
0.1770

> <Gold.PLP.ligand.clash>
0.0000

> <Gold.PLP.ligand.torsion>
1.7888

> <Gold.PLP.Chemscore.Hbond>
5.8260

> <Gold.PLP.Chemscore.CHOScore>
0.0000

> <Gold.PLP.Chemscore.Metal>
0.0000

> <Gold.Chemscore.Hbonds>
donor molecule, donor type, donor heavy atom, donor atom, acceptor molecule, acceptor atom, score
      L1  H     9    56       P1  7948  2.00
      L1  H    12    42       P1  7949  0.93
      L1  H    16    57       P1  8028  1.98
      P1  H 10752 10765       L1    12  0.95

> <Gold.PLP.Chemscore.Internal.Correction>
0.0922

> <Gold.Rescore>
     Score         DG    S(hbond)    S(metal)    S(lipo)     H(rot)  DE(clash)    DE(int)     intcor
     19.40     -21.21       2.40        0.00     124.74       2.69       0.06       1.75       ----

> <Gold.Chemscore.Fitness>
19.4029

> <Gold.Chemscore.DG>
-21.2059

> <Gold.Chemscore.ZeroCoef>
-5.4800

> <Gold.Chemscore.Hbond>
2.4018

> <Gold.Chemscore.Metal>
0.0000

> <Gold.Chemscore.Lipo>
124.7394

> <Gold.Chemscore.Internal_Hbond>
0.0000

> <Gold.Chemscore.DEClash>
0.0553

> <Gold.Chemscore.DEInternal>
1.7477

> <Gold.Chemscore.Rot>
2.6917

> <Gold.Chemscore.Internal.Correction>
   9.000000E+99

> <Gold.Chemscore.Hbonds>
donor molecule, donor type, donor heavy atom, donor atom, acceptor molecule, acceptor atom, score
      L1  H     9    56       P1  7948  0.30
      L1  H    12    42       P1  7949  0.78
      L1  H    16    57       P1  8028  0.92
      P1  H 10752 10765       L1    12  0.20

> <Gold.Chemscore.Hbond.Weighted>
-8.0221

> <Gold.Chemscore.Metal.Weighted>
-0.0000

> <Gold.Chemscore.Lipo.Weighted>
-14.5945

> <Gold.Chemscore.Internal_Hbond.Weighted>
0.0000

> <Gold.Chemscore.DEClash.Weighted>
0.0553

> <Gold.Chemscore.DEInternal.Weighted>
1.7477

> <Gold.Chemscore.Rot.Weighted>
6.8907

> <Gold.Chemscore.Internal.Correction.Weighted>
   9.000000E+99

> <Gold.Protein.RotatedTorsions>
[ 6907 6896 6895 6894 ] final  -17.07 input  -60.11 | X-H torsion
[ 7974 7965 7964 7962 ] final  -99.75 input  175.53 | X-H torsion
[ 8008 7997 7996 7995 ] final  -97.58 input   59.86 | X-H torsion
[ 10167 10162 10161 10158 ] final    5.07 input  -65.29 | X-H torsion
[ 10718 10713 10712 10709 ] final   61.63 input   66.30 | X-H torsion
[ 10763 10752 10751 10750 ] final  144.73 input  -60.55 | X-H torsion
[ 11005 11000 10999 10996 ] final  -91.53 input  -57.11 | X-H torsion

> <Gold.Protein.ActiveResidues>
 VAL166  LYS551  ARG553  GLY616  TRP617  ASP618  TYR619  PRO620  LYS621  CYS622 
 ASP623  PHE694  ASN695  SER759  ASP760  ASP761  ALA762  ILE779  LEU786  VAL792 
 PHE793  MET794  SER795  GLU796  ALA797  LYS798  CYS799  TRP800  GLU811  SER814 

> <Gold.Protein.RotatedAtoms>
  151.2990  135.0763  159.9231 H   0  0  0  0  0  0  0  0  0  0  0  0  # atno 6907 bound_to 6896
  152.5301  133.9853  159.7836 H   0  0  0  0  0  0  0  0  0  0  0  0  # atno 6908 bound_to 6896
  151.0136  133.5890  159.2710 H   0  0  0  0  0  0  0  0  0  0  0  0  # atno 6909 bound_to 6896
  145.3035  140.9383  143.2810 H   0  0  0  0  0  0  0  0  0  0  0  0  # atno 7974 bound_to 7965
  154.7896  140.0462  157.1191 H   0  0  0  0  0  0  0  0  0  0  0  0  # atno 8008 bound_to 7997
  154.9606  140.3077  155.5012 H   0  0  0  0  0  0  0  0  0  0  0  0  # atno 8009 bound_to 7997
  156.2948  140.2271  156.4692 H   0  0  0  0  0  0  0  0  0  0  0  0  # atno 8010 bound_to 7997
  140.6501  143.7565  150.7562 H   0  0  0  0  0  0  0  0  0  0  0  0  # atno 10167 bound_to 10162
  157.5842  130.9005  149.9485 H   0  0  0  0  0  0  0  0  0  0  0  0  # atno 10718 bound_to 10713
  153.9936  135.2930  155.3409 H   0  0  0  0  0  0  0  0  0  0  0  0  # atno 10763 bound_to 10752
  154.7200  135.5113  153.8800 H   0  0  0  0  0  0  0  0  0  0  0  0  # atno 10764 bound_to 10752
  153.0798  135.6675  154.0186 H   0  0  0  0  0  0  0  0  0  0  0  0  # atno 10765 bound_to 10752
  141.1543  133.7761  156.9892 H   0  0  0  0  0  0  0  0  0  0  0  0  # atno 11005 bound_to 11000
  144.9074  139.4572  143.6603 LP  0  0  0  0  0  0  0  0  0  0  0  0  # atno 17320 bound_to 7965
  146.3143  139.7863  142.8995 LP  0  0  0  0  0  0  0  0  0  0  0  0  # atno 17321 bound_to 7965
  140.1214  143.4609  152.2311 LP  0  0  0  0  0  0  0  0  0  0  0  0  # atno 17342 bound_to 10162
  139.5716  144.7465  151.3876 LP  0  0  0  0  0  0  0  0  0  0  0  0  # atno 17343 bound_to 10162
  156.0890  130.3665  150.0432 LP  0  0  0  0  0  0  0  0  0  0  0  0  # atno 17370 bound_to 10713
  156.8566  130.9477  151.3621 LP  0  0  0  0  0  0  0  0  0  0  0  0  # atno 17371 bound_to 10713
  140.1014  134.9533  157.1929 LP  0  0  0  0  0  0  0  0  0  0  0  0  # atno 17394 bound_to 11000
  140.3313  134.2806  155.7227 LP  0  0  0  0  0  0  0  0  0  0  0  0  # atno 17395 bound_to 11000

$$$$
