AV-unprocessed.smi:1750|AV-procd|sdf|7052|dock2
  -GOLD-   22720 8263D 1   1.00000     0.00000
 Structure written by MMmdl.
 36 37  0  0  0  0  0  0  0  0  1 V2000
  151.7972  142.9155  158.8245 C   0  0  0  0  0  0  0  0  0  0  0  0
  151.3407  141.7601  157.9272 C   0  0  0  0  0  0  0  0  0  0  0  0
  150.8579  142.2390  156.5510 C   0  0  0  0  0  0  0  0  0  0  0  0
  150.4132  141.1143  155.6767 C   0  0  0  0  0  0  0  0  0  0  0  0
  151.2352  140.1321  155.2852 N   0  0  0  0  0  0  0  0  0  0  0  0
  150.6056  139.2152  154.4539 N   0  0  0  0  0  0  0  0  0  0  0  0
  149.3294  139.5404  154.2282 C   0  0  0  0  0  0  0  0  0  0  0  0
  148.5615  138.6914  153.3926 N   0  0  0  0  0  0  0  0  0  0  0  0
  147.2270  138.6669  153.2443 C   0  0  0  0  0  0  0  0  0  0  0  0
  146.4337  139.4146  153.8158 O   0  0  0  0  0  0  0  0  0  0  0  0
  146.8530  137.7118  152.3811 N   0  0  0  0  0  0  0  0  0  0  0  0
  145.4746  137.4044  152.0160 C   0  0  0  0  0  0  0  0  0  0  0  0
  145.3994  136.1909  151.0743 C   0  0  2  0  0  0  0  0  0  0  0  0
  143.9808  135.6716  150.8500 C   0  0  0  0  0  0  0  0  0  0  0  0
  144.1919  134.2159  150.4627 C   0  0  0  0  0  0  0  0  0  0  0  0
  145.6319  133.9198  150.8925 C   0  0  0  0  0  0  0  0  0  0  0  0
  146.0406  135.0578  151.6380 O   0  0  0  0  0  0  0  0  0  0  0  0
  148.7820  141.0153  155.0254 S   0  0  0  0  0  0  0  0  0  0  0  0
  152.1323  142.5452  159.7936 H   0  0  0  0  0  0  0  0  0  0  0  0
  150.9856  143.6221  159.0004 H   0  0  0  0  0  0  0  0  0  0  0  0
  152.6259  143.4611  158.3724 H   0  0  0  0  0  0  0  0  0  0  0  0
  152.1653  141.0574  157.8012 H   0  0  0  0  0  0  0  0  0  0  0  0
  150.5403  141.2117  158.4256 H   0  0  0  0  0  0  0  0  0  0  0  0
  150.0322  142.9423  156.6664 H   0  0  0  0  0  0  0  0  0  0  0  0
  151.6571  142.7779  156.0411 H   0  0  0  0  0  0  0  0  0  0  0  0
  149.0892  138.0223  152.8517 H   0  0  0  0  0  0  0  0  0  0  0  0
  147.5724  137.1451  151.9564 H   0  0  0  0  0  0  0  0  0  0  0  0
  144.8611  137.2457  152.9047 H   0  0  0  0  0  0  0  0  0  0  0  0
  145.0661  138.2808  151.5126 H   0  0  0  0  0  0  0  0  0  0  0  0
  145.8632  136.4232  150.1134 H   0  0  0  0  0  0  0  0  0  0  0  0
  143.4106  135.7213  151.7788 H   0  0  0  0  0  0  0  0  0  0  0  0
  143.4395  136.2389  150.0924 H   0  0  0  0  0  0  0  0  0  0  0  0
  143.4759  133.5690  150.9707 H   0  0  0  0  0  0  0  0  0  0  0  0
  144.0748  134.0682  149.3885 H   0  0  0  0  0  0  0  0  0  0  0  0
  145.7131  133.0116  151.4900 H   0  0  0  0  0  0  0  0  0  0  0  0
  146.2785  133.8123  150.0204 H   0  0  0  0  0  0  0  0  0  0  0  0
  1  2  1  0  0  0  0
  1 19  1  0  0  0  0
  1 20  1  0  0  0  0
  1 21  1  0  0  0  0
  2  3  1  0  0  0  0
  2 22  1  0  0  0  0
  2 23  1  0  0  0  0
  3  4  1  0  0  0  0
  3 24  1  0  0  0  0
  3 25  1  0  0  0  0
  4 18  1  0  0  0  0
  4  5  2  0  0  0  0
  5  6  1  0  0  0  0
  6  7  2  0  0  0  0
  7  8  1  0  0  0  0
  7 18  1  0  0  0  0
  8  9  1  0  0  0  0
  8 26  1  0  0  0  0
  9 10  2  0  0  0  0
  9 11  1  0  0  0  0
 11 12  1  0  0  0  0
 11 27  1  0  0  0  0
 12 13  1  0  0  0  0
 12 28  1  0  0  0  0
 12 29  1  0  0  0  0
 13 17  1  0  0  0  0
 13 14  1  0  0  0  0
 13 30  1  0  0  0  0
 14 15  1  0  0  0  0
 14 31  1  0  0  0  0
 14 32  1  0  0  0  0
 15 16  1  0  0  0  0
 15 33  1  0  0  0  0
 15 34  1  0  0  0  0
 16 17  1  0  0  0  0
 16 35  1  0  0  0  0
 16 36  1  0  0  0  0
M  END
> <s_m_source_file>
AV-unprocessed.smi

> <i_m_source_file_index>
1750

> <i_lp_mmshare_version>
43012

> <i_f3d_flags>
0

> <s_epik_input>
W0NIM11bQ0gyXVtDSDJdYzFubmMoczEpW05IXUMoPU8pW05IXVtDSDJdW0NAQEhdMltDSDJdW0NIMl1bQ0gyXU8y

> <s_epik_cmdline>
J2VwaWtfcHl0aG9uJywgJy1waCcsICc3LjAnLCAnLXRuJywgJzgnLCAnLW1hJywgJzIwMCcsICctbWV0YWxfYmluZGluZycsICctaW1hZScsICc8aW5maWxlLm1hZT4nLCAnLW9tYWUnLCAnPG91dGZpbGUubWFlPic=

> <r_lp_tautomer_probability>
1

> <r_epik_Ionization_Penalty>
0.000503051

> <r_epik_Ionization_Penalty_Charging>
0

> <r_epik_Ionization_Penalty_Neutral>
0.000503051

> <r_epik_State_Penalty>
-0

> <r_epik_Charging_Adjusted_Penalty>
0

> <i_epik_Tot_Q>
0

> <i_epik_Tot_abs_Q>
0

> <r_epik_Metal_State_Penalty>
0.219912

> <b_epik_Metal_Only>
0

> <s_lp_Force_Field>
OPLS_2005

> <r_lp_Energy>
10.1721

> <b_lp_Chiralities_Consistent>
1

> <s_lp_Variant>
AV-unprocessed.smi:1750-1

> <Gold.Version>
5.8.1

> <Gold.Id.Protein>
6NUR|6NUR_protein|mol2

> <Gold.PLP.Fitness>
38.5285

> <Gold.PLP.PLP>
-33.0874

> <Gold.PLP.part.hbond>
-4.9578

> <Gold.PLP.part.metal>
0.0000

> <Gold.PLP.part.buried>
-5.7345

> <Gold.PLP.part.nonpolar>
-24.0111

> <Gold.PLP.part.repulsive>
1.1340

> <Gold.PLP.ligand.clash>
0.0000

> <Gold.PLP.ligand.torsion>
0.0864

> <Gold.PLP.Chemscore.Hbond>
1.8640

> <Gold.PLP.Chemscore.CHOScore>
0.0000

> <Gold.PLP.Chemscore.Metal>
0.0000

> <Gold.Chemscore.Hbonds>
donor molecule, donor type, donor heavy atom, donor atom, acceptor molecule, acceptor atom, score
      L1  H     8    26       P1  7948  0.90
      L1  H    11    27       P1  7948  1.00

> <Gold.PLP.Chemscore.Internal.Correction>
0.0219

> <Gold.Rescore>
     Score         DG    S(hbond)    S(metal)    S(lipo)     H(rot)  DE(clash)    DE(int)     intcor
     15.52     -15.78       1.91        0.00      69.33       1.63       0.08       0.18       ----

> <Gold.Chemscore.Fitness>
15.5213

> <Gold.Chemscore.DG>
-15.7803

> <Gold.Chemscore.ZeroCoef>
-5.4800

> <Gold.Chemscore.Hbond>
1.9054

> <Gold.Chemscore.Metal>
0.0000

> <Gold.Chemscore.Lipo>
69.3340

> <Gold.Chemscore.Internal_Hbond>
0.0000

> <Gold.Chemscore.DEClash>
0.0828

> <Gold.Chemscore.DEInternal>
0.1762

> <Gold.Chemscore.Rot>
1.6311

> <Gold.Chemscore.Internal.Correction>
   9.000000E+99

> <Gold.Chemscore.Hbonds>
donor molecule, donor type, donor heavy atom, donor atom, acceptor molecule, acceptor atom, score
      L1  H     8    26       P1  7948  0.83
      L1  H    11    27       P1  7948  0.99

> <Gold.Chemscore.Hbond.Weighted>
-6.3639

> <Gold.Chemscore.Metal.Weighted>
-0.0000

> <Gold.Chemscore.Lipo.Weighted>
-8.1121

> <Gold.Chemscore.Internal_Hbond.Weighted>
0.0000

> <Gold.Chemscore.DEClash.Weighted>
0.0828

> <Gold.Chemscore.DEInternal.Weighted>
0.1762

> <Gold.Chemscore.Rot.Weighted>
4.1757

> <Gold.Chemscore.Internal.Correction.Weighted>
   9.000000E+99

> <Gold.Protein.RotatedTorsions>
[ 6907 6896 6895 6894 ] final  146.40 input  -60.11 | X-H torsion
[ 7974 7965 7964 7962 ] final  -10.52 input  175.53 | X-H torsion
[ 8008 7997 7996 7995 ] final  126.85 input   59.86 | X-H torsion
[ 10167 10162 10161 10158 ] final  169.16 input  -65.29 | X-H torsion
[ 10718 10713 10712 10709 ] final -176.67 input   66.30 | X-H torsion
[ 10763 10752 10751 10750 ] final -169.25 input  -60.55 | X-H torsion
[ 11005 11000 10999 10996 ] final  115.67 input  -57.11 | X-H torsion

> <Gold.Protein.ActiveResidues>
 VAL166  LYS551  ARG553  GLY616  TRP617  ASP618  TYR619  PRO620  LYS621  CYS622 
 ASP623  PHE694  ASN695  SER759  ASP760  ASP761  ALA762  ILE779  LEU786  VAL792 
 PHE793  MET794  SER795  GLU796  ALA797  LYS798  CYS799  TRP800  GLU811  SER814 

> <Gold.Protein.RotatedAtoms>
  152.1683  133.4627  159.4895 H   0  0  0  0  0  0  0  0  0  0  0  0  # atno 6907 bound_to 6896
  150.6916  134.1985  159.4322 H   0  0  0  0  0  0  0  0  0  0  0  0  # atno 6908 bound_to 6896
  151.9890  134.9988  160.0611 H   0  0  0  0  0  0  0  0  0  0  0  0  # atno 6909 bound_to 6896
  146.2218  140.2776  142.8360 H   0  0  0  0  0  0  0  0  0  0  0  0  # atno 7974 bound_to 7965
  156.2875  140.2683  156.2178 H   0  0  0  0  0  0  0  0  0  0  0  0  # atno 8008 bound_to 7997
  155.0199  140.0386  157.2451 H   0  0  0  0  0  0  0  0  0  0  0  0  # atno 8009 bound_to 7997
  154.7445  140.2731  155.6350 H   0  0  0  0  0  0  0  0  0  0  0  0  # atno 8010 bound_to 7997
  139.4985  144.3737  151.9697 H   0  0  0  0  0  0  0  0  0  0  0  0  # atno 10167 bound_to 10162
  156.8181  130.9610  151.3113 H   0  0  0  0  0  0  0  0  0  0  0  0  # atno 10718 bound_to 10713
  154.6543  135.2916  154.9948 H   0  0  0  0  0  0  0  0  0  0  0  0  # atno 10763 bound_to 10752
  154.1030  135.6574  153.4875 H   0  0  0  0  0  0  0  0  0  0  0  0  # atno 10764 bound_to 10752
  153.0393  135.5247  154.7465 H   0  0  0  0  0  0  0  0  0  0  0  0  # atno 10765 bound_to 10752
  139.9017  134.9587  156.7081 H   0  0  0  0  0  0  0  0  0  0  0  0  # atno 11005 bound_to 11000
  144.9221  140.7879  143.5742 LP  0  0  0  0  0  0  0  0  0  0  0  0  # atno 17320 bound_to 7965
  145.2714  139.1953  143.4839 LP  0  0  0  0  0  0  0  0  0  0  0  0  # atno 17321 bound_to 7965
  140.3173  144.3469  150.6018 LP  0  0  0  0  0  0  0  0  0  0  0  0  # atno 17342 bound_to 10162
  140.5751  143.2177  151.7529 LP  0  0  0  0  0  0  0  0  0  0  0  0  # atno 17343 bound_to 10162
  157.6471  130.8853  149.9560 LP  0  0  0  0  0  0  0  0  0  0  0  0  # atno 17370 bound_to 10713
  156.1005  130.3656  150.0227 LP  0  0  0  0  0  0  0  0  0  0  0  0  # atno 17371 bound_to 10713
  140.7097  133.9234  155.8077 LP  0  0  0  0  0  0  0  0  0  0  0  0  # atno 17394 bound_to 11000
  141.0309  134.0757  157.4015 LP  0  0  0  0  0  0  0  0  0  0  0  0  # atno 17395 bound_to 11000

$$$$
