AV-unprocessed.smi:870|AV-procd|sdf|4010|dock5
  -GOLD-   22720 1503D 1   1.00000     0.00000
 Structure written by MMmdl.
 47 49  0  0  0  0  0  0  0  0  2 V2000
  147.6917  141.7341  154.1746 C   0  0  0  0  0  0  0  0  0  0  0  0
  149.0864  141.6481  153.9397 O   0  0  0  0  0  0  0  0  0  0  0  0
  149.7210  140.6994  154.7818 C   0  0  0  0  0  0  0  0  0  0  0  0
  150.4461  141.3530  155.9124 C   0  0  0  0  0  0  0  0  0  0  0  0
  150.3886  142.6733  156.2471 N   0  3  0  0  0  0  0  0  0  0  0  0
  151.1958  142.9155  157.3593 C   0  0  0  0  0  0  0  0  0  0  0  0
  151.4559  144.0894  158.0597 C   0  0  0  0  0  0  0  0  0  0  0  0
  152.3340  143.9887  159.1590 C   0  0  0  0  0  0  0  0  0  0  0  0
  152.9162  142.7571  159.5237 C   0  0  0  0  0  0  0  0  0  0  0  0
  152.6454  141.5737  158.8053 C   0  0  0  0  0  0  0  0  0  0  0  0
  151.7757  141.6824  157.7208 C   0  0  0  0  0  0  0  0  0  0  0  0
  151.2849  140.7485  156.8024 N   0  0  0  0  0  0  0  0  0  0  0  0
  151.7046  139.3430  156.9142 C   0  0  0  0  0  0  0  0  0  0  0  0
  152.0068  138.6960  155.5475 C   0  0  1  0  0  0  0  0  0  0  0  0
  153.3872  138.8303  155.2721 O   0  0  0  0  0  0  0  0  0  0  0  0
  151.6492  137.2020  155.5308 C   0  0  0  0  0  0  0  0  0  0  0  0
  150.2509  137.0723  155.3127 O   0  0  0  0  0  0  0  0  0  0  0  0
  149.7160  135.8052  155.2008 C   0  0  0  0  0  0  0  0  0  0  0  0
  150.4956  134.6201  155.1770 C   0  0  0  0  0  0  0  0  0  0  0  0
  149.8792  133.3599  155.0596 C   0  0  0  0  0  0  0  0  0  0  0  0
  148.4795  133.2649  154.9656 C   0  0  0  0  0  0  0  0  0  0  0  0
  147.6958  134.4326  154.9898 C   0  0  0  0  0  0  0  0  0  0  0  0
  148.3084  135.6982  155.1069 C   0  0  0  0  0  0  0  0  0  0  0  0
  147.4476  136.9475  155.1302 C   0  0  0  0  0  0  0  0  0  0  0  0
  147.2533  142.4807  153.5123 H   0  0  0  0  0  0  0  0  0  0  0  0
  147.4817  142.0316  155.2028 H   0  0  0  0  0  0  0  0  0  0  0  0
  147.1999  140.7804  153.9790 H   0  0  0  0  0  0  0  0  0  0  0  0
  148.9791  140.0127  155.1913 H   0  0  0  0  0  0  0  0  0  0  0  0
  150.4344  140.1081  154.2058 H   0  0  0  0  0  0  0  0  0  0  0  0
  151.0110  145.0338  157.7823 H   0  0  0  0  0  0  0  0  0  0  0  0
  152.5652  144.8734  159.7343 H   0  0  0  0  0  0  0  0  0  0  0  0
  153.5840  142.7184  160.3722 H   0  0  0  0  0  0  0  0  0  0  0  0
  153.0948  140.6347  159.0931 H   0  0  0  0  0  0  0  0  0  0  0  0
  152.5881  139.3090  157.5528 H   0  0  0  0  0  0  0  0  0  0  0  0
  150.9245  138.7938  157.4431 H   0  0  0  0  0  0  0  0  0  0  0  0
  151.4426  139.2143  154.7715 H   0  0  0  0  0  0  0  0  0  0  0  0
  153.5361  138.5868  154.3708 H   0  0  0  0  0  0  0  0  0  0  0  0
  152.2292  136.6739  154.7717 H   0  0  0  0  0  0  0  0  0  0  0  0
  151.8885  136.7635  156.5011 H   0  0  0  0  0  0  0  0  0  0  0  0
  151.5721  134.6494  155.2481 H   0  0  0  0  0  0  0  0  0  0  0  0
  150.4822  132.4641  155.0424 H   0  0  0  0  0  0  0  0  0  0  0  0
  148.0070  132.2977  154.8757 H   0  0  0  0  0  0  0  0  0  0  0  0
  146.6210  134.3519  154.9174 H   0  0  0  0  0  0  0  0  0  0  0  0
  146.3892  136.7049  155.0311 H   0  0  0  0  0  0  0  0  0  0  0  0
  147.7202  137.6117  154.3096 H   0  0  0  0  0  0  0  0  0  0  0  0
  147.5858  137.4847  156.0687 H   0  0  0  0  0  0  0  0  0  0  0  0
  149.8321  143.3544  155.7468 H   0  0  0  0  0  0  0  0  0  0  0  0
  1  2  1  0  0  0  0
  1 25  1  0  0  0  0
  1 26  1  0  0  0  0
  1 27  1  0  0  0  0
  2  3  1  0  0  0  0
  3  4  1  0  0  0  0
  3 28  1  0  0  0  0
  3 29  1  0  0  0  0
  4 12  1  0  0  0  0
  4  5  2  0  0  0  0
  5  6  1  0  0  0  0
  5 47  1  0  0  0  0
  6 11  2  0  0  0  0
  6  7  1  0  0  0  0
  7  8  2  0  0  0  0
  7 30  1  0  0  0  0
  8  9  1  0  0  0  0
  8 31  1  0  0  0  0
  9 10  2  0  0  0  0
  9 32  1  0  0  0  0
 10 11  1  0  0  0  0
 10 33  1  0  0  0  0
 11 12  1  0  0  0  0
 12 13  1  0  0  0  0
 13 14  1  0  0  0  0
 13 34  1  0  0  0  0
 13 35  1  0  0  0  0
 14 15  1  0  0  0  0
 14 16  1  0  0  0  0
 14 36  1  0  0  0  0
 15 37  1  0  0  0  0
 16 17  1  0  0  0  0
 16 38  1  0  0  0  0
 16 39  1  0  0  0  0
 17 18  1  0  0  0  0
 18 23  1  0  0  0  0
 18 19  2  0  0  0  0
 19 20  1  0  0  0  0
 19 40  1  0  0  0  0
 20 21  2  0  0  0  0
 20 41  1  0  0  0  0
 21 22  1  0  0  0  0
 21 42  1  0  0  0  0
 22 23  2  0  0  0  0
 22 43  1  0  0  0  0
 23 24  1  0  0  0  0
 24 44  1  0  0  0  0
 24 45  1  0  0  0  0
 24 46  1  0  0  0  0
M  CHG  1   5   1
M  END
> <s_m_source_file>
AV-unprocessed.smi

> <i_m_source_file_index>
870

> <i_lp_mmshare_version>
43012

> <i_f3d_flags>
0

> <s_epik_input>
W2NIXTFbY0hdW2NIXVtjSF1jKGMxMiluKGMobjIpW0NIMl1PW0NIM10pW0NIMl1bQ0BIXShbT0hdKVtDSDJdT2MzW2NIXVtjSF1bY0hdW2NIXWMzW0NIM10=

> <s_epik_cmdline>
J2VwaWtfcHl0aG9uJywgJy1waCcsICc3LjAnLCAnLXRuJywgJzgnLCAnLW1hJywgJzIwMCcsICctbWV0YWxfYmluZGluZycsICctaW1hZScsICc8aW5maWxlLm1hZT4nLCAnLW9tYWUnLCAnPG91dGZpbGUubWFlPic=

> <r_lp_tautomer_probability>
1

> <r_epik_Ionization_Penalty>
1.55338

> <r_epik_Ionization_Penalty_Charging>
1.55338

> <r_epik_Ionization_Penalty_Neutral>
2.3993e-06

> <r_epik_State_Penalty>
1.64778

> <r_epik_Charging_Adjusted_Penalty>
3.20115

> <i_epik_Tot_Q>
1

> <i_epik_Tot_abs_Q>
1

> <r_epik_Metal_State_Penalty>
5.70266

> <b_epik_Metal_Only>
0

> <s_lp_Force_Field>
OPLS_2005

> <r_lp_Energy>
19.1039

> <b_lp_Chiralities_Consistent>
1

> <s_lp_Variant>
AV-unprocessed.smi:870-4

> <Gold.Version>
5.8.1

> <Gold.Id.Protein>
6NUR|6NUR_protein|mol2

> <Gold.PLP.Fitness>
55.6143

> <Gold.PLP.PLP>
-47.3192

> <Gold.PLP.part.hbond>
-3.9791

> <Gold.PLP.part.metal>
0.0000

> <Gold.PLP.part.buried>
-4.0533

> <Gold.PLP.part.nonpolar>
-39.6319

> <Gold.PLP.part.repulsive>
0.4295

> <Gold.PLP.ligand.clash>
0.0000

> <Gold.PLP.ligand.torsion>
1.2961

> <Gold.PLP.Chemscore.Hbond>
3.6080

> <Gold.PLP.Chemscore.CHOScore>
0.0000

> <Gold.PLP.Chemscore.Metal>
0.0000

> <Gold.Chemscore.Hbonds>
donor molecule, donor type, donor heavy atom, donor atom, acceptor molecule, acceptor atom, score
      L1  H     5    47       P1  8028  2.00
      P1  H  7997  8010       L1    15  1.00
      P1  H  8011  8017       L1     2  0.62

> <Gold.PLP.Chemscore.Internal.Correction>
0.0633

> <Gold.Rescore>
     Score         DG    S(hbond)    S(metal)    S(lipo)     H(rot)  DE(clash)    DE(int)     intcor
     20.81     -22.23       2.51        0.00     125.06       2.45       0.10       1.33       ----

> <Gold.Chemscore.Fitness>
20.8106

> <Gold.Chemscore.DG>
-22.2317

> <Gold.Chemscore.ZeroCoef>
-5.4800

> <Gold.Chemscore.Hbond>
2.5120

> <Gold.Chemscore.Metal>
0.0000

> <Gold.Chemscore.Lipo>
125.0607

> <Gold.Chemscore.Internal_Hbond>
0.0000

> <Gold.Chemscore.DEClash>
0.0961

> <Gold.Chemscore.DEInternal>
1.3251

> <Gold.Chemscore.Rot>
2.4494

> <Gold.Chemscore.Internal.Correction>
   9.000000E+99

> <Gold.Chemscore.Hbonds>
donor molecule, donor type, donor heavy atom, donor atom, acceptor molecule, acceptor atom, score
      L1  H     5    47       P1  8028  0.97
      P1  H  7997  8010       L1    15  0.92
      P1  H  8011  8017       L1     2  0.59

> <Gold.Chemscore.Hbond.Weighted>
-8.3901

> <Gold.Chemscore.Metal.Weighted>
-0.0000

> <Gold.Chemscore.Lipo.Weighted>
-14.6321

> <Gold.Chemscore.Internal_Hbond.Weighted>
0.0000

> <Gold.Chemscore.DEClash.Weighted>
0.0961

> <Gold.Chemscore.DEInternal.Weighted>
1.3251

> <Gold.Chemscore.Rot.Weighted>
6.2704

> <Gold.Chemscore.Internal.Correction.Weighted>
   9.000000E+99

> <Gold.Protein.RotatedTorsions>
[ 6907 6896 6895 6894 ] final   87.50 input  -60.11 | X-H torsion
[ 7974 7965 7964 7962 ] final   12.92 input  175.53 | X-H torsion
[ 8008 7997 7996 7995 ] final   94.72 input   59.86 | X-H torsion
[ 10167 10162 10161 10158 ] final -124.25 input  -65.29 | X-H torsion
[ 10718 10713 10712 10709 ] final   49.62 input   66.30 | X-H torsion
[ 10763 10752 10751 10750 ] final -147.80 input  -60.55 | X-H torsion
[ 11005 11000 10999 10996 ] final  -24.08 input  -57.11 | X-H torsion

> <Gold.Protein.ActiveResidues>
 VAL166  LYS551  ARG553  GLY616  TRP617  ASP618  TYR619  PRO620  LYS621  CYS622 
 ASP623  PHE694  ASN695  SER759  ASP760  ASP761  ALA762  ILE779  LEU786  VAL792 
 PHE793  MET794  SER795  GLU796  ALA797  LYS798  CYS799  TRP800  GLU811  SER814 

> <Gold.Protein.RotatedAtoms>
  152.5412  134.2267  159.8808 H   0  0  0  0  0  0  0  0  0  0  0  0  # atno 6907 bound_to 6896
  151.2241  133.4479  159.2609 H   0  0  0  0  0  0  0  0  0  0  0  0  # atno 6908 bound_to 6896
  151.0778  134.9852  159.8396 H   0  0  0  0  0  0  0  0  0  0  0  0  # atno 6909 bound_to 6896
  146.2341  139.9265  142.8502 H   0  0  0  0  0  0  0  0  0  0  0  0  # atno 7974 bound_to 7965
  156.0611  140.3296  155.7462 H   0  0  0  0  0  0  0  0  0  0  0  0  # atno 8008 bound_to 7997
  155.5454  140.0605  157.2879 H   0  0  0  0  0  0  0  0  0  0  0  0  # atno 8009 bound_to 7997
  154.4482  140.1903  156.0621 H   0  0  0  0  0  0  0  0  0  0  0  0  # atno 8010 bound_to 7997
  139.9948  143.5602  152.2327 H   0  0  0  0  0  0  0  0  0  0  0  0  # atno 10167 bound_to 10162
  157.4804  130.8312  149.8087 H   0  0  0  0  0  0  0  0  0  0  0  0  # atno 10718 bound_to 10713
  154.8267  135.3351  154.6875 H   0  0  0  0  0  0  0  0  0  0  0  0  # atno 10763 bound_to 10752
  153.7500  135.6940  153.4952 H   0  0  0  0  0  0  0  0  0  0  0  0  # atno 10764 bound_to 10752
  153.2183  135.4458  155.0411 H   0  0  0  0  0  0  0  0  0  0  0  0  # atno 10765 bound_to 10752
  140.8812  133.7653  156.0304 H   0  0  0  0  0  0  0  0  0  0  0  0  # atno 11005 bound_to 11000
  145.2086  140.9886  143.4114 LP  0  0  0  0  0  0  0  0  0  0  0  0  # atno 17320 bound_to 7965
  144.9711  139.3879  143.6308 LP  0  0  0  0  0  0  0  0  0  0  0  0  # atno 17321 bound_to 7965
  139.6314  144.7644  151.2529 LP  0  0  0  0  0  0  0  0  0  0  0  0  # atno 17342 bound_to 10162
  140.7441  143.6473  150.8280 LP  0  0  0  0  0  0  0  0  0  0  0  0  # atno 17343 bound_to 10162
  156.0119  130.3830  150.2237 LP  0  0  0  0  0  0  0  0  0  0  0  0  # atno 17370 bound_to 10713
  157.0423  131.0039  151.3279 LP  0  0  0  0  0  0  0  0  0  0  0  0  # atno 17371 bound_to 10713
  140.8459  134.3011  157.5295 LP  0  0  0  0  0  0  0  0  0  0  0  0  # atno 17394 bound_to 11000
  139.8720  134.9441  156.3873 LP  0  0  0  0  0  0  0  0  0  0  0  0  # atno 17395 bound_to 11000

$$$$
