AV-unprocessed.smi:1690|AV-procd|sdf|6773|dock7
  -GOLD-   22720 7533D 1   1.00000     0.00000
 Structure written by MMmdl.
 37 38  0  0  0  0  0  0  0  0  1 V2000
  152.2848  143.9543  161.5543 C   0  0  0  0  0  0  0  0  0  0  0  0
  152.6547  143.5488  160.1201 C   0  0  0  0  0  0  0  0  0  0  0  0
  151.6000  143.9663  159.0848 C   0  0  0  0  0  0  0  0  0  0  0  0
  152.9982  142.0964  160.0157 C   0  0  0  0  0  0  0  0  0  0  0  0
  152.3028  141.2215  159.2830 N   0  0  0  0  0  0  0  0  0  0  0  0
  152.8348  139.9287  159.3324 C   0  0  0  0  0  0  0  0  0  0  0  0
  152.1892  138.8223  158.5482 C   0  0  0  0  0  0  0  0  0  0  0  0
  151.9559  139.2579  157.0996 C   0  0  0  0  0  0  0  0  0  0  0  0
  152.9107  139.3853  156.3332 O   0  0  0  0  0  0  0  0  0  0  0  0
  150.6814  139.4739  156.7367 N   0  0  0  0  0  0  0  0  0  0  0  0
  150.2384  139.9072  155.4149 C   0  0  0  0  0  0  0  0  0  0  0  0
  149.4252  141.2125  155.5157 C   0  0  0  0  0  0  0  0  0  0  0  0
  148.1304  140.9693  154.7375 C   0  0  0  0  0  0  0  0  0  0  0  0
  147.8980  139.4656  154.8463 C   0  0  0  0  0  0  0  0  0  0  0  0
  149.3025  138.8667  154.7704 C   0  0  0  0  0  0  0  0  0  0  0  0
  153.9444  139.8325  160.1352 C   0  0  0  0  0  0  0  0  0  0  0  0
  154.3691  141.3661  160.8441 S   0  0  0  0  0  0  0  0  0  0  0  0
  153.0914  143.7175  162.2489 H   0  0  0  0  0  0  0  0  0  0  0  0
  151.3884  143.4353  161.8947 H   0  0  0  0  0  0  0  0  0  0  0  0
  152.0938  145.0256  161.6228 H   0  0  0  0  0  0  0  0  0  0  0  0
  153.5638  144.0976  159.8708 H   0  0  0  0  0  0  0  0  0  0  0  0
  151.9340  143.7395  158.0718 H   0  0  0  0  0  0  0  0  0  0  0  0
  151.4018  145.0371  159.1355 H   0  0  0  0  0  0  0  0  0  0  0  0
  150.6557  143.4462  159.2486 H   0  0  0  0  0  0  0  0  0  0  0  0
  152.8153  137.9292  158.5618 H   0  0  0  0  0  0  0  0  0  0  0  0
  151.2344  138.5353  158.9909 H   0  0  0  0  0  0  0  0  0  0  0  0
  149.9645  139.3417  157.4357 H   0  0  0  0  0  0  0  0  0  0  0  0
  151.1043  140.0686  154.7697 H   0  0  0  0  0  0  0  0  0  0  0  0
  149.1795  141.4356  156.5556 H   0  0  0  0  0  0  0  0  0  0  0  0
  149.9757  142.0695  155.1266 H   0  0  0  0  0  0  0  0  0  0  0  0
  147.2940  141.5537  155.1218 H   0  0  0  0  0  0  0  0  0  0  0  0
  148.2739  141.2418  153.6910 H   0  0  0  0  0  0  0  0  0  0  0  0
  147.4497  139.2312  155.8128 H   0  0  0  0  0  0  0  0  0  0  0  0
  147.2356  139.0842  154.0687 H   0  0  0  0  0  0  0  0  0  0  0  0
  149.5798  138.7364  153.7234 H   0  0  0  0  0  0  0  0  0  0  0  0
  149.3555  137.8829  155.2389 H   0  0  0  0  0  0  0  0  0  0  0  0
  154.5400  138.9564  160.3451 H   0  0  0  0  0  0  0  0  0  0  0  0
  1  2  1  0  0  0  0
  1 18  1  0  0  0  0
  1 19  1  0  0  0  0
  1 20  1  0  0  0  0
  2  3  1  0  0  0  0
  2  4  1  0  0  0  0
  2 21  1  0  0  0  0
  3 22  1  0  0  0  0
  3 23  1  0  0  0  0
  3 24  1  0  0  0  0
  4 17  1  0  0  0  0
  4  5  2  0  0  0  0
  5  6  1  0  0  0  0
  6  7  1  0  0  0  0
  6 16  2  0  0  0  0
  7  8  1  0  0  0  0
  7 25  1  0  0  0  0
  7 26  1  0  0  0  0
  8  9  2  0  0  0  0
  8 10  1  0  0  0  0
 10 11  1  0  0  0  0
 10 27  1  0  0  0  0
 11 15  1  0  0  0  0
 11 12  1  0  0  0  0
 11 28  1  0  0  0  0
 12 13  1  0  0  0  0
 12 29  1  0  0  0  0
 12 30  1  0  0  0  0
 13 14  1  0  0  0  0
 13 31  1  0  0  0  0
 13 32  1  0  0  0  0
 14 15  1  0  0  0  0
 14 33  1  0  0  0  0
 14 34  1  0  0  0  0
 15 35  1  0  0  0  0
 15 36  1  0  0  0  0
 16 17  1  0  0  0  0
 16 37  1  0  0  0  0
M  END
> <s_m_source_file>
AV-unprocessed.smi

> <i_m_source_file_index>
1690

> <i_lp_mmshare_version>
43012

> <i_f3d_flags>
0

> <s_epik_input>
W0NIM11bQ0hdKFtDSDNdKWMxbmMoW2NIXXMxKVtDSDJdQyg9TylbTkhdW0NIXTJbQ0gyXVtDSDJdW0NIMl1bQ0gyXTI=

> <s_epik_cmdline>
J2VwaWtfcHl0aG9uJywgJy1waCcsICc3LjAnLCAnLXRuJywgJzgnLCAnLW1hJywgJzIwMCcsICctbWV0YWxfYmluZGluZycsICctaW1hZScsICc8aW5maWxlLm1hZT4nLCAnLW9tYWUnLCAnPG91dGZpbGUubWFlPic=

> <r_lp_tautomer_probability>
1

> <r_epik_Ionization_Penalty>
4.81312e-05

> <r_epik_Ionization_Penalty_Charging>
0

> <r_epik_Ionization_Penalty_Neutral>
4.81312e-05

> <r_epik_State_Penalty>
-0

> <r_epik_Charging_Adjusted_Penalty>
0

> <i_epik_Tot_Q>
0

> <i_epik_Tot_abs_Q>
0

> <r_epik_Metal_State_Penalty>
-0

> <b_epik_Metal_Only>
0

> <s_lp_Force_Field>
OPLS_2005

> <r_lp_Energy>
9.48899

> <b_lp_Chiralities_Consistent>
1

> <s_lp_Variant>
AV-unprocessed.smi:1690-1

> <Gold.Version>
5.8.1

> <Gold.Id.Protein>
6NUR|6NUR_protein|mol2

> <Gold.PLP.Fitness>
41.7514

> <Gold.PLP.PLP>
-39.3952

> <Gold.PLP.part.hbond>
-0.9970

> <Gold.PLP.part.metal>
0.0000

> <Gold.PLP.part.buried>
-3.5377

> <Gold.PLP.part.nonpolar>
-35.4332

> <Gold.PLP.part.repulsive>
0.0546

> <Gold.PLP.ligand.clash>
0.0000

> <Gold.PLP.ligand.torsion>
0.3473

> <Gold.PLP.Chemscore.Hbond>
0.9913

> <Gold.PLP.Chemscore.CHOScore>
0.0000

> <Gold.PLP.Chemscore.Metal>
0.0000

> <Gold.Chemscore.Hbonds>
donor molecule, donor type, donor heavy atom, donor atom, acceptor molecule, acceptor atom, score
      P1  H  7997  8008       L1     9  1.00

> <Gold.PLP.Chemscore.Internal.Correction>
0.0770

> <Gold.Rescore>
     Score         DG    S(hbond)    S(metal)    S(lipo)     H(rot)  DE(clash)    DE(int)     intcor
     17.82     -18.20       1.00        0.00     109.80       1.35       0.00       0.37       ----

> <Gold.Chemscore.Fitness>
17.8246

> <Gold.Chemscore.DG>
-18.1969

> <Gold.Chemscore.ZeroCoef>
-5.4800

> <Gold.Chemscore.Hbond>
0.9952

> <Gold.Chemscore.Metal>
0.0000

> <Gold.Chemscore.Lipo>
109.7965

> <Gold.Chemscore.Internal_Hbond>
0.0000

> <Gold.Chemscore.DEClash>
0.0000

> <Gold.Chemscore.DEInternal>
0.3723

> <Gold.Chemscore.Rot>
1.3489

> <Gold.Chemscore.Internal.Correction>
   9.000000E+99

> <Gold.Chemscore.Hbonds>
donor molecule, donor type, donor heavy atom, donor atom, acceptor molecule, acceptor atom, score
      P1  H  7997  8008       L1     9  0.99

> <Gold.Chemscore.Hbond.Weighted>
-3.3239

> <Gold.Chemscore.Metal.Weighted>
-0.0000

> <Gold.Chemscore.Lipo.Weighted>
-12.8462

> <Gold.Chemscore.Internal_Hbond.Weighted>
0.0000

> <Gold.Chemscore.DEClash.Weighted>
0.0000

> <Gold.Chemscore.DEInternal.Weighted>
0.3723

> <Gold.Chemscore.Rot.Weighted>
3.4532

> <Gold.Chemscore.Internal.Correction.Weighted>
   9.000000E+99

> <Gold.Protein.RotatedTorsions>
[ 6907 6896 6895 6894 ] final  133.74 input  -60.11 | X-H torsion
[ 7974 7965 7964 7962 ] final   25.03 input  175.53 | X-H torsion
[ 8008 7997 7996 7995 ] final  -47.43 input   59.86 | X-H torsion
[ 10167 10162 10161 10158 ] final  107.23 input  -65.29 | X-H torsion
[ 10718 10713 10712 10709 ] final  100.56 input   66.30 | X-H torsion
[ 10763 10752 10751 10750 ] final   62.14 input  -60.55 | X-H torsion
[ 11005 11000 10999 10996 ] final  -83.86 input  -57.11 | X-H torsion

> <Gold.Protein.ActiveResidues>
 VAL166  LYS551  ARG553  GLY616  TRP617  ASP618  TYR619  PRO620  LYS621  CYS622 
 ASP623  PHE694  ASN695  SER759  ASP760  ASP761  ALA762  ILE779  LEU786  VAL792 
 PHE793  MET794  SER795  GLU796  ALA797  LYS798  CYS799  TRP800  GLU811  SER814 

> <Gold.Protein.RotatedAtoms>
  152.3187  133.5830  159.5729 H   0  0  0  0  0  0  0  0  0  0  0  0  # atno 6907 bound_to 6896
  150.7360  134.0043  159.3657 H   0  0  0  0  0  0  0  0  0  0  0  0  # atno 6908 bound_to 6896
  151.7930  135.0731  160.0441 H   0  0  0  0  0  0  0  0  0  0  0  0  # atno 6909 bound_to 6896
  146.1909  139.7522  142.8833 H   0  0  0  0  0  0  0  0  0  0  0  0  # atno 7974 bound_to 7965
  154.4017  140.1346  156.4175 H   0  0  0  0  0  0  0  0  0  0  0  0  # atno 8008 bound_to 7997
  155.7675  140.3484  155.5209 H   0  0  0  0  0  0  0  0  0  0  0  0  # atno 8009 bound_to 7997
  155.8799  140.0985  157.1482 H   0  0  0  0  0  0  0  0  0  0  0  0  # atno 8010 bound_to 7997
  139.6944  144.7103  151.1292 H   0  0  0  0  0  0  0  0  0  0  0  0  # atno 10167 bound_to 10162
  157.6851  131.0701  150.5118 H   0  0  0  0  0  0  0  0  0  0  0  0  # atno 10718 bound_to 10713
  152.9973  135.5476  154.6145 H   0  0  0  0  0  0  0  0  0  0  0  0  # atno 10763 bound_to 10752
  154.5458  135.2823  155.1056 H   0  0  0  0  0  0  0  0  0  0  0  0  # atno 10764 bound_to 10752
  154.2315  135.6433  153.5229 H   0  0  0  0  0  0  0  0  0  0  0  0  # atno 10765 bound_to 10752
  141.1655  133.7316  156.8783 H   0  0  0  0  0  0  0  0  0  0  0  0  # atno 11005 bound_to 11000
  145.3796  141.0356  143.3185 LP  0  0  0  0  0  0  0  0  0  0  0  0  # atno 17320 bound_to 7965
  144.8484  139.5360  143.6868 LP  0  0  0  0  0  0  0  0  0  0  0  0  # atno 17321 bound_to 7965
  140.7692  143.5512  150.9202 LP  0  0  0  0  0  0  0  0  0  0  0  0  # atno 17342 bound_to 10162
  139.9191  143.6627  152.3100 LP  0  0  0  0  0  0  0  0  0  0  0  0  # atno 17343 bound_to 10162
  156.5435  130.4214  149.6142 LP  0  0  0  0  0  0  0  0  0  0  0  0  # atno 17370 bound_to 10713
  156.2964  130.7153  151.2014 LP  0  0  0  0  0  0  0  0  0  0  0  0  # atno 17371 bound_to 10713
  140.1733  134.9084  157.2860 LP  0  0  0  0  0  0  0  0  0  0  0  0  # atno 17394 bound_to 11000
  140.2477  134.3720  155.7454 LP  0  0  0  0  0  0  0  0  0  0  0  0  # atno 17395 bound_to 11000

$$$$
