AV-unprocessed.smi:2198|AV-procd|sdf|8916|dock7
  -GOLD-   2272012133D 1   1.00000     0.00000
 Structure written by MMmdl.
 43 44  0  0  0  0  0  0  0  0  1 V2000
  144.0244  141.9677  157.9508 C   0  0  0  0  0  0  0  0  0  0  0  0
  145.3086  141.7655  157.1766 C   0  0  0  0  0  0  0  0  0  0  0  0
  145.3253  142.4054  155.9482 N   0  0  0  0  0  0  0  0  0  0  0  0
  146.4578  142.2727  155.1645 C   0  0  0  0  0  0  0  0  0  0  0  0
  146.3931  143.0009  153.8334 C   0  0  0  0  0  0  0  0  0  0  0  0
  147.5231  141.5455  155.5869 C   0  0  0  0  0  0  0  0  0  0  0  0
  148.7941  141.3776  154.7546 C   0  0  0  0  0  0  0  0  0  0  0  0
  150.1210  141.5112  155.5069 C   0  0  0  0  0  0  0  0  0  0  0  0
  150.9922  140.6470  155.4043 O   0  0  0  0  0  0  0  0  0  0  0  0
  150.2546  142.6058  156.2706 N   0  0  0  0  0  0  0  0  0  0  0  0
  151.4187  142.9254  157.0916 C   0  0  1  0  0  0  0  0  0  0  0  0
  151.2117  144.2905  157.7723 C   0  0  0  0  0  0  0  0  0  0  0  0
  152.3868  144.6380  158.6992 C   0  0  0  0  0  0  0  0  0  0  0  0
  152.6207  143.5338  159.7419 C   0  0  0  0  0  0  0  0  0  0  0  0
  152.8398  142.1633  159.0731 C   0  0  1  0  0  0  0  0  0  0  0  0
  153.0681  141.0587  160.1149 C   0  0  0  0  0  0  0  0  0  0  0  0
  151.6597  141.8217  158.1428 C   0  0  0  0  0  0  0  0  0  0  0  0
  147.4514  140.8946  156.9164 C   0  0  0  0  0  0  0  0  0  0  0  0
  148.3905  140.2368  157.3630 O   0  0  0  0  0  0  0  0  0  0  0  0
  146.2752  141.0510  157.6676 N   0  0  0  0  0  0  0  0  0  0  0  0
  144.5575  142.9594  155.5973 H   0  0  0  0  0  0  0  0  0  0  0  0
  143.9904  141.3165  158.8252 H   0  0  0  0  0  0  0  0  0  0  0  0
  143.1603  141.7416  157.3255 H   0  0  0  0  0  0  0  0  0  0  0  0
  143.9467  143.0010  158.2905 H   0  0  0  0  0  0  0  0  0  0  0  0
  146.4605  142.2919  153.0082 H   0  0  0  0  0  0  0  0  0  0  0  0
  147.2157  143.7110  153.7464 H   0  0  0  0  0  0  0  0  0  0  0  0
  145.4604  143.5552  153.7230 H   0  0  0  0  0  0  0  0  0  0  0  0
  148.7859  142.1247  153.9607 H   0  0  0  0  0  0  0  0  0  0  0  0
  148.7855  140.4196  154.2337 H   0  0  0  0  0  0  0  0  0  0  0  0
  149.4888  143.2635  156.2923 H   0  0  0  0  0  0  0  0  0  0  0  0
  152.2975  142.9979  156.4476 H   0  0  0  0  0  0  0  0  0  0  0  0
  151.0955  145.0704  157.0188 H   0  0  0  0  0  0  0  0  0  0  0  0
  150.2872  144.2794  158.3519 H   0  0  0  0  0  0  0  0  0  0  0  0
  153.2914  144.7786  158.1063 H   0  0  0  0  0  0  0  0  0  0  0  0
  152.1954  145.5873  159.2001 H   0  0  0  0  0  0  0  0  0  0  0  0
  153.4829  143.7911  160.3582 H   0  0  0  0  0  0  0  0  0  0  0  0
  151.7641  143.4834  160.4156 H   0  0  0  0  0  0  0  0  0  0  0  0
  153.7407  142.2281  158.4613 H   0  0  0  0  0  0  0  0  0  0  0  0
  152.1999  140.9406  160.7642 H   0  0  0  0  0  0  0  0  0  0  0  0
  153.9280  141.2846  160.7460 H   0  0  0  0  0  0  0  0  0  0  0  0
  153.2568  140.0990  159.6334 H   0  0  0  0  0  0  0  0  0  0  0  0
  150.7563  141.6787  158.7380 H   0  0  0  0  0  0  0  0  0  0  0  0
  151.8521  140.8708  157.6442 H   0  0  0  0  0  0  0  0  0  0  0  0
  1 22  1  0  0  0  0
  1 23  1  0  0  0  0
  1 24  1  0  0  0  0
  1  2  1  0  0  0  0
  2  3  1  0  0  0  0
  2 20  2  0  0  0  0
  3  4  1  0  0  0  0
  3 21  1  0  0  0  0
  4  6  2  0  0  0  0
  4  5  1  0  0  0  0
  5 25  1  0  0  0  0
  5 26  1  0  0  0  0
  5 27  1  0  0  0  0
  6 18  1  0  0  0  0
  6  7  1  0  0  0  0
  7  8  1  0  0  0  0
  7 28  1  0  0  0  0
  7 29  1  0  0  0  0
  8  9  2  0  0  0  0
  8 10  1  0  0  0  0
 10 11  1  0  0  0  0
 10 30  1  0  0  0  0
 11 17  1  0  0  0  0
 11 12  1  0  0  0  0
 11 31  1  0  0  0  0
 12 13  1  0  0  0  0
 12 32  1  0  0  0  0
 12 33  1  0  0  0  0
 13 14  1  0  0  0  0
 13 34  1  0  0  0  0
 13 35  1  0  0  0  0
 14 15  1  0  0  0  0
 14 36  1  0  0  0  0
 14 37  1  0  0  0  0
 15 16  1  0  0  0  0
 15 17  1  0  0  0  0
 15 38  1  0  0  0  0
 16 39  1  0  0  0  0
 16 40  1  0  0  0  0
 16 41  1  0  0  0  0
 17 42  1  0  0  0  0
 17 43  1  0  0  0  0
 18 19  2  0  0  0  0
 18 20  1  0  0  0  0
M  END
> <s_m_source_file>
AV-unprocessed.smi

> <i_m_source_file_index>
2198

> <i_lp_mmshare_version>
43012

> <i_f3d_flags>
0

> <s_epik_input>
W0NIM11jMW5jKFtDSDNdKWMoYyg9TylbbkhdMSlbQ0gyXUMoPU8pW05IXVtDQEBIXTJbQ0gyXVtDSDJdW0NIMl1bQ0BASF0oW0NIM10pW0NIMl0y

> <s_epik_cmdline>
J2VwaWtfcHl0aG9uJywgJy1waCcsICc3LjAnLCAnLXRuJywgJzgnLCAnLW1hJywgJzIwMCcsICctbWV0YWxfYmluZGluZycsICctaW1hZScsICc8aW5maWxlLm1hZT4nLCAnLW9tYWUnLCAnPG91dGZpbGUubWFlPic=

> <r_lp_tautomer_probability>
0.156392

> <r_epik_Ionization_Penalty>
0.0136514

> <r_epik_Ionization_Penalty_Charging>
0.0135207

> <r_epik_Ionization_Penalty_Neutral>
0.000130657

> <r_epik_State_Penalty>
1.15342

> <r_epik_Charging_Adjusted_Penalty>
1.16694

> <i_epik_Tot_Q>
0

> <i_epik_Tot_abs_Q>
0

> <r_epik_Metal_State_Penalty>
1.31404

> <b_epik_Metal_Only>
0

> <s_lp_Force_Field>
OPLS_2005

> <r_lp_Energy>
13.5708

> <b_lp_Chiralities_Consistent>
1

> <s_lp_Variant>
AV-unprocessed.smi:2198-6

> <Gold.Version>
5.8.1

> <Gold.Id.Protein>
6NUR|6NUR_protein|mol2

> <Gold.PLP.Fitness>
43.3242

> <Gold.PLP.PLP>
-38.5015

> <Gold.PLP.part.hbond>
-2.0000

> <Gold.PLP.part.metal>
0.0000

> <Gold.PLP.part.buried>
-4.8901

> <Gold.PLP.part.nonpolar>
-32.0562

> <Gold.PLP.part.repulsive>
0.1555

> <Gold.PLP.ligand.clash>
0.0000

> <Gold.PLP.ligand.torsion>
0.3022

> <Gold.PLP.Chemscore.Hbond>
1.8080

> <Gold.PLP.Chemscore.CHOScore>
0.0000

> <Gold.PLP.Chemscore.Metal>
0.0000

> <Gold.Chemscore.Hbonds>
donor molecule, donor type, donor heavy atom, donor atom, acceptor molecule, acceptor atom, score
      L1  H    10    30       P1  8028  0.90
      P1  H  7989  7998       L1     9  0.88

> <Gold.PLP.Chemscore.Internal.Correction>
0.0032

> <Gold.Rescore>
     Score         DG    S(hbond)    S(metal)    S(lipo)     H(rot)  DE(clash)    DE(int)     intcor
     16.26     -18.22       1.51        0.00      98.17       1.48       0.32       1.64       ----

> <Gold.Chemscore.Fitness>
16.2624

> <Gold.Chemscore.DG>
-18.2211

> <Gold.Chemscore.ZeroCoef>
-5.4800

> <Gold.Chemscore.Hbond>
1.5104

> <Gold.Chemscore.Metal>
0.0000

> <Gold.Chemscore.Lipo>
98.1664

> <Gold.Chemscore.Internal_Hbond>
0.0000

> <Gold.Chemscore.DEClash>
0.3226

> <Gold.Chemscore.DEInternal>
1.6361

> <Gold.Chemscore.Rot>
1.4801

> <Gold.Chemscore.Internal.Correction>
   9.000000E+99

> <Gold.Chemscore.Hbonds>
donor molecule, donor type, donor heavy atom, donor atom, acceptor molecule, acceptor atom, score
      L1  H    10    30       P1  8028  0.88
      P1  H  7989  7998       L1     9  0.32

> <Gold.Chemscore.Hbond.Weighted>
-5.0447

> <Gold.Chemscore.Metal.Weighted>
-0.0000

> <Gold.Chemscore.Lipo.Weighted>
-11.4855

> <Gold.Chemscore.Internal_Hbond.Weighted>
0.0000

> <Gold.Chemscore.DEClash.Weighted>
0.3226

> <Gold.Chemscore.DEInternal.Weighted>
1.6361

> <Gold.Chemscore.Rot.Weighted>
3.7891

> <Gold.Chemscore.Internal.Correction.Weighted>
   9.000000E+99

> <Gold.Protein.RotatedTorsions>
[ 6907 6896 6895 6894 ] final  109.35 input  -60.11 | X-H torsion
[ 7974 7965 7964 7962 ] final   72.03 input  175.53 | X-H torsion
[ 8008 7997 7996 7995 ] final -124.92 input   59.86 | X-H torsion
[ 10167 10162 10161 10158 ] final  -20.92 input  -65.29 | X-H torsion
[ 10718 10713 10712 10709 ] final  147.00 input   66.30 | X-H torsion
[ 10763 10752 10751 10750 ] final -117.43 input  -60.55 | X-H torsion
[ 11005 11000 10999 10996 ] final  -59.98 input  -57.11 | X-H torsion

> <Gold.Protein.ActiveResidues>
 VAL166  LYS551  ARG553  GLY616  TRP617  ASP618  TYR619  PRO620  LYS621  CYS622 
 ASP623  PHE694  ASN695  SER759  ASP760  ASP761  ALA762  ILE779  LEU786  VAL792 
 PHE793  MET794  SER795  GLU796  ALA797  LYS798  CYS799  TRP800  GLU811  SER814 

> <Gold.Protein.RotatedAtoms>
  152.5071  133.8956  159.7415 H   0  0  0  0  0  0  0  0  0  0  0  0  # atno 6907 bound_to 6896
  150.9384  133.6676  159.2802 H   0  0  0  0  0  0  0  0  0  0  0  0  # atno 6908 bound_to 6896
  151.3996  135.0974  159.9604 H   0  0  0  0  0  0  0  0  0  0  0  0  # atno 6909 bound_to 6896
  145.7585  139.2790  143.1390 H   0  0  0  0  0  0  0  0  0  0  0  0  # atno 7974 bound_to 7965
  155.2048  140.0417  157.2923 H   0  0  0  0  0  0  0  0  0  0  0  0  # atno 8008 bound_to 7997
  154.6050  140.2462  155.7714 H   0  0  0  0  0  0  0  0  0  0  0  0  # atno 8009 bound_to 7997
  156.2345  140.2926  156.0284 H   0  0  0  0  0  0  0  0  0  0  0  0  # atno 8010 bound_to 7997
  140.7279  143.4676  151.0291 H   0  0  0  0  0  0  0  0  0  0  0  0  # atno 10167 bound_to 10162
  157.3264  131.0913  151.1199 H   0  0  0  0  0  0  0  0  0  0  0  0  # atno 10718 bound_to 10713
  154.8554  135.4310  154.1979 H   0  0  0  0  0  0  0  0  0  0  0  0  # atno 10763 bound_to 10752
  153.3032  135.6970  153.7189 H   0  0  0  0  0  0  0  0  0  0  0  0  # atno 10764 bound_to 10752
  153.6311  135.3484  155.3016 H   0  0  0  0  0  0  0  0  0  0  0  0  # atno 10765 bound_to 10752
  141.1269  133.6619  156.5154 H   0  0  0  0  0  0  0  0  0  0  0  0  # atno 11005 bound_to 11000
  146.0287  140.8278  142.9887 LP  0  0  0  0  0  0  0  0  0  0  0  0  # atno 17320 bound_to 7965
  144.6835  140.2737  143.7302 LP  0  0  0  0  0  0  0  0  0  0  0  0  # atno 17321 bound_to 7965
  139.8366  143.7620  152.3180 LP  0  0  0  0  0  0  0  0  0  0  0  0  # atno 17342 bound_to 10162
  139.7754  144.7462  151.0164 LP  0  0  0  0  0  0  0  0  0  0  0  0  # atno 17343 bound_to 10162
  157.2464  130.6593  149.5912 LP  0  0  0  0  0  0  0  0  0  0  0  0  # atno 17370 bound_to 10713
  155.9691  130.4552  150.5879 LP  0  0  0  0  0  0  0  0  0  0  0  0  # atno 17371 bound_to 10713
  140.4335  134.7080  157.4954 LP  0  0  0  0  0  0  0  0  0  0  0  0  # atno 17394 bound_to 11000
  140.0277  134.6452  155.9149 LP  0  0  0  0  0  0  0  0  0  0  0  0  # atno 17395 bound_to 11000

$$$$
