AV-unprocessed.smi:3162|AV-procd|sdf|12070|dock5
  -GOLD-   2272017503D 1   1.00000     0.00000
 Structure written by MMmdl.
 36 36  0  0  0  0  0  0  0  0  1 V2000
  147.3299  141.5464  154.5455 C   0  0  0  0  0  0  0  0  0  0  0  0
  148.8301  141.4308  154.2325 C   0  0  0  0  0  0  0  0  0  0  0  0
  149.5511  140.2904  154.9846 C   0  0  1  0  0  0  0  0  0  0  0  0
  149.3839  140.4837  156.4383 N   0  0  0  0  0  0  0  0  0  0  0  0
  149.7430  141.8033  156.9543 C   0  0  1  0  0  0  0  0  0  0  0  0
  148.8851  142.0589  158.2048 C   0  0  0  0  0  0  0  0  0  0  0  0
  151.2582  141.8520  157.2554 C   0  0  0  0  0  0  0  0  0  0  0  0
  151.5832  142.7429  158.3540 N   0  0  0  0  0  0  0  0  0  0  0  0
  151.9306  142.4186  159.6481 C   0  0  0  0  0  0  0  0  0  0  0  0
  152.1506  143.5878  160.3198 C   0  0  0  0  0  0  0  0  0  0  0  0
  152.5471  143.7839  161.7548 C   0  0  0  0  0  0  0  0  0  0  0  0
  151.9143  144.5858  159.3320 C   0  0  0  0  0  0  0  0  0  0  0  0
  151.5786  144.0784  158.1574 N   0  0  0  0  0  0  0  0  0  0  0  0
  149.0830  138.9041  154.5046 C   0  0  0  0  0  0  0  0  0  0  0  0
  149.1932  138.6391  153.2006 N   0  0  0  0  0  0  0  0  0  0  0  0
  148.6474  138.0778  155.3045 O   0  0  0  0  0  0  0  0  0  0  0  0
  146.8681  142.3222  153.9346 H   0  0  0  0  0  0  0  0  0  0  0  0
  147.1528  141.8045  155.5898 H   0  0  0  0  0  0  0  0  0  0  0  0
  146.8122  140.6096  154.3377 H   0  0  0  0  0  0  0  0  0  0  0  0
  148.9373  141.2683  153.1590 H   0  0  0  0  0  0  0  0  0  0  0  0
  149.3174  142.3855  154.4370 H   0  0  0  0  0  0  0  0  0  0  0  0
  150.6168  140.3833  154.7656 H   0  0  0  0  0  0  0  0  0  0  0  0
  149.8390  139.7586  156.9742 H   0  0  0  0  0  0  0  0  0  0  0  0
  149.4869  142.5739  156.2253 H   0  0  0  0  0  0  0  0  0  0  0  0
  149.0564  143.0572  158.6082 H   0  0  0  0  0  0  0  0  0  0  0  0
  149.1057  141.3397  158.9943 H   0  0  0  0  0  0  0  0  0  0  0  0
  147.8220  141.9846  157.9736 H   0  0  0  0  0  0  0  0  0  0  0  0
  151.6253  140.8551  157.5033 H   0  0  0  0  0  0  0  0  0  0  0  0
  151.8246  142.1790  156.3836 H   0  0  0  0  0  0  0  0  0  0  0  0
  151.9886  141.3930  159.9816 H   0  0  0  0  0  0  0  0  0  0  0  0
  152.6744  144.8386  162.0001 H   0  0  0  0  0  0  0  0  0  0  0  0
  153.4893  143.2852  161.9831 H   0  0  0  0  0  0  0  0  0  0  0  0
  151.7969  143.3837  162.4371 H   0  0  0  0  0  0  0  0  0  0  0  0
  151.9778  145.6591  159.4340 H   0  0  0  0  0  0  0  0  0  0  0  0
  148.8961  137.7437  152.8413 H   0  0  0  0  0  0  0  0  0  0  0  0
  149.5717  139.3380  152.5777 H   0  0  0  0  0  0  0  0  0  0  0  0
  1  2  1  0  0  0  0
  1 17  1  0  0  0  0
  1 18  1  0  0  0  0
  1 19  1  0  0  0  0
  2  3  1  0  0  0  0
  2 20  1  0  0  0  0
  2 21  1  0  0  0  0
  3  4  1  0  0  0  0
  3 14  1  0  0  0  0
  3 22  1  0  0  0  0
  4  5  1  0  0  0  0
  4 23  1  0  0  0  0
  5  6  1  0  0  0  0
  5  7  1  0  0  0  0
  5 24  1  0  0  0  0
  6 25  1  0  0  0  0
  6 26  1  0  0  0  0
  6 27  1  0  0  0  0
  7  8  1  0  0  0  0
  7 28  1  0  0  0  0
  7 29  1  0  0  0  0
  8 13  1  0  0  0  0
  8  9  1  0  0  0  0
  9 10  2  0  0  0  0
  9 30  1  0  0  0  0
 10 11  1  0  0  0  0
 10 12  1  0  0  0  0
 11 31  1  0  0  0  0
 11 32  1  0  0  0  0
 11 33  1  0  0  0  0
 12 13  2  0  0  0  0
 12 34  1  0  0  0  0
 14 15  1  0  0  0  0
 14 16  2  0  0  0  0
 15 35  1  0  0  0  0
 15 36  1  0  0  0  0
M  END
> <s_m_source_file>
AV-unprocessed.smi

> <i_m_source_file_index>
3162

> <i_lp_mmshare_version>
43012

> <i_f3d_flags>
0

> <s_epik_input>
W0NIM11bQ0gyXVtDQEBIXShDKD1PKVtOSDJdKVtOSF1bQ0BIXShbQ0gzXSlbQ0gyXW4xW2NIXWMoW0NIM10pW2NIXW4x

> <s_epik_cmdline>
J2VwaWtfcHl0aG9uJywgJy1waCcsICc3LjAnLCAnLXRuJywgJzgnLCAnLW1hJywgJzIwMCcsICctbWV0YWxfYmluZGluZycsICctaW1hZScsICc8aW5maWxlLm1hZT4nLCAnLW9tYWUnLCAnPG91dGZpbGUubWFlPic=

> <r_lp_tautomer_probability>
1

> <r_epik_Ionization_Penalty>
1.04167

> <r_epik_Ionization_Penalty_Charging>
0

> <r_epik_Ionization_Penalty_Neutral>
1.04167

> <r_epik_State_Penalty>
1.09367

> <r_epik_Charging_Adjusted_Penalty>
1.09367

> <i_epik_Tot_Q>
0

> <i_epik_Tot_abs_Q>
0

> <r_epik_Metal_State_Penalty>
1.09362

> <b_epik_Metal_Only>
0

> <s_lp_Force_Field>
OPLS_2005

> <r_lp_Energy>
2.92594

> <b_lp_Chiralities_Consistent>
1

> <s_lp_Variant>
AV-unprocessed.smi:3162-8

> <Gold.Version>
5.8.1

> <Gold.Id.Protein>
6NUR|6NUR_protein|mol2

> <Gold.PLP.Fitness>
38.5456

> <Gold.PLP.PLP>
-34.3620

> <Gold.PLP.part.hbond>
-1.8983

> <Gold.PLP.part.metal>
0.0000

> <Gold.PLP.part.buried>
-4.9963

> <Gold.PLP.part.nonpolar>
-28.1360

> <Gold.PLP.part.repulsive>
0.2749

> <Gold.PLP.ligand.clash>
0.0000

> <Gold.PLP.ligand.torsion>
0.9621

> <Gold.PLP.Chemscore.Hbond>
1.9920

> <Gold.PLP.Chemscore.CHOScore>
0.0000

> <Gold.PLP.Chemscore.Metal>
0.0000

> <Gold.Chemscore.Hbonds>
donor molecule, donor type, donor heavy atom, donor atom, acceptor molecule, acceptor atom, score
      L1  H    15    35       P1  7948  1.00
      L1  H    15    36       P1  7957  0.99

> <Gold.PLP.Chemscore.Internal.Correction>
0.1317

> <Gold.Rescore>
     Score         DG    S(hbond)    S(metal)    S(lipo)     H(rot)  DE(clash)    DE(int)     intcor
     14.38     -15.34       1.96        0.00      81.50       2.43       0.01       0.95       ----

> <Gold.Chemscore.Fitness>
14.3778

> <Gold.Chemscore.DG>
-15.3429

> <Gold.Chemscore.ZeroCoef>
-5.4800

> <Gold.Chemscore.Hbond>
1.9626

> <Gold.Chemscore.Metal>
0.0000

> <Gold.Chemscore.Lipo>
81.5033

> <Gold.Chemscore.Internal_Hbond>
0.0000

> <Gold.Chemscore.DEClash>
0.0106

> <Gold.Chemscore.DEInternal>
0.9545

> <Gold.Chemscore.Rot>
2.4328

> <Gold.Chemscore.Internal.Correction>
   9.000000E+99

> <Gold.Chemscore.Hbonds>
donor molecule, donor type, donor heavy atom, donor atom, acceptor molecule, acceptor atom, score
      L1  H    15    35       P1  7948  0.98
      L1  H    15    36       P1  7957  0.91

> <Gold.Chemscore.Hbond.Weighted>
-6.5550

> <Gold.Chemscore.Metal.Weighted>
-0.0000

> <Gold.Chemscore.Lipo.Weighted>
-9.5359

> <Gold.Chemscore.Internal_Hbond.Weighted>
0.0000

> <Gold.Chemscore.DEClash.Weighted>
0.0106

> <Gold.Chemscore.DEInternal.Weighted>
0.9545

> <Gold.Chemscore.Rot.Weighted>
6.2279

> <Gold.Chemscore.Internal.Correction.Weighted>
   9.000000E+99

> <Gold.Protein.RotatedTorsions>
[ 6907 6896 6895 6894 ] final   55.94 input  -60.11 | X-H torsion
[ 7974 7965 7964 7962 ] final -140.91 input  175.53 | X-H torsion
[ 8008 7997 7996 7995 ] final   33.52 input   59.86 | X-H torsion
[ 10167 10162 10161 10158 ] final  -45.58 input  -65.29 | X-H torsion
[ 10718 10713 10712 10709 ] final  165.57 input   66.30 | X-H torsion
[ 10763 10752 10751 10750 ] final -162.32 input  -60.55 | X-H torsion
[ 11005 11000 10999 10996 ] final  173.30 input  -57.11 | X-H torsion

> <Gold.Protein.ActiveResidues>
 VAL166  LYS551  ARG553  GLY616  TRP617  ASP618  TYR619  PRO620  LYS621  CYS622 
 ASP623  PHE694  ASN695  SER759  ASP760  ASP761  ALA762  ILE779  LEU786  VAL792 
 PHE793  MET794  SER795  GLU796  ALA797  LYS798  CYS799  TRP800  GLU811  SER814 

> <Gold.Protein.RotatedAtoms>
  152.3588  134.6902  160.0213 H   0  0  0  0  0  0  0  0  0  0  0  0  # atno 6907 bound_to 6896
  151.7232  133.3310  159.3329 H   0  0  0  0  0  0  0  0  0  0  0  0  # atno 6908 bound_to 6896
  150.7590  134.6363  159.6258 H   0  0  0  0  0  0  0  0  0  0  0  0  # atno 6909 bound_to 6896
  144.8560  140.6143  143.5359 H   0  0  0  0  0  0  0  0  0  0  0  0  # atno 7974 bound_to 7965
  155.1399  140.3265  155.4454 H   0  0  0  0  0  0  0  0  0  0  0  0  # atno 8008 bound_to 7997
  156.2608  140.1995  156.6465 H   0  0  0  0  0  0  0  0  0  0  0  0  # atno 8009 bound_to 7997
  154.6550  140.0554  156.9985 H   0  0  0  0  0  0  0  0  0  0  0  0  # atno 8010 bound_to 7997
  140.6852  143.2872  151.3660 H   0  0  0  0  0  0  0  0  0  0  0  0  # atno 10167 bound_to 10162
  157.0783  131.0385  151.2585 H   0  0  0  0  0  0  0  0  0  0  0  0  # atno 10718 bound_to 10713
  154.7225  135.3028  154.9025 H   0  0  0  0  0  0  0  0  0  0  0  0  # atno 10763 bound_to 10752
  153.9892  135.6721  153.4757 H   0  0  0  0  0  0  0  0  0  0  0  0  # atno 10764 bound_to 10752
  153.0846  135.4991  154.8489 H   0  0  0  0  0  0  0  0  0  0  0  0  # atno 10765 bound_to 10752
  140.3390  134.7293  157.4189 H   0  0  0  0  0  0  0  0  0  0  0  0  # atno 11005 bound_to 11000
  145.4406  139.1536  143.3973 LP  0  0  0  0  0  0  0  0  0  0  0  0  # atno 17320 bound_to 7965
  146.2823  140.4527  142.8771 LP  0  0  0  0  0  0  0  0  0  0  0  0  # atno 17321 bound_to 7965
  139.6205  144.0917  152.2386 LP  0  0  0  0  0  0  0  0  0  0  0  0  # atno 17342 bound_to 10162
  140.0360  144.6044  150.7450 LP  0  0  0  0  0  0  0  0  0  0  0  0  # atno 17343 bound_to 10162
  157.4821  130.7771  149.7424 LP  0  0  0  0  0  0  0  0  0  0  0  0  # atno 17370 bound_to 10713
  155.9931  130.3927  150.2915 LP  0  0  0  0  0  0  0  0  0  0  0  0  # atno 17371 bound_to 10713
  140.0797  134.5748  155.8554 LP  0  0  0  0  0  0  0  0  0  0  0  0  # atno 17394 bound_to 11000
  141.2043  133.6638  156.6116 LP  0  0  0  0  0  0  0  0  0  0  0  0  # atno 17395 bound_to 11000

$$$$
