AV-unprocessed.smi:1728|AV-procd|sdf|6968|dock7
  -GOLD-   22720 8183D 1   1.00000     0.00000
 Structure written by MMmdl.
 47 48  0  0  0  0  0  0  0  0  2 V2000
  159.5575  134.4670  153.2016 C   0  0  0  0  0  0  0  0  0  0  0  0
  158.8470  135.1876  154.2026 O   0  0  0  0  0  0  0  0  0  0  0  0
  158.2899  136.4074  153.8677 C   0  0  0  0  0  0  0  0  0  0  0  0
  158.3415  136.8051  152.5718 N   0  0  0  0  0  0  0  0  0  0  0  0
  157.7939  137.9926  152.2418 C   0  0  0  0  0  0  0  0  0  0  0  0
  157.1657  138.8368  153.1751 C   0  0  0  0  0  0  0  0  0  0  0  0
  157.1104  138.4267  154.5200 C   0  0  0  0  0  0  0  0  0  0  0  0
  157.6932  137.1883  154.8855 C   0  0  0  0  0  0  0  0  0  0  0  0
  157.6845  136.6638  156.2081 N   0  0  0  0  0  0  0  0  0  0  0  0
  157.3532  137.2721  157.3592 C   0  0  0  0  0  0  0  0  0  0  0  0
  156.9852  138.4410  157.4718 O   0  0  0  0  0  0  0  0  0  0  0  0
  157.4965  136.4396  158.4003 N   0  0  0  0  0  0  0  0  0  0  0  0
  157.2223  136.7684  159.7985 C   0  0  0  0  0  0  0  0  0  0  0  0
  156.0883  135.9057  160.4316 C   0  0  0  0  0  0  0  0  0  0  0  0
  154.7962  136.0418  159.5881 C   0  0  0  0  0  0  0  0  0  0  0  0
  156.4645  134.4028  160.3971 C   0  0  0  0  0  0  0  0  0  0  0  0
  155.8135  136.3218  161.8545 N   0  3  0  0  0  0  0  0  0  0  0  0
  155.3870  137.7373  162.0456 C   0  0  0  0  0  0  0  0  0  0  0  0
  155.3192  138.0852  163.5418 C   0  0  0  0  0  0  0  0  0  0  0  0
  154.4250  137.1993  164.1996 O   0  0  0  0  0  0  0  0  0  0  0  0
  154.8623  135.8511  164.1081 C   0  0  0  0  0  0  0  0  0  0  0  0
  154.9153  135.4217  162.6325 C   0  0  0  0  0  0  0  0  0  0  0  0
  159.9287  133.5336  153.6245 H   0  0  0  0  0  0  0  0  0  0  0  0
  160.4181  135.0305  152.8384 H   0  0  0  0  0  0  0  0  0  0  0  0
  158.9126  134.2149  152.3584 H   0  0  0  0  0  0  0  0  0  0  0  0
  157.8530  138.2742  151.2009 H   0  0  0  0  0  0  0  0  0  0  0  0
  156.7311  139.7757  152.8656 H   0  0  0  0  0  0  0  0  0  0  0  0
  156.6115  139.0634  155.2333 H   0  0  0  0  0  0  0  0  0  0  0  0
  158.0307  135.7192  156.2922 H   0  0  0  0  0  0  0  0  0  0  0  0
  157.8104  135.4989  158.2102 H   0  0  0  0  0  0  0  0  0  0  0  0
  158.1428  136.6946  160.3782 H   0  0  0  0  0  0  0  0  0  0  0  0
  156.9491  137.8229  159.8103 H   0  0  0  0  0  0  0  0  0  0  0  0
  154.8985  135.5648  158.6127 H   0  0  0  0  0  0  0  0  0  0  0  0
  154.5377  137.0815  159.3895 H   0  0  0  0  0  0  0  0  0  0  0  0
  153.9464  135.5724  160.0850 H   0  0  0  0  0  0  0  0  0  0  0  0
  156.4632  134.0080  159.3805 H   0  0  0  0  0  0  0  0  0  0  0  0
  155.7580  133.8016  160.9708 H   0  0  0  0  0  0  0  0  0  0  0  0
  157.4631  134.2160  160.7913 H   0  0  0  0  0  0  0  0  0  0  0  0
  156.0800  138.4330  161.5764 H   0  0  0  0  0  0  0  0  0  0  0  0
  154.4086  137.9029  161.5946 H   0  0  0  0  0  0  0  0  0  0  0  0
  156.3084  138.0329  163.9996 H   0  0  0  0  0  0  0  0  0  0  0  0
  154.9617  139.1067  163.6730 H   0  0  0  0  0  0  0  0  0  0  0  0
  155.8381  135.7370  164.5829 H   0  0  0  0  0  0  0  0  0  0  0  0
  154.1657  135.2181  164.6580 H   0  0  0  0  0  0  0  0  0  0  0  0
  153.9071  135.4428  162.2180 H   0  0  0  0  0  0  0  0  0  0  0  0
  155.2564  134.3888  162.6004 H   0  0  0  0  0  0  0  0  0  0  0  0
  156.7108  136.2563  162.3138 H   0  0  0  0  0  0  0  0  0  0  0  0
  1  2  1  0  0  0  0
  1 23  1  0  0  0  0
  1 24  1  0  0  0  0
  1 25  1  0  0  0  0
  2  3  1  0  0  0  0
  3  8  1  0  0  0  0
  3  4  2  0  0  0  0
  4  5  1  0  0  0  0
  5  6  2  0  0  0  0
  5 26  1  0  0  0  0
  6  7  1  0  0  0  0
  6 27  1  0  0  0  0
  7  8  2  0  0  0  0
  7 28  1  0  0  0  0
  8  9  1  0  0  0  0
  9 10  1  0  0  0  0
  9 29  1  0  0  0  0
 10 11  2  0  0  0  0
 10 12  1  0  0  0  0
 12 13  1  0  0  0  0
 12 30  1  0  0  0  0
 13 14  1  0  0  0  0
 13 31  1  0  0  0  0
 13 32  1  0  0  0  0
 14 15  1  0  0  0  0
 14 16  1  0  0  0  0
 14 17  1  0  0  0  0
 15 33  1  0  0  0  0
 15 34  1  0  0  0  0
 15 35  1  0  0  0  0
 16 36  1  0  0  0  0
 16 37  1  0  0  0  0
 16 38  1  0  0  0  0
 17 22  1  0  0  0  0
 17 18  1  0  0  0  0
 17 47  1  0  0  0  0
 18 19  1  0  0  0  0
 18 39  1  0  0  0  0
 18 40  1  0  0  0  0
 19 20  1  0  0  0  0
 19 41  1  0  0  0  0
 19 42  1  0  0  0  0
 20 21  1  0  0  0  0
 21 22  1  0  0  0  0
 21 43  1  0  0  0  0
 21 44  1  0  0  0  0
 22 45  1  0  0  0  0
 22 46  1  0  0  0  0
M  CHG  1  17   1
M  END
> <s_m_source_file>
AV-unprocessed.smi

> <i_m_source_file_index>
1728

> <i_lp_mmshare_version>
43012

> <i_f3d_flags>
0

> <s_epik_input>
W0NIM11PYzFuW2NIXVtjSF1bY0hdYzFbTkhdQyg9TylbTkhdW0NIMl1DKFtDSDNdKShbQ0gzXSlOMltDSDJdW0NIMl1PW0NIMl1bQ0gyXTI=

> <s_epik_cmdline>
J2VwaWtfcHl0aG9uJywgJy1waCcsICc3LjAnLCAnLXRuJywgJzgnLCAnLW1hJywgJzIwMCcsICctbWV0YWxfYmluZGluZycsICctaW1hZScsICc8aW5maWxlLm1hZT4nLCAnLW9tYWUnLCAnPG91dGZpbGUubWFlPic=

> <r_lp_tautomer_probability>
1

> <r_epik_Ionization_Penalty>
0.602608

> <r_epik_Ionization_Penalty_Charging>
0.602531

> <r_epik_Ionization_Penalty_Neutral>
7.74611e-05

> <r_epik_State_Penalty>
0.617039

> <r_epik_Charging_Adjusted_Penalty>
1.21957

> <i_epik_Tot_Q>
1

> <i_epik_Tot_abs_Q>
1

> <r_epik_Metal_State_Penalty>
0.617043

> <b_epik_Metal_Only>
0

> <s_lp_Force_Field>
OPLS_2005

> <r_lp_Energy>
27.5646

> <b_lp_Chiralities_Consistent>
1

> <s_lp_Variant>
AV-unprocessed.smi:1728-2

> <Gold.Version>
5.8.1

> <Gold.Id.Protein>
6NUR|6NUR_protein|mol2

> <Gold.PLP.Fitness>
32.7113

> <Gold.PLP.PLP>
-28.2836

> <Gold.PLP.part.hbond>
-1.0000

> <Gold.PLP.part.metal>
0.0000

> <Gold.PLP.part.buried>
-5.6774

> <Gold.PLP.part.nonpolar>
-23.4475

> <Gold.PLP.part.repulsive>
1.7872

> <Gold.PLP.ligand.clash>
0.0000

> <Gold.PLP.ligand.torsion>
0.1517

> <Gold.PLP.Chemscore.Hbond>
0.5440

> <Gold.PLP.Chemscore.CHOScore>
1.0000

> <Gold.PLP.Chemscore.Metal>
0.0000

> <Gold.Chemscore.Hbonds>
donor molecule, donor type, donor heavy atom, donor atom, acceptor molecule, acceptor atom, score
      P1  H  7997  8009       L1    11  0.86
      L1  C     5    26       P1 10674  0.75

> <Gold.PLP.Chemscore.Internal.Correction>
0.0992

> <Gold.Rescore>
     Score         DG    S(hbond)    S(metal)    S(lipo)     H(rot)  DE(clash)    DE(int)     intcor
     11.40     -12.82       0.54        0.00      85.82       1.76       0.10       1.32       ----

> <Gold.Chemscore.Fitness>
11.4016

> <Gold.Chemscore.DG>
-12.8235

> <Gold.Chemscore.ZeroCoef>
-5.4800

> <Gold.Chemscore.Hbond>
0.5397

> <Gold.Chemscore.Metal>
0.0000

> <Gold.Chemscore.Lipo>
85.8163

> <Gold.Chemscore.Internal_Hbond>
0.0000

> <Gold.Chemscore.DEClash>
0.0978

> <Gold.Chemscore.DEInternal>
1.3240

> <Gold.Chemscore.Rot>
1.7577

> <Gold.Chemscore.Internal.Correction>
   9.000000E+99

> <Gold.Chemscore.Hbonds>
donor molecule, donor type, donor heavy atom, donor atom, acceptor molecule, acceptor atom, score
      P1  H  7997  8009       L1    11  0.85

> <Gold.Chemscore.Hbond.Weighted>
-1.8027

> <Gold.Chemscore.Metal.Weighted>
-0.0000

> <Gold.Chemscore.Lipo.Weighted>
-10.0405

> <Gold.Chemscore.Internal_Hbond.Weighted>
0.0000

> <Gold.Chemscore.DEClash.Weighted>
0.0978

> <Gold.Chemscore.DEInternal.Weighted>
1.3240

> <Gold.Chemscore.Rot.Weighted>
4.4997

> <Gold.Chemscore.Internal.Correction.Weighted>
   9.000000E+99

> <Gold.Protein.RotatedTorsions>
[ 6907 6896 6895 6894 ] final -171.91 input  -60.11 | X-H torsion
[ 7974 7965 7964 7962 ] final -127.58 input  175.53 | X-H torsion
[ 8008 7997 7996 7995 ] final   55.86 input   59.86 | X-H torsion
[ 10167 10162 10161 10158 ] final -159.27 input  -65.29 | X-H torsion
[ 10718 10713 10712 10709 ] final  -82.91 input   66.30 | X-H torsion
[ 10763 10752 10751 10750 ] final  -67.67 input  -60.55 | X-H torsion
[ 11005 11000 10999 10996 ] final    4.88 input  -57.11 | X-H torsion

> <Gold.Protein.ActiveResidues>
 VAL166  LYS551  ARG553  GLY616  TRP617  ASP618  TYR619  PRO620  LYS621  CYS622 
 ASP623  PHE694  ASN695  SER759  ASP760  ASP761  ALA762  ILE779  LEU786  VAL792 
 PHE793  MET794  SER795  GLU796  ALA797  LYS798  CYS799  TRP800  GLU811  SER814 

> <Gold.Protein.RotatedAtoms>
  151.5314  133.3448  159.2918 H   0  0  0  0  0  0  0  0  0  0  0  0  # atno 6907 bound_to 6896
  150.8591  134.7941  159.7080 H   0  0  0  0  0  0  0  0  0  0  0  0  # atno 6908 bound_to 6896
  152.4616  134.5180  159.9825 H   0  0  0  0  0  0  0  0  0  0  0  0  # atno 6909 bound_to 6896
  144.9757  140.7590  143.4643 H   0  0  0  0  0  0  0  0  0  0  0  0  # atno 7974 bound_to 7965
  155.5081  140.3476  155.4383 H   0  0  0  0  0  0  0  0  0  0  0  0  # atno 8008 bound_to 7997
  156.0868  140.1400  156.9670 H   0  0  0  0  0  0  0  0  0  0  0  0  # atno 8009 bound_to 7997
  154.4611  140.0934  156.6873 H   0  0  0  0  0  0  0  0  0  0  0  0  # atno 8010 bound_to 7997
  139.6628  143.9882  152.2236 H   0  0  0  0  0  0  0  0  0  0  0  0  # atno 10167 bound_to 10162
  156.0026  130.4649  150.4177 H   0  0  0  0  0  0  0  0  0  0  0  0  # atno 10718 bound_to 10713
  154.3779  135.6081  153.5775 H   0  0  0  0  0  0  0  0  0  0  0  0  # atno 10763 bound_to 10752
  152.9788  135.5853  154.4445 H   0  0  0  0  0  0  0  0  0  0  0  0  # atno 10764 bound_to 10752
  154.4210  135.2846  155.1953 H   0  0  0  0  0  0  0  0  0  0  0  0  # atno 10765 bound_to 10752
  140.5769  134.0049  155.8031 H   0  0  0  0  0  0  0  0  0  0  0  0  # atno 11005 bound_to 11000
  145.2494  139.2038  143.4950 LP  0  0  0  0  0  0  0  0  0  0  0  0  # atno 17320 bound_to 7965
  146.3394  140.2405  142.8595 LP  0  0  0  0  0  0  0  0  0  0  0  0  # atno 17321 bound_to 7965
  139.9626  144.6548  150.8065 LP  0  0  0  0  0  0  0  0  0  0  0  0  # atno 17342 bound_to 10162
  140.7587  143.3113  151.2839 LP  0  0  0  0  0  0  0  0  0  0  0  0  # atno 17343 bound_to 10162
  157.2235  131.0488  151.2533 LP  0  0  0  0  0  0  0  0  0  0  0  0  # atno 17370 bound_to 10713
  157.3778  130.7215  149.6609 LP  0  0  0  0  0  0  0  0  0  0  0  0  # atno 17371 bound_to 10713
  141.1021  133.9752  157.3061 LP  0  0  0  0  0  0  0  0  0  0  0  0  # atno 17394 bound_to 11000
  139.9335  135.0198  156.8479 LP  0  0  0  0  0  0  0  0  0  0  0  0  # atno 17395 bound_to 11000

$$$$
