AV-unprocessed.smi:2981|AV-procd|sdf|11375|dock8
  -GOLD-   2272016293D 1   1.00000     0.00000
 Structure written by MMmdl.
 31 32  0  0  0  0  0  0  0  0  1 V2000
  150.4884  135.8598  158.5336 O   0  0  0  0  0  0  0  0  0  0  0  0
  149.9069  135.8563  157.4475 C   0  0  0  0  0  0  0  0  0  0  0  0
  150.6959  135.7369  156.1356 C   0  0  0  0  0  0  0  0  0  0  0  0
  150.7752  134.3578  155.6315 N   0  0  0  0  0  0  0  0  0  0  0  0
  150.1442  134.1636  154.4152 N   0  0  0  0  0  0  0  0  0  0  0  0
  150.1657  132.9970  153.8687 C   0  0  0  0  0  0  0  0  0  0  0  0
  150.8272  131.8688  154.4862 C   0  0  0  0  0  0  0  0  0  0  0  0
  150.8230  130.3271  153.7049 Cl  0  0  0  0  0  0  0  0  0  0  0  0
  151.4371  132.0683  155.6817 C   0  0  0  0  0  0  0  0  0  0  0  0
  152.2483  130.7666  156.4830 Cl  0  0  0  0  0  0  0  0  0  0  0  0
  151.4325  133.3847  156.3349 C   0  0  0  0  0  0  0  0  0  0  0  0
  151.9716  133.6062  157.4201 O   0  0  0  0  0  0  0  0  0  0  0  0
  148.5757  135.9703  157.3274 N   0  0  0  0  0  0  0  0  0  0  0  0
  147.6419  136.0869  158.4424 C   0  0  1  0  0  0  0  0  0  0  0  0
  147.5167  134.7554  159.2059 C   0  0  0  0  0  0  0  0  0  0  0  0
  146.8222  135.0219  160.5471 C   0  0  0  0  0  0  0  0  0  0  0  0
  147.2937  136.7251  161.0348 S   0  0  0  0  0  0  0  0  0  0  0  0
  146.0721  137.5246  161.2126 O   0  0  0  0  0  0  0  0  0  0  0  0
  148.3228  136.6708  162.0841 O   0  0  0  0  0  0  0  0  0  0  0  0
  148.0856  137.1660  159.4430 C   0  0  0  0  0  0  0  0  0  0  0  0
  150.2500  136.3835  155.3771 H   0  0  0  0  0  0  0  0  0  0  0  0
  151.6973  136.1361  156.3077 H   0  0  0  0  0  0  0  0  0  0  0  0
  149.6857  132.7978  152.9105 H   0  0  0  0  0  0  0  0  0  0  0  0
  148.1804  135.9660  156.3982 H   0  0  0  0  0  0  0  0  0  0  0  0
  146.6516  136.3477  158.0640 H   0  0  0  0  0  0  0  0  0  0  0  0
  146.9857  134.0016  158.6238 H   0  0  0  0  0  0  0  0  0  0  0  0
  148.5142  134.3600  159.4040 H   0  0  0  0  0  0  0  0  0  0  0  0
  145.7383  134.9940  160.4328 H   0  0  0  0  0  0  0  0  0  0  0  0
  147.1088  134.3130  161.3241 H   0  0  0  0  0  0  0  0  0  0  0  0
  149.1658  137.1473  159.5928 H   0  0  0  0  0  0  0  0  0  0  0  0
  147.7937  138.1728  159.1435 H   0  0  0  0  0  0  0  0  0  0  0  0
  1  2  2  0  0  0  0
  2  3  1  0  0  0  0
  2 13  1  0  0  0  0
  3  4  1  0  0  0  0
  3 21  1  0  0  0  0
  3 22  1  0  0  0  0
  4 11  1  0  0  0  0
  4  5  1  0  0  0  0
  5  6  2  0  0  0  0
  6  7  1  0  0  0  0
  6 23  1  0  0  0  0
  7  8  1  0  0  0  0
  7  9  2  0  0  0  0
  9 10  1  0  0  0  0
  9 11  1  0  0  0  0
 11 12  2  0  0  0  0
 13 14  1  0  0  0  0
 13 24  1  0  0  0  0
 14 20  1  0  0  0  0
 14 15  1  0  0  0  0
 14 25  1  0  0  0  0
 15 16  1  0  0  0  0
 15 26  1  0  0  0  0
 15 27  1  0  0  0  0
 16 17  1  0  0  0  0
 16 28  1  0  0  0  0
 16 29  1  0  0  0  0
 17 18  2  0  0  0  0
 17 19  2  0  0  0  0
 17 20  1  0  0  0  0
 20 30  1  0  0  0  0
 20 31  1  0  0  0  0
M  END
> <s_m_source_file>
AV-unprocessed.smi

> <i_m_source_file_index>
2981

> <i_lp_mmshare_version>
43012

> <i_f3d_flags>
0

> <s_epik_input>
Tz1TMSg9TylbQ0gyXVtDSDJdW0NASF0oW0NIMl0xKVtOSF1DKD1PKVtDSDJdbjJuW2NIXWMoQ2wpYyhDbCljMj1P

> <s_epik_cmdline>
J2VwaWtfcHl0aG9uJywgJy1waCcsICc3LjAnLCAnLXRuJywgJzgnLCAnLW1hJywgJzIwMCcsICctbWV0YWxfYmluZGluZycsICctaW1hZScsICc8aW5maWxlLm1hZT4nLCAnLW9tYWUnLCAnPG91dGZpbGUubWFlPic=

> <r_lp_tautomer_probability>
1

> <r_epik_Ionization_Penalty>
1.07216e-07

> <r_epik_Ionization_Penalty_Charging>
2.33395e-11

> <r_epik_Ionization_Penalty_Neutral>
1.07193e-07

> <r_epik_State_Penalty>
-0

> <r_epik_Charging_Adjusted_Penalty>
2.33395e-11

> <i_epik_Tot_Q>
0

> <i_epik_Tot_abs_Q>
0

> <r_epik_Metal_State_Penalty>
-0

> <b_epik_Metal_Only>
0

> <s_lp_Force_Field>
OPLS_2005

> <r_lp_Energy>
17.277

> <b_lp_Chiralities_Consistent>
1

> <s_lp_Variant>
AV-unprocessed.smi:2981-2

> <Gold.Version>
5.8.1

> <Gold.Id.Protein>
6NUR|6NUR_protein|mol2

> <Gold.PLP.Fitness>
33.9426

> <Gold.PLP.PLP>
-25.0985

> <Gold.PLP.part.hbond>
-3.7095

> <Gold.PLP.part.metal>
0.0000

> <Gold.PLP.part.buried>
-4.0116

> <Gold.PLP.part.nonpolar>
-17.7878

> <Gold.PLP.part.repulsive>
0.1421

> <Gold.PLP.ligand.clash>
0.0000

> <Gold.PLP.ligand.torsion>
0.4775

> <Gold.PLP.Chemscore.Hbond>
3.2660

> <Gold.PLP.Chemscore.CHOScore>
0.0000

> <Gold.PLP.Chemscore.Metal>
0.0000

> <Gold.Chemscore.Hbonds>
donor molecule, donor type, donor heavy atom, donor atom, acceptor molecule, acceptor atom, score
      P1  H  6896  6907       L1     1  0.85
      P1  H  6896  6909       L1    12  0.45
      P1  H  6931  6943       L1    19  1.00
      P1  H  6934  6947       L1    18  0.35

> <Gold.PLP.Chemscore.Internal.Correction>
0.0010

> <Gold.Rescore>
     Score         DG    S(hbond)    S(metal)    S(lipo)     H(rot)  DE(clash)    DE(int)     intcor
     13.43     -14.89       2.77        0.00      38.75       1.70       0.07       1.38       ----

> <Gold.Chemscore.Fitness>
13.4319

> <Gold.Chemscore.DG>
-14.8862

> <Gold.Chemscore.ZeroCoef>
-5.4800

> <Gold.Chemscore.Hbond>
2.7656

> <Gold.Chemscore.Metal>
0.0000

> <Gold.Chemscore.Lipo>
38.7485

> <Gold.Chemscore.Internal_Hbond>
0.0000

> <Gold.Chemscore.DEClash>
0.0724

> <Gold.Chemscore.DEInternal>
1.3819

> <Gold.Chemscore.Rot>
1.7049

> <Gold.Chemscore.Internal.Correction>
   9.000000E+99

> <Gold.Chemscore.Hbonds>
donor molecule, donor type, donor heavy atom, donor atom, acceptor molecule, acceptor atom, score
      P1  H  6896  6907       L1     1  0.80
      P1  H  6896  6909       L1    12  0.44
      P1  H  6931  6943       L1    19  0.30
      P1  H  6934  6947       L1    18  0.01

> <Gold.Chemscore.Hbond.Weighted>
-9.2372

> <Gold.Chemscore.Metal.Weighted>
-0.0000

> <Gold.Chemscore.Lipo.Weighted>
-4.5336

> <Gold.Chemscore.Internal_Hbond.Weighted>
0.0000

> <Gold.Chemscore.DEClash.Weighted>
0.0724

> <Gold.Chemscore.DEInternal.Weighted>
1.3819

> <Gold.Chemscore.Rot.Weighted>
4.3646

> <Gold.Chemscore.Internal.Correction.Weighted>
   9.000000E+99

> <Gold.Protein.RotatedTorsions>
[ 6907 6896 6895 6894 ] final  -50.39 input  -60.11 | X-H torsion
[ 7974 7965 7964 7962 ] final  112.46 input  175.53 | X-H torsion
[ 8008 7997 7996 7995 ] final -147.13 input   59.86 | X-H torsion
[ 10167 10162 10161 10158 ] final  -59.29 input  -65.29 | X-H torsion
[ 10718 10713 10712 10709 ] final  -35.60 input   66.30 | X-H torsion
[ 10763 10752 10751 10750 ] final  -17.78 input  -60.55 | X-H torsion
[ 11005 11000 10999 10996 ] final   91.44 input  -57.11 | X-H torsion

> <Gold.Protein.ActiveResidues>
 VAL166  LYS551  ARG553  GLY616  TRP617  ASP618  TYR619  PRO620  LYS621  CYS622 
 ASP623  PHE694  ASN695  SER759  ASP760  ASP761  ALA762  ILE779  LEU786  VAL792 
 PHE793  MET794  SER795  GLU796  ALA797  LYS798  CYS799  TRP800  GLU811  SER814 

> <Gold.Protein.RotatedAtoms>
  150.8712  134.8086  159.7155 H   0  0  0  0  0  0  0  0  0  0  0  0  # atno 6907 bound_to 6896
  152.4716  134.4944  159.9715 H   0  0  0  0  0  0  0  0  0  0  0  0  # atno 6908 bound_to 6896
  151.5032  133.3461  159.2908 H   0  0  0  0  0  0  0  0  0  0  0  0  # atno 6909 bound_to 6896
  145.2292  139.2827  143.4177 H   0  0  0  0  0  0  0  0  0  0  0  0  # atno 7974 bound_to 7965
  155.5705  140.0634  157.2807 H   0  0  0  0  0  0  0  0  0  0  0  0  # atno 8008 bound_to 7997
  154.4362  140.1869  156.0920 H   0  0  0  0  0  0  0  0  0  0  0  0  # atno 8009 bound_to 7997
  156.0380  140.3299  155.7215 H   0  0  0  0  0  0  0  0  0  0  0  0  # atno 8010 bound_to 7997
  140.6144  143.2397  151.5632 H   0  0  0  0  0  0  0  0  0  0  0  0  # atno 10167 bound_to 10162
  156.3367  130.4287  149.7823 H   0  0  0  0  0  0  0  0  0  0  0  0  # atno 10718 bound_to 10713
  153.5792  135.7005  153.5471 H   0  0  0  0  0  0  0  0  0  0  0  0  # atno 10763 bound_to 10752
  153.3276  135.4056  155.1468 H   0  0  0  0  0  0  0  0  0  0  0  0  # atno 10764 bound_to 10752
  154.8620  135.3711  154.5318 H   0  0  0  0  0  0  0  0  0  0  0  0  # atno 10765 bound_to 10752
  139.8839  134.8674  156.3428 H   0  0  0  0  0  0  0  0  0  0  0  0  # atno 11005 bound_to 11000
  146.3357  140.2622  142.8602 LP  0  0  0  0  0  0  0  0  0  0  0  0  # atno 17320 bound_to 7965
  144.9692  140.8352  143.5466 LP  0  0  0  0  0  0  0  0  0  0  0  0  # atno 17321 bound_to 7965
  139.5387  144.2708  152.1305 LP  0  0  0  0  0  0  0  0  0  0  0  0  # atno 17342 bound_to 10162
  140.1915  144.4747  150.6477 LP  0  0  0  0  0  0  0  0  0  0  0  0  # atno 17343 bound_to 10162
  156.5075  130.8157  151.3156 LP  0  0  0  0  0  0  0  0  0  0  0  0  # atno 17370 bound_to 10713
  157.7440  130.9924  150.2637 LP  0  0  0  0  0  0  0  0  0  0  0  0  # atno 17371 bound_to 10713
  140.9647  133.7366  156.0450 LP  0  0  0  0  0  0  0  0  0  0  0  0  # atno 17394 bound_to 11000
  140.7946  134.3579  157.5456 LP  0  0  0  0  0  0  0  0  0  0  0  0  # atno 17395 bound_to 11000

$$$$
