AV-unprocessed.smi:1824|AV-procd|sdf|7395|dock2
  -GOLD-   22720 9 63D 1   1.00000     0.00000
 Structure written by MMmdl.
 44 46  0  0  0  0  0  0  0  0  1 V2000
  148.1443  135.3542  155.4315 C   0  0  0  0  0  0  0  0  0  0  0  0
  147.6297  136.5147  154.5738 C   0  0  2  0  0  0  0  0  0  0  0  0
  147.9999  137.8857  155.1682 C   0  0  0  0  0  0  0  0  0  0  0  0
  147.4421  138.9811  154.3870 N   0  0  0  0  0  0  0  0  0  0  0  0
  147.8543  140.2805  154.9206 C   0  0  0  0  0  0  0  0  0  0  0  0
  149.2859  140.7113  154.5466 C   0  0  1  0  0  0  0  0  0  0  0  0
  149.2741  141.1964  153.2196 O   0  0  0  0  0  0  0  0  0  0  0  0
  149.8356  141.8099  155.4779 C   0  0  0  0  0  0  0  0  0  0  0  0
  150.8448  141.2993  156.3853 N   0  0  0  0  0  0  0  0  0  0  0  0
  151.6111  140.2026  156.2311 C   0  0  0  0  0  0  0  0  0  0  0  0
  152.4768  139.9257  157.2026 N   0  0  0  0  0  0  0  0  0  0  0  0
  152.2484  140.9661  158.0876 C   0  0  0  0  0  0  0  0  0  0  0  0
  152.8474  141.2626  159.3328 C   0  0  0  0  0  0  0  0  0  0  0  0
  152.4444  142.3972  160.0681 C   0  0  0  0  0  0  0  0  0  0  0  0
  153.0297  142.6671  161.2590 F   0  0  0  0  0  0  0  0  0  0  0  0
  151.4372  143.2511  159.5707 C   0  0  0  0  0  0  0  0  0  0  0  0
  151.0561  144.3383  160.2823 F   0  0  0  0  0  0  0  0  0  0  0  0
  150.8259  142.9755  158.3330 C   0  0  0  0  0  0  0  0  0  0  0  0
  151.2321  141.8431  157.6039 C   0  0  0  0  0  0  0  0  0  0  0  0
  145.9894  138.8283  154.3255 C   0  0  0  0  0  0  0  0  0  0  0  0
  145.5603  137.4564  153.7693 C   0  0  1  0  0  0  0  0  0  0  0  0
  145.7664  137.3274  152.2504 C   0  0  0  0  0  0  0  0  0  0  0  0
  146.2104  136.4050  154.4852 O   0  0  0  0  0  0  0  0  0  0  0  0
  149.2307  135.3824  155.5182 H   0  0  0  0  0  0  0  0  0  0  0  0
  147.8711  134.3946  154.9917 H   0  0  0  0  0  0  0  0  0  0  0  0
  147.7262  135.3905  156.4378 H   0  0  0  0  0  0  0  0  0  0  0  0
  148.0620  136.4220  153.5769 H   0  0  0  0  0  0  0  0  0  0  0  0
  147.6443  137.9477  156.1980 H   0  0  0  0  0  0  0  0  0  0  0  0
  149.0860  137.9770  155.2074 H   0  0  0  0  0  0  0  0  0  0  0  0
  147.1471  141.0445  154.5934 H   0  0  0  0  0  0  0  0  0  0  0  0
  147.7851  140.2578  156.0093 H   0  0  0  0  0  0  0  0  0  0  0  0
  149.9506  139.8482  154.5566 H   0  0  0  0  0  0  0  0  0  0  0  0
  149.5283  140.4936  152.6414 H   0  0  0  0  0  0  0  0  0  0  0  0
  150.2551  142.6362  154.9020 H   0  0  0  0  0  0  0  0  0  0  0  0
  149.0338  142.2319  156.0847 H   0  0  0  0  0  0  0  0  0  0  0  0
  151.5266  139.5709  155.3586 H   0  0  0  0  0  0  0  0  0  0  0  0
  153.6194  140.6165  159.7234 H   0  0  0  0  0  0  0  0  0  0  0  0
  150.0548  143.6259  157.9481 H   0  0  0  0  0  0  0  0  0  0  0  0
  145.5709  138.9508  155.3257 H   0  0  0  0  0  0  0  0  0  0  0  0
  145.5431  139.6071  153.7087 H   0  0  0  0  0  0  0  0  0  0  0  0
  144.4926  137.3383  153.9554 H   0  0  0  0  0  0  0  0  0  0  0  0
  145.1639  138.0607  151.7140 H   0  0  0  0  0  0  0  0  0  0  0  0
  145.4695  136.3384  151.9011 H   0  0  0  0  0  0  0  0  0  0  0  0
  146.8053  137.4868  151.9621 H   0  0  0  0  0  0  0  0  0  0  0  0
  1  2  1  0  0  0  0
  1 24  1  0  0  0  0
  1 25  1  0  0  0  0
  1 26  1  0  0  0  0
  2 23  1  0  0  0  0
  2  3  1  0  0  0  0
  2 27  1  0  0  0  0
  3  4  1  0  0  0  0
  3 28  1  0  0  0  0
  3 29  1  0  0  0  0
  4  5  1  0  0  0  0
  4 20  1  0  0  0  0
  5  6  1  0  0  0  0
  5 30  1  0  0  0  0
  5 31  1  0  0  0  0
  6  7  1  0  0  0  0
  6  8  1  0  0  0  0
  6 32  1  0  0  0  0
  7 33  1  0  0  0  0
  8  9  1  0  0  0  0
  8 34  1  0  0  0  0
  8 35  1  0  0  0  0
  9 19  1  0  0  0  0
  9 10  1  0  0  0  0
 10 11  2  0  0  0  0
 10 36  1  0  0  0  0
 11 12  1  0  0  0  0
 12 19  2  0  0  0  0
 12 13  1  0  0  0  0
 13 14  2  0  0  0  0
 13 37  1  0  0  0  0
 14 15  1  0  0  0  0
 14 16  1  0  0  0  0
 16 17  1  0  0  0  0
 16 18  2  0  0  0  0
 18 19  1  0  0  0  0
 18 38  1  0  0  0  0
 20 21  1  0  0  0  0
 20 39  1  0  0  0  0
 20 40  1  0  0  0  0
 21 22  1  0  0  0  0
 21 23  1  0  0  0  0
 21 41  1  0  0  0  0
 22 42  1  0  0  0  0
 22 43  1  0  0  0  0
 22 44  1  0  0  0  0
M  END
> <s_m_source_file>
AV-unprocessed.smi

> <i_m_source_file_index>
1824

> <i_lp_mmshare_version>
43012

> <i_f3d_flags>
0

> <s_epik_input>
W0NIM11bQ0BASF0xW0NIMl1OKFtDSDJdW0NASF0oTzEpW0NIM10pW0NIMl1bQ0BIXShbT0hdKVtDSDJdbihbY0hdbjIpYyhjMjMpW2NIXWMoRiljKEYpW2NIXTM=

> <s_epik_cmdline>
J2VwaWtfcHl0aG9uJywgJy1waCcsICc3LjAnLCAnLXRuJywgJzgnLCAnLW1hJywgJzIwMCcsICctbWV0YWxfYmluZGluZycsICctaW1hZScsICc8aW5maWxlLm1hZT4nLCAnLW9tYWUnLCAnPG91dGZpbGUubWFlPic=

> <r_epik_Ionization_Penalty>
0.273778

> <r_epik_Ionization_Penalty_Charging>
0

> <r_epik_Ionization_Penalty_Neutral>
0.273778

> <r_epik_State_Penalty>
0.246794

> <r_epik_Charging_Adjusted_Penalty>
0.246794

> <i_epik_Tot_Q>
0

> <i_epik_Tot_abs_Q>
0

> <r_epik_Metal_State_Penalty>
0.238234

> <b_epik_Metal_Only>
0

> <s_lp_Force_Field>
OPLS_2005

> <r_lp_Energy>
25.978

> <b_lp_Chiralities_Consistent>
1

> <s_lp_Variant>
AV-unprocessed.smi:1824-3

> <Gold.Version>
5.8.1

> <Gold.Id.Protein>
6NUR|6NUR_protein|mol2

> <Gold.PLP.Fitness>
45.3220

> <Gold.PLP.PLP>
-39.4845

> <Gold.PLP.part.hbond>
-3.3940

> <Gold.PLP.part.metal>
0.0000

> <Gold.PLP.part.buried>
-4.0557

> <Gold.PLP.part.nonpolar>
-32.2356

> <Gold.PLP.part.repulsive>
0.1663

> <Gold.PLP.ligand.clash>
0.0000

> <Gold.PLP.ligand.torsion>
1.3461

> <Gold.PLP.Chemscore.Hbond>
2.8320

> <Gold.PLP.Chemscore.CHOScore>
0.0000

> <Gold.PLP.Chemscore.Metal>
0.0000

> <Gold.Chemscore.Hbonds>
donor molecule, donor type, donor heavy atom, donor atom, acceptor molecule, acceptor atom, score
      L1  H     7    33       P1  7957  0.88
      P1  H  7997  8008       L1    11  1.00
      P1  H  8011  8017       L1     7  0.90

> <Gold.PLP.Chemscore.Internal.Correction>
0.0336

> <Gold.Rescore>
     Score         DG    S(hbond)    S(metal)    S(lipo)     H(rot)  DE(clash)    DE(int)     intcor
     15.92     -17.48       2.27        0.00      87.23       2.26       0.17       1.39       ----

> <Gold.Chemscore.Fitness>
15.9198

> <Gold.Chemscore.DG>
-17.4798

> <Gold.Chemscore.ZeroCoef>
-5.4800

> <Gold.Chemscore.Hbond>
2.2707

> <Gold.Chemscore.Metal>
0.0000

> <Gold.Chemscore.Lipo>
87.2317

> <Gold.Chemscore.Internal_Hbond>
0.0000

> <Gold.Chemscore.DEClash>
0.1709

> <Gold.Chemscore.DEInternal>
1.3891

> <Gold.Chemscore.Rot>
2.2619

> <Gold.Chemscore.Internal.Correction>
   9.000000E+99

> <Gold.Chemscore.Hbonds>
donor molecule, donor type, donor heavy atom, donor atom, acceptor molecule, acceptor atom, score
      L1  H     7    33       P1  7957  0.82
      P1  H  7997  8008       L1    11  0.44
      P1  H  8011  8017       L1     7  0.17

> <Gold.Chemscore.Hbond.Weighted>
-7.5841

> <Gold.Chemscore.Metal.Weighted>
-0.0000

> <Gold.Chemscore.Lipo.Weighted>
-10.2061

> <Gold.Chemscore.Internal_Hbond.Weighted>
0.0000

> <Gold.Chemscore.DEClash.Weighted>
0.1709

> <Gold.Chemscore.DEInternal.Weighted>
1.3891

> <Gold.Chemscore.Rot.Weighted>
5.7904

> <Gold.Chemscore.Internal.Correction.Weighted>
   9.000000E+99

> <Gold.Protein.RotatedTorsions>
[ 6907 6896 6895 6894 ] final  -41.85 input  -60.11 | X-H torsion
[ 7974 7965 7964 7962 ] final  -60.13 input  175.53 | X-H torsion
[ 8008 7997 7996 7995 ] final  -64.64 input   59.86 | X-H torsion
[ 10167 10162 10161 10158 ] final   95.12 input  -65.29 | X-H torsion
[ 10718 10713 10712 10709 ] final  -60.67 input   66.30 | X-H torsion
[ 10763 10752 10751 10750 ] final  155.09 input  -60.55 | X-H torsion
[ 11005 11000 10999 10996 ] final -102.66 input  -57.11 | X-H torsion

> <Gold.Protein.ActiveResidues>
 VAL166  LYS551  ARG553  GLY616  TRP617  ASP618  TYR619  PRO620  LYS621  CYS622 
 ASP623  PHE694  ASN695  SER759  ASP760  ASP761  ALA762  ILE779  LEU786  VAL792 
 PHE793  MET794  SER795  GLU796  ALA797  LYS798  CYS799  TRP800  GLU811  SER814 

> <Gold.Protein.RotatedAtoms>
  150.9620  134.9007  159.7736 H   0  0  0  0  0  0  0  0  0  0  0  0  # atno 6907 bound_to 6896
  152.5159  134.3659  159.9311 H   0  0  0  0  0  0  0  0  0  0  0  0  # atno 6908 bound_to 6896
  151.3671  133.3827  159.2730 H   0  0  0  0  0  0  0  0  0  0  0  0  # atno 6909 bound_to 6896
  145.8192  140.8551  143.0141 H   0  0  0  0  0  0  0  0  0  0  0  0  # atno 7974 bound_to 7965
  154.4624  140.0949  156.6928 H   0  0  0  0  0  0  0  0  0  0  0  0  # atno 8008 bound_to 7997
  155.4957  140.3472  155.4344 H   0  0  0  0  0  0  0  0  0  0  0  0  # atno 8009 bound_to 7997
  156.0894  140.1393  156.9600 H   0  0  0  0  0  0  0  0  0  0  0  0  # atno 8010 bound_to 7997
  139.8019  144.6810  150.9754 H   0  0  0  0  0  0  0  0  0  0  0  0  # atno 10167 bound_to 10162
  156.0975  130.4191  150.0886 H   0  0  0  0  0  0  0  0  0  0  0  0  # atno 10718 bound_to 10713
  154.1627  135.2809  155.3104 H   0  0  0  0  0  0  0  0  0  0  0  0  # atno 10763 bound_to 10752
  154.6134  135.5491  153.7501 H   0  0  0  0  0  0  0  0  0  0  0  0  # atno 10764 bound_to 10752
  153.0187  135.6421  154.1769 H   0  0  0  0  0  0  0  0  0  0  0  0  # atno 10765 bound_to 10752
  141.1180  133.8576  157.1388 H   0  0  0  0  0  0  0  0  0  0  0  0  # atno 11005 bound_to 11000
  144.6749  140.0509  143.7479 LP  0  0  0  0  0  0  0  0  0  0  0  0  # atno 17320 bound_to 7965
  145.9693  139.2858  143.1108 LP  0  0  0  0  0  0  0  0  0  0  0  0  # atno 17321 bound_to 7965
  140.7820  143.4273  151.0749 LP  0  0  0  0  0  0  0  0  0  0  0  0  # atno 17342 bound_to 10162
  139.7944  143.8172  152.3156 LP  0  0  0  0  0  0  0  0  0  0  0  0  # atno 17343 bound_to 10162
  156.8881  130.9579  151.3591 LP  0  0  0  0  0  0  0  0  0  0  0  0  # atno 17370 bound_to 10713
  157.6138  130.8603  149.8996 LP  0  0  0  0  0  0  0  0  0  0  0  0  # atno 17371 bound_to 10713
  140.0115  134.9986  157.0405 LP  0  0  0  0  0  0  0  0  0  0  0  0  # atno 17394 bound_to 11000
  140.4591  134.1502  155.7189 LP  0  0  0  0  0  0  0  0  0  0  0  0  # atno 17395 bound_to 11000

$$$$
