AV-unprocessed.smi:2007|AV-procd|sdf|8139|dock1
  -GOLD-   2272010373D 1   1.00000     0.00000
 Structure written by MMmdl.
 36 37  0  0  0  0  0  0  0  0  3 V2000
  150.0402  135.7847  155.0244 C   0  0  0  0  0  0  0  0  0  0  0  0
  148.7390  135.4662  155.7727 C   0  0  2  0  0  0  0  0  0  0  0  0
  147.4956  135.8165  154.9236 C   0  0  0  0  0  0  0  0  0  0  0  0
  147.4136  135.0174  153.6751 N   0  3  0  0  0  0  0  0  0  0  0  0
  147.7349  133.5847  153.8646 C   0  0  0  0  0  0  0  0  0  0  0  0
  147.7352  132.8636  152.5056 C   0  0  0  0  0  0  0  0  0  0  0  0
  146.4738  133.0368  151.8696 O   0  0  0  0  0  0  0  0  0  0  0  0
  146.1854  134.4079  151.6192 C   0  0  0  0  0  0  0  0  0  0  0  0
  146.1288  135.1707  152.9526 C   0  0  0  0  0  0  0  0  0  0  0  0
  148.7190  136.1957  157.0422 N   0  0  0  0  0  0  0  0  0  0  0  0
  148.7459  135.6628  158.2733 C   0  0  0  0  0  0  0  0  0  0  0  0
  148.8677  134.4443  158.4170 O   0  0  0  0  0  0  0  0  0  0  0  0
  148.5974  136.5722  159.2610 N   0  5  0  0  0  0  0  0  0  0  0  0
  147.9873  136.2229  160.4050 C   0  0  0  0  0  0  0  0  0  0  0  0
  147.4880  137.1157  161.2682 N   0  0  0  0  0  0  0  0  0  0  0  0
  146.8990  136.5316  162.3913 C   0  0  0  0  0  0  0  0  0  0  0  0
  146.9574  135.1631  162.3855 C   0  0  0  0  0  0  0  0  0  0  0  0
  147.7576  134.5635  160.9607 S   0  0  0  0  0  0  0  0  0  0  0  0
  150.0965  135.2347  154.0847 H   0  0  0  0  0  0  0  0  0  0  0  0
  150.9119  135.5094  155.6192 H   0  0  0  0  0  0  0  0  0  0  0  0
  150.1173  136.8477  154.7933 H   0  0  0  0  0  0  0  0  0  0  0  0
  148.7427  134.3934  155.9696 H   0  0  0  0  0  0  0  0  0  0  0  0
  146.6093  135.6185  155.5285 H   0  0  0  0  0  0  0  0  0  0  0  0
  147.4701  136.8813  154.6878 H   0  0  0  0  0  0  0  0  0  0  0  0
  148.7155  133.4824  154.3310 H   0  0  0  0  0  0  0  0  0  0  0  0
  147.0064  133.1290  154.5370 H   0  0  0  0  0  0  0  0  0  0  0  0
  148.5332  133.2426  151.8648 H   0  0  0  0  0  0  0  0  0  0  0  0
  147.9177  131.7981  152.6455 H   0  0  0  0  0  0  0  0  0  0  0  0
  146.9386  134.8376  150.9564 H   0  0  0  0  0  0  0  0  0  0  0  0
  145.2278  134.4797  151.1034 H   0  0  0  0  0  0  0  0  0  0  0  0
  145.3116  134.7916  153.5681 H   0  0  0  0  0  0  0  0  0  0  0  0
  145.9226  136.2236  152.7626 H   0  0  0  0  0  0  0  0  0  0  0  0
  148.6330  137.2002  156.9833 H   0  0  0  0  0  0  0  0  0  0  0  0
  146.4628  137.1672  163.1475 H   0  0  0  0  0  0  0  0  0  0  0  0
  146.5822  134.4747  163.1277 H   0  0  0  0  0  0  0  0  0  0  0  0
  148.1341  135.3846  153.0680 H   0  0  0  0  0  0  0  0  0  0  0  0
  1  2  1  0  0  0  0
  1 19  1  0  0  0  0
  1 20  1  0  0  0  0
  1 21  1  0  0  0  0
  2  3  1  0  0  0  0
  2 10  1  0  0  0  0
  2 22  1  0  0  0  0
  3  4  1  0  0  0  0
  3 23  1  0  0  0  0
  3 24  1  0  0  0  0
  4  9  1  0  0  0  0
  4  5  1  0  0  0  0
  4 36  1  0  0  0  0
  5  6  1  0  0  0  0
  5 25  1  0  0  0  0
  5 26  1  0  0  0  0
  6  7  1  0  0  0  0
  6 27  1  0  0  0  0
  6 28  1  0  0  0  0
  7  8  1  0  0  0  0
  8  9  1  0  0  0  0
  8 29  1  0  0  0  0
  8 30  1  0  0  0  0
  9 31  1  0  0  0  0
  9 32  1  0  0  0  0
 10 11  1  0  0  0  0
 10 33  1  0  0  0  0
 11 12  2  0  0  0  0
 11 13  1  0  0  0  0
 13 14  1  0  0  0  0
 14 18  1  0  0  0  0
 14 15  2  0  0  0  0
 15 16  1  0  0  0  0
 16 17  2  0  0  0  0
 16 34  1  0  0  0  0
 17 18  1  0  0  0  0
 17 35  1  0  0  0  0
M  CHG  1   4   1
M  CHG  1  13  -1
M  END
> <s_m_source_file>
AV-unprocessed.smi

> <i_m_source_file_index>
2007

> <i_lp_mmshare_version>
43012

> <i_f3d_flags>
0

> <s_epik_input>
W0NIMl0xW0NIMl1PW0NIMl1bQ0gyXU4xW0NIMl1bQ0BASF0oW0NIM10pW05IXUMoPU8pW05IXWMybltjSF1bY0hdczI=

> <s_epik_cmdline>
J2VwaWtfcHl0aG9uJywgJy1waCcsICc3LjAnLCAnLXRuJywgJzgnLCAnLW1hJywgJzIwMCcsICctbWV0YWxfYmluZGluZycsICctaW1hZScsICc8aW5maWxlLm1hZT4nLCAnLW9tYWUnLCAnPG91dGZpbGUubWFlPic=

> <r_lp_tautomer_probability>
0.999

> <r_epik_Ionization_Penalty>
6.49226

> <r_epik_Ionization_Penalty_Charging>
5.74393

> <r_epik_Ionization_Penalty_Neutral>
0.748321

> <r_epik_State_Penalty>
5.94164

> <r_epik_Charging_Adjusted_Penalty>
11.6856

> <i_epik_Tot_Q>
0

> <i_epik_Tot_abs_Q>
2

> <r_epik_Metal_State_Penalty>
1.97606

> <b_epik_Metal_Only>
1

> <s_lp_Force_Field>
OPLS_2005

> <r_lp_Energy>
10.1627

> <b_lp_Chiralities_Consistent>
1

> <s_lp_Variant>
AV-unprocessed.smi:2007-7

> <Gold.Version>
5.8.1

> <Gold.Id.Protein>
6NUR|6NUR_protein|mol2

> <Gold.PLP.Fitness>
41.4357

> <Gold.PLP.PLP>
-27.5557

> <Gold.PLP.part.hbond>
-4.0000

> <Gold.PLP.part.metal>
0.0000

> <Gold.PLP.part.buried>
-2.8921

> <Gold.PLP.part.nonpolar>
-19.6696

> <Gold.PLP.part.repulsive>
0.1647

> <Gold.PLP.ligand.clash>
0.0000

> <Gold.PLP.ligand.torsion>
0.3897

> <Gold.PLP.Chemscore.Hbond>
4.8400

> <Gold.PLP.Chemscore.CHOScore>
0.0000

> <Gold.PLP.Chemscore.Metal>
0.0000

> <Gold.Chemscore.Hbonds>
donor molecule, donor type, donor heavy atom, donor atom, acceptor molecule, acceptor atom, score
      L1  H     4    36       P1  7948  2.00
      P1  H  6896  6909       L1    12  0.91
      P1  H  6931  6943       L1    15  0.94
      P1  H  6934  6947       L1    15  0.94

> <Gold.PLP.Chemscore.Internal.Correction>
0.1394

> <Gold.Rescore>
     Score         DG    S(hbond)    S(metal)    S(lipo)     H(rot)  DE(clash)    DE(int)     intcor
     16.32     -18.15       3.21        0.00      51.74       1.60       0.00       1.83       ----

> <Gold.Chemscore.Fitness>
16.3217

> <Gold.Chemscore.DG>
-18.1548

> <Gold.Chemscore.ZeroCoef>
-5.4800

> <Gold.Chemscore.Hbond>
3.2081

> <Gold.Chemscore.Metal>
0.0000

> <Gold.Chemscore.Lipo>
51.7379

> <Gold.Chemscore.Internal_Hbond>
0.0000

> <Gold.Chemscore.DEClash>
0.0000

> <Gold.Chemscore.DEInternal>
1.8330

> <Gold.Chemscore.Rot>
1.5991

> <Gold.Chemscore.Internal.Correction>
   9.000000E+99

> <Gold.Chemscore.Hbonds>
donor molecule, donor type, donor heavy atom, donor atom, acceptor molecule, acceptor atom, score
      L1  H     4    36       P1  7948  1.00
      P1  H  6896  6909       L1    12  0.65
      P1  H  6931  6943       L1    15  0.34
      P1  H  6934  6947       L1    15  0.86

> <Gold.Chemscore.Hbond.Weighted>
-10.7150

> <Gold.Chemscore.Metal.Weighted>
-0.0000

> <Gold.Chemscore.Lipo.Weighted>
-6.0533

> <Gold.Chemscore.Internal_Hbond.Weighted>
0.0000

> <Gold.Chemscore.DEClash.Weighted>
0.0000

> <Gold.Chemscore.DEInternal.Weighted>
1.8330

> <Gold.Chemscore.Rot.Weighted>
4.0936

> <Gold.Chemscore.Internal.Correction.Weighted>
   9.000000E+99

> <Gold.Protein.RotatedTorsions>
[ 6907 6896 6895 6894 ] final   14.57 input  -60.11 | X-H torsion
[ 7974 7965 7964 7962 ] final  161.19 input  175.53 | X-H torsion
[ 8008 7997 7996 7995 ] final -108.99 input   59.86 | X-H torsion
[ 10167 10162 10161 10158 ] final -160.94 input  -65.29 | X-H torsion
[ 10718 10713 10712 10709 ] final  108.94 input   66.30 | X-H torsion
[ 10763 10752 10751 10750 ] final  145.27 input  -60.55 | X-H torsion
[ 11005 11000 10999 10996 ] final  128.86 input  -57.11 | X-H torsion

> <Gold.Protein.ActiveResidues>
 VAL166  LYS551  ARG553  GLY616  TRP617  ASP618  TYR619  PRO620  LYS621  CYS622 
 ASP623  PHE694  ASN695  SER759  ASP760  ASP761  ALA762  ILE779  LEU786  VAL792 
 PHE793  MET794  SER795  GLU796  ALA797  LYS798  CYS799  TRP800  GLU811  SER814 

> <Gold.Protein.RotatedAtoms>
  151.8044  135.0699  160.0404 H   0  0  0  0  0  0  0  0  0  0  0  0  # atno 6907 bound_to 6896
  152.3066  133.5705  159.5661 H   0  0  0  0  0  0  0  0  0  0  0  0  # atno 6908 bound_to 6896
  150.7299  134.0130  159.3718 H   0  0  0  0  0  0  0  0  0  0  0  0  # atno 6909 bound_to 6896
  144.7698  139.7862  143.6301 H   0  0  0  0  0  0  0  0  0  0  0  0  # atno 7974 bound_to 7965
  154.9526  140.0400  157.2151 H   0  0  0  0  0  0  0  0  0  0  0  0  # atno 8008 bound_to 7997
  154.7964  140.2844  155.5931 H   0  0  0  0  0  0  0  0  0  0  0  0  # atno 8009 bound_to 7997
  156.2956  140.2563  156.2823 H   0  0  0  0  0  0  0  0  0  0  0  0  # atno 8010 bound_to 7997
  139.6501  144.0099  152.2156 H   0  0  0  0  0  0  0  0  0  0  0  0  # atno 10167 bound_to 10162
  157.6564  131.0904  150.6380 H   0  0  0  0  0  0  0  0  0  0  0  0  # atno 10718 bound_to 10713
  154.0025  135.2922  155.3401 H   0  0  0  0  0  0  0  0  0  0  0  0  # atno 10763 bound_to 10752
  154.7151  135.5133  153.8728 H   0  0  0  0  0  0  0  0  0  0  0  0  # atno 10764 bound_to 10752
  153.0759  135.6663  154.0266 H   0  0  0  0  0  0  0  0  0  0  0  0  # atno 10765 bound_to 10752
  139.9583  134.9608  156.9063 H   0  0  0  0  0  0  0  0  0  0  0  0  # atno 11005 bound_to 11000
  146.1836  139.5040  142.9850 LP  0  0  0  0  0  0  0  0  0  0  0  0  # atno 17320 bound_to 7965
  145.6357  141.0295  143.1839 LP  0  0  0  0  0  0  0  0  0  0  0  0  # atno 17321 bound_to 7965
  139.9811  144.6428  150.7900 LP  0  0  0  0  0  0  0  0  0  0  0  0  # atno 17342 bound_to 10162
  140.7534  143.3007  151.3088 LP  0  0  0  0  0  0  0  0  0  0  0  0  # atno 17343 bound_to 10162
  156.6687  130.4533  149.5664 LP  0  0  0  0  0  0  0  0  0  0  0  0  # atno 17370 bound_to 10713
  156.2014  130.6622  151.1171 LP  0  0  0  0  0  0  0  0  0  0  0  0  # atno 17371 bound_to 10713
  140.5557  134.0583  155.7383 LP  0  0  0  0  0  0  0  0  0  0  0  0  # atno 17394 bound_to 11000
  141.1258  133.9386  157.2639 LP  0  0  0  0  0  0  0  0  0  0  0  0  # atno 17395 bound_to 11000

$$$$
