AV-unprocessed.smi:828|AV-procd|sdf|3865|dock9
  -GOLD-   22720 1313D 1   1.00000     0.00000
 Structure written by MMmdl.
 34 35  0  0  0  0  0  0  0  0  3 V2000
  149.9784  135.4043  155.0870 C   0  0  0  0  0  0  0  0  0  0  0  0
  150.4189  136.8246  154.9903 C   0  0  0  0  0  0  0  0  0  0  0  0
  151.6999  137.1747  154.8517 N   0  0  0  0  0  0  0  0  0  0  0  0
  151.8616  138.5508  154.7852 N   0  0  0  0  0  0  0  0  0  0  0  0
  150.7050  139.2214  154.8840 C   0  0  0  0  0  0  0  0  0  0  0  0
  150.6445  140.5626  154.8393 N   0  5  0  0  0  0  0  0  0  0  0  0
  149.7336  141.2226  155.5885 C   0  0  0  0  0  0  0  0  0  0  0  0
  148.5704  141.4774  155.2689 O   0  0  0  0  0  0  0  0  0  0  0  0
  150.2053  141.6200  156.7787 N   0  0  0  0  0  0  0  0  0  0  0  0
  149.4704  142.3689  157.7933 C   0  0  0  0  0  0  0  0  0  0  0  0
  150.4144  143.1835  158.6993 C   0  0  1  0  0  0  0  0  0  0  0  0
  151.8175  143.4005  158.1219 C   0  0  0  0  0  0  0  0  0  0  0  0
  152.3021  144.6403  158.8588 C   0  0  0  0  0  0  0  0  0  0  0  0
  151.0346  145.4850  159.0019 C   0  0  0  0  0  0  0  0  0  0  0  0
  149.8878  144.5464  158.9507 N   0  3  2  0  0  0  0  0  0  0  0  0
  148.9844  144.6429  160.1182 C   0  0  0  0  0  0  0  0  0  0  0  0
  149.2968  138.1732  155.0519 S   0  0  0  0  0  0  0  0  0  0  0  0
  150.2651  134.9898  156.0536 H   0  0  0  0  0  0  0  0  0  0  0  0
  150.4426  134.8123  154.2980 H   0  0  0  0  0  0  0  0  0  0  0  0
  148.8955  135.3350  154.9833 H   0  0  0  0  0  0  0  0  0  0  0  0
  151.1623  141.3812  156.9940 H   0  0  0  0  0  0  0  0  0  0  0  0
  148.7208  143.0176  157.3364 H   0  0  0  0  0  0  0  0  0  0  0  0
  148.9174  141.6445  158.3911 H   0  0  0  0  0  0  0  0  0  0  0  0
  150.5253  142.6733  159.6584 H   0  0  0  0  0  0  0  0  0  0  0  0
  152.4735  142.5409  158.2636 H   0  0  0  0  0  0  0  0  0  0  0  0
  151.7628  143.6098  157.0525 H   0  0  0  0  0  0  0  0  0  0  0  0
  152.6739  144.3584  159.8448 H   0  0  0  0  0  0  0  0  0  0  0  0
  153.1027  145.1616  158.3333 H   0  0  0  0  0  0  0  0  0  0  0  0
  151.0553  146.0823  159.9147 H   0  0  0  0  0  0  0  0  0  0  0  0
  150.9434  146.1739  158.1616 H   0  0  0  0  0  0  0  0  0  0  0  0
  149.5089  144.3968  161.0424 H   0  0  0  0  0  0  0  0  0  0  0  0
  148.1406  143.9611  160.0112 H   0  0  0  0  0  0  0  0  0  0  0  0
  148.5869  145.6542  160.2087 H   0  0  0  0  0  0  0  0  0  0  0  0
  149.3526  144.8026  158.1333 H   0  0  0  0  0  0  0  0  0  0  0  0
  1  2  1  0  0  0  0
  1 18  1  0  0  0  0
  1 19  1  0  0  0  0
  1 20  1  0  0  0  0
  2 17  1  0  0  0  0
  2  3  2  0  0  0  0
  3  4  1  0  0  0  0
  4  5  2  0  0  0  0
  5  6  1  0  0  0  0
  5 17  1  0  0  0  0
  6  7  1  0  0  0  0
  7  8  2  0  0  0  0
  7  9  1  0  0  0  0
  9 10  1  0  0  0  0
  9 21  1  0  0  0  0
 10 11  1  0  0  0  0
 10 22  1  0  0  0  0
 10 23  1  0  0  0  0
 11 15  1  0  0  0  0
 11 12  1  0  0  0  0
 11 24  1  0  0  0  0
 12 13  1  0  0  0  0
 12 25  1  0  0  0  0
 12 26  1  0  0  0  0
 13 14  1  0  0  0  0
 13 27  1  0  0  0  0
 13 28  1  0  0  0  0
 14 15  1  0  0  0  0
 14 29  1  0  0  0  0
 14 30  1  0  0  0  0
 15 16  1  0  0  0  0
 15 34  1  0  0  0  0
 16 31  1  0  0  0  0
 16 32  1  0  0  0  0
 16 33  1  0  0  0  0
M  CHG  1   6  -1
M  CHG  1  15   1
M  END
> <s_m_source_file>
AV-unprocessed.smi

> <i_m_source_file_index>
828

> <i_lp_mmshare_version>
43012

> <i_f3d_flags>
0

> <s_epik_input>
W0NIM11jMW5uYyhzMSlbTkhdQyg9TylbTkhdW0NIMl1bQ0BASF0yW0NIMl1bQ0gyXVtDSDJdTjJbQ0gzXQ==

> <s_epik_cmdline>
J2VwaWtfcHl0aG9uJywgJy1waCcsICc3LjAnLCAnLXRuJywgJzgnLCAnLW1hJywgJzIwMCcsICctbWV0YWxfYmluZGluZycsICctaW1hZScsICc8aW5maWxlLm1hZT4nLCAnLW9tYWUnLCAnPG91dGZpbGUubWFlPic=

> <r_lp_tautomer_probability>
1

> <r_epik_Ionization_Penalty>
3.94379

> <r_epik_Ionization_Penalty_Charging>
3.83377

> <r_epik_Ionization_Penalty_Neutral>
0.110023

> <r_epik_State_Penalty>
3.83036

> <r_epik_Charging_Adjusted_Penalty>
7.66413

> <i_epik_Tot_Q>
0

> <i_epik_Tot_abs_Q>
2

> <r_epik_Metal_State_Penalty>
0.575095

> <b_epik_Metal_Only>
1

> <s_lp_Force_Field>
OPLS_2005

> <r_lp_Energy>
18.3481

> <b_lp_Chiralities_Consistent>
1

> <s_lp_Variant>
AV-unprocessed.smi:828-8

> <Gold.Version>
5.8.1

> <Gold.Id.Protein>
6NUR|6NUR_protein|mol2

> <Gold.PLP.Fitness>
37.5885

> <Gold.PLP.PLP>
-29.2011

> <Gold.PLP.part.hbond>
-3.0000

> <Gold.PLP.part.metal>
0.0000

> <Gold.PLP.part.buried>
-4.6536

> <Gold.PLP.part.nonpolar>
-22.7789

> <Gold.PLP.part.repulsive>
0.6055

> <Gold.PLP.ligand.clash>
0.0000

> <Gold.PLP.ligand.torsion>
1.7839

> <Gold.PLP.Chemscore.Hbond>
3.9840

> <Gold.PLP.Chemscore.CHOScore>
0.0000

> <Gold.PLP.Chemscore.Metal>
0.0000

> <Gold.Chemscore.Hbonds>
donor molecule, donor type, donor heavy atom, donor atom, acceptor molecule, acceptor atom, score
      L1  H    15    34       P1  8029  1.88
      P1  H  7989  7998       L1     6  0.99
      P1  H 10752 10764       L1     3  1.00

> <Gold.PLP.Chemscore.Internal.Correction>
0.0033

> <Gold.Rescore>
     Score         DG    S(hbond)    S(metal)    S(lipo)     H(rot)  DE(clash)    DE(int)     intcor
     14.86     -16.63       1.94        0.00      68.68       1.31       0.09       1.67       ----

> <Gold.Chemscore.Fitness>
14.8647

> <Gold.Chemscore.DG>
-16.6252

> <Gold.Chemscore.ZeroCoef>
-5.4800

> <Gold.Chemscore.Hbond>
1.9389

> <Gold.Chemscore.Metal>
0.0000

> <Gold.Chemscore.Lipo>
68.6785

> <Gold.Chemscore.Internal_Hbond>
0.0000

> <Gold.Chemscore.DEClash>
0.0922

> <Gold.Chemscore.DEInternal>
1.6683

> <Gold.Chemscore.Rot>
1.3149

> <Gold.Chemscore.Internal.Correction>
   9.000000E+99

> <Gold.Chemscore.Hbonds>
donor molecule, donor type, donor heavy atom, donor atom, acceptor molecule, acceptor atom, score
      L1  H    15    34       P1  8029  0.19
      P1  H  7989  7998       L1     6  0.28
      P1  H 10752 10764       L1     3  0.79

> <Gold.Chemscore.Hbond.Weighted>
-6.4760

> <Gold.Chemscore.Metal.Weighted>
-0.0000

> <Gold.Chemscore.Lipo.Weighted>
-8.0354

> <Gold.Chemscore.Internal_Hbond.Weighted>
0.0000

> <Gold.Chemscore.DEClash.Weighted>
0.0922

> <Gold.Chemscore.DEInternal.Weighted>
1.6683

> <Gold.Chemscore.Rot.Weighted>
3.3662

> <Gold.Chemscore.Internal.Correction.Weighted>
   9.000000E+99

> <Gold.Protein.RotatedTorsions>
[ 6907 6896 6895 6894 ] final  119.06 input  -60.11 | X-H torsion
[ 7974 7965 7964 7962 ] final  128.27 input  175.53 | X-H torsion
[ 8008 7997 7996 7995 ] final   97.76 input   59.86 | X-H torsion
[ 10167 10162 10161 10158 ] final -129.72 input  -65.29 | X-H torsion
[ 10718 10713 10712 10709 ] final  164.04 input   66.30 | X-H torsion
[ 10763 10752 10751 10750 ] final  -57.03 input  -60.55 | X-H torsion
[ 11005 11000 10999 10996 ] final  -16.59 input  -57.11 | X-H torsion

> <Gold.Protein.ActiveResidues>
 VAL166  LYS551  ARG553  GLY616  TRP617  ASP618  TYR619  PRO620  LYS621  CYS622 
 ASP623  PHE694  ASN695  SER759  ASP760  ASP761  ALA762  ILE779  LEU786  VAL792 
 PHE793  MET794  SER795  GLU796  ALA797  LYS798  CYS799  TRP800  GLU811  SER814 

> <Gold.Protein.RotatedAtoms>
  152.4499  133.7608  159.6745 H   0  0  0  0  0  0  0  0  0  0  0  0  # atno 6907 bound_to 6896
  150.8408  133.7929  159.3068 H   0  0  0  0  0  0  0  0  0  0  0  0  # atno 6908 bound_to 6896
  151.5555  135.1069  160.0012 H   0  0  0  0  0  0  0  0  0  0  0  0  # atno 6909 bound_to 6896
  145.0414  139.3960  143.5100 H   0  0  0  0  0  0  0  0  0  0  0  0  # atno 7974 bound_to 7965
  156.0935  140.3253  155.7847 H   0  0  0  0  0  0  0  0  0  0  0  0  # atno 8008 bound_to 7997
  155.4957  140.0565  157.2964 H   0  0  0  0  0  0  0  0  0  0  0  0  # atno 8009 bound_to 7997
  154.4652  140.1986  156.0153 H   0  0  0  0  0  0  0  0  0  0  0  0  # atno 8010 bound_to 7997
  139.9368  143.6209  152.2515 H   0  0  0  0  0  0  0  0  0  0  0  0  # atno 10167 bound_to 10162
  157.0999  131.0440  151.2502 H   0  0  0  0  0  0  0  0  0  0  0  0  # atno 10718 bound_to 10713
  154.2159  135.6386  153.5129 H   0  0  0  0  0  0  0  0  0  0  0  0  # atno 10763 bound_to 10752
  152.9979  135.5485  154.6165 H   0  0  0  0  0  0  0  0  0  0  0  0  # atno 10764 bound_to 10752
  154.5613  135.2909  155.0890 H   0  0  0  0  0  0  0  0  0  0  0  0  # atno 10765 bound_to 10752
  140.8083  133.8160  155.9538 H   0  0  0  0  0  0  0  0  0  0  0  0  # atno 11005 bound_to 11000
  146.3509  140.0017  142.8675 LP  0  0  0  0  0  0  0  0  0  0  0  0  # atno 17320 bound_to 7965
  145.1643  140.9688  143.4359 LP  0  0  0  0  0  0  0  0  0  0  0  0  # atno 17321 bound_to 7965
  139.6737  144.7659  151.1736 LP  0  0  0  0  0  0  0  0  0  0  0  0  # atno 17342 bound_to 10162
  140.7622  143.5827  150.8878 LP  0  0  0  0  0  0  0  0  0  0  0  0  # atno 17343 bound_to 10162
  157.4649  130.7675  149.7270 LP  0  0  0  0  0  0  0  0  0  0  0  0  # atno 17370 bound_to 10713
  155.9876  130.3965  150.3157 LP  0  0  0  0  0  0  0  0  0  0  0  0  # atno 17371 bound_to 10713
  140.9224  134.2125  157.4918 LP  0  0  0  0  0  0  0  0  0  0  0  0  # atno 17394 bound_to 11000
  139.8716  134.9798  156.5050 LP  0  0  0  0  0  0  0  0  0  0  0  0  # atno 17395 bound_to 11000

$$$$
