AV-unprocessed.smi:2822|AV-procd|sdf|10875|dock6
  -GOLD-   2272015313D 1   1.00000     0.00000
 Structure written by MMmdl.
 40 42  0  0  0  0  0  0  0  0  2 V2000
  147.8980  132.9629  152.6428 Cl  0  0  0  0  0  0  0  0  0  0  0  0
  146.4366  133.1743  151.7424 C   0  0  0  0  0  0  0  0  0  0  0  0
  146.0682  132.2193  150.7730 C   0  0  0  0  0  0  0  0  0  0  0  0
  144.9456  132.3091  150.0296 N   0  0  0  0  0  0  0  0  0  0  0  0
  144.1410  133.3726  150.2330 C   0  0  0  0  0  0  0  0  0  0  0  0
  144.4145  134.3841  151.1756 C   0  0  0  0  0  0  0  0  0  0  0  0
  145.5920  134.2885  151.9542 C   0  0  0  0  0  0  0  0  0  0  0  0
  145.9450  135.2502  152.9132 N   0  0  0  0  0  0  0  0  0  0  0  0
  144.9325  136.0630  153.5693 C   0  0  0  0  0  0  0  0  0  0  0  0
  145.1925  137.5612  153.3590 C   0  0  1  0  0  0  0  0  0  0  0  0
  145.0300  138.3586  154.6661 C   0  0  0  0  0  0  0  0  0  0  0  0
  145.3527  139.7879  154.4480 N   0  3  1  0  0  0  0  0  0  0  0  0
  145.1699  140.6043  155.6748 C   0  0  0  0  0  0  0  0  0  0  0  0
  145.4205  142.0941  155.3904 C   0  0  0  0  0  0  0  0  0  0  0  0
  146.8148  142.3083  154.7873 C   0  0  0  0  0  0  0  0  0  0  0  0
  146.9877  141.4328  153.5388 C   0  0  0  0  0  0  0  0  0  0  0  0
  146.7070  139.9496  153.8524 C   0  0  2  0  0  0  0  0  0  0  0  0
  146.8343  139.0762  152.5891 C   0  0  0  0  0  0  0  0  0  0  0  0
  146.5316  137.7230  152.9034 O   0  0  0  0  0  0  0  0  0  0  0  0
  146.6932  131.3577  150.5891 H   0  0  0  0  0  0  0  0  0  0  0  0
  143.2501  133.4204  149.6245 H   0  0  0  0  0  0  0  0  0  0  0  0
  143.7232  135.2063  151.2812 H   0  0  0  0  0  0  0  0  0  0  0  0
  146.8756  135.2270  153.3061 H   0  0  0  0  0  0  0  0  0  0  0  0
  143.9588  135.8033  153.1526 H   0  0  0  0  0  0  0  0  0  0  0  0
  144.9039  135.8303  154.6346 H   0  0  0  0  0  0  0  0  0  0  0  0
  144.4962  137.9446  152.6101 H   0  0  0  0  0  0  0  0  0  0  0  0
  144.0057  138.2692  155.0306 H   0  0  0  0  0  0  0  0  0  0  0  0
  145.6824  137.9505  155.4401 H   0  0  0  0  0  0  0  0  0  0  0  0
  144.1561  140.4714  156.0547 H   0  0  0  0  0  0  0  0  0  0  0  0
  145.8493  140.2527  156.4528 H   0  0  0  0  0  0  0  0  0  0  0  0
  144.6614  142.4701  154.7033 H   0  0  0  0  0  0  0  0  0  0  0  0
  145.3198  142.6718  156.3098 H   0  0  0  0  0  0  0  0  0  0  0  0
  146.9595  143.3591  154.5340 H   0  0  0  0  0  0  0  0  0  0  0  0
  147.5787  142.0563  155.5241 H   0  0  0  0  0  0  0  0  0  0  0  0
  146.3118  141.7801  152.7557 H   0  0  0  0  0  0  0  0  0  0  0  0
  147.9990  141.5480  153.1470 H   0  0  0  0  0  0  0  0  0  0  0  0
  147.4402  139.6029  154.5830 H   0  0  0  0  0  0  0  0  0  0  0  0
  146.1749  139.4310  151.7951 H   0  0  0  0  0  0  0  0  0  0  0  0
  147.8519  139.1233  152.2003 H   0  0  0  0  0  0  0  0  0  0  0  0
  144.6925  140.1349  153.7667 H   0  0  0  0  0  0  0  0  0  0  0  0
  1  2  1  0  0  0  0
  2  7  1  0  0  0  0
  2  3  2  0  0  0  0
  3  4  1  0  0  0  0
  3 20  1  0  0  0  0
  4  5  2  0  0  0  0
  5  6  1  0  0  0  0
  5 21  1  0  0  0  0
  6  7  2  0  0  0  0
  6 22  1  0  0  0  0
  7  8  1  0  0  0  0
  8  9  1  0  0  0  0
  8 23  1  0  0  0  0
  9 10  1  0  0  0  0
  9 24  1  0  0  0  0
  9 25  1  0  0  0  0
 10 19  1  0  0  0  0
 10 11  1  0  0  0  0
 10 26  1  0  0  0  0
 11 12  1  0  0  0  0
 11 27  1  0  0  0  0
 11 28  1  0  0  0  0
 12 17  1  0  0  0  0
 12 13  1  0  0  0  0
 12 40  1  0  0  0  0
 13 14  1  0  0  0  0
 13 29  1  0  0  0  0
 13 30  1  0  0  0  0
 14 15  1  0  0  0  0
 14 31  1  0  0  0  0
 14 32  1  0  0  0  0
 15 16  1  0  0  0  0
 15 33  1  0  0  0  0
 15 34  1  0  0  0  0
 16 17  1  0  0  0  0
 16 35  1  0  0  0  0
 16 36  1  0  0  0  0
 17 18  1  0  0  0  0
 17 37  1  0  0  0  0
 18 19  1  0  0  0  0
 18 38  1  0  0  0  0
 18 39  1  0  0  0  0
M  CHG  1  12   1
M  END
> <s_m_source_file>
AV-unprocessed.smi

> <i_m_source_file_index>
2822

> <i_lp_mmshare_version>
43012

> <i_f3d_flags>
0

> <s_epik_input>
Q2xjMVtjSF1uW2NIXVtjSF1jMVtOSF1bQ0gyXVtDQEhdKFtDSDJdMilPW0NIMl1bQ0BASF0oTjIzKVtDSDJdW0NIMl1bQ0gyXVtDSDJdMw==

> <s_epik_cmdline>
J2VwaWtfcHl0aG9uJywgJy1waCcsICc3LjAnLCAnLXRuJywgJzgnLCAnLW1hJywgJzIwMCcsICctbWV0YWxfYmluZGluZycsICctaW1hZScsICc8aW5maWxlLm1hZT4nLCAnLW9tYWUnLCAnPG91dGZpbGUubWFlPic=

> <r_lp_tautomer_probability>
0.999999

> <r_epik_Ionization_Penalty>
0.88937

> <r_epik_Ionization_Penalty_Charging>
0.0803403

> <r_epik_Ionization_Penalty_Neutral>
0.80903

> <r_epik_State_Penalty>
0.931884

> <r_epik_Charging_Adjusted_Penalty>
1.01222

> <i_epik_Tot_Q>
1

> <i_epik_Tot_abs_Q>
1

> <r_epik_Metal_State_Penalty>
0.0782275

> <b_epik_Metal_Only>
0

> <s_lp_Force_Field>
OPLS_2005

> <r_lp_Energy>
28.742

> <b_lp_Chiralities_Consistent>
1

> <s_lp_Variant>
AV-unprocessed.smi:2822-16

> <Gold.Version>
5.8.1

> <Gold.Id.Protein>
6NUR|6NUR_protein|mol2

> <Gold.PLP.Fitness>
39.0232

> <Gold.PLP.PLP>
-28.5942

> <Gold.PLP.part.hbond>
-1.0474

> <Gold.PLP.part.metal>
0.0000

> <Gold.PLP.part.buried>
-5.3826

> <Gold.PLP.part.nonpolar>
-23.9998

> <Gold.PLP.part.repulsive>
1.1064

> <Gold.PLP.ligand.clash>
0.0000

> <Gold.PLP.ligand.torsion>
0.7856

> <Gold.PLP.Chemscore.Hbond>
2.0000

> <Gold.PLP.Chemscore.CHOScore>
2.0000

> <Gold.PLP.Chemscore.Metal>
0.0000

> <Gold.Chemscore.Hbonds>
donor molecule, donor type, donor heavy atom, donor atom, acceptor molecule, acceptor atom, score
      L1  H    12    40       P1 10175  2.00
      L1  C     3    20       P1 10747  1.00
      L1  C     5    21       P1 10186  1.00

> <Gold.PLP.Chemscore.Internal.Correction>
0.0003

> <Gold.Rescore>
     Score         DG    S(hbond)    S(metal)    S(lipo)     H(rot)  DE(clash)    DE(int)     intcor
     14.04     -15.31       0.99        0.00      81.33       1.17       0.47       0.80       ----

> <Gold.Chemscore.Fitness>
14.0381

> <Gold.Chemscore.DG>
-15.3068

> <Gold.Chemscore.ZeroCoef>
-5.4800

> <Gold.Chemscore.Hbond>
0.9893

> <Gold.Chemscore.Metal>
0.0000

> <Gold.Chemscore.Lipo>
81.3318

> <Gold.Chemscore.Internal_Hbond>
0.0000

> <Gold.Chemscore.DEClash>
0.4704

> <Gold.Chemscore.DEInternal>
0.7983

> <Gold.Chemscore.Rot>
1.1693

> <Gold.Chemscore.Internal.Correction>
   9.000000E+99

> <Gold.Chemscore.Hbonds>
donor molecule, donor type, donor heavy atom, donor atom, acceptor molecule, acceptor atom, score
      L1  H    12    40       P1 10175  1.00

> <Gold.Chemscore.Hbond.Weighted>
-3.3044

> <Gold.Chemscore.Metal.Weighted>
-0.0000

> <Gold.Chemscore.Lipo.Weighted>
-9.5158

> <Gold.Chemscore.Internal_Hbond.Weighted>
0.0000

> <Gold.Chemscore.DEClash.Weighted>
0.4704

> <Gold.Chemscore.DEInternal.Weighted>
0.7983

> <Gold.Chemscore.Rot.Weighted>
2.9934

> <Gold.Chemscore.Internal.Correction.Weighted>
   9.000000E+99

> <Gold.Protein.RotatedTorsions>
[ 6907 6896 6895 6894 ] final -169.30 input  -60.11 | X-H torsion
[ 7974 7965 7964 7962 ] final  -68.80 input  175.53 | X-H torsion
[ 8008 7997 7996 7995 ] final -159.42 input   59.86 | X-H torsion
[ 10167 10162 10161 10158 ] final -131.42 input  -65.29 | X-H torsion
[ 10718 10713 10712 10709 ] final  135.58 input   66.30 | X-H torsion
[ 10763 10752 10751 10750 ] final  153.40 input  -60.55 | X-H torsion
[ 11005 11000 10999 10996 ] final  139.09 input  -57.11 | X-H torsion

> <Gold.Protein.ActiveResidues>
 VAL166  LYS551  ARG553  GLY616  TRP617  ASP618  TYR619  PRO620  LYS621  CYS622 
 ASP623  PHE694  ASN695  SER759  ASP760  ASP761  ALA762  ILE779  LEU786  VAL792 
 PHE793  MET794  SER795  GLU796  ALA797  LYS798  CYS799  TRP800  GLU811  SER814 

> <Gold.Protein.RotatedAtoms>
  151.4893  133.3528  159.2850 H   0  0  0  0  0  0  0  0  0  0  0  0  # atno 6907 bound_to 6896
  150.8845  134.8243  159.7260 H   0  0  0  0  0  0  0  0  0  0  0  0  # atno 6908 bound_to 6896
  152.4784  134.4795  159.9713 H   0  0  0  0  0  0  0  0  0  0  0  0  # atno 6909 bound_to 6896
  145.7119  140.9075  143.0676 H   0  0  0  0  0  0  0  0  0  0  0  0  # atno 7974 bound_to 7965
  155.7623  140.0841  157.2149 H   0  0  0  0  0  0  0  0  0  0  0  0  # atno 8008 bound_to 7997
  154.4002  140.1540  156.2903 H   0  0  0  0  0  0  0  0  0  0  0  0  # atno 8009 bound_to 7997
  155.8828  140.3419  155.5902 H   0  0  0  0  0  0  0  0  0  0  0  0  # atno 8010 bound_to 7997
  139.9191  143.6403  152.2558 H   0  0  0  0  0  0  0  0  0  0  0  0  # atno 10167 bound_to 10162
  157.4555  131.1069  150.9982 H   0  0  0  0  0  0  0  0  0  0  0  0  # atno 10718 bound_to 10713
  154.1355  135.2824  155.3174 H   0  0  0  0  0  0  0  0  0  0  0  0  # atno 10763 bound_to 10752
  154.6324  135.5430  153.7699 H   0  0  0  0  0  0  0  0  0  0  0  0  # atno 10764 bound_to 10752
  153.0267  135.6466  154.1504 H   0  0  0  0  0  0  0  0  0  0  0  0  # atno 10765 bound_to 10752
  140.0230  134.9388  157.0511 H   0  0  0  0  0  0  0  0  0  0  0  0  # atno 11005 bound_to 11000
  144.6940  139.9085  143.7462 LP  0  0  0  0  0  0  0  0  0  0  0  0  # atno 17320 bound_to 7965
  146.0705  139.3694  143.0526 LP  0  0  0  0  0  0  0  0  0  0  0  0  # atno 17321 bound_to 7965
  139.6877  144.7650  151.1495 LP  0  0  0  0  0  0  0  0  0  0  0  0  # atno 17342 bound_to 10162
  140.7666  143.5634  150.9074 LP  0  0  0  0  0  0  0  0  0  0  0  0  # atno 17343 bound_to 10162
  157.0797  130.5898  149.5418 LP  0  0  0  0  0  0  0  0  0  0  0  0  # atno 17370 bound_to 10713
  156.0005  130.5083  150.7646 LP  0  0  0  0  0  0  0  0  0  0  0  0  # atno 17371 bound_to 10713
  140.4355  134.1736  155.7170 LP  0  0  0  0  0  0  0  0  0  0  0  0  # atno 17394 bound_to 11000
  141.1785  133.8463  157.1339 LP  0  0  0  0  0  0  0  0  0  0  0  0  # atno 17395 bound_to 11000

$$$$
