AV-unprocessed.smi:1032|AV-procd|sdf|4486|dock1
  -GOLD-   22720 2463D 1   1.00000     0.00000
 Structure written by MMmdl.
 47 48  0  0  0  0  0  0  0  0  3 V2000
  143.1852  144.0646  155.8996 C   0  0  0  0  0  0  0  0  0  0  0  0
  144.5166  143.4124  155.5012 C   0  0  2  0  0  0  0  0  0  0  0  0
  144.9044  143.7434  154.0503 C   0  0  0  0  0  0  0  0  0  0  0  0
  146.2251  143.0609  153.6554 C   0  0  0  0  0  0  0  0  0  0  0  0
  146.1442  141.5875  153.8431 N   0  3  1  0  0  0  0  0  0  0  0  0
  147.3486  140.8609  153.3637 C   0  0  0  0  0  0  0  0  0  0  0  0
  147.1635  139.3290  153.3460 C   0  0  2  0  0  0  0  0  0  0  0  0
  148.4503  138.7425  153.3334 O   0  0  0  0  0  0  0  0  0  0  0  0
  146.4160  138.8686  152.0774 C   0  0  0  0  0  0  0  0  0  0  0  0
  146.6869  137.4697  151.7582 N   0  0  0  0  0  0  0  0  0  0  0  0
  145.7540  136.5115  151.6585 C   0  0  0  0  0  0  0  0  0  0  0  0
  144.5563  136.7097  151.8628 O   0  0  0  0  0  0  0  0  0  0  0  0
  146.2993  135.3260  151.3359 N   0  0  0  0  0  0  0  0  0  0  0  0
  145.6380  134.0931  151.0850 C   0  0  0  0  0  0  0  0  0  0  0  0
  144.2253  134.0908  151.0940 C   0  0  0  0  0  0  0  0  0  0  0  0
  143.5305  132.8849  150.8689 C   0  0  0  0  0  0  0  0  0  0  0  0
  144.2179  131.7417  150.6592 N   0  3  0  0  0  0  0  0  0  0  0  0
  145.5671  131.6910  150.6576 C   0  0  0  0  0  0  0  0  0  0  0  0
  146.3163  132.8655  150.8750 C   0  0  0  0  0  0  0  0  0  0  0  0
  145.8035  141.2381  155.2464 C   0  0  0  0  0  0  0  0  0  0  0  0
  144.4769  141.8854  155.6769 C   0  0  0  0  0  0  0  0  0  0  0  0
  142.3631  143.7020  155.2813 H   0  0  0  0  0  0  0  0  0  0  0  0
  143.2304  145.1485  155.7911 H   0  0  0  0  0  0  0  0  0  0  0  0
  142.9391  143.8490  156.9398 H   0  0  0  0  0  0  0  0  0  0  0  0
  145.2906  143.8111  156.1589 H   0  0  0  0  0  0  0  0  0  0  0  0
  144.1120  143.4232  153.3721 H   0  0  0  0  0  0  0  0  0  0  0  0
  144.9986  144.8228  153.9260 H   0  0  0  0  0  0  0  0  0  0  0  0
  146.4456  143.3040  152.6169 H   0  0  0  0  0  0  0  0  0  0  0  0
  147.0460  143.4608  154.2528 H   0  0  0  0  0  0  0  0  0  0  0  0
  147.6105  141.2268  152.3697 H   0  0  0  0  0  0  0  0  0  0  0  0
  148.1990  141.0960  154.0063 H   0  0  0  0  0  0  0  0  0  0  0  0
  146.6262  138.9995  154.2344 H   0  0  0  0  0  0  0  0  0  0  0  0
  148.8502  138.9106  152.4933 H   0  0  0  0  0  0  0  0  0  0  0  0
  145.3395  138.9858  152.2149 H   0  0  0  0  0  0  0  0  0  0  0  0
  146.6742  139.4936  151.2212 H   0  0  0  0  0  0  0  0  0  0  0  0
  147.6492  137.2220  151.5788 H   0  0  0  0  0  0  0  0  0  0  0  0
  147.3078  135.2928  151.3042 H   0  0  0  0  0  0  0  0  0  0  0  0
  143.6747  135.0045  151.2657 H   0  0  0  0  0  0  0  0  0  0  0  0
  142.4536  132.8006  150.8540 H   0  0  0  0  0  0  0  0  0  0  0  0
  146.0049  130.7178  150.4900 H   0  0  0  0  0  0  0  0  0  0  0  0
  147.3937  132.7995  150.8908 H   0  0  0  0  0  0  0  0  0  0  0  0
  145.7189  140.1552  155.3474 H   0  0  0  0  0  0  0  0  0  0  0  0
  146.6109  141.5563  155.9082 H   0  0  0  0  0  0  0  0  0  0  0  0
  144.2682  141.6346  156.7176 H   0  0  0  0  0  0  0  0  0  0  0  0
  143.6600  141.4652  155.0885 H   0  0  0  0  0  0  0  0  0  0  0  0
  145.3751  141.2582  153.2768 H   0  0  0  0  0  0  0  0  0  0  0  0
  143.6962  130.8791  150.5006 H   0  0  0  0  0  0  0  0  0  0  0  0
  1  2  1  0  0  0  0
  1 22  1  0  0  0  0
  1 23  1  0  0  0  0
  1 24  1  0  0  0  0
  2 21  1  0  0  0  0
  2  3  1  0  0  0  0
  2 25  1  0  0  0  0
  3  4  1  0  0  0  0
  3 26  1  0  0  0  0
  3 27  1  0  0  0  0
  4  5  1  0  0  0  0
  4 28  1  0  0  0  0
  4 29  1  0  0  0  0
  5  6  1  0  0  0  0
  5 20  1  0  0  0  0
  5 46  1  0  0  0  0
  6  7  1  0  0  0  0
  6 30  1  0  0  0  0
  6 31  1  0  0  0  0
  7  8  1  0  0  0  0
  7  9  1  0  0  0  0
  7 32  1  0  0  0  0
  8 33  1  0  0  0  0
  9 10  1  0  0  0  0
  9 34  1  0  0  0  0
  9 35  1  0  0  0  0
 10 11  1  0  0  0  0
 10 36  1  0  0  0  0
 11 12  2  0  0  0  0
 11 13  1  0  0  0  0
 13 14  1  0  0  0  0
 13 37  1  0  0  0  0
 14 19  1  0  0  0  0
 14 15  2  0  0  0  0
 15 16  1  0  0  0  0
 15 38  1  0  0  0  0
 16 17  2  0  0  0  0
 16 39  1  0  0  0  0
 17 18  1  0  0  0  0
 17 47  1  0  0  0  0
 18 19  2  0  0  0  0
 18 40  1  0  0  0  0
 19 41  1  0  0  0  0
 20 21  1  0  0  0  0
 20 42  1  0  0  0  0
 20 43  1  0  0  0  0
 21 44  1  0  0  0  0
 21 45  1  0  0  0  0
M  CHG  1   5   1
M  CHG  1  17   1
M  END
> <s_m_source_file>
AV-unprocessed.smi

> <i_m_source_file_index>
1032

> <i_lp_mmshare_version>
43012

> <i_f3d_flags>
0

> <s_epik_input>
W0NIM11bQ0hdMVtDSDJdW0NIMl1OKFtDSDJdW0NIMl0xKVtDSDJdW0NASF0oW09IXSlbQ0gyXVtOSF1DKD1PKVtOSF1jMltjSF1bY0hdbltjSF1bY0hdMg==

> <s_epik_cmdline>
J2VwaWtfcHl0aG9uJywgJy1waCcsICc3LjAnLCAnLXRuJywgJzgnLCAnLW1hJywgJzIwMCcsICctbWV0YWxfYmluZGluZycsICctaW1hZScsICc8aW5maWxlLm1hZT4nLCAnLW9tYWUnLCAnPG91dGZpbGUubWFlPic=

> <r_epik_Ionization_Penalty>
1.02509

> <r_epik_Ionization_Penalty_Charging>
1.02507

> <r_epik_Ionization_Penalty_Neutral>
1.85474e-05

> <r_epik_State_Penalty>
1.07411

> <r_epik_Charging_Adjusted_Penalty>
2.09917

> <i_epik_Tot_Q>
2

> <i_epik_Tot_abs_Q>
2

> <r_epik_Metal_State_Penalty>
1.1725

> <b_epik_Metal_Only>
0

> <s_lp_Force_Field>
OPLS_2005

> <r_lp_Energy>
32.4913

> <b_lp_Chiralities_Consistent>
1

> <s_lp_Variant>
AV-unprocessed.smi:1032-5

> <Gold.Version>
5.8.1

> <Gold.Id.Protein>
6NUR|6NUR_protein|mol2

> <Gold.PLP.Fitness>
52.5484

> <Gold.PLP.PLP>
-38.6554

> <Gold.PLP.part.hbond>
-4.9578

> <Gold.PLP.part.metal>
0.0000

> <Gold.PLP.part.buried>
-6.8734

> <Gold.PLP.part.nonpolar>
-29.7433

> <Gold.PLP.part.repulsive>
1.4246

> <Gold.PLP.ligand.clash>
0.0209

> <Gold.PLP.ligand.torsion>
0.4565

> <Gold.PLP.Chemscore.Hbond>
4.8945

> <Gold.PLP.Chemscore.CHOScore>
0.0000

> <Gold.PLP.Chemscore.Metal>
0.0000

> <Gold.Chemscore.Hbonds>
donor molecule, donor type, donor heavy atom, donor atom, acceptor molecule, acceptor atom, score
      L1  H     5    46       P1 10175  1.90
      L1  H     8    33       P1  7957  1.00
      L1  H    10    36       P1  7948  1.00
      L1  H    13    37       P1  7948  0.91

> <Gold.PLP.Chemscore.Internal.Correction>
0.1433

> <Gold.Rescore>
     Score         DG    S(hbond)    S(metal)    S(lipo)     H(rot)  DE(clash)    DE(int)     intcor
     16.87     -19.30       3.05        0.00      82.25       2.34       0.49       1.94       ----

> <Gold.Chemscore.Fitness>
16.8700

> <Gold.Chemscore.DG>
-19.2958

> <Gold.Chemscore.ZeroCoef>
-5.4800

> <Gold.Chemscore.Hbond>
3.0481

> <Gold.Chemscore.Metal>
0.0000

> <Gold.Chemscore.Lipo>
82.2546

> <Gold.Chemscore.Internal_Hbond>
0.0000

> <Gold.Chemscore.DEClash>
0.4894

> <Gold.Chemscore.DEInternal>
1.9364

> <Gold.Chemscore.Rot>
2.3393

> <Gold.Chemscore.Internal.Correction>
   9.000000E+99

> <Gold.Chemscore.Hbonds>
donor molecule, donor type, donor heavy atom, donor atom, acceptor molecule, acceptor atom, score
      L1  H     5    46       P1 10175  0.21
      L1  H     8    33       P1  7957  0.97
      L1  H    10    36       P1  7948  0.95
      L1  H    13    37       P1  7948  0.70

> <Gold.Chemscore.Hbond.Weighted>
-10.1806

> <Gold.Chemscore.Metal.Weighted>
-0.0000

> <Gold.Chemscore.Lipo.Weighted>
-9.6238

> <Gold.Chemscore.Internal_Hbond.Weighted>
0.0000

> <Gold.Chemscore.DEClash.Weighted>
0.4894

> <Gold.Chemscore.DEInternal.Weighted>
1.9364

> <Gold.Chemscore.Rot.Weighted>
5.9886

> <Gold.Chemscore.Internal.Correction.Weighted>
   9.000000E+99

> <Gold.Protein.RotatedTorsions>
[ 6907 6896 6895 6894 ] final  -27.60 input  -60.11 | X-H torsion
[ 7974 7965 7964 7962 ] final -145.46 input  175.53 | X-H torsion
[ 8008 7997 7996 7995 ] final   26.10 input   59.86 | X-H torsion
[ 10167 10162 10161 10158 ] final  106.31 input  -65.29 | X-H torsion
[ 10718 10713 10712 10709 ] final -112.24 input   66.30 | X-H torsion
[ 10763 10752 10751 10750 ] final   40.02 input  -60.55 | X-H torsion
[ 11005 11000 10999 10996 ] final  174.62 input  -57.11 | X-H torsion

> <Gold.Protein.ActiveResidues>
 VAL166  LYS551  ARG553  GLY616  TRP617  ASP618  TYR619  PRO620  LYS621  CYS622 
 ASP623  PHE694  ASN695  SER759  ASP760  ASP761  ALA762  ILE779  LEU786  VAL792 
 PHE793  MET794  SER795  GLU796  ALA797  LYS798  CYS799  TRP800  GLU811  SER814 

> <Gold.Protein.RotatedAtoms>
  151.1446  135.0197  159.8640 H   0  0  0  0  0  0  0  0  0  0  0  0  # atno 6907 bound_to 6896
  152.5453  134.1459  159.8508 H   0  0  0  0  0  0  0  0  0  0  0  0  # atno 6908 bound_to 6896
  151.1538  133.4844  159.2627 H   0  0  0  0  0  0  0  0  0  0  0  0  # atno 6909 bound_to 6896
  144.8226  140.5580  143.5568 H   0  0  0  0  0  0  0  0  0  0  0  0  # atno 7974 bound_to 7965
  155.0221  140.3149  155.4790 H   0  0  0  0  0  0  0  0  0  0  0  0  # atno 8008 bound_to 7997
  156.2890  140.2195  156.5281 H   0  0  0  0  0  0  0  0  0  0  0  0  # atno 8009 bound_to 7997
  154.7443  140.0471  157.0826 H   0  0  0  0  0  0  0  0  0  0  0  0  # atno 8010 bound_to 7997
  139.7020  144.7092  151.1170 H   0  0  0  0  0  0  0  0  0  0  0  0  # atno 10167 bound_to 10162
  156.0694  130.5909  150.8481 H   0  0  0  0  0  0  0  0  0  0  0  0  # atno 10718 bound_to 10713
  152.9949  135.6203  154.2559 H   0  0  0  0  0  0  0  0  0  0  0  0  # atno 10763 bound_to 10752
  154.2296  135.2792  155.2896 H   0  0  0  0  0  0  0  0  0  0  0  0  # atno 10764 bound_to 10752
  154.5460  135.5747  153.6939 H   0  0  0  0  0  0  0  0  0  0  0  0  # atno 10765 bound_to 10752
  140.3533  134.7176  157.4283 H   0  0  0  0  0  0  0  0  0  0  0  0  # atno 11005 bound_to 11000
  145.5072  139.1481  143.3625 LP  0  0  0  0  0  0  0  0  0  0  0  0  # atno 17320 bound_to 7965
  146.2531  140.5212  142.8885 LP  0  0  0  0  0  0  0  0  0  0  0  0  # atno 17321 bound_to 7965
  140.7712  143.5411  150.9311 LP  0  0  0  0  0  0  0  0  0  0  0  0  # atno 17342 bound_to 10162
  139.9093  143.6740  152.3118 LP  0  0  0  0  0  0  0  0  0  0  0  0  # atno 17343 bound_to 10162
  157.5755  131.0946  150.9352 LP  0  0  0  0  0  0  0  0  0  0  0  0  # atno 17370 bound_to 10713
  156.9559  130.5437  149.5284 LP  0  0  0  0  0  0  0  0  0  0  0  0  # atno 17371 bound_to 10713
  140.0685  134.5896  155.8668 LP  0  0  0  0  0  0  0  0  0  0  0  0  # atno 17394 bound_to 11000
  141.2005  133.6613  156.5903 LP  0  0  0  0  0  0  0  0  0  0  0  0  # atno 17395 bound_to 11000

$$$$
