AV-unprocessed.smi:3230|AV-procd|sdf|12329|dock7
  -GOLD-   2272018183D 1   1.00000     0.00000
 Structure written by MMmdl.
 40 40  0  0  0  0  0  0  0  0  1 V2000
  144.5625  134.2192  151.4693 C   0  0  0  0  0  0  0  0  0  0  0  0
  144.9811  135.6238  151.0092 C   0  0  0  0  0  0  0  0  0  0  0  0
  145.4866  136.5485  152.1471 C   0  0  0  0  0  0  0  0  0  0  0  0
  144.4729  136.6188  153.3177 C   0  0  0  0  0  0  0  0  0  0  0  0
  143.1133  137.2329  152.9513 C   0  0  0  0  0  0  0  0  0  0  0  0
  145.8891  137.9591  151.6312 C   0  0  2  0  0  0  0  0  0  0  0  0
  146.8025  137.8254  150.5588 O   0  0  0  0  0  0  0  0  0  0  0  0
  146.5306  138.8513  152.7186 C   0  0  0  0  0  0  0  0  0  0  0  0
  147.9233  138.4962  152.9721 N   0  0  0  0  0  0  0  0  0  0  0  0
  148.7234  139.0943  153.8688 C   0  0  0  0  0  0  0  0  0  0  0  0
  148.3636  140.0365  154.5750 O   0  0  0  0  0  0  0  0  0  0  0  0
  150.1468  138.5481  153.9891 C   0  0  0  0  0  0  0  0  0  0  0  0
  150.8937  139.2849  155.0673 C   0  0  0  0  0  0  0  0  0  0  0  0
  150.4832  139.5472  156.4040 C   0  0  0  0  0  0  0  0  0  0  0  0
  151.5334  140.2400  156.9349 C   0  0  0  0  0  0  0  0  0  0  0  0
  151.7892  140.8223  158.2827 C   0  0  0  0  0  0  0  0  0  0  0  0
  152.5097  140.3978  156.0044 O   0  0  0  0  0  0  0  0  0  0  0  0
  152.0921  139.7888  154.8158 N   0  0  0  0  0  0  0  0  0  0  0  0
  144.3182  133.5934  150.6107 H   0  0  0  0  0  0  0  0  0  0  0  0
  143.6820  134.2418  152.1103 H   0  0  0  0  0  0  0  0  0  0  0  0
  145.3671  133.7269  152.0163 H   0  0  0  0  0  0  0  0  0  0  0  0
  145.7653  135.4908  150.2650 H   0  0  0  0  0  0  0  0  0  0  0  0
  144.1503  136.0960  150.4837 H   0  0  0  0  0  0  0  0  0  0  0  0
  146.3942  136.0923  152.5452 H   0  0  0  0  0  0  0  0  0  0  0  0
  144.3228  135.6282  153.7479 H   0  0  0  0  0  0  0  0  0  0  0  0
  144.8852  137.2274  154.1209 H   0  0  0  0  0  0  0  0  0  0  0  0
  142.5031  137.3690  153.8442 H   0  0  0  0  0  0  0  0  0  0  0  0
  142.5468  136.5987  152.2703 H   0  0  0  0  0  0  0  0  0  0  0  0
  143.2347  138.2100  152.4830 H   0  0  0  0  0  0  0  0  0  0  0  0
  144.9999  138.4605  151.2523 H   0  0  0  0  0  0  0  0  0  0  0  0
  147.6342  137.5442  150.9086 H   0  0  0  0  0  0  0  0  0  0  0  0
  146.4958  139.8989  152.4146 H   0  0  0  0  0  0  0  0  0  0  0  0
  145.9779  138.7907  153.6565 H   0  0  0  0  0  0  0  0  0  0  0  0
  148.3025  137.7320  152.4317 H   0  0  0  0  0  0  0  0  0  0  0  0
  150.1236  137.4764  154.1935 H   0  0  0  0  0  0  0  0  0  0  0  0
  150.6517  138.6676  153.0300 H   0  0  0  0  0  0  0  0  0  0  0  0
  149.5638  139.2658  156.8958 H   0  0  0  0  0  0  0  0  0  0  0  0
  150.8831  140.8137  158.8885 H   0  0  0  0  0  0  0  0  0  0  0  0
  152.1308  141.8543  158.2010 H   0  0  0  0  0  0  0  0  0  0  0  0
  152.5544  140.2522  158.8097 H   0  0  0  0  0  0  0  0  0  0  0  0
  1  2  1  0  0  0  0
  1 19  1  0  0  0  0
  1 20  1  0  0  0  0
  1 21  1  0  0  0  0
  2  3  1  0  0  0  0
  2 22  1  0  0  0  0
  2 23  1  0  0  0  0
  3  4  1  0  0  0  0
  3  6  1  0  0  0  0
  3 24  1  0  0  0  0
  4  5  1  0  0  0  0
  4 25  1  0  0  0  0
  4 26  1  0  0  0  0
  5 27  1  0  0  0  0
  5 28  1  0  0  0  0
  5 29  1  0  0  0  0
  6  7  1  0  0  0  0
  6  8  1  0  0  0  0
  6 30  1  0  0  0  0
  7 31  1  0  0  0  0
  8  9  1  0  0  0  0
  8 32  1  0  0  0  0
  8 33  1  0  0  0  0
  9 10  1  0  0  0  0
  9 34  1  0  0  0  0
 10 11  2  0  0  0  0
 10 12  1  0  0  0  0
 12 13  1  0  0  0  0
 12 35  1  0  0  0  0
 12 36  1  0  0  0  0
 13 18  2  0  0  0  0
 13 14  1  0  0  0  0
 14 15  2  0  0  0  0
 14 37  1  0  0  0  0
 15 16  1  0  0  0  0
 15 17  1  0  0  0  0
 16 38  1  0  0  0  0
 16 39  1  0  0  0  0
 16 40  1  0  0  0  0
 17 18  1  0  0  0  0
M  END
> <s_m_source_file>
AV-unprocessed.smi

> <i_m_source_file_index>
3230

> <i_lp_mmshare_version>
43012

> <i_f3d_flags>
0

> <s_epik_input>
W0NIM11bQ0gyXVtDSF0oW0NIMl1bQ0gzXSlbQ0BIXShbT0hdKVtDSDJdW05IXUMoPU8pW0NIMl1jMVtjSF1jKFtDSDNdKW9uMQ==

> <s_epik_cmdline>
J2VwaWtfcHl0aG9uJywgJy1waCcsICc3LjAnLCAnLXRuJywgJzgnLCAnLW1hJywgJzIwMCcsICctbWV0YWxfYmluZGluZycsICctaW1hZScsICc8aW5maWxlLm1hZT4nLCAnLW9tYWUnLCAnPG91dGZpbGUubWFlPic=

> <r_lp_tautomer_probability>
1

> <r_epik_Ionization_Penalty>
2.40054e-07

> <r_epik_Ionization_Penalty_Charging>
0

> <r_epik_Ionization_Penalty_Neutral>
2.40054e-07

> <r_epik_State_Penalty>
-0

> <r_epik_Charging_Adjusted_Penalty>
0

> <i_epik_Tot_Q>
0

> <i_epik_Tot_abs_Q>
0

> <r_epik_Metal_State_Penalty>
-0

> <b_epik_Metal_Only>
0

> <s_lp_Force_Field>
OPLS_2005

> <r_lp_Energy>
9.05643

> <b_lp_Chiralities_Consistent>
1

> <s_lp_Variant>
AV-unprocessed.smi:3230-1

> <Gold.Version>
5.8.1

> <Gold.Id.Protein>
6NUR|6NUR_protein|mol2

> <Gold.PLP.Fitness>
42.6025

> <Gold.PLP.PLP>
-31.2258

> <Gold.PLP.part.hbond>
-6.4077

> <Gold.PLP.part.metal>
0.0000

> <Gold.PLP.part.buried>
-0.4546

> <Gold.PLP.part.nonpolar>
-25.7112

> <Gold.PLP.part.repulsive>
0.1532

> <Gold.PLP.ligand.clash>
0.0000

> <Gold.PLP.ligand.torsion>
0.2770

> <Gold.PLP.Chemscore.Hbond>
3.8960

> <Gold.PLP.Chemscore.CHOScore>
0.0000

> <Gold.PLP.Chemscore.Metal>
0.0000

> <Gold.Chemscore.Hbonds>
donor molecule, donor type, donor heavy atom, donor atom, acceptor molecule, acceptor atom, score
      L1  H     7    31       P1  7948  0.99
      L1  H     9    34       P1  7948  1.00
      P1  H  7989  7998       L1    18  0.79
      P1  H  7997  8010       L1    17  1.00

> <Gold.PLP.Chemscore.Internal.Correction>
0.2426

> <Gold.Rescore>
     Score         DG    S(hbond)    S(metal)    S(lipo)     H(rot)  DE(clash)    DE(int)     intcor
     14.72     -18.05       3.36        0.00      67.88       2.57       1.70       1.63       ----

> <Gold.Chemscore.Fitness>
14.7202

> <Gold.Chemscore.DG>
-18.0527

> <Gold.Chemscore.ZeroCoef>
-5.4800

> <Gold.Chemscore.Hbond>
3.3575

> <Gold.Chemscore.Metal>
0.0000

> <Gold.Chemscore.Lipo>
67.8795

> <Gold.Chemscore.Internal_Hbond>
0.0000

> <Gold.Chemscore.DEClash>
1.7047

> <Gold.Chemscore.DEInternal>
1.6279

> <Gold.Chemscore.Rot>
2.5715

> <Gold.Chemscore.Internal.Correction>
   9.000000E+99

> <Gold.Chemscore.Hbonds>
donor molecule, donor type, donor heavy atom, donor atom, acceptor molecule, acceptor atom, score
      L1  H     7    31       P1  7948  0.90
      L1  H     9    34       P1  7948  1.00
      P1  H  7989  7998       L1    18  0.17
      P1  H  7997  8010       L1    17  0.71

> <Gold.Chemscore.Hbond.Weighted>
-11.2139

> <Gold.Chemscore.Metal.Weighted>
-0.0000

> <Gold.Chemscore.Lipo.Weighted>
-7.9419

> <Gold.Chemscore.Internal_Hbond.Weighted>
0.0000

> <Gold.Chemscore.DEClash.Weighted>
1.7047

> <Gold.Chemscore.DEInternal.Weighted>
1.6279

> <Gold.Chemscore.Rot.Weighted>
6.5831

> <Gold.Chemscore.Internal.Correction.Weighted>
   9.000000E+99

> <Gold.Protein.RotatedTorsions>
[ 6907 6896 6895 6894 ] final   93.48 input  -60.11 | X-H torsion
[ 7974 7965 7964 7962 ] final  104.34 input  175.53 | X-H torsion
[ 8008 7997 7996 7995 ] final   83.29 input   59.86 | X-H torsion
[ 10167 10162 10161 10158 ] final   21.25 input  -65.29 | X-H torsion
[ 10718 10713 10712 10709 ] final    6.07 input   66.30 | X-H torsion
[ 10763 10752 10751 10750 ] final   49.04 input  -60.55 | X-H torsion
[ 11005 11000 10999 10996 ] final  -42.03 input  -57.11 | X-H torsion

> <Gold.Protein.ActiveResidues>
 VAL166  LYS551  ARG553  GLY616  TRP617  ASP618  TYR619  PRO620  LYS621  CYS622 
 ASP623  PHE694  ASN695  SER759  ASP760  ASP761  ALA762  ILE779  LEU786  VAL792 
 PHE793  MET794  SER795  GLU796  ALA797  LYS798  CYS799  TRP800  GLU811  SER814 

> <Gold.Protein.RotatedAtoms>
  152.5452  134.1342  159.8451 H   0  0  0  0  0  0  0  0  0  0  0  0  # atno 6907 bound_to 6896
  151.1384  133.4981  159.2605 H   0  0  0  0  0  0  0  0  0  0  0  0  # atno 6908 bound_to 6896
  151.1599  135.0278  159.8760 H   0  0  0  0  0  0  0  0  0  0  0  0  # atno 6909 bound_to 6896
  145.3341  139.2479  143.3645 H   0  0  0  0  0  0  0  0  0  0  0  0  # atno 7974 bound_to 7965
  155.9220  140.3420  155.6180 H   0  0  0  0  0  0  0  0  0  0  0  0  # atno 8008 bound_to 7997
  155.7262  140.0789  157.2328 H   0  0  0  0  0  0  0  0  0  0  0  0  # atno 8009 bound_to 7997
  154.4071  140.1596  156.2445 H   0  0  0  0  0  0  0  0  0  0  0  0  # atno 8010 bound_to 7997
  140.5441  143.9626  150.6537 H   0  0  0  0  0  0  0  0  0  0  0  0  # atno 10167 bound_to 10162
  156.9167  130.5776  149.5647 H   0  0  0  0  0  0  0  0  0  0  0  0  # atno 10718 bound_to 10713
  152.9788  135.5924  154.4025 H   0  0  0  0  0  0  0  0  0  0  0  0  # atno 10763 bound_to 10752
  154.3669  135.2767  155.2290 H   0  0  0  0  0  0  0  0  0  0  0  0  # atno 10764 bound_to 10752
  154.4263  135.6047  153.6095 H   0  0  0  0  0  0  0  0  0  0  0  0  # atno 10765 bound_to 10752
  141.0287  133.6830  156.2538 H   0  0  0  0  0  0  0  0  0  0  0  0  # atno 11005 bound_to 11000
  146.3034  140.3925  142.8696 LP  0  0  0  0  0  0  0  0  0  0  0  0  # atno 17320 bound_to 7965
  144.8841  140.7439  143.5968 LP  0  0  0  0  0  0  0  0  0  0  0  0  # atno 17321 bound_to 7965
  140.3034  143.3245  152.0949 LP  0  0  0  0  0  0  0  0  0  0  0  0  # atno 17342 bound_to 10162
  139.5000  144.6682  151.6305 LP  0  0  0  0  0  0  0  0  0  0  0  0  # atno 17343 bound_to 10162
  156.0510  130.5579  150.8989 LP  0  0  0  0  0  0  0  0  0  0  0  0  # atno 17370 bound_to 10713
  157.5933  131.0944  150.9082 LP  0  0  0  0  0  0  0  0  0  0  0  0  # atno 17371 bound_to 10713
  140.6445  134.5131  157.5572 LP  0  0  0  0  0  0  0  0  0  0  0  0  # atno 17394 bound_to 11000
  139.9193  134.8181  156.1263 LP  0  0  0  0  0  0  0  0  0  0  0  0  # atno 17395 bound_to 11000

$$$$
