AV-unprocessed.smi:1868|AV-procd|sdf|7587|dock10
  -GOLD-   22720 9303D 1   1.00000     0.00000
 Structure written by MMmdl.
 47 49  0  0  0  0  0  0  0  0  2 V2000
  152.3563  138.5092  158.7017 C   0  0  0  0  0  0  0  0  0  0  0  0
  152.2796  139.9961  158.8448 C   0  0  0  0  0  0  0  0  0  0  0  0
  153.0887  140.6743  159.6581 N   0  0  0  0  0  0  0  0  0  0  0  0
  152.6833  141.9815  159.4685 C   0  0  0  0  0  0  0  0  0  0  0  0
  153.1545  143.1823  160.0455 C   0  0  0  0  0  0  0  0  0  0  0  0
  152.5747  144.4187  159.6935 C   0  0  0  0  0  0  0  0  0  0  0  0
  151.5177  144.4721  158.7621 C   0  0  0  0  0  0  0  0  0  0  0  0
  151.0333  143.2876  158.1747 C   0  0  0  0  0  0  0  0  0  0  0  0
  151.6158  142.0559  158.5289 C   0  0  0  0  0  0  0  0  0  0  0  0
  151.3820  140.7372  158.1496 N   0  0  0  0  0  0  0  0  0  0  0  0
  150.3810  140.2721  157.1987 C   0  0  0  0  0  0  0  0  0  0  0  0
  150.4060  141.0583  155.8726 C   0  0  1  0  0  0  0  0  0  0  0  0
  151.5039  140.6293  155.0903 O   0  0  0  0  0  0  0  0  0  0  0  0
  149.1127  140.8444  155.0615 C   0  0  0  0  0  0  0  0  0  0  0  0
  148.0496  141.8246  155.4039 N   0  3  2  0  0  0  0  0  0  0  0  0
  147.3432  141.5112  156.6744 C   0  0  0  0  0  0  0  0  0  0  0  0
  146.3484  142.6255  157.0470 C   0  0  0  0  0  0  0  0  0  0  0  0
  145.3369  142.9060  155.9207 C   0  0  2  0  0  0  0  0  0  0  0  0
  144.2678  141.8066  155.7927 C   0  0  0  0  0  0  0  0  0  0  0  0
  146.0947  143.1568  154.6046 C   0  0  0  0  0  0  0  0  0  0  0  0
  147.0951  142.0317  154.2848 C   0  0  0  0  0  0  0  0  0  0  0  0
  153.1047  138.0985  159.3806 H   0  0  0  0  0  0  0  0  0  0  0  0
  152.6365  138.2430  157.6824 H   0  0  0  0  0  0  0  0  0  0  0  0
  151.3949  138.0529  158.9362 H   0  0  0  0  0  0  0  0  0  0  0  0
  153.9638  143.1522  160.7598 H   0  0  0  0  0  0  0  0  0  0  0  0
  152.9431  145.3306  160.1405 H   0  0  0  0  0  0  0  0  0  0  0  0
  151.0793  145.4237  158.4985 H   0  0  0  0  0  0  0  0  0  0  0  0
  150.2233  143.3268  157.4617 H   0  0  0  0  0  0  0  0  0  0  0  0
  150.5484  139.2102  157.0130 H   0  0  0  0  0  0  0  0  0  0  0  0
  149.3967  140.3432  157.6622 H   0  0  0  0  0  0  0  0  0  0  0  0
  150.5442  142.1149  156.0972 H   0  0  0  0  0  0  0  0  0  0  0  0
  151.4170  139.7006  154.9338 H   0  0  0  0  0  0  0  0  0  0  0  0
  149.3581  140.9248  154.0011 H   0  0  0  0  0  0  0  0  0  0  0  0
  148.7303  139.8330  155.2076 H   0  0  0  0  0  0  0  0  0  0  0  0
  146.8271  140.5549  156.5806 H   0  0  0  0  0  0  0  0  0  0  0  0
  148.0584  141.3979  157.4881 H   0  0  0  0  0  0  0  0  0  0  0  0
  145.8254  142.3686  157.9688 H   0  0  0  0  0  0  0  0  0  0  0  0
  146.9060  143.5384  157.2618 H   0  0  0  0  0  0  0  0  0  0  0  0
  144.8055  143.8243  156.1747 H   0  0  0  0  0  0  0  0  0  0  0  0
  144.6996  140.8388  155.5399 H   0  0  0  0  0  0  0  0  0  0  0  0
  143.5427  142.0554  155.0174 H   0  0  0  0  0  0  0  0  0  0  0  0
  143.7175  141.6875  156.7266 H   0  0  0  0  0  0  0  0  0  0  0  0
  145.3914  143.2785  153.7801 H   0  0  0  0  0  0  0  0  0  0  0  0
  146.6374  144.1003  154.6787 H   0  0  0  0  0  0  0  0  0  0  0  0
  147.6427  142.2954  153.3791 H   0  0  0  0  0  0  0  0  0  0  0  0
  146.5701  141.0992  154.0732 H   0  0  0  0  0  0  0  0  0  0  0  0
  148.5196  142.7091  155.5373 H   0  0  0  0  0  0  0  0  0  0  0  0
  1  2  1  0  0  0  0
  1 22  1  0  0  0  0
  1 23  1  0  0  0  0
  1 24  1  0  0  0  0
  2 10  1  0  0  0  0
  2  3  2  0  0  0  0
  3  4  1  0  0  0  0
  4  9  2  0  0  0  0
  4  5  1  0  0  0  0
  5  6  2  0  0  0  0
  5 25  1  0  0  0  0
  6  7  1  0  0  0  0
  6 26  1  0  0  0  0
  7  8  2  0  0  0  0
  7 27  1  0  0  0  0
  8  9  1  0  0  0  0
  8 28  1  0  0  0  0
  9 10  1  0  0  0  0
 10 11  1  0  0  0  0
 11 12  1  0  0  0  0
 11 29  1  0  0  0  0
 11 30  1  0  0  0  0
 12 13  1  0  0  0  0
 12 14  1  0  0  0  0
 12 31  1  0  0  0  0
 13 32  1  0  0  0  0
 14 15  1  0  0  0  0
 14 33  1  0  0  0  0
 14 34  1  0  0  0  0
 15 21  1  0  0  0  0
 15 16  1  0  0  0  0
 15 47  1  0  0  0  0
 16 17  1  0  0  0  0
 16 35  1  0  0  0  0
 16 36  1  0  0  0  0
 17 18  1  0  0  0  0
 17 37  1  0  0  0  0
 17 38  1  0  0  0  0
 18 19  1  0  0  0  0
 18 20  1  0  0  0  0
 18 39  1  0  0  0  0
 19 40  1  0  0  0  0
 19 41  1  0  0  0  0
 19 42  1  0  0  0  0
 20 21  1  0  0  0  0
 20 43  1  0  0  0  0
 20 44  1  0  0  0  0
 21 45  1  0  0  0  0
 21 46  1  0  0  0  0
M  CHG  1  15   1
M  END
> <s_m_source_file>
AV-unprocessed.smi

> <i_m_source_file_index>
1868

> <i_lp_mmshare_version>
43012

> <i_f3d_flags>
0

> <s_epik_input>
W2NIXTFbY0hdW2NIXVtjSF1jKGMxMiluKGMobjIpW0NIM10pW0NIMl1bQ0BIXShbT0hdKVtDSDJdTjNbQ0gyXVtDSDJdW0NIXShbQ0gzXSlbQ0gyXVtDSDJdMw==

> <s_epik_cmdline>
J2VwaWtfcHl0aG9uJywgJy1waCcsICc3LjAnLCAnLXRuJywgJzgnLCAnLW1hJywgJzIwMCcsICctbWV0YWxfYmluZGluZycsICctaW1hZScsICc8aW5maWxlLm1hZT4nLCAnLW9tYWUnLCAnPG91dGZpbGUubWFlPic=

> <r_epik_Ionization_Penalty>
0.101157

> <r_epik_Ionization_Penalty_Charging>
0.00181365

> <r_epik_Ionization_Penalty_Neutral>
0.0993436

> <r_epik_State_Penalty>
0.0871902

> <r_epik_Charging_Adjusted_Penalty>
0.0890039

> <i_epik_Tot_Q>
1

> <i_epik_Tot_abs_Q>
1

> <r_epik_Metal_State_Penalty>
9.24346e-05

> <b_epik_Metal_Only>
0

> <s_lp_Force_Field>
OPLS_2005

> <r_lp_Energy>
23.8168

> <b_lp_Chiralities_Consistent>
1

> <s_lp_Variant>
AV-unprocessed.smi:1868-4

> <Gold.Version>
5.8.1

> <Gold.Id.Protein>
6NUR|6NUR_protein|mol2

> <Gold.PLP.Fitness>
51.3692

> <Gold.PLP.PLP>
-44.3249

> <Gold.PLP.part.hbond>
-2.0000

> <Gold.PLP.part.metal>
0.0000

> <Gold.PLP.part.buried>
-6.7437

> <Gold.PLP.part.nonpolar>
-35.5735

> <Gold.PLP.part.repulsive>
0.1055

> <Gold.PLP.ligand.clash>
0.0000

> <Gold.PLP.ligand.torsion>
0.8144

> <Gold.PLP.Chemscore.Hbond>
2.8800

> <Gold.PLP.Chemscore.CHOScore>
0.0000

> <Gold.PLP.Chemscore.Metal>
0.0000

> <Gold.Chemscore.Hbonds>
donor molecule, donor type, donor heavy atom, donor atom, acceptor molecule, acceptor atom, score
      L1  H    15    47       P1  8028  1.98
      P1  H  7989  7998       L1    13  0.40

> <Gold.PLP.Chemscore.Internal.Correction>
0.0331

> <Gold.Rescore>
     Score         DG    S(hbond)    S(metal)    S(lipo)     H(rot)  DE(clash)    DE(int)     intcor
     18.69     -19.46       1.77        0.00     111.10       1.92       0.05       0.72       ----

> <Gold.Chemscore.Fitness>
18.6919

> <Gold.Chemscore.DG>
-19.4615

> <Gold.Chemscore.ZeroCoef>
-5.4800

> <Gold.Chemscore.Hbond>
1.7658

> <Gold.Chemscore.Metal>
0.0000

> <Gold.Chemscore.Lipo>
111.0982

> <Gold.Chemscore.Internal_Hbond>
0.0000

> <Gold.Chemscore.DEClash>
0.0513

> <Gold.Chemscore.DEInternal>
0.7184

> <Gold.Chemscore.Rot>
1.9198

> <Gold.Chemscore.Internal.Correction>
   9.000000E+99

> <Gold.Chemscore.Hbonds>
donor molecule, donor type, donor heavy atom, donor atom, acceptor molecule, acceptor atom, score
      L1  H    15    47       P1  8028  0.92
      P1  H  7989  7998       L1    13  0.02

> <Gold.Chemscore.Hbond.Weighted>
-5.8978

> <Gold.Chemscore.Metal.Weighted>
-0.0000

> <Gold.Chemscore.Lipo.Weighted>
-12.9985

> <Gold.Chemscore.Internal_Hbond.Weighted>
0.0000

> <Gold.Chemscore.DEClash.Weighted>
0.0513

> <Gold.Chemscore.DEInternal.Weighted>
0.7184

> <Gold.Chemscore.Rot.Weighted>
4.9147

> <Gold.Chemscore.Internal.Correction.Weighted>
   9.000000E+99

> <Gold.Protein.RotatedTorsions>
[ 6907 6896 6895 6894 ] final  -87.48 input  -60.11 | X-H torsion
[ 7974 7965 7964 7962 ] final -154.89 input  175.53 | X-H torsion
[ 8008 7997 7996 7995 ] final -156.67 input   59.86 | X-H torsion
[ 10167 10162 10161 10158 ] final  -61.95 input  -65.29 | X-H torsion
[ 10718 10713 10712 10709 ] final   46.25 input   66.30 | X-H torsion
[ 10763 10752 10751 10750 ] final  127.57 input  -60.55 | X-H torsion
[ 11005 11000 10999 10996 ] final   -6.11 input  -57.11 | X-H torsion

> <Gold.Protein.ActiveResidues>
 VAL166  LYS551  ARG553  GLY616  TRP617  ASP618  TYR619  PRO620  LYS621  CYS622 
 ASP623  PHE694  ASN695  SER759  ASP760  ASP761  ALA762  ILE779  LEU786  VAL792 
 PHE793  MET794  SER795  GLU796  ALA797  LYS798  CYS799  TRP800  GLU811  SER814 

> <Gold.Protein.RotatedAtoms>
  150.6866  134.2889  159.4658 H   0  0  0  0  0  0  0  0  0  0  0  0  # atno 6907 bound_to 6896
  152.0796  134.9477  160.0583 H   0  0  0  0  0  0  0  0  0  0  0  0  # atno 6908 bound_to 6896
  152.0835  133.4130  159.4549 H   0  0  0  0  0  0  0  0  0  0  0  0  # atno 6909 bound_to 6896
  144.7667  140.4326  143.5937 H   0  0  0  0  0  0  0  0  0  0  0  0  # atno 7974 bound_to 7965
  155.7207  140.0789  157.2332 H   0  0  0  0  0  0  0  0  0  0  0  0  # atno 8008 bound_to 7997
  154.4045  140.1613  156.2453 H   0  0  0  0  0  0  0  0  0  0  0  0  # atno 8009 bound_to 7997
  155.9199  140.3398  155.6167 H   0  0  0  0  0  0  0  0  0  0  0  0  # atno 8010 bound_to 7997
  140.5972  143.2353  151.6010 H   0  0  0  0  0  0  0  0  0  0  0  0  # atno 10167 bound_to 10162
  157.4461  130.8110  149.7742 H   0  0  0  0  0  0  0  0  0  0  0  0  # atno 10718 bound_to 10713
  153.7116  135.3267  155.3247 H   0  0  0  0  0  0  0  0  0  0  0  0  # atno 10763 bound_to 10752
  154.8383  135.4478  154.1308 H   0  0  0  0  0  0  0  0  0  0  0  0  # atno 10764 bound_to 10752
  153.2403  135.6970  153.7869 H   0  0  0  0  0  0  0  0  0  0  0  0  # atno 10765 bound_to 10752
  140.6984  133.9011  155.8666 H   0  0  0  0  0  0  0  0  0  0  0  0  # atno 11005 bound_to 11000
  145.6449  139.1555  143.2895 LP  0  0  0  0  0  0  0  0  0  0  0  0  # atno 17320 bound_to 7965
  146.1780  140.6542  142.9202 LP  0  0  0  0  0  0  0  0  0  0  0  0  # atno 17321 bound_to 7965
  139.5266  144.3041  152.1049 LP  0  0  0  0  0  0  0  0  0  0  0  0  # atno 17342 bound_to 10162
  140.2215  144.4461  150.6340 LP  0  0  0  0  0  0  0  0  0  0  0  0  # atno 17343 bound_to 10162
  155.9968  130.3904  150.2765 LP  0  0  0  0  0  0  0  0  0  0  0  0  # atno 17370 bound_to 10713
  157.0933  131.0176  151.3113 LP  0  0  0  0  0  0  0  0  0  0  0  0  # atno 17371 bound_to 10713
  141.0184  134.0923  157.4147 LP  0  0  0  0  0  0  0  0  0  0  0  0  # atno 17394 bound_to 11000
  139.8903  135.0111  156.6731 LP  0  0  0  0  0  0  0  0  0  0  0  0  # atno 17395 bound_to 11000

$$$$
