AV-unprocessed.smi:203|AV-procd|sdf|1594|dock4
  -GOLD-   2262019493D 1   1.00000     0.00000
 Structure written by MMmdl.
 57 61  0  0  0  0  0  0  0  0  1 V2000
  150.5918  139.8974  154.8033 O   0  0  0  0  0  0  0  0  0  0  0  0
  151.0482  139.3476  155.8028 C   0  0  0  0  0  0  0  0  0  0  0  0
  152.4864  139.5065  156.2653 C   0  0  0  0  0  0  0  0  0  0  0  0
  152.4945  138.8452  157.6589 C   0  0  1  0  0  0  0  0  0  0  0  0
  152.6675  139.8426  158.8485 C   0  0  2  0  0  0  0  0  0  0  0  0
  151.9532  141.1987  158.6046 C   0  0  0  0  0  0  0  0  0  0  0  0
  152.1342  142.1581  159.7882 C   0  0  0  0  0  0  0  0  0  0  0  0
  153.6262  142.3525  160.0784 C   0  0  0  0  0  0  0  0  0  0  0  0
  154.3030  140.9970  160.3213 C   0  0  0  0  0  0  0  0  0  0  0  0
  154.0786  140.0812  159.2030 N   0  0  0  0  0  0  0  0  0  0  0  0
  154.8621  138.9867  159.3275 C   0  0  0  0  0  0  0  0  0  0  0  0
  155.8123  138.7956  158.3800 N   0  0  0  0  0  0  0  0  0  0  0  0
  156.6099  137.7250  158.4419 C   0  0  0  0  0  0  0  0  0  0  0  0
  156.6261  136.7464  159.3499 N   0  0  0  0  0  0  0  0  0  0  0  0
  155.6762  136.9431  160.3086 C   0  0  0  0  0  0  0  0  0  0  0  0
  154.7591  138.0291  160.3757 C   0  0  0  0  0  0  0  0  0  0  0  0
  153.9424  137.8927  161.4920 N   0  0  0  0  0  0  0  0  0  0  0  0
  154.3506  136.7861  162.0508 C   0  0  0  0  0  0  0  0  0  0  0  0
  155.3850  136.1494  161.4038 N   0  0  0  0  0  0  0  0  0  0  0  0
  156.0211  134.9062  161.8043 C   0  0  0  0  0  0  0  0  0  0  0  0
  155.0251  133.7279  161.8573 C   0  0  1  0  0  0  0  0  0  0  0  0
  155.7467  132.5321  161.6312 O   0  0  0  0  0  0  0  0  0  0  0  0
  154.3103  133.5953  163.2174 C   0  0  1  0  0  0  0  0  0  0  0  0
  153.6940  132.2213  163.4902 C   0  0  0  0  0  0  0  0  0  0  0  0
  153.6399  132.1457  165.0069 C   0  0  0  0  0  0  0  0  0  0  0  0
  154.6275  133.2218  165.4627 C   0  0  0  0  0  0  0  0  0  0  0  0
  155.2577  133.6748  164.2725 O   0  0  0  0  0  0  0  0  0  0  0  0
  151.1774  138.0424  157.7238 C   0  0  0  0  0  0  0  0  0  0  0  0
  150.3764  138.5425  156.6234 N   0  0  0  0  0  0  0  0  0  0  0  0
  153.1442  138.9760  155.5763 H   0  0  0  0  0  0  0  0  0  0  0  0
  152.7886  140.5541  156.2803 H   0  0  0  0  0  0  0  0  0  0  0  0
  153.3020  138.1131  157.6895 H   0  0  0  0  0  0  0  0  0  0  0  0
  152.1957  139.3894  159.7211 H   0  0  0  0  0  0  0  0  0  0  0  0
  152.3447  141.6764  157.7064 H   0  0  0  0  0  0  0  0  0  0  0  0
  150.8877  141.0524  158.4311 H   0  0  0  0  0  0  0  0  0  0  0  0
  151.6649  143.1178  159.5699 H   0  0  0  0  0  0  0  0  0  0  0  0
  151.6339  141.7564  160.6702 H   0  0  0  0  0  0  0  0  0  0  0  0
  154.1038  142.8562  159.2368 H   0  0  0  0  0  0  0  0  0  0  0  0
  153.7596  142.9990  160.9461 H   0  0  0  0  0  0  0  0  0  0  0  0
  155.3732  141.1478  160.4713 H   0  0  0  0  0  0  0  0  0  0  0  0
  153.9136  140.5517  161.2380 H   0  0  0  0  0  0  0  0  0  0  0  0
  157.3382  137.6393  157.6490 H   0  0  0  0  0  0  0  0  0  0  0  0
  153.9032  136.3977  162.9545 H   0  0  0  0  0  0  0  0  0  0  0  0
  156.8370  134.6875  161.1141 H   0  0  0  0  0  0  0  0  0  0  0  0
  156.4766  135.0698  162.7812 H   0  0  0  0  0  0  0  0  0  0  0  0
  154.2853  133.8473  161.0647 H   0  0  0  0  0  0  0  0  0  0  0  0
  155.8952  132.4422  160.7022 H   0  0  0  0  0  0  0  0  0  0  0  0
  153.5508  134.3702  163.3408 H   0  0  0  0  0  0  0  0  0  0  0  0
  152.7144  132.0971  163.0275 H   0  0  0  0  0  0  0  0  0  0  0  0
  154.3485  131.4348  163.1115 H   0  0  0  0  0  0  0  0  0  0  0  0
  152.6389  132.3650  165.3801 H   0  0  0  0  0  0  0  0  0  0  0  0
  153.9228  131.1544  165.3621 H   0  0  0  0  0  0  0  0  0  0  0  0
  154.1009  134.0543  165.9315 H   0  0  0  0  0  0  0  0  0  0  0  0
  155.3629  132.8407  166.1717 H   0  0  0  0  0  0  0  0  0  0  0  0
  151.3634  136.9795  157.5643 H   0  0  0  0  0  0  0  0  0  0  0  0
  150.6551  138.1442  158.6751 H   0  0  0  0  0  0  0  0  0  0  0  0
  149.4037  138.2986  156.5045 H   0  0  0  0  0  0  0  0  0  0  0  0
  1  2  2  0  0  0  0
  2 29  1  0  0  0  0
  2  3  1  0  0  0  0
  3  4  1  0  0  0  0
  3 30  1  0  0  0  0
  3 31  1  0  0  0  0
  4  5  1  0  0  0  0
  4 28  1  0  0  0  0
  4 32  1  0  0  0  0
  5 10  1  0  0  0  0
  5  6  1  0  0  0  0
  5 33  1  0  0  0  0
  6  7  1  0  0  0  0
  6 34  1  0  0  0  0
  6 35  1  0  0  0  0
  7  8  1  0  0  0  0
  7 36  1  0  0  0  0
  7 37  1  0  0  0  0
  8  9  1  0  0  0  0
  8 38  1  0  0  0  0
  8 39  1  0  0  0  0
  9 10  1  0  0  0  0
  9 40  1  0  0  0  0
  9 41  1  0  0  0  0
 10 11  1  0  0  0  0
 11 16  1  0  0  0  0
 11 12  2  0  0  0  0
 12 13  1  0  0  0  0
 13 14  2  0  0  0  0
 13 42  1  0  0  0  0
 14 15  1  0  0  0  0
 15 19  1  0  0  0  0
 15 16  2  0  0  0  0
 16 17  1  0  0  0  0
 17 18  2  0  0  0  0
 18 19  1  0  0  0  0
 18 43  1  0  0  0  0
 19 20  1  0  0  0  0
 20 21  1  0  0  0  0
 20 44  1  0  0  0  0
 20 45  1  0  0  0  0
 21 22  1  0  0  0  0
 21 23  1  0  0  0  0
 21 46  1  0  0  0  0
 22 47  1  0  0  0  0
 23 27  1  0  0  0  0
 23 24  1  0  0  0  0
 23 48  1  0  0  0  0
 24 25  1  0  0  0  0
 24 49  1  0  0  0  0
 24 50  1  0  0  0  0
 25 26  1  0  0  0  0
 25 51  1  0  0  0  0
 25 52  1  0  0  0  0
 26 27  1  0  0  0  0
 26 53  1  0  0  0  0
 26 54  1  0  0  0  0
 28 29  1  0  0  0  0
 28 55  1  0  0  0  0
 28 56  1  0  0  0  0
 29 57  1  0  0  0  0
M  END
> <s_m_source_file>
AV-unprocessed.smi

> <i_m_source_file_index>
203

> <i_lp_mmshare_version>
43012

> <i_f3d_flags>
0

> <s_epik_input>
Tz1DMVtDSDJdW0NASF0oW0NIMl1bTkhdMSlbQ0BASF0yW0NIMl1bQ0gyXVtDSDJdW0NIMl1OMmMobltjSF1uMyljKGMzNCluW2NIXW40W0NIMl1bQ0BIXShbT0hdKVtDQEBIXTVbQ0gyXVtDSDJdW0NIMl1PNQ==

> <s_epik_cmdline>
J2VwaWtfcHl0aG9uJywgJy1waCcsICc3LjAnLCAnLXRuJywgJzgnLCAnLW1hJywgJzIwMCcsICctbWV0YWxfYmluZGluZycsICctaW1hZScsICc8aW5maWxlLm1hZT4nLCAnLW9tYWUnLCAnPG91dGZpbGUubWFlPic=

> <r_lp_tautomer_probability>
1

> <r_epik_Ionization_Penalty>
0.00175146

> <r_epik_Ionization_Penalty_Charging>
0

> <r_epik_Ionization_Penalty_Neutral>
0.00175146

> <r_epik_State_Penalty>
0.00109045

> <r_epik_Charging_Adjusted_Penalty>
0.00109045

> <i_epik_Tot_Q>
0

> <i_epik_Tot_abs_Q>
0

> <r_epik_Metal_State_Penalty>
-0

> <b_epik_Metal_Only>
0

> <s_lp_Force_Field>
OPLS_2005

> <r_lp_Energy>
57.3178

> <b_lp_Chiralities_Consistent>
1

> <s_lp_Variant>
AV-unprocessed.smi:203-13

> <Gold.Version>
5.8.1

> <Gold.Id.Protein>
6NUR|6NUR_protein|mol2

> <Gold.PLP.Fitness>
41.6898

> <Gold.PLP.PLP>
-38.0275

> <Gold.PLP.part.hbond>
-3.0000

> <Gold.PLP.part.metal>
0.0000

> <Gold.PLP.part.buried>
-2.9381

> <Gold.PLP.part.nonpolar>
-32.3365

> <Gold.PLP.part.repulsive>
0.1666

> <Gold.PLP.ligand.clash>
0.0000

> <Gold.PLP.ligand.torsion>
1.3041

> <Gold.PLP.Chemscore.Hbond>
2.0000

> <Gold.PLP.Chemscore.CHOScore>
0.0000

> <Gold.PLP.Chemscore.Metal>
0.0000

> <Gold.Chemscore.Hbonds>
donor molecule, donor type, donor heavy atom, donor atom, acceptor molecule, acceptor atom, score
      P1  H  7989  7998       L1     1  1.00
      P1  H  7997  8010       L1    12  1.00

> <Gold.PLP.Chemscore.Internal.Correction>
0.2705

> <Gold.Rescore>
     Score         DG    S(hbond)    S(metal)    S(lipo)     H(rot)  DE(clash)    DE(int)     intcor
     14.05     -15.66       1.87        0.00      92.98       2.72       0.76       0.85       ----

> <Gold.Chemscore.Fitness>
14.0524

> <Gold.Chemscore.DG>
-15.6562

> <Gold.Chemscore.ZeroCoef>
-5.4800

> <Gold.Chemscore.Hbond>
1.8724

> <Gold.Chemscore.Metal>
0.0000

> <Gold.Chemscore.Lipo>
92.9754

> <Gold.Chemscore.Internal_Hbond>
0.0000

> <Gold.Chemscore.DEClash>
0.7581

> <Gold.Chemscore.DEInternal>
0.8457

> <Gold.Chemscore.Rot>
2.7171

> <Gold.Chemscore.Internal.Correction>
   9.000000E+99

> <Gold.Chemscore.Hbonds>
donor molecule, donor type, donor heavy atom, donor atom, acceptor molecule, acceptor atom, score
      P1  H  7989  7998       L1     1  0.99
      P1  H  7997  8010       L1    12  0.30

> <Gold.Chemscore.Hbond.Weighted>
-6.2537

> <Gold.Chemscore.Metal.Weighted>
-0.0000

> <Gold.Chemscore.Lipo.Weighted>
-10.8781

> <Gold.Chemscore.Internal_Hbond.Weighted>
0.0000

> <Gold.Chemscore.DEClash.Weighted>
0.7581

> <Gold.Chemscore.DEInternal.Weighted>
0.8457

> <Gold.Chemscore.Rot.Weighted>
6.9557

> <Gold.Chemscore.Internal.Correction.Weighted>
   9.000000E+99

> <Gold.Protein.RotatedTorsions>
[ 6907 6896 6895 6894 ] final  103.57 input  -60.11 | X-H torsion
[ 7974 7965 7964 7962 ] final  153.40 input  175.53 | X-H torsion
[ 8008 7997 7996 7995 ] final  -18.80 input   59.86 | X-H torsion
[ 10167 10162 10161 10158 ] final -112.09 input  -65.29 | X-H torsion
[ 10718 10713 10712 10709 ] final -114.63 input   66.30 | X-H torsion
[ 10763 10752 10751 10750 ] final -124.66 input  -60.55 | X-H torsion
[ 11005 11000 10999 10996 ] final  114.44 input  -57.11 | X-H torsion

> <Gold.Protein.ActiveResidues>
 VAL166  LYS551  ARG553  GLY616  TRP617  ASP618  TYR619  PRO620  LYS621  CYS622 
 ASP623  PHE694  ASN695  SER759  ASP760  ASP761  ALA762  ILE779  LEU786  VAL792 
 PHE793  MET794  SER795  GLU796  ALA797  LYS798  CYS799  TRP800  GLU811  SER814 

> <Gold.Protein.RotatedAtoms>
  152.5291  133.9806  159.7804 H   0  0  0  0  0  0  0  0  0  0  0  0  # atno 6907 bound_to 6896
  151.0060  133.6002  159.2696 H   0  0  0  0  0  0  0  0  0  0  0  0  # atno 6908 bound_to 6896
  151.3094  135.0796  159.9320 H   0  0  0  0  0  0  0  0  0  0  0  0  # atno 6909 bound_to 6896
  144.8157  139.6796  143.6122 H   0  0  0  0  0  0  0  0  0  0  0  0  # atno 7974 bound_to 7965
  154.4880  140.2106  155.9611 H   0  0  0  0  0  0  0  0  0  0  0  0  # atno 8008 bound_to 7997
  156.1265  140.3204  155.8253 H   0  0  0  0  0  0  0  0  0  0  0  0  # atno 8009 bound_to 7997
  155.4375  140.0508  157.3004 H   0  0  0  0  0  0  0  0  0  0  0  0  # atno 8010 bound_to 7997
  140.1265  143.4397  152.1656 H   0  0  0  0  0  0  0  0  0  0  0  0  # atno 10167 bound_to 10162
  156.0842  130.6037  150.8799 H   0  0  0  0  0  0  0  0  0  0  0  0  # atno 10718 bound_to 10713
  154.8726  135.4056  154.3141 H   0  0  0  0  0  0  0  0  0  0  0  0  # atno 10763 bound_to 10752
  153.3980  135.7017  153.6452 H   0  0  0  0  0  0  0  0  0  0  0  0  # atno 10764 bound_to 10752
  153.5207  135.3688  155.2601 H   0  0  0  0  0  0  0  0  0  0  0  0  # atno 10765 bound_to 10752
  139.8981  134.9568  156.6893 H   0  0  0  0  0  0  0  0  0  0  0  0  # atno 11005 bound_to 11000
  146.2460  139.6098  142.9459 LP  0  0  0  0  0  0  0  0  0  0  0  0  # atno 17320 bound_to 7965
  145.5220  141.0431  143.2430 LP  0  0  0  0  0  0  0  0  0  0  0  0  # atno 17321 bound_to 7965
  139.5541  144.7360  151.4345 LP  0  0  0  0  0  0  0  0  0  0  0  0  # atno 17342 bound_to 10162
  140.6842  143.8013  150.7162 LP  0  0  0  0  0  0  0  0  0  0  0  0  # atno 17343 bound_to 10162
  157.5970  131.0942  150.9023 LP  0  0  0  0  0  0  0  0  0  0  0  0  # atno 17370 bound_to 10713
  156.9188  130.5307  149.5279 LP  0  0  0  0  0  0  0  0  0  0  0  0  # atno 17371 bound_to 10713
  140.7237  133.9118  155.8164 LP  0  0  0  0  0  0  0  0  0  0  0  0  # atno 17394 bound_to 11000
  141.0207  134.0893  157.4123 LP  0  0  0  0  0  0  0  0  0  0  0  0  # atno 17395 bound_to 11000

$$$$
