AV-unprocessed.smi:1362|AV-procd|sdf|5561|dock8
  -GOLD-   22720 5153D 1   1.00000     0.00000
 Structure written by MMmdl.
 39 39  0  0  0  0  0  0  0  0  1 V2000
  151.2726  137.9396  154.2542 C   0  0  0  0  0  0  0  0  0  0  0  0
  150.1504  138.9447  154.1098 C   0  0  0  0  0  0  0  0  0  0  0  0
  149.0198  138.4318  153.4957 N   0  0  0  0  0  0  0  0  0  0  0  0
  147.9372  139.2762  153.3237 C   0  0  0  0  0  0  0  0  0  0  0  0
  146.7380  138.6352  152.6465 C   0  0  0  0  0  0  0  0  0  0  0  0
  147.9784  140.5660  153.7443 C   0  0  0  0  0  0  0  0  0  0  0  0
  146.8010  141.5257  153.5781 C   0  0  0  0  0  0  0  0  0  0  0  0
  146.0657  141.9092  154.8649 C   0  0  0  0  0  0  0  0  0  0  0  0
  146.6550  142.5078  155.7651 O   0  0  0  0  0  0  0  0  0  0  0  0
  144.7745  141.5511  154.9377 N   0  0  0  0  0  0  0  0  0  0  0  0
  143.8898  141.7789  156.0798 C   0  0  1  0  0  0  0  0  0  0  0  0
  143.7814  143.2954  156.3295 C   0  0  0  0  0  0  0  0  0  0  0  0
  142.5172  141.0971  155.8366 C   0  0  0  0  0  0  0  0  0  0  0  0
  141.4997  141.4131  156.9480 C   0  0  0  0  0  0  0  0  0  0  0  0
  142.6438  139.5690  155.6771 C   0  0  0  0  0  0  0  0  0  0  0  0
  149.2148  141.0567  154.3979 C   0  0  0  0  0  0  0  0  0  0  0  0
  149.3108  142.2117  154.8105 O   0  0  0  0  0  0  0  0  0  0  0  0
  150.2865  140.1607  154.5437 N   0  0  0  0  0  0  0  0  0  0  0  0
  148.9449  137.4779  153.1731 H   0  0  0  0  0  0  0  0  0  0  0  0
  152.1932  138.4270  154.5774 H   0  0  0  0  0  0  0  0  0  0  0  0
  151.4676  137.4424  153.3034 H   0  0  0  0  0  0  0  0  0  0  0  0
  151.0088  137.1832  154.9938 H   0  0  0  0  0  0  0  0  0  0  0  0
  146.5156  139.1408  151.7065 H   0  0  0  0  0  0  0  0  0  0  0  0
  145.8588  138.6966  153.2883 H   0  0  0  0  0  0  0  0  0  0  0  0
  146.9169  137.5820  152.4260 H   0  0  0  0  0  0  0  0  0  0  0  0
  146.0856  141.0687  152.8932 H   0  0  0  0  0  0  0  0  0  0  0  0
  147.1154  142.4427  153.0791 H   0  0  0  0  0  0  0  0  0  0  0  0
  144.3755  141.0667  154.1469 H   0  0  0  0  0  0  0  0  0  0  0  0
  144.3365  141.3197  156.9639 H   0  0  0  0  0  0  0  0  0  0  0  0
  143.2400  143.5153  157.2488 H   0  0  0  0  0  0  0  0  0  0  0  0
  143.2687  143.7977  155.5083 H   0  0  0  0  0  0  0  0  0  0  0  0
  144.7673  143.7503  156.4307 H   0  0  0  0  0  0  0  0  0  0  0  0
  142.1082  141.4855  154.9027 H   0  0  0  0  0  0  0  0  0  0  0  0
  141.8736  141.1076  157.9259 H   0  0  0  0  0  0  0  0  0  0  0  0
  140.5573  140.8919  156.7769 H   0  0  0  0  0  0  0  0  0  0  0  0
  141.2654  142.4761  156.9945 H   0  0  0  0  0  0  0  0  0  0  0  0
  143.0888  139.1158  156.5635 H   0  0  0  0  0  0  0  0  0  0  0  0
  143.2591  139.2960  154.8195 H   0  0  0  0  0  0  0  0  0  0  0  0
  141.6673  139.1082  155.5249 H   0  0  0  0  0  0  0  0  0  0  0  0
  1 20  1  0  0  0  0
  1 21  1  0  0  0  0
  1 22  1  0  0  0  0
  1  2  1  0  0  0  0
  2  3  1  0  0  0  0
  2 18  2  0  0  0  0
  3  4  1  0  0  0  0
  3 19  1  0  0  0  0
  4  6  2  0  0  0  0
  4  5  1  0  0  0  0
  5 23  1  0  0  0  0
  5 24  1  0  0  0  0
  5 25  1  0  0  0  0
  6 16  1  0  0  0  0
  6  7  1  0  0  0  0
  7  8  1  0  0  0  0
  7 26  1  0  0  0  0
  7 27  1  0  0  0  0
  8  9  2  0  0  0  0
  8 10  1  0  0  0  0
 10 11  1  0  0  0  0
 10 28  1  0  0  0  0
 11 12  1  0  0  0  0
 11 13  1  0  0  0  0
 11 29  1  0  0  0  0
 12 30  1  0  0  0  0
 12 31  1  0  0  0  0
 12 32  1  0  0  0  0
 13 14  1  0  0  0  0
 13 15  1  0  0  0  0
 13 33  1  0  0  0  0
 14 34  1  0  0  0  0
 14 35  1  0  0  0  0
 14 36  1  0  0  0  0
 15 37  1  0  0  0  0
 15 38  1  0  0  0  0
 15 39  1  0  0  0  0
 16 17  2  0  0  0  0
 16 18  1  0  0  0  0
M  END
> <s_m_source_file>
AV-unprocessed.smi

> <i_m_source_file_index>
1362

> <i_lp_mmshare_version>
43012

> <i_f3d_flags>
0

> <s_epik_input>
W0NIM11jMW5jKFtDSDNdKWMoYyg9TylbbkhdMSlbQ0gyXUMoPU8pW05IXVtDQEhdKFtDSDNdKVtDSF0oW0NIM10pW0NIM10=

> <s_epik_cmdline>
J2VwaWtfcHl0aG9uJywgJy1waCcsICc3LjAnLCAnLXRuJywgJzgnLCAnLW1hJywgJzIwMCcsICctbWV0YWxfYmluZGluZycsICctaW1hZScsICc8aW5maWxlLm1hZT4nLCAnLW9tYWUnLCAnPG91dGZpbGUubWFlPic=

> <r_lp_tautomer_probability>
0.156392

> <r_epik_Ionization_Penalty>
0.0140737

> <r_epik_Ionization_Penalty_Charging>
0.0139511

> <r_epik_Ionization_Penalty_Neutral>
0.000122633

> <r_epik_State_Penalty>
1.53034

> <r_epik_Charging_Adjusted_Penalty>
1.54429

> <i_epik_Tot_Q>
0

> <i_epik_Tot_abs_Q>
0

> <r_epik_Metal_State_Penalty>
1.70655

> <b_epik_Metal_Only>
0

> <s_lp_Force_Field>
OPLS_2005

> <r_lp_Energy>
10.7391

> <b_lp_Chiralities_Consistent>
1

> <s_lp_Variant>
AV-unprocessed.smi:1362-4

> <Gold.Version>
5.8.1

> <Gold.Id.Protein>
6NUR|6NUR_protein|mol2

> <Gold.PLP.Fitness>
34.2235

> <Gold.PLP.PLP>
-25.4976

> <Gold.PLP.part.hbond>
-5.0000

> <Gold.PLP.part.metal>
0.0000

> <Gold.PLP.part.buried>
-1.1506

> <Gold.PLP.part.nonpolar>
-22.9656

> <Gold.PLP.part.repulsive>
3.8400

> <Gold.PLP.ligand.clash>
0.0000

> <Gold.PLP.ligand.torsion>
0.1490

> <Gold.PLP.Chemscore.Hbond>
3.0000

> <Gold.PLP.Chemscore.CHOScore>
0.0000

> <Gold.PLP.Chemscore.Metal>
0.0000

> <Gold.Chemscore.Hbonds>
donor molecule, donor type, donor heavy atom, donor atom, acceptor molecule, acceptor atom, score
      L1  H     3    19       P1  7948  1.00
      L1  H    10    28       P1 10175  1.00
      P1  H  7989  7998       L1    18  1.00

> <Gold.PLP.Chemscore.Internal.Correction>
0.0239

> <Gold.Rescore>
     Score         DG    S(hbond)    S(metal)    S(lipo)     H(rot)  DE(clash)    DE(int)     intcor
     10.43     -13.07       2.21        0.00      38.89       1.69       1.52       1.13       ----

> <Gold.Chemscore.Fitness>
10.4272

> <Gold.Chemscore.DG>
-13.0737

> <Gold.Chemscore.ZeroCoef>
-5.4800

> <Gold.Chemscore.Hbond>
2.2077

> <Gold.Chemscore.Metal>
0.0000

> <Gold.Chemscore.Lipo>
38.8944

> <Gold.Chemscore.Internal_Hbond>
0.0000

> <Gold.Chemscore.DEClash>
1.5214

> <Gold.Chemscore.DEInternal>
1.1251

> <Gold.Chemscore.Rot>
1.6916

> <Gold.Chemscore.Internal.Correction>
   9.000000E+99

> <Gold.Chemscore.Hbonds>
donor molecule, donor type, donor heavy atom, donor atom, acceptor molecule, acceptor atom, score
      L1  H     3    19       P1  7948  0.95
      L1  H    10    28       P1 10175  0.82
      P1  H  7989  7998       L1    18  0.20

> <Gold.Chemscore.Hbond.Weighted>
-7.3736

> <Gold.Chemscore.Metal.Weighted>
-0.0000

> <Gold.Chemscore.Lipo.Weighted>
-4.5506

> <Gold.Chemscore.Internal_Hbond.Weighted>
0.0000

> <Gold.Chemscore.DEClash.Weighted>
1.5214

> <Gold.Chemscore.DEInternal.Weighted>
1.1251

> <Gold.Chemscore.Rot.Weighted>
4.3305

> <Gold.Chemscore.Internal.Correction.Weighted>
   9.000000E+99

> <Gold.Protein.RotatedTorsions>
[ 6907 6896 6895 6894 ] final  -52.99 input  -60.11 | X-H torsion
[ 7974 7965 7964 7962 ] final   33.92 input  175.53 | X-H torsion
[ 8008 7997 7996 7995 ] final   26.93 input   59.86 | X-H torsion
[ 10167 10162 10161 10158 ] final  167.81 input  -65.29 | X-H torsion
[ 10718 10713 10712 10709 ] final -148.58 input   66.30 | X-H torsion
[ 10763 10752 10751 10750 ] final  -74.48 input  -60.55 | X-H torsion
[ 11005 11000 10999 10996 ] final  -67.40 input  -57.11 | X-H torsion

> <Gold.Protein.ActiveResidues>
 VAL166  LYS551  ARG553  GLY616  TRP617  ASP618  TYR619  PRO620  LYS621  CYS622 
 ASP623  PHE694  ASN695  SER759  ASP760  ASP761  ALA762  ILE779  LEU786  VAL792 
 PHE793  MET794  SER795  GLU796  ALA797  LYS798  CYS799  TRP800  GLU811  SER814 

> <Gold.Protein.RotatedAtoms>
  150.8467  134.7779  159.6975 H   0  0  0  0  0  0  0  0  0  0  0  0  # atno 6907 bound_to 6896
  152.4542  134.5324  159.9825 H   0  0  0  0  0  0  0  0  0  0  0  0  # atno 6908 bound_to 6896
  151.5453  133.3388  159.2978 H   0  0  0  0  0  0  0  0  0  0  0  0  # atno 6909 bound_to 6896
  146.1388  139.6334  142.9177 H   0  0  0  0  0  0  0  0  0  0  0  0  # atno 7974 bound_to 7965
  155.0350  140.3163  155.4744 H   0  0  0  0  0  0  0  0  0  0  0  0  # atno 8008 bound_to 7997
  156.2866  140.2173  156.5416 H   0  0  0  0  0  0  0  0  0  0  0  0  # atno 8009 bound_to 7997
  154.7338  140.0479  157.0738 H   0  0  0  0  0  0  0  0  0  0  0  0  # atno 8010 bound_to 7997
  139.4953  144.3882  151.9547 H   0  0  0  0  0  0  0  0  0  0  0  0  # atno 10167 bound_to 10162
  156.4221  130.8034  151.2257 H   0  0  0  0  0  0  0  0  0  0  0  0  # atno 10718 bound_to 10713
  154.4736  135.5863  153.6339 H   0  0  0  0  0  0  0  0  0  0  0  0  # atno 10763 bound_to 10752
  152.9838  135.6073  154.3335 H   0  0  0  0  0  0  0  0  0  0  0  0  # atno 10764 bound_to 10752
  154.3219  135.2843  155.2494 H   0  0  0  0  0  0  0  0  0  0  0  0  # atno 10765 bound_to 10752
  141.1507  133.6718  156.6286 H   0  0  0  0  0  0  0  0  0  0  0  0  # atno 11005 bound_to 11000
  145.5095  141.0436  143.2495 LP  0  0  0  0  0  0  0  0  0  0  0  0  # atno 17320 bound_to 7965
  144.7769  139.6611  143.7171 LP  0  0  0  0  0  0  0  0  0  0  0  0  # atno 17321 bound_to 7965
  140.3319  144.3306  150.5985 LP  0  0  0  0  0  0  0  0  0  0  0  0  # atno 17342 bound_to 10162
  140.5638  143.2189  151.7719 LP  0  0  0  0  0  0  0  0  0  0  0  0  # atno 17343 bound_to 10162
  157.7508  131.0225  150.3793 LP  0  0  0  0  0  0  0  0  0  0  0  0  # atno 17370 bound_to 10713
  156.4113  130.3934  149.6890 LP  0  0  0  0  0  0  0  0  0  0  0  0  # atno 17371 bound_to 10713
  140.3484  134.7789  157.4449 LP  0  0  0  0  0  0  0  0  0  0  0  0  # atno 17394 bound_to 11000
  140.0881  134.5639  155.8472 LP  0  0  0  0  0  0  0  0  0  0  0  0  # atno 17395 bound_to 11000

$$$$
