AV-unprocessed.smi:1964|AV-procd|sdf|7929|dock10
  -GOLD-   2272010103D 1   1.00000     0.00000
 Structure written by MMmdl.
 46 48  0  0  0  0  0  0  0  0  1 V2000
  149.7726  137.7073  154.2780 C   0  0  0  0  0  0  0  0  0  0  0  0
  149.0736  139.0648  154.0864 C   0  0  1  0  0  0  0  0  0  0  0  0
  147.6227  139.0299  154.6133 C   0  0  0  0  0  0  0  0  0  0  0  0
  146.9060  140.3713  154.3874 C   0  0  0  0  0  0  0  0  0  0  0  0
  147.6883  141.5395  155.0074 C   0  0  0  0  0  0  0  0  0  0  0  0
  149.1362  141.5793  154.4860 C   0  0  0  0  0  0  0  0  0  0  0  0
  149.8678  140.2396  154.7094 C   0  0  1  0  0  0  0  0  0  0  0  0
  150.0710  140.0115  156.1360 N   0  0  0  0  0  0  0  0  0  0  0  0
  151.2394  139.8387  156.7739 C   0  0  0  0  0  0  0  0  0  0  0  0
  152.3269  139.8523  156.1995 O   0  0  0  0  0  0  0  0  0  0  0  0
  151.1881  139.6234  158.2979 C   0  0  0  0  0  0  0  0  0  0  0  0
  151.9389  140.6352  159.0800 N   0  0  0  0  0  0  0  0  0  0  0  0
  152.8974  140.1871  160.0253 C   0  0  0  0  0  0  0  0  0  0  0  0
  153.0891  138.9848  160.2139 O   0  0  0  0  0  0  0  0  0  0  0  0
  153.6280  141.2391  160.7278 C   0  0  0  0  0  0  0  0  0  0  0  0
  154.5693  140.8291  161.7168 C   0  0  0  0  0  0  0  0  0  0  0  0
  155.3159  140.4997  162.5374 N   0  0  0  0  0  0  0  0  0  0  0  0
  153.4193  142.5405  160.4410 C   0  0  0  0  0  0  0  0  0  0  0  0
  152.5266  142.9517  159.4756 N   0  0  0  0  0  0  0  0  0  0  0  0
  152.2406  144.3419  159.2602 C   0  0  0  0  0  0  0  0  0  0  0  0
  151.9585  145.2546  160.4386 C   0  0  0  0  0  0  0  0  0  0  0  0
  150.8376  144.8490  159.5146 C   0  0  0  0  0  0  0  0  0  0  0  0
  151.7176  142.0076  158.8073 C   0  0  0  0  0  0  0  0  0  0  0  0
  150.8570  142.3626  157.9983 O   0  0  0  0  0  0  0  0  0  0  0  0
  149.8308  137.4263  155.3299 H   0  0  0  0  0  0  0  0  0  0  0  0
  150.7886  137.7307  153.8836 H   0  0  0  0  0  0  0  0  0  0  0  0
  149.2356  136.9150  153.7565 H   0  0  0  0  0  0  0  0  0  0  0  0
  149.0241  139.2442  153.0111 H   0  0  0  0  0  0  0  0  0  0  0  0
  147.0664  138.2346  154.1161 H   0  0  0  0  0  0  0  0  0  0  0  0
  147.6154  138.7865  155.6771 H   0  0  0  0  0  0  0  0  0  0  0  0
  146.7841  140.5429  153.3172 H   0  0  0  0  0  0  0  0  0  0  0  0
  145.9017  140.3312  154.8099 H   0  0  0  0  0  0  0  0  0  0  0  0
  147.1879  142.4816  154.7824 H   0  0  0  0  0  0  0  0  0  0  0  0
  147.6877  141.4449  156.0943 H   0  0  0  0  0  0  0  0  0  0  0  0
  149.1263  141.8088  153.4197 H   0  0  0  0  0  0  0  0  0  0  0  0
  149.6822  142.3932  154.9648 H   0  0  0  0  0  0  0  0  0  0  0  0
  150.8411  140.2910  154.2179 H   0  0  0  0  0  0  0  0  0  0  0  0
  149.2339  139.9820  156.6994 H   0  0  0  0  0  0  0  0  0  0  0  0
  150.1405  139.5976  158.6009 H   0  0  0  0  0  0  0  0  0  0  0  0
  151.5463  138.6155  158.5127 H   0  0  0  0  0  0  0  0  0  0  0  0
  153.9807  143.2910  160.9789 H   0  0  0  0  0  0  0  0  0  0  0  0
  152.7641  144.7987  158.4224 H   0  0  0  0  0  0  0  0  0  0  0  0
  151.9556  144.8231  161.4377 H   0  0  0  0  0  0  0  0  0  0  0  0
  152.3180  146.2795  160.3754 H   0  0  0  0  0  0  0  0  0  0  0  0
  150.4471  145.6050  158.8364 H   0  0  0  0  0  0  0  0  0  0  0  0
  150.1011  144.1491  159.9051 H   0  0  0  0  0  0  0  0  0  0  0  0
  1  2  1  0  0  0  0
  1 25  1  0  0  0  0
  1 26  1  0  0  0  0
  1 27  1  0  0  0  0
  2  7  1  0  0  0  0
  2  3  1  0  0  0  0
  2 28  1  0  0  0  0
  3  4  1  0  0  0  0
  3 29  1  0  0  0  0
  3 30  1  0  0  0  0
  4  5  1  0  0  0  0
  4 31  1  0  0  0  0
  4 32  1  0  0  0  0
  5  6  1  0  0  0  0
  5 33  1  0  0  0  0
  5 34  1  0  0  0  0
  6  7  1  0  0  0  0
  6 35  1  0  0  0  0
  6 36  1  0  0  0  0
  7  8  1  0  0  0  0
  7 37  1  0  0  0  0
  8  9  1  0  0  0  0
  8 38  1  0  0  0  0
  9 10  2  0  0  0  0
  9 11  1  0  0  0  0
 11 12  1  0  0  0  0
 11 39  1  0  0  0  0
 11 40  1  0  0  0  0
 12 23  1  0  0  0  0
 12 13  1  0  0  0  0
 13 14  2  0  0  0  0
 13 15  1  0  0  0  0
 15 16  1  0  0  0  0
 15 18  2  0  0  0  0
 16 17  3  0  0  0  0
 18 19  1  0  0  0  0
 18 41  1  0  0  0  0
 19 20  1  0  0  0  0
 19 23  1  0  0  0  0
 20 22  1  0  0  0  0
 20 21  1  0  0  0  0
 20 42  1  0  0  0  0
 21 22  1  0  0  0  0
 21 43  1  0  0  0  0
 21 44  1  0  0  0  0
 22 45  1  0  0  0  0
 22 46  1  0  0  0  0
 23 24  2  0  0  0  0
M  END
> <s_m_source_file>
AV-unprocessed.smi

> <i_m_source_file_index>
1964

> <i_lp_mmshare_version>
43012

> <i_f3d_flags>
0

> <s_epik_input>
W0NIM11bQ0BASF0xW0NIMl1bQ0gyXVtDSDJdW0NIMl1bQ0BIXTFbTkhdQyg9TylbQ0gyXW4yYyg9TyljKEMjTilbY0hdbihjMj1PKVtDSF0zW0NIMl1bQ0gyXTM=

> <s_epik_cmdline>
J2VwaWtfcHl0aG9uJywgJy1waCcsICc3LjAnLCAnLXRuJywgJzgnLCAnLW1hJywgJzIwMCcsICctbWV0YWxfYmluZGluZycsICctaW1hZScsICc8aW5maWxlLm1hZT4nLCAnLW9tYWUnLCAnPG91dGZpbGUubWFlPic=

> <r_lp_tautomer_probability>
1

> <r_epik_Ionization_Penalty>
1.91372e-08

> <r_epik_Ionization_Penalty_Charging>
9.0283e-11

> <r_epik_Ionization_Penalty_Neutral>
1.90469e-08

> <r_epik_State_Penalty>
-0

> <r_epik_Charging_Adjusted_Penalty>
9.0283e-11

> <i_epik_Tot_Q>
0

> <i_epik_Tot_abs_Q>
0

> <r_epik_Metal_State_Penalty>
-0

> <b_epik_Metal_Only>
0

> <s_lp_Force_Field>
OPLS_2005

> <r_lp_Energy>
33.6562

> <b_lp_Chiralities_Consistent>
1

> <s_lp_Variant>
AV-unprocessed.smi:1964-2

> <Gold.Version>
5.8.1

> <Gold.Id.Protein>
6NUR|6NUR_protein|mol2

> <Gold.PLP.Fitness>
50.0214

> <Gold.PLP.PLP>
-47.2243

> <Gold.PLP.part.hbond>
-2.0000

> <Gold.PLP.part.metal>
0.0000

> <Gold.PLP.part.buried>
0.0117

> <Gold.PLP.part.nonpolar>
-44.6891

> <Gold.PLP.part.repulsive>
0.1194

> <Gold.PLP.ligand.clash>
0.0000

> <Gold.PLP.ligand.torsion>
0.1951

> <Gold.PLP.Chemscore.Hbond>
1.0000

> <Gold.PLP.Chemscore.CHOScore>
0.0000

> <Gold.PLP.Chemscore.Metal>
0.0000

> <Gold.Chemscore.Hbonds>
donor molecule, donor type, donor heavy atom, donor atom, acceptor molecule, acceptor atom, score
      P1  H  7997  8008       L1    10  0.94

> <Gold.PLP.Chemscore.Internal.Correction>
0.1873

> <Gold.Rescore>
     Score         DG    S(hbond)    S(metal)    S(lipo)     H(rot)  DE(clash)    DE(int)     intcor
     12.37     -16.05       1.00        0.00      99.13       1.70       0.91       2.77       ----

> <Gold.Chemscore.Fitness>
12.3708

> <Gold.Chemscore.DG>
-16.0529

> <Gold.Chemscore.ZeroCoef>
-5.4800

> <Gold.Chemscore.Hbond>
0.9991

> <Gold.Chemscore.Metal>
0.0000

> <Gold.Chemscore.Lipo>
99.1262

> <Gold.Chemscore.Internal_Hbond>
0.0000

> <Gold.Chemscore.DEClash>
0.9071

> <Gold.Chemscore.DEInternal>
2.7750

> <Gold.Chemscore.Rot>
1.7038

> <Gold.Chemscore.Internal.Correction>
   9.000000E+99

> <Gold.Chemscore.Hbonds>
donor molecule, donor type, donor heavy atom, donor atom, acceptor molecule, acceptor atom, score
      P1  H  7997  8008       L1    10  0.90

> <Gold.Chemscore.Hbond.Weighted>
-3.3369

> <Gold.Chemscore.Metal.Weighted>
-0.0000

> <Gold.Chemscore.Lipo.Weighted>
-11.5978

> <Gold.Chemscore.Internal_Hbond.Weighted>
0.0000

> <Gold.Chemscore.DEClash.Weighted>
0.9071

> <Gold.Chemscore.DEInternal.Weighted>
2.7750

> <Gold.Chemscore.Rot.Weighted>
4.3618

> <Gold.Chemscore.Internal.Correction.Weighted>
   9.000000E+99

> <Gold.Protein.RotatedTorsions>
[ 6907 6896 6895 6894 ] final  130.42 input  -60.11 | X-H torsion
[ 7974 7965 7964 7962 ] final  -89.24 input  175.53 | X-H torsion
[ 8008 7997 7996 7995 ] final  -31.06 input   59.86 | X-H torsion
[ 10167 10162 10161 10158 ] final  -13.08 input  -65.29 | X-H torsion
[ 10718 10713 10712 10709 ] final  114.31 input   66.30 | X-H torsion
[ 10763 10752 10751 10750 ] final  118.03 input  -60.55 | X-H torsion
[ 11005 11000 10999 10996 ] final -151.63 input  -57.11 | X-H torsion

> <Gold.Protein.ActiveResidues>
 VAL166  LYS551  ARG553  GLY616  TRP617  ASP618  TYR619  PRO620  LYS621  CYS622 
 ASP623  PHE694  ASN695  SER759  ASP760  ASP761  ALA762  ILE779  LEU786  VAL792 
 PHE793  MET794  SER795  GLU796  ALA797  LYS798  CYS799  TRP800  GLU811  SER814 

> <Gold.Protein.RotatedAtoms>
  152.3528  133.6200  159.5956 H   0  0  0  0  0  0  0  0  0  0  0  0  # atno 6907 bound_to 6896
  150.7549  133.9548  159.3506 H   0  0  0  0  0  0  0  0  0  0  0  0  # atno 6908 bound_to 6896
  151.7397  135.0858  160.0365 H   0  0  0  0  0  0  0  0  0  0  0  0  # atno 6909 bound_to 6896
  145.4425  140.9559  143.2067 H   0  0  0  0  0  0  0  0  0  0  0  0  # atno 7974 bound_to 7965
  154.4227  140.1774  156.1506 H   0  0  0  0  0  0  0  0  0  0  0  0  # atno 8008 bound_to 7997
  155.9918  140.3368  155.6736 H   0  0  0  0  0  0  0  0  0  0  0  0  # atno 8009 bound_to 7997
  155.6362  140.0675  157.2624 H   0  0  0  0  0  0  0  0  0  0  0  0  # atno 8010 bound_to 7997
  140.7175  143.5464  150.9350 H   0  0  0  0  0  0  0  0  0  0  0  0  # atno 10167 bound_to 10162
  157.6288  131.0997  150.7167 H   0  0  0  0  0  0  0  0  0  0  0  0  # atno 10718 bound_to 10713
  153.5614  135.3520  155.2801 H   0  0  0  0  0  0  0  0  0  0  0  0  # atno 10763 bound_to 10752
  154.8694  135.4137  154.2826 H   0  0  0  0  0  0  0  0  0  0  0  0  # atno 10764 bound_to 10752
  153.3573  135.7058  153.6810 H   0  0  0  0  0  0  0  0  0  0  0  0  # atno 10765 bound_to 10752
  140.7276  134.3658  157.5172 H   0  0  0  0  0  0  0  0  0  0  0  0  # atno 11005 bound_to 11000
  144.8112  139.5958  143.7028 LP  0  0  0  0  0  0  0  0  0  0  0  0  # atno 17320 bound_to 7965
  146.2548  139.6279  142.9402 LP  0  0  0  0  0  0  0  0  0  0  0  0  # atno 17321 bound_to 7965
  139.9188  143.6631  152.3101 LP  0  0  0  0  0  0  0  0  0  0  0  0  # atno 17342 bound_to 10162
  139.7040  144.7631  151.1224 LP  0  0  0  0  0  0  0  0  0  0  0  0  # atno 17343 bound_to 10162
  156.7511  130.4769  149.5456 LP  0  0  0  0  0  0  0  0  0  0  0  0  # atno 17370 bound_to 10713
  156.1478  130.6289  151.0555 LP  0  0  0  0  0  0  0  0  0  0  0  0  # atno 17371 bound_to 10713
  139.8834  134.8996  156.2771 LP  0  0  0  0  0  0  0  0  0  0  0  0  # atno 17394 bound_to 11000
  140.9949  133.7186  156.0871 LP  0  0  0  0  0  0  0  0  0  0  0  0  # atno 17395 bound_to 11000

$$$$
