AV-unprocessed.smi:1990|AV-procd|sdf|8066|dock2
  -GOLD-   2272010273D 1   1.00000     0.00000
 Structure written by MMmdl.
 46 47  0  0  0  0  0  0  0  0  1 V2000
  152.0726  145.3033  158.9508 C   0  0  0  0  0  0  0  0  0  0  0  0
  152.0186  143.8595  158.4404 C   0  0  1  0  0  0  0  0  0  0  0  0
  152.4103  142.8486  159.5334 C   0  0  0  0  0  0  0  0  0  0  0  0
  152.2216  141.4833  159.0538 N   0  0  0  0  0  0  0  0  0  0  0  0
  152.8452  140.4721  159.8158 C   0  0  0  0  0  0  0  0  0  0  0  0
  153.5292  140.8009  161.0097 C   0  0  0  0  0  0  0  0  0  0  0  0
  154.1473  139.7784  161.7547 C   0  0  0  0  0  0  0  0  0  0  0  0
  154.0757  138.4478  161.2820 C   0  0  0  0  0  0  0  0  0  0  0  0
  154.6383  137.3287  161.9518 N   0  0  0  0  0  0  0  0  0  0  0  0
  154.6210  136.0345  161.5818 C   0  0  0  0  0  0  0  0  0  0  0  0
  154.0422  135.6046  160.5842 O   0  0  0  0  0  0  0  0  0  0  0  0
  155.3591  135.0654  162.5160 C   0  0  1  0  0  0  0  0  0  0  0  0
  156.8803  135.2871  162.4861 C   0  0  0  0  0  0  0  0  0  0  0  0
  154.7278  135.2529  164.2493 S   0  0  0  0  0  0  0  0  0  0  0  0
  153.9921  133.6020  164.6082 C   0  0  0  0  0  0  0  0  0  0  0  0
  155.8854  135.4417  165.1369 O   0  0  0  0  0  0  0  0  0  0  0  0
  153.6433  136.2468  164.2589 O   0  0  0  0  0  0  0  0  0  0  0  0
  153.3628  138.2165  160.0892 C   0  0  0  0  0  0  0  0  0  0  0  0
  152.7710  139.1935  159.3714 N   0  0  0  0  0  0  0  0  0  0  0  0
  150.8729  141.2318  158.5505 C   0  0  0  0  0  0  0  0  0  0  0  0
  150.4720  142.2790  157.4930 C   0  0  2  0  0  0  0  0  0  0  0  0
  151.1500  142.0627  156.1283 C   0  0  0  0  0  0  0  0  0  0  0  0
  150.6866  143.5983  157.9995 O   0  0  0  0  0  0  0  0  0  0  0  0
  153.0761  145.5630  159.2888 H   0  0  0  0  0  0  0  0  0  0  0  0
  151.3883  145.4524  159.7867 H   0  0  0  0  0  0  0  0  0  0  0  0
  151.7950  146.0051  158.1639 H   0  0  0  0  0  0  0  0  0  0  0  0
  152.7075  143.7744  157.5997 H   0  0  0  0  0  0  0  0  0  0  0  0
  153.4405  143.0319  159.8359 H   0  0  0  0  0  0  0  0  0  0  0  0
  151.7912  142.9944  160.4196 H   0  0  0  0  0  0  0  0  0  0  0  0
  153.5966  141.8215  161.3558 H   0  0  0  0  0  0  0  0  0  0  0  0
  154.6511  140.0342  162.6738 H   0  0  0  0  0  0  0  0  0  0  0  0
  155.0625  137.5293  162.8458 H   0  0  0  0  0  0  0  0  0  0  0  0
  155.1528  134.0395  162.2088 H   0  0  0  0  0  0  0  0  0  0  0  0
  157.2731  135.2135  161.4713 H   0  0  0  0  0  0  0  0  0  0  0  0
  157.3928  134.5384  163.0905 H   0  0  0  0  0  0  0  0  0  0  0  0
  157.1509  136.2673  162.8808 H   0  0  0  0  0  0  0  0  0  0  0  0
  153.6634  133.5741  165.6470 H   0  0  0  0  0  0  0  0  0  0  0  0
  154.7384  132.8248  164.4459 H   0  0  0  0  0  0  0  0  0  0  0  0
  153.1332  133.4281  163.9606 H   0  0  0  0  0  0  0  0  0  0  0  0
  153.2677  137.2163  159.6922 H   0  0  0  0  0  0  0  0  0  0  0  0
  150.8035  140.2319  158.1201 H   0  0  0  0  0  0  0  0  0  0  0  0
  150.1748  141.2708  159.3879 H   0  0  0  0  0  0  0  0  0  0  0  0
  149.3981  142.1887  157.3282 H   0  0  0  0  0  0  0  0  0  0  0  0
  150.8562  141.1042  155.6998 H   0  0  0  0  0  0  0  0  0  0  0  0
  152.2372  142.0628  156.2011 H   0  0  0  0  0  0  0  0  0  0  0  0
  150.8605  142.8416  155.4225 H   0  0  0  0  0  0  0  0  0  0  0  0
  1  2  1  0  0  0  0
  1 24  1  0  0  0  0
  1 25  1  0  0  0  0
  1 26  1  0  0  0  0
  2 23  1  0  0  0  0
  2  3  1  0  0  0  0
  2 27  1  0  0  0  0
  3  4  1  0  0  0  0
  3 28  1  0  0  0  0
  3 29  1  0  0  0  0
  4  5  1  0  0  0  0
  4 20  1  0  0  0  0
  5 19  1  0  0  0  0
  5  6  2  0  0  0  0
  6  7  1  0  0  0  0
  6 30  1  0  0  0  0
  7  8  2  0  0  0  0
  7 31  1  0  0  0  0
  8  9  1  0  0  0  0
  8 18  1  0  0  0  0
  9 10  1  0  0  0  0
  9 32  1  0  0  0  0
 10 11  2  0  0  0  0
 10 12  1  0  0  0  0
 12 13  1  0  0  0  0
 12 14  1  0  0  0  0
 12 33  1  0  0  0  0
 13 34  1  0  0  0  0
 13 35  1  0  0  0  0
 13 36  1  0  0  0  0
 14 15  1  0  0  0  0
 14 16  2  0  0  0  0
 14 17  2  0  0  0  0
 15 37  1  0  0  0  0
 15 38  1  0  0  0  0
 15 39  1  0  0  0  0
 18 19  2  0  0  0  0
 18 40  1  0  0  0  0
 20 21  1  0  0  0  0
 20 41  1  0  0  0  0
 20 42  1  0  0  0  0
 21 22  1  0  0  0  0
 21 23  1  0  0  0  0
 21 43  1  0  0  0  0
 22 44  1  0  0  0  0
 22 45  1  0  0  0  0
 22 46  1  0  0  0  0
M  END
> <s_m_source_file>
AV-unprocessed.smi

> <i_m_source_file_index>
1990

> <i_lp_mmshare_version>
43012

> <i_f3d_flags>
0

> <s_epik_input>
W0NIM11bQ0BASF0xW0NIMl1OKFtDSDJdW0NASF0oTzEpW0NIM10pYzJbY0hdW2NIXWMoW2NIXW4yKVtOSF1DKD1PKVtDQEhdKFtDSDNdKVMoPU8pKD1PKVtDSDNd

> <s_epik_cmdline>
J2VwaWtfcHl0aG9uJywgJy1waCcsICc3LjAnLCAnLXRuJywgJzgnLCAnLW1hJywgJzIwMCcsICctbWV0YWxfYmluZGluZycsICctaW1hZScsICc8aW5maWxlLm1hZT4nLCAnLW9tYWUnLCAnPG91dGZpbGUubWFlPic=

> <r_lp_tautomer_probability>
1

> <r_epik_Ionization_Penalty>
0.000334888

> <r_epik_Ionization_Penalty_Charging>
0

> <r_epik_Ionization_Penalty_Neutral>
0.000334888

> <r_epik_State_Penalty>
0.000200905

> <r_epik_Charging_Adjusted_Penalty>
0.000200905

> <i_epik_Tot_Q>
0

> <i_epik_Tot_abs_Q>
0

> <r_epik_Metal_State_Penalty>
-0

> <b_epik_Metal_Only>
0

> <s_lp_Force_Field>
OPLS_2005

> <r_lp_Energy>
21.2348

> <b_lp_Chiralities_Consistent>
1

> <s_lp_Variant>
AV-unprocessed.smi:1990-6

> <Gold.Version>
5.8.1

> <Gold.Id.Protein>
6NUR|6NUR_protein|mol2

> <Gold.PLP.Fitness>
41.9660

> <Gold.PLP.PLP>
-39.4263

> <Gold.PLP.part.hbond>
-1.0000

> <Gold.PLP.part.metal>
0.0000

> <Gold.PLP.part.buried>
-6.9822

> <Gold.PLP.part.nonpolar>
-31.0836

> <Gold.PLP.part.repulsive>
0.3316

> <Gold.PLP.ligand.clash>
0.2232

> <Gold.PLP.ligand.torsion>
0.3650

> <Gold.PLP.Chemscore.Hbond>
1.0000

> <Gold.PLP.Chemscore.CHOScore>
0.0000

> <Gold.PLP.Chemscore.Metal>
0.0000

> <Gold.Chemscore.Hbonds>
donor molecule, donor type, donor heavy atom, donor atom, acceptor molecule, acceptor atom, score
      P1  H  6896  6908       L1    11  1.00

> <Gold.PLP.Chemscore.Internal.Correction>
0.4928

> <Gold.Rescore>
     Score         DG    S(hbond)    S(metal)    S(lipo)     H(rot)  DE(clash)    DE(int)     intcor
     13.83     -16.82       1.00        0.00     101.63       1.52       0.03       2.97       ----

> <Gold.Chemscore.Fitness>
13.8284

> <Gold.Chemscore.DG>
-16.8237

> <Gold.Chemscore.ZeroCoef>
-5.4800

> <Gold.Chemscore.Hbond>
0.9996

> <Gold.Chemscore.Metal>
0.0000

> <Gold.Chemscore.Lipo>
101.6278

> <Gold.Chemscore.Internal_Hbond>
0.0000

> <Gold.Chemscore.DEClash>
0.0284

> <Gold.Chemscore.DEInternal>
2.9669

> <Gold.Chemscore.Rot>
1.5177

> <Gold.Chemscore.Internal.Correction>
   9.000000E+99

> <Gold.Chemscore.Hbonds>
donor molecule, donor type, donor heavy atom, donor atom, acceptor molecule, acceptor atom, score
      P1  H  6896  6908       L1    11  1.00

> <Gold.Chemscore.Hbond.Weighted>
-3.3385

> <Gold.Chemscore.Metal.Weighted>
-0.0000

> <Gold.Chemscore.Lipo.Weighted>
-11.8905

> <Gold.Chemscore.Internal_Hbond.Weighted>
0.0000

> <Gold.Chemscore.DEClash.Weighted>
0.0284

> <Gold.Chemscore.DEInternal.Weighted>
2.9669

> <Gold.Chemscore.Rot.Weighted>
3.8853

> <Gold.Chemscore.Internal.Correction.Weighted>
   9.000000E+99

> <Gold.Protein.RotatedTorsions>
[ 6907 6896 6895 6894 ] final  -59.82 input  -60.11 | X-H torsion
[ 7974 7965 7964 7962 ] final   29.44 input  175.53 | X-H torsion
[ 8008 7997 7996 7995 ] final -101.89 input   59.86 | X-H torsion
[ 10167 10162 10161 10158 ] final  -54.93 input  -65.29 | X-H torsion
[ 10718 10713 10712 10709 ] final  -39.14 input   66.30 | X-H torsion
[ 10763 10752 10751 10750 ] final   77.42 input  -60.55 | X-H torsion
[ 11005 11000 10999 10996 ] final  109.24 input  -57.11 | X-H torsion

> <Gold.Protein.ActiveResidues>
 VAL166  LYS551  ARG553  GLY616  TRP617  ASP618  TYR619  PRO620  LYS621  CYS622 
 ASP623  PHE694  ASN695  SER759  ASP760  ASP761  ALA762  ILE779  LEU786  VAL792 
 PHE793  MET794  SER795  GLU796  ALA797  LYS798  CYS799  TRP800  GLU811  SER814 

> <Gold.Protein.RotatedAtoms>
  150.7901  134.6918  159.6500 H   0  0  0  0  0  0  0  0  0  0  0  0  # atno 6907 bound_to 6896
  152.4005  134.6290  160.0080 H   0  0  0  0  0  0  0  0  0  0  0  0  # atno 6908 bound_to 6896
  151.6563  133.3282  159.3200 H   0  0  0  0  0  0  0  0  0  0  0  0  # atno 6909 bound_to 6896
  146.1671  139.6922  142.8993 H   0  0  0  0  0  0  0  0  0  0  0  0  # atno 7974 bound_to 7965
  154.8490  140.0431  157.1591 H   0  0  0  0  0  0  0  0  0  0  0  0  # atno 8008 bound_to 7997
  154.8963  140.2994  155.5322 H   0  0  0  0  0  0  0  0  0  0  0  0  # atno 8009 bound_to 7997
  156.2995  140.2384  156.3986 H   0  0  0  0  0  0  0  0  0  0  0  0  # atno 8010 bound_to 7997
  140.6403  143.2504  151.5007 H   0  0  0  0  0  0  0  0  0  0  0  0  # atno 10167 bound_to 10162
  156.2958  130.4234  149.8192 H   0  0  0  0  0  0  0  0  0  0  0  0  # atno 10718 bound_to 10713
  153.0797  135.4915  154.8478 H   0  0  0  0  0  0  0  0  0  0  0  0  # atno 10763 bound_to 10752
  154.7135  135.3024  154.9163 H   0  0  0  0  0  0  0  0  0  0  0  0  # atno 10764 bound_to 10752
  153.9849  135.6785  153.4804 H   0  0  0  0  0  0  0  0  0  0  0  0  # atno 10765 bound_to 10752
  139.8858  134.9453  156.6095 H   0  0  0  0  0  0  0  0  0  0  0  0  # atno 11005 bound_to 11000
  145.4438  141.0424  143.2843 LP  0  0  0  0  0  0  0  0  0  0  0  0  # atno 17320 bound_to 7965
  144.8109  139.5965  143.7030 LP  0  0  0  0  0  0  0  0  0  0  0  0  # atno 17321 bound_to 7965
  139.5612  144.2151  152.1695 LP  0  0  0  0  0  0  0  0  0  0  0  0  # atno 17342 bound_to 10162
  140.1419  144.5194  150.6739 LP  0  0  0  0  0  0  0  0  0  0  0  0  # atno 17343 bound_to 10162
  156.5588  130.8374  151.3322 LP  0  0  0  0  0  0  0  0  0  0  0  0  # atno 17370 bound_to 10713
  157.7355  130.9763  150.2084 LP  0  0  0  0  0  0  0  0  0  0  0  0  # atno 17371 bound_to 10713
  140.7822  133.8650  155.8577 LP  0  0  0  0  0  0  0  0  0  0  0  0  # atno 17394 bound_to 11000
  140.9750  134.1481  157.4544 LP  0  0  0  0  0  0  0  0  0  0  0  0  # atno 17395 bound_to 11000

$$$$
