AV-unprocessed.smi:339|AV-procd|sdf|2379|dock9
  -GOLD-   2262022303D 1   1.00000     0.00000
 Structure written by MMmdl.
 45 46  0  0  0  0  0  0  0  0  1 V2000
  153.2992  141.4287  160.6605 C   0  0  0  0  0  0  0  0  0  0  0  0
  152.6774  142.2015  159.5123 C   0  0  0  0  0  0  0  0  0  0  0  0
  153.0770  143.5327  159.2742 C   0  0  0  0  0  0  0  0  0  0  0  0
  152.5039  144.2671  158.2196 C   0  0  0  0  0  0  0  0  0  0  0  0
  151.5224  143.6763  157.4025 C   0  0  0  0  0  0  0  0  0  0  0  0
  151.1146  142.3460  157.6315 C   0  0  0  0  0  0  0  0  0  0  0  0
  150.0456  141.7281  156.7490 C   0  0  0  0  0  0  0  0  0  0  0  0
  151.7042  141.6002  158.6797 C   0  0  0  0  0  0  0  0  0  0  0  0
  151.3153  140.3045  158.9012 O   0  0  0  0  0  0  0  0  0  0  0  0
  151.6417  139.4247  157.8353 C   0  0  0  0  0  0  0  0  0  0  0  0
  150.8594  138.1138  158.0119 C   0  0  1  0  0  0  0  0  0  0  0  0
  151.5884  137.3133  158.9222 O   0  0  0  0  0  0  0  0  0  0  0  0
  149.4568  138.3589  158.6119 C   0  0  0  0  0  0  0  0  0  0  0  0
  148.8892  137.1403  159.2012 N   0  0  0  0  0  0  0  0  0  0  0  0
  148.4298  137.3049  160.4926 N   0  0  0  0  0  0  0  0  0  0  0  0
  147.9148  136.3214  161.1545 C   0  0  0  0  0  0  0  0  0  0  0  0
  147.4485  136.6203  162.5537 C   0  0  0  0  0  0  0  0  0  0  0  0
  147.8123  135.0055  160.5314 C   0  0  0  0  0  0  0  0  0  0  0  0
  147.1973  133.8838  161.3571 C   0  0  0  0  0  0  0  0  0  0  0  0
  148.2585  134.8592  159.2586 C   0  0  0  0  0  0  0  0  0  0  0  0
  148.1878  133.6145  158.5638 C   0  0  0  0  0  0  0  0  0  0  0  0
  148.1386  132.5954  158.0168 N   0  0  0  0  0  0  0  0  0  0  0  0
  148.8459  135.9688  158.5044 C   0  0  0  0  0  0  0  0  0  0  0  0
  149.2689  135.8673  157.3518 O   0  0  0  0  0  0  0  0  0  0  0  0
  153.7254  142.1041  161.4027 H   0  0  0  0  0  0  0  0  0  0  0  0
  154.0947  140.7808  160.2931 H   0  0  0  0  0  0  0  0  0  0  0  0
  152.5543  140.8104  161.1621 H   0  0  0  0  0  0  0  0  0  0  0  0
  153.8248  143.9963  159.9010 H   0  0  0  0  0  0  0  0  0  0  0  0
  152.8134  145.2862  158.0406 H   0  0  0  0  0  0  0  0  0  0  0  0
  151.0822  144.2495  156.6000 H   0  0  0  0  0  0  0  0  0  0  0  0
  149.3508  141.1316  157.3410 H   0  0  0  0  0  0  0  0  0  0  0  0
  150.5008  141.0823  155.9982 H   0  0  0  0  0  0  0  0  0  0  0  0
  149.4695  142.4967  156.2331 H   0  0  0  0  0  0  0  0  0  0  0  0
  151.4490  139.8708  156.8577 H   0  0  0  0  0  0  0  0  0  0  0  0
  152.7127  139.2254  157.8854 H   0  0  0  0  0  0  0  0  0  0  0  0
  150.7805  137.6062  157.0496 H   0  0  0  0  0  0  0  0  0  0  0  0
  151.0661  137.1911  159.7000 H   0  0  0  0  0  0  0  0  0  0  0  0
  149.4883  139.1694  159.3429 H   0  0  0  0  0  0  0  0  0  0  0  0
  148.7768  138.7142  157.8354 H   0  0  0  0  0  0  0  0  0  0  0  0
  146.4128  136.3098  162.6924 H   0  0  0  0  0  0  0  0  0  0  0  0
  147.5045  137.6856  162.7821 H   0  0  0  0  0  0  0  0  0  0  0  0
  148.0616  136.0931  163.2851 H   0  0  0  0  0  0  0  0  0  0  0  0
  147.3052  132.9124  160.8757 H   0  0  0  0  0  0  0  0  0  0  0  0
  146.1324  134.0637  161.5064 H   0  0  0  0  0  0  0  0  0  0  0  0
  147.6754  133.8128  162.3346 H   0  0  0  0  0  0  0  0  0  0  0  0
  1  2  1  0  0  0  0
  1 25  1  0  0  0  0
  1 26  1  0  0  0  0
  1 27  1  0  0  0  0
  2  8  1  0  0  0  0
  2  3  2  0  0  0  0
  3  4  1  0  0  0  0
  3 28  1  0  0  0  0
  4  5  2  0  0  0  0
  4 29  1  0  0  0  0
  5  6  1  0  0  0  0
  5 30  1  0  0  0  0
  6  7  1  0  0  0  0
  6  8  2  0  0  0  0
  7 31  1  0  0  0  0
  7 32  1  0  0  0  0
  7 33  1  0  0  0  0
  8  9  1  0  0  0  0
  9 10  1  0  0  0  0
 10 11  1  0  0  0  0
 10 34  1  0  0  0  0
 10 35  1  0  0  0  0
 11 12  1  0  0  0  0
 11 13  1  0  0  0  0
 11 36  1  0  0  0  0
 12 37  1  0  0  0  0
 13 14  1  0  0  0  0
 13 38  1  0  0  0  0
 13 39  1  0  0  0  0
 14 23  1  0  0  0  0
 14 15  1  0  0  0  0
 15 16  2  0  0  0  0
 16 17  1  0  0  0  0
 16 18  1  0  0  0  0
 17 40  1  0  0  0  0
 17 41  1  0  0  0  0
 17 42  1  0  0  0  0
 18 19  1  0  0  0  0
 18 20  2  0  0  0  0
 19 43  1  0  0  0  0
 19 44  1  0  0  0  0
 19 45  1  0  0  0  0
 20 21  1  0  0  0  0
 20 23  1  0  0  0  0
 21 22  3  0  0  0  0
 23 24  2  0  0  0  0
M  END
> <s_m_source_file>
AV-unprocessed.smi

> <i_m_source_file_index>
339

> <i_lp_mmshare_version>
43012

> <i_f3d_flags>
0

> <s_epik_input>
W0NIM11jMVtjSF1bY0hdW2NIXWMoW0NIM10pYzFPW0NIMl1bQ0BIXShbT0hdKVtDSDJdbjJuYyhbQ0gzXSljKFtDSDNdKWMoQyNOKWMyPU8=

> <s_epik_cmdline>
J2VwaWtfcHl0aG9uJywgJy1waCcsICc3LjAnLCAnLXRuJywgJzgnLCAnLW1hJywgJzIwMCcsICctbWV0YWxfYmluZGluZycsICctaW1hZScsICc8aW5maWxlLm1hZT4nLCAnLW9tYWUnLCAnPG91dGZpbGUubWFlPic=

> <r_lp_tautomer_probability>
1

> <r_epik_Ionization_Penalty>
1.17331e-07

> <r_epik_Ionization_Penalty_Charging>
1.57223e-10

> <r_epik_Ionization_Penalty_Neutral>
1.17174e-07

> <r_epik_State_Penalty>
-0

> <r_epik_Charging_Adjusted_Penalty>
1.57223e-10

> <i_epik_Tot_Q>
0

> <i_epik_Tot_abs_Q>
0

> <r_epik_Metal_State_Penalty>
-0

> <b_epik_Metal_Only>
0

> <s_lp_Force_Field>
OPLS_2005

> <r_lp_Energy>
35.8185

> <b_lp_Chiralities_Consistent>
1

> <s_lp_Variant>
AV-unprocessed.smi:339-2

> <Gold.Version>
5.8.1

> <Gold.Id.Protein>
6NUR|6NUR_protein|mol2

> <Gold.PLP.Fitness>
49.3587

> <Gold.PLP.PLP>
-47.4186

> <Gold.PLP.part.hbond>
-2.1188

> <Gold.PLP.part.metal>
0.0000

> <Gold.PLP.part.buried>
-4.9563

> <Gold.PLP.part.nonpolar>
-40.2516

> <Gold.PLP.part.repulsive>
0.0000

> <Gold.PLP.ligand.clash>
0.0000

> <Gold.PLP.ligand.torsion>
0.5672

> <Gold.PLP.Chemscore.Hbond>
0.9957

> <Gold.PLP.Chemscore.CHOScore>
0.0000

> <Gold.PLP.Chemscore.Metal>
0.0000

> <Gold.Chemscore.Hbonds>
donor molecule, donor type, donor heavy atom, donor atom, acceptor molecule, acceptor atom, score
      P1  H  6931  6943       L1    15  0.65
      P1  H  6934  6947       L1    15  0.37

> <Gold.PLP.Chemscore.Internal.Correction>
0.0874

> <Gold.Rescore>
     Score         DG    S(hbond)    S(metal)    S(lipo)     H(rot)  DE(clash)    DE(int)     intcor
     13.79     -15.31       0.35        0.00     124.13       2.29       0.00       1.52       ----

> <Gold.Chemscore.Fitness>
13.7920

> <Gold.Chemscore.DG>
-15.3100

> <Gold.Chemscore.ZeroCoef>
-5.4800

> <Gold.Chemscore.Hbond>
0.3503

> <Gold.Chemscore.Metal>
0.0000

> <Gold.Chemscore.Lipo>
124.1333

> <Gold.Chemscore.Internal_Hbond>
0.0000

> <Gold.Chemscore.DEClash>
0.0000

> <Gold.Chemscore.DEInternal>
1.5181

> <Gold.Chemscore.Rot>
2.2905

> <Gold.Chemscore.Internal.Correction>
   9.000000E+99

> <Gold.Chemscore.Hbonds>
donor molecule, donor type, donor heavy atom, donor atom, acceptor molecule, acceptor atom, score
      P1  H  6931  6943       L1    15  0.15
      P1  H  6934  6947       L1    15  0.21

> <Gold.Chemscore.Hbond.Weighted>
-1.1700

> <Gold.Chemscore.Metal.Weighted>
-0.0000

> <Gold.Chemscore.Lipo.Weighted>
-14.5236

> <Gold.Chemscore.Internal_Hbond.Weighted>
0.0000

> <Gold.Chemscore.DEClash.Weighted>
0.0000

> <Gold.Chemscore.DEInternal.Weighted>
1.5181

> <Gold.Chemscore.Rot.Weighted>
5.8636

> <Gold.Chemscore.Internal.Correction.Weighted>
   9.000000E+99

> <Gold.Protein.RotatedTorsions>
[ 6907 6896 6895 6894 ] final -105.24 input  -60.11 | X-H torsion
[ 7974 7965 7964 7962 ] final -160.84 input  175.53 | X-H torsion
[ 8008 7997 7996 7995 ] final   68.73 input   59.86 | X-H torsion
[ 10167 10162 10161 10158 ] final   80.39 input  -65.29 | X-H torsion
[ 10718 10713 10712 10709 ] final -148.79 input   66.30 | X-H torsion
[ 10763 10752 10751 10750 ] final  101.19 input  -60.55 | X-H torsion
[ 11005 11000 10999 10996 ] final   97.43 input  -57.11 | X-H torsion

> <Gold.Protein.ActiveResidues>
 VAL166  LYS551  ARG553  GLY616  TRP617  ASP618  TYR619  PRO620  LYS621  CYS622 
 ASP623  PHE694  ASN695  SER759  ASP760  ASP761  ALA762  ILE779  LEU786  VAL792 
 PHE793  MET794  SER795  GLU796  ALA797  LYS798  CYS799  TRP800  GLU811  SER814 

> <Gold.Protein.RotatedAtoms>
  150.7327  134.0156  159.3684 H   0  0  0  0  0  0  0  0  0  0  0  0  # atno 6907 bound_to 6896
  151.8118  135.0676  160.0423 H   0  0  0  0  0  0  0  0  0  0  0  0  # atno 6908 bound_to 6896
  152.3067  133.5674  159.5690 H   0  0  0  0  0  0  0  0  0  0  0  0  # atno 6909 bound_to 6896
  144.7412  140.3484  143.6120 H   0  0  0  0  0  0  0  0  0  0  0  0  # atno 7974 bound_to 7965
  155.7128  140.3494  155.4981 H   0  0  0  0  0  0  0  0  0  0  0  0  # atno 8008 bound_to 7997
  155.9340  140.1089  157.1131 H   0  0  0  0  0  0  0  0  0  0  0  0  # atno 8009 bound_to 7997
  154.4090  140.1225  156.4826 H   0  0  0  0  0  0  0  0  0  0  0  0  # atno 8010 bound_to 7997
  139.9503  144.6030  150.8167 H   0  0  0  0  0  0  0  0  0  0  0  0  # atno 10167 bound_to 10162
  156.4247  130.8046  151.2271 H   0  0  0  0  0  0  0  0  0  0  0  0  # atno 10718 bound_to 10713
  153.3235  135.4053  155.1437 H   0  0  0  0  0  0  0  0  0  0  0  0  # atno 10763 bound_to 10752
  154.8606  135.3593  154.5565 H   0  0  0  0  0  0  0  0  0  0  0  0  # atno 10764 bound_to 10752
  153.5999  135.7071  153.5447 H   0  0  0  0  0  0  0  0  0  0  0  0  # atno 10765 bound_to 10752
  139.8776  134.9000  156.4306 H   0  0  0  0  0  0  0  0  0  0  0  0  # atno 11005 bound_to 11000
  145.7301  139.1734  143.2435 LP  0  0  0  0  0  0  0  0  0  0  0  0  # atno 17320 bound_to 7965
  146.1212  140.7306  142.9456 LP  0  0  0  0  0  0  0  0  0  0  0  0  # atno 17321 bound_to 7965
  140.7585  143.3108  151.2850 LP  0  0  0  0  0  0  0  0  0  0  0  0  # atno 17342 bound_to 10162
  139.6634  144.0149  152.2707 LP  0  0  0  0  0  0  0  0  0  0  0  0  # atno 17343 bound_to 10162
  157.7508  131.0217  150.3761 LP  0  0  0  0  0  0  0  0  0  0  0  0  # atno 17370 bound_to 10713
  156.4085  130.3929  149.6908 LP  0  0  0  0  0  0  0  0  0  0  0  0  # atno 17371 bound_to 10713
  140.9069  133.7739  155.9746 LP  0  0  0  0  0  0  0  0  0  0  0  0  # atno 17394 bound_to 11000
  140.8589  134.2864  157.5243 LP  0  0  0  0  0  0  0  0  0  0  0  0  # atno 17395 bound_to 11000

$$$$
