AV-unprocessed.smi:15|AV-procd|sdf|81|dock6
  -GOLD-   2262015213D 1   1.00000     0.00000
 Structure written by MMmdl.
 53 56  0  0  0  0  0  0  0  0  1 V2000
  154.1445  140.7951  161.7679 C   0  0  0  0  0  0  0  0  0  0  0  0
  154.3047  140.4578  160.2793 C   0  0  0  0  0  0  0  0  0  0  0  0
  153.2662  141.0577  159.4363 N   0  0  0  0  0  0  0  0  0  0  0  0
  152.1894  141.8294  160.0631 C   0  0  0  0  0  0  0  0  0  0  0  0
  152.4352  143.3492  160.0387 C   0  0  2  0  0  0  0  0  0  0  0  0
  151.3925  144.1436  160.8203 C   0  0  0  0  0  0  0  0  0  0  0  0
  151.4627  145.5265  160.1934 C   0  0  0  0  0  0  0  0  0  0  0  0
  152.1560  145.2881  158.8486 C   0  0  0  0  0  0  0  0  0  0  0  0
  152.2717  143.8767  158.7319 O   0  0  0  0  0  0  0  0  0  0  0  0
  152.8828  140.3484  158.3421 C   0  0  0  0  0  0  0  0  0  0  0  0
  153.3708  139.0933  158.1488 N   0  0  0  0  0  0  0  0  0  0  0  0
  152.9794  138.3700  157.0961 C   0  0  0  0  0  0  0  0  0  0  0  0
  152.1246  138.7023  156.1276 N   0  0  0  0  0  0  0  0  0  0  0  0
  151.6397  139.9640  156.3071 C   0  0  0  0  0  0  0  0  0  0  0  0
  151.9598  140.8459  157.3784 C   0  0  0  0  0  0  0  0  0  0  0  0
  151.2705  142.0433  157.2247 N   0  0  0  0  0  0  0  0  0  0  0  0
  150.5746  141.8738  156.1340 C   0  0  0  0  0  0  0  0  0  0  0  0
  150.7463  140.6588  155.5103 N   0  0  0  0  0  0  0  0  0  0  0  0
  150.1000  140.2091  154.2867 C   0  0  0  0  0  0  0  0  0  0  0  0
  148.6146  139.7912  154.4618 C   0  0  2  0  0  0  0  0  0  0  0  0
  148.5727  138.5689  155.1771 O   0  0  0  0  0  0  0  0  0  0  0  0
  147.8596  139.6173  153.1485 C   0  0  0  0  0  0  0  0  0  0  0  0
  147.4187  141.0397  152.8425 C   0  0  0  0  0  0  0  0  0  0  0  0
  147.0518  141.5576  154.1125 O   0  0  0  0  0  0  0  0  0  0  0  0
  147.7985  140.9168  155.1482 C   0  0  1  0  0  0  0  0  0  0  0  0
  146.7794  140.4551  156.2043 C   0  0  0  0  0  0  0  0  0  0  0  0
  154.9851  140.4027  162.3402 H   0  0  0  0  0  0  0  0  0  0  0  0
  153.2378  140.3590  162.1867 H   0  0  0  0  0  0  0  0  0  0  0  0
  154.1093  141.8733  161.9265 H   0  0  0  0  0  0  0  0  0  0  0  0
  155.2816  140.8212  159.9567 H   0  0  0  0  0  0  0  0  0  0  0  0
  154.3141  139.3765  160.1403 H   0  0  0  0  0  0  0  0  0  0  0  0
  151.2380  141.5966  159.5860 H   0  0  0  0  0  0  0  0  0  0  0  0
  152.0691  141.5124  161.0980 H   0  0  0  0  0  0  0  0  0  0  0  0
  153.4317  143.5953  160.4107 H   0  0  0  0  0  0  0  0  0  0  0  0
  150.3999  143.7197  160.6601 H   0  0  0  0  0  0  0  0  0  0  0  0
  151.5860  144.1523  161.8934 H   0  0  0  0  0  0  0  0  0  0  0  0
  150.4680  145.9558  160.0716 H   0  0  0  0  0  0  0  0  0  0  0  0
  152.0514  146.2088  160.8077 H   0  0  0  0  0  0  0  0  0  0  0  0
  151.5972  145.7027  158.0094 H   0  0  0  0  0  0  0  0  0  0  0  0
  153.1525  145.7320  158.8468 H   0  0  0  0  0  0  0  0  0  0  0  0
  153.4112  137.3831  157.0203 H   0  0  0  0  0  0  0  0  0  0  0  0
  149.9188  142.6399  155.7460 H   0  0  0  0  0  0  0  0  0  0  0  0
  150.1767  141.0099  153.5498 H   0  0  0  0  0  0  0  0  0  0  0  0
  150.6842  139.3800  153.8857 H   0  0  0  0  0  0  0  0  0  0  0  0
  148.9601  137.8943  154.6409 H   0  0  0  0  0  0  0  0  0  0  0  0
  148.4377  139.1639  152.3450 H   0  0  0  0  0  0  0  0  0  0  0  0
  146.9726  138.9993  153.2983 H   0  0  0  0  0  0  0  0  0  0  0  0
  148.2431  141.6253  152.4340 H   0  0  0  0  0  0  0  0  0  0  0  0
  146.5877  141.0818  152.1386 H   0  0  0  0  0  0  0  0  0  0  0  0
  148.4649  141.6500  155.6049 H   0  0  0  0  0  0  0  0  0  0  0  0
  147.2734  139.9899  157.0579 H   0  0  0  0  0  0  0  0  0  0  0  0
  146.0729  139.7366  155.7876 H   0  0  0  0  0  0  0  0  0  0  0  0
  146.2048  141.3009  156.5822 H   0  0  0  0  0  0  0  0  0  0  0  0
  1  2  1  0  0  0  0
  1 27  1  0  0  0  0
  1 28  1  0  0  0  0
  1 29  1  0  0  0  0
  2  3  1  0  0  0  0
  2 30  1  0  0  0  0
  2 31  1  0  0  0  0
  3  4  1  0  0  0  0
  3 10  1  0  0  0  0
  4  5  1  0  0  0  0
  4 32  1  0  0  0  0
  4 33  1  0  0  0  0
  5  9  1  0  0  0  0
  5  6  1  0  0  0  0
  5 34  1  0  0  0  0
  6  7  1  0  0  0  0
  6 35  1  0  0  0  0
  6 36  1  0  0  0  0
  7  8  1  0  0  0  0
  7 37  1  0  0  0  0
  7 38  1  0  0  0  0
  8  9  1  0  0  0  0
  8 39  1  0  0  0  0
  8 40  1  0  0  0  0
 10 15  1  0  0  0  0
 10 11  2  0  0  0  0
 11 12  1  0  0  0  0
 12 13  2  0  0  0  0
 12 41  1  0  0  0  0
 13 14  1  0  0  0  0
 14 18  1  0  0  0  0
 14 15  2  0  0  0  0
 15 16  1  0  0  0  0
 16 17  2  0  0  0  0
 17 18  1  0  0  0  0
 17 42  1  0  0  0  0
 18 19  1  0  0  0  0
 19 20  1  0  0  0  0
 19 43  1  0  0  0  0
 19 44  1  0  0  0  0
 20 25  1  0  0  0  0
 20 21  1  0  0  0  0
 20 22  1  0  0  0  0
 21 45  1  0  0  0  0
 22 23  1  0  0  0  0
 22 46  1  0  0  0  0
 22 47  1  0  0  0  0
 23 24  1  0  0  0  0
 23 48  1  0  0  0  0
 23 49  1  0  0  0  0
 24 25  1  0  0  0  0
 25 26  1  0  0  0  0
 25 50  1  0  0  0  0
 26 51  1  0  0  0  0
 26 52  1  0  0  0  0
 26 53  1  0  0  0  0
M  END
> <s_m_source_file>
AV-unprocessed.smi

> <i_m_source_file_index>
15

> <i_lp_mmshare_version>
43012

> <i_f3d_flags>
0

> <s_epik_input>
TzFbQ0gyXVtDSDJdW0NIMl1bQ0BIXTFbQ0gyXU4oW0NIMl1bQ0gzXSljKG5bY0hdbjIpYyhjMjMpbltjSF1uM1tDSDJdW0NAQF00KFtPSF0pW0NIMl1bQ0gyXU9bQ0BIXTRbQ0gzXQ==

> <s_epik_cmdline>
J2VwaWtfcHl0aG9uJywgJy1waCcsICc3LjAnLCAnLXRuJywgJzgnLCAnLW1hJywgJzIwMCcsICctbWV0YWxfYmluZGluZycsICctaW1hZScsICc8aW5maWxlLm1hZT4nLCAnLW9tYWUnLCAnPG91dGZpbGUubWFlPic=

> <r_lp_tautomer_probability>
1

> <r_epik_Ionization_Penalty>
0.00360814

> <r_epik_Ionization_Penalty_Charging>
0

> <r_epik_Ionization_Penalty_Neutral>
0.00360814

> <r_epik_State_Penalty>
0.00237482

> <r_epik_Charging_Adjusted_Penalty>
0.00237482

> <i_epik_Tot_Q>
0

> <i_epik_Tot_abs_Q>
0

> <r_epik_Metal_State_Penalty>
-0

> <b_epik_Metal_Only>
0

> <s_lp_Force_Field>
OPLS_2005

> <r_lp_Energy>
47.2651

> <b_lp_Chiralities_Consistent>
1

> <s_lp_Variant>
AV-unprocessed.smi:15-3

> <Gold.Version>
5.8.1

> <Gold.Id.Protein>
6NUR|6NUR_protein|mol2

> <Gold.PLP.Fitness>
51.0017

> <Gold.PLP.PLP>
-48.5892

> <Gold.PLP.part.hbond>
-1.0000

> <Gold.PLP.part.metal>
0.0000

> <Gold.PLP.part.buried>
-4.7157

> <Gold.PLP.part.nonpolar>
-42.9321

> <Gold.PLP.part.repulsive>
0.2140

> <Gold.PLP.ligand.clash>
0.0000

> <Gold.PLP.ligand.torsion>
1.0063

> <Gold.PLP.Chemscore.Hbond>
0.1609

> <Gold.PLP.Chemscore.CHOScore>
1.0000

> <Gold.PLP.Chemscore.Metal>
0.0000

> <Gold.Chemscore.Hbonds>
donor molecule, donor type, donor heavy atom, donor atom, acceptor molecule, acceptor atom, score
      P1  H  7997  8008       L1    11  0.20
      L1  C    17    42       P1  8028  1.00

> <Gold.PLP.Chemscore.Internal.Correction>
0.9425

> <Gold.Rescore>
     Score         DG    S(hbond)    S(metal)    S(lipo)     H(rot)  DE(clash)    DE(int)     intcor
      8.59     -12.59       0.00        0.00     114.20       2.44       0.46       3.53       ----

> <Gold.Chemscore.Fitness>
8.5937

> <Gold.Chemscore.DG>
-12.5875

> <Gold.Chemscore.ZeroCoef>
-5.4800

> <Gold.Chemscore.Hbond>
0.0000

> <Gold.Chemscore.Metal>
0.0000

> <Gold.Chemscore.Lipo>
114.2042

> <Gold.Chemscore.Internal_Hbond>
0.0000

> <Gold.Chemscore.DEClash>
0.4608

> <Gold.Chemscore.DEInternal>
3.5329

> <Gold.Chemscore.Rot>
2.4431

> <Gold.Chemscore.Internal.Correction>
   9.000000E+99

> <Gold.Chemscore.Hbond.Weighted>
-0.0000

> <Gold.Chemscore.Metal.Weighted>
-0.0000

> <Gold.Chemscore.Lipo.Weighted>
-13.3619

> <Gold.Chemscore.Internal_Hbond.Weighted>
0.0000

> <Gold.Chemscore.DEClash.Weighted>
0.4608

> <Gold.Chemscore.DEInternal.Weighted>
3.5329

> <Gold.Chemscore.Rot.Weighted>
6.2544

> <Gold.Chemscore.Internal.Correction.Weighted>
   9.000000E+99

> <Gold.Protein.RotatedTorsions>
[ 6907 6896 6895 6894 ] final  -49.33 input  -60.11 | X-H torsion
[ 7974 7965 7964 7962 ] final   20.01 input  175.53 | X-H torsion
[ 8008 7997 7996 7995 ] final -106.07 input   59.86 | X-H torsion
[ 10167 10162 10161 10158 ] final  128.95 input  -65.29 | X-H torsion
[ 10718 10713 10712 10709 ] final  -70.38 input   66.30 | X-H torsion
[ 10763 10752 10751 10750 ] final   55.56 input  -60.55 | X-H torsion
[ 11005 11000 10999 10996 ] final  -45.41 input  -57.11 | X-H torsion

> <Gold.Protein.ActiveResidues>
 VAL166  LYS551  ARG553  GLY616  TRP617  ASP618  TYR619  PRO620  LYS621  CYS622 
 ASP623  PHE694  ASN695  SER759  ASP760  ASP761  ALA762  ILE779  LEU786  VAL792 
 PHE793  MET794  SER795  GLU796  ALA797  LYS798  CYS799  TRP800  GLU811  SER814 

> <Gold.Protein.RotatedAtoms>
  150.8816  134.8208  159.7228 H   0  0  0  0  0  0  0  0  0  0  0  0  # atno 6907 bound_to 6896
  152.4781  134.4787  159.9668 H   0  0  0  0  0  0  0  0  0  0  0  0  # atno 6908 bound_to 6896
  151.4861  133.3497  159.2881 H   0  0  0  0  0  0  0  0  0  0  0  0  # atno 6909 bound_to 6896
  146.2127  139.8230  142.8676 H   0  0  0  0  0  0  0  0  0  0  0  0  # atno 7974 bound_to 7965
  154.9091  140.0410  157.1936 H   0  0  0  0  0  0  0  0  0  0  0  0  # atno 8008 bound_to 7997
  154.8366  140.2907  155.5665 H   0  0  0  0  0  0  0  0  0  0  0  0  # atno 8009 bound_to 7997
  156.2990  140.2490  156.3301 H   0  0  0  0  0  0  0  0  0  0  0  0  # atno 8010 bound_to 7997
  139.5502  144.6806  151.4348 H   0  0  0  0  0  0  0  0  0  0  0  0  # atno 10167 bound_to 10162
  156.0410  130.4330  150.2287 H   0  0  0  0  0  0  0  0  0  0  0  0  # atno 10718 bound_to 10713
  152.9819  135.5706  154.5087 H   0  0  0  0  0  0  0  0  0  0  0  0  # atno 10763 bound_to 10752
  154.4594  135.2781  155.1725 H   0  0  0  0  0  0  0  0  0  0  0  0  # atno 10764 bound_to 10752
  154.3320  135.6247  153.5609 H   0  0  0  0  0  0  0  0  0  0  0  0  # atno 10765 bound_to 10752
  141.0514  133.6741  156.3010 H   0  0  0  0  0  0  0  0  0  0  0  0  # atno 11005 bound_to 11000
  145.3076  141.0211  143.3573 LP  0  0  0  0  0  0  0  0  0  0  0  0  # atno 17320 bound_to 7965
  144.8959  139.4712  143.6655 LP  0  0  0  0  0  0  0  0  0  0  0  0  # atno 17321 bound_to 7965
  140.6762  143.8184  150.7061 LP  0  0  0  0  0  0  0  0  0  0  0  0  # atno 17342 bound_to 10162
  140.1624  143.4264  152.2058 LP  0  0  0  0  0  0  0  0  0  0  0  0  # atno 17343 bound_to 10162
  157.0382  131.0027  151.3291 LP  0  0  0  0  0  0  0  0  0  0  0  0  # atno 17370 bound_to 10713
  157.5228  130.8009  149.7829 LP  0  0  0  0  0  0  0  0  0  0  0  0  # atno 17371 bound_to 10713
  140.6048  134.5518  157.5524 LP  0  0  0  0  0  0  0  0  0  0  0  0  # atno 17394 bound_to 11000
  139.9353  134.7886  156.0819 LP  0  0  0  0  0  0  0  0  0  0  0  0  # atno 17395 bound_to 11000

$$$$
