AV-unprocessed.smi:2148|AV-procd|sdf|8746|dock3
  -GOLD-   2272011523D 1   1.00000     0.00000
 Structure written by MMmdl.
 44 45  0  0  0  0  0  0  0  0  1 V2000
  147.6639  133.7646  153.9381 C   0  0  0  0  0  0  0  0  0  0  0  0
  148.1694  135.2700  154.8144 S   0  0  0  0  0  0  0  0  0  0  0  0
  149.9773  135.0752  154.8273 C   0  0  2  0  0  0  0  0  0  0  0  0
  150.3849  133.9671  155.8116 C   0  0  0  0  0  0  0  0  0  0  0  0
  150.6944  136.3936  155.1475 C   0  0  0  0  0  0  0  0  0  0  0  0
  151.4853  136.8719  154.3343 O   0  0  0  0  0  0  0  0  0  0  0  0
  150.4166  136.9325  156.3495 N   0  0  0  0  0  0  0  0  0  0  0  0
  150.9193  138.1313  156.9237 C   0  0  0  0  0  0  0  0  0  0  0  0
  151.4104  139.2288  156.1798 C   0  0  0  0  0  0  0  0  0  0  0  0
  151.8624  140.3712  156.8676 C   0  0  0  0  0  0  0  0  0  0  0  0
  151.8058  140.3978  158.2809 C   0  0  0  0  0  0  0  0  0  0  0  0
  152.2525  141.5353  158.9879 N   0  0  0  0  0  0  0  0  0  0  0  0
  151.6432  142.8026  158.5936 C   0  0  0  0  0  0  0  0  0  0  0  0
  152.4229  143.9865  159.1973 C   0  0  1  0  0  0  0  0  0  0  0  0
  151.7417  145.3288  158.9114 C   0  0  0  0  0  0  0  0  0  0  0  0
  152.5092  143.8215  160.6101 O   0  0  0  0  0  0  0  0  0  0  0  0
  153.2072  142.6349  160.9775 C   0  0  1  0  0  0  0  0  0  0  0  0
  153.3304  142.6012  162.5045 C   0  0  0  0  0  0  0  0  0  0  0  0
  152.4458  141.4129  160.4312 C   0  0  0  0  0  0  0  0  0  0  0  0
  151.3284  139.3456  158.9900 N   0  0  0  0  0  0  0  0  0  0  0  0
  150.8946  138.2534  158.3270 C   0  0  0  0  0  0  0  0  0  0  0  0
  146.5766  133.7044  153.8969 H   0  0  0  0  0  0  0  0  0  0  0  0
  148.0391  132.8791  154.4511 H   0  0  0  0  0  0  0  0  0  0  0  0
  148.0445  133.7651  152.9168 H   0  0  0  0  0  0  0  0  0  0  0  0
  150.2727  134.7493  153.8286 H   0  0  0  0  0  0  0  0  0  0  0  0
  151.4680  133.8422  155.8444 H   0  0  0  0  0  0  0  0  0  0  0  0
  149.9549  133.0094  155.5170 H   0  0  0  0  0  0  0  0  0  0  0  0
  150.0423  134.1829  156.8246 H   0  0  0  0  0  0  0  0  0  0  0  0
  149.8159  136.3851  156.9487 H   0  0  0  0  0  0  0  0  0  0  0  0
  151.4395  139.2251  155.1015 H   0  0  0  0  0  0  0  0  0  0  0  0
  152.2543  141.2054  156.3051 H   0  0  0  0  0  0  0  0  0  0  0  0
  151.6120  142.9136  157.5106 H   0  0  0  0  0  0  0  0  0  0  0  0
  150.6098  142.8161  158.9427 H   0  0  0  0  0  0  0  0  0  0  0  0
  153.4304  144.0135  158.7783 H   0  0  0  0  0  0  0  0  0  0  0  0
  151.6643  145.5089  157.8390 H   0  0  0  0  0  0  0  0  0  0  0  0
  152.3068  146.1530  159.3471 H   0  0  0  0  0  0  0  0  0  0  0  0
  150.7352  145.3573  159.3295 H   0  0  0  0  0  0  0  0  0  0  0  0
  154.2111  142.6636  160.5499 H   0  0  0  0  0  0  0  0  0  0  0  0
  153.8723  141.7147  162.8346 H   0  0  0  0  0  0  0  0  0  0  0  0
  152.3490  142.5904  162.9794 H   0  0  0  0  0  0  0  0  0  0  0  0
  153.8689  143.4755  162.8708 H   0  0  0  0  0  0  0  0  0  0  0  0
  151.4732  141.3266  160.9182 H   0  0  0  0  0  0  0  0  0  0  0  0
  153.0072  140.5057  160.6587 H   0  0  0  0  0  0  0  0  0  0  0  0
  150.5191  137.4478  158.9411 H   0  0  0  0  0  0  0  0  0  0  0  0
  1  2  1  0  0  0  0
  1 22  1  0  0  0  0
  1 23  1  0  0  0  0
  1 24  1  0  0  0  0
  2  3  1  0  0  0  0
  3  4  1  0  0  0  0
  3  5  1  0  0  0  0
  3 25  1  0  0  0  0
  4 26  1  0  0  0  0
  4 27  1  0  0  0  0
  4 28  1  0  0  0  0
  5  6  2  0  0  0  0
  5  7  1  0  0  0  0
  7  8  1  0  0  0  0
  7 29  1  0  0  0  0
  8 21  1  0  0  0  0
  8  9  2  0  0  0  0
  9 10  1  0  0  0  0
  9 30  1  0  0  0  0
 10 11  2  0  0  0  0
 10 31  1  0  0  0  0
 11 12  1  0  0  0  0
 11 20  1  0  0  0  0
 12 19  1  0  0  0  0
 12 13  1  0  0  0  0
 13 14  1  0  0  0  0
 13 32  1  0  0  0  0
 13 33  1  0  0  0  0
 14 15  1  0  0  0  0
 14 16  1  0  0  0  0
 14 34  1  0  0  0  0
 15 35  1  0  0  0  0
 15 36  1  0  0  0  0
 15 37  1  0  0  0  0
 16 17  1  0  0  0  0
 17 18  1  0  0  0  0
 17 19  1  0  0  0  0
 17 38  1  0  0  0  0
 18 39  1  0  0  0  0
 18 40  1  0  0  0  0
 18 41  1  0  0  0  0
 19 42  1  0  0  0  0
 19 43  1  0  0  0  0
 20 21  2  0  0  0  0
 21 44  1  0  0  0  0
M  END
> <s_m_source_file>
AV-unprocessed.smi

> <i_m_source_file_index>
2148

> <i_lp_mmshare_version>
43012

> <i_f3d_flags>
0

> <s_epik_input>
W0NIM11TW0NASF0oW0NIM10pQyg9TylbTkhdYzFbY0hdW2NIXWMobltjSF0xKU4yW0NIMl1bQ0BASF0oW0NIM10pT1tDQEBIXShbQ0gzXSlbQ0gyXTI=

> <s_epik_cmdline>
J2VwaWtfcHl0aG9uJywgJy1waCcsICc3LjAnLCAnLXRuJywgJzgnLCAnLW1hJywgJzIwMCcsICctbWV0YWxfYmluZGluZycsICctaW1hZScsICc8aW5maWxlLm1hZT4nLCAnLW9tYWUnLCAnPG91dGZpbGUubWFlPic=

> <r_lp_tautomer_probability>
1

> <r_epik_Ionization_Penalty>
0.000646494

> <r_epik_Ionization_Penalty_Charging>
0

> <r_epik_Ionization_Penalty_Neutral>
0.000646494

> <r_epik_State_Penalty>
0.000408447

> <r_epik_Charging_Adjusted_Penalty>
0.000408447

> <i_epik_Tot_Q>
0

> <i_epik_Tot_abs_Q>
0

> <r_epik_Metal_State_Penalty>
-0

> <b_epik_Metal_Only>
0

> <s_lp_Force_Field>
OPLS_2005

> <r_lp_Energy>
22.6119

> <b_lp_Chiralities_Consistent>
1

> <s_lp_Variant>
AV-unprocessed.smi:2148-1

> <Gold.Version>
5.8.1

> <Gold.Id.Protein>
6NUR|6NUR_protein|mol2

> <Gold.PLP.Fitness>
39.5910

> <Gold.PLP.PLP>
-37.0699

> <Gold.PLP.part.hbond>
-1.0000

> <Gold.PLP.part.metal>
0.0000

> <Gold.PLP.part.buried>
-6.2540

> <Gold.PLP.part.nonpolar>
-31.0483

> <Gold.PLP.part.repulsive>
0.8037

> <Gold.PLP.ligand.clash>
0.0000

> <Gold.PLP.ligand.torsion>
0.4176

> <Gold.PLP.Chemscore.Hbond>
1.0000

> <Gold.PLP.Chemscore.CHOScore>
0.0000

> <Gold.PLP.Chemscore.Metal>
0.0000

> <Gold.Chemscore.Hbonds>
donor molecule, donor type, donor heavy atom, donor atom, acceptor molecule, acceptor atom, score
      P1  H 10752 10765       L1     6  1.00

> <Gold.PLP.Chemscore.Internal.Correction>
0.3562

> <Gold.Rescore>
     Score         DG    S(hbond)    S(metal)    S(lipo)     H(rot)  DE(clash)    DE(int)     intcor
     16.44     -17.88       0.99        0.00     105.40       1.27       0.06       1.37       ----

> <Gold.Chemscore.Fitness>
16.4441

> <Gold.Chemscore.DG>
-17.8778

> <Gold.Chemscore.ZeroCoef>
-5.4800

> <Gold.Chemscore.Hbond>
0.9899

> <Gold.Chemscore.Metal>
0.0000

> <Gold.Chemscore.Lipo>
105.4036

> <Gold.Chemscore.Internal_Hbond>
0.0000

> <Gold.Chemscore.DEClash>
0.0613

> <Gold.Chemscore.DEInternal>
1.3725

> <Gold.Chemscore.Rot>
1.2659

> <Gold.Chemscore.Internal.Correction>
   9.000000E+99

> <Gold.Chemscore.Hbonds>
donor molecule, donor type, donor heavy atom, donor atom, acceptor molecule, acceptor atom, score
      P1  H 10752 10765       L1     6  0.40

> <Gold.Chemscore.Hbond.Weighted>
-3.3062

> <Gold.Chemscore.Metal.Weighted>
-0.0000

> <Gold.Chemscore.Lipo.Weighted>
-12.3322

> <Gold.Chemscore.Internal_Hbond.Weighted>
0.0000

> <Gold.Chemscore.DEClash.Weighted>
0.0613

> <Gold.Chemscore.DEInternal.Weighted>
1.3725

> <Gold.Chemscore.Rot.Weighted>
3.2406

> <Gold.Chemscore.Internal.Correction.Weighted>
   9.000000E+99

> <Gold.Protein.RotatedTorsions>
[ 6907 6896 6895 6894 ] final  -19.06 input  -60.11 | X-H torsion
[ 7974 7965 7964 7962 ] final   52.56 input  175.53 | X-H torsion
[ 8008 7997 7996 7995 ] final -117.23 input   59.86 | X-H torsion
[ 10167 10162 10161 10158 ] final   25.85 input  -65.29 | X-H torsion
[ 10718 10713 10712 10709 ] final   47.75 input   66.30 | X-H torsion
[ 10763 10752 10751 10750 ] final  168.35 input  -60.55 | X-H torsion
[ 11005 11000 10999 10996 ] final  148.65 input  -57.11 | X-H torsion

> <Gold.Protein.ActiveResidues>
 VAL166  LYS551  ARG553  GLY616  TRP617  ASP618  TYR619  PRO620  LYS621  CYS622 
 ASP623  PHE694  ASN695  SER759  ASP760  ASP761  ALA762  ILE779  LEU786  VAL792 
 PHE793  MET794  SER795  GLU796  ALA797  LYS798  CYS799  TRP800  GLU811  SER814 

> <Gold.Protein.RotatedAtoms>
  151.2688  135.0678  159.9126 H   0  0  0  0  0  0  0  0  0  0  0  0  # atno 6907 bound_to 6896
  152.5354  134.0152  159.7967 H   0  0  0  0  0  0  0  0  0  0  0  0  # atno 6908 bound_to 6896
  151.0387  133.5675  159.2684 H   0  0  0  0  0  0  0  0  0  0  0  0  # atno 6909 bound_to 6896
  145.9801  139.4234  143.0137 H   0  0  0  0  0  0  0  0  0  0  0  0  # atno 7974 bound_to 7965
  155.0803  140.0394  157.2637 H   0  0  0  0  0  0  0  0  0  0  0  0  # atno 8008 bound_to 7997
  154.6912  140.2653  155.6786 H   0  0  0  0  0  0  0  0  0  0  0  0  # atno 8009 bound_to 7997
  156.2729  140.2759  156.1490 H   0  0  0  0  0  0  0  0  0  0  0  0  # atno 8010 bound_to 7997
  140.5072  144.0219  150.6357 H   0  0  0  0  0  0  0  0  0  0  0  0  # atno 10167 bound_to 10162
  157.4617  130.8200  149.7893 H   0  0  0  0  0  0  0  0  0  0  0  0  # atno 10718 bound_to 10713
  154.3672  135.2753  155.2287 H   0  0  0  0  0  0  0  0  0  0  0  0  # atno 10763 bound_to 10752
  154.4450  135.5945  153.6157 H   0  0  0  0  0  0  0  0  0  0  0  0  # atno 10764 bound_to 10752
  152.9840  135.6028  154.3899 H   0  0  0  0  0  0  0  0  0  0  0  0  # atno 10765 bound_to 10752
  140.0978  134.9002  157.1750 H   0  0  0  0  0  0  0  0  0  0  0  0  # atno 11005 bound_to 11000
  145.7781  140.9868  143.1113 LP  0  0  0  0  0  0  0  0  0  0  0  0  # atno 17320 bound_to 7965
  144.6859  139.9531  143.7478 LP  0  0  0  0  0  0  0  0  0  0  0  0  # atno 17321 bound_to 7965
  140.3532  143.2951  152.0465 LP  0  0  0  0  0  0  0  0  0  0  0  0  # atno 17342 bound_to 10162
  139.4886  144.6358  151.6977 LP  0  0  0  0  0  0  0  0  0  0  0  0  # atno 17343 bound_to 10162
  156.0031  130.3869  150.2529 LP  0  0  0  0  0  0  0  0  0  0  0  0  # atno 17370 bound_to 10713
  157.0707  131.0116  151.3191 LP  0  0  0  0  0  0  0  0  0  0  0  0  # atno 17371 bound_to 10713
  140.3262  134.2861  155.7236 LP  0  0  0  0  0  0  0  0  0  0  0  0  # atno 17394 bound_to 11000
  141.2097  133.7741  156.9980 LP  0  0  0  0  0  0  0  0  0  0  0  0  # atno 17395 bound_to 11000

$$$$
