AV-unprocessed.smi:2559|AV-procd|sdf|10037|dock7
  -GOLD-   2272014 83D 1   1.00000     0.00000
 Structure written by MMmdl.
 43 45  0  0  0  0  0  0  0  0  2 V2000
  155.0097  138.5436  162.6010 C   0  0  0  0  0  0  0  0  0  0  0  0
  154.0341  138.2780  161.5389 N   0  0  0  0  0  0  0  0  0  0  0  0
  153.6739  137.0124  161.1527 C   0  0  0  0  0  0  0  0  0  0  0  0
  154.1833  136.0502  161.7275 O   0  0  0  0  0  0  0  0  0  0  0  0
  152.7579  136.8426  160.1367 N   0  5  0  0  0  0  0  0  0  0  0  0
  152.1402  137.8417  159.4309 C   0  0  0  0  0  0  0  0  0  0  0  0
  151.3490  137.6988  158.5008 O   0  0  0  0  0  0  0  0  0  0  0  0
  152.5392  139.1877  159.9024 C   0  0  0  0  0  0  0  0  0  0  0  0
  153.4476  139.3971  160.8920 C   0  0  0  0  0  0  0  0  0  0  0  0
  153.6691  140.7491  161.0977 N   0  0  0  0  0  0  0  0  0  0  0  0
  152.8472  141.3227  160.2168 C   0  0  0  0  0  0  0  0  0  0  0  0
  152.7479  142.7062  160.0606 N   0  0  0  0  0  0  0  0  0  0  0  0
  153.3738  143.4377  158.9602 C   0  0  0  0  0  0  0  0  0  0  0  0
  152.3884  144.4207  158.3027 C   0  0  0  0  0  0  0  0  0  0  0  0
  151.8360  145.4109  159.3369 C   0  0  0  0  0  0  0  0  0  0  0  0
  151.2708  144.6471  160.5416 C   0  0  0  0  0  0  0  0  0  0  0  0
  152.3115  143.6534  161.0872 C   0  0  0  0  0  0  0  0  0  0  0  0
  152.1384  140.4506  159.4483 N   0  0  0  0  0  0  0  0  0  0  0  0
  151.2135  140.7591  158.3567 C   0  0  0  0  0  0  0  0  0  0  0  0
  151.8808  140.6743  156.9673 C   0  0  1  0  0  0  0  0  0  0  0  0
  152.6938  139.5198  156.8909 O   0  0  0  0  0  0  0  0  0  0  0  0
  150.8588  140.6068  155.8202 C   0  0  0  0  0  0  0  0  0  0  0  0
  151.4414  140.0545  154.6589 O   0  0  0  0  0  0  0  0  0  0  0  0
  155.3699  137.6524  163.1156 H   0  0  0  0  0  0  0  0  0  0  0  0
  154.5691  139.1946  163.3566 H   0  0  0  0  0  0  0  0  0  0  0  0
  155.8783  139.0544  162.1845 H   0  0  0  0  0  0  0  0  0  0  0  0
  154.2501  143.9697  159.3326 H   0  0  0  0  0  0  0  0  0  0  0  0
  153.7339  142.7307  158.2119 H   0  0  0  0  0  0  0  0  0  0  0  0
  152.8813  144.9604  157.4939 H   0  0  0  0  0  0  0  0  0  0  0  0
  151.5660  143.8650  157.8502 H   0  0  0  0  0  0  0  0  0  0  0  0
  152.6342  146.0767  159.6674 H   0  0  0  0  0  0  0  0  0  0  0  0
  151.0665  146.0403  158.8894 H   0  0  0  0  0  0  0  0  0  0  0  0
  150.9746  145.3471  161.3231 H   0  0  0  0  0  0  0  0  0  0  0  0
  150.3686  144.1129  160.2446 H   0  0  0  0  0  0  0  0  0  0  0  0
  151.9185  143.1208  161.9525 H   0  0  0  0  0  0  0  0  0  0  0  0
  153.1837  144.1985  161.4504 H   0  0  0  0  0  0  0  0  0  0  0  0
  150.3509  140.0993  158.4091 H   0  0  0  0  0  0  0  0  0  0  0  0
  150.7947  141.7498  158.5068 H   0  0  0  0  0  0  0  0  0  0  0  0
  152.5307  141.5380  156.8210 H   0  0  0  0  0  0  0  0  0  0  0  0
  152.6763  139.0844  157.7306 H   0  0  0  0  0  0  0  0  0  0  0  0
  150.0103  139.9824  156.1027 H   0  0  0  0  0  0  0  0  0  0  0  0
  150.4668  141.5979  155.5890 H   0  0  0  0  0  0  0  0  0  0  0  0
  151.2749  139.1243  154.6543 H   0  0  0  0  0  0  0  0  0  0  0  0
  1  2  1  0  0  0  0
  1 24  1  0  0  0  0
  1 25  1  0  0  0  0
  1 26  1  0  0  0  0
  2  9  1  0  0  0  0
  2  3  1  0  0  0  0
  3  4  2  0  0  0  0
  3  5  1  0  0  0  0
  5  6  1  0  0  0  0
  6  7  2  0  0  0  0
  6  8  1  0  0  0  0
  8 18  1  0  0  0  0
  8  9  2  0  0  0  0
  9 10  1  0  0  0  0
 10 11  2  0  0  0  0
 11 12  1  0  0  0  0
 11 18  1  0  0  0  0
 12 17  1  0  0  0  0
 12 13  1  0  0  0  0
 13 14  1  0  0  0  0
 13 27  1  0  0  0  0
 13 28  1  0  0  0  0
 14 15  1  0  0  0  0
 14 29  1  0  0  0  0
 14 30  1  0  0  0  0
 15 16  1  0  0  0  0
 15 31  1  0  0  0  0
 15 32  1  0  0  0  0
 16 17  1  0  0  0  0
 16 33  1  0  0  0  0
 16 34  1  0  0  0  0
 17 35  1  0  0  0  0
 17 36  1  0  0  0  0
 18 19  1  0  0  0  0
 19 20  1  0  0  0  0
 19 37  1  0  0  0  0
 19 38  1  0  0  0  0
 20 21  1  0  0  0  0
 20 22  1  0  0  0  0
 20 39  1  0  0  0  0
 21 40  1  0  0  0  0
 22 23  1  0  0  0  0
 22 41  1  0  0  0  0
 22 42  1  0  0  0  0
 23 43  1  0  0  0  0
M  CHG  1   5  -1
M  END
> <s_m_source_file>
AV-unprocessed.smi

> <i_m_source_file_index>
2559

> <i_lp_mmshare_version>
43012

> <i_f3d_flags>
0

> <s_epik_input>
Tz1jMVtuSF1jKD1PKW4oW0NIM10pYyhjMTIpbmMobjJbQ0gyXVtDQEhdKFtPSF0pW0NIMl1bT0hdKU4zW0NIMl1bQ0gyXVtDSDJdW0NIMl1bQ0gyXTM=

> <s_epik_cmdline>
J2VwaWtfcHl0aG9uJywgJy1waCcsICc3LjAnLCAnLXRuJywgJzgnLCAnLW1hJywgJzIwMCcsICctbWV0YWxfYmluZGluZycsICctaW1hZScsICc8aW5maWxlLm1hZT4nLCAnLW9tYWUnLCAnPG91dGZpbGUubWFlPic=

> <r_lp_tautomer_probability>
1

> <r_epik_Ionization_Penalty>
5.90509

> <r_epik_Ionization_Penalty_Charging>
0.0759636

> <r_epik_Ionization_Penalty_Neutral>
5.82913

> <r_epik_State_Penalty>
5.18635

> <r_epik_Charging_Adjusted_Penalty>
5.26231

> <i_epik_Tot_Q>
-1

> <i_epik_Tot_abs_Q>
1

> <r_epik_Metal_State_Penalty>
1.25614

> <b_epik_Metal_Only>
1

> <s_lp_Force_Field>
OPLS_2005

> <r_lp_Energy>
39.3002

> <b_lp_Chiralities_Consistent>
1

> <s_lp_Variant>
AV-unprocessed.smi:2559-4

> <Gold.Version>
5.8.1

> <Gold.Id.Protein>
6NUR|6NUR_protein|mol2

> <Gold.PLP.Fitness>
57.3705

> <Gold.PLP.PLP>
-48.6280

> <Gold.PLP.part.hbond>
-2.9815

> <Gold.PLP.part.metal>
0.0000

> <Gold.PLP.part.buried>
-7.9007

> <Gold.PLP.part.nonpolar>
-38.2429

> <Gold.PLP.part.repulsive>
0.0000

> <Gold.PLP.ligand.clash>
0.0000

> <Gold.PLP.ligand.torsion>
1.9507

> <Gold.PLP.Chemscore.Hbond>
4.0000

> <Gold.PLP.Chemscore.CHOScore>
0.0000

> <Gold.PLP.Chemscore.Metal>
0.0000

> <Gold.Chemscore.Hbonds>
donor molecule, donor type, donor heavy atom, donor atom, acceptor molecule, acceptor atom, score
      P1  H  6896  6909       L1     5  2.00
      P1  H  7989  7998       L1    23  0.75
      P1  H  7997  8009       L1    21  1.00

> <Gold.PLP.Chemscore.Internal.Correction>
0.6440

> <Gold.Rescore>
     Score         DG    S(hbond)    S(metal)    S(lipo)     H(rot)  DE(clash)    DE(int)     intcor
     15.87     -17.94       2.80        0.00      90.62       2.93       0.05       2.02       ----

> <Gold.Chemscore.Fitness>
15.8694

> <Gold.Chemscore.DG>
-17.9394

> <Gold.Chemscore.ZeroCoef>
-5.4800

> <Gold.Chemscore.Hbond>
2.8038

> <Gold.Chemscore.Metal>
0.0000

> <Gold.Chemscore.Lipo>
90.6246

> <Gold.Chemscore.Internal_Hbond>
0.0000

> <Gold.Chemscore.DEClash>
0.0523

> <Gold.Chemscore.DEInternal>
2.0177

> <Gold.Chemscore.Rot>
2.9330

> <Gold.Chemscore.Internal.Correction>
   9.000000E+99

> <Gold.Chemscore.Hbonds>
donor molecule, donor type, donor heavy atom, donor atom, acceptor molecule, acceptor atom, score
      P1  H  6896  6909       L1     5  0.80
      P1  H  7989  7998       L1    23  0.71
      P1  H  7997  8009       L1    21  0.43

> <Gold.Chemscore.Hbond.Weighted>
-9.3647

> <Gold.Chemscore.Metal.Weighted>
-0.0000

> <Gold.Chemscore.Lipo.Weighted>
-10.6031

> <Gold.Chemscore.Internal_Hbond.Weighted>
0.0000

> <Gold.Chemscore.DEClash.Weighted>
0.0523

> <Gold.Chemscore.DEInternal.Weighted>
2.0177

> <Gold.Chemscore.Rot.Weighted>
7.5084

> <Gold.Chemscore.Internal.Correction.Weighted>
   9.000000E+99

> <Gold.Protein.RotatedTorsions>
[ 6907 6896 6895 6894 ] final  149.82 input  -60.11 | X-H torsion
[ 7974 7965 7964 7962 ] final   82.23 input  175.53 | X-H torsion
[ 8008 7997 7996 7995 ] final -172.07 input   59.86 | X-H torsion
[ 10167 10162 10161 10158 ] final  -86.65 input  -65.29 | X-H torsion
[ 10718 10713 10712 10709 ] final  -30.80 input   66.30 | X-H torsion
[ 10763 10752 10751 10750 ] final  -22.17 input  -60.55 | X-H torsion
[ 11005 11000 10999 10996 ] final  138.35 input  -57.11 | X-H torsion

> <Gold.Protein.ActiveResidues>
 VAL166  LYS551  ARG553  GLY616  TRP617  ASP618  TYR619  PRO620  LYS621  CYS622 
 ASP623  PHE694  ASN695  SER759  ASP760  ASP761  ALA762  ILE779  LEU786  VAL792 
 PHE793  MET794  SER795  GLU796  ALA797  LYS798  CYS799  TRP800  GLU811  SER814 

> <Gold.Protein.RotatedAtoms>
  152.1228  133.4363  159.4683 H   0  0  0  0  0  0  0  0  0  0  0  0  # atno 6907 bound_to 6896
  150.6873  134.2514  159.4521 H   0  0  0  0  0  0  0  0  0  0  0  0  # atno 6908 bound_to 6896
  152.0392  134.9721  160.0624 H   0  0  0  0  0  0  0  0  0  0  0  0  # atno 6909 bound_to 6896
  145.6277  139.2398  143.2102 H   0  0  0  0  0  0  0  0  0  0  0  0  # atno 7974 bound_to 7965
  155.9399  140.1106  157.1064 H   0  0  0  0  0  0  0  0  0  0  0  0  # atno 8008 bound_to 7997
  154.4087  140.1221  156.4979 H   0  0  0  0  0  0  0  0  0  0  0  0  # atno 8009 bound_to 7997
  155.6975  140.3472  155.4921 H   0  0  0  0  0  0  0  0  0  0  0  0  # atno 8010 bound_to 7997
  140.3921  143.2700  151.9251 H   0  0  0  0  0  0  0  0  0  0  0  0  # atno 10167 bound_to 10162
  156.3952  130.4380  149.7364 H   0  0  0  0  0  0  0  0  0  0  0  0  # atno 10718 bound_to 10713
  153.6477  135.6982  153.5219 H   0  0  0  0  0  0  0  0  0  0  0  0  # atno 10763 bound_to 10752
  153.2731  135.4208  155.1006 H   0  0  0  0  0  0  0  0  0  0  0  0  # atno 10764 bound_to 10752
  154.8484  135.3583  154.6021 H   0  0  0  0  0  0  0  0  0  0  0  0  # atno 10765 bound_to 10752
  140.0178  134.9410  157.0411 H   0  0  0  0  0  0  0  0  0  0  0  0  # atno 11005 bound_to 11000
  146.1381  140.7095  142.9380 LP  0  0  0  0  0  0  0  0  0  0  0  0  # atno 17320 bound_to 7965
  144.7206  140.4359  143.7011 LP  0  0  0  0  0  0  0  0  0  0  0  0  # atno 17321 bound_to 7965
  139.4788  144.5717  151.8077 LP  0  0  0  0  0  0  0  0  0  0  0  0  # atno 17342 bound_to 10162
  140.4829  144.1424  150.5936 LP  0  0  0  0  0  0  0  0  0  0  0  0  # atno 17343 bound_to 10162
  156.4402  130.7857  151.2878 LP  0  0  0  0  0  0  0  0  0  0  0  0  # atno 17370 bound_to 10713
  157.7501  131.0127  150.3396 LP  0  0  0  0  0  0  0  0  0  0  0  0  # atno 17371 bound_to 10713
  140.4441  134.1651  155.7176 LP  0  0  0  0  0  0  0  0  0  0  0  0  # atno 17394 bound_to 11000
  141.1754  133.8524  157.1438 LP  0  0  0  0  0  0  0  0  0  0  0  0  # atno 17395 bound_to 11000

$$$$
