AV-unprocessed.smi:99|AV-procd|sdf|872|dock2
  -GOLD-   2262017333D 1   1.00000     0.00000
 Structure written by MMmdl.
 53 56  0  0  0  0  0  0  0  0  1 V2000
  147.3617  137.4501  160.9566 O   0  0  0  0  0  0  0  0  0  0  0  0
  147.3111  136.3020  160.5106 C   0  0  0  0  0  0  0  0  0  0  0  0
  148.0035  135.8909  159.4303 O   0  0  0  0  0  0  0  0  0  0  0  0
  148.6460  136.8409  158.5968 C   0  0  0  0  0  0  0  0  0  0  0  0
  149.2005  136.1276  157.3479 C   0  0  1  0  0  0  0  0  0  0  0  0
  148.1111  135.5476  156.6424 O   0  0  0  0  0  0  0  0  0  0  0  0
  147.5801  136.4747  155.7455 C   0  0  2  0  0  0  0  0  0  0  0  0
  147.2066  135.7312  154.4804 N   0  0  0  0  0  0  0  0  0  0  0  0
  148.0910  134.8254  153.9109 C   0  0  0  0  0  0  0  0  0  0  0  0
  147.8099  134.1236  152.7877 C   0  0  0  0  0  0  0  0  0  0  0  0
  146.5286  134.2945  152.1103 C   0  0  0  0  0  0  0  0  0  0  0  0
  146.1811  133.7022  151.0910 O   0  0  0  0  0  0  0  0  0  0  0  0
  145.6711  135.2186  152.7150 N   0  0  0  0  0  0  0  0  0  0  0  0
  145.9509  135.9502  153.8710 C   0  0  0  0  0  0  0  0  0  0  0  0
  145.1218  136.7479  154.3068 O   0  0  0  0  0  0  0  0  0  0  0  0
  148.6346  137.5825  155.5185 C   0  0  2  0  0  0  0  0  0  0  0  0
  148.9800  137.8013  154.1622 O   0  0  0  0  0  0  0  0  0  0  0  0
  149.8323  137.0609  156.3059 C   0  0  1  0  0  0  0  0  0  0  0  0
  150.5533  138.1122  156.9393 O   0  0  0  0  0  0  0  0  0  0  0  0
  151.4833  137.8498  157.8815 C   0  0  0  0  0  0  0  0  0  0  0  0
  151.7723  136.7129  158.2593 O   0  0  0  0  0  0  0  0  0  0  0  0
  152.1311  139.0832  158.4130 C   0  0  0  0  0  0  0  0  0  0  0  0
  151.6549  140.3491  157.9992 C   0  0  0  0  0  0  0  0  0  0  0  0
  152.2455  141.5317  158.4853 C   0  0  0  0  0  0  0  0  0  0  0  0
  153.3202  141.4627  159.3905 C   0  0  0  0  0  0  0  0  0  0  0  0
  153.8039  140.2096  159.8091 C   0  0  0  0  0  0  0  0  0  0  0  0
  153.2142  139.0257  159.3248 C   0  0  0  0  0  0  0  0  0  0  0  0
  146.4760  135.2217  161.1105 C   0  0  0  0  0  0  0  0  0  0  0  0
  145.4463  135.5646  162.0179 C   0  0  0  0  0  0  0  0  0  0  0  0
  144.6404  134.5662  162.5989 C   0  0  0  0  0  0  0  0  0  0  0  0
  144.8546  133.2125  162.2805 C   0  0  0  0  0  0  0  0  0  0  0  0
  145.8758  132.8583  161.3796 C   0  0  0  0  0  0  0  0  0  0  0  0
  146.6823  133.8554  160.7968 C   0  0  0  0  0  0  0  0  0  0  0  0
  144.7749  135.3724  152.2761 H   0  0  0  0  0  0  0  0  0  0  0  0
  147.9528  137.6365  158.3206 H   0  0  0  0  0  0  0  0  0  0  0  0
  149.4594  137.2971  159.1624 H   0  0  0  0  0  0  0  0  0  0  0  0
  149.9116  135.3580  157.6507 H   0  0  0  0  0  0  0  0  0  0  0  0
  146.6606  136.8652  156.1835 H   0  0  0  0  0  0  0  0  0  0  0  0
  149.0544  134.6725  154.3761 H   0  0  0  0  0  0  0  0  0  0  0  0
  148.5375  133.4327  152.3873 H   0  0  0  0  0  0  0  0  0  0  0  0
  148.2530  138.5062  155.9562 H   0  0  0  0  0  0  0  0  0  0  0  0
  148.2820  137.4720  153.6166 H   0  0  0  0  0  0  0  0  0  0  0  0
  150.4763  136.4612  155.6600 H   0  0  0  0  0  0  0  0  0  0  0  0
  150.8306  140.4276  157.3050 H   0  0  0  0  0  0  0  0  0  0  0  0
  151.8729  142.4926  158.1624 H   0  0  0  0  0  0  0  0  0  0  0  0
  153.7729  142.3698  159.7632 H   0  0  0  0  0  0  0  0  0  0  0  0
  154.6291  140.1561  160.5038 H   0  0  0  0  0  0  0  0  0  0  0  0
  153.6102  138.0807  159.6667 H   0  0  0  0  0  0  0  0  0  0  0  0
  145.2625  136.5972  162.2774 H   0  0  0  0  0  0  0  0  0  0  0  0
  143.8562  134.8401  163.2892 H   0  0  0  0  0  0  0  0  0  0  0  0
  144.2362  132.4473  162.7260 H   0  0  0  0  0  0  0  0  0  0  0  0
  146.0411  131.8195  161.1341 H   0  0  0  0  0  0  0  0  0  0  0  0
  147.4564  133.5488  160.1084 H   0  0  0  0  0  0  0  0  0  0  0  0
  1  2  2  0  0  0  0
  2  3  1  0  0  0  0
  2 28  1  0  0  0  0
  3  4  1  0  0  0  0
  4  5  1  0  0  0  0
  4 35  1  0  0  0  0
  4 36  1  0  0  0  0
  5 18  1  0  0  0  0
  5  6  1  0  0  0  0
  5 37  1  0  0  0  0
  6  7  1  0  0  0  0
  7  8  1  0  0  0  0
  7 16  1  0  0  0  0
  7 38  1  0  0  0  0
  8 14  1  0  0  0  0
  8  9  1  0  0  0  0
  9 10  2  0  0  0  0
  9 39  1  0  0  0  0
 10 11  1  0  0  0  0
 10 40  1  0  0  0  0
 11 12  2  0  0  0  0
 11 13  1  0  0  0  0
 13 34  1  0  0  0  0
 13 14  1  0  0  0  0
 14 15  2  0  0  0  0
 16 17  1  0  0  0  0
 16 18  1  0  0  0  0
 16 41  1  0  0  0  0
 17 42  1  0  0  0  0
 18 19  1  0  0  0  0
 18 43  1  0  0  0  0
 19 20  1  0  0  0  0
 20 21  2  0  0  0  0
 20 22  1  0  0  0  0
 22 27  1  0  0  0  0
 22 23  2  0  0  0  0
 23 24  1  0  0  0  0
 23 44  1  0  0  0  0
 24 25  2  0  0  0  0
 24 45  1  0  0  0  0
 25 26  1  0  0  0  0
 25 46  1  0  0  0  0
 26 27  2  0  0  0  0
 26 47  1  0  0  0  0
 27 48  1  0  0  0  0
 28 33  1  0  0  0  0
 28 29  2  0  0  0  0
 29 30  1  0  0  0  0
 29 49  1  0  0  0  0
 30 31  2  0  0  0  0
 30 50  1  0  0  0  0
 31 32  1  0  0  0  0
 31 51  1  0  0  0  0
 32 33  2  0  0  0  0
 32 52  1  0  0  0  0
 33 53  1  0  0  0  0
M  END
> <s_m_source_file>
AV-unprocessed.smi

> <i_m_source_file_index>
99

> <i_lp_mmshare_version>
43012

> <i_f3d_flags>
0

> <s_epik_input>
W2NIXTFbY0hdW2NIXVtjSF1bY0hdYzFDKD1PKU9bQ0gyXVtDQEBIXTJPW0NAQEhdKG4zW2NIXVtjSF1jKD1PKVtuSF1jMz1PKVtDQEBIXShbT0hdKVtDQEhdMk9DKD1PKWM0W2NIXVtjSF1bY0hdW2NIXVtjSF00

> <s_epik_cmdline>
J2VwaWtfcHl0aG9uJywgJy1waCcsICc3LjAnLCAnLXRuJywgJzgnLCAnLW1hJywgJzIwMCcsICctbWV0YWxfYmluZGluZycsICctaW1hZScsICc8aW5maWxlLm1hZT4nLCAnLW9tYWUnLCAnPG91dGZpbGUubWFlPic=

> <r_lp_tautomer_probability>
1

> <r_epik_Ionization_Penalty>
0.00454555

> <r_epik_Ionization_Penalty_Charging>
0.0045191

> <r_epik_Ionization_Penalty_Neutral>
2.64449e-05

> <r_epik_State_Penalty>
-0

> <r_epik_Charging_Adjusted_Penalty>
0.0045191

> <i_epik_Tot_Q>
0

> <i_epik_Tot_abs_Q>
0

> <r_epik_Metal_State_Penalty>
1.27877

> <b_epik_Metal_Only>
0

> <s_epik_Chemistry_Notes>
This compound has an ester and may undergo hydrolysis at high or low pH. This compound contains an acetal/aminal-like group ( X-CH(R)-Y where X, Y are N, S, or O) that may be acid/base labile, releasing an aldehyde.

> <s_lp_Force_Field>
OPLS_2005

> <r_lp_Energy>
42.9918

> <b_lp_Chiralities_Consistent>
1

> <s_lp_Variant>
AV-unprocessed.smi:99-8

> <Gold.Version>
5.8.1

> <Gold.Id.Protein>
6NUR|6NUR_protein|mol2

> <Gold.PLP.Fitness>
52.3934

> <Gold.PLP.PLP>
-43.4466

> <Gold.PLP.part.hbond>
-4.2160

> <Gold.PLP.part.metal>
0.0000

> <Gold.PLP.part.buried>
-4.4852

> <Gold.PLP.part.nonpolar>
-37.6767

> <Gold.PLP.part.repulsive>
3.2181

> <Gold.PLP.ligand.clash>
0.0000

> <Gold.PLP.ligand.torsion>
0.6324

> <Gold.PLP.Chemscore.Hbond>
3.1924

> <Gold.PLP.Chemscore.CHOScore>
0.0000

> <Gold.PLP.Chemscore.Metal>
0.0000

> <Gold.Chemscore.Hbonds>
donor molecule, donor type, donor heavy atom, donor atom, acceptor molecule, acceptor atom, score
      L1  H    17    42       P1  7948  0.14
      P1  H  6896  6909       L1    21  0.18
      P1  H  6931  6943       L1     1  0.63
      P1  H  6934  6947       L1     1  1.00

> <Gold.PLP.Chemscore.Internal.Correction>
0.6344

> <Gold.Rescore>
     Score         DG    S(hbond)    S(metal)    S(lipo)     H(rot)  DE(clash)    DE(int)     intcor
     17.02     -19.28       2.74        0.00     109.58       3.19       0.16       2.11       ----

> <Gold.Chemscore.Fitness>
17.0163

> <Gold.Chemscore.DG>
-19.2833

> <Gold.Chemscore.ZeroCoef>
-5.4800

> <Gold.Chemscore.Hbond>
2.7393

> <Gold.Chemscore.Metal>
0.0000

> <Gold.Chemscore.Lipo>
109.5814

> <Gold.Chemscore.Internal_Hbond>
0.0000

> <Gold.Chemscore.DEClash>
0.1573

> <Gold.Chemscore.DEInternal>
2.1096

> <Gold.Chemscore.Rot>
3.1903

> <Gold.Chemscore.Internal.Correction>
   9.000000E+99

> <Gold.Chemscore.Hbonds>
donor molecule, donor type, donor heavy atom, donor atom, acceptor molecule, acceptor atom, score
      L1  H    17    42       P1  7948  0.13
      P1  H  6896  6909       L1    21  0.17
      P1  H  6931  6943       L1     1  0.60
      P1  H  6934  6947       L1     1  0.95

> <Gold.Chemscore.Hbond.Weighted>
-9.1494

> <Gold.Chemscore.Metal.Weighted>
-0.0000

> <Gold.Chemscore.Lipo.Weighted>
-12.8210

> <Gold.Chemscore.Internal_Hbond.Weighted>
0.0000

> <Gold.Chemscore.DEClash.Weighted>
0.1573

> <Gold.Chemscore.DEInternal.Weighted>
2.1096

> <Gold.Chemscore.Rot.Weighted>
8.1671

> <Gold.Chemscore.Internal.Correction.Weighted>
   9.000000E+99

> <Gold.Protein.RotatedTorsions>
[ 6907 6896 6895 6894 ] final  121.72 input  -60.11 | X-H torsion
[ 7974 7965 7964 7962 ] final -174.42 input  175.53 | X-H torsion
[ 8008 7997 7996 7995 ] final  -63.41 input   59.86 | X-H torsion
[ 10167 10162 10161 10158 ] final -103.12 input  -65.29 | X-H torsion
[ 10718 10713 10712 10709 ] final  -78.52 input   66.30 | X-H torsion
[ 10763 10752 10751 10750 ] final -109.93 input  -60.55 | X-H torsion
[ 11005 11000 10999 10996 ] final   -6.49 input  -57.11 | X-H torsion

> <Gold.Protein.ActiveResidues>
 VAL166  LYS551  ARG553  GLY616  TRP617  ASP618  TYR619  PRO620  LYS621  CYS622 
 ASP623  PHE694  ASN695  SER759  ASP760  ASP761  ALA762  ILE779  LEU786  VAL792 
 PHE793  MET794  SER795  GLU796  ALA797  LYS798  CYS799  TRP800  GLU811  SER814 

> <Gold.Protein.RotatedAtoms>
  152.4300  133.7260  159.6560 H   0  0  0  0  0  0  0  0  0  0  0  0  # atno 6907 bound_to 6896
  150.8178  133.8295  159.3158 H   0  0  0  0  0  0  0  0  0  0  0  0  # atno 6908 bound_to 6896
  151.5986  135.1051  160.0107 H   0  0  0  0  0  0  0  0  0  0  0  0  # atno 6909 bound_to 6896
  144.7132  140.1474  143.6387 H   0  0  0  0  0  0  0  0  0  0  0  0  # atno 7974 bound_to 7965
  154.4553  140.0975  156.6737 H   0  0  0  0  0  0  0  0  0  0  0  0  # atno 8008 bound_to 7997
  155.5159  140.3477  155.4379 H   0  0  0  0  0  0  0  0  0  0  0  0  # atno 8009 bound_to 7997
  156.0764  140.1362  156.9755 H   0  0  0  0  0  0  0  0  0  0  0  0  # atno 8010 bound_to 7997
  140.2234  143.3659  152.0950 H   0  0  0  0  0  0  0  0  0  0  0  0  # atno 10167 bound_to 10162
  156.0115  130.4520  150.3508 H   0  0  0  0  0  0  0  0  0  0  0  0  # atno 10718 bound_to 10713
  154.8220  135.4583  154.0807 H   0  0  0  0  0  0  0  0  0  0  0  0  # atno 10763 bound_to 10752
  153.2152  135.6887  153.8072 H   0  0  0  0  0  0  0  0  0  0  0  0  # atno 10764 bound_to 10752
  153.7508  135.3298  155.3297 H   0  0  0  0  0  0  0  0  0  0  0  0  # atno 10765 bound_to 10752
  140.7026  133.8977  155.8694 H   0  0  0  0  0  0  0  0  0  0  0  0  # atno 11005 bound_to 11000
  145.9147  139.2508  143.1417 LP  0  0  0  0  0  0  0  0  0  0  0  0  # atno 17320 bound_to 7965
  145.9681  140.8782  143.0176 LP  0  0  0  0  0  0  0  0  0  0  0  0  # atno 17321 bound_to 7965
  139.5136  144.6935  151.5695 LP  0  0  0  0  0  0  0  0  0  0  0  0  # atno 17342 bound_to 10162
  140.6239  143.9207  150.6548 LP  0  0  0  0  0  0  0  0  0  0  0  0  # atno 17343 bound_to 10162
  157.1600  131.0342  151.2845 LP  0  0  0  0  0  0  0  0  0  0  0  0  # atno 17370 bound_to 10713
  157.4319  130.7495  149.6997 LP  0  0  0  0  0  0  0  0  0  0  0  0  # atno 17371 bound_to 10713
  141.0151  134.0966  157.4180 LP  0  0  0  0  0  0  0  0  0  0  0  0  # atno 17394 bound_to 11000
  139.8893  135.0104  156.6669 LP  0  0  0  0  0  0  0  0  0  0  0  0  # atno 17395 bound_to 11000

$$$$
