AV-unprocessed.smi:1090|AV-procd|sdf|4735|dock5
  -GOLD-   22720 3273D 1   1.00000     0.00000
 Structure written by MMmdl.
 38 40  0  0  0  0  0  0  0  0  1 V2000
  151.2304  140.2097  158.2488 O   0  0  0  0  0  0  0  0  0  0  0  0
  151.3559  141.1201  157.4298 C   0  0  0  0  0  0  0  0  0  0  0  0
  151.5333  142.5638  157.9064 C   0  0  0  0  0  0  0  0  0  0  0  0
  151.8686  142.6811  159.4108 C   0  0  0  0  0  0  0  0  0  0  0  0
  151.8708  144.1218  159.9061 C   0  0  0  0  0  0  0  0  0  0  0  0
  150.9029  145.1428  159.3551 C   0  0  0  0  0  0  0  0  0  0  0  0
  152.3774  145.2570  159.0457 C   0  0  0  0  0  0  0  0  0  0  0  0
  153.2026  142.0164  159.7044 C   0  0  0  0  0  0  0  0  0  0  0  0
  153.2705  140.6071  160.2412 C   0  0  0  0  0  0  0  0  0  0  0  0
  153.6674  141.7727  161.1201 C   0  0  0  0  0  0  0  0  0  0  0  0
  151.3392  140.9266  156.1024 N   0  0  0  0  0  0  0  0  0  0  0  0
  151.2138  139.6291  155.4500 C   0  0  0  0  0  0  0  0  0  0  0  0
  149.7676  139.1111  155.5010 C   0  0  0  0  0  0  0  0  0  0  0  0
  148.8174  140.0095  154.7835 C   0  0  0  0  0  0  0  0  0  0  0  0
  148.8483  141.3420  154.8763 N   0  0  0  0  0  0  0  0  0  0  0  0
  147.8323  141.9520  154.1363 C   0  0  0  0  0  0  0  0  0  0  0  0
  147.0165  141.0600  153.4876 C   0  0  0  0  0  0  0  0  0  0  0  0
  147.4955  139.4117  153.7861 S   0  0  0  0  0  0  0  0  0  0  0  0
  152.3215  143.0307  157.3137 H   0  0  0  0  0  0  0  0  0  0  0  0
  150.6217  143.1198  157.6833 H   0  0  0  0  0  0  0  0  0  0  0  0
  151.1047  142.1393  159.9720 H   0  0  0  0  0  0  0  0  0  0  0  0
  152.0790  144.2092  160.9710 H   0  0  0  0  0  0  0  0  0  0  0  0
  150.2461  144.8394  158.5423 H   0  0  0  0  0  0  0  0  0  0  0  0
  150.4779  145.8590  160.0554 H   0  0  0  0  0  0  0  0  0  0  0  0
  152.9388  146.0470  159.5399 H   0  0  0  0  0  0  0  0  0  0  0  0
  152.6965  145.0231  158.0318 H   0  0  0  0  0  0  0  0  0  0  0  0
  153.9828  142.2832  158.9934 H   0  0  0  0  0  0  0  0  0  0  0  0
  152.3322  140.1047  160.4680 H   0  0  0  0  0  0  0  0  0  0  0  0
  154.0652  139.9649  159.8671 H   0  0  0  0  0  0  0  0  0  0  0  0
  154.7262  141.9080  161.3303 H   0  0  0  0  0  0  0  0  0  0  0  0
  152.9931  142.0363  161.9323 H   0  0  0  0  0  0  0  0  0  0  0  0
  151.4400  141.7327  155.5026 H   0  0  0  0  0  0  0  0  0  0  0  0
  151.5619  139.6932  154.4176 H   0  0  0  0  0  0  0  0  0  0  0  0
  151.8768  138.9285  155.9584 H   0  0  0  0  0  0  0  0  0  0  0  0
  149.7082  138.1142  155.0623 H   0  0  0  0  0  0  0  0  0  0  0  0
  149.4338  139.0159  156.5350 H   0  0  0  0  0  0  0  0  0  0  0  0
  147.7616  143.0298  154.1286 H   0  0  0  0  0  0  0  0  0  0  0  0
  146.1647  141.2711  152.8580 H   0  0  0  0  0  0  0  0  0  0  0  0
  1  2  2  0  0  0  0
  2  3  1  0  0  0  0
  2 11  1  0  0  0  0
  3  4  1  0  0  0  0
  3 19  1  0  0  0  0
  3 20  1  0  0  0  0
  4  5  1  0  0  0  0
  4  8  1  0  0  0  0
  4 21  1  0  0  0  0
  5  7  1  0  0  0  0
  5  6  1  0  0  0  0
  5 22  1  0  0  0  0
  6  7  1  0  0  0  0
  6 23  1  0  0  0  0
  6 24  1  0  0  0  0
  7 25  1  0  0  0  0
  7 26  1  0  0  0  0
  8 10  1  0  0  0  0
  8  9  1  0  0  0  0
  8 27  1  0  0  0  0
  9 10  1  0  0  0  0
  9 28  1  0  0  0  0
  9 29  1  0  0  0  0
 10 30  1  0  0  0  0
 10 31  1  0  0  0  0
 11 12  1  0  0  0  0
 11 32  1  0  0  0  0
 12 13  1  0  0  0  0
 12 33  1  0  0  0  0
 12 34  1  0  0  0  0
 13 14  1  0  0  0  0
 13 35  1  0  0  0  0
 13 36  1  0  0  0  0
 14 18  1  0  0  0  0
 14 15  2  0  0  0  0
 15 16  1  0  0  0  0
 16 17  2  0  0  0  0
 16 37  1  0  0  0  0
 17 18  1  0  0  0  0
 17 38  1  0  0  0  0
M  END
> <s_m_source_file>
AV-unprocessed.smi

> <i_m_source_file_index>
1090

> <i_lp_mmshare_version>
43012

> <i_f3d_flags>
0

> <s_epik_input>
W0NIMl0xW0NIMl1bQ0hdMVtDSF0oW0NIXTJbQ0gyXVtDSDJdMilbQ0gyXUMoPU8pW05IXVtDSDJdW0NIMl1jM25bY0hdW2NIXXMz

> <s_epik_cmdline>
J2VwaWtfcHl0aG9uJywgJy1waCcsICc3LjAnLCAnLXRuJywgJzgnLCAnLW1hJywgJzIwMCcsICctbWV0YWxfYmluZGluZycsICctaW1hZScsICc8aW5maWxlLm1hZT4nLCAnLW9tYWUnLCAnPG91dGZpbGUubWFlPic=

> <r_lp_tautomer_probability>
1

> <r_epik_Ionization_Penalty>
0.000189819

> <r_epik_Ionization_Penalty_Charging>
0

> <r_epik_Ionization_Penalty_Neutral>
0.000189819

> <r_epik_State_Penalty>
-0

> <r_epik_Charging_Adjusted_Penalty>
0

> <i_epik_Tot_Q>
0

> <i_epik_Tot_abs_Q>
0

> <r_epik_Metal_State_Penalty>
-0

> <b_epik_Metal_Only>
0

> <s_lp_Force_Field>
OPLS_2005

> <r_lp_Energy>
14.2357

> <b_lp_Chiralities_Consistent>
1

> <s_lp_Variant>
AV-unprocessed.smi:1090-1

> <Gold.Version>
5.8.1

> <Gold.Id.Protein>
6NUR|6NUR_protein|mol2

> <Gold.PLP.Fitness>
46.8516

> <Gold.PLP.PLP>
-42.5440

> <Gold.PLP.part.hbond>
0.0000

> <Gold.PLP.part.metal>
0.0000

> <Gold.PLP.part.buried>
-5.4221

> <Gold.PLP.part.nonpolar>
-38.3542

> <Gold.PLP.part.repulsive>
0.2917

> <Gold.PLP.ligand.clash>
0.0000

> <Gold.PLP.ligand.torsion>
1.6615

> <Gold.PLP.Chemscore.Hbond>
0.0000

> <Gold.PLP.Chemscore.CHOScore>
1.7863

> <Gold.PLP.Chemscore.Metal>
0.0000

> <Gold.Chemscore.Hbonds>
donor molecule, donor type, donor heavy atom, donor atom, acceptor molecule, acceptor atom, score
      L1  C    16    37       P1  8028  1.00
      L1  C    17    38       P1 10175  0.60

> <Gold.PLP.Chemscore.Internal.Correction>
2.2718

> <Gold.Rescore>
     Score         DG    S(hbond)    S(metal)    S(lipo)     H(rot)  DE(clash)    DE(int)     intcor
     10.10     -15.56       0.00        0.00     123.29       1.70       0.19       5.27       ----

> <Gold.Chemscore.Fitness>
10.0982

> <Gold.Chemscore.DG>
-15.5575

> <Gold.Chemscore.ZeroCoef>
-5.4800

> <Gold.Chemscore.Hbond>
0.0000

> <Gold.Chemscore.Metal>
0.0000

> <Gold.Chemscore.Lipo>
123.2892

> <Gold.Chemscore.Internal_Hbond>
0.0000

> <Gold.Chemscore.DEClash>
0.1894

> <Gold.Chemscore.DEInternal>
5.2699

> <Gold.Chemscore.Rot>
1.6982

> <Gold.Chemscore.Internal.Correction>
   9.000000E+99

> <Gold.Chemscore.Hbond.Weighted>
-0.0000

> <Gold.Chemscore.Metal.Weighted>
-0.0000

> <Gold.Chemscore.Lipo.Weighted>
-14.4248

> <Gold.Chemscore.Internal_Hbond.Weighted>
0.0000

> <Gold.Chemscore.DEClash.Weighted>
0.1894

> <Gold.Chemscore.DEInternal.Weighted>
5.2699

> <Gold.Chemscore.Rot.Weighted>
4.3474

> <Gold.Chemscore.Internal.Correction.Weighted>
   9.000000E+99

> <Gold.Protein.RotatedTorsions>
[ 6907 6896 6895 6894 ] final   93.13 input  -60.11 | X-H torsion
[ 7974 7965 7964 7962 ] final   39.24 input  175.53 | X-H torsion
[ 8008 7997 7996 7995 ] final -129.72 input   59.86 | X-H torsion
[ 10167 10162 10161 10158 ] final   75.49 input  -65.29 | X-H torsion
[ 10718 10713 10712 10709 ] final   66.43 input   66.30 | X-H torsion
[ 10763 10752 10751 10750 ] final -106.97 input  -60.55 | X-H torsion
[ 11005 11000 10999 10996 ] final  -19.91 input  -57.11 | X-H torsion

> <Gold.Protein.ActiveResidues>
 VAL166  LYS551  ARG553  GLY616  TRP617  ASP618  TYR619  PRO620  LYS621  CYS622 
 ASP623  PHE694  ASN695  SER759  ASP760  ASP761  ALA762  ILE779  LEU786  VAL792 
 PHE793  MET794  SER795  GLU796  ALA797  LYS798  CYS799  TRP800  GLU811  SER814 

> <Gold.Protein.RotatedAtoms>
  152.5453  134.1395  159.8472 H   0  0  0  0  0  0  0  0  0  0  0  0  # atno 6907 bound_to 6896
  151.1432  133.4950  159.2604 H   0  0  0  0  0  0  0  0  0  0  0  0  # atno 6908 bound_to 6896
  151.1550  135.0256  159.8740 H   0  0  0  0  0  0  0  0  0  0  0  0  # atno 6909 bound_to 6896
  146.1000  139.5676  142.9420 H   0  0  0  0  0  0  0  0  0  0  0  0  # atno 7974 bound_to 7965
  155.2838  140.0445  157.3017 H   0  0  0  0  0  0  0  0  0  0  0  0  # atno 8008 bound_to 7997
  154.5581  140.2338  155.8346 H   0  0  0  0  0  0  0  0  0  0  0  0  # atno 8009 bound_to 7997
  156.2024  140.3022  155.9562 H   0  0  0  0  0  0  0  0  0  0  0  0  # atno 8010 bound_to 7997
  140.0024  144.5676  150.7726 H   0  0  0  0  0  0  0  0  0  0  0  0  # atno 10167 bound_to 10162
  157.6168  130.9267  150.0107 H   0  0  0  0  0  0  0  0  0  0  0  0  # atno 10718 bound_to 10713
  154.8046  135.4692  154.0360 H   0  0  0  0  0  0  0  0  0  0  0  0  # atno 10763 bound_to 10752
  153.1839  135.6845  153.8448 H   0  0  0  0  0  0  0  0  0  0  0  0  # atno 10764 bound_to 10752
  153.7989  135.3233  155.3365 H   0  0  0  0  0  0  0  0  0  0  0  0  # atno 10765 bound_to 10752
  140.8413  133.7924  155.9863 H   0  0  0  0  0  0  0  0  0  0  0  0  # atno 11005 bound_to 11000
  145.5873  141.0374  143.2089 LP  0  0  0  0  0  0  0  0  0  0  0  0  # atno 17320 bound_to 7965
  144.7425  139.7410  143.7305 LP  0  0  0  0  0  0  0  0  0  0  0  0  # atno 17321 bound_to 7965
  140.7414  143.2817  151.3579 LP  0  0  0  0  0  0  0  0  0  0  0  0  # atno 17342 bound_to 10162
  139.6262  144.0809  152.2436 LP  0  0  0  0  0  0  0  0  0  0  0  0  # atno 17343 bound_to 10162
  156.1294  130.3644  149.9756 LP  0  0  0  0  0  0  0  0  0  0  0  0  # atno 17370 bound_to 10713
  156.7820  130.9225  151.3646 LP  0  0  0  0  0  0  0  0  0  0  0  0  # atno 17371 bound_to 10713
  140.8892  134.2516  157.5103 LP  0  0  0  0  0  0  0  0  0  0  0  0  # atno 17394 bound_to 11000
  139.8703  134.9653  156.4525 LP  0  0  0  0  0  0  0  0  0  0  0  0  # atno 17395 bound_to 11000

$$$$
