AV-unprocessed.smi:2171|AV-procd|sdf|8828|dock4
  -GOLD-   2272012 23D 1   1.00000     0.00000
 Structure written by MMmdl.
 39 41  0  0  0  0  0  0  0  0  2 V2000
  144.1883  135.7907  152.3574 O   0  0  0  0  0  0  0  0  0  0  0  0
  145.4039  135.6178  152.2769 C   0  0  0  0  0  0  0  0  0  0  0  0
  145.9703  134.1982  152.1926 C   0  0  0  0  0  0  0  0  0  0  0  0
  145.3570  133.4359  151.1182 N   0  0  0  0  0  0  0  0  0  0  0  0
  145.9555  132.5543  150.2420 C   0  0  0  0  0  0  0  0  0  0  0  0
  144.9817  132.0860  149.4073 C   0  0  0  0  0  0  0  0  0  0  0  0
  143.8039  132.7452  149.8581 C   0  0  0  0  0  0  0  0  0  0  0  0
  144.0316  133.5523  150.8818 N   0  0  0  0  0  0  0  0  0  0  0  0
  146.2927  136.6241  152.2703 N   0  0  0  0  0  0  0  0  0  0  0  0
  145.9576  138.0437  152.3231 C   0  0  2  0  0  0  0  0  0  0  0  0
  146.4864  138.8279  151.1091 C   0  0  0  0  0  0  0  0  0  0  0  0
  146.9358  140.1922  151.6680 C   0  0  0  0  0  0  0  0  0  0  0  0
  146.5661  140.1709  153.0961 N   0  3  2  0  0  0  0  0  0  0  0  0
  147.3242  141.0612  154.0020 C   0  0  0  0  0  0  0  0  0  0  0  0
  146.7358  140.9599  155.4237 C   0  0  0  0  0  0  0  0  0  0  0  0
  146.6663  139.4981  155.9109 C   0  0  0  0  0  0  0  0  0  0  0  0
  145.9489  138.6017  154.8831 C   0  0  0  0  0  0  0  0  0  0  0  0
  146.6159  138.7591  153.5059 C   0  0  1  0  0  0  0  0  0  0  0  0
  147.0472  134.2436  152.0262 H   0  0  0  0  0  0  0  0  0  0  0  0
  145.8131  133.6727  153.1361 H   0  0  0  0  0  0  0  0  0  0  0  0
  147.0127  132.3371  150.2841 H   0  0  0  0  0  0  0  0  0  0  0  0
  145.0927  131.3789  148.5987 H   0  0  0  0  0  0  0  0  0  0  0  0
  142.7977  132.6622  149.4747 H   0  0  0  0  0  0  0  0  0  0  0  0
  147.2720  136.3871  152.2029 H   0  0  0  0  0  0  0  0  0  0  0  0
  144.8751  138.1805  152.3724 H   0  0  0  0  0  0  0  0  0  0  0  0
  147.3357  138.3229  150.6462 H   0  0  0  0  0  0  0  0  0  0  0  0
  145.7153  138.9357  150.3454 H   0  0  0  0  0  0  0  0  0  0  0  0
  148.0163  140.3016  151.5612 H   0  0  0  0  0  0  0  0  0  0  0  0
  146.4585  141.0290  151.1576 H   0  0  0  0  0  0  0  0  0  0  0  0
  148.3783  140.7801  154.0033 H   0  0  0  0  0  0  0  0  0  0  0  0
  147.2637  142.0887  153.6419 H   0  0  0  0  0  0  0  0  0  0  0  0
  147.3282  141.5573  156.1173 H   0  0  0  0  0  0  0  0  0  0  0  0
  145.7322  141.3874  155.4296 H   0  0  0  0  0  0  0  0  0  0  0  0
  147.6773  139.1231  156.0755 H   0  0  0  0  0  0  0  0  0  0  0  0
  146.1575  139.4469  156.8738 H   0  0  0  0  0  0  0  0  0  0  0  0
  145.9874  137.5621  155.2088 H   0  0  0  0  0  0  0  0  0  0  0  0
  144.8940  138.8732  154.8239 H   0  0  0  0  0  0  0  0  0  0  0  0
  147.6628  138.4529  153.5722 H   0  0  0  0  0  0  0  0  0  0  0  0
  145.5957  140.4471  153.1451 H   0  0  0  0  0  0  0  0  0  0  0  0
  1  2  2  0  0  0  0
  2  3  1  0  0  0  0
  2  9  1  0  0  0  0
  3  4  1  0  0  0  0
  3 19  1  0  0  0  0
  3 20  1  0  0  0  0
  4  8  1  0  0  0  0
  4  5  1  0  0  0  0
  5  6  2  0  0  0  0
  5 21  1  0  0  0  0
  6  7  1  0  0  0  0
  6 22  1  0  0  0  0
  7  8  2  0  0  0  0
  7 23  1  0  0  0  0
  9 10  1  0  0  0  0
  9 24  1  0  0  0  0
 10 18  1  0  0  0  0
 10 11  1  0  0  0  0
 10 25  1  0  0  0  0
 11 12  1  0  0  0  0
 11 26  1  0  0  0  0
 11 27  1  0  0  0  0
 12 13  1  0  0  0  0
 12 28  1  0  0  0  0
 12 29  1  0  0  0  0
 13 18  1  0  0  0  0
 13 14  1  0  0  0  0
 13 39  1  0  0  0  0
 14 15  1  0  0  0  0
 14 30  1  0  0  0  0
 14 31  1  0  0  0  0
 15 16  1  0  0  0  0
 15 32  1  0  0  0  0
 15 33  1  0  0  0  0
 16 17  1  0  0  0  0
 16 34  1  0  0  0  0
 16 35  1  0  0  0  0
 17 18  1  0  0  0  0
 17 36  1  0  0  0  0
 17 37  1  0  0  0  0
 18 38  1  0  0  0  0
M  CHG  1  13   1
M  END
> <s_m_source_file>
AV-unprocessed.smi

> <i_m_source_file_index>
2171

> <i_lp_mmshare_version>
43012

> <i_f3d_flags>
0

> <s_epik_input>
bjFbY0hdW2NIXVtjSF1uMVtDSDJdQyg9TylbTkhdW0NASF0oW0NIMl1bQ0gyXTIpW0NAQEhdKE4yMylbQ0gyXVtDSDJdW0NIMl1bQ0gyXTM=

> <s_epik_cmdline>
J2VwaWtfcHl0aG9uJywgJy1waCcsICc3LjAnLCAnLXRuJywgJzgnLCAnLW1hJywgJzIwMCcsICctbWV0YWxfYmluZGluZycsICctaW1hZScsICc8aW5maWxlLm1hZT4nLCAnLW9tYWUnLCAnPG91dGZpbGUubWFlPic=

> <r_lp_tautomer_probability>
1

> <r_epik_Ionization_Penalty>
0.00204179

> <r_epik_Ionization_Penalty_Charging>
0.00203239

> <r_epik_Ionization_Penalty_Neutral>
9.40205e-06

> <r_epik_State_Penalty>
0.00138983

> <r_epik_Charging_Adjusted_Penalty>
0.00342221

> <i_epik_Tot_Q>
1

> <i_epik_Tot_abs_Q>
1

> <r_epik_Metal_State_Penalty>
-0

> <b_epik_Metal_Only>
0

> <s_lp_Force_Field>
OPLS_2005

> <r_lp_Energy>
34.6158

> <b_lp_Chiralities_Consistent>
1

> <s_lp_Variant>
AV-unprocessed.smi:2171-3

> <Gold.Version>
5.8.1

> <Gold.Id.Protein>
6NUR|6NUR_protein|mol2

> <Gold.PLP.Fitness>
41.5639

> <Gold.PLP.PLP>
-27.3765

> <Gold.PLP.part.hbond>
-2.0000

> <Gold.PLP.part.metal>
0.0000

> <Gold.PLP.part.buried>
0.7036

> <Gold.PLP.part.nonpolar>
-27.8578

> <Gold.PLP.part.repulsive>
0.3303

> <Gold.PLP.ligand.clash>
0.0000

> <Gold.PLP.ligand.torsion>
0.3344

> <Gold.PLP.Chemscore.Hbond>
3.0000

> <Gold.PLP.Chemscore.CHOScore>
1.9489

> <Gold.PLP.Chemscore.Metal>
0.0000

> <Gold.Chemscore.Hbonds>
donor molecule, donor type, donor heavy atom, donor atom, acceptor molecule, acceptor atom, score
      L1  H     9    24       P1  7948  1.00
      L1  H    13    39       P1 10175  2.00
      L1  C     5    21       P1 10747  1.00
      L1  C     7    23       P1 10186  0.95

> <Gold.PLP.Chemscore.Internal.Correction>
0.0095

> <Gold.Rescore>
     Score         DG    S(hbond)    S(metal)    S(lipo)     H(rot)  DE(clash)    DE(int)     intcor
     14.52     -18.00       1.94        0.00      83.09       1.44       1.65       1.84       ----

> <Gold.Chemscore.Fitness>
14.5151

> <Gold.Chemscore.DG>
-18.0019

> <Gold.Chemscore.ZeroCoef>
-5.4800

> <Gold.Chemscore.Hbond>
1.9429

> <Gold.Chemscore.Metal>
0.0000

> <Gold.Chemscore.Lipo>
83.0903

> <Gold.Chemscore.Internal_Hbond>
0.0000

> <Gold.Chemscore.DEClash>
1.6492

> <Gold.Chemscore.DEInternal>
1.8376

> <Gold.Chemscore.Rot>
1.4410

> <Gold.Chemscore.Internal.Correction>
   9.000000E+99

> <Gold.Chemscore.Hbonds>
donor molecule, donor type, donor heavy atom, donor atom, acceptor molecule, acceptor atom, score
      L1  H     9    24       P1  7948  1.00
      L1  H    13    39       P1 10175  0.84

> <Gold.Chemscore.Hbond.Weighted>
-6.4893

> <Gold.Chemscore.Metal.Weighted>
-0.0000

> <Gold.Chemscore.Lipo.Weighted>
-9.7216

> <Gold.Chemscore.Internal_Hbond.Weighted>
0.0000

> <Gold.Chemscore.DEClash.Weighted>
1.6492

> <Gold.Chemscore.DEInternal.Weighted>
1.8376

> <Gold.Chemscore.Rot.Weighted>
3.6889

> <Gold.Chemscore.Internal.Correction.Weighted>
   9.000000E+99

> <Gold.Protein.RotatedTorsions>
[ 6907 6896 6895 6894 ] final  -26.13 input  -60.11 | X-H torsion
[ 7974 7965 7964 7962 ] final -145.66 input  175.53 | X-H torsion
[ 8008 7997 7996 7995 ] final  131.17 input   59.86 | X-H torsion
[ 10167 10162 10161 10158 ] final  116.32 input  -65.29 | X-H torsion
[ 10718 10713 10712 10709 ] final -172.92 input   66.30 | X-H torsion
[ 10763 10752 10751 10750 ] final  119.34 input  -60.55 | X-H torsion
[ 11005 11000 10999 10996 ] final   71.66 input  -57.11 | X-H torsion

> <Gold.Protein.ActiveResidues>
 VAL166  LYS551  ARG553  GLY616  TRP617  ASP618  TYR619  PRO620  LYS621  CYS622 
 ASP623  PHE694  ASN695  SER759  ASP760  ASP761  ALA762  ILE779  LEU786  VAL792 
 PHE793  MET794  SER795  GLU796  ALA797  LYS798  CYS799  TRP800  GLU811  SER814 

> <Gold.Protein.RotatedAtoms>
  151.1654  135.0293  159.8728 H   0  0  0  0  0  0  0  0  0  0  0  0  # atno 6907 bound_to 6896
  152.5450  134.1232  159.8418 H   0  0  0  0  0  0  0  0  0  0  0  0  # atno 6908 bound_to 6896
  151.1331  133.4976  159.2631 H   0  0  0  0  0  0  0  0  0  0  0  0  # atno 6909 bound_to 6896
  144.8212  140.5556  143.5577 H   0  0  0  0  0  0  0  0  0  0  0  0  # atno 7974 bound_to 7965
  156.2966  140.2578  156.2881 H   0  0  0  0  0  0  0  0  0  0  0  0  # atno 8008 bound_to 7997
  154.9536  140.0394  157.2174 H   0  0  0  0  0  0  0  0  0  0  0  0  # atno 8009 bound_to 7997
  154.8013  140.2828  155.5924 H   0  0  0  0  0  0  0  0  0  0  0  0  # atno 8010 bound_to 7997
  139.6256  144.7108  151.2541 H   0  0  0  0  0  0  0  0  0  0  0  0  # atno 10167 bound_to 10162
  156.7626  130.9419  151.3118 H   0  0  0  0  0  0  0  0  0  0  0  0  # atno 10718 bound_to 10713
  153.5815  135.3483  155.2876 H   0  0  0  0  0  0  0  0  0  0  0  0  # atno 10763 bound_to 10752
  154.8667  135.4183  154.2615 H   0  0  0  0  0  0  0  0  0  0  0  0  # atno 10764 bound_to 10752
  153.3402  135.7049  153.6943 H   0  0  0  0  0  0  0  0  0  0  0  0  # atno 10765 bound_to 10752
  139.9531  134.7191  156.0815 H   0  0  0  0  0  0  0  0  0  0  0  0  # atno 11005 bound_to 11000
  145.5100  139.1479  143.3610 LP  0  0  0  0  0  0  0  0  0  0  0  0  # atno 17320 bound_to 7965
  146.2518  140.5241  142.8890 LP  0  0  0  0  0  0  0  0  0  0  0  0  # atno 17321 bound_to 7965
  140.7408  143.6575  150.8194 LP  0  0  0  0  0  0  0  0  0  0  0  0  # atno 17342 bound_to 10162
  140.0192  143.5560  152.2807 LP  0  0  0  0  0  0  0  0  0  0  0  0  # atno 17343 bound_to 10162
  157.6727  130.9066  150.0078 LP  0  0  0  0  0  0  0  0  0  0  0  0  # atno 17370 bound_to 10713
  156.1329  130.3643  149.9703 LP  0  0  0  0  0  0  0  0  0  0  0  0  # atno 17371 bound_to 10713
  141.1198  133.6616  156.3186 LP  0  0  0  0  0  0  0  0  0  0  0  0  # atno 17394 bound_to 11000
  140.5671  134.5876  157.5448 LP  0  0  0  0  0  0  0  0  0  0  0  0  # atno 17395 bound_to 11000

$$$$
