AV-unprocessed.smi:2655|AV-procd|sdf|10302|dock10
  -GOLD-   2272014313D 1   1.00000     0.00000
 Structure written by MMmdl.
 33 34  0  0  0  0  0  0  0  0  2 V2000
  148.9345  141.1230  154.3147 C   0  0  0  0  0  0  0  0  0  0  0  0
  150.1869  141.0364  155.1608 C   0  0  0  0  0  0  0  0  0  0  0  0
  150.4938  142.0176  156.0680 N   0  0  0  0  0  0  0  0  0  0  0  0
  151.6809  141.6941  156.7095 N   0  5  0  0  0  0  0  0  0  0  0  0
  152.0852  140.5131  156.1774 C   0  0  0  0  0  0  0  0  0  0  0  0
  153.0952  139.8751  156.4694 O   0  0  0  0  0  0  0  0  0  0  0  0
  151.1274  140.0938  155.1778 C   0  0  0  0  0  0  0  0  0  0  0  0
  151.2117  138.8130  154.3689 C   0  0  0  0  0  0  0  0  0  0  0  0
  151.1160  137.5620  155.2568 C   0  0  0  0  0  0  0  0  0  0  0  0
  150.4931  136.4499  154.5490 N   0  0  0  0  0  0  0  0  0  0  0  0
  150.5815  135.1621  154.9112 C   0  0  0  0  0  0  0  0  0  0  0  0
  151.2114  134.7763  155.8962 O   0  0  0  0  0  0  0  0  0  0  0  0
  149.9020  134.3714  154.0635 N   0  0  0  0  0  0  0  0  0  0  0  0
  149.7377  132.9629  154.1117 C   0  0  0  0  0  0  0  0  0  0  0  0
  148.9938  132.1675  153.1920 C   0  0  0  0  0  0  0  0  0  0  0  0
  149.1585  130.9017  153.6787 C   0  0  0  0  0  0  0  0  0  0  0  0
  148.6663  129.5697  153.2264 C   0  0  0  0  0  0  0  0  0  0  0  0
  149.9325  130.9207  154.7968 O   0  0  0  0  0  0  0  0  0  0  0  0
  150.2997  132.2442  155.0664 N   0  0  0  0  0  0  0  0  0  0  0  0
  149.1937  141.1044  153.2558 H   0  0  0  0  0  0  0  0  0  0  0  0
  148.3862  142.0432  154.5184 H   0  0  0  0  0  0  0  0  0  0  0  0
  148.2784  140.2781  154.5243 H   0  0  0  0  0  0  0  0  0  0  0  0
  152.1528  138.8094  153.8182 H   0  0  0  0  0  0  0  0  0  0  0  0
  150.4163  138.8124  153.6224 H   0  0  0  0  0  0  0  0  0  0  0  0
  152.1050  137.2724  155.6163 H   0  0  0  0  0  0  0  0  0  0  0  0
  150.5162  137.7766  156.1417 H   0  0  0  0  0  0  0  0  0  0  0  0
  149.9564  136.6800  153.7255 H   0  0  0  0  0  0  0  0  0  0  0  0
  149.4415  134.8332  153.2931 H   0  0  0  0  0  0  0  0  0  0  0  0
  148.4307  132.4577  152.3181 H   0  0  0  0  0  0  0  0  0  0  0  0
  148.2341  129.6332  152.2277 H   0  0  0  0  0  0  0  0  0  0  0  0
  147.9004  129.1909  153.9032 H   0  0  0  0  0  0  0  0  0  0  0  0
  149.4805  128.8455  153.1964 H   0  0  0  0  0  0  0  0  0  0  0  0
  149.9362  142.8409  156.2454 H   0  0  0  0  0  0  0  0  0  0  0  0
  1 20  1  0  0  0  0
  1 21  1  0  0  0  0
  1 22  1  0  0  0  0
  1  2  1  0  0  0  0
  2  7  2  0  0  0  0
  2  3  1  0  0  0  0
  3  4  1  0  0  0  0
  3 33  1  0  0  0  0
  4  5  1  0  0  0  0
  5  7  1  0  0  0  0
  5  6  2  0  0  0  0
  7  8  1  0  0  0  0
  8  9  1  0  0  0  0
  8 23  1  0  0  0  0
  8 24  1  0  0  0  0
  9 10  1  0  0  0  0
  9 25  1  0  0  0  0
  9 26  1  0  0  0  0
 10 11  1  0  0  0  0
 10 27  1  0  0  0  0
 11 12  2  0  0  0  0
 11 13  1  0  0  0  0
 13 14  1  0  0  0  0
 13 28  1  0  0  0  0
 14 19  2  0  0  0  0
 14 15  1  0  0  0  0
 15 16  2  0  0  0  0
 15 29  1  0  0  0  0
 16 17  1  0  0  0  0
 16 18  1  0  0  0  0
 17 30  1  0  0  0  0
 17 31  1  0  0  0  0
 17 32  1  0  0  0  0
 18 19  1  0  0  0  0
M  CHG  1   4  -1
M  END
> <s_m_source_file>
AV-unprocessed.smi

> <i_m_source_file_index>
2655

> <i_lp_mmshare_version>
43012

> <i_f3d_flags>
0

> <s_epik_input>
W0NIM11DMT1OW05IXUMoPU8pW0NASF0xW0NIMl1bQ0gyXVtOSF1DKD1PKVtOSF1jMltjSF1jKFtDSDNdKW9uMg==

> <s_epik_cmdline>
J2VwaWtfcHl0aG9uJywgJy1waCcsICc3LjAnLCAnLXRuJywgJzgnLCAnLW1hJywgJzIwMCcsICctbWV0YWxfYmluZGluZycsICctaW1hZScsICc8aW5maWxlLm1hZT4nLCAnLW9tYWUnLCAnPG91dGZpbGUubWFlPic=

> <r_lp_tautomer_probability>
0.00220696

> <r_epik_Ionization_Penalty>
4.81787

> <r_epik_Ionization_Penalty_Charging>
2.1236

> <r_epik_Ionization_Penalty_Neutral>
2.69427

> <r_epik_State_Penalty>
2.7337

> <r_epik_Charging_Adjusted_Penalty>
4.8573

> <i_epik_Tot_Q>
-1

> <i_epik_Tot_abs_Q>
1

> <r_epik_Metal_State_Penalty>
2.0342

> <b_epik_Metal_Only>
1

> <s_lp_Force_Field>
OPLS_2005

> <r_lp_Energy>
14.0901

> <b_lp_Chiralities_Consistent>
1

> <s_lp_Variant>
AV-unprocessed.smi:2655-5

> <Gold.Version>
5.8.1

> <Gold.Id.Protein>
6NUR|6NUR_protein|mol2

> <Gold.PLP.Fitness>
44.1925

> <Gold.PLP.PLP>
-32.9418

> <Gold.PLP.part.hbond>
-4.0000

> <Gold.PLP.part.metal>
0.0000

> <Gold.PLP.part.buried>
-3.0682

> <Gold.PLP.part.nonpolar>
-25.5393

> <Gold.PLP.part.repulsive>
0.2974

> <Gold.PLP.ligand.clash>
0.0000

> <Gold.PLP.ligand.torsion>
0.3399

> <Gold.PLP.Chemscore.Hbond>
3.9760

> <Gold.PLP.Chemscore.CHOScore>
0.0000

> <Gold.PLP.Chemscore.Metal>
0.0000

> <Gold.Chemscore.Hbonds>
donor molecule, donor type, donor heavy atom, donor atom, acceptor molecule, acceptor atom, score
      L1  H     3    33       P1  8028  0.50
      L1  H    10    27       P1  7948  0.76
      L1  H    13    28       P1  7948  0.40
      P1  H  7997  8008       L1     6  0.47

> <Gold.PLP.Chemscore.Internal.Correction>
0.0025

> <Gold.Rescore>
     Score         DG    S(hbond)    S(metal)    S(lipo)     H(rot)  DE(clash)    DE(int)     intcor
     16.38     -18.46       3.43        0.00      53.40       1.85       0.39       1.70       ----

> <Gold.Chemscore.Fitness>
16.3751

> <Gold.Chemscore.DG>
-18.4597

> <Gold.Chemscore.ZeroCoef>
-5.4800

> <Gold.Chemscore.Hbond>
3.4338

> <Gold.Chemscore.Metal>
0.0000

> <Gold.Chemscore.Lipo>
53.4001

> <Gold.Chemscore.Internal_Hbond>
0.0000

> <Gold.Chemscore.DEClash>
0.3856

> <Gold.Chemscore.DEInternal>
1.6990

> <Gold.Chemscore.Rot>
1.8504

> <Gold.Chemscore.Internal.Correction>
   9.000000E+99

> <Gold.Chemscore.Hbonds>
donor molecule, donor type, donor heavy atom, donor atom, acceptor molecule, acceptor atom, score
      L1  H     3    33       P1  8028  0.49
      L1  H    10    27       P1  7948  0.22
      L1  H    13    28       P1  7948  0.01
      P1  H  7997  8008       L1     6  0.46

> <Gold.Chemscore.Hbond.Weighted>
-11.4688

> <Gold.Chemscore.Metal.Weighted>
-0.0000

> <Gold.Chemscore.Lipo.Weighted>
-6.2478

> <Gold.Chemscore.Internal_Hbond.Weighted>
0.0000

> <Gold.Chemscore.DEClash.Weighted>
0.3856

> <Gold.Chemscore.DEInternal.Weighted>
1.6990

> <Gold.Chemscore.Rot.Weighted>
4.7369

> <Gold.Chemscore.Internal.Correction.Weighted>
   9.000000E+99

> <Gold.Protein.RotatedTorsions>
[ 6907 6896 6895 6894 ] final   39.25 input  -60.11 | X-H torsion
[ 7974 7965 7964 7962 ] final -177.27 input  175.53 | X-H torsion
[ 8008 7997 7996 7995 ] final  -31.96 input   59.86 | X-H torsion
[ 10167 10162 10161 10158 ] final   96.58 input  -65.29 | X-H torsion
[ 10718 10713 10712 10709 ] final -123.52 input   66.30 | X-H torsion
[ 10763 10752 10751 10750 ] final   58.82 input  -60.55 | X-H torsion
[ 11005 11000 10999 10996 ] final  -43.63 input  -57.11 | X-H torsion

> <Gold.Protein.ActiveResidues>
 VAL166  LYS551  ARG553  GLY616  TRP617  ASP618  TYR619  PRO620  LYS621  CYS622 
 ASP623  PHE694  ASN695  SER759  ASP760  ASP761  ALA762  ILE779  LEU786  VAL792 
 PHE793  MET794  SER795  GLU796  ALA797  LYS798  CYS799  TRP800  GLU811  SER814 

> <Gold.Protein.RotatedAtoms>
  152.1671  134.8865  160.0537 H   0  0  0  0  0  0  0  0  0  0  0  0  # atno 6907 bound_to 6896
  151.9838  133.3762  159.4126 H   0  0  0  0  0  0  0  0  0  0  0  0  # atno 6908 bound_to 6896
  150.6896  134.3932  159.5130 H   0  0  0  0  0  0  0  0  0  0  0  0  # atno 6909 bound_to 6896
  144.7127  140.1045  143.6414 H   0  0  0  0  0  0  0  0  0  0  0  0  # atno 7974 bound_to 7965
  154.4196  140.1750  156.1650 H   0  0  0  0  0  0  0  0  0  0  0  0  # atno 8008 bound_to 7997
  155.9807  140.3378  155.6636 H   0  0  0  0  0  0  0  0  0  0  0  0  # atno 8009 bound_to 7997
  155.6504  140.0689  157.2579 H   0  0  0  0  0  0  0  0  0  0  0  0  # atno 8010 bound_to 7997
  139.7881  144.6863  150.9930 H   0  0  0  0  0  0  0  0  0  0  0  0  # atno 10167 bound_to 10162
  156.1509  130.6534  150.9912 H   0  0  0  0  0  0  0  0  0  0  0  0  # atno 10718 bound_to 10713
  152.9880  135.5593  154.5614 H   0  0  0  0  0  0  0  0  0  0  0  0  # atno 10763 bound_to 10752
  154.5032  135.2798  155.1405 H   0  0  0  0  0  0  0  0  0  0  0  0  # atno 10764 bound_to 10752
  154.2827  135.6341  153.5406 H   0  0  0  0  0  0  0  0  0  0  0  0  # atno 10765 bound_to 10752
  141.0397  133.6785  156.2760 H   0  0  0  0  0  0  0  0  0  0  0  0  # atno 11005 bound_to 11000
  145.9509  139.2733  143.1213 LP  0  0  0  0  0  0  0  0  0  0  0  0  # atno 17320 bound_to 7965
  145.9324  140.9038  143.0349 LP  0  0  0  0  0  0  0  0  0  0  0  0  # atno 17321 bound_to 7965
  140.7820  143.4410  151.0552 LP  0  0  0  0  0  0  0  0  0  0  0  0  # atno 17342 bound_to 10162
  139.8088  143.7980  152.3169 LP  0  0  0  0  0  0  0  0  0  0  0  0  # atno 17343 bound_to 10162
  157.6656  131.0872  150.7737 LP  0  0  0  0  0  0  0  0  0  0  0  0  # atno 17370 bound_to 10713
  156.7805  130.4858  149.5402 LP  0  0  0  0  0  0  0  0  0  0  0  0  # atno 17371 bound_to 10713
  140.6258  134.5315  157.5553 LP  0  0  0  0  0  0  0  0  0  0  0  0  # atno 17394 bound_to 11000
  139.9266  134.8044  156.1050 LP  0  0  0  0  0  0  0  0  0  0  0  0  # atno 17395 bound_to 11000

$$$$
