AV-unprocessed.smi:1839|AV-procd|sdf|7487|dock10
  -GOLD-   22720 9183D 1   1.00000     0.00000
 Structure written by MMmdl.
 47 48  0  0  0  0  0  0  0  0  2 V2000
  146.7189  134.9300  162.3267 C   0  0  0  0  0  0  0  0  0  0  0  0
  146.8826  135.3433  160.9328 N   0  0  0  0  0  0  0  0  0  0  0  0
  145.9508  134.6956  160.0014 C   0  0  0  0  0  0  0  0  0  0  0  0
  147.6195  136.4401  160.6261 C   0  0  0  0  0  0  0  0  0  0  0  0
  147.8414  137.3291  161.4506 O   0  0  0  0  0  0  0  0  0  0  0  0
  148.0661  136.5207  159.3501 N   0  0  0  0  0  0  0  0  0  0  0  0
  148.5158  135.3467  158.5880 C   0  0  0  0  0  0  0  0  0  0  0  0
  148.0105  135.4485  157.1385 C   0  0  0  0  0  0  0  0  0  0  0  0
  148.4663  136.7675  156.4912 C   0  0  0  0  0  0  0  0  0  0  0  0
  148.1053  137.9823  157.3747 C   0  0  2  0  0  0  0  0  0  0  0  0
  148.6605  139.2853  156.7856 C   0  0  0  0  0  0  0  0  0  0  0  0
  149.4049  139.2576  155.8051 O   0  0  0  0  0  0  0  0  0  0  0  0
  148.2974  140.4227  157.3987 N   0  0  0  0  0  0  0  0  0  0  0  0
  148.7310  141.7580  157.0061 C   0  0  0  0  0  0  0  0  0  0  0  0
  150.2531  141.8201  156.7911 C   0  0  0  0  0  0  0  0  0  0  0  0
  150.9211  142.8208  157.7131 C   0  0  0  0  0  0  0  0  0  0  0  0
  151.9046  142.4363  158.6499 C   0  0  0  0  0  0  0  0  0  0  0  0
  152.4952  143.4194  159.4713 C   0  0  0  0  0  0  0  0  0  0  0  0
  152.0908  144.7641  159.3382 C   0  0  0  0  0  0  0  0  0  0  0  0
  151.1052  145.0922  158.3848 C   0  0  0  0  0  0  0  0  0  0  0  0
  150.5637  144.1218  157.6159 N   0  3  0  0  0  0  0  0  0  0  0  0
  148.6226  137.7683  158.8146 C   0  0  0  0  0  0  0  0  0  0  0  0
  147.6476  135.0400  162.8895 H   0  0  0  0  0  0  0  0  0  0  0  0
  146.4256  133.8816  162.3950 H   0  0  0  0  0  0  0  0  0  0  0  0
  145.9501  135.5311  162.8139 H   0  0  0  0  0  0  0  0  0  0  0  0
  145.6184  135.3715  159.2121 H   0  0  0  0  0  0  0  0  0  0  0  0
  145.0518  134.3550  160.5167 H   0  0  0  0  0  0  0  0  0  0  0  0
  146.4143  133.8249  159.5380 H   0  0  0  0  0  0  0  0  0  0  0  0
  149.6063  135.3141  158.5993 H   0  0  0  0  0  0  0  0  0  0  0  0
  148.1897  134.4065  159.0336 H   0  0  0  0  0  0  0  0  0  0  0  0
  148.3734  134.6021  156.5548 H   0  0  0  0  0  0  0  0  0  0  0  0
  146.9218  135.3905  157.1224 H   0  0  0  0  0  0  0  0  0  0  0  0
  149.5457  136.7264  156.3356 H   0  0  0  0  0  0  0  0  0  0  0  0
  148.0157  136.8688  155.5032 H   0  0  0  0  0  0  0  0  0  0  0  0
  147.0167  138.0581  157.4147 H   0  0  0  0  0  0  0  0  0  0  0  0
  147.6805  140.3562  158.1955 H   0  0  0  0  0  0  0  0  0  0  0  0
  148.2037  142.0681  156.1022 H   0  0  0  0  0  0  0  0  0  0  0  0
  148.4355  142.4537  157.7920 H   0  0  0  0  0  0  0  0  0  0  0  0
  150.6948  140.8361  156.9553 H   0  0  0  0  0  0  0  0  0  0  0  0
  150.4808  142.0888  155.7587 H   0  0  0  0  0  0  0  0  0  0  0  0
  152.2055  141.4022  158.7369 H   0  0  0  0  0  0  0  0  0  0  0  0
  153.2499  143.1451  160.1939 H   0  0  0  0  0  0  0  0  0  0  0  0
  152.5309  145.5323  159.9574 H   0  0  0  0  0  0  0  0  0  0  0  0
  150.7370  146.0934  158.2151 H   0  0  0  0  0  0  0  0  0  0  0  0
  148.3373  138.6257  159.4281 H   0  0  0  0  0  0  0  0  0  0  0  0
  149.7128  137.7179  158.8389 H   0  0  0  0  0  0  0  0  0  0  0  0
  149.8525  144.3814  156.9318 H   0  0  0  0  0  0  0  0  0  0  0  0
  1  2  1  0  0  0  0
  1 23  1  0  0  0  0
  1 24  1  0  0  0  0
  1 25  1  0  0  0  0
  2  3  1  0  0  0  0
  2  4  1  0  0  0  0
  3 26  1  0  0  0  0
  3 27  1  0  0  0  0
  3 28  1  0  0  0  0
  4  5  2  0  0  0  0
  4  6  1  0  0  0  0
  6 22  1  0  0  0  0
  6  7  1  0  0  0  0
  7  8  1  0  0  0  0
  7 29  1  0  0  0  0
  7 30  1  0  0  0  0
  8  9  1  0  0  0  0
  8 31  1  0  0  0  0
  8 32  1  0  0  0  0
  9 10  1  0  0  0  0
  9 33  1  0  0  0  0
  9 34  1  0  0  0  0
 10 11  1  0  0  0  0
 10 22  1  0  0  0  0
 10 35  1  0  0  0  0
 11 12  2  0  0  0  0
 11 13  1  0  0  0  0
 13 14  1  0  0  0  0
 13 36  1  0  0  0  0
 14 15  1  0  0  0  0
 14 37  1  0  0  0  0
 14 38  1  0  0  0  0
 15 16  1  0  0  0  0
 15 39  1  0  0  0  0
 15 40  1  0  0  0  0
 16 21  1  0  0  0  0
 16 17  2  0  0  0  0
 17 18  1  0  0  0  0
 17 41  1  0  0  0  0
 18 19  2  0  0  0  0
 18 42  1  0  0  0  0
 19 20  1  0  0  0  0
 19 43  1  0  0  0  0
 20 21  2  0  0  0  0
 20 44  1  0  0  0  0
 21 47  1  0  0  0  0
 22 45  1  0  0  0  0
 22 46  1  0  0  0  0
M  CHG  1  21   1
M  END
> <s_m_source_file>
AV-unprocessed.smi

> <i_m_source_file_index>
1839

> <i_lp_mmshare_version>
43012

> <i_f3d_flags>
0

> <s_epik_input>
W0NIM11OKFtDSDNdKUMoPU8pTjFbQ0gyXVtDSDJdW0NIMl1bQ0BIXShbQ0gyXTEpQyg9TylbTkhdW0NIMl1bQ0gyXWMyW2NIXVtjSF1bY0hdW2NIXW4y

> <s_epik_cmdline>
J2VwaWtfcHl0aG9uJywgJy1waCcsICc3LjAnLCAnLXRuJywgJzgnLCAnLW1hJywgJzIwMCcsICctbWV0YWxfYmluZGluZycsICctaW1hZScsICc8aW5maWxlLm1hZT4nLCAnLW9tYWUnLCAnPG91dGZpbGUubWFlPic=

> <r_epik_Ionization_Penalty>
1.8476

> <r_epik_Ionization_Penalty_Charging>
1.84754

> <r_epik_Ionization_Penalty_Neutral>
5.83857e-05

> <r_epik_State_Penalty>
1.96477

> <r_epik_Charging_Adjusted_Penalty>
3.81231

> <i_epik_Tot_Q>
1

> <i_epik_Tot_abs_Q>
1

> <r_epik_Metal_State_Penalty>
1.99061

> <b_epik_Metal_Only>
0

> <s_lp_Force_Field>
OPLS_2005

> <r_lp_Energy>
52.6854

> <b_lp_Chiralities_Consistent>
1

> <s_lp_Variant>
AV-unprocessed.smi:1839-4

> <Gold.Version>
5.8.1

> <Gold.Id.Protein>
6NUR|6NUR_protein|mol2

> <Gold.PLP.Fitness>
46.0659

> <Gold.PLP.PLP>
-36.0824

> <Gold.PLP.part.hbond>
-2.9664

> <Gold.PLP.part.metal>
0.0000

> <Gold.PLP.part.buried>
-4.4633

> <Gold.PLP.part.nonpolar>
-28.9245

> <Gold.PLP.part.repulsive>
0.1451

> <Gold.PLP.ligand.clash>
0.0000

> <Gold.PLP.ligand.torsion>
1.1455

> <Gold.PLP.Chemscore.Hbond>
3.6443

> <Gold.PLP.Chemscore.CHOScore>
0.0000

> <Gold.PLP.Chemscore.Metal>
0.0000

> <Gold.Chemscore.Hbonds>
donor molecule, donor type, donor heavy atom, donor atom, acceptor molecule, acceptor atom, score
      L1  H    21    47       P1  8028  2.00
      P1  H  6931  6943       L1     5  0.98
      P1  H  6934  6947       L1     5  0.69

> <Gold.PLP.Chemscore.Internal.Correction>
1.3416

> <Gold.Rescore>
     Score         DG    S(hbond)    S(metal)    S(lipo)     H(rot)  DE(clash)    DE(int)     intcor
     17.30     -21.14       2.78        0.00      89.49       1.60       0.00       3.83       ----

> <Gold.Chemscore.Fitness>
17.3021

> <Gold.Chemscore.DG>
-21.1373

> <Gold.Chemscore.ZeroCoef>
-5.4800

> <Gold.Chemscore.Hbond>
2.7832

> <Gold.Chemscore.Metal>
0.0000

> <Gold.Chemscore.Lipo>
89.4870

> <Gold.Chemscore.Internal_Hbond>
0.0000

> <Gold.Chemscore.DEClash>
0.0038

> <Gold.Chemscore.DEInternal>
3.8314

> <Gold.Chemscore.Rot>
1.6049

> <Gold.Chemscore.Internal.Correction>
   9.000000E+99

> <Gold.Chemscore.Hbonds>
donor molecule, donor type, donor heavy atom, donor atom, acceptor molecule, acceptor atom, score
      L1  H    21    47       P1  8028  0.64
      P1  H  6931  6943       L1     5  0.90
      P1  H  6934  6947       L1     5  0.60

> <Gold.Chemscore.Hbond.Weighted>
-9.2960

> <Gold.Chemscore.Metal.Weighted>
-0.0000

> <Gold.Chemscore.Lipo.Weighted>
-10.4700

> <Gold.Chemscore.Internal_Hbond.Weighted>
0.0000

> <Gold.Chemscore.DEClash.Weighted>
0.0038

> <Gold.Chemscore.DEInternal.Weighted>
3.8314

> <Gold.Chemscore.Rot.Weighted>
4.1087

> <Gold.Chemscore.Internal.Correction.Weighted>
   9.000000E+99

> <Gold.Protein.RotatedTorsions>
[ 6907 6896 6895 6894 ] final   72.65 input  -60.11 | X-H torsion
[ 7974 7965 7964 7962 ] final   -3.82 input  175.53 | X-H torsion
[ 8008 7997 7996 7995 ] final  -69.21 input   59.86 | X-H torsion
[ 10167 10162 10161 10158 ] final    7.54 input  -65.29 | X-H torsion
[ 10718 10713 10712 10709 ] final    5.77 input   66.30 | X-H torsion
[ 10763 10752 10751 10750 ] final  -39.73 input  -60.55 | X-H torsion
[ 11005 11000 10999 10996 ] final   90.77 input  -57.11 | X-H torsion

> <Gold.Protein.ActiveResidues>
 VAL166  LYS551  ARG553  GLY616  TRP617  ASP618  TYR619  PRO620  LYS621  CYS622 
 ASP623  PHE694  ASN695  SER759  ASP760  ASP761  ALA762  ILE779  LEU786  VAL792 
 PHE793  MET794  SER795  GLU796  ALA797  LYS798  CYS799  TRP800  GLU811  SER814 

> <Gold.Protein.RotatedAtoms>
  152.4879  134.4540  159.9583 H   0  0  0  0  0  0  0  0  0  0  0  0  # atno 6907 bound_to 6896
  151.4533  133.3606  159.2806 H   0  0  0  0  0  0  0  0  0  0  0  0  # atno 6908 bound_to 6896
  150.9007  134.8443  159.7418 H   0  0  0  0  0  0  0  0  0  0  0  0  # atno 6909 bound_to 6896
  146.2383  140.1778  142.8332 H   0  0  0  0  0  0  0  0  0  0  0  0  # atno 7974 bound_to 7965
  154.4922  140.0858  156.7619 H   0  0  0  0  0  0  0  0  0  0  0  0  # atno 8008 bound_to 7997
  155.4202  140.3445  155.4252 H   0  0  0  0  0  0  0  0  0  0  0  0  # atno 8009 bound_to 7997
  156.1345  140.1511  156.9002 H   0  0  0  0  0  0  0  0  0  0  0  0  # atno 8010 bound_to 7997
  140.6366  143.7872  150.7368 H   0  0  0  0  0  0  0  0  0  0  0  0  # atno 10167 bound_to 10162
  156.9123  130.5761  149.5647 H   0  0  0  0  0  0  0  0  0  0  0  0  # atno 10718 bound_to 10713
  153.9342  135.6768  153.4745 H   0  0  0  0  0  0  0  0  0  0  0  0  # atno 10763 bound_to 10752
  153.0964  135.4849  154.8784 H   0  0  0  0  0  0  0  0  0  0  0  0  # atno 10764 bound_to 10752
  154.7412  135.3161  154.8683 H   0  0  0  0  0  0  0  0  0  0  0  0  # atno 10765 bound_to 10752
  139.8850  134.8633  156.3331 H   0  0  0  0  0  0  0  0  0  0  0  0  # atno 11005 bound_to 11000
  144.9959  140.8589  143.5311 LP  0  0  0  0  0  0  0  0  0  0  0  0  # atno 17320 bound_to 7965
  145.1790  139.2362  143.5302 LP  0  0  0  0  0  0  0  0  0  0  0  0  # atno 17321 bound_to 7965
  140.1494  143.4371  152.2141 LP  0  0  0  0  0  0  0  0  0  0  0  0  # atno 17342 bound_to 10162
  139.5576  144.7384  151.4248 LP  0  0  0  0  0  0  0  0  0  0  0  0  # atno 17343 bound_to 10162
  156.0530  130.5596  150.9030 LP  0  0  0  0  0  0  0  0  0  0  0  0  # atno 17370 bound_to 10713
  157.5959  131.0943  150.9041 LP  0  0  0  0  0  0  0  0  0  0  0  0  # atno 17371 bound_to 10713
  140.9709  133.7328  156.0533 LP  0  0  0  0  0  0  0  0  0  0  0  0  # atno 17394 bound_to 11000
  140.7872  134.3659  157.5473 LP  0  0  0  0  0  0  0  0  0  0  0  0  # atno 17395 bound_to 11000

$$$$
