AV-unprocessed.smi:295|AV-procd|sdf|2254|dock8
  -GOLD-   2262022143D 1   1.00000     0.00000
 Structure written by MMmdl.
 35 36  0  0  0  0  0  0  0  0  1 V2000
  152.1159  141.0092  158.9291 C   0  0  0  0  0  0  0  0  0  0  0  0
  151.9978  142.5445  158.9010 C   0  0  2  0  0  0  0  0  0  0  0  0
  152.4929  143.1540  160.2278 C   0  0  0  0  0  0  0  0  0  0  0  0
  152.3992  144.6874  160.2210 C   0  0  0  0  0  0  0  0  0  0  0  0
  150.9673  145.1517  159.9210 C   0  0  0  0  0  0  0  0  0  0  0  0
  150.4636  144.5627  158.5955 C   0  0  0  0  0  0  0  0  0  0  0  0
  150.5590  143.0238  158.5866 C   0  0  1  0  0  0  0  0  0  0  0  0
  150.1364  142.5120  157.2868 N   0  0  0  0  0  0  0  0  0  0  0  0
  149.5735  141.3160  157.0561 C   0  0  0  0  0  0  0  0  0  0  0  0
  149.2611  140.5258  157.9460 O   0  0  0  0  0  0  0  0  0  0  0  0
  149.3421  140.9505  155.5889 C   0  0  0  0  0  0  0  0  0  0  0  0
  150.2430  139.8901  155.1718 N   0  0  0  0  0  0  0  0  0  0  0  0
  149.9926  138.6208  154.8333 C   0  0  0  0  0  0  0  0  0  0  0  0
  151.0787  137.9172  154.5377 N   0  0  0  0  0  0  0  0  0  0  0  0
  152.0186  138.8878  154.7296 C   0  0  0  0  0  0  0  0  0  0  0  0
  153.4347  138.6212  154.5438 C   0  0  0  0  0  0  0  0  0  0  0  0
  154.5626  138.4084  154.3963 N   0  0  0  0  0  0  0  0  0  0  0  0
  151.5829  140.0880  155.1056 N   0  0  0  0  0  0  0  0  0  0  0  0
  151.4526  140.5758  159.6782 H   0  0  0  0  0  0  0  0  0  0  0  0
  153.1336  140.6996  159.1676 H   0  0  0  0  0  0  0  0  0  0  0  0
  151.8636  140.5655  157.9655 H   0  0  0  0  0  0  0  0  0  0  0  0
  152.6554  142.9059  158.1085 H   0  0  0  0  0  0  0  0  0  0  0  0
  151.9043  142.7583  161.0567 H   0  0  0  0  0  0  0  0  0  0  0  0
  153.5250  142.8547  160.4136 H   0  0  0  0  0  0  0  0  0  0  0  0
  152.7248  145.0842  161.1830 H   0  0  0  0  0  0  0  0  0  0  0  0
  153.0809  145.0927  159.4721 H   0  0  0  0  0  0  0  0  0  0  0  0
  150.3049  144.8466  160.7322 H   0  0  0  0  0  0  0  0  0  0  0  0
  150.9295  146.2406  159.8827 H   0  0  0  0  0  0  0  0  0  0  0  0
  149.4326  144.8757  158.4259 H   0  0  0  0  0  0  0  0  0  0  0  0
  151.0499  144.9745  157.7727 H   0  0  0  0  0  0  0  0  0  0  0  0
  149.8976  142.6325  159.3624 H   0  0  0  0  0  0  0  0  0  0  0  0
  150.3446  143.0914  156.4862 H   0  0  0  0  0  0  0  0  0  0  0  0
  148.3144  140.6163  155.4408 H   0  0  0  0  0  0  0  0  0  0  0  0
  149.4926  141.8282  154.9585 H   0  0  0  0  0  0  0  0  0  0  0  0
  148.9975  138.2011  154.8141 H   0  0  0  0  0  0  0  0  0  0  0  0
  1  2  1  0  0  0  0
  1 19  1  0  0  0  0
  1 20  1  0  0  0  0
  1 21  1  0  0  0  0
  2  7  1  0  0  0  0
  2  3  1  0  0  0  0
  2 22  1  0  0  0  0
  3  4  1  0  0  0  0
  3 23  1  0  0  0  0
  3 24  1  0  0  0  0
  4  5  1  0  0  0  0
  4 25  1  0  0  0  0
  4 26  1  0  0  0  0
  5  6  1  0  0  0  0
  5 27  1  0  0  0  0
  5 28  1  0  0  0  0
  6  7  1  0  0  0  0
  6 29  1  0  0  0  0
  6 30  1  0  0  0  0
  7  8  1  0  0  0  0
  7 31  1  0  0  0  0
  8  9  1  0  0  0  0
  8 32  1  0  0  0  0
  9 10  2  0  0  0  0
  9 11  1  0  0  0  0
 11 12  1  0  0  0  0
 11 33  1  0  0  0  0
 11 34  1  0  0  0  0
 12 18  1  0  0  0  0
 12 13  1  0  0  0  0
 13 14  2  0  0  0  0
 13 35  1  0  0  0  0
 14 15  1  0  0  0  0
 15 16  1  0  0  0  0
 15 18  2  0  0  0  0
 16 17  3  0  0  0  0
M  END
> <s_m_source_file>
AV-unprocessed.smi

> <i_m_source_file_index>
295

> <i_lp_mmshare_version>
43012

> <i_f3d_flags>
0

> <s_epik_input>
W0NIM11bQ0BASF0xW0NIMl1bQ0gyXVtDSDJdW0NIMl1bQ0BIXTFbTkhdQyg9TylbQ0gyXW4yW2NIXW5jKG4yKUMjTg==

> <s_epik_cmdline>
J2VwaWtfcHl0aG9uJywgJy1waCcsICc3LjAnLCAnLXRuJywgJzgnLCAnLW1hJywgJzIwMCcsICctbWV0YWxfYmluZGluZycsICctaW1hZScsICc8aW5maWxlLm1hZT4nLCAnLW9tYWUnLCAnPG91dGZpbGUubWFlPic=

> <r_lp_tautomer_probability>
1

> <r_epik_Ionization_Penalty>
5.31112e-08

> <r_epik_Ionization_Penalty_Charging>
0

> <r_epik_Ionization_Penalty_Neutral>
5.31112e-08

> <r_epik_State_Penalty>
-0

> <r_epik_Charging_Adjusted_Penalty>
0

> <i_epik_Tot_Q>
0

> <i_epik_Tot_abs_Q>
0

> <r_epik_Metal_State_Penalty>
-0

> <b_epik_Metal_Only>
0

> <s_lp_Force_Field>
OPLS_2005

> <r_lp_Energy>
13.1712

> <b_lp_Chiralities_Consistent>
1

> <s_lp_Variant>
AV-unprocessed.smi:295-1

> <Gold.Version>
5.8.1

> <Gold.Id.Protein>
6NUR|6NUR_protein|mol2

> <Gold.PLP.Fitness>
39.2314

> <Gold.PLP.PLP>
-36.6167

> <Gold.PLP.part.hbond>
-3.2880

> <Gold.PLP.part.metal>
0.0000

> <Gold.PLP.part.buried>
-5.7570

> <Gold.PLP.part.nonpolar>
-28.3702

> <Gold.PLP.part.repulsive>
0.2377

> <Gold.PLP.ligand.clash>
0.0000

> <Gold.PLP.ligand.torsion>
0.5102

> <Gold.PLP.Chemscore.Hbond>
1.2091

> <Gold.PLP.Chemscore.CHOScore>
0.0000

> <Gold.PLP.Chemscore.Metal>
0.0000

> <Gold.Chemscore.Hbonds>
donor molecule, donor type, donor heavy atom, donor atom, acceptor molecule, acceptor atom, score
      L1  H     8    32       P1  8028  0.12
      P1  H  7989  7998       L1    18  0.81
      P1  H  7997  8010       L1    17  0.23

> <Gold.PLP.Chemscore.Internal.Correction>
0.0078

> <Gold.Rescore>
     Score         DG    S(hbond)    S(metal)    S(lipo)     H(rot)  DE(clash)    DE(int)     intcor
      9.56     -10.26       0.31        0.00      74.48       1.95       0.13       0.56       ----

> <Gold.Chemscore.Fitness>
9.5641

> <Gold.Chemscore.DG>
-10.2560

> <Gold.Chemscore.ZeroCoef>
-5.4800

> <Gold.Chemscore.Hbond>
0.3133

> <Gold.Chemscore.Metal>
0.0000

> <Gold.Chemscore.Lipo>
74.4845

> <Gold.Chemscore.Internal_Hbond>
0.0000

> <Gold.Chemscore.DEClash>
0.1341

> <Gold.Chemscore.DEInternal>
0.5578

> <Gold.Chemscore.Rot>
1.9474

> <Gold.Chemscore.Internal.Correction>
   9.000000E+99

> <Gold.Chemscore.Hbonds>
donor molecule, donor type, donor heavy atom, donor atom, acceptor molecule, acceptor atom, score
      L1  H     8    32       P1  8028  0.12
      P1  H  7989  7998       L1    18  0.03
      P1  H  7997  8010       L1    17  0.02

> <Gold.Chemscore.Hbond.Weighted>
-1.0466

> <Gold.Chemscore.Metal.Weighted>
-0.0000

> <Gold.Chemscore.Lipo.Weighted>
-8.7147

> <Gold.Chemscore.Internal_Hbond.Weighted>
0.0000

> <Gold.Chemscore.DEClash.Weighted>
0.1341

> <Gold.Chemscore.DEInternal.Weighted>
0.5578

> <Gold.Chemscore.Rot.Weighted>
4.9852

> <Gold.Chemscore.Internal.Correction.Weighted>
   9.000000E+99

> <Gold.Protein.RotatedTorsions>
[ 6907 6896 6895 6894 ] final -146.42 input  -60.11 | X-H torsion
[ 7974 7965 7964 7962 ] final   -6.31 input  175.53 | X-H torsion
[ 8008 7997 7996 7995 ] final  153.24 input   59.86 | X-H torsion
[ 10167 10162 10161 10158 ] final -107.11 input  -65.29 | X-H torsion
[ 10718 10713 10712 10709 ] final  -81.69 input   66.30 | X-H torsion
[ 10763 10752 10751 10750 ] final   36.25 input  -60.55 | X-H torsion
[ 11005 11000 10999 10996 ] final  147.44 input  -57.11 | X-H torsion

> <Gold.Protein.ActiveResidues>
 VAL166  LYS551  ARG553  GLY616  TRP617  ASP618  TYR619  PRO620  LYS621  CYS622 
 ASP623  PHE694  ASN695  SER759  ASP760  ASP761  ALA762  ILE779  LEU786  VAL792 
 PHE793  MET794  SER795  GLU796  ALA797  LYS798  CYS799  TRP800  GLU811  SER814 

> <Gold.Protein.RotatedAtoms>
  151.1413  133.4969  159.2596 H   0  0  0  0  0  0  0  0  0  0  0  0  # atno 6907 bound_to 6896
  151.1651  135.0291  159.8737 H   0  0  0  0  0  0  0  0  0  0  0  0  # atno 6908 bound_to 6896
  152.5462  134.1283  159.8481 H   0  0  0  0  0  0  0  0  0  0  0  0  # atno 6909 bound_to 6896
  146.2334  140.2151  142.8336 H   0  0  0  0  0  0  0  0  0  0  0  0  # atno 7974 bound_to 7965
  156.2591  140.1999  156.6460 H   0  0  0  0  0  0  0  0  0  0  0  0  # atno 8008 bound_to 7997
  154.6573  140.0565  157.0048 H   0  0  0  0  0  0  0  0  0  0  0  0  # atno 8009 bound_to 7997
  155.1328  140.3235  155.4473 H   0  0  0  0  0  0  0  0  0  0  0  0  # atno 8010 bound_to 7997
  140.1805  143.3971  152.1285 H   0  0  0  0  0  0  0  0  0  0  0  0  # atno 10167 bound_to 10162
  156.0046  130.4611  150.3991 H   0  0  0  0  0  0  0  0  0  0  0  0  # atno 10718 bound_to 10713
  153.0084  135.6311  154.1956 H   0  0  0  0  0  0  0  0  0  0  0  0  # atno 10763 bound_to 10752
  154.1699  135.2819  155.3085 H   0  0  0  0  0  0  0  0  0  0  0  0  # atno 10764 bound_to 10752
  154.5916  135.5616  153.7344 H   0  0  0  0  0  0  0  0  0  0  0  0  # atno 10765 bound_to 10752
  140.0876  134.9060  157.1600 H   0  0  0  0  0  0  0  0  0  0  0  0  # atno 11005 bound_to 11000
  144.9676  140.8337  143.5475 LP  0  0  0  0  0  0  0  0  0  0  0  0  # atno 17320 bound_to 7965
  145.2128  139.2196  143.5134 LP  0  0  0  0  0  0  0  0  0  0  0  0  # atno 17321 bound_to 7965
  139.5298  144.7146  151.5096 LP  0  0  0  0  0  0  0  0  0  0  0  0  # atno 17342 bound_to 10162
  140.6523  143.8671  150.6798 LP  0  0  0  0  0  0  0  0  0  0  0  0  # atno 17343 bound_to 10162
  157.2061  131.0449  151.2624 LP  0  0  0  0  0  0  0  0  0  0  0  0  # atno 17370 bound_to 10713
  157.3931  130.7293  149.6712 LP  0  0  0  0  0  0  0  0  0  0  0  0  # atno 17371 bound_to 10713
  140.3398  134.2716  155.7214 LP  0  0  0  0  0  0  0  0  0  0  0  0  # atno 17394 bound_to 11000
  141.2067  133.7825  157.0159 LP  0  0  0  0  0  0  0  0  0  0  0  0  # atno 17395 bound_to 11000

$$$$
