AV-unprocessed.smi:2780|AV-procd|sdf|10715|dock5
  -GOLD-   2272015153D 1   1.00000     0.00000
 Structure written by MMmdl.
 47 49  0  0  0  0  0  0  0  0  2 V2000
  146.5286  129.9852  153.0356 C   0  0  0  0  0  0  0  0  0  0  0  0
  145.8264  131.0865  152.2589 C   0  0  0  0  0  0  0  0  0  0  0  0
  144.8529  130.7699  151.3838 C   0  0  0  0  0  0  0  0  0  0  0  0
  144.0366  131.7818  150.6137 C   0  0  0  0  0  0  0  0  0  0  0  0
  144.0830  133.1538  151.2901 C   0  0  0  0  0  0  0  0  0  0  0  0
  145.5269  133.5731  151.6110 C   0  0  1  0  0  0  0  0  0  0  0  0
  145.5271  134.9965  152.2020 C   0  0  0  0  0  0  0  0  0  0  0  0
  146.2520  132.5439  152.5328 C   0  0  2  0  0  0  0  0  0  0  0  0
  147.7883  132.7430  152.4484 C   0  0  0  0  0  0  0  0  0  0  0  0
  148.2834  133.7843  153.3718 N   0  3  0  0  0  0  0  0  0  0  0  0
  149.5974  133.4825  153.9725 C   0  0  0  0  0  0  0  0  0  0  0  0
  149.4566  132.6262  155.2408 C   0  0  0  0  0  0  0  0  0  0  0  0
  150.7083  132.5074  155.9713 N   0  0  0  0  0  0  0  0  0  0  0  0
  151.4067  133.4745  156.5872 C   0  0  0  0  0  0  0  0  0  0  0  0
  152.5435  133.0759  157.1551 N   0  0  0  0  0  0  0  0  0  0  0  0
  152.6148  131.7258  156.8783 N   0  0  0  0  0  0  0  0  0  0  0  0
  151.5060  131.4401  156.1859 C   0  0  0  0  0  0  0  0  0  0  0  0
  151.1926  130.0807  155.6468 C   0  0  0  0  0  0  0  0  0  0  0  0
  152.1542  129.3825  154.7113 C   0  0  0  0  0  0  0  0  0  0  0  0
  150.8267  129.8696  154.1937 C   0  0  0  0  0  0  0  0  0  0  0  0
  146.4994  130.1953  154.1042 H   0  0  0  0  0  0  0  0  0  0  0  0
  147.5664  129.8828  152.7198 H   0  0  0  0  0  0  0  0  0  0  0  0
  146.0458  129.0198  152.8783 H   0  0  0  0  0  0  0  0  0  0  0  0
  144.6024  129.7338  151.2068 H   0  0  0  0  0  0  0  0  0  0  0  0
  144.4187  131.8367  149.5939 H   0  0  0  0  0  0  0  0  0  0  0  0
  143.0041  131.4366  150.5519 H   0  0  0  0  0  0  0  0  0  0  0  0
  143.6046  133.8909  150.6440 H   0  0  0  0  0  0  0  0  0  0  0  0
  143.4985  133.1255  152.2108 H   0  0  0  0  0  0  0  0  0  0  0  0
  146.0615  133.6099  150.6602 H   0  0  0  0  0  0  0  0  0  0  0  0
  145.0129  135.0251  153.1633 H   0  0  0  0  0  0  0  0  0  0  0  0
  145.0162  135.6938  151.5370 H   0  0  0  0  0  0  0  0  0  0  0  0
  146.5323  135.3859  152.3536 H   0  0  0  0  0  0  0  0  0  0  0  0
  145.9357  132.7508  153.5566 H   0  0  0  0  0  0  0  0  0  0  0  0
  148.2924  131.7976  152.6540 H   0  0  0  0  0  0  0  0  0  0  0  0
  148.0944  133.0393  151.4464 H   0  0  0  0  0  0  0  0  0  0  0  0
  148.3506  134.6556  152.8650 H   0  0  0  0  0  0  0  0  0  0  0  0
  150.2010  132.9466  153.2390 H   0  0  0  0  0  0  0  0  0  0  0  0
  150.1228  134.4118  154.1972 H   0  0  0  0  0  0  0  0  0  0  0  0
  148.6839  133.0326  155.8937 H   0  0  0  0  0  0  0  0  0  0  0  0
  149.1345  131.6201  154.9699 H   0  0  0  0  0  0  0  0  0  0  0  0
  151.0757  134.5024  156.6193 H   0  0  0  0  0  0  0  0  0  0  0  0
  150.6748  129.4798  156.3920 H   0  0  0  0  0  0  0  0  0  0  0  0
  153.0371  129.9277  154.3847 H   0  0  0  0  0  0  0  0  0  0  0  0
  152.2848  128.3094  154.8339 H   0  0  0  0  0  0  0  0  0  0  0  0
  150.0687  129.1215  153.9714 H   0  0  0  0  0  0  0  0  0  0  0  0
  150.8344  130.7348  153.5335 H   0  0  0  0  0  0  0  0  0  0  0  0
  147.6103  133.8950  154.1166 H   0  0  0  0  0  0  0  0  0  0  0  0
  1  2  1  0  0  0  0
  1 21  1  0  0  0  0
  1 22  1  0  0  0  0
  1 23  1  0  0  0  0
  2  8  1  0  0  0  0
  2  3  2  0  0  0  0
  3  4  1  0  0  0  0
  3 24  1  0  0  0  0
  4  5  1  0  0  0  0
  4 25  1  0  0  0  0
  4 26  1  0  0  0  0
  5  6  1  0  0  0  0
  5 27  1  0  0  0  0
  5 28  1  0  0  0  0
  6  7  1  0  0  0  0
  6  8  1  0  0  0  0
  6 29  1  0  0  0  0
  7 30  1  0  0  0  0
  7 31  1  0  0  0  0
  7 32  1  0  0  0  0
  8  9  1  0  0  0  0
  8 33  1  0  0  0  0
  9 10  1  0  0  0  0
  9 34  1  0  0  0  0
  9 35  1  0  0  0  0
 10 11  1  0  0  0  0
 10 36  1  0  0  0  0
 10 47  1  0  0  0  0
 11 12  1  0  0  0  0
 11 37  1  0  0  0  0
 11 38  1  0  0  0  0
 12 13  1  0  0  0  0
 12 39  1  0  0  0  0
 12 40  1  0  0  0  0
 13 17  1  0  0  0  0
 13 14  1  0  0  0  0
 14 15  2  0  0  0  0
 14 41  1  0  0  0  0
 15 16  1  0  0  0  0
 16 17  2  0  0  0  0
 17 18  1  0  0  0  0
 18 20  1  0  0  0  0
 18 19  1  0  0  0  0
 18 42  1  0  0  0  0
 19 20  1  0  0  0  0
 19 43  1  0  0  0  0
 19 44  1  0  0  0  0
 20 45  1  0  0  0  0
 20 46  1  0  0  0  0
M  CHG  1  10   1
M  END
> <s_m_source_file>
AV-unprocessed.smi

> <i_m_source_file_index>
2780

> <i_lp_mmshare_version>
43012

> <i_f3d_flags>
0

> <s_epik_input>
W0NIM11DMT1bQ0hdW0NIMl1bQ0gyXVtDQEBIXShbQ0gzXSlbQ0BIXTFbQ0gyXVtOSF1bQ0gyXVtDSDJdbjJbY0hdbm5jMltDSF0zW0NIMl1bQ0gyXTM=

> <s_epik_cmdline>
J2VwaWtfcHl0aG9uJywgJy1waCcsICc3LjAnLCAnLXRuJywgJzgnLCAnLW1hJywgJzIwMCcsICctbWV0YWxfYmluZGluZycsICctaW1hZScsICc8aW5maWxlLm1hZT4nLCAnLW9tYWUnLCAnPG91dGZpbGUubWFlPic=

> <r_lp_tautomer_probability>
1

> <r_epik_Ionization_Penalty>
0.00176214

> <r_epik_Ionization_Penalty_Charging>
0.00175191

> <r_epik_Ionization_Penalty_Neutral>
1.02377e-05

> <r_epik_State_Penalty>
-0

> <r_epik_Charging_Adjusted_Penalty>
0.00175191

> <i_epik_Tot_Q>
1

> <i_epik_Tot_abs_Q>
1

> <r_epik_Metal_State_Penalty>
-0

> <b_epik_Metal_Only>
0

> <s_lp_Force_Field>
OPLS_2005

> <r_lp_Energy>
22.3616

> <b_lp_Chiralities_Consistent>
1

> <s_lp_Variant>
AV-unprocessed.smi:2780-3

> <Gold.Version>
5.8.1

> <Gold.Id.Protein>
6NUR|6NUR_protein|mol2

> <Gold.PLP.Fitness>
45.6600

> <Gold.PLP.PLP>
-38.3550

> <Gold.PLP.part.hbond>
-2.0000

> <Gold.PLP.part.metal>
0.0000

> <Gold.PLP.part.buried>
-4.1758

> <Gold.PLP.part.nonpolar>
-32.3448

> <Gold.PLP.part.repulsive>
0.0000

> <Gold.PLP.ligand.clash>
0.0000

> <Gold.PLP.ligand.torsion>
0.9002

> <Gold.PLP.Chemscore.Hbond>
2.9440

> <Gold.PLP.Chemscore.CHOScore>
0.0000

> <Gold.PLP.Chemscore.Metal>
0.0000

> <Gold.Chemscore.Hbonds>
donor molecule, donor type, donor heavy atom, donor atom, acceptor molecule, acceptor atom, score
      L1  H    10    36       P1  7948  2.00
      P1  H  6896  6907       L1    15  0.23

> <Gold.PLP.Chemscore.Internal.Correction>
0.2734

> <Gold.Rescore>
     Score         DG    S(hbond)    S(metal)    S(lipo)     H(rot)  DE(clash)    DE(int)     intcor
     15.03     -16.28       1.54        0.00      91.64       1.98       0.04       1.21       ----

> <Gold.Chemscore.Fitness>
15.0330

> <Gold.Chemscore.DG>
-16.2849

> <Gold.Chemscore.ZeroCoef>
-5.4800

> <Gold.Chemscore.Hbond>
1.5422

> <Gold.Chemscore.Metal>
0.0000

> <Gold.Chemscore.Lipo>
91.6448

> <Gold.Chemscore.Internal_Hbond>
0.0000

> <Gold.Chemscore.DEClash>
0.0417

> <Gold.Chemscore.DEInternal>
1.2103

> <Gold.Chemscore.Rot>
1.9799

> <Gold.Chemscore.Internal.Correction>
   9.000000E+99

> <Gold.Chemscore.Hbonds>
donor molecule, donor type, donor heavy atom, donor atom, acceptor molecule, acceptor atom, score
      L1  H    10    36       P1  7948  0.45
      P1  H  6896  6907       L1    15  0.02

> <Gold.Chemscore.Hbond.Weighted>
-5.1510

> <Gold.Chemscore.Metal.Weighted>
-0.0000

> <Gold.Chemscore.Lipo.Weighted>
-10.7224

> <Gold.Chemscore.Internal_Hbond.Weighted>
0.0000

> <Gold.Chemscore.DEClash.Weighted>
0.0417

> <Gold.Chemscore.DEInternal.Weighted>
1.2103

> <Gold.Chemscore.Rot.Weighted>
5.0685

> <Gold.Chemscore.Internal.Correction.Weighted>
   9.000000E+99

> <Gold.Protein.RotatedTorsions>
[ 6907 6896 6895 6894 ] final  172.04 input  -60.11 | X-H torsion
[ 7974 7965 7964 7962 ] final -119.23 input  175.53 | X-H torsion
[ 8008 7997 7996 7995 ] final  173.93 input   59.86 | X-H torsion
[ 10167 10162 10161 10158 ] final   50.62 input  -65.29 | X-H torsion
[ 10718 10713 10712 10709 ] final  -47.81 input   66.30 | X-H torsion
[ 10763 10752 10751 10750 ] final -156.17 input  -60.55 | X-H torsion
[ 11005 11000 10999 10996 ] final  173.72 input  -57.11 | X-H torsion

> <Gold.Protein.ActiveResidues>
 VAL166  LYS551  ARG553  GLY616  TRP617  ASP618  TYR619  PRO620  LYS621  CYS622 
 ASP623  PHE694  ASN695  SER759  ASP760  ASP761  ALA762  ILE779  LEU786  VAL792 
 PHE793  MET794  SER795  GLU796  ALA797  LYS798  CYS799  TRP800  GLU811  SER814 

> <Gold.Protein.RotatedAtoms>
  151.7906  133.3359  159.3497 H   0  0  0  0  0  0  0  0  0  0  0  0  # atno 6907 bound_to 6896
  150.7393  134.5846  159.5965 H   0  0  0  0  0  0  0  0  0  0  0  0  # atno 6908 bound_to 6896
  152.3212  134.7378  160.0364 H   0  0  0  0  0  0  0  0  0  0  0  0  # atno 6909 bound_to 6896
  145.0648  140.8316  143.4131 H   0  0  0  0  0  0  0  0  0  0  0  0  # atno 7974 bound_to 7965
  156.1025  140.1447  156.9448 H   0  0  0  0  0  0  0  0  0  0  0  0  # atno 8008 bound_to 7997
  154.4712  140.0909  156.7194 H   0  0  0  0  0  0  0  0  0  0  0  0  # atno 8009 bound_to 7997
  155.4735  140.3442  155.4331 H   0  0  0  0  0  0  0  0  0  0  0  0  # atno 8010 bound_to 7997
  140.2705  144.3271  150.6291 H   0  0  0  0  0  0  0  0  0  0  0  0  # atno 10167 bound_to 10162
  156.2048  130.4158  149.9192 H   0  0  0  0  0  0  0  0  0  0  0  0  # atno 10718 bound_to 10713
  154.7732  135.3151  154.8145 H   0  0  0  0  0  0  0  0  0  0  0  0  # atno 10763 bound_to 10752
  153.8875  135.6829  153.4767 H   0  0  0  0  0  0  0  0  0  0  0  0  # atno 10764 bound_to 10752
  153.1351  135.4763  154.9344 H   0  0  0  0  0  0  0  0  0  0  0  0  # atno 10765 bound_to 10752
  140.3436  134.7256  157.4219 H   0  0  0  0  0  0  0  0  0  0  0  0  # atno 11005 bound_to 11000
  145.1364  139.2599  143.5513 LP  0  0  0  0  0  0  0  0  0  0  0  0  # atno 17320 bound_to 7965
  146.3526  140.1029  142.8607 LP  0  0  0  0  0  0  0  0  0  0  0  0  # atno 17321 bound_to 7965
  140.5893  143.2168  151.7282 LP  0  0  0  0  0  0  0  0  0  0  0  0  # atno 17342 bound_to 10162
  139.4990  144.3963  152.0228 LP  0  0  0  0  0  0  0  0  0  0  0  0  # atno 17343 bound_to 10162
  156.6890  130.8888  151.3586 LP  0  0  0  0  0  0  0  0  0  0  0  0  # atno 17370 bound_to 10713
  157.7006  130.9329  150.0774 LP  0  0  0  0  0  0  0  0  0  0  0  0  # atno 17371 bound_to 10713
  140.0761  134.5795  155.8590 LP  0  0  0  0  0  0  0  0  0  0  0  0  # atno 17394 bound_to 11000
  141.2032  133.6630  156.6048 LP  0  0  0  0  0  0  0  0  0  0  0  0  # atno 17395 bound_to 11000

$$$$
