AV-unprocessed.smi:2826|AV-procd|sdf|10893|dock8
  -GOLD-   2272015343D 1   1.00000     0.00000
 Structure written by MMmdl.
 50 51  0  0  0  0  0  0  0  0  1 V2000
  146.4928  128.6164  152.7595 C   0  0  0  0  0  0  0  0  0  0  0  0
  147.4791  128.9821  153.7182 O   0  0  0  0  0  0  0  0  0  0  0  0
  147.8987  130.2960  153.7581 C   0  0  0  0  0  0  0  0  0  0  0  0
  148.8986  130.6569  154.6811 C   0  0  0  0  0  0  0  0  0  0  0  0
  149.3299  131.9955  154.7273 C   0  0  0  0  0  0  0  0  0  0  0  0
  148.7405  132.9404  153.8531 C   0  0  0  0  0  0  0  0  0  0  0  0
  149.1276  134.3093  153.8132 N   0  0  0  0  0  0  0  0  0  0  0  0
  149.8053  135.0086  154.7394 C   0  0  0  0  0  0  0  0  0  0  0  0
  150.1985  134.5647  155.8181 O   0  0  0  0  0  0  0  0  0  0  0  0
  149.9852  136.2798  154.3527 N   0  0  0  0  0  0  0  0  0  0  0  0
  150.6649  137.3066  155.1373 C   0  0  1  0  0  0  0  0  0  0  0  0
  151.9187  137.7910  154.3955 C   0  0  0  0  0  0  0  0  0  0  0  0
  152.5635  138.9703  155.1401 C   0  0  0  0  0  0  0  0  0  0  0  0
  151.6138  140.0179  155.3040 O   0  0  0  0  0  0  0  0  0  0  0  0
  150.4933  139.6450  156.1030 C   0  0  1  0  0  0  0  0  0  0  0  0
  149.5994  140.8829  156.3048 C   0  0  0  0  0  0  0  0  0  0  0  0
  149.9950  141.7812  157.4970 C   0  0  0  0  0  0  0  0  0  0  0  0
  148.8214  142.6324  158.0111 C   0  0  0  0  0  0  0  0  0  0  0  0
  151.1819  142.6822  157.1231 C   0  0  0  0  0  0  0  0  0  0  0  0
  149.7347  138.5037  155.3986 C   0  0  0  0  0  0  0  0  0  0  0  0
  147.7536  132.4748  152.9509 C   0  0  0  0  0  0  0  0  0  0  0  0
  147.0795  133.4100  151.9622 C   0  0  0  0  0  0  0  0  0  0  0  0
  147.3393  131.1894  152.9060 N   0  0  0  0  0  0  0  0  0  0  0  0
  146.2685  127.5547  152.8599 H   0  0  0  0  0  0  0  0  0  0  0  0
  146.8448  128.7850  151.7410 H   0  0  0  0  0  0  0  0  0  0  0  0
  145.5635  129.1663  152.9130 H   0  0  0  0  0  0  0  0  0  0  0  0
  149.3321  129.9186  155.3395 H   0  0  0  0  0  0  0  0  0  0  0  0
  150.1126  132.2673  155.4186 H   0  0  0  0  0  0  0  0  0  0  0  0
  148.7864  134.8334  153.0209 H   0  0  0  0  0  0  0  0  0  0  0  0
  149.6239  136.5602  153.4528 H   0  0  0  0  0  0  0  0  0  0  0  0
  150.9768  136.8818  156.0937 H   0  0  0  0  0  0  0  0  0  0  0  0
  152.6372  136.9770  154.2913 H   0  0  0  0  0  0  0  0  0  0  0  0
  151.6545  138.1078  153.3853 H   0  0  0  0  0  0  0  0  0  0  0  0
  152.9460  138.6555  156.1123 H   0  0  0  0  0  0  0  0  0  0  0  0
  153.4131  139.3516  154.5733 H   0  0  0  0  0  0  0  0  0  0  0  0
  150.8430  139.2861  157.0715 H   0  0  0  0  0  0  0  0  0  0  0  0
  149.6229  141.4749  155.3888 H   0  0  0  0  0  0  0  0  0  0  0  0
  148.5631  140.5650  156.4271 H   0  0  0  0  0  0  0  0  0  0  0  0
  150.3263  141.1400  158.3146 H   0  0  0  0  0  0  0  0  0  0  0  0
  148.4120  143.2617  157.2206 H   0  0  0  0  0  0  0  0  0  0  0  0
  149.1394  143.2868  158.8233 H   0  0  0  0  0  0  0  0  0  0  0  0
  148.0128  142.0143  158.3999 H   0  0  0  0  0  0  0  0  0  0  0  0
  150.9247  143.3577  156.3065 H   0  0  0  0  0  0  0  0  0  0  0  0
  152.0420  142.0907  156.8077 H   0  0  0  0  0  0  0  0  0  0  0  0
  151.4978  143.2901  157.9715 H   0  0  0  0  0  0  0  0  0  0  0  0
  149.3273  138.8668  154.4536 H   0  0  0  0  0  0  0  0  0  0  0  0
  148.8834  138.1930  156.0056 H   0  0  0  0  0  0  0  0  0  0  0  0
  146.6025  134.2383  152.4869 H   0  0  0  0  0  0  0  0  0  0  0  0
  146.3133  132.8949  151.3808 H   0  0  0  0  0  0  0  0  0  0  0  0
  147.8132  133.8179  151.2666 H   0  0  0  0  0  0  0  0  0  0  0  0
  1  2  1  0  0  0  0
  1 24  1  0  0  0  0
  1 25  1  0  0  0  0
  1 26  1  0  0  0  0
  2  3  1  0  0  0  0
  3 23  1  0  0  0  0
  3  4  2  0  0  0  0
  4  5  1  0  0  0  0
  4 27  1  0  0  0  0
  5  6  2  0  0  0  0
  5 28  1  0  0  0  0
  6  7  1  0  0  0  0
  6 21  1  0  0  0  0
  7  8  1  0  0  0  0
  7 29  1  0  0  0  0
  8  9  2  0  0  0  0
  8 10  1  0  0  0  0
 10 11  1  0  0  0  0
 10 30  1  0  0  0  0
 11 20  1  0  0  0  0
 11 12  1  0  0  0  0
 11 31  1  0  0  0  0
 12 13  1  0  0  0  0
 12 32  1  0  0  0  0
 12 33  1  0  0  0  0
 13 14  1  0  0  0  0
 13 34  1  0  0  0  0
 13 35  1  0  0  0  0
 14 15  1  0  0  0  0
 15 16  1  0  0  0  0
 15 20  1  0  0  0  0
 15 36  1  0  0  0  0
 16 17  1  0  0  0  0
 16 37  1  0  0  0  0
 16 38  1  0  0  0  0
 17 18  1  0  0  0  0
 17 19  1  0  0  0  0
 17 39  1  0  0  0  0
 18 40  1  0  0  0  0
 18 41  1  0  0  0  0
 18 42  1  0  0  0  0
 19 43  1  0  0  0  0
 19 44  1  0  0  0  0
 19 45  1  0  0  0  0
 20 46  1  0  0  0  0
 20 47  1  0  0  0  0
 21 22  1  0  0  0  0
 21 23  2  0  0  0  0
 22 48  1  0  0  0  0
 22 49  1  0  0  0  0
 22 50  1  0  0  0  0
M  END
> <s_m_source_file>
AV-unprocessed.smi

> <i_m_source_file_index>
2826

> <i_lp_mmshare_version>
43012

> <i_f3d_flags>
0

> <s_epik_input>
W0NIM11PYzFbY0hdW2NIXWMoYyhuMSlbQ0gzXSlbTkhdQyg9TylbTkhdW0NAQEhdMltDSDJdW0NIMl1PW0NASF0oW0NIMl0yKVtDSDJdW0NIXShbQ0gzXSlbQ0gzXQ==

> <s_epik_cmdline>
J2VwaWtfcHl0aG9uJywgJy1waCcsICc3LjAnLCAnLXRuJywgJzgnLCAnLW1hJywgJzIwMCcsICctbWV0YWxfYmluZGluZycsICctaW1hZScsICc8aW5maWxlLm1hZT4nLCAnLW9tYWUnLCAnPG91dGZpbGUubWFlPic=

> <r_lp_tautomer_probability>
1

> <r_epik_Ionization_Penalty>
0.000249977

> <r_epik_Ionization_Penalty_Charging>
0

> <r_epik_Ionization_Penalty_Neutral>
0.000249977

> <r_epik_State_Penalty>
-0

> <r_epik_Charging_Adjusted_Penalty>
0

> <i_epik_Tot_Q>
0

> <i_epik_Tot_abs_Q>
0

> <r_epik_Metal_State_Penalty>
-0

> <b_epik_Metal_Only>
0

> <s_lp_Force_Field>
OPLS_2005

> <r_lp_Energy>
13.3691

> <b_lp_Chiralities_Consistent>
1

> <s_lp_Variant>
AV-unprocessed.smi:2826-2

> <Gold.Version>
5.8.1

> <Gold.Id.Protein>
6NUR|6NUR_protein|mol2

> <Gold.PLP.Fitness>
45.0181

> <Gold.PLP.PLP>
-37.3633

> <Gold.PLP.part.hbond>
-3.8376

> <Gold.PLP.part.metal>
0.0000

> <Gold.PLP.part.buried>
-2.6859

> <Gold.PLP.part.nonpolar>
-31.9059

> <Gold.PLP.part.repulsive>
0.6627

> <Gold.PLP.ligand.clash>
0.0000

> <Gold.PLP.ligand.torsion>
0.5866

> <Gold.PLP.Chemscore.Hbond>
2.9272

> <Gold.PLP.Chemscore.CHOScore>
0.0000

> <Gold.PLP.Chemscore.Metal>
0.0000

> <Gold.Chemscore.Hbonds>
donor molecule, donor type, donor heavy atom, donor atom, acceptor molecule, acceptor atom, score
      L1  H     7    29       P1  7948  0.94
      L1  H    10    30       P1  7948  1.00
      P1  H  7989  7998       L1    14  0.99

> <Gold.PLP.Chemscore.Internal.Correction>
0.0463

> <Gold.Rescore>
     Score         DG    S(hbond)    S(metal)    S(lipo)     H(rot)  DE(clash)    DE(int)     intcor
     15.06     -16.85       1.54        0.00      86.19       1.51       0.02       1.77       ----

> <Gold.Chemscore.Fitness>
15.0613

> <Gold.Chemscore.DG>
-16.8467

> <Gold.Chemscore.ZeroCoef>
-5.4800

> <Gold.Chemscore.Hbond>
1.5382

> <Gold.Chemscore.Metal>
0.0000

> <Gold.Chemscore.Lipo>
86.1875

> <Gold.Chemscore.Internal_Hbond>
0.0000

> <Gold.Chemscore.DEClash>
0.0183

> <Gold.Chemscore.DEInternal>
1.7671

> <Gold.Chemscore.Rot>
1.5057

> <Gold.Chemscore.Internal.Correction>
   9.000000E+99

> <Gold.Chemscore.Hbonds>
donor molecule, donor type, donor heavy atom, donor atom, acceptor molecule, acceptor atom, score
      L1  H     7    29       P1  7948  0.20
      L1  H    10    30       P1  7948  0.54
      P1  H  7989  7998       L1    14  0.28

> <Gold.Chemscore.Hbond.Weighted>
-5.1374

> <Gold.Chemscore.Metal.Weighted>
-0.0000

> <Gold.Chemscore.Lipo.Weighted>
-10.0839

> <Gold.Chemscore.Internal_Hbond.Weighted>
0.0000

> <Gold.Chemscore.DEClash.Weighted>
0.0183

> <Gold.Chemscore.DEInternal.Weighted>
1.7671

> <Gold.Chemscore.Rot.Weighted>
3.8547

> <Gold.Chemscore.Internal.Correction.Weighted>
   9.000000E+99

> <Gold.Protein.RotatedTorsions>
[ 6907 6896 6895 6894 ] final -102.10 input  -60.11 | X-H torsion
[ 7974 7965 7964 7962 ] final   96.84 input  175.53 | X-H torsion
[ 8008 7997 7996 7995 ] final  -15.46 input   59.86 | X-H torsion
[ 10167 10162 10161 10158 ] final  -10.21 input  -65.29 | X-H torsion
[ 10718 10713 10712 10709 ] final  -50.00 input   66.30 | X-H torsion
[ 10763 10752 10751 10750 ] final  -56.44 input  -60.55 | X-H torsion
[ 11005 11000 10999 10996 ] final  115.24 input  -57.11 | X-H torsion

> <Gold.Protein.ActiveResidues>
 VAL166  LYS551  ARG553  GLY616  TRP617  ASP618  TYR619  PRO620  LYS621  CYS622 
 ASP623  PHE694  ASN695  SER759  ASP760  ASP761  ALA762  ILE779  LEU786  VAL792 
 PHE793  MET794  SER795  GLU796  ALA797  LYS798  CYS799  TRP800  GLU811  SER814 

> <Gold.Protein.RotatedAtoms>
  150.7182  134.0633  159.3838 H   0  0  0  0  0  0  0  0  0  0  0  0  # atno 6907 bound_to 6896
  151.8613  135.0521  160.0479 H   0  0  0  0  0  0  0  0  0  0  0  0  # atno 6908 bound_to 6896
  152.2715  133.5351  159.5478 H   0  0  0  0  0  0  0  0  0  0  0  0  # atno 6909 bound_to 6896
  145.4334  139.2308  143.3131 H   0  0  0  0  0  0  0  0  0  0  0  0  # atno 7974 bound_to 7965
  154.5129  140.2196  155.9122 H   0  0  0  0  0  0  0  0  0  0  0  0  # atno 8008 bound_to 7997
  156.1573  140.3149  155.8713 H   0  0  0  0  0  0  0  0  0  0  0  0  # atno 8009 bound_to 7997
  155.3821  140.0473  157.3034 H   0  0  0  0  0  0  0  0  0  0  0  0  # atno 8010 bound_to 7997
  140.7108  143.5773  150.9029 H   0  0  0  0  0  0  0  0  0  0  0  0  # atno 10167 bound_to 10162
  156.1841  130.4151  149.9465 H   0  0  0  0  0  0  0  0  0  0  0  0  # atno 10718 bound_to 10713
  154.2067  135.6401  153.5103 H   0  0  0  0  0  0  0  0  0  0  0  0  # atno 10763 bound_to 10752
  152.9999  135.5464  154.6258 H   0  0  0  0  0  0  0  0  0  0  0  0  # atno 10764 bound_to 10752
  154.5685  135.2915  155.0824 H   0  0  0  0  0  0  0  0  0  0  0  0  # atno 10765 bound_to 10752
  139.9004  134.9581  156.7015 H   0  0  0  0  0  0  0  0  0  0  0  0  # atno 11005 bound_to 11000
  146.2595  140.5074  142.8859 LP  0  0  0  0  0  0  0  0  0  0  0  0  # atno 17320 bound_to 7965
  144.8168  140.6481  143.6379 LP  0  0  0  0  0  0  0  0  0  0  0  0  # atno 17321 bound_to 7965
  139.9499  143.6285  152.3032 LP  0  0  0  0  0  0  0  0  0  0  0  0  # atno 17342 bound_to 10162
  139.6799  144.7656  151.1627 LP  0  0  0  0  0  0  0  0  0  0  0  0  # atno 17343 bound_to 10162
  156.7226  130.9012  151.3619 LP  0  0  0  0  0  0  0  0  0  0  0  0  # atno 17370 bound_to 10713
  157.6887  130.9212  150.0456 LP  0  0  0  0  0  0  0  0  0  0  0  0  # atno 17371 bound_to 10713
  140.7146  133.9193  155.8107 LP  0  0  0  0  0  0  0  0  0  0  0  0  # atno 17394 bound_to 11000
  141.0274  134.0804  157.4053 LP  0  0  0  0  0  0  0  0  0  0  0  0  # atno 17395 bound_to 11000

$$$$
