AV-unprocessed.smi:2799|AV-procd|sdf|10790|dock9
  -GOLD-   2272015223D 1   1.00000     0.00000
 Structure written by MMmdl.
 52 53  0  0  0  0  0  0  0  0  2 V2000
  158.5698  137.2992  167.0562 C   0  0  0  0  0  0  0  0  0  0  0  0
  157.4082  136.6860  166.2559 C   0  0  0  0  0  0  0  0  0  0  0  0
  157.5219  135.1547  166.2359 C   0  0  0  0  0  0  0  0  0  0  0  0
  157.3376  137.2402  164.8145 C   0  0  0  0  0  0  0  0  0  0  0  0
  156.1118  136.8530  164.0605 N   0  3  1  0  0  0  0  0  0  0  0  0
  154.8703  137.2835  164.7586 C   0  0  0  0  0  0  0  0  0  0  0  0
  153.6203  136.6684  164.1095 C   0  0  0  0  0  0  0  0  0  0  0  0
  153.5542  136.9982  162.6145 C   0  0  0  0  0  0  0  0  0  0  0  0
  154.8563  136.5626  161.9290 C   0  0  0  0  0  0  0  0  0  0  0  0
  156.1047  137.1830  162.6001 C   0  0  1  0  0  0  0  0  0  0  0  0
  156.2728  138.7003  162.3110 C   0  0  0  0  0  0  0  0  0  0  0  0
  155.4355  139.1519  161.2045 N   0  0  0  0  0  0  0  0  0  0  0  0
  154.7480  140.3027  161.1893 C   0  0  0  0  0  0  0  0  0  0  0  0
  154.7471  141.0957  162.1309 O   0  0  0  0  0  0  0  0  0  0  0  0
  154.1062  140.4657  160.0180 N   0  0  0  0  0  0  0  0  0  0  0  0
  153.2841  141.5246  159.5942 C   0  0  0  0  0  0  0  0  0  0  0  0
  153.0522  142.6539  160.3096 C   0  0  0  0  0  0  0  0  0  0  0  0
  152.1867  143.6903  159.8002 C   0  0  0  0  0  0  0  0  0  0  0  0
  151.6070  143.5066  158.6058 C   0  0  0  0  0  0  0  0  0  0  0  0
  151.8236  142.3401  157.8528 N   0  0  0  0  0  0  0  0  0  0  0  0
  151.1427  142.2317  156.5600 C   0  0  0  0  0  0  0  0  0  0  0  0
  152.6341  141.3279  158.2835 C   0  0  0  0  0  0  0  0  0  0  0  0
  152.8044  140.3129  157.6033 O   0  0  0  0  0  0  0  0  0  0  0  0
  159.5297  137.1011  166.5782 H   0  0  0  0  0  0  0  0  0  0  0  0
  158.6108  136.8860  168.0645 H   0  0  0  0  0  0  0  0  0  0  0  0
  158.4632  138.3795  167.1552 H   0  0  0  0  0  0  0  0  0  0  0  0
  156.4777  136.9121  166.7758 H   0  0  0  0  0  0  0  0  0  0  0  0
  158.4347  134.8292  165.7356 H   0  0  0  0  0  0  0  0  0  0  0  0
  156.6772  134.7045  165.7134 H   0  0  0  0  0  0  0  0  0  0  0  0
  157.5341  134.7482  167.2477 H   0  0  0  0  0  0  0  0  0  0  0  0
  157.3732  138.3292  164.8704 H   0  0  0  0  0  0  0  0  0  0  0  0
  158.2247  136.9489  164.2518 H   0  0  0  0  0  0  0  0  0  0  0  0
  154.9111  136.9722  165.8032 H   0  0  0  0  0  0  0  0  0  0  0  0
  154.8009  138.3718  164.7638 H   0  0  0  0  0  0  0  0  0  0  0  0
  153.6348  135.5860  164.2442 H   0  0  0  0  0  0  0  0  0  0  0  0
  152.7223  137.0301  164.6114 H   0  0  0  0  0  0  0  0  0  0  0  0
  152.7028  136.4931  162.1574 H   0  0  0  0  0  0  0  0  0  0  0  0
  153.3922  138.0671  162.4733 H   0  0  0  0  0  0  0  0  0  0  0  0
  154.9325  135.4754  161.9786 H   0  0  0  0  0  0  0  0  0  0  0  0
  154.8188  136.8047  160.8666 H   0  0  0  0  0  0  0  0  0  0  0  0
  156.9523  136.6679  162.1505 H   0  0  0  0  0  0  0  0  0  0  0  0
  156.0125  139.2961  163.1850 H   0  0  0  0  0  0  0  0  0  0  0  0
  157.3084  138.9448  162.0742 H   0  0  0  0  0  0  0  0  0  0  0  0
  155.3866  138.5545  160.3918 H   0  0  0  0  0  0  0  0  0  0  0  0
  154.2628  139.7548  159.3181 H   0  0  0  0  0  0  0  0  0  0  0  0
  153.4879  142.8121  161.2827 H   0  0  0  0  0  0  0  0  0  0  0  0
  152.0122  144.5926  160.3676 H   0  0  0  0  0  0  0  0  0  0  0  0
  150.9483  144.2353  158.1560 H   0  0  0  0  0  0  0  0  0  0  0  0
  151.8688  142.1300  155.7521 H   0  0  0  0  0  0  0  0  0  0  0  0
  150.5263  143.1025  156.3339 H   0  0  0  0  0  0  0  0  0  0  0  0
  150.4889  141.3585  156.5429 H   0  0  0  0  0  0  0  0  0  0  0  0
  156.0943  135.8439  164.0984 H   0  0  0  0  0  0  0  0  0  0  0  0
  1  2  1  0  0  0  0
  1 24  1  0  0  0  0
  1 25  1  0  0  0  0
  1 26  1  0  0  0  0
  2  3  1  0  0  0  0
  2  4  1  0  0  0  0
  2 27  1  0  0  0  0
  3 28  1  0  0  0  0
  3 29  1  0  0  0  0
  3 30  1  0  0  0  0
  4  5  1  0  0  0  0
  4 31  1  0  0  0  0
  4 32  1  0  0  0  0
  5 10  1  0  0  0  0
  5  6  1  0  0  0  0
  5 52  1  0  0  0  0
  6  7  1  0  0  0  0
  6 33  1  0  0  0  0
  6 34  1  0  0  0  0
  7  8  1  0  0  0  0
  7 35  1  0  0  0  0
  7 36  1  0  0  0  0
  8  9  1  0  0  0  0
  8 37  1  0  0  0  0
  8 38  1  0  0  0  0
  9 10  1  0  0  0  0
  9 39  1  0  0  0  0
  9 40  1  0  0  0  0
 10 11  1  0  0  0  0
 10 41  1  0  0  0  0
 11 12  1  0  0  0  0
 11 42  1  0  0  0  0
 11 43  1  0  0  0  0
 12 13  1  0  0  0  0
 12 44  1  0  0  0  0
 13 14  2  0  0  0  0
 13 15  1  0  0  0  0
 15 16  1  0  0  0  0
 15 45  1  0  0  0  0
 16 22  1  0  0  0  0
 16 17  2  0  0  0  0
 17 18  1  0  0  0  0
 17 46  1  0  0  0  0
 18 19  2  0  0  0  0
 18 47  1  0  0  0  0
 19 20  1  0  0  0  0
 19 48  1  0  0  0  0
 20 21  1  0  0  0  0
 20 22  1  0  0  0  0
 21 49  1  0  0  0  0
 21 50  1  0  0  0  0
 21 51  1  0  0  0  0
 22 23  2  0  0  0  0
M  CHG  1   5   1
M  END
> <s_m_source_file>
AV-unprocessed.smi

> <i_m_source_file_index>
2799

> <i_lp_mmshare_version>
43012

> <i_f3d_flags>
0

> <s_epik_input>
W0NIM11bQ0hdKFtDSDNdKVtDSDJdTjFbQ0gyXVtDSDJdW0NIMl1bQ0gyXVtDQEhdMVtDSDJdW05IXUMoPU8pW05IXWMyW2NIXVtjSF1bY0hdbihbQ0gzXSljMj1P

> <s_epik_cmdline>
J2VwaWtfcHl0aG9uJywgJy1waCcsICc3LjAnLCAnLXRuJywgJzgnLCAnLW1hJywgJzIwMCcsICctbWV0YWxfYmluZGluZycsICctaW1hZScsICc8aW5maWxlLm1hZT4nLCAnLW9tYWUnLCAnPG91dGZpbGUubWFlPic=

> <r_lp_tautomer_probability>
1

> <r_epik_Ionization_Penalty>
0.0010885

> <r_epik_Ionization_Penalty_Charging>
0.00106921

> <r_epik_Ionization_Penalty_Neutral>
1.92865e-05

> <r_epik_State_Penalty>
0.000697184

> <r_epik_Charging_Adjusted_Penalty>
0.0017664

> <i_epik_Tot_Q>
1

> <i_epik_Tot_abs_Q>
1

> <r_epik_Metal_State_Penalty>
-0

> <b_epik_Metal_Only>
0

> <s_lp_Force_Field>
OPLS_2005

> <r_lp_Energy>
35.5071

> <b_lp_Chiralities_Consistent>
1

> <s_lp_Variant>
AV-unprocessed.smi:2799-2

> <Gold.Version>
5.8.1

> <Gold.Id.Protein>
6NUR|6NUR_protein|mol2

> <Gold.PLP.Fitness>
40.7839

> <Gold.PLP.PLP>
-39.2806

> <Gold.PLP.part.hbond>
-2.0000

> <Gold.PLP.part.metal>
0.0000

> <Gold.PLP.part.buried>
-5.0365

> <Gold.PLP.part.nonpolar>
-31.3700

> <Gold.PLP.part.repulsive>
0.0654

> <Gold.PLP.ligand.clash>
0.0000

> <Gold.PLP.ligand.torsion>
0.7770

> <Gold.PLP.Chemscore.Hbond>
0.9913

> <Gold.PLP.Chemscore.CHOScore>
0.0000

> <Gold.PLP.Chemscore.Metal>
0.0000

> <Gold.Chemscore.Hbonds>
donor molecule, donor type, donor heavy atom, donor atom, acceptor molecule, acceptor atom, score
      P1  H  7997  8010       L1    23  0.93

> <Gold.PLP.Chemscore.Internal.Correction>
0.0835

> <Gold.Rescore>
     Score         DG    S(hbond)    S(metal)    S(lipo)     H(rot)  DE(clash)    DE(int)     intcor
     13.34     -15.40       0.91        0.00      93.10       1.57       0.14       1.91       ----

> <Gold.Chemscore.Fitness>
13.3426

> <Gold.Chemscore.DG>
-15.3993

> <Gold.Chemscore.ZeroCoef>
-5.4800

> <Gold.Chemscore.Hbond>
0.9110

> <Gold.Chemscore.Metal>
0.0000

> <Gold.Chemscore.Lipo>
93.1001

> <Gold.Chemscore.Internal_Hbond>
0.0000

> <Gold.Chemscore.DEClash>
0.1429

> <Gold.Chemscore.DEInternal>
1.9138

> <Gold.Chemscore.Rot>
1.5688

> <Gold.Chemscore.Internal.Correction>
   9.000000E+99

> <Gold.Chemscore.Hbonds>
donor molecule, donor type, donor heavy atom, donor atom, acceptor molecule, acceptor atom, score
      P1  H  7997  8010       L1    23  0.86

> <Gold.Chemscore.Hbond.Weighted>
-3.0427

> <Gold.Chemscore.Metal.Weighted>
-0.0000

> <Gold.Chemscore.Lipo.Weighted>
-10.8927

> <Gold.Chemscore.Internal_Hbond.Weighted>
0.0000

> <Gold.Chemscore.DEClash.Weighted>
0.1429

> <Gold.Chemscore.DEInternal.Weighted>
1.9138

> <Gold.Chemscore.Rot.Weighted>
4.0161

> <Gold.Chemscore.Internal.Correction.Weighted>
   9.000000E+99

> <Gold.Protein.RotatedTorsions>
[ 6907 6896 6895 6894 ] final  -85.44 input  -60.11 | X-H torsion
[ 7974 7965 7964 7962 ] final -158.42 input  175.53 | X-H torsion
[ 8008 7997 7996 7995 ] final   49.49 input   59.86 | X-H torsion
[ 10167 10162 10161 10158 ] final  129.44 input  -65.29 | X-H torsion
[ 10718 10713 10712 10709 ] final   41.88 input   66.30 | X-H torsion
[ 10763 10752 10751 10750 ] final  -97.06 input  -60.55 | X-H torsion
[ 11005 11000 10999 10996 ] final  -99.00 input  -57.11 | X-H torsion

> <Gold.Protein.ActiveResidues>
 VAL166  LYS551  ARG553  GLY616  TRP617  ASP618  TYR619  PRO620  LYS621  CYS622 
 ASP623  PHE694  ASN695  SER759  ASP760  ASP761  ALA762  ILE779  LEU786  VAL792 
 PHE793  MET794  SER795  GLU796  ALA797  LYS798  CYS799  TRP800  GLU811  SER814 

> <Gold.Protein.RotatedAtoms>
  150.6870  134.3205  159.4784 H   0  0  0  0  0  0  0  0  0  0  0  0  # atno 6907 bound_to 6896
  152.1081  134.9292  160.0577 H   0  0  0  0  0  0  0  0  0  0  0  0  # atno 6908 bound_to 6896
  152.0545  133.3999  159.4428 H   0  0  0  0  0  0  0  0  0  0  0  0  # atno 6909 bound_to 6896
  144.7506  140.3830  143.6050 H   0  0  0  0  0  0  0  0  0  0  0  0  # atno 7974 bound_to 7965
  155.4031  140.3439  155.4258 H   0  0  0  0  0  0  0  0  0  0  0  0  # atno 8008 bound_to 7997
  156.1492  140.1566  156.8829 H   0  0  0  0  0  0  0  0  0  0  0  0  # atno 8009 bound_to 7997
  154.5037  140.0808  156.7832 H   0  0  0  0  0  0  0  0  0  0  0  0  # atno 8010 bound_to 7997
  139.5478  144.6788  151.4419 H   0  0  0  0  0  0  0  0  0  0  0  0  # atno 10167 bound_to 10162
  157.3985  130.7847  149.7329 H   0  0  0  0  0  0  0  0  0  0  0  0  # atno 10718 bound_to 10713
  154.7294  135.5060  153.8940 H   0  0  0  0  0  0  0  0  0  0  0  0  # atno 10763 bound_to 10752
  153.0936  135.6666  153.9815 H   0  0  0  0  0  0  0  0  0  0  0  0  # atno 10764 bound_to 10752
  153.9620  135.3047  155.3412 H   0  0  0  0  0  0  0  0  0  0  0  0  # atno 10765 bound_to 10752
  141.1324  133.8288  157.0914 H   0  0  0  0  0  0  0  0  0  0  0  0  # atno 11005 bound_to 11000
  145.6957  139.1649  143.2621 LP  0  0  0  0  0  0  0  0  0  0  0  0  # atno 17320 bound_to 7965
  146.1452  140.7003  142.9348 LP  0  0  0  0  0  0  0  0  0  0  0  0  # atno 17321 bound_to 7965
  140.6731  143.8250  150.7024 LP  0  0  0  0  0  0  0  0  0  0  0  0  # atno 17342 bound_to 10162
  140.1680  143.4219  152.2021 LP  0  0  0  0  0  0  0  0  0  0  0  0  # atno 17343 bound_to 10162
  155.9817  130.4017  150.3458 LP  0  0  0  0  0  0  0  0  0  0  0  0  # atno 17370 bound_to 10713
  157.1583  131.0338  151.2853 LP  0  0  0  0  0  0  0  0  0  0  0  0  # atno 17371 bound_to 10713
  140.0390  134.9864  157.0925 LP  0  0  0  0  0  0  0  0  0  0  0  0  # atno 17394 bound_to 11000
  140.4165  134.1925  155.7163 LP  0  0  0  0  0  0  0  0  0  0  0  0  # atno 17395 bound_to 11000

$$$$
