AV-unprocessed.smi:282|AV-procd|sdf|2118|dock6
  -GOLD-   2262021413D 1   1.00000     0.00000
 Structure written by MMmdl.
 65 69  0  0  0  0  0  0  0  0  2 V2000
  148.7057  141.4298  154.4457 C   0  0  0  0  0  0  0  0  0  0  0  0
  148.9458  140.7633  155.8074 C   0  0  0  0  0  0  0  0  0  0  0  0
  150.2445  141.2242  156.5214 C   0  0  1  0  0  0  0  0  0  0  0  0
  149.9692  142.4339  157.4454 C   0  0  0  0  0  0  0  0  0  0  0  0
  151.1767  142.8567  158.1978 N   0  3  1  0  0  0  0  0  0  0  0  0
  150.9130  144.0501  159.0430 C   0  0  0  0  0  0  0  0  0  0  0  0
  152.1938  144.5396  159.7367 C   0  0  0  0  0  0  0  0  0  0  0  0
  152.8283  143.4156  160.5636 C   0  0  0  0  0  0  0  0  0  0  0  0
  153.0773  142.1921  159.6733 C   0  0  0  0  0  0  0  0  0  0  0  0
  151.7841  141.7361  158.9685 C   0  0  2  0  0  0  0  0  0  0  0  0
  152.0634  140.5402  158.0436 C   0  0  0  0  0  0  0  0  0  0  0  0
  150.8713  140.1476  157.3004 N   0  0  0  0  0  0  0  0  0  0  0  0
  151.0820  138.9784  156.6550 C   0  0  0  0  0  0  0  0  0  0  0  0
  151.8034  139.0283  155.5090 N   0  0  0  0  0  0  0  0  0  0  0  0
  152.0510  137.9052  154.8282 C   0  0  0  0  0  0  0  0  0  0  0  0
  151.6764  136.6564  155.1136 N   0  0  0  0  0  0  0  0  0  0  0  0
  150.9466  136.6045  156.2649 C   0  0  0  0  0  0  0  0  0  0  0  0
  150.5983  137.7116  157.0881 C   0  0  0  0  0  0  0  0  0  0  0  0
  149.8329  137.2814  158.1643 N   0  0  0  0  0  0  0  0  0  0  0  0
  149.7361  135.9921  157.9879 C   0  0  0  0  0  0  0  0  0  0  0  0
  150.3930  135.4962  156.8834 N   0  0  0  0  0  0  0  0  0  0  0  0
  150.4473  134.1052  156.4541 C   0  0  0  0  0  0  0  0  0  0  0  0
  149.3009  133.6654  155.4884 C   0  0  0  0  0  0  0  0  0  0  0  0
  148.6206  134.8960  154.8309 C   0  0  0  0  0  0  0  0  0  0  0  0
  147.6332  134.5236  153.8899 O   0  0  0  0  0  0  0  0  0  0  0  0
  149.8627  132.7429  154.3775 C   0  0  0  0  0  0  0  0  0  0  0  0
  150.2508  131.3466  154.8972 C   0  0  0  0  0  0  0  0  0  0  0  0
  149.1336  130.7345  155.5280 O   0  0  0  0  0  0  0  0  0  0  0  0
  148.6760  131.4612  156.6608 C   0  0  0  0  0  0  0  0  0  0  0  0
  148.2025  132.8609  156.2284 C   0  0  0  0  0  0  0  0  0  0  0  0
  147.8358  140.9930  153.9544 H   0  0  0  0  0  0  0  0  0  0  0  0
  149.5613  141.2933  153.7840 H   0  0  0  0  0  0  0  0  0  0  0  0
  148.5171  142.4985  154.5416 H   0  0  0  0  0  0  0  0  0  0  0  0
  148.0854  140.9358  156.4552 H   0  0  0  0  0  0  0  0  0  0  0  0
  148.9727  139.6888  155.6264 H   0  0  0  0  0  0  0  0  0  0  0  0
  150.9589  141.5430  155.7619 H   0  0  0  0  0  0  0  0  0  0  0  0
  149.6183  143.2830  156.8593 H   0  0  0  0  0  0  0  0  0  0  0  0
  149.1764  142.1867  158.1538 H   0  0  0  0  0  0  0  0  0  0  0  0
  150.5062  144.8523  158.4260 H   0  0  0  0  0  0  0  0  0  0  0  0
  150.1537  143.8083  159.7885 H   0  0  0  0  0  0  0  0  0  0  0  0
  152.9050  144.8939  158.9893 H   0  0  0  0  0  0  0  0  0  0  0  0
  151.9680  145.3918  160.3785 H   0  0  0  0  0  0  0  0  0  0  0  0
  153.7640  143.7558  161.0081 H   0  0  0  0  0  0  0  0  0  0  0  0
  152.1690  143.1447  161.3894 H   0  0  0  0  0  0  0  0  0  0  0  0
  153.8385  142.4346  158.9302 H   0  0  0  0  0  0  0  0  0  0  0  0
  153.4827  141.3775  160.2743 H   0  0  0  0  0  0  0  0  0  0  0  0
  151.0652  141.4234  159.7283 H   0  0  0  0  0  0  0  0  0  0  0  0
  152.8556  140.7958  157.3380 H   0  0  0  0  0  0  0  0  0  0  0  0
  152.4257  139.6975  158.6351 H   0  0  0  0  0  0  0  0  0  0  0  0
  152.6347  138.0232  153.9272 H   0  0  0  0  0  0  0  0  0  0  0  0
  149.1825  135.3607  158.6677 H   0  0  0  0  0  0  0  0  0  0  0  0
  151.4154  133.9468  155.9776 H   0  0  0  0  0  0  0  0  0  0  0  0
  150.4677  133.4852  157.3492 H   0  0  0  0  0  0  0  0  0  0  0  0
  148.1397  135.5162  155.5882 H   0  0  0  0  0  0  0  0  0  0  0  0
  149.3529  135.5358  154.3385 H   0  0  0  0  0  0  0  0  0  0  0  0
  147.7721  135.0189  153.0973 H   0  0  0  0  0  0  0  0  0  0  0  0
  149.1128  132.6148  153.5956 H   0  0  0  0  0  0  0  0  0  0  0  0
  150.7236  133.2062  153.8941 H   0  0  0  0  0  0  0  0  0  0  0  0
  150.5654  130.7176  154.0644 H   0  0  0  0  0  0  0  0  0  0  0  0
  151.0946  131.3941  155.5860 H   0  0  0  0  0  0  0  0  0  0  0  0
  147.8481  130.9145  157.1125 H   0  0  0  0  0  0  0  0  0  0  0  0
  149.4617  131.5133  157.4143 H   0  0  0  0  0  0  0  0  0  0  0  0
  147.8241  133.4124  157.0886 H   0  0  0  0  0  0  0  0  0  0  0  0
  147.3442  132.7287  155.5682 H   0  0  0  0  0  0  0  0  0  0  0  0
  151.8611  143.1344  157.5089 H   0  0  0  0  0  0  0  0  0  0  0  0
  1  2  1  0  0  0  0
  1 31  1  0  0  0  0
  1 32  1  0  0  0  0
  1 33  1  0  0  0  0
  2  3  1  0  0  0  0
  2 34  1  0  0  0  0
  2 35  1  0  0  0  0
  3 12  1  0  0  0  0
  3  4  1  0  0  0  0
  3 36  1  0  0  0  0
  4  5  1  0  0  0  0
  4 37  1  0  0  0  0
  4 38  1  0  0  0  0
  5 10  1  0  0  0  0
  5  6  1  0  0  0  0
  5 65  1  0  0  0  0
  6  7  1  0  0  0  0
  6 39  1  0  0  0  0
  6 40  1  0  0  0  0
  7  8  1  0  0  0  0
  7 41  1  0  0  0  0
  7 42  1  0  0  0  0
  8  9  1  0  0  0  0
  8 43  1  0  0  0  0
  8 44  1  0  0  0  0
  9 10  1  0  0  0  0
  9 45  1  0  0  0  0
  9 46  1  0  0  0  0
 10 11  1  0  0  0  0
 10 47  1  0  0  0  0
 11 12  1  0  0  0  0
 11 48  1  0  0  0  0
 11 49  1  0  0  0  0
 12 13  1  0  0  0  0
 13 18  1  0  0  0  0
 13 14  2  0  0  0  0
 14 15  1  0  0  0  0
 15 16  2  0  0  0  0
 15 50  1  0  0  0  0
 16 17  1  0  0  0  0
 17 21  1  0  0  0  0
 17 18  2  0  0  0  0
 18 19  1  0  0  0  0
 19 20  2  0  0  0  0
 20 21  1  0  0  0  0
 20 51  1  0  0  0  0
 21 22  1  0  0  0  0
 22 23  1  0  0  0  0
 22 52  1  0  0  0  0
 22 53  1  0  0  0  0
 23 30  1  0  0  0  0
 23 24  1  0  0  0  0
 23 26  1  0  0  0  0
 24 25  1  0  0  0  0
 24 54  1  0  0  0  0
 24 55  1  0  0  0  0
 25 56  1  0  0  0  0
 26 27  1  0  0  0  0
 26 57  1  0  0  0  0
 26 58  1  0  0  0  0
 27 28  1  0  0  0  0
 27 59  1  0  0  0  0
 27 60  1  0  0  0  0
 28 29  1  0  0  0  0
 29 30  1  0  0  0  0
 29 61  1  0  0  0  0
 29 62  1  0  0  0  0
 30 63  1  0  0  0  0
 30 64  1  0  0  0  0
M  CHG  1   5   1
M  END
> <s_m_source_file>
AV-unprocessed.smi

> <i_m_source_file_index>
282

> <i_lp_mmshare_version>
43012

> <i_f3d_flags>
0

> <s_epik_input>
W0NIMl0xW0NIMl1bQ0gyXVtDSDJdW0NAQEhdKE4xMilbQ0gyXU4oW0NAQEhdKFtDSDJdMilbQ0gyXVtDSDNdKWMobltjSF1uMyljKGMzNCluW2NIXW40W0NIMl1DNShbQ0gyXVtPSF0pW0NIMl1bQ0gyXU9bQ0gyXVtDSDJdNQ==

> <s_epik_cmdline>
J2VwaWtfcHl0aG9uJywgJy1waCcsICc3LjAnLCAnLXRuJywgJzgnLCAnLW1hJywgJzIwMCcsICctbWV0YWxfYmluZGluZycsICctaW1hZScsICc8aW5maWxlLm1hZT4nLCAnLW9tYWUnLCAnPG91dGZpbGUubWFlPic=

> <r_lp_tautomer_probability>
1

> <r_epik_Ionization_Penalty>
0.00308583

> <r_epik_Ionization_Penalty_Charging>
0.00300384

> <r_epik_Ionization_Penalty_Neutral>
8.19894e-05

> <r_epik_State_Penalty>
-0

> <r_epik_Charging_Adjusted_Penalty>
0.00300384

> <i_epik_Tot_Q>
1

> <i_epik_Tot_abs_Q>
1

> <r_epik_Metal_State_Penalty>
-0

> <b_epik_Metal_Only>
0

> <s_lp_Force_Field>
OPLS_2005

> <r_lp_Energy>
55.6254

> <b_lp_Chiralities_Consistent>
1

> <s_lp_Variant>
AV-unprocessed.smi:282-2

> <Gold.Version>
5.8.1

> <Gold.Id.Protein>
6NUR|6NUR_protein|mol2

> <Gold.PLP.Fitness>
44.7881

> <Gold.PLP.PLP>
-42.4353

> <Gold.PLP.part.hbond>
-2.0000

> <Gold.PLP.part.metal>
0.0000

> <Gold.PLP.part.buried>
-4.7215

> <Gold.PLP.part.nonpolar>
-36.0962

> <Gold.PLP.part.repulsive>
0.1475

> <Gold.PLP.ligand.clash>
0.0000

> <Gold.PLP.ligand.torsion>
1.9459

> <Gold.PLP.Chemscore.Hbond>
2.0000

> <Gold.PLP.Chemscore.CHOScore>
0.0000

> <Gold.PLP.Chemscore.Metal>
0.0000

> <Gold.Chemscore.Hbonds>
donor molecule, donor type, donor heavy atom, donor atom, acceptor molecule, acceptor atom, score
      L1  H    25    56       P1  7948  0.89
      P1  H 10752 10764       L1    16  1.00

> <Gold.PLP.Chemscore.Internal.Correction>
0.2445

> <Gold.Rescore>
     Score         DG    S(hbond)    S(metal)    S(lipo)     H(rot)  DE(clash)    DE(int)     intcor
     16.40     -18.04       1.78        0.00     110.32       2.46       0.09       1.55       ----

> <Gold.Chemscore.Fitness>
16.3959

> <Gold.Chemscore.DG>
-18.0365

> <Gold.Chemscore.ZeroCoef>
-5.4800

> <Gold.Chemscore.Hbond>
1.7787

> <Gold.Chemscore.Metal>
0.0000

> <Gold.Chemscore.Lipo>
110.3182

> <Gold.Chemscore.Internal_Hbond>
0.0000

> <Gold.Chemscore.DEClash>
0.0903

> <Gold.Chemscore.DEInternal>
1.5504

> <Gold.Chemscore.Rot>
2.4576

> <Gold.Chemscore.Internal.Correction>
   9.000000E+99

> <Gold.Chemscore.Hbonds>
donor molecule, donor type, donor heavy atom, donor atom, acceptor molecule, acceptor atom, score
      L1  H    25    56       P1  7948  0.83
      P1  H 10752 10764       L1    16  0.73

> <Gold.Chemscore.Hbond.Weighted>
-5.9408

> <Gold.Chemscore.Metal.Weighted>
-0.0000

> <Gold.Chemscore.Lipo.Weighted>
-12.9072

> <Gold.Chemscore.Internal_Hbond.Weighted>
0.0000

> <Gold.Chemscore.DEClash.Weighted>
0.0903

> <Gold.Chemscore.DEInternal.Weighted>
1.5504

> <Gold.Chemscore.Rot.Weighted>
6.2915

> <Gold.Chemscore.Internal.Correction.Weighted>
   9.000000E+99

> <Gold.Protein.RotatedTorsions>
[ 6907 6896 6895 6894 ] final   93.89 input  -60.11 | X-H torsion
[ 7974 7965 7964 7962 ] final -105.25 input  175.53 | X-H torsion
[ 8008 7997 7996 7995 ] final   -3.17 input   59.86 | X-H torsion
[ 10167 10162 10161 10158 ] final  -24.40 input  -65.29 | X-H torsion
[ 10718 10713 10712 10709 ] final   87.68 input   66.30 | X-H torsion
[ 10763 10752 10751 10750 ] final  -46.63 input  -60.55 | X-H torsion
[ 11005 11000 10999 10996 ] final   71.47 input  -57.11 | X-H torsion

> <Gold.Protein.ActiveResidues>
 VAL166  LYS551  ARG553  GLY616  TRP617  ASP618  TYR619  PRO620  LYS621  CYS622 
 ASP623  PHE694  ASN695  SER759  ASP760  ASP761  ALA762  ILE779  LEU786  VAL792 
 PHE793  MET794  SER795  GLU796  ALA797  LYS798  CYS799  TRP800  GLU811  SER814 

> <Gold.Protein.RotatedAtoms>
  152.5451  134.1279  159.8426 H   0  0  0  0  0  0  0  0  0  0  0  0  # atno 6907 bound_to 6896
  151.1327  133.5018  159.2606 H   0  0  0  0  0  0  0  0  0  0  0  0  # atno 6908 bound_to 6896
  151.1657  135.0304  159.8784 H   0  0  0  0  0  0  0  0  0  0  0  0  # atno 6909 bound_to 6896
  145.2328  140.9177  143.3195 H   0  0  0  0  0  0  0  0  0  0  0  0  # atno 7974 bound_to 7965
  154.6277  140.2516  155.7471 H   0  0  0  0  0  0  0  0  0  0  0  0  # atno 8008 bound_to 7997
  156.2462  140.2913  156.0535 H   0  0  0  0  0  0  0  0  0  0  0  0  # atno 8009 bound_to 7997
  155.1794  140.0388  157.2869 H   0  0  0  0  0  0  0  0  0  0  0  0  # atno 8010 bound_to 7997
  140.7288  143.4357  151.0734 H   0  0  0  0  0  0  0  0  0  0  0  0  # atno 10167 bound_to 10162
  157.6942  131.0265  150.3160 H   0  0  0  0  0  0  0  0  0  0  0  0  # atno 10718 bound_to 10713
  154.0482  135.6635  153.4797 H   0  0  0  0  0  0  0  0  0  0  0  0  # atno 10763 bound_to 10752
  153.0474  135.5106  154.7777 H   0  0  0  0  0  0  0  0  0  0  0  0  # atno 10764 bound_to 10752
  154.6774  135.3039  154.9625 H   0  0  0  0  0  0  0  0  0  0  0  0  # atno 10765 bound_to 10752
  139.9541  134.7174  156.0793 H   0  0  0  0  0  0  0  0  0  0  0  0  # atno 11005 bound_to 11000
  144.9660  139.3929  143.6332 LP  0  0  0  0  0  0  0  0  0  0  0  0  # atno 17320 bound_to 7965
  146.3348  139.8736  142.8836 LP  0  0  0  0  0  0  0  0  0  0  0  0  # atno 17321 bound_to 7965
  139.8018  143.8073  152.3163 LP  0  0  0  0  0  0  0  0  0  0  0  0  # atno 17342 bound_to 10162
  139.8092  144.7343  150.9720 LP  0  0  0  0  0  0  0  0  0  0  0  0  # atno 17343 bound_to 10162
  156.3654  130.3854  149.7218 LP  0  0  0  0  0  0  0  0  0  0  0  0  # atno 17370 bound_to 10713
  156.4650  130.7969  151.2989 LP  0  0  0  0  0  0  0  0  0  0  0  0  # atno 17371 bound_to 10713
  141.1210  133.6613  156.3215 LP  0  0  0  0  0  0  0  0  0  0  0  0  # atno 17394 bound_to 11000
  140.5649  134.5898  157.5443 LP  0  0  0  0  0  0  0  0  0  0  0  0  # atno 17395 bound_to 11000

$$$$
