AV-unprocessed.smi:2032|AV-procd|sdf|8235|dock4
  -GOLD-   2272010503D 1   1.00000     0.00000
 Structure written by MMmdl.
 42 43  0  0  0  0  0  0  0  0  1 V2000
  145.5258  149.7543  157.2454 C   0  0  0  0  0  0  0  0  0  0  0  0
  145.1770  148.2899  156.9592 C   0  0  1  0  0  0  0  0  0  0  0  0
  145.0188  147.4682  158.2512 C   0  0  0  0  0  0  0  0  0  0  0  0
  144.6075  146.0835  158.0003 N   0  0  0  0  0  0  0  0  0  0  0  0
  144.4774  145.2875  159.2446 C   0  0  2  0  0  0  0  0  0  0  0  0
  143.1229  145.5144  159.9638 C   0  0  0  0  0  0  0  0  0  0  0  0
  145.6383  145.5393  160.2492 C   0  0  0  0  0  0  0  0  0  0  0  0
  146.9633  145.4324  159.6414 N   0  0  0  0  0  0  0  0  0  0  0  0
  148.0138  144.7864  160.1693 C   0  0  0  0  0  0  0  0  0  0  0  0
  147.9749  144.1845  161.2426 O   0  0  0  0  0  0  0  0  0  0  0  0
  149.0932  144.8833  159.3734 N   0  0  0  0  0  0  0  0  0  0  0  0
  150.3890  144.3418  159.5824 C   0  0  0  0  0  0  0  0  0  0  0  0
  150.7306  143.5845  160.6316 N   0  0  0  0  0  0  0  0  0  0  0  0
  152.0701  143.1908  160.5807 C   0  0  0  0  0  0  0  0  0  0  0  0
  152.7384  143.6597  159.4772 C   0  0  0  0  0  0  0  0  0  0  0  0
  151.7060  144.6212  158.4524 S   0  0  0  0  0  0  0  0  0  0  0  0
  143.3674  146.1157  157.2157 C   0  0  0  0  0  0  0  0  0  0  0  0
  143.4691  146.9586  155.9289 C   0  0  2  0  0  0  0  0  0  0  0  0
  144.2876  146.2783  154.8178 C   0  0  0  0  0  0  0  0  0  0  0  0
  143.9572  148.2643  156.2267 O   0  0  0  0  0  0  0  0  0  0  0  0
  146.4623  149.8348  157.7978 H   0  0  0  0  0  0  0  0  0  0  0  0
  144.7462  150.2378  157.8348 H   0  0  0  0  0  0  0  0  0  0  0  0
  145.6383  150.3162  156.3179 H   0  0  0  0  0  0  0  0  0  0  0  0
  145.9755  147.8631  156.3517 H   0  0  0  0  0  0  0  0  0  0  0  0
  145.9810  147.4968  158.7589 H   0  0  0  0  0  0  0  0  0  0  0  0
  144.2975  147.9534  158.9105 H   0  0  0  0  0  0  0  0  0  0  0  0
  144.5162  144.2315  158.9722 H   0  0  0  0  0  0  0  0  0  0  0  0
  143.0450  144.9509  160.8921 H   0  0  0  0  0  0  0  0  0  0  0  0
  142.2741  145.1828  159.3679 H   0  0  0  0  0  0  0  0  0  0  0  0
  142.9770  146.5674  160.2068 H   0  0  0  0  0  0  0  0  0  0  0  0
  145.6044  146.5537  160.6416 H   0  0  0  0  0  0  0  0  0  0  0  0
  145.5375  144.8749  161.1094 H   0  0  0  0  0  0  0  0  0  0  0  0
  147.0894  145.8947  158.7531 H   0  0  0  0  0  0  0  0  0  0  0  0
  148.9758  145.4086  158.5196 H   0  0  0  0  0  0  0  0  0  0  0  0
  152.4664  142.5754  161.3746 H   0  0  0  0  0  0  0  0  0  0  0  0
  153.7713  143.4988  159.2071 H   0  0  0  0  0  0  0  0  0  0  0  0
  143.0684  145.1134  156.9159 H   0  0  0  0  0  0  0  0  0  0  0  0
  142.5600  146.5106  157.8343 H   0  0  0  0  0  0  0  0  0  0  0  0
  142.4599  147.0948  155.5395 H   0  0  0  0  0  0  0  0  0  0  0  0
  143.8210  145.3418  154.5116 H   0  0  0  0  0  0  0  0  0  0  0  0
  145.3024  146.0447  155.1391 H   0  0  0  0  0  0  0  0  0  0  0  0
  144.3538  146.9171  153.9372 H   0  0  0  0  0  0  0  0  0  0  0  0
  1  2  1  0  0  0  0
  1 21  1  0  0  0  0
  1 22  1  0  0  0  0
  1 23  1  0  0  0  0
  2 20  1  0  0  0  0
  2  3  1  0  0  0  0
  2 24  1  0  0  0  0
  3  4  1  0  0  0  0
  3 25  1  0  0  0  0
  3 26  1  0  0  0  0
  4  5  1  0  0  0  0
  4 17  1  0  0  0  0
  5  6  1  0  0  0  0
  5  7  1  0  0  0  0
  5 27  1  0  0  0  0
  6 28  1  0  0  0  0
  6 29  1  0  0  0  0
  6 30  1  0  0  0  0
  7  8  1  0  0  0  0
  7 31  1  0  0  0  0
  7 32  1  0  0  0  0
  8  9  1  0  0  0  0
  8 33  1  0  0  0  0
  9 10  2  0  0  0  0
  9 11  1  0  0  0  0
 11 12  1  0  0  0  0
 11 34  1  0  0  0  0
 12 16  1  0  0  0  0
 12 13  2  0  0  0  0
 13 14  1  0  0  0  0
 14 15  2  0  0  0  0
 14 35  1  0  0  0  0
 15 16  1  0  0  0  0
 15 36  1  0  0  0  0
 17 18  1  0  0  0  0
 17 37  1  0  0  0  0
 17 38  1  0  0  0  0
 18 19  1  0  0  0  0
 18 20  1  0  0  0  0
 18 39  1  0  0  0  0
 19 40  1  0  0  0  0
 19 41  1  0  0  0  0
 19 42  1  0  0  0  0
M  END
> <s_m_source_file>
AV-unprocessed.smi

> <i_m_source_file_index>
2032

> <i_lp_mmshare_version>
43012

> <i_f3d_flags>
0

> <s_epik_input>
W0NIM11bQ0BASF0xW0NIMl1OKFtDSDJdW0NASF0oTzEpW0NIM10pW0NASF0oW0NIM10pW0NIMl1bTkhdQyg9TylbTkhdYzJuW2NIXVtjSF1zMg==

> <s_epik_cmdline>
J2VwaWtfcHl0aG9uJywgJy1waCcsICc3LjAnLCAnLXRuJywgJzgnLCAnLW1hJywgJzIwMCcsICctbWV0YWxfYmluZGluZycsICctaW1hZScsICc8aW5maWxlLm1hZT4nLCAnLW9tYWUnLCAnPG91dGZpbGUubWFlPic=

> <r_lp_tautomer_probability>
0.999

> <r_epik_Ionization_Penalty>
0.219202

> <r_epik_Ionization_Penalty_Charging>
0

> <r_epik_Ionization_Penalty_Neutral>
0.219202

> <r_epik_State_Penalty>
0.209349

> <r_epik_Charging_Adjusted_Penalty>
0.209349

> <i_epik_Tot_Q>
0

> <i_epik_Tot_abs_Q>
0

> <r_epik_Metal_State_Penalty>
0.247737

> <b_epik_Metal_Only>
0

> <s_lp_Force_Field>
OPLS_2005

> <r_lp_Energy>
29.5908

> <b_lp_Chiralities_Consistent>
1

> <s_lp_Variant>
AV-unprocessed.smi:2032-5

> <Gold.Version>
5.8.1

> <Gold.Id.Protein>
6NUR|6NUR_protein|mol2

> <Gold.PLP.Fitness>
47.0648

> <Gold.PLP.PLP>
-38.9366

> <Gold.PLP.part.hbond>
-5.0000

> <Gold.PLP.part.metal>
0.0000

> <Gold.PLP.part.buried>
-6.9075

> <Gold.PLP.part.nonpolar>
-28.5035

> <Gold.PLP.part.repulsive>
0.7462

> <Gold.PLP.ligand.clash>
0.0000

> <Gold.PLP.ligand.torsion>
0.4486

> <Gold.PLP.Chemscore.Hbond>
3.0000

> <Gold.PLP.Chemscore.CHOScore>
0.0000

> <Gold.PLP.Chemscore.Metal>
0.0000

> <Gold.Chemscore.Hbonds>
donor molecule, donor type, donor heavy atom, donor atom, acceptor molecule, acceptor atom, score
      L1  H     8    33       P1  8029  0.99
      L1  H    11    34       P1  8029  0.96
      P1  H  6933  6944       L1    10  1.00

> <Gold.PLP.Chemscore.Internal.Correction>
0.0254

> <Gold.Rescore>
     Score         DG    S(hbond)    S(metal)    S(lipo)     H(rot)  DE(clash)    DE(int)     intcor
     19.92     -21.59       2.90        0.00      89.50       1.57       0.01       1.66       ----

> <Gold.Chemscore.Fitness>
19.9175

> <Gold.Chemscore.DG>
-21.5886

> <Gold.Chemscore.ZeroCoef>
-5.4800

> <Gold.Chemscore.Hbond>
2.8951

> <Gold.Chemscore.Metal>
0.0000

> <Gold.Chemscore.Lipo>
89.4958

> <Gold.Chemscore.Internal_Hbond>
0.0000

> <Gold.Chemscore.DEClash>
0.0103

> <Gold.Chemscore.DEInternal>
1.6608

> <Gold.Chemscore.Rot>
1.5750

> <Gold.Chemscore.Internal.Correction>
   9.000000E+99

> <Gold.Chemscore.Hbonds>
donor molecule, donor type, donor heavy atom, donor atom, acceptor molecule, acceptor atom, score
      L1  H     8    33       P1  8029  0.94
      L1  H    11    34       P1  8029  0.91
      P1  H  6933  6944       L1    10  0.99

> <Gold.Chemscore.Hbond.Weighted>
-9.6695

> <Gold.Chemscore.Metal.Weighted>
-0.0000

> <Gold.Chemscore.Lipo.Weighted>
-10.4710

> <Gold.Chemscore.Internal_Hbond.Weighted>
0.0000

> <Gold.Chemscore.DEClash.Weighted>
0.0103

> <Gold.Chemscore.DEInternal.Weighted>
1.6608

> <Gold.Chemscore.Rot.Weighted>
4.0319

> <Gold.Chemscore.Internal.Correction.Weighted>
   9.000000E+99

> <Gold.Protein.RotatedTorsions>
[ 6907 6896 6895 6894 ] final -155.38 input  -60.11 | X-H torsion
[ 7974 7965 7964 7962 ] final -123.44 input  175.53 | X-H torsion
[ 8008 7997 7996 7995 ] final -118.41 input   59.86 | X-H torsion
[ 10167 10162 10161 10158 ] final   -1.42 input  -65.29 | X-H torsion
[ 10718 10713 10712 10709 ] final  -44.21 input   66.30 | X-H torsion
[ 10763 10752 10751 10750 ] final   48.13 input  -60.55 | X-H torsion
[ 11005 11000 10999 10996 ] final   -7.99 input  -57.11 | X-H torsion

> <Gold.Protein.ActiveResidues>
 VAL166  LYS551  ARG553  GLY616  TRP617  ASP618  TYR619  PRO620  LYS621  CYS622 
 ASP623  PHE694  ASN695  SER759  ASP760  ASP761  ALA762  ILE779  LEU786  VAL792 
 PHE793  MET794  SER795  GLU796  ALA797  LYS798  CYS799  TRP800  GLU811  SER814 

> <Gold.Protein.RotatedAtoms>
  151.2717  133.4252  159.2621 H   0  0  0  0  0  0  0  0  0  0  0  0  # atno 6907 bound_to 6896
  151.0439  134.9627  159.8186 H   0  0  0  0  0  0  0  0  0  0  0  0  # atno 6908 bound_to 6896
  152.5370  134.2674  159.9011 H   0  0  0  0  0  0  0  0  0  0  0  0  # atno 6909 bound_to 6896
  145.0187  140.7969  143.4394 H   0  0  0  0  0  0  0  0  0  0  0  0  # atno 7974 bound_to 7965
  155.0993  140.0396  157.2692 H   0  0  0  0  0  0  0  0  0  0  0  0  # atno 8008 bound_to 7997
  154.6771  140.2625  155.6922 H   0  0  0  0  0  0  0  0  0  0  0  0  # atno 8009 bound_to 7997
  156.2680  140.2786  156.1301 H   0  0  0  0  0  0  0  0  0  0  0  0  # atno 8010 bound_to 7997
  140.6809  143.6777  150.8131 H   0  0  0  0  0  0  0  0  0  0  0  0  # atno 10167 bound_to 10162
  156.2409  130.4180  149.8761 H   0  0  0  0  0  0  0  0  0  0  0  0  # atno 10718 bound_to 10713
  152.9794  135.5954  154.3875 H   0  0  0  0  0  0  0  0  0  0  0  0  # atno 10763 bound_to 10752
  154.3534  135.2767  155.2361 H   0  0  0  0  0  0  0  0  0  0  0  0  # atno 10764 bound_to 10752
  154.4390  135.6017  153.6172 H   0  0  0  0  0  0  0  0  0  0  0  0  # atno 10765 bound_to 10752
  140.7187  133.8847  155.8804 H   0  0  0  0  0  0  0  0  0  0  0  0  # atno 11005 bound_to 11000
  145.1925  139.2294  143.5235 LP  0  0  0  0  0  0  0  0  0  0  0  0  # atno 17320 bound_to 7965
  146.3482  140.1724  142.8589 LP  0  0  0  0  0  0  0  0  0  0  0  0  # atno 17321 bound_to 7965
  140.0477  143.5281  152.2688 LP  0  0  0  0  0  0  0  0  0  0  0  0  # atno 17342 bound_to 10162
  139.6132  144.7613  151.2906 LP  0  0  0  0  0  0  0  0  0  0  0  0  # atno 17343 bound_to 10162
  156.6343  130.8679  151.3501 LP  0  0  0  0  0  0  0  0  0  0  0  0  # atno 17370 bound_to 10713
  157.7175  130.9515  150.1310 LP  0  0  0  0  0  0  0  0  0  0  0  0  # atno 17371 bound_to 10713
  141.0022  134.1134  157.4305 LP  0  0  0  0  0  0  0  0  0  0  0  0  # atno 17394 bound_to 11000
  139.8853  135.0071  156.6428 LP  0  0  0  0  0  0  0  0  0  0  0  0  # atno 17395 bound_to 11000

$$$$
