AV-unprocessed.smi:1590|AV-procd|sdf|6396|dock6
  -GOLD-   22720 7 33D 1   1.00000     0.00000
 Structure written by MMmdl.
 34 35  0  0  0  0  0  0  0  0  2 V2000
  147.6864  141.6754  154.8870 C   0  0  0  0  0  0  0  0  0  0  0  0
  148.5806  140.7096  154.0965 C   0  0  0  0  0  0  0  0  0  0  0  0
  147.8255  139.4541  153.6363 C   0  0  0  0  0  0  0  0  0  0  0  0
  149.8303  140.3667  154.8471 C   0  0  0  0  0  0  0  0  0  0  0  0
  150.8331  139.6739  154.3000 N   0  0  0  0  0  0  0  0  0  0  0  0
  151.8841  139.4826  155.1848 N   0  0  0  0  0  0  0  0  0  0  0  0
  151.6700  140.0400  156.3847 C   0  0  0  0  0  0  0  0  0  0  0  0
  152.5663  139.9671  157.3826 N   0  5  0  0  0  0  0  0  0  0  0  0
  152.2705  140.4869  158.5959 C   0  0  0  0  0  0  0  0  0  0  0  0
  151.2190  140.3318  159.2214 O   0  0  0  0  0  0  0  0  0  0  0  0
  153.2534  141.2316  159.1194 N   0  0  0  0  0  0  0  0  0  0  0  0
  153.1982  141.9064  160.4091 C   0  0  0  0  0  0  0  0  0  0  0  0
  152.1909  143.0493  160.3698 C   0  0  0  0  0  0  0  0  0  0  0  0
  152.3792  144.1914  159.3603 C   0  0  0  0  0  0  0  0  0  0  0  0
  151.8086  145.1512  160.4082 C   0  0  0  0  0  0  0  0  0  0  0  0
  152.2073  144.1223  161.4695 C   0  0  0  0  0  0  0  0  0  0  0  0
  150.1051  140.8406  156.5179 S   0  0  0  0  0  0  0  0  0  0  0  0
  148.2263  142.5880  155.1415 H   0  0  0  0  0  0  0  0  0  0  0  0
  147.3368  141.2249  155.8166 H   0  0  0  0  0  0  0  0  0  0  0  0
  146.8090  141.9617  154.3068 H   0  0  0  0  0  0  0  0  0  0  0  0
  148.8875  141.2375  153.1923 H   0  0  0  0  0  0  0  0  0  0  0  0
  148.4620  138.8185  153.0201 H   0  0  0  0  0  0  0  0  0  0  0  0
  146.9504  139.7187  153.0424 H   0  0  0  0  0  0  0  0  0  0  0  0
  147.4834  138.8606  154.4846 H   0  0  0  0  0  0  0  0  0  0  0  0
  154.0995  141.3380  158.5793 H   0  0  0  0  0  0  0  0  0  0  0  0
  152.9286  141.1850  161.1818 H   0  0  0  0  0  0  0  0  0  0  0  0
  154.1901  142.2849  160.6595 H   0  0  0  0  0  0  0  0  0  0  0  0
  151.1735  142.6641  160.2715 H   0  0  0  0  0  0  0  0  0  0  0  0
  153.4284  144.3902  159.1355 H   0  0  0  0  0  0  0  0  0  0  0  0
  151.7841  144.0998  158.4512 H   0  0  0  0  0  0  0  0  0  0  0  0
  152.3255  146.1084  160.4816 H   0  0  0  0  0  0  0  0  0  0  0  0
  150.7279  145.2765  160.3250 H   0  0  0  0  0  0  0  0  0  0  0  0
  151.4737  143.9737  162.2622 H   0  0  0  0  0  0  0  0  0  0  0  0
  153.2053  144.2990  161.8743 H   0  0  0  0  0  0  0  0  0  0  0  0
  1  2  1  0  0  0  0
  1 18  1  0  0  0  0
  1 19  1  0  0  0  0
  1 20  1  0  0  0  0
  2  3  1  0  0  0  0
  2  4  1  0  0  0  0
  2 21  1  0  0  0  0
  3 22  1  0  0  0  0
  3 23  1  0  0  0  0
  3 24  1  0  0  0  0
  4 17  1  0  0  0  0
  4  5  2  0  0  0  0
  5  6  1  0  0  0  0
  6  7  2  0  0  0  0
  7  8  1  0  0  0  0
  7 17  1  0  0  0  0
  8  9  1  0  0  0  0
  9 10  2  0  0  0  0
  9 11  1  0  0  0  0
 11 12  1  0  0  0  0
 11 25  1  0  0  0  0
 12 13  1  0  0  0  0
 12 26  1  0  0  0  0
 12 27  1  0  0  0  0
 13 16  1  0  0  0  0
 13 14  1  0  0  0  0
 13 28  1  0  0  0  0
 14 15  1  0  0  0  0
 14 29  1  0  0  0  0
 14 30  1  0  0  0  0
 15 16  1  0  0  0  0
 15 31  1  0  0  0  0
 15 32  1  0  0  0  0
 16 33  1  0  0  0  0
 16 34  1  0  0  0  0
M  CHG  1   8  -1
M  END
> <s_m_source_file>
AV-unprocessed.smi

> <i_m_source_file_index>
1590

> <i_lp_mmshare_version>
43012

> <i_f3d_flags>
0

> <s_epik_input>
W0NIM11bQ0hdKFtDSDNdKWMxbm5jKHMxKVtOSF1DKD1PKVtOSF1bQ0gyXVtDSF0yW0NIMl1bQ0gyXVtDSDJdMg==

> <s_epik_cmdline>
J2VwaWtfcHl0aG9uJywgJy1waCcsICc3LjAnLCAnLXRuJywgJzgnLCAnLW1hJywgJzIwMCcsICctbWV0YWxfYmluZGluZycsICctaW1hZScsICc8aW5maWxlLm1hZT4nLCAnLW9tYWUnLCAnPG91dGZpbGUubWFlPic=

> <r_lp_tautomer_probability>
1

> <r_epik_Ionization_Penalty>
4.56565

> <r_epik_Ionization_Penalty_Charging>
4.40687

> <r_epik_Ionization_Penalty_Neutral>
0.158778

> <r_epik_State_Penalty>
4.40652

> <r_epik_Charging_Adjusted_Penalty>
8.8134

> <i_epik_Tot_Q>
-1

> <i_epik_Tot_abs_Q>
1

> <r_epik_Metal_State_Penalty>
0.774635

> <b_epik_Metal_Only>
1

> <s_lp_Force_Field>
OPLS_2005

> <r_lp_Energy>
4.00522

> <b_lp_Chiralities_Consistent>
1

> <s_lp_Variant>
AV-unprocessed.smi:1590-2

> <Gold.Version>
5.8.1

> <Gold.Id.Protein>
6NUR|6NUR_protein|mol2

> <Gold.PLP.Fitness>
45.5084

> <Gold.PLP.PLP>
-38.3675

> <Gold.PLP.part.hbond>
-2.7455

> <Gold.PLP.part.metal>
0.0000

> <Gold.PLP.part.buried>
-2.2148

> <Gold.PLP.part.nonpolar>
-33.7107

> <Gold.PLP.part.repulsive>
0.2428

> <Gold.PLP.ligand.clash>
0.0000

> <Gold.PLP.ligand.torsion>
0.5550

> <Gold.PLP.Chemscore.Hbond>
2.7000

> <Gold.PLP.Chemscore.CHOScore>
0.0000

> <Gold.PLP.Chemscore.Metal>
0.0000

> <Gold.Chemscore.Hbonds>
donor molecule, donor type, donor heavy atom, donor atom, acceptor molecule, acceptor atom, score
      P1  H  7989  7998       L1     5  0.65
      P1  H  7997  8009       L1     8  2.00

> <Gold.PLP.Chemscore.Internal.Correction>
0.1509

> <Gold.Rescore>
     Score         DG    S(hbond)    S(metal)    S(lipo)     H(rot)  DE(clash)    DE(int)     intcor
     14.37     -15.87       0.88        0.00      93.41       1.36       0.13       1.37       ----

> <Gold.Chemscore.Fitness>
14.3683

> <Gold.Chemscore.DG>
-15.8708

> <Gold.Chemscore.ZeroCoef>
-5.4800

> <Gold.Chemscore.Hbond>
0.8816

> <Gold.Chemscore.Metal>
0.0000

> <Gold.Chemscore.Lipo>
93.4085

> <Gold.Chemscore.Internal_Hbond>
0.0000

> <Gold.Chemscore.DEClash>
0.1317

> <Gold.Chemscore.DEInternal>
1.3708

> <Gold.Chemscore.Rot>
1.3604

> <Gold.Chemscore.Internal.Correction>
   9.000000E+99

> <Gold.Chemscore.Hbonds>
donor molecule, donor type, donor heavy atom, donor atom, acceptor molecule, acceptor atom, score
      P1  H  7989  7998       L1     5  0.02
      P1  H  7997  8009       L1     8  0.62

> <Gold.Chemscore.Hbond.Weighted>
-2.9446

> <Gold.Chemscore.Metal.Weighted>
-0.0000

> <Gold.Chemscore.Lipo.Weighted>
-10.9288

> <Gold.Chemscore.Internal_Hbond.Weighted>
0.0000

> <Gold.Chemscore.DEClash.Weighted>
0.1317

> <Gold.Chemscore.DEInternal.Weighted>
1.3708

> <Gold.Chemscore.Rot.Weighted>
3.4826

> <Gold.Chemscore.Internal.Correction.Weighted>
   9.000000E+99

> <Gold.Protein.RotatedTorsions>
[ 6907 6896 6895 6894 ] final -146.40 input  -60.11 | X-H torsion
[ 7974 7965 7964 7962 ] final  -98.56 input  175.53 | X-H torsion
[ 8008 7997 7996 7995 ] final -175.74 input   59.86 | X-H torsion
[ 10167 10162 10161 10158 ] final   63.28 input  -65.29 | X-H torsion
[ 10718 10713 10712 10709 ] final  -72.88 input   66.30 | X-H torsion
[ 10763 10752 10751 10750 ] final  157.58 input  -60.55 | X-H torsion
[ 11005 11000 10999 10996 ] final   15.52 input  -57.11 | X-H torsion

> <Gold.Protein.ActiveResidues>
 VAL166  LYS551  ARG553  GLY616  TRP617  ASP618  TYR619  PRO620  LYS621  CYS622 
 ASP623  PHE694  ASN695  SER759  ASP760  ASP761  ALA762  ILE779  LEU786  VAL792 
 PHE793  MET794  SER795  GLU796  ALA797  LYS798  CYS799  TRP800  GLU811  SER814 

> <Gold.Protein.RotatedAtoms>
  151.1411  133.4971  159.2596 H   0  0  0  0  0  0  0  0  0  0  0  0  # atno 6907 bound_to 6896
  151.1654  135.0293  159.8738 H   0  0  0  0  0  0  0  0  0  0  0  0  # atno 6908 bound_to 6896
  152.5462  134.1280  159.8480 H   0  0  0  0  0  0  0  0  0  0  0  0  # atno 6909 bound_to 6896
  145.3190  140.9417  143.2726 H   0  0  0  0  0  0  0  0  0  0  0  0  # atno 7974 bound_to 7965
  155.9863  140.1192  157.0680 H   0  0  0  0  0  0  0  0  0  0  0  0  # atno 8008 bound_to 7997
  154.4198  140.1134  156.5572 H   0  0  0  0  0  0  0  0  0  0  0  0  # atno 8009 bound_to 7997
  155.6403  140.3473  155.4715 H   0  0  0  0  0  0  0  0  0  0  0  0  # atno 8010 bound_to 7997
  140.1347  144.4610  150.6844 H   0  0  0  0  0  0  0  0  0  0  0  0  # atno 10167 bound_to 10162
  156.0302  130.4382  150.2659 H   0  0  0  0  0  0  0  0  0  0  0  0  # atno 10718 bound_to 10713
  154.2025  135.2789  155.2986 H   0  0  0  0  0  0  0  0  0  0  0  0  # atno 10763 bound_to 10752
  154.5843  135.5579  153.7219 H   0  0  0  0  0  0  0  0  0  0  0  0  # atno 10764 bound_to 10752
  153.0084  135.6352  154.2163 H   0  0  0  0  0  0  0  0  0  0  0  0  # atno 10765 bound_to 10752
  140.4573  134.1163  155.7711 H   0  0  0  0  0  0  0  0  0  0  0  0  # atno 11005 bound_to 11000
  144.8954  139.4719  143.6658 LP  0  0  0  0  0  0  0  0  0  0  0  0  # atno 17320 bound_to 7965
  146.3089  139.7677  142.9035 LP  0  0  0  0  0  0  0  0  0  0  0  0  # atno 17321 bound_to 7965
  140.6796  143.2320  151.5418 LP  0  0  0  0  0  0  0  0  0  0  0  0  # atno 17342 bound_to 10162
  139.5502  144.2416  152.1516 LP  0  0  0  0  0  0  0  0  0  0  0  0  # atno 17343 bound_to 10162
  157.0762  131.0130  151.3173 LP  0  0  0  0  0  0  0  0  0  0  0  0  # atno 17370 bound_to 10713
  157.4962  130.7852  149.7558 LP  0  0  0  0  0  0  0  0  0  0  0  0  # atno 17371 bound_to 10713
  141.1637  133.8744  157.1776 LP  0  0  0  0  0  0  0  0  0  0  0  0  # atno 17394 bound_to 11000
  139.9968  135.0044  157.0100 LP  0  0  0  0  0  0  0  0  0  0  0  0  # atno 17395 bound_to 11000

$$$$
