AV-unprocessed.smi:3348|AV-procd|sdf|12921|dock10
  -GOLD-   2272019343D 1   1.00000     0.00000
 Structure written by MMmdl.
 47 48  0  0  0  0  0  0  0  0  2 V2000
  148.2754  133.3042  154.2871 C   0  0  0  0  0  0  0  0  0  0  0  0
  147.1214  133.7218  153.3611 C   0  0  2  0  0  0  0  0  0  0  0  0
  147.3614  133.2182  151.9245 C   0  0  0  0  0  0  0  0  0  0  0  0
  146.1220  133.0288  151.1914 N   0  0  0  0  0  0  0  0  0  0  0  0
  145.9153  132.3097  150.0328 C   0  0  0  0  0  0  0  0  0  0  0  0
  144.5900  132.4133  149.7216 C   0  0  0  0  0  0  0  0  0  0  0  0
  144.0605  133.2274  150.7616 C   0  0  0  0  0  0  0  0  0  0  0  0
  144.9795  133.5918  151.6419 N   0  0  0  0  0  0  0  0  0  0  0  0
  146.9525  135.1927  153.3673 N   0  3  0  0  0  0  0  0  0  0  0  0
  146.8048  135.8041  154.7043 C   0  0  0  0  0  0  0  0  0  0  0  0
  147.2685  137.2638  154.6909 C   0  0  0  0  0  0  0  0  0  0  0  0
  148.5878  137.3200  155.2125 O   0  0  0  0  0  0  0  0  0  0  0  0
  149.2264  138.5836  155.0728 C   0  0  1  0  0  0  0  0  0  0  0  0
  148.3994  139.6683  155.7960 C   0  0  0  0  0  0  0  0  0  0  0  0
  149.1179  141.0255  155.7884 C   0  0  0  0  0  0  0  0  0  0  0  0
  150.5201  140.9098  156.4012 C   0  0  0  0  0  0  0  0  0  0  0  0
  151.3505  139.8377  155.6797 C   0  0  0  0  0  0  0  0  0  0  0  0
  150.6424  138.4679  155.6821 C   0  0  2  0  0  0  0  0  0  0  0  0
  151.4938  137.4176  154.9498 C   0  0  0  0  0  0  0  0  0  0  0  0
  148.4063  132.2218  154.2837 H   0  0  0  0  0  0  0  0  0  0  0  0
  148.0940  133.6017  155.3197 H   0  0  0  0  0  0  0  0  0  0  0  0
  149.2184  133.7519  153.9717 H   0  0  0  0  0  0  0  0  0  0  0  0
  146.2011  133.2634  153.7271 H   0  0  0  0  0  0  0  0  0  0  0  0
  148.0025  133.9070  151.3715 H   0  0  0  0  0  0  0  0  0  0  0  0
  147.8829  132.2602  151.9460 H   0  0  0  0  0  0  0  0  0  0  0  0
  146.7189  131.7897  149.5319 H   0  0  0  0  0  0  0  0  0  0  0  0
  144.0769  131.9759  148.8780 H   0  0  0  0  0  0  0  0  0  0  0  0
  143.0428  133.5605  150.9022 H   0  0  0  0  0  0  0  0  0  0  0  0
  147.7386  135.6143  152.8930 H   0  0  0  0  0  0  0  0  0  0  0  0
  145.7548  135.7591  154.9946 H   0  0  0  0  0  0  0  0  0  0  0  0
  147.3690  135.2428  155.4489 H   0  0  0  0  0  0  0  0  0  0  0  0
  147.2339  137.6651  153.6765 H   0  0  0  0  0  0  0  0  0  0  0  0
  146.5947  137.8626  155.3034 H   0  0  0  0  0  0  0  0  0  0  0  0
  149.3256  138.8416  154.0165 H   0  0  0  0  0  0  0  0  0  0  0  0
  147.4205  139.7816  155.3312 H   0  0  0  0  0  0  0  0  0  0  0  0
  148.2168  139.3616  156.8270 H   0  0  0  0  0  0  0  0  0  0  0  0
  149.1937  141.3943  154.7647 H   0  0  0  0  0  0  0  0  0  0  0  0
  148.5312  141.7603  156.3403 H   0  0  0  0  0  0  0  0  0  0  0  0
  151.0298  141.8722  156.3498 H   0  0  0  0  0  0  0  0  0  0  0  0
  150.4382  140.6590  157.4594 H   0  0  0  0  0  0  0  0  0  0  0  0
  151.5370  140.1548  154.6527 H   0  0  0  0  0  0  0  0  0  0  0  0
  152.3270  139.7535  156.1579 H   0  0  0  0  0  0  0  0  0  0  0  0
  150.5405  138.1471  156.7202 H   0  0  0  0  0  0  0  0  0  0  0  0
  151.6166  137.6716  153.8967 H   0  0  0  0  0  0  0  0  0  0  0  0
  151.0391  136.4282  155.0031 H   0  0  0  0  0  0  0  0  0  0  0  0
  152.4877  137.3428  155.3917 H   0  0  0  0  0  0  0  0  0  0  0  0
  146.1142  135.4054  152.8440 H   0  0  0  0  0  0  0  0  0  0  0  0
  1  2  1  0  0  0  0
  1 20  1  0  0  0  0
  1 21  1  0  0  0  0
  1 22  1  0  0  0  0
  2  3  1  0  0  0  0
  2  9  1  0  0  0  0
  2 23  1  0  0  0  0
  3  4  1  0  0  0  0
  3 24  1  0  0  0  0
  3 25  1  0  0  0  0
  4  8  1  0  0  0  0
  4  5  1  0  0  0  0
  5  6  2  0  0  0  0
  5 26  1  0  0  0  0
  6  7  1  0  0  0  0
  6 27  1  0  0  0  0
  7  8  2  0  0  0  0
  7 28  1  0  0  0  0
  9 10  1  0  0  0  0
  9 29  1  0  0  0  0
  9 47  1  0  0  0  0
 10 11  1  0  0  0  0
 10 30  1  0  0  0  0
 10 31  1  0  0  0  0
 11 12  1  0  0  0  0
 11 32  1  0  0  0  0
 11 33  1  0  0  0  0
 12 13  1  0  0  0  0
 13 18  1  0  0  0  0
 13 14  1  0  0  0  0
 13 34  1  0  0  0  0
 14 15  1  0  0  0  0
 14 35  1  0  0  0  0
 14 36  1  0  0  0  0
 15 16  1  0  0  0  0
 15 37  1  0  0  0  0
 15 38  1  0  0  0  0
 16 17  1  0  0  0  0
 16 39  1  0  0  0  0
 16 40  1  0  0  0  0
 17 18  1  0  0  0  0
 17 41  1  0  0  0  0
 17 42  1  0  0  0  0
 18 19  1  0  0  0  0
 18 43  1  0  0  0  0
 19 44  1  0  0  0  0
 19 45  1  0  0  0  0
 19 46  1  0  0  0  0
M  CHG  1   9   1
M  END
> <s_m_source_file>
AV-unprocessed.smi

> <i_m_source_file_index>
3348

> <i_lp_mmshare_version>
43012

> <i_f3d_flags>
0

> <s_epik_input>
bjFbY0hdW2NIXVtjSF1uMVtDSDJdW0NAQEhdKFtDSDNdKVtOSF1bQ0gyXVtDSDJdT1tDQEBIXTJbQ0gyXVtDSDJdW0NIMl1bQ0gyXVtDQEhdMltDSDNd

> <s_epik_cmdline>
J2VwaWtfcHl0aG9uJywgJy1waCcsICc3LjAnLCAnLXRuJywgJzgnLCAnLW1hJywgJzIwMCcsICctbWV0YWxfYmluZGluZycsICctaW1hZScsICc8aW5maWxlLm1hZT4nLCAnLW9tYWUnLCAnPG91dGZpbGUubWFlPic=

> <r_lp_tautomer_probability>
1

> <r_epik_Ionization_Penalty>
0.00925088

> <r_epik_Ionization_Penalty_Charging>
0.00924645

> <r_epik_Ionization_Penalty_Neutral>
4.42413e-06

> <r_epik_State_Penalty>
0.0070118

> <r_epik_Charging_Adjusted_Penalty>
0.0162583

> <i_epik_Tot_Q>
1

> <i_epik_Tot_abs_Q>
1

> <r_epik_Metal_State_Penalty>
0.00701222

> <b_epik_Metal_Only>
0

> <s_lp_Force_Field>
OPLS_2005

> <r_lp_Energy>
15.6253

> <b_lp_Chiralities_Consistent>
1

> <s_lp_Variant>
AV-unprocessed.smi:3348-7

> <Gold.Version>
5.8.1

> <Gold.Id.Protein>
6NUR|6NUR_protein|mol2

> <Gold.PLP.Fitness>
43.0046

> <Gold.PLP.PLP>
-32.8580

> <Gold.PLP.part.hbond>
-1.0000

> <Gold.PLP.part.metal>
0.0000

> <Gold.PLP.part.buried>
-2.4906

> <Gold.PLP.part.nonpolar>
-30.2420

> <Gold.PLP.part.repulsive>
0.2346

> <Gold.PLP.ligand.clash>
0.0000

> <Gold.PLP.ligand.torsion>
0.9582

> <Gold.PLP.Chemscore.Hbond>
1.9825

> <Gold.PLP.Chemscore.CHOScore>
2.0000

> <Gold.PLP.Chemscore.Metal>
0.0000

> <Gold.Chemscore.Hbonds>
donor molecule, donor type, donor heavy atom, donor atom, acceptor molecule, acceptor atom, score
      L1  H     9    29       P1  7948  2.00
      L1  C     5    26       P1 10747  0.99
      L1  C     7    28       P1 10186  0.86

> <Gold.PLP.Chemscore.Internal.Correction>
0.1154

> <Gold.Rescore>
     Score         DG    S(hbond)    S(metal)    S(lipo)     H(rot)  DE(clash)    DE(int)     intcor
     13.06     -14.08       0.98        0.00      85.32       1.82       0.02       0.99       ----

> <Gold.Chemscore.Fitness>
13.0628

> <Gold.Chemscore.DG>
-14.0800

> <Gold.Chemscore.ZeroCoef>
-5.4800

> <Gold.Chemscore.Hbond>
0.9783

> <Gold.Chemscore.Metal>
0.0000

> <Gold.Chemscore.Lipo>
85.3190

> <Gold.Chemscore.Internal_Hbond>
0.0000

> <Gold.Chemscore.DEClash>
0.0234

> <Gold.Chemscore.DEInternal>
0.9938

> <Gold.Chemscore.Rot>
1.8163

> <Gold.Chemscore.Internal.Correction>
   9.000000E+99

> <Gold.Chemscore.Hbonds>
donor molecule, donor type, donor heavy atom, donor atom, acceptor molecule, acceptor atom, score
      L1  H     9    29       P1  7948  1.00

> <Gold.Chemscore.Hbond.Weighted>
-3.2675

> <Gold.Chemscore.Metal.Weighted>
-0.0000

> <Gold.Chemscore.Lipo.Weighted>
-9.9823

> <Gold.Chemscore.Internal_Hbond.Weighted>
0.0000

> <Gold.Chemscore.DEClash.Weighted>
0.0234

> <Gold.Chemscore.DEInternal.Weighted>
0.9938

> <Gold.Chemscore.Rot.Weighted>
4.6497

> <Gold.Chemscore.Internal.Correction.Weighted>
   9.000000E+99

> <Gold.Protein.RotatedTorsions>
[ 6907 6896 6895 6894 ] final  -40.51 input  -60.11 | X-H torsion
[ 7974 7965 7964 7962 ] final   -3.03 input  175.53 | X-H torsion
[ 8008 7997 7996 7995 ] final  161.91 input   59.86 | X-H torsion
[ 10167 10162 10161 10158 ] final -115.45 input  -65.29 | X-H torsion
[ 10718 10713 10712 10709 ] final   32.00 input   66.30 | X-H torsion
[ 10763 10752 10751 10750 ] final  171.56 input  -60.55 | X-H torsion
[ 11005 11000 10999 10996 ] final  177.26 input  -57.11 | X-H torsion

> <Gold.Protein.ActiveResidues>
 VAL166  LYS551  ARG553  GLY616  TRP617  ASP618  TYR619  PRO620  LYS621  CYS622 
 ASP623  PHE694  ASN695  SER759  ASP760  ASP761  ALA762  ILE779  LEU786  VAL792 
 PHE793  MET794  SER795  GLU796  ALA797  LYS798  CYS799  TRP800  GLU811  SER814 

> <Gold.Protein.RotatedAtoms>
  150.9776  134.9138  159.7825 H   0  0  0  0  0  0  0  0  0  0  0  0  # atno 6907 bound_to 6896
  152.5211  134.3454  159.9242 H   0  0  0  0  0  0  0  0  0  0  0  0  # atno 6908 bound_to 6896
  151.3462  133.3902  159.2710 H   0  0  0  0  0  0  0  0  0  0  0  0  # atno 6909 bound_to 6896
  146.2396  140.1659  142.8332 H   0  0  0  0  0  0  0  0  0  0  0  0  # atno 7974 bound_to 7965
  156.2069  140.1764  156.7779 H   0  0  0  0  0  0  0  0  0  0  0  0  # atno 8008 bound_to 7997
  154.5668  140.0689  156.8934 H   0  0  0  0  0  0  0  0  0  0  0  0  # atno 8009 bound_to 7997
  155.2746  140.3345  155.4265 H   0  0  0  0  0  0  0  0  0  0  0  0  # atno 8010 bound_to 7997
  140.0899  143.4709  152.1876 H   0  0  0  0  0  0  0  0  0  0  0  0  # atno 10167 bound_to 10162
  157.2797  130.7249  149.6549 H   0  0  0  0  0  0  0  0  0  0  0  0  # atno 10718 bound_to 10713
  154.4136  135.2756  155.2021 H   0  0  0  0  0  0  0  0  0  0  0  0  # atno 10763 bound_to 10752
  154.3996  135.6047  153.5893 H   0  0  0  0  0  0  0  0  0  0  0  0  # atno 10764 bound_to 10752
  152.9831  135.5923  154.4422 H   0  0  0  0  0  0  0  0  0  0  0  0  # atno 10765 bound_to 10752
  140.3822  134.6936  157.4457 H   0  0  0  0  0  0  0  0  0  0  0  0  # atno 11005 bound_to 11000
  145.0051  140.8666  143.5258 LP  0  0  0  0  0  0  0  0  0  0  0  0  # atno 17320 bound_to 7965
  145.1684  139.2418  143.5355 LP  0  0  0  0  0  0  0  0  0  0  0  0  # atno 17321 bound_to 7965
  139.5730  144.7473  151.3838 LP  0  0  0  0  0  0  0  0  0  0  0  0  # atno 17342 bound_to 10162
  140.7034  143.7575  150.7440 LP  0  0  0  0  0  0  0  0  0  0  0  0  # atno 17343 bound_to 10162
  155.9664  130.4342  150.5039 LP  0  0  0  0  0  0  0  0  0  0  0  0  # atno 17370 bound_to 10713
  157.2980  131.0639  151.2088 LP  0  0  0  0  0  0  0  0  0  0  0  0  # atno 17371 bound_to 10713
  140.0470  134.6185  155.8909 LP  0  0  0  0  0  0  0  0  0  0  0  0  # atno 17394 bound_to 11000
  141.1920  133.6573  156.5480 LP  0  0  0  0  0  0  0  0  0  0  0  0  # atno 17395 bound_to 11000

$$$$
