AV-unprocessed.smi:3030|AV-procd|sdf|11536|dock8
  -GOLD-   2272016483D 1   1.00000     0.00000
 Structure written by MMmdl.
 52 53  0  0  0  0  0  0  0  0  1 V2000
  148.3092  132.2123  158.8870 C   0  0  0  0  0  0  0  0  0  0  0  0
  147.7928  132.3038  160.3274 C   0  0  0  0  0  0  0  0  0  0  0  0
  147.8244  133.6708  160.8269 N   0  0  0  0  0  0  0  0  0  0  0  0
  147.3491  133.9880  162.0950 C   0  0  0  0  0  0  0  0  0  0  0  0
  147.2946  135.2400  162.5888 C   0  0  0  0  0  0  0  0  0  0  0  0
  147.7566  136.3678  161.7546 C   0  0  0  0  0  0  0  0  0  0  0  0
  147.7223  137.5242  162.1752 O   0  0  0  0  0  0  0  0  0  0  0  0
  148.2592  136.0300  160.3965 C   0  0  0  0  0  0  0  0  0  0  0  0
  148.7057  137.1086  159.6148 N   0  0  0  0  0  0  0  0  0  0  0  0
  149.8163  137.2171  158.8629 C   0  0  0  0  0  0  0  0  0  0  0  0
  150.6657  136.3424  158.6961 O   0  0  0  0  0  0  0  0  0  0  0  0
  149.8878  138.4288  158.2941 N   0  0  0  0  0  0  0  0  0  0  0  0
  150.9646  138.8996  157.4210 C   0  0  1  0  0  0  0  0  0  0  0  0
  150.4198  139.2520  156.0204 C   0  0  0  0  0  0  0  0  0  0  0  0
  149.5433  140.5168  156.0286 C   0  0  2  0  0  0  0  0  0  0  0  0
  149.0235  140.8490  154.6227 C   0  0  0  0  0  0  0  0  0  0  0  0
  150.3294  141.6908  156.6324 C   0  0  0  0  0  0  0  0  0  0  0  0
  150.8503  141.3625  158.0404 C   0  0  0  0  0  0  0  0  0  0  0  0
  151.7327  140.0887  158.0660 C   0  0  1  0  0  0  0  0  0  0  0  0
  152.2905  139.7762  159.4894 C   0  0  0  0  0  0  0  0  0  0  0  0
  153.1314  140.9326  160.0637 C   0  0  0  0  0  0  0  0  0  0  0  0
  153.1325  138.4859  159.5285 C   0  0  0  0  0  0  0  0  0  0  0  0
  148.2615  134.7237  160.0256 C   0  0  0  0  0  0  0  0  0  0  0  0
  148.2767  131.1835  158.5284 H   0  0  0  0  0  0  0  0  0  0  0  0
  149.3410  132.5580  158.8151 H   0  0  0  0  0  0  0  0  0  0  0  0
  147.7033  132.8186  158.2130 H   0  0  0  0  0  0  0  0  0  0  0  0
  146.7727  131.9216  160.3792 H   0  0  0  0  0  0  0  0  0  0  0  0
  148.3916  131.6649  160.9777 H   0  0  0  0  0  0  0  0  0  0  0  0
  147.0244  133.1362  162.6750 H   0  0  0  0  0  0  0  0  0  0  0  0
  146.9208  135.4384  163.5825 H   0  0  0  0  0  0  0  0  0  0  0  0
  148.0918  137.9104  159.6228 H   0  0  0  0  0  0  0  0  0  0  0  0
  149.1442  139.0844  158.4845 H   0  0  0  0  0  0  0  0  0  0  0  0
  151.6717  138.0819  157.2765 H   0  0  0  0  0  0  0  0  0  0  0  0
  151.2610  139.4027  155.3425 H   0  0  0  0  0  0  0  0  0  0  0  0
  149.8575  138.4096  155.6149 H   0  0  0  0  0  0  0  0  0  0  0  0
  148.6742  140.3297  156.6610 H   0  0  0  0  0  0  0  0  0  0  0  0
  149.8437  141.0503  153.9329 H   0  0  0  0  0  0  0  0  0  0  0  0
  148.3794  141.7286  154.6403 H   0  0  0  0  0  0  0  0  0  0  0  0
  148.4406  140.0226  154.2146 H   0  0  0  0  0  0  0  0  0  0  0  0
  151.1702  141.9447  155.9851 H   0  0  0  0  0  0  0  0  0  0  0  0
  149.6969  142.5780  156.6773 H   0  0  0  0  0  0  0  0  0  0  0  0
  151.4114  142.2271  158.3913 H   0  0  0  0  0  0  0  0  0  0  0  0
  150.0080  141.2455  158.7234 H   0  0  0  0  0  0  0  0  0  0  0  0
  152.5933  140.2880  157.4252 H   0  0  0  0  0  0  0  0  0  0  0  0
  151.4483  139.6313  160.1670 H   0  0  0  0  0  0  0  0  0  0  0  0
  153.9428  141.2073  159.3891 H   0  0  0  0  0  0  0  0  0  0  0  0
  153.5773  140.6571  161.0198 H   0  0  0  0  0  0  0  0  0  0  0  0
  152.5308  141.8218  160.2512 H   0  0  0  0  0  0  0  0  0  0  0  0
  153.9553  138.5281  158.8141 H   0  0  0  0  0  0  0  0  0  0  0  0
  152.5365  137.6015  159.3053 H   0  0  0  0  0  0  0  0  0  0  0  0
  153.5621  138.3257  160.5178 H   0  0  0  0  0  0  0  0  0  0  0  0
  148.6228  134.3843  159.0684 H   0  0  0  0  0  0  0  0  0  0  0  0
  1  2  1  0  0  0  0
  1 24  1  0  0  0  0
  1 25  1  0  0  0  0
  1 26  1  0  0  0  0
  2  3  1  0  0  0  0
  2 27  1  0  0  0  0
  2 28  1  0  0  0  0
  3 23  1  0  0  0  0
  3  4  1  0  0  0  0
  4  5  2  0  0  0  0
  4 29  1  0  0  0  0
  5  6  1  0  0  0  0
  5 30  1  0  0  0  0
  6  7  2  0  0  0  0
  6  8  1  0  0  0  0
  8  9  1  0  0  0  0
  8 23  2  0  0  0  0
  9 10  1  0  0  0  0
  9 31  1  0  0  0  0
 10 11  2  0  0  0  0
 10 12  1  0  0  0  0
 12 13  1  0  0  0  0
 12 32  1  0  0  0  0
 13 19  1  0  0  0  0
 13 14  1  0  0  0  0
 13 33  1  0  0  0  0
 14 15  1  0  0  0  0
 14 34  1  0  0  0  0
 14 35  1  0  0  0  0
 15 16  1  0  0  0  0
 15 17  1  0  0  0  0
 15 36  1  0  0  0  0
 16 37  1  0  0  0  0
 16 38  1  0  0  0  0
 16 39  1  0  0  0  0
 17 18  1  0  0  0  0
 17 40  1  0  0  0  0
 17 41  1  0  0  0  0
 18 19  1  0  0  0  0
 18 42  1  0  0  0  0
 18 43  1  0  0  0  0
 19 20  1  0  0  0  0
 19 44  1  0  0  0  0
 20 21  1  0  0  0  0
 20 22  1  0  0  0  0
 20 45  1  0  0  0  0
 21 46  1  0  0  0  0
 21 47  1  0  0  0  0
 21 48  1  0  0  0  0
 22 49  1  0  0  0  0
 22 50  1  0  0  0  0
 22 51  1  0  0  0  0
 23 52  1  0  0  0  0
M  END
> <s_m_source_file>
AV-unprocessed.smi

> <i_m_source_file_index>
3030

> <i_lp_mmshare_version>
43012

> <i_f3d_flags>
0

> <s_epik_input>
W0NIM11bQ0gyXW4xW2NIXVtjSF1jKD1PKWMoW2NIXTEpW05IXUMoPU8pW05IXVtDQEBIXTJbQ0gyXVtDQEBIXShbQ0gzXSlbQ0gyXVtDSDJdW0NASF0yW0NIXShbQ0gzXSlbQ0gzXQ==

> <s_epik_cmdline>
J2VwaWtfcHl0aG9uJywgJy1waCcsICc3LjAnLCAnLXRuJywgJzgnLCAnLW1hJywgJzIwMCcsICctbWV0YWxfYmluZGluZycsICctaW1hZScsICc8aW5maWxlLm1hZT4nLCAnLW9tYWUnLCAnPG91dGZpbGUubWFlPic=

> <r_lp_tautomer_probability>
1

> <r_epik_Ionization_Penalty>
0.00147933

> <r_epik_Ionization_Penalty_Charging>
0.00145753

> <r_epik_Ionization_Penalty_Neutral>
2.17987e-05

> <r_epik_State_Penalty>
0.00097457

> <r_epik_Charging_Adjusted_Penalty>
0.0024321

> <i_epik_Tot_Q>
0

> <i_epik_Tot_abs_Q>
0

> <r_epik_Metal_State_Penalty>
-0

> <b_epik_Metal_Only>
0

> <s_lp_Force_Field>
OPLS_2005

> <r_lp_Energy>
8.95674

> <b_lp_Chiralities_Consistent>
1

> <s_lp_Variant>
AV-unprocessed.smi:3030-4

> <Gold.Version>
5.8.1

> <Gold.Id.Protein>
6NUR|6NUR_protein|mol2

> <Gold.PLP.Fitness>
45.1633

> <Gold.PLP.PLP>
-39.0386

> <Gold.PLP.part.hbond>
-2.6598

> <Gold.PLP.part.metal>
0.0000

> <Gold.PLP.part.buried>
-4.0930

> <Gold.PLP.part.nonpolar>
-32.6627

> <Gold.PLP.part.repulsive>
0.3546

> <Gold.PLP.ligand.clash>
0.0000

> <Gold.PLP.ligand.torsion>
0.4019

> <Gold.PLP.Chemscore.Hbond>
2.2880

> <Gold.PLP.Chemscore.CHOScore>
0.0000

> <Gold.PLP.Chemscore.Metal>
0.0000

> <Gold.Chemscore.Hbonds>
donor molecule, donor type, donor heavy atom, donor atom, acceptor molecule, acceptor atom, score
      P1  H  6896  6907       L1    11  0.94
      P1  H  6931  6943       L1     7  0.74
      P1  H  6934  6947       L1     7  0.46

> <Gold.PLP.Chemscore.Internal.Correction>
0.0645

> <Gold.Rescore>
     Score         DG    S(hbond)    S(metal)    S(lipo)     H(rot)  DE(clash)    DE(int)     intcor
     20.36     -20.78       2.41        0.00      89.69       1.27       0.01       0.41       ----

> <Gold.Chemscore.Fitness>
20.3588

> <Gold.Chemscore.DG>
-20.7765

> <Gold.Chemscore.ZeroCoef>
-5.4800

> <Gold.Chemscore.Hbond>
2.4103

> <Gold.Chemscore.Metal>
0.0000

> <Gold.Chemscore.Lipo>
89.6868

> <Gold.Chemscore.Internal_Hbond>
0.0000

> <Gold.Chemscore.DEClash>
0.0089

> <Gold.Chemscore.DEInternal>
0.4088

> <Gold.Chemscore.Rot>
1.2685

> <Gold.Chemscore.Internal.Correction>
   9.000000E+99

> <Gold.Chemscore.Hbonds>
donor molecule, donor type, donor heavy atom, donor atom, acceptor molecule, acceptor atom, score
      P1  H  6896  6907       L1    11  0.92
      P1  H  6931  6943       L1     7  0.60
      P1  H  6934  6947       L1     7  0.43

> <Gold.Chemscore.Hbond.Weighted>
-8.0506

> <Gold.Chemscore.Metal.Weighted>
-0.0000

> <Gold.Chemscore.Lipo.Weighted>
-10.4934

> <Gold.Chemscore.Internal_Hbond.Weighted>
0.0000

> <Gold.Chemscore.DEClash.Weighted>
0.0089

> <Gold.Chemscore.DEInternal.Weighted>
0.4088

> <Gold.Chemscore.Rot.Weighted>
3.2474

> <Gold.Chemscore.Internal.Correction.Weighted>
   9.000000E+99

> <Gold.Protein.RotatedTorsions>
[ 6907 6896 6895 6894 ] final  -34.80 input  -60.11 | X-H torsion
[ 7974 7965 7964 7962 ] final   84.07 input  175.53 | X-H torsion
[ 8008 7997 7996 7995 ] final   16.75 input   59.86 | X-H torsion
[ 10167 10162 10161 10158 ] final    7.81 input  -65.29 | X-H torsion
[ 10718 10713 10712 10709 ] final  -30.94 input   66.30 | X-H torsion
[ 10763 10752 10751 10750 ] final -119.81 input  -60.55 | X-H torsion
[ 11005 11000 10999 10996 ] final  112.90 input  -57.11 | X-H torsion

> <Gold.Protein.ActiveResidues>
 VAL166  LYS551  ARG553  GLY616  TRP617  ASP618  TYR619  PRO620  LYS621  CYS622 
 ASP623  PHE694  ASN695  SER759  ASP760  ASP761  ALA762  ILE779  LEU786  VAL792 
 PHE793  MET794  SER795  GLU796  ALA797  LYS798  CYS799  TRP800  GLU811  SER814 

> <Gold.Protein.RotatedAtoms>
  151.0480  134.9653  159.8196 H   0  0  0  0  0  0  0  0  0  0  0  0  # atno 6907 bound_to 6896
  152.5376  134.2573  159.8932 H   0  0  0  0  0  0  0  0  0  0  0  0  # atno 6908 bound_to 6896
  151.2588  133.4270  159.2649 H   0  0  0  0  0  0  0  0  0  0  0  0  # atno 6909 bound_to 6896
  145.6036  139.2356  143.2232 H   0  0  0  0  0  0  0  0  0  0  0  0  # atno 7974 bound_to 7965
  154.8814  140.2973  155.5423 H   0  0  0  0  0  0  0  0  0  0  0  0  # atno 8008 bound_to 7997
  156.3022  140.2441  156.3751 H   0  0  0  0  0  0  0  0  0  0  0  0  # atno 8009 bound_to 7997
  154.8713  140.0401  157.1715 H   0  0  0  0  0  0  0  0  0  0  0  0  # atno 8010 bound_to 7997
  140.6350  143.7907  150.7347 H   0  0  0  0  0  0  0  0  0  0  0  0  # atno 10167 bound_to 10162
  156.3935  130.4377  149.7377 H   0  0  0  0  0  0  0  0  0  0  0  0  # atno 10718 bound_to 10713
  154.8627  135.4225  154.2359 H   0  0  0  0  0  0  0  0  0  0  0  0  # atno 10763 bound_to 10752
  153.3334  135.6989  153.6934 H   0  0  0  0  0  0  0  0  0  0  0  0  # atno 10764 bound_to 10752
  153.5941  135.3549  155.2895 H   0  0  0  0  0  0  0  0  0  0  0  0  # atno 10765 bound_to 10752
  139.8939  134.9539  156.6657 H   0  0  0  0  0  0  0  0  0  0  0  0  # atno 11005 bound_to 11000
  146.1557  140.6861  142.9301 LP  0  0  0  0  0  0  0  0  0  0  0  0  # atno 17320 bound_to 7965
  144.7299  140.4640  143.6945 LP  0  0  0  0  0  0  0  0  0  0  0  0  # atno 17321 bound_to 7965
  140.1526  143.4344  152.2121 LP  0  0  0  0  0  0  0  0  0  0  0  0  # atno 17342 bound_to 10162
  139.5561  144.7374  151.4290 LP  0  0  0  0  0  0  0  0  0  0  0  0  # atno 17343 bound_to 10162
  156.4421  130.7866  151.2887 LP  0  0  0  0  0  0  0  0  0  0  0  0  # atno 17370 bound_to 10713
  157.7500  131.0122  150.3374 LP  0  0  0  0  0  0  0  0  0  0  0  0  # atno 17371 bound_to 10713
  140.7412  133.8976  155.8279 LP  0  0  0  0  0  0  0  0  0  0  0  0  # atno 17394 bound_to 11000
  141.0076  134.1065  157.4255 LP  0  0  0  0  0  0  0  0  0  0  0  0  # atno 17395 bound_to 11000

$$$$
