AV-unprocessed.smi:1301|AV-procd|sdf|5423|dock6
  -GOLD-   22720 4583D 1   1.00000     0.00000
 Structure written by MMmdl.
 44 45  0  0  0  0  0  0  0  0  3 V2000
  152.2211  142.7353  158.8579 C   0  0  0  0  0  0  0  0  0  0  0  0
  151.6699  141.9275  157.7329 C   0  0  0  0  0  0  0  0  0  0  0  0
  150.9602  142.2602  156.6141 C   0  0  0  0  0  0  0  0  0  0  0  0
  150.7643  141.0085  155.9694 C   0  0  0  0  0  0  0  0  0  0  0  0
  150.0995  140.8106  154.8206 N   0  5  0  0  0  0  0  0  0  0  0  0
  148.9676  140.0706  154.8080 C   0  0  0  0  0  0  0  0  0  0  0  0
  148.3814  139.6114  155.7911 O   0  0  0  0  0  0  0  0  0  0  0  0
  148.4842  139.8496  153.5772 N   0  0  0  0  0  0  0  0  0  0  0  0
  147.2823  139.0878  153.2519 C   0  0  2  0  0  0  0  0  0  0  0  0
  147.3790  137.6815  153.8630 C   0  0  0  0  0  0  0  0  0  0  0  0
  146.1737  136.8168  153.4605 C   0  0  0  0  0  0  0  0  0  0  0  0
  146.0420  136.7321  151.9831 N   0  3  1  0  0  0  0  0  0  0  0  0
  144.9748  135.7850  151.5684 C   0  0  0  0  0  0  0  0  0  0  0  0
  145.2916  134.3158  151.9246 C   0  0  0  0  0  0  0  0  0  0  0  0
  146.5857  133.8614  151.2336 C   0  0  0  0  0  0  0  0  0  0  0  0
  144.1315  133.3732  151.5621 C   0  0  0  0  0  0  0  0  0  0  0  0
  145.9042  138.0812  151.3729 C   0  0  0  0  0  0  0  0  0  0  0  0
  147.1033  138.9750  151.7273 C   0  0  0  0  0  0  0  0  0  0  0  0
  151.2943  140.0027  156.6454 N   0  0  0  0  0  0  0  0  0  0  0  0
  151.8835  140.5845  157.7744 O   0  0  0  0  0  0  0  0  0  0  0  0
  151.4370  143.3319  159.3241 H   0  0  0  0  0  0  0  0  0  0  0  0
  152.9953  143.4143  158.5006 H   0  0  0  0  0  0  0  0  0  0  0  0
  152.6598  142.0962  159.6246 H   0  0  0  0  0  0  0  0  0  0  0  0
  150.6348  143.2418  156.3036 H   0  0  0  0  0  0  0  0  0  0  0  0
  148.9987  140.2451  152.8040 H   0  0  0  0  0  0  0  0  0  0  0  0
  146.4112  139.5879  153.6797 H   0  0  0  0  0  0  0  0  0  0  0  0
  148.2987  137.1952  153.5336 H   0  0  0  0  0  0  0  0  0  0  0  0
  147.4375  137.7495  154.9500 H   0  0  0  0  0  0  0  0  0  0  0  0
  146.3001  135.8174  153.8782 H   0  0  0  0  0  0  0  0  0  0  0  0
  145.2562  137.2261  153.8866 H   0  0  0  0  0  0  0  0  0  0  0  0
  144.0375  136.0561  152.0564 H   0  0  0  0  0  0  0  0  0  0  0  0
  144.7991  135.8925  150.4968 H   0  0  0  0  0  0  0  0  0  0  0  0
  145.4662  134.2350  152.9968 H   0  0  0  0  0  0  0  0  0  0  0  0
  146.4908  133.8974  150.1478 H   0  0  0  0  0  0  0  0  0  0  0  0
  146.8416  132.8383  151.5109 H   0  0  0  0  0  0  0  0  0  0  0  0
  147.4265  134.4962  151.5155 H   0  0  0  0  0  0  0  0  0  0  0  0
  143.9059  133.4121  150.4959 H   0  0  0  0  0  0  0  0  0  0  0  0
  143.2220  133.6308  152.1051 H   0  0  0  0  0  0  0  0  0  0  0  0
  144.3749  132.3397  151.8110 H   0  0  0  0  0  0  0  0  0  0  0  0
  145.8339  138.0052  150.2888 H   0  0  0  0  0  0  0  0  0  0  0  0
  144.9785  138.5458  151.7163 H   0  0  0  0  0  0  0  0  0  0  0  0
  146.9637  139.9642  151.2894 H   0  0  0  0  0  0  0  0  0  0  0  0
  148.0083  138.5638  151.2770 H   0  0  0  0  0  0  0  0  0  0  0  0
  146.9124  136.3446  151.6476 H   0  0  0  0  0  0  0  0  0  0  0  0
  1  2  1  0  0  0  0
  1 21  1  0  0  0  0
  1 22  1  0  0  0  0
  1 23  1  0  0  0  0
  2 20  1  0  0  0  0
  2  3  2  0  0  0  0
  3  4  1  0  0  0  0
  3 24  1  0  0  0  0
  4  5  1  0  0  0  0
  4 19  2  0  0  0  0
  5  6  1  0  0  0  0
  6  7  2  0  0  0  0
  6  8  1  0  0  0  0
  8  9  1  0  0  0  0
  8 25  1  0  0  0  0
  9 18  1  0  0  0  0
  9 10  1  0  0  0  0
  9 26  1  0  0  0  0
 10 11  1  0  0  0  0
 10 27  1  0  0  0  0
 10 28  1  0  0  0  0
 11 12  1  0  0  0  0
 11 29  1  0  0  0  0
 11 30  1  0  0  0  0
 12 13  1  0  0  0  0
 12 17  1  0  0  0  0
 12 44  1  0  0  0  0
 13 14  1  0  0  0  0
 13 31  1  0  0  0  0
 13 32  1  0  0  0  0
 14 15  1  0  0  0  0
 14 16  1  0  0  0  0
 14 33  1  0  0  0  0
 15 34  1  0  0  0  0
 15 35  1  0  0  0  0
 15 36  1  0  0  0  0
 16 37  1  0  0  0  0
 16 38  1  0  0  0  0
 16 39  1  0  0  0  0
 17 18  1  0  0  0  0
 17 40  1  0  0  0  0
 17 41  1  0  0  0  0
 18 42  1  0  0  0  0
 18 43  1  0  0  0  0
 19 20  1  0  0  0  0
M  CHG  1   5  -1
M  CHG  1  12   1
M  END
> <s_m_source_file>
AV-unprocessed.smi

> <i_m_source_file_index>
1301

> <i_lp_mmshare_version>
43012

> <i_f3d_flags>
0

> <s_epik_input>
W0NIM11jMVtjSF1jKG5vMSlbTkhdQyg9TylbTkhdW0NIXTJbQ0gyXVtDSDJdTihbQ0gyXVtDSDJdMilbQ0gyXVtDSF0oW0NIM10pW0NIM10=

> <s_epik_cmdline>
J2VwaWtfcHl0aG9uJywgJy1waCcsICc3LjAnLCAnLXRuJywgJzgnLCAnLW1hJywgJzIwMCcsICctbWV0YWxfYmluZGluZycsICctaW1hZScsICc8aW5maWxlLm1hZT4nLCAnLW9tYWUnLCAnPG91dGZpbGUubWFlPic=

> <r_epik_Ionization_Penalty>
6.28597

> <r_epik_Ionization_Penalty_Charging>
6.28587

> <r_epik_Ionization_Penalty_Neutral>
9.69304e-05

> <r_epik_State_Penalty>
6.28524

> <r_epik_Charging_Adjusted_Penalty>
12.5711

> <i_epik_Tot_Q>
0

> <i_epik_Tot_abs_Q>
2

> <r_epik_Metal_State_Penalty>
2.21973

> <b_epik_Metal_Only>
1

> <s_lp_Force_Field>
OPLS_2005

> <r_lp_Energy>
7.73982

> <b_lp_Chiralities_Consistent>
1

> <s_lp_Variant>
AV-unprocessed.smi:1301-3

> <Gold.Version>
5.8.1

> <Gold.Id.Protein>
6NUR|6NUR_protein|mol2

> <Gold.PLP.Fitness>
39.1468

> <Gold.PLP.PLP>
-29.2841

> <Gold.PLP.part.hbond>
-3.0000

> <Gold.PLP.part.metal>
0.0000

> <Gold.PLP.part.buried>
4.6824

> <Gold.PLP.part.nonpolar>
-30.1090

> <Gold.PLP.part.repulsive>
0.2656

> <Gold.PLP.ligand.clash>
0.0000

> <Gold.PLP.ligand.torsion>
0.6864

> <Gold.PLP.Chemscore.Hbond>
3.7280

> <Gold.PLP.Chemscore.CHOScore>
0.0000

> <Gold.PLP.Chemscore.Metal>
0.0000

> <Gold.Chemscore.Hbonds>
donor molecule, donor type, donor heavy atom, donor atom, acceptor molecule, acceptor atom, score
      L1  H     8    25       P1  7957  0.96
      L1  H    12    44       P1  7948  1.95
      P1  H  7989  7998       L1     5  0.78

> <Gold.PLP.Chemscore.Internal.Correction>
0.0515

> <Gold.Rescore>
     Score         DG    S(hbond)    S(metal)    S(lipo)     H(rot)  DE(clash)    DE(int)     intcor
     15.58     -19.75       2.54        0.00      80.34       1.41       2.65       1.52       ----

> <Gold.Chemscore.Fitness>
15.5807

> <Gold.Chemscore.DG>
-19.7503

> <Gold.Chemscore.ZeroCoef>
-5.4800

> <Gold.Chemscore.Hbond>
2.5362

> <Gold.Chemscore.Metal>
0.0000

> <Gold.Chemscore.Lipo>
80.3384

> <Gold.Chemscore.Internal_Hbond>
0.0000

> <Gold.Chemscore.DEClash>
2.6467

> <Gold.Chemscore.DEInternal>
1.5228

> <Gold.Chemscore.Rot>
1.4063

> <Gold.Chemscore.Internal.Correction>
   9.000000E+99

> <Gold.Chemscore.Hbonds>
donor molecule, donor type, donor heavy atom, donor atom, acceptor molecule, acceptor atom, score
      L1  H     8    25       P1  7957  0.92
      L1  H    12    44       P1  7948  0.87
      P1  H  7989  7998       L1     5  0.22

> <Gold.Chemscore.Hbond.Weighted>
-8.4709

> <Gold.Chemscore.Metal.Weighted>
-0.0000

> <Gold.Chemscore.Lipo.Weighted>
-9.3996

> <Gold.Chemscore.Internal_Hbond.Weighted>
0.0000

> <Gold.Chemscore.DEClash.Weighted>
2.6467

> <Gold.Chemscore.DEInternal.Weighted>
1.5228

> <Gold.Chemscore.Rot.Weighted>
3.6002

> <Gold.Chemscore.Internal.Correction.Weighted>
   9.000000E+99

> <Gold.Protein.RotatedTorsions>
[ 6907 6896 6895 6894 ] final    3.59 input  -60.11 | X-H torsion
[ 7974 7965 7964 7962 ] final  123.79 input  175.53 | X-H torsion
[ 8008 7997 7996 7995 ] final  -32.35 input   59.86 | X-H torsion
[ 10167 10162 10161 10158 ] final  -66.04 input  -65.29 | X-H torsion
[ 10718 10713 10712 10709 ] final  -66.17 input   66.30 | X-H torsion
[ 10763 10752 10751 10750 ] final   72.31 input  -60.55 | X-H torsion
[ 11005 11000 10999 10996 ] final -124.26 input  -57.11 | X-H torsion

> <Gold.Protein.ActiveResidues>
 VAL166  LYS551  ARG553  GLY616  TRP617  ASP618  TYR619  PRO620  LYS621  CYS622 
 ASP623  PHE694  ASN695  SER759  ASP760  ASP761  ALA762  ILE779  LEU786  VAL792 
 PHE793  MET794  SER795  GLU796  ALA797  LYS798  CYS799  TRP800  GLU811  SER814 

> <Gold.Protein.RotatedAtoms>
  151.6275  135.1026  160.0114 H   0  0  0  0  0  0  0  0  0  0  0  0  # atno 6907 bound_to 6896
  152.4124  133.6981  159.6418 H   0  0  0  0  0  0  0  0  0  0  0  0  # atno 6908 bound_to 6896
  150.8014  133.8517  159.3248 H   0  0  0  0  0  0  0  0  0  0  0  0  # atno 6909 bound_to 6896
  145.0919  139.3581  143.4856 H   0  0  0  0  0  0  0  0  0  0  0  0  # atno 7974 bound_to 7965
  154.4183  140.1740  156.1713 H   0  0  0  0  0  0  0  0  0  0  0  0  # atno 8008 bound_to 7997
  155.9758  140.3382  155.6593 H   0  0  0  0  0  0  0  0  0  0  0  0  # atno 8009 bound_to 7997
  155.6566  140.0696  157.2559 H   0  0  0  0  0  0  0  0  0  0  0  0  # atno 8010 bound_to 7997
  140.5686  143.2316  151.6584 H   0  0  0  0  0  0  0  0  0  0  0  0  # atno 10167 bound_to 10162
  156.0627  130.4258  150.1670 H   0  0  0  0  0  0  0  0  0  0  0  0  # atno 10718 bound_to 10713
  153.0451  135.5104  154.7725 H   0  0  0  0  0  0  0  0  0  0  0  0  # atno 10763 bound_to 10752
  154.6631  135.2941  154.9843 H   0  0  0  0  0  0  0  0  0  0  0  0  # atno 10764 bound_to 10752
  154.0687  135.6680  153.4874 H   0  0  0  0  0  0  0  0  0  0  0  0  # atno 10765 bound_to 10752
  140.9855  134.0613  157.3716 H   0  0  0  0  0  0  0  0  0  0  0  0  # atno 11005 bound_to 11000
  146.3531  140.0757  142.8620 LP  0  0  0  0  0  0  0  0  0  0  0  0  # atno 17320 bound_to 7965
  145.1056  140.9373  143.4687 LP  0  0  0  0  0  0  0  0  0  0  0  0  # atno 17321 bound_to 7965
  139.5106  144.3538  152.0627 LP  0  0  0  0  0  0  0  0  0  0  0  0  # atno 17342 bound_to 10162
  140.2673  144.4002  150.6164 LP  0  0  0  0  0  0  0  0  0  0  0  0  # atno 17343 bound_to 10162
  156.9735  130.9842  151.3453 LP  0  0  0  0  0  0  0  0  0  0  0  0  # atno 17370 bound_to 10713
  157.5648  130.8270  149.8313 LP  0  0  0  0  0  0  0  0  0  0  0  0  # atno 17371 bound_to 10713
  139.8968  135.0147  156.7072 LP  0  0  0  0  0  0  0  0  0  0  0  0  # atno 17394 bound_to 11000
  140.7121  133.9214  155.8091 LP  0  0  0  0  0  0  0  0  0  0  0  0  # atno 17395 bound_to 11000

$$$$
