AV-unprocessed.smi:1885|AV-procd|sdf|7653|dock7
  -GOLD-   22720 9383D 1   1.00000     0.00000
 Structure written by MMmdl.
 44 46  0  0  0  0  0  0  0  0  2 V2000
  142.7269  135.0962  162.9154 C   0  0  0  0  0  0  0  0  0  0  0  0
  143.9152  134.3571  163.1576 O   0  0  0  0  0  0  0  0  0  0  0  0
  145.0666  134.7487  162.5084 C   0  0  0  0  0  0  0  0  0  0  0  0
  146.1311  133.8733  162.1765 C   0  0  0  0  0  0  0  0  0  0  0  0
  147.2732  134.3592  161.5106 C   0  0  0  0  0  0  0  0  0  0  0  0
  147.3755  135.7231  161.1709 C   0  0  0  0  0  0  0  0  0  0  0  0
  148.6017  136.2276  160.4324 C   0  0  0  0  0  0  0  0  0  0  0  0
  148.4987  137.5992  160.0824 O   0  0  0  0  0  0  0  0  0  0  0  0
  148.9521  137.8655  158.7655 C   0  0  0  0  0  0  0  0  0  0  0  0
  150.4543  138.2007  158.8065 C   0  0  1  0  0  0  0  0  0  0  0  0
  151.1742  137.0075  159.0365 O   0  0  0  0  0  0  0  0  0  0  0  0
  150.9962  138.8106  157.4980 C   0  0  0  0  0  0  0  0  0  0  0  0
  150.7147  140.2483  157.3742 N   0  0  0  0  0  0  0  0  0  0  0  0
  149.9495  140.9004  156.4568 C   0  0  0  0  0  0  0  0  0  0  0  0
  149.9871  142.2278  156.7575 N   0  3  0  0  0  0  0  0  0  0  0  0
  150.7876  142.4285  157.8840 C   0  0  0  0  0  0  0  0  0  0  0  0
  151.1276  143.5944  158.5625 C   0  0  0  0  0  0  0  0  0  0  0  0
  151.9741  143.4544  159.6818 C   0  0  0  0  0  0  0  0  0  0  0  0
  152.3378  144.5577  160.3774 F   0  0  0  0  0  0  0  0  0  0  0  0
  152.4497  142.1896  160.0878 C   0  0  0  0  0  0  0  0  0  0  0  0
  153.2636  142.0996  161.1662 F   0  0  0  0  0  0  0  0  0  0  0  0
  152.0968  141.0143  159.3926 C   0  0  0  0  0  0  0  0  0  0  0  0
  151.2585  141.1607  158.2875 C   0  0  0  0  0  0  0  0  0  0  0  0
  146.3156  136.5964  161.4909 C   0  0  0  0  0  0  0  0  0  0  0  0
  145.1743  136.1100  162.1570 C   0  0  0  0  0  0  0  0  0  0  0  0
  141.9105  134.6645  163.4942 H   0  0  0  0  0  0  0  0  0  0  0  0
  142.4405  135.0582  161.8633 H   0  0  0  0  0  0  0  0  0  0  0  0
  142.8345  136.1370  163.2237 H   0  0  0  0  0  0  0  0  0  0  0  0
  146.0949  132.8225  162.4204 H   0  0  0  0  0  0  0  0  0  0  0  0
  148.0729  133.6774  161.2608 H   0  0  0  0  0  0  0  0  0  0  0  0
  149.4830  136.0769  161.0583 H   0  0  0  0  0  0  0  0  0  0  0  0
  148.7317  135.6223  159.5342 H   0  0  0  0  0  0  0  0  0  0  0  0
  148.7545  137.0255  158.0971 H   0  0  0  0  0  0  0  0  0  0  0  0
  148.3852  138.7169  158.3891 H   0  0  0  0  0  0  0  0  0  0  0  0
  150.6548  138.8904  159.6276 H   0  0  0  0  0  0  0  0  0  0  0  0
  151.8009  136.8920  158.3387 H   0  0  0  0  0  0  0  0  0  0  0  0
  152.0811  138.7017  157.4620 H   0  0  0  0  0  0  0  0  0  0  0  0
  150.6104  138.2832  156.6257 H   0  0  0  0  0  0  0  0  0  0  0  0
  149.4095  140.4463  155.6381 H   0  0  0  0  0  0  0  0  0  0  0  0
  150.7675  144.5647  158.2541 H   0  0  0  0  0  0  0  0  0  0  0  0
  152.4737  140.0549  159.7134 H   0  0  0  0  0  0  0  0  0  0  0  0
  146.3708  137.6424  161.2280 H   0  0  0  0  0  0  0  0  0  0  0  0
  144.3705  136.7899  162.3990 H   0  0  0  0  0  0  0  0  0  0  0  0
  149.5006  142.9418  156.2303 H   0  0  0  0  0  0  0  0  0  0  0  0
  1  2  1  0  0  0  0
  1 26  1  0  0  0  0
  1 27  1  0  0  0  0
  1 28  1  0  0  0  0
  2  3  1  0  0  0  0
  3 25  1  0  0  0  0
  3  4  2  0  0  0  0
  4  5  1  0  0  0  0
  4 29  1  0  0  0  0
  5  6  2  0  0  0  0
  5 30  1  0  0  0  0
  6  7  1  0  0  0  0
  6 24  1  0  0  0  0
  7  8  1  0  0  0  0
  7 31  1  0  0  0  0
  7 32  1  0  0  0  0
  8  9  1  0  0  0  0
  9 10  1  0  0  0  0
  9 33  1  0  0  0  0
  9 34  1  0  0  0  0
 10 11  1  0  0  0  0
 10 12  1  0  0  0  0
 10 35  1  0  0  0  0
 11 36  1  0  0  0  0
 12 13  1  0  0  0  0
 12 37  1  0  0  0  0
 12 38  1  0  0  0  0
 13 23  1  0  0  0  0
 13 14  1  0  0  0  0
 14 15  2  0  0  0  0
 14 39  1  0  0  0  0
 15 16  1  0  0  0  0
 15 44  1  0  0  0  0
 16 23  2  0  0  0  0
 16 17  1  0  0  0  0
 17 18  2  0  0  0  0
 17 40  1  0  0  0  0
 18 19  1  0  0  0  0
 18 20  1  0  0  0  0
 20 21  1  0  0  0  0
 20 22  2  0  0  0  0
 22 23  1  0  0  0  0
 22 41  1  0  0  0  0
 24 25  2  0  0  0  0
 24 42  1  0  0  0  0
 25 43  1  0  0  0  0
M  CHG  1  15   1
M  END
> <s_m_source_file>
AV-unprocessed.smi

> <i_m_source_file_index>
1885

> <i_lp_mmshare_version>
43012

> <i_f3d_flags>
0

> <s_epik_input>
W0NIM11PYzFbY0hdW2NIXWMoW2NIXVtjSF0xKVtDSDJdT1tDSDJdW0NASF0oW09IXSlbQ0gyXW4oW2NIXW4yKWMoYzIzKVtjSF1jKEYpYyhGKVtjSF0z

> <s_epik_cmdline>
J2VwaWtfcHl0aG9uJywgJy1waCcsICc3LjAnLCAnLXRuJywgJzgnLCAnLW1hJywgJzIwMCcsICctbWV0YWxfYmluZGluZycsICctaW1hZScsICc8aW5maWxlLm1hZT4nLCAnLW9tYWUnLCAnPG91dGZpbGUubWFlPic=

> <r_lp_tautomer_probability>
1

> <r_epik_Ionization_Penalty>
2.14697

> <r_epik_Ionization_Penalty_Charging>
2.14697

> <r_epik_Ionization_Penalty_Neutral>
9.74819e-07

> <r_epik_State_Penalty>
2.28651

> <r_epik_Charging_Adjusted_Penalty>
4.43348

> <i_epik_Tot_Q>
1

> <i_epik_Tot_abs_Q>
1

> <r_epik_Metal_State_Penalty>
6.36664

> <b_epik_Metal_Only>
0

> <s_lp_Force_Field>
OPLS_2005

> <r_lp_Energy>
25.0693

> <b_lp_Chiralities_Consistent>
1

> <s_lp_Variant>
AV-unprocessed.smi:1885-4

> <Gold.Version>
5.8.1

> <Gold.Id.Protein>
6NUR|6NUR_protein|mol2

> <Gold.PLP.Fitness>
59.4519

> <Gold.PLP.PLP>
-51.1701

> <Gold.PLP.part.hbond>
-4.0000

> <Gold.PLP.part.metal>
0.0000

> <Gold.PLP.part.buried>
-7.2975

> <Gold.PLP.part.nonpolar>
-41.3828

> <Gold.PLP.part.repulsive>
0.1587

> <Gold.PLP.ligand.clash>
0.0000

> <Gold.PLP.ligand.torsion>
1.1758

> <Gold.PLP.Chemscore.Hbond>
3.4788

> <Gold.PLP.Chemscore.CHOScore>
0.0000

> <Gold.PLP.Chemscore.Metal>
0.0000

> <Gold.Chemscore.Hbonds>
donor molecule, donor type, donor heavy atom, donor atom, acceptor molecule, acceptor atom, score
      L1  H    15    44       P1  8028  2.00
      P1  H  6896  6909       L1    11  0.91
      P1  H  6931  6943       L1     8  0.30
      P1  H  6934  6947       L1     8  0.34

> <Gold.PLP.Chemscore.Internal.Correction>
0.1971

> <Gold.Rescore>
     Score         DG    S(hbond)    S(metal)    S(lipo)     H(rot)  DE(clash)    DE(int)     intcor
     16.15     -17.60       1.88        0.00     116.00       3.03       0.07       1.37       ----

> <Gold.Chemscore.Fitness>
16.1543

> <Gold.Chemscore.DG>
-17.5957

> <Gold.Chemscore.ZeroCoef>
-5.4800

> <Gold.Chemscore.Hbond>
1.8846

> <Gold.Chemscore.Metal>
0.0000

> <Gold.Chemscore.Lipo>
116.0031

> <Gold.Chemscore.Internal_Hbond>
0.0000

> <Gold.Chemscore.DEClash>
0.0689

> <Gold.Chemscore.DEInternal>
1.3724

> <Gold.Chemscore.Rot>
3.0278

> <Gold.Chemscore.Internal.Correction>
   9.000000E+99

> <Gold.Chemscore.Hbonds>
donor molecule, donor type, donor heavy atom, donor atom, acceptor molecule, acceptor atom, score
      L1  H    15    44       P1  8028  0.98
      P1  H  6896  6909       L1    11  0.22
      P1  H  6931  6943       L1     8  0.04
      P1  H  6934  6947       L1     8  0.30

> <Gold.Chemscore.Hbond.Weighted>
-6.2944

> <Gold.Chemscore.Metal.Weighted>
-0.0000

> <Gold.Chemscore.Lipo.Weighted>
-13.5724

> <Gold.Chemscore.Internal_Hbond.Weighted>
0.0000

> <Gold.Chemscore.DEClash.Weighted>
0.0689

> <Gold.Chemscore.DEInternal.Weighted>
1.3724

> <Gold.Chemscore.Rot.Weighted>
7.7512

> <Gold.Chemscore.Internal.Correction.Weighted>
   9.000000E+99

> <Gold.Protein.RotatedTorsions>
[ 6907 6896 6895 6894 ] final   97.57 input  -60.11 | X-H torsion
[ 7974 7965 7964 7962 ] final  -63.43 input  175.53 | X-H torsion
[ 8008 7997 7996 7995 ] final   22.96 input   59.86 | X-H torsion
[ 10167 10162 10161 10158 ] final -133.86 input  -65.29 | X-H torsion
[ 10718 10713 10712 10709 ] final -167.61 input   66.30 | X-H torsion
[ 10763 10752 10751 10750 ] final -175.74 input  -60.55 | X-H torsion
[ 11005 11000 10999 10996 ] final  170.04 input  -57.11 | X-H torsion

> <Gold.Protein.ActiveResidues>
 VAL166  LYS551  ARG553  GLY616  TRP617  ASP618  TYR619  PRO620  LYS621  CYS622 
 ASP623  PHE694  ASN695  SER759  ASP760  ASP761  ALA762  ILE779  LEU786  VAL792 
 PHE793  MET794  SER795  GLU796  ALA797  LYS798  CYS799  TRP800  GLU811  SER814 

> <Gold.Protein.RotatedAtoms>
  152.5421  134.0713  159.8194 H   0  0  0  0  0  0  0  0  0  0  0  0  # atno 6907 bound_to 6896
  151.0827  133.5370  159.2627 H   0  0  0  0  0  0  0  0  0  0  0  0  # atno 6908 bound_to 6896
  151.2191  135.0520  159.8996 H   0  0  0  0  0  0  0  0  0  0  0  0  # atno 6909 bound_to 6896
  145.7792  140.8771  143.0339 H   0  0  0  0  0  0  0  0  0  0  0  0  # atno 7974 bound_to 7965
  154.9736  140.3093  155.4977 H   0  0  0  0  0  0  0  0  0  0  0  0  # atno 8008 bound_to 7997
  156.2962  140.2279  156.4770 H   0  0  0  0  0  0  0  0  0  0  0  0  # atno 8009 bound_to 7997
  154.7853  140.0443  157.1148 H   0  0  0  0  0  0  0  0  0  0  0  0  # atno 8010 bound_to 7997
  139.8940  143.6688  152.2607 H   0  0  0  0  0  0  0  0  0  0  0  0  # atno 10167 bound_to 10162
  156.6848  130.9136  151.3062 H   0  0  0  0  0  0  0  0  0  0  0  0  # atno 10718 bound_to 10713
  154.5808  135.2836  155.0735 H   0  0  0  0  0  0  0  0  0  0  0  0  # atno 10763 bound_to 10752
  154.2072  135.6414  153.5108 H   0  0  0  0  0  0  0  0  0  0  0  0  # atno 10764 bound_to 10752
  153.0087  135.5483  154.6461 H   0  0  0  0  0  0  0  0  0  0  0  0  # atno 10765 bound_to 10752
  140.3042  134.7570  157.3940 H   0  0  0  0  0  0  0  0  0  0  0  0  # atno 11005 bound_to 11000
  144.6799  139.9965  143.7484 LP  0  0  0  0  0  0  0  0  0  0  0  0  # atno 17320 bound_to 7965
  146.0091  139.3155  143.0881 LP  0  0  0  0  0  0  0  0  0  0  0  0  # atno 17321 bound_to 7965
  139.7084  144.7624  151.1153 LP  0  0  0  0  0  0  0  0  0  0  0  0  # atno 17342 bound_to 10162
  140.7721  143.5363  150.9364 LP  0  0  0  0  0  0  0  0  0  0  0  0  # atno 17343 bound_to 10162
  157.7030  130.9354  150.0844 LP  0  0  0  0  0  0  0  0  0  0  0  0  # atno 17370 bound_to 10713
  156.1840  130.3651  149.8997 LP  0  0  0  0  0  0  0  0  0  0  0  0  # atno 17371 bound_to 10713
  140.1082  134.5380  155.8290 LP  0  0  0  0  0  0  0  0  0  0  0  0  # atno 17394 bound_to 11000
  141.2122  133.6716  156.6640 LP  0  0  0  0  0  0  0  0  0  0  0  0  # atno 17395 bound_to 11000

$$$$
