AV-unprocessed.smi:2489|AV-procd|sdf|9798|dock2
  -GOLD-   2272013433D 1   1.00000     0.00000
 Structure written by MMmdl.
 33 34  0  0  0  0  0  0  0  0  1 V2000
  151.7912  145.6562  160.1724 C   0  0  0  0  0  0  0  0  0  0  0  0
  151.4157  144.8240  159.0848 O   0  0  0  0  0  0  0  0  0  0  0  0
  151.8955  143.5323  159.0678 C   0  0  0  0  0  0  0  0  0  0  0  0
  152.6887  142.9578  160.0891 C   0  0  0  0  0  0  0  0  0  0  0  0
  153.1097  141.6237  159.9399 C   0  0  0  0  0  0  0  0  0  0  0  0
  152.7959  140.8625  158.8721 N   0  0  0  0  0  0  0  0  0  0  0  0
  152.0376  141.3962  157.8841 C   0  0  0  0  0  0  0  0  0  0  0  0
  151.6514  140.6870  156.7162 N   0  0  0  0  0  0  0  0  0  0  0  0
  152.2319  139.6057  156.1606 C   0  0  0  0  0  0  0  0  0  0  0  0
  153.2471  139.0624  156.5974 O   0  0  0  0  0  0  0  0  0  0  0  0
  151.5744  139.0547  154.8823 C   0  0  1  0  0  0  0  0  0  0  0  0
  150.8116  137.7325  155.1044 C   0  0  0  0  0  0  0  0  0  0  0  0
  149.4057  138.0281  154.6134 C   0  0  0  0  0  0  0  0  0  0  0  0
  149.3057  139.5389  154.7827 C   0  0  2  0  0  0  0  0  0  0  0  0
  148.2251  140.1998  153.9207 C   0  0  0  0  0  0  0  0  0  0  0  0
  150.5975  139.9744  154.3875 O   0  0  0  0  0  0  0  0  0  0  0  0
  151.5733  142.7284  157.9554 C   0  0  0  0  0  0  0  0  0  0  0  0
  151.3384  146.6395  160.0463 H   0  0  0  0  0  0  0  0  0  0  0  0
  152.8725  145.7940  160.2141 H   0  0  0  0  0  0  0  0  0  0  0  0
  151.4416  145.2516  161.1232 H   0  0  0  0  0  0  0  0  0  0  0  0
  152.9797  143.5050  160.9727 H   0  0  0  0  0  0  0  0  0  0  0  0
  153.7162  141.1542  160.7001 H   0  0  0  0  0  0  0  0  0  0  0  0
  150.8257  141.0322  156.2486 H   0  0  0  0  0  0  0  0  0  0  0  0
  152.3469  138.9319  154.1227 H   0  0  0  0  0  0  0  0  0  0  0  0
  151.2612  136.9028  154.5581 H   0  0  0  0  0  0  0  0  0  0  0  0
  150.7778  137.4498  156.1578 H   0  0  0  0  0  0  0  0  0  0  0  0
  149.3201  137.7589  153.5596 H   0  0  0  0  0  0  0  0  0  0  0  0
  148.6380  137.4855  155.1659 H   0  0  0  0  0  0  0  0  0  0  0  0
  149.1539  139.7887  155.8343 H   0  0  0  0  0  0  0  0  0  0  0  0
  147.2326  139.8448  154.1984 H   0  0  0  0  0  0  0  0  0  0  0  0
  148.3753  139.9840  152.8624 H   0  0  0  0  0  0  0  0  0  0  0  0
  148.2385  141.2827  154.0448 H   0  0  0  0  0  0  0  0  0  0  0  0
  150.9690  143.1389  157.1591 H   0  0  0  0  0  0  0  0  0  0  0  0
  1  2  1  0  0  0  0
  1 18  1  0  0  0  0
  1 19  1  0  0  0  0
  1 20  1  0  0  0  0
  2  3  1  0  0  0  0
  3 17  1  0  0  0  0
  3  4  2  0  0  0  0
  4  5  1  0  0  0  0
  4 21  1  0  0  0  0
  5  6  2  0  0  0  0
  5 22  1  0  0  0  0
  6  7  1  0  0  0  0
  7  8  1  0  0  0  0
  7 17  2  0  0  0  0
  8  9  1  0  0  0  0
  8 23  1  0  0  0  0
  9 10  2  0  0  0  0
  9 11  1  0  0  0  0
 11 16  1  0  0  0  0
 11 12  1  0  0  0  0
 11 24  1  0  0  0  0
 12 13  1  0  0  0  0
 12 25  1  0  0  0  0
 12 26  1  0  0  0  0
 13 14  1  0  0  0  0
 13 27  1  0  0  0  0
 13 28  1  0  0  0  0
 14 15  1  0  0  0  0
 14 16  1  0  0  0  0
 14 29  1  0  0  0  0
 15 30  1  0  0  0  0
 15 31  1  0  0  0  0
 15 32  1  0  0  0  0
 17 33  1  0  0  0  0
M  END
> <s_m_source_file>
AV-unprocessed.smi

> <i_m_source_file_index>
2489

> <i_lp_mmshare_version>
43012

> <i_f3d_flags>
0

> <s_epik_input>
W0NIM11PYzFbY0hdW2NIXW5jKFtjSF0xKVtOSF1DKD1PKVtDQEBIXTJbQ0gyXVtDSDJdW0NASF0oTzIpW0NIM10=

> <s_epik_cmdline>
J2VwaWtfcHl0aG9uJywgJy1waCcsICc3LjAnLCAnLXRuJywgJzgnLCAnLW1hJywgJzIwMCcsICctbWV0YWxfYmluZGluZycsICctaW1hZScsICc8aW5maWxlLm1hZT4nLCAnLW9tYWUnLCAnPG91dGZpbGUubWFlPic=

> <r_epik_Ionization_Penalty>
0.0871917

> <r_epik_Ionization_Penalty_Charging>
0

> <r_epik_Ionization_Penalty_Neutral>
0.0871917

> <r_epik_State_Penalty>
0.146479

> <r_epik_Charging_Adjusted_Penalty>
0.146479

> <i_epik_Tot_Q>
0

> <i_epik_Tot_abs_Q>
0

> <r_epik_Metal_State_Penalty>
0.067489

> <b_epik_Metal_Only>
0

> <s_lp_Force_Field>
OPLS_2005

> <r_lp_Energy>
22.8638

> <b_lp_Chiralities_Consistent>
1

> <s_lp_Variant>
AV-unprocessed.smi:2489-4

> <Gold.Version>
5.8.1

> <Gold.Id.Protein>
6NUR|6NUR_protein|mol2

> <Gold.PLP.Fitness>
40.6816

> <Gold.PLP.PLP>
-35.4649

> <Gold.PLP.part.hbond>
-2.0000

> <Gold.PLP.part.metal>
0.0000

> <Gold.PLP.part.buried>
-4.4473

> <Gold.PLP.part.nonpolar>
-29.1059

> <Gold.PLP.part.repulsive>
0.3327

> <Gold.PLP.ligand.clash>
0.0000

> <Gold.PLP.ligand.torsion>
0.3978

> <Gold.PLP.Chemscore.Hbond>
2.0000

> <Gold.PLP.Chemscore.CHOScore>
0.0000

> <Gold.PLP.Chemscore.Metal>
0.0000

> <Gold.Chemscore.Hbonds>
donor molecule, donor type, donor heavy atom, donor atom, acceptor molecule, acceptor atom, score
      P1  H  7989  7998       L1    16  0.85
      P1  H  7997  8010       L1    10  0.98

> <Gold.PLP.Chemscore.Internal.Correction>
0.0124

> <Gold.Rescore>
     Score         DG    S(hbond)    S(metal)    S(lipo)     H(rot)  DE(clash)    DE(int)     intcor
     14.85     -16.67       1.26        0.00      86.62       1.23       0.14       1.68       ----

> <Gold.Chemscore.Fitness>
14.8470

> <Gold.Chemscore.DG>
-16.6699

> <Gold.Chemscore.ZeroCoef>
-5.4800

> <Gold.Chemscore.Hbond>
1.2559

> <Gold.Chemscore.Metal>
0.0000

> <Gold.Chemscore.Lipo>
86.6231

> <Gold.Chemscore.Internal_Hbond>
0.0000

> <Gold.Chemscore.DEClash>
0.1394

> <Gold.Chemscore.DEInternal>
1.6835

> <Gold.Chemscore.Rot>
1.2264

> <Gold.Chemscore.Internal.Correction>
   9.000000E+99

> <Gold.Chemscore.Hbonds>
donor molecule, donor type, donor heavy atom, donor atom, acceptor molecule, acceptor atom, score
      P1  H  7989  7998       L1    16  0.15
      P1  H  7997  8010       L1    10  0.71

> <Gold.Chemscore.Hbond.Weighted>
-4.1946

> <Gold.Chemscore.Metal.Weighted>
-0.0000

> <Gold.Chemscore.Lipo.Weighted>
-10.1349

> <Gold.Chemscore.Internal_Hbond.Weighted>
0.0000

> <Gold.Chemscore.DEClash.Weighted>
0.1394

> <Gold.Chemscore.DEInternal.Weighted>
1.6835

> <Gold.Chemscore.Rot.Weighted>
3.1396

> <Gold.Chemscore.Internal.Correction.Weighted>
   9.000000E+99

> <Gold.Protein.RotatedTorsions>
[ 6907 6896 6895 6894 ] final   67.50 input  -60.11 | X-H torsion
[ 7974 7965 7964 7962 ] final   62.46 input  175.53 | X-H torsion
[ 8008 7997 7996 7995 ] final   57.35 input   59.86 | X-H torsion
[ 10167 10162 10161 10158 ] final  -19.29 input  -65.29 | X-H torsion
[ 10718 10713 10712 10709 ] final  -35.29 input   66.30 | X-H torsion
[ 10763 10752 10751 10750 ] final  -85.64 input  -60.55 | X-H torsion
[ 11005 11000 10999 10996 ] final  137.65 input  -57.11 | X-H torsion

> <Gold.Protein.ActiveResidues>
 VAL166  LYS551  ARG553  GLY616  TRP617  ASP618  TYR619  PRO620  LYS621  CYS622 
 ASP623  PHE694  ASN695  SER759  ASP760  ASP761  ALA762  ILE779  LEU786  VAL792 
 PHE793  MET794  SER795  GLU796  ALA797  LYS798  CYS799  TRP800  GLU811  SER814 

> <Gold.Protein.RotatedAtoms>
  152.4556  134.5299  159.9807 H   0  0  0  0  0  0  0  0  0  0  0  0  # atno 6907 bound_to 6896
  151.5360  133.3435  159.2934 H   0  0  0  0  0  0  0  0  0  0  0  0  # atno 6908 bound_to 6896
  150.8499  134.7851  159.7063 H   0  0  0  0  0  0  0  0  0  0  0  0  # atno 6909 bound_to 6896
  145.8730  139.3391  143.0751 H   0  0  0  0  0  0  0  0  0  0  0  0  # atno 7974 bound_to 7965
  155.5323  140.3482  155.4429 H   0  0  0  0  0  0  0  0  0  0  0  0  # atno 8008 bound_to 7997
  156.0709  140.1363  156.9856 H   0  0  0  0  0  0  0  0  0  0  0  0  # atno 8009 bound_to 7997
  154.4528  140.0966  156.6643 H   0  0  0  0  0  0  0  0  0  0  0  0  # atno 8010 bound_to 7997
  140.7267  143.4833  151.0088 H   0  0  0  0  0  0  0  0  0  0  0  0  # atno 10167 bound_to 10162
  156.3404  130.4292  149.7793 H   0  0  0  0  0  0  0  0  0  0  0  0  # atno 10718 bound_to 10713
  154.6134  135.5478  153.7497 H   0  0  0  0  0  0  0  0  0  0  0  0  # atno 10763 bound_to 10752
  153.0205  135.6395  154.1545 H   0  0  0  0  0  0  0  0  0  0  0  0  # atno 10764 bound_to 10752
  154.1482  135.2904  155.3122 H   0  0  0  0  0  0  0  0  0  0  0  0  # atno 10765 bound_to 10752
  140.0128  134.9431  157.0314 H   0  0  0  0  0  0  0  0  0  0  0  0  # atno 11005 bound_to 11000
  145.9114  140.9177  143.0452 LP  0  0  0  0  0  0  0  0  0  0  0  0  # atno 17320 bound_to 7965
  144.6726  140.1165  143.7452 LP  0  0  0  0  0  0  0  0  0  0  0  0  # atno 17321 bound_to 7965
  139.8533  143.7409  152.3177 LP  0  0  0  0  0  0  0  0  0  0  0  0  # atno 17342 bound_to 10162
  139.7599  144.7509  151.0379 LP  0  0  0  0  0  0  0  0  0  0  0  0  # atno 17343 bound_to 10162
  156.5031  130.8138  151.3140 LP  0  0  0  0  0  0  0  0  0  0  0  0  # atno 17370 bound_to 10713
  157.7446  130.9938  150.2685 LP  0  0  0  0  0  0  0  0  0  0  0  0  # atno 17371 bound_to 10713
  140.4523  134.1569  155.7183 LP  0  0  0  0  0  0  0  0  0  0  0  0  # atno 17394 bound_to 11000
  141.1723  133.8584  157.1533 LP  0  0  0  0  0  0  0  0  0  0  0  0  # atno 17395 bound_to 11000

$$$$
