AV-unprocessed.smi:3094|AV-procd|sdf|11789|dock6
  -GOLD-   2272017163D 1   1.00000     0.00000
 Structure written by MMmdl.
 30 31  0  0  0  0  0  0  0  0  2 V2000
  148.8630  141.3213  155.6338 C   0  0  0  0  0  0  0  0  0  0  0  0
  150.1192  141.2708  156.5138 C   0  0  1  0  0  0  0  0  0  0  0  0
  151.3263  140.7081  155.7324 C   0  0  0  0  0  0  0  0  0  0  0  0
  151.0929  139.3554  155.2155 N   0  0  0  0  0  0  0  0  0  0  0  0
  151.6140  138.1820  155.6971 C   0  0  0  0  0  0  0  0  0  0  0  0
  151.1331  137.1815  154.8923 C   0  0  0  0  0  0  0  0  0  0  0  0
  150.3355  137.7854  153.9576 N   0  3  0  0  0  0  0  0  0  0  0  0
  150.3079  139.1066  154.1590 C   0  0  0  0  0  0  0  0  0  0  0  0
  150.3952  142.6161  157.0175 N   0  0  0  0  0  0  0  0  0  0  0  0
  150.8466  142.9195  158.2450 C   0  0  0  0  0  0  0  0  0  0  0  0
  151.0994  142.0673  159.0980 O   0  0  0  0  0  0  0  0  0  0  0  0
  151.0346  144.3825  158.4765 C   0  0  0  0  0  0  0  0  0  0  0  0
  152.4553  144.8901  158.6133 C   0  0  0  0  0  0  0  0  0  0  0  0
  151.5634  144.8206  159.8270 C   0  0  0  0  0  0  0  0  0  0  0  0
  148.5988  140.3280  155.2699 H   0  0  0  0  0  0  0  0  0  0  0  0
  149.0101  141.9653  154.7659 H   0  0  0  0  0  0  0  0  0  0  0  0
  148.0070  141.7035  156.1912 H   0  0  0  0  0  0  0  0  0  0  0  0
  149.8979  140.6042  157.3496 H   0  0  0  0  0  0  0  0  0  0  0  0
  151.5465  141.3416  154.8720 H   0  0  0  0  0  0  0  0  0  0  0  0
  152.2242  140.6974  156.3528 H   0  0  0  0  0  0  0  0  0  0  0  0
  152.2769  138.1481  156.5495 H   0  0  0  0  0  0  0  0  0  0  0  0
  151.2955  136.1139  154.9136 H   0  0  0  0  0  0  0  0  0  0  0  0
  149.7689  139.8308  153.5744 H   0  0  0  0  0  0  0  0  0  0  0  0
  150.2146  143.3811  156.3831 H   0  0  0  0  0  0  0  0  0  0  0  0
  150.3246  145.0487  157.9884 H   0  0  0  0  0  0  0  0  0  0  0  0
  153.2721  144.1730  158.5507 H   0  0  0  0  0  0  0  0  0  0  0  0
  152.6716  145.8706  158.1944 H   0  0  0  0  0  0  0  0  0  0  0  0
  151.1756  145.7540  160.2299 H   0  0  0  0  0  0  0  0  0  0  0  0
  151.7891  144.0584  160.5708 H   0  0  0  0  0  0  0  0  0  0  0  0
  149.8398  137.3042  153.2175 H   0  0  0  0  0  0  0  0  0  0  0  0
  1  2  1  0  0  0  0
  1 15  1  0  0  0  0
  1 16  1  0  0  0  0
  1 17  1  0  0  0  0
  2  3  1  0  0  0  0
  2  9  1  0  0  0  0
  2 18  1  0  0  0  0
  3  4  1  0  0  0  0
  3 19  1  0  0  0  0
  3 20  1  0  0  0  0
  4  8  1  0  0  0  0
  4  5  1  0  0  0  0
  5  6  2  0  0  0  0
  5 21  1  0  0  0  0
  6  7  1  0  0  0  0
  6 22  1  0  0  0  0
  7  8  2  0  0  0  0
  7 30  1  0  0  0  0
  8 23  1  0  0  0  0
  9 10  1  0  0  0  0
  9 24  1  0  0  0  0
 10 11  2  0  0  0  0
 10 12  1  0  0  0  0
 12 14  1  0  0  0  0
 12 13  1  0  0  0  0
 12 25  1  0  0  0  0
 13 14  1  0  0  0  0
 13 26  1  0  0  0  0
 13 27  1  0  0  0  0
 14 28  1  0  0  0  0
 14 29  1  0  0  0  0
M  CHG  1   7   1
M  END
> <s_m_source_file>
AV-unprocessed.smi

> <i_m_source_file_index>
3094

> <i_lp_mmshare_version>
43012

> <i_f3d_flags>
0

> <s_epik_input>
W0NIMl0xW0NIMl1bQ0hdMUMoPU8pW05IXVtDQEhdKFtDSDNdKVtDSDJdbjJbY0hdW2NIXW5bY0hdMg==

> <s_epik_cmdline>
J2VwaWtfcHl0aG9uJywgJy1waCcsICc3LjAnLCAnLXRuJywgJzgnLCAnLW1hJywgJzIwMCcsICctbWV0YWxfYmluZGluZycsICctaW1hZScsICc8aW5maWxlLm1hZT4nLCAnLW9tYWUnLCAnPG91dGZpbGUubWFlPic=

> <r_lp_tautomer_probability>
1

> <r_epik_Ionization_Penalty>
0.244425

> <r_epik_Ionization_Penalty_Charging>
0

> <r_epik_Ionization_Penalty_Neutral>
0.244425

> <r_epik_State_Penalty>
0.23553

> <r_epik_Charging_Adjusted_Penalty>
0.23553

> <i_epik_Tot_Q>
1

> <i_epik_Tot_abs_Q>
1

> <r_epik_Metal_State_Penalty>
0.528799

> <b_epik_Metal_Only>
0

> <s_lp_Force_Field>
OPLS_2005

> <r_lp_Energy>
8.84251

> <b_lp_Chiralities_Consistent>
1

> <s_lp_Variant>
AV-unprocessed.smi:3094-2

> <Gold.Version>
5.8.1

> <Gold.Id.Protein>
6NUR|6NUR_protein|mol2

> <Gold.PLP.Fitness>
43.7049

> <Gold.PLP.PLP>
-32.9523

> <Gold.PLP.part.hbond>
-2.5547

> <Gold.PLP.part.metal>
0.0000

> <Gold.PLP.part.buried>
-3.3723

> <Gold.PLP.part.nonpolar>
-27.4263

> <Gold.PLP.part.repulsive>
0.0896

> <Gold.PLP.ligand.clash>
0.0000

> <Gold.PLP.ligand.torsion>
0.5838

> <Gold.PLP.Chemscore.Hbond>
2.9920

> <Gold.PLP.Chemscore.CHOScore>
0.9548

> <Gold.PLP.Chemscore.Metal>
0.0000

> <Gold.Chemscore.Hbonds>
donor molecule, donor type, donor heavy atom, donor atom, acceptor molecule, acceptor atom, score
      L1  H     7    30       P1  7948  2.00
      L1  H     9    24       P1  8028  0.96
      L1  C     8    23       P1  7957  0.98

> <Gold.PLP.Chemscore.Internal.Correction>
0.0797

> <Gold.Rescore>
     Score         DG    S(hbond)    S(metal)    S(lipo)     H(rot)  DE(clash)    DE(int)     intcor
     14.30     -15.10       1.89        0.00      69.81       1.90       0.05       0.75       ----

> <Gold.Chemscore.Fitness>
14.3027

> <Gold.Chemscore.DG>
-15.1039

> <Gold.Chemscore.ZeroCoef>
-5.4800

> <Gold.Chemscore.Hbond>
1.8938

> <Gold.Chemscore.Metal>
0.0000

> <Gold.Chemscore.Lipo>
69.8073

> <Gold.Chemscore.Internal_Hbond>
0.0000

> <Gold.Chemscore.DEClash>
0.0515

> <Gold.Chemscore.DEInternal>
0.7497

> <Gold.Chemscore.Rot>
1.9019

> <Gold.Chemscore.Internal.Correction>
   9.000000E+99

> <Gold.Chemscore.Hbonds>
donor molecule, donor type, donor heavy atom, donor atom, acceptor molecule, acceptor atom, score
      L1  H     7    30       P1  7948  0.45
      L1  H     9    24       P1  8028  0.87

> <Gold.Chemscore.Hbond.Weighted>
-6.3254

> <Gold.Chemscore.Metal.Weighted>
-0.0000

> <Gold.Chemscore.Lipo.Weighted>
-8.1675

> <Gold.Chemscore.Internal_Hbond.Weighted>
0.0000

> <Gold.Chemscore.DEClash.Weighted>
0.0515

> <Gold.Chemscore.DEInternal.Weighted>
0.7497

> <Gold.Chemscore.Rot.Weighted>
4.8689

> <Gold.Chemscore.Internal.Correction.Weighted>
   9.000000E+99

> <Gold.Protein.RotatedTorsions>
[ 6907 6896 6895 6894 ] final  116.19 input  -60.11 | X-H torsion
[ 7974 7965 7964 7962 ] final  -56.89 input  175.53 | X-H torsion
[ 8008 7997 7996 7995 ] final -148.70 input   59.86 | X-H torsion
[ 10167 10162 10161 10158 ] final  -42.33 input  -65.29 | X-H torsion
[ 10718 10713 10712 10709 ] final -117.64 input   66.30 | X-H torsion
[ 10763 10752 10751 10750 ] final    8.20 input  -60.55 | X-H torsion
[ 11005 11000 10999 10996 ] final   43.81 input  -57.11 | X-H torsion

> <Gold.Protein.ActiveResidues>
 VAL166  LYS551  ARG553  GLY616  TRP617  ASP618  TYR619  PRO620  LYS621  CYS622 
 ASP623  PHE694  ASN695  SER759  ASP760  ASP761  ALA762  ILE779  LEU786  VAL792 
 PHE793  MET794  SER795  GLU796  ALA797  LYS798  CYS799  TRP800  GLU811  SER814 

> <Gold.Protein.RotatedAtoms>
  152.4694  133.7995  159.6944 H   0  0  0  0  0  0  0  0  0  0  0  0  # atno 6907 bound_to 6896
  150.8675  133.7544  159.2978 H   0  0  0  0  0  0  0  0  0  0  0  0  # atno 6908 bound_to 6896
  151.5090  135.1067  159.9901 H   0  0  0  0  0  0  0  0  0  0  0  0  # atno 6909 bound_to 6896
  145.8574  140.8309  142.9954 H   0  0  0  0  0  0  0  0  0  0  0  0  # atno 7974 bound_to 7965
  155.5959  140.0657  157.2746 H   0  0  0  0  0  0  0  0  0  0  0  0  # atno 8008 bound_to 7997
  154.4292  140.1827  156.1169 H   0  0  0  0  0  0  0  0  0  0  0  0  # atno 8009 bound_to 7997
  156.0197  140.3318  155.7029 H   0  0  0  0  0  0  0  0  0  0  0  0  # atno 8010 bound_to 7997
  140.6973  143.3044  151.3194 H   0  0  0  0  0  0  0  0  0  0  0  0  # atno 10167 bound_to 10162
  156.1048  130.6202  150.9190 H   0  0  0  0  0  0  0  0  0  0  0  0  # atno 10718 bound_to 10713
  153.2277  135.6889  153.7925 H   0  0  0  0  0  0  0  0  0  0  0  0  # atno 10763 bound_to 10752
  153.7101  135.3283  155.3245 H   0  0  0  0  0  0  0  0  0  0  0  0  # atno 10764 bound_to 10752
  154.8300  135.4588  154.1151 H   0  0  0  0  0  0  0  0  0  0  0  0  # atno 10765 bound_to 10752
  140.1610  134.4341  155.8318 H   0  0  0  0  0  0  0  0  0  0  0  0  # atno 11005 bound_to 11000
  144.6727  140.1044  143.7459 LP  0  0  0  0  0  0  0  0  0  0  0  0  # atno 17320 bound_to 7965
  145.9287  139.2592  143.1338 LP  0  0  0  0  0  0  0  0  0  0  0  0  # atno 17321 bound_to 7965
  139.6444  144.0479  152.2579 LP  0  0  0  0  0  0  0  0  0  0  0  0  # atno 17342 bound_to 10162
  139.9995  144.6303  150.7742 LP  0  0  0  0  0  0  0  0  0  0  0  0  # atno 17343 bound_to 10162
  157.6224  131.0928  150.8598 LP  0  0  0  0  0  0  0  0  0  0  0  0  # atno 17370 bound_to 10713
  156.8719  130.5149  149.5296 LP  0  0  0  0  0  0  0  0  0  0  0  0  # atno 17371 bound_to 10713
  141.2209  133.6913  156.7593 LP  0  0  0  0  0  0  0  0  0  0  0  0  # atno 17394 bound_to 11000
  140.2490  134.8555  157.3648 LP  0  0  0  0  0  0  0  0  0  0  0  0  # atno 17395 bound_to 11000

$$$$
