AV-unprocessed.smi:1050|AV-procd|sdf|4612|dock9
  -GOLD-   22720 3113D 1   1.00000     0.00000
 Structure written by MMmdl.
 48 49  0  0  0  0  0  0  0  0  1 V2000
  152.3953  144.1069  158.3034 C   0  0  0  0  0  0  0  0  0  0  0  0
  152.7969  142.9574  159.0409 O   0  0  0  0  0  0  0  0  0  0  0  0
  152.2400  141.7397  158.7077 C   0  0  0  0  0  0  0  0  0  0  0  0
  152.7088  140.5819  159.3539 C   0  0  0  0  0  0  0  0  0  0  0  0
  152.1415  139.3404  159.0151 C   0  0  0  0  0  0  0  0  0  0  0  0
  151.1103  139.2907  158.0458 C   0  0  0  0  0  0  0  0  0  0  0  0
  150.5074  138.0732  157.6148 N   0  0  0  0  0  0  0  0  0  0  0  0
  150.2844  136.9424  158.3089 C   0  0  0  0  0  0  0  0  0  0  0  0
  150.5935  136.7718  159.4879 O   0  0  0  0  0  0  0  0  0  0  0  0
  149.5805  135.8166  157.5320 C   0  0  2  0  0  0  0  0  0  0  0  0
  148.2521  135.4178  158.1931 C   0  0  0  0  0  0  0  0  0  0  0  0
  150.4042  134.6544  157.4821 O   0  0  0  0  0  0  0  0  0  0  0  0
  149.9844  133.6505  156.5664 C   0  0  0  0  0  0  0  0  0  0  0  0
  150.7120  140.5100  157.4364 C   0  0  0  0  0  0  0  0  0  0  0  0
  149.6952  140.5236  156.4618 N   0  0  0  0  0  0  0  0  0  0  0  0
  149.8773  141.4409  155.3351 C   0  0  0  0  0  0  0  0  0  0  0  0
  148.8075  141.1882  154.2572 C   0  0  0  0  0  0  0  0  0  0  0  0
  147.4810  141.2953  154.8790 N   0  0  0  0  0  0  0  0  0  0  0  0
  146.5803  142.2795  154.6465 C   0  0  0  0  0  0  0  0  0  0  0  0
  145.2695  142.2950  155.4359 C   0  0  0  0  0  0  0  0  0  0  0  0
  146.7687  143.1715  153.8196 O   0  0  0  0  0  0  0  0  0  0  0  0
  147.2955  140.2713  155.9158 C   0  0  0  0  0  0  0  0  0  0  0  0
  148.3451  140.4828  157.0246 C   0  0  0  0  0  0  0  0  0  0  0  0
  151.2660  141.7006  157.7678 N   0  0  0  0  0  0  0  0  0  0  0  0
  152.9184  144.9827  158.6869 H   0  0  0  0  0  0  0  0  0  0  0  0
  151.3246  144.2909  158.4034 H   0  0  0  0  0  0  0  0  0  0  0  0
  152.6445  144.0095  157.2455 H   0  0  0  0  0  0  0  0  0  0  0  0
  153.4950  140.6430  160.0919 H   0  0  0  0  0  0  0  0  0  0  0  0
  152.5229  138.4524  159.4939 H   0  0  0  0  0  0  0  0  0  0  0  0
  150.1305  138.0924  156.6780 H   0  0  0  0  0  0  0  0  0  0  0  0
  149.3644  136.1507  156.5152 H   0  0  0  0  0  0  0  0  0  0  0  0
  147.5785  136.2717  158.2747 H   0  0  0  0  0  0  0  0  0  0  0  0
  148.4054  135.0134  159.1946 H   0  0  0  0  0  0  0  0  0  0  0  0
  147.7434  134.6529  157.6059 H   0  0  0  0  0  0  0  0  0  0  0  0
  150.6329  132.7801  156.6637 H   0  0  0  0  0  0  0  0  0  0  0  0
  150.0413  133.9878  155.5311 H   0  0  0  0  0  0  0  0  0  0  0  0
  148.9629  133.3299  156.7748 H   0  0  0  0  0  0  0  0  0  0  0  0
  149.8102  142.4726  155.6838 H   0  0  0  0  0  0  0  0  0  0  0  0
  150.8731  141.3067  154.9111 H   0  0  0  0  0  0  0  0  0  0  0  0
  148.9584  141.8689  153.4209 H   0  0  0  0  0  0  0  0  0  0  0  0
  148.9261  140.1857  153.8428 H   0  0  0  0  0  0  0  0  0  0  0  0
  144.7086  141.3739  155.2740 H   0  0  0  0  0  0  0  0  0  0  0  0
  144.6395  143.1270  155.1192 H   0  0  0  0  0  0  0  0  0  0  0  0
  145.4626  142.4112  156.5025 H   0  0  0  0  0  0  0  0  0  0  0  0
  146.2947  140.2816  156.3493 H   0  0  0  0  0  0  0  0  0  0  0  0
  147.4168  139.2834  155.4690 H   0  0  0  0  0  0  0  0  0  0  0  0
  148.2616  139.6873  157.7653 H   0  0  0  0  0  0  0  0  0  0  0  0
  148.1510  141.4207  157.5468 H   0  0  0  0  0  0  0  0  0  0  0  0
  1  2  1  0  0  0  0
  1 25  1  0  0  0  0
  1 26  1  0  0  0  0
  1 27  1  0  0  0  0
  2  3  1  0  0  0  0
  3 24  1  0  0  0  0
  3  4  2  0  0  0  0
  4  5  1  0  0  0  0
  4 28  1  0  0  0  0
  5  6  2  0  0  0  0
  5 29  1  0  0  0  0
  6  7  1  0  0  0  0
  6 14  1  0  0  0  0
  7  8  1  0  0  0  0
  7 30  1  0  0  0  0
  8  9  2  0  0  0  0
  8 10  1  0  0  0  0
 10 11  1  0  0  0  0
 10 12  1  0  0  0  0
 10 31  1  0  0  0  0
 11 32  1  0  0  0  0
 11 33  1  0  0  0  0
 11 34  1  0  0  0  0
 12 13  1  0  0  0  0
 13 35  1  0  0  0  0
 13 36  1  0  0  0  0
 13 37  1  0  0  0  0
 14 15  1  0  0  0  0
 14 24  2  0  0  0  0
 15 23  1  0  0  0  0
 15 16  1  0  0  0  0
 16 17  1  0  0  0  0
 16 38  1  0  0  0  0
 16 39  1  0  0  0  0
 17 18  1  0  0  0  0
 17 40  1  0  0  0  0
 17 41  1  0  0  0  0
 18 19  1  0  0  0  0
 18 22  1  0  0  0  0
 19 20  1  0  0  0  0
 19 21  2  0  0  0  0
 20 42  1  0  0  0  0
 20 43  1  0  0  0  0
 20 44  1  0  0  0  0
 22 23  1  0  0  0  0
 22 45  1  0  0  0  0
 22 46  1  0  0  0  0
 23 47  1  0  0  0  0
 23 48  1  0  0  0  0
M  END
> <s_m_source_file>
AV-unprocessed.smi

> <i_m_source_file_index>
1050

> <i_lp_mmshare_version>
43012

> <i_f3d_flags>
0

> <s_epik_input>
W0NIM11PYzFbY0hdW2NIXWMoW05IXUMoPU8pW0NASF0oW0NIM10pT1tDSDNdKWMobjEpTjJbQ0gyXVtDSDJdTihDKD1PKVtDSDNdKVtDSDJdW0NIMl0y

> <s_epik_cmdline>
J2VwaWtfcHl0aG9uJywgJy1waCcsICc3LjAnLCAnLXRuJywgJzgnLCAnLW1hJywgJzIwMCcsICctbWV0YWxfYmluZGluZycsICctaW1hZScsICc8aW5maWxlLm1hZT4nLCAnLW9tYWUnLCAnPG91dGZpbGUubWFlPic=

> <r_lp_tautomer_probability>
1

> <r_epik_Ionization_Penalty>
0.000150604

> <r_epik_Ionization_Penalty_Charging>
0

> <r_epik_Ionization_Penalty_Neutral>
0.000150604

> <r_epik_State_Penalty>
-0

> <r_epik_Charging_Adjusted_Penalty>
0

> <i_epik_Tot_Q>
0

> <i_epik_Tot_abs_Q>
0

> <r_epik_Metal_State_Penalty>
-0

> <b_epik_Metal_Only>
0

> <s_lp_Force_Field>
OPLS_2005

> <r_lp_Energy>
41.1233

> <b_lp_Chiralities_Consistent>
1

> <s_lp_Variant>
AV-unprocessed.smi:1050-1

> <Gold.Version>
5.8.1

> <Gold.Id.Protein>
6NUR|6NUR_protein|mol2

> <Gold.PLP.Fitness>
36.3391

> <Gold.PLP.PLP>
-33.8536

> <Gold.PLP.part.hbond>
-3.0000

> <Gold.PLP.part.metal>
0.0000

> <Gold.PLP.part.buried>
-5.7079

> <Gold.PLP.part.nonpolar>
-26.9153

> <Gold.PLP.part.repulsive>
0.3053

> <Gold.PLP.ligand.clash>
0.0000

> <Gold.PLP.ligand.torsion>
0.8924

> <Gold.PLP.Chemscore.Hbond>
1.3089

> <Gold.PLP.Chemscore.CHOScore>
0.0000

> <Gold.PLP.Chemscore.Metal>
0.0000

> <Gold.Chemscore.Hbonds>
donor molecule, donor type, donor heavy atom, donor atom, acceptor molecule, acceptor atom, score
      P1  H  6896  6907       L1     9  1.00
      P1  H  6896  6909       L1    12  0.26
      P1  H  8022  8030       L1    21  0.03

> <Gold.PLP.Chemscore.Internal.Correction>
0.3437

> <Gold.Rescore>
     Score         DG    S(hbond)    S(metal)    S(lipo)     H(rot)  DE(clash)    DE(int)     intcor
     10.46     -11.98       0.99        0.00      64.64       1.71       0.00       1.52       ----

> <Gold.Chemscore.Fitness>
10.4565

> <Gold.Chemscore.DG>
-11.9793

> <Gold.Chemscore.ZeroCoef>
-5.4800

> <Gold.Chemscore.Hbond>
0.9928

> <Gold.Chemscore.Metal>
0.0000

> <Gold.Chemscore.Lipo>
64.6366

> <Gold.Chemscore.Internal_Hbond>
0.0000

> <Gold.Chemscore.DEClash>
0.0000

> <Gold.Chemscore.DEInternal>
1.5228

> <Gold.Chemscore.Rot>
1.7106

> <Gold.Chemscore.Internal.Correction>
   9.000000E+99

> <Gold.Chemscore.Hbonds>
donor molecule, donor type, donor heavy atom, donor atom, acceptor molecule, acceptor atom, score
      P1  H  6896  6907       L1     9  0.93
      P1  H  6896  6909       L1    12  0.13
      P1  H  8022  8030       L1    21  0.04

> <Gold.Chemscore.Hbond.Weighted>
-3.3158

> <Gold.Chemscore.Metal.Weighted>
-0.0000

> <Gold.Chemscore.Lipo.Weighted>
-7.5625

> <Gold.Chemscore.Internal_Hbond.Weighted>
0.0000

> <Gold.Chemscore.DEClash.Weighted>
0.0000

> <Gold.Chemscore.DEInternal.Weighted>
1.5228

> <Gold.Chemscore.Rot.Weighted>
4.3790

> <Gold.Chemscore.Internal.Correction.Weighted>
   9.000000E+99

> <Gold.Protein.RotatedTorsions>
[ 6907 6896 6895 6894 ] final  -19.16 input  -60.11 | X-H torsion
[ 7974 7965 7964 7962 ] final   65.31 input  175.53 | X-H torsion
[ 8008 7997 7996 7995 ] final -111.98 input   59.86 | X-H torsion
[ 10167 10162 10161 10158 ] final  155.12 input  -65.29 | X-H torsion
[ 10718 10713 10712 10709 ] final  -12.08 input   66.30 | X-H torsion
[ 10763 10752 10751 10750 ] final   27.65 input  -60.55 | X-H torsion
[ 11005 11000 10999 10996 ] final -145.43 input  -57.11 | X-H torsion

> <Gold.Protein.ActiveResidues>
 VAL166  LYS551  ARG553  GLY616  TRP617  ASP618  TYR619  PRO620  LYS621  CYS622 
 ASP623  PHE694  ASN695  SER759  ASP760  ASP761  ALA762  ILE779  LEU786  VAL792 
 PHE793  MET794  SER795  GLU796  ALA797  LYS798  CYS799  TRP800  GLU811  SER814 

> <Gold.Protein.RotatedAtoms>
  151.2673  135.0673  159.9120 H   0  0  0  0  0  0  0  0  0  0  0  0  # atno 6907 bound_to 6896
  152.5356  134.0167  159.7973 H   0  0  0  0  0  0  0  0  0  0  0  0  # atno 6908 bound_to 6896
  151.0400  133.5665  159.2683 H   0  0  0  0  0  0  0  0  0  0  0  0  # atno 6909 bound_to 6896
  145.8400  139.3189  143.0937 H   0  0  0  0  0  0  0  0  0  0  0  0  # atno 7974 bound_to 7965
  154.9982  140.0394  157.2349 H   0  0  0  0  0  0  0  0  0  0  0  0  # atno 8008 bound_to 7997
  154.7567  140.2777  155.6224 H   0  0  0  0  0  0  0  0  0  0  0  0  # atno 8009 bound_to 7997
  156.2896  140.2636  156.2335 H   0  0  0  0  0  0  0  0  0  0  0  0  # atno 8010 bound_to 7997
  139.4822  144.5127  151.8000 H   0  0  0  0  0  0  0  0  0  0  0  0  # atno 10167 bound_to 10162
  156.6497  130.4951  149.6066 H   0  0  0  0  0  0  0  0  0  0  0  0  # atno 10718 bound_to 10713
  153.0542  135.6532  154.0618 H   0  0  0  0  0  0  0  0  0  0  0  0  # atno 10763 bound_to 10752
  154.0300  135.2912  155.3371 H   0  0  0  0  0  0  0  0  0  0  0  0  # atno 10764 bound_to 10752
  154.6848  135.5306  153.8379 H   0  0  0  0  0  0  0  0  0  0  0  0  # atno 10765 bound_to 10752
  140.7924  134.2953  157.5009 H   0  0  0  0  0  0  0  0  0  0  0  0  # atno 11005 bound_to 11000
  145.9476  140.8933  143.0275 LP  0  0  0  0  0  0  0  0  0  0  0  0  # atno 17320 bound_to 7965
  144.6734  140.1635  143.7420 LP  0  0  0  0  0  0  0  0  0  0  0  0  # atno 17321 bound_to 7965
  140.4632  144.1693  150.5908 LP  0  0  0  0  0  0  0  0  0  0  0  0  # atno 17342 bound_to 10162
  140.4462  143.2505  151.9407 LP  0  0  0  0  0  0  0  0  0  0  0  0  # atno 17343 bound_to 10162
  156.2094  130.6669  151.1253 LP  0  0  0  0  0  0  0  0  0  0  0  0  # atno 17370 bound_to 10713
  157.7145  131.0717  150.6379 LP  0  0  0  0  0  0  0  0  0  0  0  0  # atno 17371 bound_to 10713
  139.8730  134.9382  156.3708 LP  0  0  0  0  0  0  0  0  0  0  0  0  # atno 17394 bound_to 11000
  140.9376  133.7536  156.0105 LP  0  0  0  0  0  0  0  0  0  0  0  0  # atno 17395 bound_to 11000

$$$$
