AV-unprocessed.smi:3093|AV-procd|sdf|11786|dock5
  -GOLD-   2272017163D 1   1.00000     0.00000
 Structure written by MMmdl.
 25 26  0  0  0  0  0  0  0  0  2 V2000
  148.7276  141.0976  154.8127 C   0  0  0  0  0  0  0  0  0  0  0  0
  149.8029  140.1932  154.5891 C   0  0  0  0  0  0  0  0  0  0  0  0
  150.7527  140.2956  155.5048 N   0  0  0  0  0  0  0  0  0  0  0  0
  150.3236  141.2725  156.3338 N   0  0  0  0  0  0  0  0  0  0  0  0
  151.1165  141.6447  157.4936 C   0  0  0  0  0  0  0  0  0  0  0  0
  151.4050  143.1569  157.5722 C   0  0  2  0  0  0  0  0  0  0  0  0
  152.5340  143.5173  158.5402 C   0  0  0  0  0  0  0  0  0  0  0  0
  152.2384  144.9739  158.8777 C   0  0  0  0  0  0  0  0  0  0  0  0
  150.7087  145.0294  158.9032 C   0  0  0  0  0  0  0  0  0  0  0  0
  150.2353  143.9325  158.0346 N   0  3  0  0  0  0  0  0  0  0  0  0
  149.0949  141.7651  155.9459 C   0  0  0  0  0  0  0  0  0  0  0  0
  147.8247  141.2298  154.2350 H   0  0  0  0  0  0  0  0  0  0  0  0
  149.9192  139.4684  153.7968 H   0  0  0  0  0  0  0  0  0  0  0  0
  150.5934  141.3125  158.3915 H   0  0  0  0  0  0  0  0  0  0  0  0
  152.0534  141.0878  157.4534 H   0  0  0  0  0  0  0  0  0  0  0  0
  151.6747  143.5386  156.5860 H   0  0  0  0  0  0  0  0  0  0  0  0
  152.4718  142.9101  159.4447 H   0  0  0  0  0  0  0  0  0  0  0  0
  153.5243  143.3754  158.1062 H   0  0  0  0  0  0  0  0  0  0  0  0
  152.6904  145.2936  159.8171 H   0  0  0  0  0  0  0  0  0  0  0  0
  152.6195  145.6192  158.0851 H   0  0  0  0  0  0  0  0  0  0  0  0
  150.3381  144.8516  159.9132 H   0  0  0  0  0  0  0  0  0  0  0  0
  150.3263  145.9941  158.5688 H   0  0  0  0  0  0  0  0  0  0  0  0
  149.7295  144.2960  157.2393 H   0  0  0  0  0  0  0  0  0  0  0  0
  148.5885  142.5413  156.5009 H   0  0  0  0  0  0  0  0  0  0  0  0
  149.6283  143.3331  158.5751 H   0  0  0  0  0  0  0  0  0  0  0  0
  1 11  2  0  0  0  0
  1  2  1  0  0  0  0
  1 12  1  0  0  0  0
  2  3  2  0  0  0  0
  2 13  1  0  0  0  0
  3  4  1  0  0  0  0
  4  5  1  0  0  0  0
  4 11  1  0  0  0  0
  5  6  1  0  0  0  0
  5 14  1  0  0  0  0
  5 15  1  0  0  0  0
  6 10  1  0  0  0  0
  6  7  1  0  0  0  0
  6 16  1  0  0  0  0
  7  8  1  0  0  0  0
  7 17  1  0  0  0  0
  7 18  1  0  0  0  0
  8  9  1  0  0  0  0
  8 19  1  0  0  0  0
  8 20  1  0  0  0  0
  9 10  1  0  0  0  0
  9 21  1  0  0  0  0
  9 22  1  0  0  0  0
 10 23  1  0  0  0  0
 10 25  1  0  0  0  0
 11 24  1  0  0  0  0
M  CHG  1  10   1
M  END
> <s_m_source_file>
AV-unprocessed.smi

> <i_m_source_file_index>
3093

> <i_lp_mmshare_version>
43012

> <i_f3d_flags>
0

> <s_epik_input>
W2NIXTFbY0hdW2NIXW5uMVtDSDJdW0NAQEhdMltDSDJdW0NIMl1bQ0gyXVtOSF0y

> <s_epik_cmdline>
J2VwaWtfcHl0aG9uJywgJy1waCcsICc3LjAnLCAnLXRuJywgJzgnLCAnLW1hJywgJzIwMCcsICctbWV0YWxfYmluZGluZycsICctaW1hZScsICc8aW5maWxlLm1hZT4nLCAnLW9tYWUnLCAnPG91dGZpbGUubWFlPic=

> <r_lp_tautomer_probability>
1

> <r_epik_Ionization_Penalty>
0.000867737

> <r_epik_Ionization_Penalty_Charging>
0.000863359

> <r_epik_Ionization_Penalty_Neutral>
4.37747e-06

> <r_epik_State_Penalty>
0.000557253

> <r_epik_Charging_Adjusted_Penalty>
0.00142061

> <i_epik_Tot_Q>
1

> <i_epik_Tot_abs_Q>
1

> <r_epik_Metal_State_Penalty>
-0

> <b_epik_Metal_Only>
0

> <s_lp_Force_Field>
OPLS_2005

> <r_lp_Energy>
25.0009

> <b_lp_Chiralities_Consistent>
1

> <s_lp_Variant>
AV-unprocessed.smi:3093-1

> <Gold.Version>
5.8.1

> <Gold.Id.Protein>
6NUR|6NUR_protein|mol2

> <Gold.PLP.Fitness>
37.5913

> <Gold.PLP.PLP>
-27.0143

> <Gold.PLP.part.hbond>
-2.3997

> <Gold.PLP.part.metal>
0.0000

> <Gold.PLP.part.buried>
0.4495

> <Gold.PLP.part.nonpolar>
-25.1922

> <Gold.PLP.part.repulsive>
0.0688

> <Gold.PLP.ligand.clash>
0.0000

> <Gold.PLP.ligand.torsion>
0.1667

> <Gold.PLP.Chemscore.Hbond>
2.0000

> <Gold.PLP.Chemscore.CHOScore>
1.6357

> <Gold.PLP.Chemscore.Metal>
0.0000

> <Gold.Chemscore.Hbonds>
donor molecule, donor type, donor heavy atom, donor atom, acceptor molecule, acceptor atom, score
      L1  H    10    23       P1  8028  2.00
      L1  C     2    13       P1  7957  0.49
      L1  C    11    24       P1  8028  0.71

> <Gold.PLP.Chemscore.Internal.Correction>
0.0034

> <Gold.Rescore>
     Score         DG    S(hbond)    S(metal)    S(lipo)     H(rot)  DE(clash)    DE(int)     intcor
     14.11     -14.29       0.97        0.00      73.90       1.21       0.11       0.07       ----

> <Gold.Chemscore.Fitness>
14.1085

> <Gold.Chemscore.DG>
-14.2897

> <Gold.Chemscore.ZeroCoef>
-5.4800

> <Gold.Chemscore.Hbond>
0.9730

> <Gold.Chemscore.Metal>
0.0000

> <Gold.Chemscore.Lipo>
73.9002

> <Gold.Chemscore.Internal_Hbond>
0.0000

> <Gold.Chemscore.DEClash>
0.1071

> <Gold.Chemscore.DEInternal>
0.0740

> <Gold.Chemscore.Rot>
1.2056

> <Gold.Chemscore.Internal.Correction>
   9.000000E+99

> <Gold.Chemscore.Hbonds>
donor molecule, donor type, donor heavy atom, donor atom, acceptor molecule, acceptor atom, score
      L1  H    10    23       P1  8028  0.35

> <Gold.Chemscore.Hbond.Weighted>
-3.2498

> <Gold.Chemscore.Metal.Weighted>
-0.0000

> <Gold.Chemscore.Lipo.Weighted>
-8.6463

> <Gold.Chemscore.Internal_Hbond.Weighted>
0.0000

> <Gold.Chemscore.DEClash.Weighted>
0.1071

> <Gold.Chemscore.DEInternal.Weighted>
0.0740

> <Gold.Chemscore.Rot.Weighted>
3.0864

> <Gold.Chemscore.Internal.Correction.Weighted>
   9.000000E+99

> <Gold.Protein.RotatedTorsions>
[ 6907 6896 6895 6894 ] final  -58.05 input  -60.11 | X-H torsion
[ 7974 7965 7964 7962 ] final  161.10 input  175.53 | X-H torsion
[ 8008 7997 7996 7995 ] final  102.85 input   59.86 | X-H torsion
[ 10167 10162 10161 10158 ] final  141.77 input  -65.29 | X-H torsion
[ 10718 10713 10712 10709 ] final  -14.84 input   66.30 | X-H torsion
[ 10763 10752 10751 10750 ] final  166.71 input  -60.55 | X-H torsion
[ 11005 11000 10999 10996 ] final  151.16 input  -57.11 | X-H torsion

> <Gold.Protein.ActiveResidues>
 VAL166  LYS551  ARG553  GLY616  TRP617  ASP618  TYR619  PRO620  LYS621  CYS622 
 ASP623  PHE694  ASN695  SER759  ASP760  ASP761  ALA762  ILE779  LEU786  VAL792 
 PHE793  MET794  SER795  GLU796  ALA797  LYS798  CYS799  TRP800  GLU811  SER814 

> <Gold.Protein.RotatedAtoms>
  150.8037  134.7148  159.6624 H   0  0  0  0  0  0  0  0  0  0  0  0  # atno 6907 bound_to 6896
  152.4155  134.6045  160.0019 H   0  0  0  0  0  0  0  0  0  0  0  0  # atno 6908 bound_to 6896
  151.6275  133.3297  159.3137 H   0  0  0  0  0  0  0  0  0  0  0  0  # atno 6909 bound_to 6896
  144.7703  139.7850  143.6299 H   0  0  0  0  0  0  0  0  0  0  0  0  # atno 7974 bound_to 7965
  156.1431  140.3174  155.8526 H   0  0  0  0  0  0  0  0  0  0  0  0  # atno 8008 bound_to 7997
  155.4117  140.0506  157.3048 H   0  0  0  0  0  0  0  0  0  0  0  0  # atno 8009 bound_to 7997
  154.4993  140.2123  155.9393 H   0  0  0  0  0  0  0  0  0  0  0  0  # atno 8010 bound_to 7997
  139.5011  144.6150  151.6185 H   0  0  0  0  0  0  0  0  0  0  0  0  # atno 10167 bound_to 10162
  156.6103  130.4847  149.6204 H   0  0  0  0  0  0  0  0  0  0  0  0  # atno 10718 bound_to 10713
  154.3431  135.2754  155.2412 H   0  0  0  0  0  0  0  0  0  0  0  0  # atno 10763 bound_to 10752
  154.4674  135.5891  153.6301 H   0  0  0  0  0  0  0  0  0  0  0  0  # atno 10764 bound_to 10752
  152.9856  135.6080  154.3634 H   0  0  0  0  0  0  0  0  0  0  0  0  # atno 10765 bound_to 10752
  140.1194  134.8873  157.2051 H   0  0  0  0  0  0  0  0  0  0  0  0  # atno 11005 bound_to 11000
  146.1844  139.5051  142.9846 LP  0  0  0  0  0  0  0  0  0  0  0  0  # atno 17320 bound_to 7965
  145.6345  141.0297  143.1845 LP  0  0  0  0  0  0  0  0  0  0  0  0  # atno 17321 bound_to 7965
  140.5835  143.9904  150.6282 LP  0  0  0  0  0  0  0  0  0  0  0  0  # atno 17342 bound_to 10162
  140.3061  143.3228  152.0924 LP  0  0  0  0  0  0  0  0  0  0  0  0  # atno 17343 bound_to 10162
  156.2396  130.6843  151.1542 LP  0  0  0  0  0  0  0  0  0  0  0  0  # atno 17370 bound_to 10713
  157.7256  131.0652  150.5946 LP  0  0  0  0  0  0  0  0  0  0  0  0  # atno 17371 bound_to 10713
  140.2985  134.3159  155.7296 LP  0  0  0  0  0  0  0  0  0  0  0  0  # atno 17394 bound_to 11000
  141.2148  133.7577  156.9606 LP  0  0  0  0  0  0  0  0  0  0  0  0  # atno 17395 bound_to 11000

$$$$
