AV-unprocessed.smi:212|AV-procd|sdf|1618|dock2
  -GOLD-   2262019543D 1   1.00000     0.00000
 Structure written by MMmdl.
 65 68  0  0  0  0  0  0  0  0  2 V2000
  146.1093  132.6223  155.7509 C   0  0  0  0  0  0  0  0  0  0  0  0
  147.2514  133.3214  154.9944 C   0  0  1  0  0  0  0  0  0  0  0  0
  147.2742  132.9457  153.4978 C   0  0  0  0  0  0  0  0  0  0  0  0
  146.1520  133.5811  152.7592 N   0  3  2  0  0  0  0  0  0  0  0  0
  146.0489  133.1370  151.3446 C   0  0  0  0  0  0  0  0  0  0  0  0
  144.7167  133.5718  150.6922 C   0  0  0  0  0  0  0  0  0  0  0  0
  144.3007  132.5625  149.6091 C   0  0  0  0  0  0  0  0  0  0  0  0
  143.5807  133.7517  151.7160 C   0  0  0  0  0  0  0  0  0  0  0  0
  144.9252  134.8091  150.0395 O   0  0  0  0  0  0  0  0  0  0  0  0
  146.1403  135.0569  152.9160 C   0  0  0  0  0  0  0  0  0  0  0  0
  146.1239  135.4517  154.4044 C   0  0  0  0  0  0  0  0  0  0  0  0
  147.1904  134.7776  155.1474 N   0  0  0  0  0  0  0  0  0  0  0  0
  148.3850  135.4089  155.2925 C   0  0  0  0  0  0  0  0  0  0  0  0
  149.4585  135.0077  154.5606 N   0  0  0  0  0  0  0  0  0  0  0  0
  150.6413  135.6110  154.7091 C   0  0  0  0  0  0  0  0  0  0  0  0
  150.9662  136.6213  155.5170 N   0  0  0  0  0  0  0  0  0  0  0  0
  149.8917  137.0381  156.2450 C   0  0  0  0  0  0  0  0  0  0  0  0
  148.5783  136.4914  156.1967 C   0  0  0  0  0  0  0  0  0  0  0  0
  147.7487  137.1763  157.0769 N   0  0  0  0  0  0  0  0  0  0  0  0
  148.5282  138.0707  157.6203 C   0  0  0  0  0  0  0  0  0  0  0  0
  149.8282  138.0688  157.1665 N   0  0  0  0  0  0  0  0  0  0  0  0
  150.9031  138.9416  157.6025 C   0  0  0  0  0  0  0  0  0  0  0  0
  150.6770  140.4542  157.3204 C   0  0  2  0  0  0  0  0  0  0  0  0
  151.3172  140.8364  155.9673 C   0  0  0  0  0  0  0  0  0  0  0  0
  150.6643  140.1965  154.8903 O   0  0  0  0  0  0  0  0  0  0  0  0
  151.1514  141.4461  158.4233 C   0  0  2  0  0  0  0  0  0  0  0  0
  151.0079  142.9284  158.1328 C   0  0  0  0  0  0  0  0  0  0  0  0
  151.8640  143.5531  159.2344 C   0  0  0  0  0  0  0  0  0  0  0  0
  152.8143  142.5622  159.6225 O   0  0  0  0  0  0  0  0  0  0  0  0
  152.6093  141.3671  158.8782 C   0  0  0  0  0  0  0  0  0  0  0  0
  146.2038  131.5383  155.6817 H   0  0  0  0  0  0  0  0  0  0  0  0
  145.1292  132.8917  155.3569 H   0  0  0  0  0  0  0  0  0  0  0  0
  146.1268  132.8850  156.8091 H   0  0  0  0  0  0  0  0  0  0  0  0
  148.1796  132.9447  155.4237 H   0  0  0  0  0  0  0  0  0  0  0  0
  148.2165  133.2706  153.0535 H   0  0  0  0  0  0  0  0  0  0  0  0
  147.2344  131.8617  153.3851 H   0  0  0  0  0  0  0  0  0  0  0  0
  146.8808  133.5414  150.7652 H   0  0  0  0  0  0  0  0  0  0  0  0
  146.1567  132.0528  151.2823 H   0  0  0  0  0  0  0  0  0  0  0  0
  144.1190  131.5766  150.0381 H   0  0  0  0  0  0  0  0  0  0  0  0
  145.0741  132.4517  148.8479 H   0  0  0  0  0  0  0  0  0  0  0  0
  143.3854  132.8734  149.1037 H   0  0  0  0  0  0  0  0  0  0  0  0
  143.3997  132.8291  152.2685 H   0  0  0  0  0  0  0  0  0  0  0  0
  142.6466  134.0293  151.2266 H   0  0  0  0  0  0  0  0  0  0  0  0
  143.8070  134.5331  152.4420 H   0  0  0  0  0  0  0  0  0  0  0  0
  145.2406  134.6392  149.1647 H   0  0  0  0  0  0  0  0  0  0  0  0
  147.0151  135.4786  152.4194 H   0  0  0  0  0  0  0  0  0  0  0  0
  145.2620  135.4727  152.4204 H   0  0  0  0  0  0  0  0  0  0  0  0
  146.1929  136.5346  154.5150 H   0  0  0  0  0  0  0  0  0  0  0  0
  145.1680  135.1711  154.8469 H   0  0  0  0  0  0  0  0  0  0  0  0
  151.4424  135.2303  154.0927 H   0  0  0  0  0  0  0  0  0  0  0  0
  148.1702  138.7653  158.3663 H   0  0  0  0  0  0  0  0  0  0  0  0
  151.0814  138.7746  158.6649 H   0  0  0  0  0  0  0  0  0  0  0  0
  151.8059  138.5994  157.0962 H   0  0  0  0  0  0  0  0  0  0  0  0
  149.6043  140.6164  157.2079 H   0  0  0  0  0  0  0  0  0  0  0  0
  151.2483  141.9106  155.7940 H   0  0  0  0  0  0  0  0  0  0  0  0
  152.3764  140.5777  155.9527 H   0  0  0  0  0  0  0  0  0  0  0  0
  149.8207  139.8916  155.1880 H   0  0  0  0  0  0  0  0  0  0  0  0
  150.5653  141.2393  159.3205 H   0  0  0  0  0  0  0  0  0  0  0  0
  151.4298  143.1845  157.1621 H   0  0  0  0  0  0  0  0  0  0  0  0
  149.9738  143.2727  158.1559 H   0  0  0  0  0  0  0  0  0  0  0  0
  152.3601  144.4641  158.8987 H   0  0  0  0  0  0  0  0  0  0  0  0
  151.2522  143.8022  160.1021 H   0  0  0  0  0  0  0  0  0  0  0  0
  152.8123  140.4829  159.4829 H   0  0  0  0  0  0  0  0  0  0  0  0
  153.3120  141.3752  158.0499 H   0  0  0  0  0  0  0  0  0  0  0  0
  145.3048  133.2566  153.2038 H   0  0  0  0  0  0  0  0  0  0  0  0
  1  2  1  0  0  0  0
  1 31  1  0  0  0  0
  1 32  1  0  0  0  0
  1 33  1  0  0  0  0
  2 12  1  0  0  0  0
  2  3  1  0  0  0  0
  2 34  1  0  0  0  0
  3  4  1  0  0  0  0
  3 35  1  0  0  0  0
  3 36  1  0  0  0  0
  4  5  1  0  0  0  0
  4 10  1  0  0  0  0
  4 65  1  0  0  0  0
  5  6  1  0  0  0  0
  5 37  1  0  0  0  0
  5 38  1  0  0  0  0
  6  7  1  0  0  0  0
  6  8  1  0  0  0  0
  6  9  1  0  0  0  0
  7 39  1  0  0  0  0
  7 40  1  0  0  0  0
  7 41  1  0  0  0  0
  8 42  1  0  0  0  0
  8 43  1  0  0  0  0
  8 44  1  0  0  0  0
  9 45  1  0  0  0  0
 10 11  1  0  0  0  0
 10 46  1  0  0  0  0
 10 47  1  0  0  0  0
 11 12  1  0  0  0  0
 11 48  1  0  0  0  0
 11 49  1  0  0  0  0
 12 13  1  0  0  0  0
 13 18  1  0  0  0  0
 13 14  2  0  0  0  0
 14 15  1  0  0  0  0
 15 16  2  0  0  0  0
 15 50  1  0  0  0  0
 16 17  1  0  0  0  0
 17 21  1  0  0  0  0
 17 18  2  0  0  0  0
 18 19  1  0  0  0  0
 19 20  2  0  0  0  0
 20 21  1  0  0  0  0
 20 51  1  0  0  0  0
 21 22  1  0  0  0  0
 22 23  1  0  0  0  0
 22 52  1  0  0  0  0
 22 53  1  0  0  0  0
 23 24  1  0  0  0  0
 23 26  1  0  0  0  0
 23 54  1  0  0  0  0
 24 25  1  0  0  0  0
 24 55  1  0  0  0  0
 24 56  1  0  0  0  0
 25 57  1  0  0  0  0
 26 30  1  0  0  0  0
 26 27  1  0  0  0  0
 26 58  1  0  0  0  0
 27 28  1  0  0  0  0
 27 59  1  0  0  0  0
 27 60  1  0  0  0  0
 28 29  1  0  0  0  0
 28 61  1  0  0  0  0
 28 62  1  0  0  0  0
 29 30  1  0  0  0  0
 30 63  1  0  0  0  0
 30 64  1  0  0  0  0
M  CHG  1   4   1
M  END
> <s_m_source_file>
AV-unprocessed.smi

> <i_m_source_file_index>
212

> <i_lp_mmshare_version>
43012

> <i_f3d_flags>
0

> <s_epik_input>
W0NIM11bQ0BASF0xW0NIMl1OKFtDSDJdQyhbQ0gzXSkoW0NIM10pW09IXSlbQ0gyXVtDSDJdTjFjKG5bY0hdbjIpYyhjMjMpbltjSF1uM1tDSDJdW0NASF0oW0NIMl1bT0hdKVtDQEBIXTRbQ0gyXVtDSDJdT1tDSDJdNA==

> <s_epik_cmdline>
J2VwaWtfcHl0aG9uJywgJy1waCcsICc3LjAnLCAnLXRuJywgJzgnLCAnLW1hJywgJzIwMCcsICctbWV0YWxfYmluZGluZycsICctaW1hZScsICc8aW5maWxlLm1hZT4nLCAnLW9tYWUnLCAnPG91dGZpbGUubWFlPic=

> <r_lp_tautomer_probability>
1

> <r_epik_Ionization_Penalty>
0.00182193

> <r_epik_Ionization_Penalty_Charging>
0.00173996

> <r_epik_Ionization_Penalty_Neutral>
8.19718e-05

> <r_epik_State_Penalty>
-0

> <r_epik_Charging_Adjusted_Penalty>
0.00173996

> <i_epik_Tot_Q>
1

> <i_epik_Tot_abs_Q>
1

> <r_epik_Metal_State_Penalty>
-0

> <b_epik_Metal_Only>
0

> <s_lp_Force_Field>
OPLS_2005

> <r_lp_Energy>
59.4292

> <b_lp_Chiralities_Consistent>
1

> <s_lp_Variant>
AV-unprocessed.smi:212-2

> <Gold.Version>
5.8.1

> <Gold.Id.Protein>
6NUR|6NUR_protein|mol2

> <Gold.PLP.Fitness>
40.7876

> <Gold.PLP.PLP>
-36.8700

> <Gold.PLP.part.hbond>
-2.0000

> <Gold.PLP.part.metal>
0.0000

> <Gold.PLP.part.buried>
-7.3074

> <Gold.PLP.part.nonpolar>
-27.4223

> <Gold.PLP.part.repulsive>
1.3232

> <Gold.PLP.ligand.clash>
0.0000

> <Gold.PLP.ligand.torsion>
2.2824

> <Gold.PLP.Chemscore.Hbond>
2.0000

> <Gold.PLP.Chemscore.CHOScore>
0.3973

> <Gold.PLP.Chemscore.Metal>
0.0000

> <Gold.Chemscore.Hbonds>
donor molecule, donor type, donor heavy atom, donor atom, acceptor molecule, acceptor atom, score
      L1  H     9    45       P1  7921  1.00
      P1  H  7989  7998       L1    25  1.00
      L1  C    15    50       P1  7949  0.37

> <Gold.PLP.Chemscore.Internal.Correction>
1.2904

> <Gold.Rescore>
     Score         DG    S(hbond)    S(metal)    S(lipo)     H(rot)  DE(clash)    DE(int)     intcor
     11.11     -13.45       1.84        0.00      90.03       3.40       0.09       2.25       ----

> <Gold.Chemscore.Fitness>
11.1076

> <Gold.Chemscore.DG>
-13.4496

> <Gold.Chemscore.ZeroCoef>
-5.4800

> <Gold.Chemscore.Hbond>
1.8372

> <Gold.Chemscore.Metal>
0.0000

> <Gold.Chemscore.Lipo>
90.0317

> <Gold.Chemscore.Internal_Hbond>
0.0000

> <Gold.Chemscore.DEClash>
0.0925

> <Gold.Chemscore.DEInternal>
2.2495

> <Gold.Chemscore.Rot>
3.3986

> <Gold.Chemscore.Internal.Correction>
   9.000000E+99

> <Gold.Chemscore.Hbonds>
donor molecule, donor type, donor heavy atom, donor atom, acceptor molecule, acceptor atom, score
      L1  H     9    45       P1  7921  1.00
      P1  H  7989  7998       L1    25  0.26

> <Gold.Chemscore.Hbond.Weighted>
-6.1364

> <Gold.Chemscore.Metal.Weighted>
-0.0000

> <Gold.Chemscore.Lipo.Weighted>
-10.5337

> <Gold.Chemscore.Internal_Hbond.Weighted>
0.0000

> <Gold.Chemscore.DEClash.Weighted>
0.0925

> <Gold.Chemscore.DEInternal.Weighted>
2.2495

> <Gold.Chemscore.Rot.Weighted>
8.7005

> <Gold.Chemscore.Internal.Correction.Weighted>
   9.000000E+99

> <Gold.Protein.RotatedTorsions>
[ 6907 6896 6895 6894 ] final  -84.44 input  -60.11 | X-H torsion
[ 7974 7965 7964 7962 ] final  -21.07 input  175.53 | X-H torsion
[ 8008 7997 7996 7995 ] final  -46.96 input   59.86 | X-H torsion
[ 10167 10162 10161 10158 ] final   -7.64 input  -65.29 | X-H torsion
[ 10718 10713 10712 10709 ] final -107.98 input   66.30 | X-H torsion
[ 10763 10752 10751 10750 ] final   57.70 input  -60.55 | X-H torsion
[ 11005 11000 10999 10996 ] final   -7.81 input  -57.11 | X-H torsion

> <Gold.Protein.ActiveResidues>
 VAL166  LYS551  ARG553  GLY616  TRP617  ASP618  TYR619  PRO620  LYS621  CYS622 
 ASP623  PHE694  ASN695  SER759  ASP760  ASP761  ALA762  ILE779  LEU786  VAL792 
 PHE793  MET794  SER795  GLU796  ALA797  LYS798  CYS799  TRP800  GLU811  SER814 

> <Gold.Protein.RotatedAtoms>
  150.6876  134.3358  159.4846 H   0  0  0  0  0  0  0  0  0  0  0  0  # atno 6907 bound_to 6896
  152.1217  134.9198  160.0572 H   0  0  0  0  0  0  0  0  0  0  0  0  # atno 6908 bound_to 6896
  152.0401  133.3939  159.4370 H   0  0  0  0  0  0  0  0  0  0  0  0  # atno 6909 bound_to 6896
  146.1753  140.4290  142.8516 H   0  0  0  0  0  0  0  0  0  0  0  0  # atno 7974 bound_to 7965
  154.4012  140.1358  156.4096 H   0  0  0  0  0  0  0  0  0  0  0  0  # atno 8008 bound_to 7997
  155.7746  140.3483  155.5244 H   0  0  0  0  0  0  0  0  0  0  0  0  # atno 8009 bound_to 7997
  155.8733  140.0975  157.1525 H   0  0  0  0  0  0  0  0  0  0  0  0  # atno 8010 bound_to 7997
  140.7035  143.6058  150.8753 H   0  0  0  0  0  0  0  0  0  0  0  0  # atno 10167 bound_to 10162
  156.0463  130.5690  150.7897 H   0  0  0  0  0  0  0  0  0  0  0  0  # atno 10718 bound_to 10713
  152.9855  135.5632  154.5433 H   0  0  0  0  0  0  0  0  0  0  0  0  # atno 10763 bound_to 10752
  154.4883  135.2791  155.1518 H   0  0  0  0  0  0  0  0  0  0  0  0  # atno 10764 bound_to 10752
  154.2998  135.6309  153.5473 H   0  0  0  0  0  0  0  0  0  0  0  0  # atno 10765 bound_to 10752
  140.7167  133.8863  155.8790 H   0  0  0  0  0  0  0  0  0  0  0  0  # atno 11005 bound_to 11000
  144.8227  140.6576  143.6343 LP  0  0  0  0  0  0  0  0  0  0  0  0  # atno 17320 bound_to 7965
  145.4228  139.1561  143.4064 LP  0  0  0  0  0  0  0  0  0  0  0  0  # atno 17321 bound_to 7965
  139.9781  143.5981  152.2952 LP  0  0  0  0  0  0  0  0  0  0  0  0  # atno 17342 bound_to 10162
  139.6592  144.7662  151.1995 LP  0  0  0  0  0  0  0  0  0  0  0  0  # atno 17343 bound_to 10162
  157.5341  131.0938  150.9915 LP  0  0  0  0  0  0  0  0  0  0  0  0  # atno 17370 bound_to 10713
  157.0214  130.5675  149.5332 LP  0  0  0  0  0  0  0  0  0  0  0  0  # atno 17371 bound_to 10713
  141.0038  134.1114  157.4290 LP  0  0  0  0  0  0  0  0  0  0  0  0  # atno 17394 bound_to 11000
  139.8858  135.0076  156.6458 LP  0  0  0  0  0  0  0  0  0  0  0  0  # atno 17395 bound_to 11000

$$$$
