AV-unprocessed.smi:2815|AV-procd|sdf|10841|dock6
  -GOLD-   2272015283D 1   1.00000     0.00000
 Structure written by MMmdl.
 47 48  0  0  0  0  0  0  0  0  1 V2000
  151.8741  142.9495  159.8438 C   0  0  0  0  0  0  0  0  0  0  0  0
  150.9735  143.1039  158.7609 O   0  0  0  0  0  0  0  0  0  0  0  0
  150.8578  141.9261  157.9805 C   0  0  0  0  0  0  0  0  0  0  0  0
  150.2787  142.2919  156.6084 C   0  0  0  0  0  0  0  0  0  0  0  0
  150.1011  141.1166  155.7715 N   0  0  0  0  0  0  0  0  0  0  0  0
  151.1075  140.2112  155.7058 N   0  0  0  0  0  0  0  0  0  0  0  0
  150.6777  139.2662  154.8866 C   0  0  0  0  0  0  0  0  0  0  0  0
  151.5624  138.0947  154.5705 C   0  0  0  0  0  0  0  0  0  0  0  0
  149.3574  139.5447  154.4442 C   0  0  0  0  0  0  0  0  0  0  0  0
  148.6231  138.7251  153.5505 N   0  0  0  0  0  0  0  0  0  0  0  0
  147.2872  138.6403  153.4545 C   0  0  0  0  0  0  0  0  0  0  0  0
  146.4902  139.2987  154.1228 O   0  0  0  0  0  0  0  0  0  0  0  0
  146.9194  137.7251  152.5463 N   0  0  0  0  0  0  0  0  0  0  0  0
  145.5416  137.3806  152.2077 C   0  0  0  0  0  0  0  0  0  0  0  0
  144.6596  137.3486  153.4735 C   0  0  0  0  0  0  0  0  0  0  0  0
  143.2225  136.9108  153.1472 C   0  0  0  0  0  0  0  0  0  0  0  0
  143.2010  135.5547  152.4253 C   0  0  0  0  0  0  0  0  0  0  0  0
  144.0735  135.5865  151.1610 C   0  0  0  0  0  0  0  0  0  0  0  0
  145.5120  136.0191  151.4876 C   0  0  0  0  0  0  0  0  0  0  0  0
  149.0139  140.7545  154.9886 C   0  0  0  0  0  0  0  0  0  0  0  0
  147.7945  141.6138  154.8516 C   0  0  0  0  0  0  0  0  0  0  0  0
  151.9290  143.8792  160.4101 H   0  0  0  0  0  0  0  0  0  0  0  0
  152.8782  142.7103  159.4913 H   0  0  0  0  0  0  0  0  0  0  0  0
  151.5439  142.1616  160.5219 H   0  0  0  0  0  0  0  0  0  0  0  0
  151.8369  141.4593  157.8614 H   0  0  0  0  0  0  0  0  0  0  0  0
  150.2093  141.2083  158.4850 H   0  0  0  0  0  0  0  0  0  0  0  0
  149.3203  142.7994  156.7175 H   0  0  0  0  0  0  0  0  0  0  0  0
  150.9414  142.9950  156.1009 H   0  0  0  0  0  0  0  0  0  0  0  0
  151.2255  137.5722  153.6752 H   0  0  0  0  0  0  0  0  0  0  0  0
  151.5669  137.3775  155.3912 H   0  0  0  0  0  0  0  0  0  0  0  0
  152.5914  138.4111  154.3983 H   0  0  0  0  0  0  0  0  0  0  0  0
  149.1590  138.0463  153.0300 H   0  0  0  0  0  0  0  0  0  0  0  0
  147.6453  137.2295  152.0501 H   0  0  0  0  0  0  0  0  0  0  0  0
  145.1477  138.1336  151.5223 H   0  0  0  0  0  0  0  0  0  0  0  0
  145.0888  136.6626  154.2052 H   0  0  0  0  0  0  0  0  0  0  0  0
  144.6410  138.3311  153.9462 H   0  0  0  0  0  0  0  0  0  0  0  0
  142.6349  136.8530  154.0635 H   0  0  0  0  0  0  0  0  0  0  0  0
  142.7452  137.6652  152.5209 H   0  0  0  0  0  0  0  0  0  0  0  0
  143.5611  134.7762  153.0990 H   0  0  0  0  0  0  0  0  0  0  0  0
  142.1764  135.2888  152.1643 H   0  0  0  0  0  0  0  0  0  0  0  0
  144.0789  134.6040  150.6884 H   0  0  0  0  0  0  0  0  0  0  0  0
  143.6407  136.2763  150.4353 H   0  0  0  0  0  0  0  0  0  0  0  0
  146.0966  136.0692  150.5683 H   0  0  0  0  0  0  0  0  0  0  0  0
  145.9835  135.2593  152.1127 H   0  0  0  0  0  0  0  0  0  0  0  0
  147.2885  141.4265  153.9050 H   0  0  0  0  0  0  0  0  0  0  0  0
  148.0438  142.6737  154.8739 H   0  0  0  0  0  0  0  0  0  0  0  0
  147.0891  141.4150  155.6583 H   0  0  0  0  0  0  0  0  0  0  0  0
  1  2  1  0  0  0  0
  1 22  1  0  0  0  0
  1 23  1  0  0  0  0
  1 24  1  0  0  0  0
  2  3  1  0  0  0  0
  3  4  1  0  0  0  0
  3 25  1  0  0  0  0
  3 26  1  0  0  0  0
  4  5  1  0  0  0  0
  4 27  1  0  0  0  0
  4 28  1  0  0  0  0
  5 20  1  0  0  0  0
  5  6  1  0  0  0  0
  6  7  2  0  0  0  0
  7  8  1  0  0  0  0
  7  9  1  0  0  0  0
  8 29  1  0  0  0  0
  8 30  1  0  0  0  0
  8 31  1  0  0  0  0
  9 10  1  0  0  0  0
  9 20  2  0  0  0  0
 10 11  1  0  0  0  0
 10 32  1  0  0  0  0
 11 12  2  0  0  0  0
 11 13  1  0  0  0  0
 13 14  1  0  0  0  0
 13 33  1  0  0  0  0
 14 19  1  0  0  0  0
 14 15  1  0  0  0  0
 14 34  1  0  0  0  0
 15 16  1  0  0  0  0
 15 35  1  0  0  0  0
 15 36  1  0  0  0  0
 16 17  1  0  0  0  0
 16 37  1  0  0  0  0
 16 38  1  0  0  0  0
 17 18  1  0  0  0  0
 17 39  1  0  0  0  0
 17 40  1  0  0  0  0
 18 19  1  0  0  0  0
 18 41  1  0  0  0  0
 18 42  1  0  0  0  0
 19 43  1  0  0  0  0
 19 44  1  0  0  0  0
 20 21  1  0  0  0  0
 21 45  1  0  0  0  0
 21 46  1  0  0  0  0
 21 47  1  0  0  0  0
M  END
> <s_m_source_file>
AV-unprocessed.smi

> <i_m_source_file_index>
2815

> <i_lp_mmshare_version>
43012

> <i_f3d_flags>
0

> <s_epik_input>
W0NIM11PW0NIMl1bQ0gyXW4xbmMoW0NIM10pYyhjMVtDSDNdKVtOSF1DKD1PKVtOSF1bQ0hdMltDSDJdW0NIMl1bQ0gyXVtDSDJdW0NIMl0y

> <s_epik_cmdline>
J2VwaWtfcHl0aG9uJywgJy1waCcsICc3LjAnLCAnLXRuJywgJzgnLCAnLW1hJywgJzIwMCcsICctbWV0YWxfYmluZGluZycsICctaW1hZScsICc8aW5maWxlLm1hZT4nLCAnLW9tYWUnLCAnPG91dGZpbGUubWFlPic=

> <r_lp_tautomer_probability>
1

> <r_epik_Ionization_Penalty>
0.00692603

> <r_epik_Ionization_Penalty_Charging>
0

> <r_epik_Ionization_Penalty_Neutral>
0.00692603

> <r_epik_State_Penalty>
0.00511675

> <r_epik_Charging_Adjusted_Penalty>
0.00511675

> <i_epik_Tot_Q>
0

> <i_epik_Tot_abs_Q>
0

> <r_epik_Metal_State_Penalty>
-0

> <b_epik_Metal_Only>
0

> <s_lp_Force_Field>
OPLS_2005

> <r_lp_Energy>
15.031

> <b_lp_Chiralities_Consistent>
1

> <s_lp_Variant>
AV-unprocessed.smi:2815-1

> <Gold.Version>
5.8.1

> <Gold.Id.Protein>
6NUR|6NUR_protein|mol2

> <Gold.PLP.Fitness>
46.8781

> <Gold.PLP.PLP>
-42.3606

> <Gold.PLP.part.hbond>
-3.8672

> <Gold.PLP.part.metal>
0.0000

> <Gold.PLP.part.buried>
-3.6638

> <Gold.PLP.part.nonpolar>
-36.1665

> <Gold.PLP.part.repulsive>
0.3239

> <Gold.PLP.ligand.clash>
0.0000

> <Gold.PLP.ligand.torsion>
0.6930

> <Gold.PLP.Chemscore.Hbond>
1.8564

> <Gold.PLP.Chemscore.CHOScore>
0.0000

> <Gold.PLP.Chemscore.Metal>
0.0000

> <Gold.Chemscore.Hbonds>
donor molecule, donor type, donor heavy atom, donor atom, acceptor molecule, acceptor atom, score
      L1  H    10    32       P1  7948  0.63
      L1  H    13    33       P1  7948  1.00

> <Gold.PLP.Chemscore.Internal.Correction>
0.3341

> <Gold.Rescore>
     Score         DG    S(hbond)    S(metal)    S(lipo)     H(rot)  DE(clash)    DE(int)     intcor
     14.35     -18.42       1.92        0.00      88.78       1.50       0.05       4.02       ----

> <Gold.Chemscore.Fitness>
14.3475

> <Gold.Chemscore.DG>
-18.4248

> <Gold.Chemscore.ZeroCoef>
-5.4800

> <Gold.Chemscore.Hbond>
1.9156

> <Gold.Chemscore.Metal>
0.0000

> <Gold.Chemscore.Lipo>
88.7776

> <Gold.Chemscore.Internal_Hbond>
0.0000

> <Gold.Chemscore.DEClash>
0.0542

> <Gold.Chemscore.DEInternal>
4.0231

> <Gold.Chemscore.Rot>
1.5002

> <Gold.Chemscore.Internal.Correction>
   9.000000E+99

> <Gold.Chemscore.Hbonds>
donor molecule, donor type, donor heavy atom, donor atom, acceptor molecule, acceptor atom, score
      L1  H    10    32       P1  7948  0.62
      L1  H    13    33       P1  7948  0.99

> <Gold.Chemscore.Hbond.Weighted>
-6.3982

> <Gold.Chemscore.Metal.Weighted>
-0.0000

> <Gold.Chemscore.Lipo.Weighted>
-10.3870

> <Gold.Chemscore.Internal_Hbond.Weighted>
0.0000

> <Gold.Chemscore.DEClash.Weighted>
0.0542

> <Gold.Chemscore.DEInternal.Weighted>
4.0231

> <Gold.Chemscore.Rot.Weighted>
3.8404

> <Gold.Chemscore.Internal.Correction.Weighted>
   9.000000E+99

> <Gold.Protein.RotatedTorsions>
[ 6907 6896 6895 6894 ] final -108.13 input  -60.11 | X-H torsion
[ 7974 7965 7964 7962 ] final -130.78 input  175.53 | X-H torsion
[ 8008 7997 7996 7995 ] final  -82.93 input   59.86 | X-H torsion
[ 10167 10162 10161 10158 ] final   74.83 input  -65.29 | X-H torsion
[ 10718 10713 10712 10709 ] final  119.78 input   66.30 | X-H torsion
[ 10763 10752 10751 10750 ] final   87.56 input  -60.55 | X-H torsion
[ 11005 11000 10999 10996 ] final  -84.03 input  -57.11 | X-H torsion

> <Gold.Protein.ActiveResidues>
 VAL166  LYS551  ARG553  GLY616  TRP617  ASP618  TYR619  PRO620  LYS621  CYS622 
 ASP623  PHE694  ASN695  SER759  ASP760  ASP761  ALA762  ILE779  LEU786  VAL792 
 PHE793  MET794  SER795  GLU796  ALA797  LYS798  CYS799  TRP800  GLU811  SER814 

> <Gold.Protein.RotatedAtoms>
  150.7484  133.9723  159.3549 H   0  0  0  0  0  0  0  0  0  0  0  0  # atno 6907 bound_to 6896
  151.7657  135.0797  160.0362 H   0  0  0  0  0  0  0  0  0  0  0  0  # atno 6908 bound_to 6896
  152.3373  133.5989  159.5887 H   0  0  0  0  0  0  0  0  0  0  0  0  # atno 6909 bound_to 6896
  144.9441  140.7272  143.4828 H   0  0  0  0  0  0  0  0  0  0  0  0  # atno 7974 bound_to 7965
  154.6137  140.0626  156.9527 H   0  0  0  0  0  0  0  0  0  0  0  0  # atno 8008 bound_to 7997
  155.1931  140.3309  155.4337 H   0  0  0  0  0  0  0  0  0  0  0  0  # atno 8009 bound_to 7997
  156.2392  140.1877  156.7019 H   0  0  0  0  0  0  0  0  0  0  0  0  # atno 8010 bound_to 7997
  140.0095  144.5625  150.7670 H   0  0  0  0  0  0  0  0  0  0  0  0  # atno 10167 bound_to 10162
  157.5938  131.1061  150.7944 H   0  0  0  0  0  0  0  0  0  0  0  0  # atno 10718 bound_to 10713
  153.1681  135.4539  154.9864 H   0  0  0  0  0  0  0  0  0  0  0  0  # atno 10763 bound_to 10752
  154.7946  135.3233  154.7699 H   0  0  0  0  0  0  0  0  0  0  0  0  # atno 10764 bound_to 10752
  153.8180  135.6949  153.4886 H   0  0  0  0  0  0  0  0  0  0  0  0  # atno 10765 bound_to 10752
  141.1653  133.7325  156.8808 H   0  0  0  0  0  0  0  0  0  0  0  0  # atno 11005 bound_to 11000
  145.2945  139.1872  143.4723 LP  0  0  0  0  0  0  0  0  0  0  0  0  # atno 17320 bound_to 7965
  146.3297  140.2926  142.8616 LP  0  0  0  0  0  0  0  0  0  0  0  0  # atno 17321 bound_to 7965
  140.7387  143.2782  151.3679 LP  0  0  0  0  0  0  0  0  0  0  0  0  # atno 17342 bound_to 10162
  139.6215  144.0898  152.2395 LP  0  0  0  0  0  0  0  0  0  0  0  0  # atno 17343 bound_to 10162
  156.8359  130.5031  149.5326 LP  0  0  0  0  0  0  0  0  0  0  0  0  # atno 17370 bound_to 10713
  156.0996  130.5959  150.9872 LP  0  0  0  0  0  0  0  0  0  0  0  0  # atno 17371 bound_to 10713
  140.1716  134.9096  157.2841 LP  0  0  0  0  0  0  0  0  0  0  0  0  # atno 17394 bound_to 11000
  140.2495  134.3700  155.7448 LP  0  0  0  0  0  0  0  0  0  0  0  0  # atno 17395 bound_to 11000

$$$$
