AV-unprocessed.smi:2712|AV-procd|sdf|10476|dock1
  -GOLD-   2272014513D 1   1.00000     0.00000
 Structure written by MMmdl.
 52 53  0  0  0  0  0  0  0  0  1 V2000
  146.2523  138.7281  153.2110 C   0  0  0  0  0  0  0  0  0  0  0  0
  147.6600  139.1340  153.5340 C   0  0  0  0  0  0  0  0  0  0  0  0
  148.1712  140.4694  153.2900 C   0  0  0  0  0  0  0  0  0  0  0  0
  149.4529  140.7549  153.6041 C   0  0  0  0  0  0  0  0  0  0  0  0
  150.3421  139.7533  154.1886 C   0  0  0  0  0  0  0  0  0  0  0  0
  151.5154  139.9809  154.4830 O   0  0  0  0  0  0  0  0  0  0  0  0
  149.7488  138.5378  154.3812 N   0  0  0  0  0  0  0  0  0  0  0  0
  150.4869  137.4165  154.9806 C   0  0  0  0  0  0  0  0  0  0  0  0
  149.5868  136.2490  155.4127 C   0  0  0  0  0  0  0  0  0  0  0  0
  149.4645  135.9476  156.6011 O   0  0  0  0  0  0  0  0  0  0  0  0
  148.9477  135.6078  154.4222 N   0  0  0  0  0  0  0  0  0  0  0  0
  148.0357  134.4782  154.5898 C   0  0  2  0  0  0  0  0  0  0  0  0
  148.4432  133.3318  153.6427 C   0  0  0  0  0  0  0  0  0  0  0  0
  147.3586  132.2668  153.4263 C   0  0  0  0  0  0  0  0  0  0  0  0
  146.4105  132.5954  152.2572 C   0  0  0  0  0  0  0  0  0  0  0  0
  145.3710  133.7248  152.5043 C   0  0  2  0  0  0  0  0  0  0  0  0
  144.4001  133.9542  151.2865 C   0  0  0  0  0  0  0  0  0  0  0  0
  143.7334  132.6398  150.8254 C   0  0  0  0  0  0  0  0  0  0  0  0
  145.1628  134.5664  150.0871 C   0  0  0  0  0  0  0  0  0  0  0  0
  143.2838  134.9626  151.6445 C   0  0  0  0  0  0  0  0  0  0  0  0
  146.0517  135.0343  152.9967 C   0  0  0  0  0  0  0  0  0  0  0  0
  146.5778  134.9555  154.4412 C   0  0  0  0  0  0  0  0  0  0  0  0
  148.4366  138.2400  154.0522 N   0  0  0  0  0  0  0  0  0  0  0  0
  145.7047  139.5444  152.7392 H   0  0  0  0  0  0  0  0  0  0  0  0
  145.7140  138.4433  154.1155 H   0  0  0  0  0  0  0  0  0  0  0  0
  146.2392  137.8787  152.5274 H   0  0  0  0  0  0  0  0  0  0  0  0
  147.5261  141.2218  152.8609 H   0  0  0  0  0  0  0  0  0  0  0  0
  149.8323  141.7498  153.4224 H   0  0  0  0  0  0  0  0  0  0  0  0
  151.2236  137.0319  154.2729 H   0  0  0  0  0  0  0  0  0  0  0  0
  151.0630  137.7650  155.8399 H   0  0  0  0  0  0  0  0  0  0  0  0
  149.1071  135.9237  153.4765 H   0  0  0  0  0  0  0  0  0  0  0  0
  148.1297  134.1168  155.6157 H   0  0  0  0  0  0  0  0  0  0  0  0
  148.7572  133.7276  152.6756 H   0  0  0  0  0  0  0  0  0  0  0  0
  149.3305  132.8509  154.0569 H   0  0  0  0  0  0  0  0  0  0  0  0
  147.8605  131.3293  153.1846 H   0  0  0  0  0  0  0  0  0  0  0  0
  146.8033  132.0737  154.3448 H   0  0  0  0  0  0  0  0  0  0  0  0
  147.0041  132.8160  151.3703 H   0  0  0  0  0  0  0  0  0  0  0  0
  145.8853  131.6672  152.0380 H   0  0  0  0  0  0  0  0  0  0  0  0
  144.7382  133.3716  153.3199 H   0  0  0  0  0  0  0  0  0  0  0  0
  143.0485  132.8188  149.9957 H   0  0  0  0  0  0  0  0  0  0  0  0
  143.1540  132.1743  151.6224 H   0  0  0  0  0  0  0  0  0  0  0  0
  144.4656  131.9105  150.4795 H   0  0  0  0  0  0  0  0  0  0  0  0
  145.8733  133.8749  149.6371 H   0  0  0  0  0  0  0  0  0  0  0  0
  145.7103  135.4634  150.3790 H   0  0  0  0  0  0  0  0  0  0  0  0
  144.4785  134.8536  149.2878 H   0  0  0  0  0  0  0  0  0  0  0  0
  142.6984  135.2384  150.7666 H   0  0  0  0  0  0  0  0  0  0  0  0
  143.6960  135.8822  152.0615 H   0  0  0  0  0  0  0  0  0  0  0  0
  142.5743  134.5544  152.3642 H   0  0  0  0  0  0  0  0  0  0  0  0
  146.8446  135.3445  152.3154 H   0  0  0  0  0  0  0  0  0  0  0  0
  145.3340  135.8502  152.9875 H   0  0  0  0  0  0  0  0  0  0  0  0
  145.9228  134.3125  155.0298 H   0  0  0  0  0  0  0  0  0  0  0  0
  146.4841  135.9374  154.9080 H   0  0  0  0  0  0  0  0  0  0  0  0
  1  2  1  0  0  0  0
  1 24  1  0  0  0  0
  1 25  1  0  0  0  0
  1 26  1  0  0  0  0
  2 23  2  0  0  0  0
  2  3  1  0  0  0  0
  3  4  2  0  0  0  0
  3 27  1  0  0  0  0
  4  5  1  0  0  0  0
  4 28  1  0  0  0  0
  5  6  2  0  0  0  0
  5  7  1  0  0  0  0
  7  8  1  0  0  0  0
  7 23  1  0  0  0  0
  8  9  1  0  0  0  0
  8 29  1  0  0  0  0
  8 30  1  0  0  0  0
  9 10  2  0  0  0  0
  9 11  1  0  0  0  0
 11 12  1  0  0  0  0
 11 31  1  0  0  0  0
 12 22  1  0  0  0  0
 12 13  1  0  0  0  0
 12 32  1  0  0  0  0
 13 14  1  0  0  0  0
 13 33  1  0  0  0  0
 13 34  1  0  0  0  0
 14 15  1  0  0  0  0
 14 35  1  0  0  0  0
 14 36  1  0  0  0  0
 15 16  1  0  0  0  0
 15 37  1  0  0  0  0
 15 38  1  0  0  0  0
 16 17  1  0  0  0  0
 16 21  1  0  0  0  0
 16 39  1  0  0  0  0
 17 18  1  0  0  0  0
 17 19  1  0  0  0  0
 17 20  1  0  0  0  0
 18 40  1  0  0  0  0
 18 41  1  0  0  0  0
 18 42  1  0  0  0  0
 19 43  1  0  0  0  0
 19 44  1  0  0  0  0
 19 45  1  0  0  0  0
 20 46  1  0  0  0  0
 20 47  1  0  0  0  0
 20 48  1  0  0  0  0
 21 22  1  0  0  0  0
 21 49  1  0  0  0  0
 21 50  1  0  0  0  0
 22 51  1  0  0  0  0
 22 52  1  0  0  0  0
M  END
> <s_m_source_file>
AV-unprocessed.smi

> <i_m_source_file_index>
2712

> <i_lp_mmshare_version>
43012

> <i_f3d_flags>
0

> <s_epik_input>
W0NIM11jMVtjSF1bY0hdYyg9TyluKG4xKVtDSDJdQyg9TylbTkhdW0NAQEhdMltDSDJdW0NIMl1bQ0gyXVtDQEBIXShDKFtDSDNdKShbQ0gzXSlbQ0gzXSlbQ0gyXVtDSDJdMg==

> <s_epik_cmdline>
J2VwaWtfcHl0aG9uJywgJy1waCcsICc3LjAnLCAnLXRuJywgJzgnLCAnLW1hJywgJzIwMCcsICctbWV0YWxfYmluZGluZycsICctaW1hZScsICc8aW5maWxlLm1hZT4nLCAnLW9tYWUnLCAnPG91dGZpbGUubWFlPic=

> <r_lp_tautomer_probability>
1

> <r_epik_Ionization_Penalty>
8.71758e-07

> <r_epik_Ionization_Penalty_Charging>
8.50442e-07

> <r_epik_Ionization_Penalty_Neutral>
2.13165e-08

> <r_epik_State_Penalty>
-0

> <r_epik_Charging_Adjusted_Penalty>
8.50442e-07

> <i_epik_Tot_Q>
0

> <i_epik_Tot_abs_Q>
0

> <r_epik_Metal_State_Penalty>
-0

> <b_epik_Metal_Only>
0

> <s_lp_Force_Field>
OPLS_2005

> <r_lp_Energy>
39.6201

> <b_lp_Chiralities_Consistent>
1

> <s_lp_Variant>
AV-unprocessed.smi:2712-3

> <Gold.Version>
5.8.1

> <Gold.Id.Protein>
6NUR|6NUR_protein|mol2

> <Gold.PLP.Fitness>
42.6957

> <Gold.PLP.PLP>
-37.3470

> <Gold.PLP.part.hbond>
-2.0000

> <Gold.PLP.part.metal>
0.0000

> <Gold.PLP.part.buried>
-3.7765

> <Gold.PLP.part.nonpolar>
-31.7831

> <Gold.PLP.part.repulsive>
0.2576

> <Gold.PLP.ligand.clash>
0.0000

> <Gold.PLP.ligand.torsion>
0.3810

> <Gold.PLP.Chemscore.Hbond>
2.0000

> <Gold.PLP.Chemscore.CHOScore>
0.0000

> <Gold.PLP.Chemscore.Metal>
0.0000

> <Gold.Chemscore.Hbonds>
donor molecule, donor type, donor heavy atom, donor atom, acceptor molecule, acceptor atom, score
      L1  H    11    31       P1  7948  1.00
      P1  H  7989  7998       L1     6  0.32

> <Gold.PLP.Chemscore.Internal.Correction>
0.1107

> <Gold.Rescore>
     Score         DG    S(hbond)    S(metal)    S(lipo)     H(rot)  DE(clash)    DE(int)     intcor
     15.43     -17.64       1.89        0.00      83.13       1.52       0.07       2.15       ----

> <Gold.Chemscore.Fitness>
15.4322

> <Gold.Chemscore.DG>
-17.6449

> <Gold.Chemscore.ZeroCoef>
-5.4800

> <Gold.Chemscore.Hbond>
1.8921

> <Gold.Chemscore.Metal>
0.0000

> <Gold.Chemscore.Lipo>
83.1350

> <Gold.Chemscore.Internal_Hbond>
0.0000

> <Gold.Chemscore.DEClash>
0.0674

> <Gold.Chemscore.DEInternal>
2.1453

> <Gold.Chemscore.Rot>
1.5162

> <Gold.Chemscore.Internal.Correction>
   9.000000E+99

> <Gold.Chemscore.Hbonds>
donor molecule, donor type, donor heavy atom, donor atom, acceptor molecule, acceptor atom, score
      L1  H    11    31       P1  7948  0.85
      P1  H  7989  7998       L1     6  0.03

> <Gold.Chemscore.Hbond.Weighted>
-6.3195

> <Gold.Chemscore.Metal.Weighted>
-0.0000

> <Gold.Chemscore.Lipo.Weighted>
-9.7268

> <Gold.Chemscore.Internal_Hbond.Weighted>
0.0000

> <Gold.Chemscore.DEClash.Weighted>
0.0674

> <Gold.Chemscore.DEInternal.Weighted>
2.1453

> <Gold.Chemscore.Rot.Weighted>
3.8814

> <Gold.Chemscore.Internal.Correction.Weighted>
   9.000000E+99

> <Gold.Protein.RotatedTorsions>
[ 6907 6896 6895 6894 ] final -119.56 input  -60.11 | X-H torsion
[ 7974 7965 7964 7962 ] final   42.01 input  175.53 | X-H torsion
[ 8008 7997 7996 7995 ] final  -48.84 input   59.86 | X-H torsion
[ 10167 10162 10161 10158 ] final -126.02 input  -65.29 | X-H torsion
[ 10718 10713 10712 10709 ] final  101.50 input   66.30 | X-H torsion
[ 10763 10752 10751 10750 ] final  -32.44 input  -60.55 | X-H torsion
[ 11005 11000 10999 10996 ] final -151.04 input  -57.11 | X-H torsion

> <Gold.Protein.ActiveResidues>
 VAL166  LYS551  ARG553  GLY616  TRP617  ASP618  TYR619  PRO620  LYS621  CYS622 
 ASP623  PHE694  ASN695  SER759  ASP760  ASP761  ALA762  ILE779  LEU786  VAL792 
 PHE793  MET794  SER795  GLU796  ALA797  LYS798  CYS799  TRP800  GLU811  SER814 

> <Gold.Protein.RotatedAtoms>
  150.8316  133.8082  159.3096 H   0  0  0  0  0  0  0  0  0  0  0  0  # atno 6907 bound_to 6896
  151.5811  135.1057  160.0027 H   0  0  0  0  0  0  0  0  0  0  0  0  # atno 6908 bound_to 6896
  152.4394  133.7379  159.6680 H   0  0  0  0  0  0  0  0  0  0  0  0  # atno 6909 bound_to 6896
  146.0776  139.5350  142.9557 H   0  0  0  0  0  0  0  0  0  0  0  0  # atno 7974 bound_to 7965
  154.4035  140.1311  156.4405 H   0  0  0  0  0  0  0  0  0  0  0  0  # atno 8008 bound_to 7997
  155.7463  140.3489  155.5108 H   0  0  0  0  0  0  0  0  0  0  0  0  # atno 8009 bound_to 7997
  155.8992  140.1016  157.1353 H   0  0  0  0  0  0  0  0  0  0  0  0  # atno 8010 bound_to 7997
  139.9759  143.5795  152.2396 H   0  0  0  0  0  0  0  0  0  0  0  0  # atno 10167 bound_to 10162
  157.6827  131.0728  150.5262 H   0  0  0  0  0  0  0  0  0  0  0  0  # atno 10718 bound_to 10713
  153.8138  135.6880  153.4837 H   0  0  0  0  0  0  0  0  0  0  0  0  # atno 10763 bound_to 10752
  153.1612  135.4579  154.9772 H   0  0  0  0  0  0  0  0  0  0  0  0  # atno 10764 bound_to 10752
  154.7956  135.3318  154.7616 H   0  0  0  0  0  0  0  0  0  0  0  0  # atno 10765 bound_to 10752
  140.7338  134.3591  157.5161 H   0  0  0  0  0  0  0  0  0  0  0  0  # atno 11005 bound_to 11000
  145.6277  141.0310  143.1880 LP  0  0  0  0  0  0  0  0  0  0  0  0  # atno 17320 bound_to 7965
  144.7272  139.7838  143.7360 LP  0  0  0  0  0  0  0  0  0  0  0  0  # atno 17321 bound_to 7965
  139.6446  144.7657  151.2270 LP  0  0  0  0  0  0  0  0  0  0  0  0  # atno 17342 bound_to 10162
  140.7506  143.6261  150.8467 LP  0  0  0  0  0  0  0  0  0  0  0  0  # atno 17343 bound_to 10162
  156.5573  130.4247  149.6079 LP  0  0  0  0  0  0  0  0  0  0  0  0  # atno 17370 bound_to 10713
  156.2851  130.7092  151.1927 LP  0  0  0  0  0  0  0  0  0  0  0  0  # atno 17371 bound_to 10713
  139.8820  134.9036  156.2858 LP  0  0  0  0  0  0  0  0  0  0  0  0  # atno 17394 bound_to 11000
  140.9898  133.7216  156.0796 LP  0  0  0  0  0  0  0  0  0  0  0  0  # atno 17395 bound_to 11000

$$$$
