AV-unprocessed.smi:2355|AV-procd|sdf|9387|dock1
  -GOLD-   2272013 23D 1   1.00000     0.00000
 Structure written by MMmdl.
 48 49  0  0  0  0  0  0  0  0  1 V2000
  151.1955  145.2176  159.2639 C   0  0  0  0  0  0  0  0  0  0  0  0
  151.8505  144.0165  159.9130 C   0  0  0  0  0  0  0  0  0  0  0  0
  152.3525  144.0888  161.2265 C   0  0  0  0  0  0  0  0  0  0  0  0
  152.9511  142.9373  161.7739 C   0  0  0  0  0  0  0  0  0  0  0  0
  153.5163  142.9472  163.1786 C   0  0  0  0  0  0  0  0  0  0  0  0
  153.0649  141.7740  161.0980 N   0  0  0  0  0  0  0  0  0  0  0  0
  152.5842  141.6924  159.8326 C   0  0  0  0  0  0  0  0  0  0  0  0
  152.6539  140.5174  159.0383 N   0  0  0  0  0  0  0  0  0  0  0  0
  152.1738  140.3240  157.7974 C   0  0  0  0  0  0  0  0  0  0  0  0
  151.5800  141.1660  157.1226 O   0  0  0  0  0  0  0  0  0  0  0  0
  152.4265  139.0780  157.3697 N   0  0  0  0  0  0  0  0  0  0  0  0
  152.0482  138.5376  156.0646 C   0  0  2  0  0  0  0  0  0  0  0  0
  152.8479  139.2696  154.9724 C   0  0  0  0  0  0  0  0  0  0  0  0
  150.5012  138.5846  155.8391 C   0  0  1  0  0  0  0  0  0  0  0  0
  150.1869  138.5827  154.3199 C   0  0  0  0  0  0  0  0  0  0  0  0
  149.7519  137.5469  156.5868 N   0  0  0  0  0  0  0  0  0  0  0  0
  149.8217  137.7376  158.0401 C   0  0  0  0  0  0  0  0  0  0  0  0
  149.0622  136.6513  158.8209 C   0  0  0  0  0  0  0  0  0  0  0  0
  149.5699  135.3703  158.4742 O   0  0  0  0  0  0  0  0  0  0  0  0
  149.4547  135.1098  157.0822 C   0  0  0  0  0  0  0  0  0  0  0  0
  150.2129  136.1864  156.2869 C   0  0  0  0  0  0  0  0  0  0  0  0
  151.9678  142.8008  159.2095 C   0  0  0  0  0  0  0  0  0  0  0  0
  151.2551  146.0966  159.9063 H   0  0  0  0  0  0  0  0  0  0  0  0
  150.1439  145.0117  159.0633 H   0  0  0  0  0  0  0  0  0  0  0  0
  151.6872  145.4528  158.3198 H   0  0  0  0  0  0  0  0  0  0  0  0
  152.2823  145.0024  161.7987 H   0  0  0  0  0  0  0  0  0  0  0  0
  153.1479  143.8034  163.7444 H   0  0  0  0  0  0  0  0  0  0  0  0
  154.6047  143.0009  163.1457 H   0  0  0  0  0  0  0  0  0  0  0  0
  153.2323  142.0403  163.7138 H   0  0  0  0  0  0  0  0  0  0  0  0
  153.1213  139.7322  159.4663 H   0  0  0  0  0  0  0  0  0  0  0  0
  152.9199  138.4537  157.9908 H   0  0  0  0  0  0  0  0  0  0  0  0
  152.3910  137.5037  156.0736 H   0  0  0  0  0  0  0  0  0  0  0  0
  152.6330  138.8631  153.9840 H   0  0  0  0  0  0  0  0  0  0  0  0
  153.9205  139.1648  155.1394 H   0  0  0  0  0  0  0  0  0  0  0  0
  152.6236  140.3361  154.9501 H   0  0  0  0  0  0  0  0  0  0  0  0
  150.1657  139.5530  156.2140 H   0  0  0  0  0  0  0  0  0  0  0  0
  150.8097  139.2811  153.7621 H   0  0  0  0  0  0  0  0  0  0  0  0
  149.1614  138.8893  154.1179 H   0  0  0  0  0  0  0  0  0  0  0  0
  150.3310  137.5941  153.8838 H   0  0  0  0  0  0  0  0  0  0  0  0
  150.8641  137.7523  158.3619 H   0  0  0  0  0  0  0  0  0  0  0  0
  149.3898  138.6963  158.3224 H   0  0  0  0  0  0  0  0  0  0  0  0
  149.1823  136.8025  159.8937 H   0  0  0  0  0  0  0  0  0  0  0  0
  147.9930  136.6984  158.6081 H   0  0  0  0  0  0  0  0  0  0  0  0
  149.8664  134.1231  156.8696 H   0  0  0  0  0  0  0  0  0  0  0  0
  148.4027  135.0862  156.7936 H   0  0  0  0  0  0  0  0  0  0  0  0
  150.0731  135.9540  155.2334 H   0  0  0  0  0  0  0  0  0  0  0  0
  151.2812  136.1042  156.4926 H   0  0  0  0  0  0  0  0  0  0  0  0
  151.5888  142.7222  158.2004 H   0  0  0  0  0  0  0  0  0  0  0  0
  1  2  1  0  0  0  0
  1 23  1  0  0  0  0
  1 24  1  0  0  0  0
  1 25  1  0  0  0  0
  2 22  1  0  0  0  0
  2  3  2  0  0  0  0
  3  4  1  0  0  0  0
  3 26  1  0  0  0  0
  4  5  1  0  0  0  0
  4  6  2  0  0  0  0
  5 27  1  0  0  0  0
  5 28  1  0  0  0  0
  5 29  1  0  0  0  0
  6  7  1  0  0  0  0
  7  8  1  0  0  0  0
  7 22  2  0  0  0  0
  8  9  1  0  0  0  0
  8 30  1  0  0  0  0
  9 10  2  0  0  0  0
  9 11  1  0  0  0  0
 11 12  1  0  0  0  0
 11 31  1  0  0  0  0
 12 13  1  0  0  0  0
 12 14  1  0  0  0  0
 12 32  1  0  0  0  0
 13 33  1  0  0  0  0
 13 34  1  0  0  0  0
 13 35  1  0  0  0  0
 14 15  1  0  0  0  0
 14 16  1  0  0  0  0
 14 36  1  0  0  0  0
 15 37  1  0  0  0  0
 15 38  1  0  0  0  0
 15 39  1  0  0  0  0
 16 21  1  0  0  0  0
 16 17  1  0  0  0  0
 17 18  1  0  0  0  0
 17 40  1  0  0  0  0
 17 41  1  0  0  0  0
 18 19  1  0  0  0  0
 18 42  1  0  0  0  0
 18 43  1  0  0  0  0
 19 20  1  0  0  0  0
 20 21  1  0  0  0  0
 20 44  1  0  0  0  0
 20 45  1  0  0  0  0
 21 46  1  0  0  0  0
 21 47  1  0  0  0  0
 22 48  1  0  0  0  0
M  END
> <s_m_source_file>
AV-unprocessed.smi

> <i_m_source_file_index>
2355

> <i_lp_mmshare_version>
43012

> <i_f3d_flags>
0

> <s_epik_input>
W0NIM11jMVtjSF1jKFtDSDNdKW5jKFtjSF0xKVtOSF1DKD1PKVtOSF1bQ0BIXShbQ0gzXSlbQ0BIXShbQ0gzXSlOMltDSDJdW0NIMl1PW0NIMl1bQ0gyXTI=

> <s_epik_cmdline>
J2VwaWtfcHl0aG9uJywgJy1waCcsICc3LjAnLCAnLXRuJywgJzgnLCAnLW1hJywgJzIwMCcsICctbWV0YWxfYmluZGluZycsICctaW1hZScsICc8aW5maWxlLm1hZT4nLCAnLW9tYWUnLCAnPG91dGZpbGUubWFlPic=

> <r_epik_Ionization_Penalty>
0.266238

> <r_epik_Ionization_Penalty_Charging>
0

> <r_epik_Ionization_Penalty_Neutral>
0.266238

> <r_epik_State_Penalty>
0.257924

> <r_epik_Charging_Adjusted_Penalty>
0.257924

> <i_epik_Tot_Q>
0

> <i_epik_Tot_abs_Q>
0

> <r_epik_Metal_State_Penalty>
0.257904

> <b_epik_Metal_Only>
0

> <s_lp_Force_Field>
OPLS_2005

> <r_lp_Energy>
33.2304

> <b_lp_Chiralities_Consistent>
1

> <s_lp_Variant>
AV-unprocessed.smi:2355-3

> <Gold.Version>
5.8.1

> <Gold.Id.Protein>
6NUR|6NUR_protein|mol2

> <Gold.PLP.Fitness>
40.2487

> <Gold.PLP.PLP>
-40.7669

> <Gold.PLP.part.hbond>
-1.0000

> <Gold.PLP.part.metal>
0.0000

> <Gold.PLP.part.buried>
-4.1516

> <Gold.PLP.part.nonpolar>
-35.1073

> <Gold.PLP.part.repulsive>
0.2393

> <Gold.PLP.ligand.clash>
2.5418

> <Gold.PLP.ligand.torsion>
0.5328

> <Gold.PLP.Chemscore.Hbond>
1.0000

> <Gold.PLP.Chemscore.CHOScore>
0.0000

> <Gold.PLP.Chemscore.Metal>
0.0000

> <Gold.Chemscore.Hbonds>
donor molecule, donor type, donor heavy atom, donor atom, acceptor molecule, acceptor atom, score
      P1  H  6896  6909       L1    19  1.00

> <Gold.PLP.Chemscore.Internal.Correction>
0.0891

> <Gold.Rescore>
     Score         DG    S(hbond)    S(metal)    S(lipo)     H(rot)  DE(clash)    DE(int)     intcor
     15.53     -17.82       0.97        0.00     108.56       1.40       0.02       2.27       ----

> <Gold.Chemscore.Fitness>
15.5255

> <Gold.Chemscore.DG>
-17.8222

> <Gold.Chemscore.ZeroCoef>
-5.4800

> <Gold.Chemscore.Hbond>
0.9665

> <Gold.Chemscore.Metal>
0.0000

> <Gold.Chemscore.Lipo>
108.5642

> <Gold.Chemscore.Internal_Hbond>
0.0000

> <Gold.Chemscore.DEClash>
0.0240

> <Gold.Chemscore.DEInternal>
2.2727

> <Gold.Chemscore.Rot>
1.4015

> <Gold.Chemscore.Internal.Correction>
   9.000000E+99

> <Gold.Chemscore.Hbonds>
donor molecule, donor type, donor heavy atom, donor atom, acceptor molecule, acceptor atom, score
      P1  H  6896  6909       L1    19  0.98

> <Gold.Chemscore.Hbond.Weighted>
-3.2280

> <Gold.Chemscore.Metal.Weighted>
-0.0000

> <Gold.Chemscore.Lipo.Weighted>
-12.7020

> <Gold.Chemscore.Internal_Hbond.Weighted>
0.0000

> <Gold.Chemscore.DEClash.Weighted>
0.0240

> <Gold.Chemscore.DEInternal.Weighted>
2.2727

> <Gold.Chemscore.Rot.Weighted>
3.5878

> <Gold.Chemscore.Internal.Correction.Weighted>
   9.000000E+99

> <Gold.Protein.RotatedTorsions>
[ 6907 6896 6895 6894 ] final   39.09 input  -60.11 | X-H torsion
[ 7974 7965 7964 7962 ] final   83.99 input  175.53 | X-H torsion
[ 8008 7997 7996 7995 ] final -167.54 input   59.86 | X-H torsion
[ 10167 10162 10161 10158 ] final   96.16 input  -65.29 | X-H torsion
[ 10718 10713 10712 10709 ] final   65.09 input   66.30 | X-H torsion
[ 10763 10752 10751 10750 ] final   19.80 input  -60.55 | X-H torsion
[ 11005 11000 10999 10996 ] final  -73.95 input  -57.11 | X-H torsion

> <Gold.Protein.ActiveResidues>
 VAL166  LYS551  ARG553  GLY616  TRP617  ASP618  TYR619  PRO620  LYS621  CYS622 
 ASP623  PHE694  ASN695  SER759  ASP760  ASP761  ALA762  ILE779  LEU786  VAL792 
 PHE793  MET794  SER795  GLU796  ALA797  LYS798  CYS799  TRP800  GLU811  SER814 

> <Gold.Protein.RotatedAtoms>
  152.1650  134.8881  160.0538 H   0  0  0  0  0  0  0  0  0  0  0  0  # atno 6907 bound_to 6896
  151.9862  133.3770  159.4135 H   0  0  0  0  0  0  0  0  0  0  0  0  # atno 6908 bound_to 6896
  150.6893  134.3908  159.5119 H   0  0  0  0  0  0  0  0  0  0  0  0  # atno 6909 bound_to 6896
  145.6046  139.2358  143.2226 H   0  0  0  0  0  0  0  0  0  0  0  0  # atno 7974 bound_to 7965
  155.8791  140.1006  157.1497 H   0  0  0  0  0  0  0  0  0  0  0  0  # atno 8008 bound_to 7997
  154.4003  140.1332  156.4238 H   0  0  0  0  0  0  0  0  0  0  0  0  # atno 8009 bound_to 7997
  155.7663  140.3462  155.5226 H   0  0  0  0  0  0  0  0  0  0  0  0  # atno 8010 bound_to 7997
  139.7920  144.6848  150.9879 H   0  0  0  0  0  0  0  0  0  0  0  0  # atno 10167 bound_to 10162
  157.6082  130.9195  149.9930 H   0  0  0  0  0  0  0  0  0  0  0  0  # atno 10718 bound_to 10713
  153.1131  135.6701  153.9466 H   0  0  0  0  0  0  0  0  0  0  0  0  # atno 10763 bound_to 10752
  153.9003  135.3036  155.3450 H   0  0  0  0  0  0  0  0  0  0  0  0  # atno 10764 bound_to 10752
  154.7549  135.5016  153.9434 H   0  0  0  0  0  0  0  0  0  0  0  0  # atno 10765 bound_to 10752
  141.1629  133.6895  156.7290 H   0  0  0  0  0  0  0  0  0  0  0  0  # atno 11005 bound_to 11000
  146.1550  140.6871  142.9304 LP  0  0  0  0  0  0  0  0  0  0  0  0  # atno 17320 bound_to 7965
  144.7295  140.4628  143.6948 LP  0  0  0  0  0  0  0  0  0  0  0  0  # atno 17321 bound_to 7965
  140.7820  143.4370  151.0608 LP  0  0  0  0  0  0  0  0  0  0  0  0  # atno 17342 bound_to 10162
  139.8047  143.8035  152.3166 LP  0  0  0  0  0  0  0  0  0  0  0  0  # atno 17343 bound_to 10162
  156.1176  130.3647  149.9942 LP  0  0  0  0  0  0  0  0  0  0  0  0  # atno 17370 bound_to 10713
  156.8028  130.9297  151.3645 LP  0  0  0  0  0  0  0  0  0  0  0  0  # atno 17371 bound_to 10713
  140.2759  134.8355  157.3889 LP  0  0  0  0  0  0  0  0  0  0  0  0  # atno 17394 bound_to 11000
  140.1478  134.4889  155.7983 LP  0  0  0  0  0  0  0  0  0  0  0  0  # atno 17395 bound_to 11000

$$$$
