AV-unprocessed.smi:2928|AV-procd|sdf|11234|dock5
  -GOLD-   2272016123D 1   1.00000     0.00000
 Structure written by MMmdl.
 55 58  0  0  0  0  0  0  0  0  2 V2000
  142.8122  133.6435  150.2677 C   0  0  0  0  0  0  0  0  0  0  0  0
  143.5967  133.9537  151.4868 N   0  3  2  0  0  0  0  0  0  0  0  0
  143.4012  135.3221  152.0215 C   0  0  1  0  0  0  0  0  0  0  0  0
  143.9091  135.3714  153.4810 C   0  0  0  0  0  0  0  0  0  0  0  0
  145.3523  134.8619  153.6592 C   0  0  0  0  0  0  0  0  0  0  0  0
  145.6450  133.6046  152.8168 C   0  0  0  0  0  0  0  0  0  0  0  0
  145.0438  133.6464  151.3925 C   0  0  2  0  0  0  0  0  0  0  0  0
  145.7620  134.5950  150.3997 C   0  0  0  0  0  0  0  0  0  0  0  0
  145.4340  136.1016  150.5461 C   0  0  2  0  0  0  0  0  0  0  0  0
  146.4740  136.8046  151.2931 N   0  0  0  0  0  0  0  0  0  0  0  0
  146.3515  138.0088  151.8694 C   0  0  0  0  0  0  0  0  0  0  0  0
  145.3266  138.6880  151.8153 O   0  0  0  0  0  0  0  0  0  0  0  0
  147.4759  138.3451  152.5219 N   0  0  0  0  0  0  0  0  0  0  0  0
  147.7198  139.4909  153.3305 C   0  0  0  0  0  0  0  0  0  0  0  0
  146.9755  140.6894  153.2105 C   0  0  0  0  0  0  0  0  0  0  0  0
  147.2981  141.7816  154.0364 C   0  0  0  0  0  0  0  0  0  0  0  0
  148.3601  141.6407  154.9474 C   0  0  0  0  0  0  0  0  0  0  0  0
  149.0886  140.5117  155.0634 N   0  0  0  0  0  0  0  0  0  0  0  0
  148.7820  139.4566  154.2699 C   0  0  0  0  0  0  0  0  0  0  0  0
  149.5531  138.2886  154.4084 N   0  0  0  0  0  0  0  0  0  0  0  0
  150.8522  138.4632  155.0355 C   0  0  0  0  0  0  0  0  0  0  0  0
  151.3171  137.0521  155.4049 C   0  0  0  0  0  0  0  0  0  0  0  0
  150.0324  136.2157  155.4610 C   0  0  0  0  0  0  0  0  0  0  0  0
  148.9086  137.1974  155.1191 C   0  0  0  0  0  0  0  0  0  0  0  0
  144.0043  136.3922  151.0776 C   0  0  0  0  0  0  0  0  0  0  0  0
  143.1082  134.2588  149.4182 H   0  0  0  0  0  0  0  0  0  0  0  0
  141.7494  133.8065  150.4485 H   0  0  0  0  0  0  0  0  0  0  0  0
  142.9419  132.5975  149.9881 H   0  0  0  0  0  0  0  0  0  0  0  0
  142.3270  135.5074  152.0692 H   0  0  0  0  0  0  0  0  0  0  0  0
  143.8164  136.3807  153.8834 H   0  0  0  0  0  0  0  0  0  0  0  0
  143.2529  134.7474  154.0895 H   0  0  0  0  0  0  0  0  0  0  0  0
  146.0612  135.6488  153.4258 H   0  0  0  0  0  0  0  0  0  0  0  0
  145.5318  134.6424  154.7121 H   0  0  0  0  0  0  0  0  0  0  0  0
  146.7197  133.4251  152.7724 H   0  0  0  0  0  0  0  0  0  0  0  0
  145.2216  132.7441  153.3372 H   0  0  0  0  0  0  0  0  0  0  0  0
  145.1402  132.6352  150.9944 H   0  0  0  0  0  0  0  0  0  0  0  0
  146.8398  134.4286  150.4315 H   0  0  0  0  0  0  0  0  0  0  0  0
  145.4700  134.2949  149.3926 H   0  0  0  0  0  0  0  0  0  0  0  0
  145.4880  136.5194  149.5387 H   0  0  0  0  0  0  0  0  0  0  0  0
  147.3576  136.3269  151.3946 H   0  0  0  0  0  0  0  0  0  0  0  0
  148.2056  137.6475  152.5383 H   0  0  0  0  0  0  0  0  0  0  0  0
  146.1763  140.7954  152.4929 H   0  0  0  0  0  0  0  0  0  0  0  0
  146.7469  142.7078  153.9682 H   0  0  0  0  0  0  0  0  0  0  0  0
  148.6371  142.4584  155.5964 H   0  0  0  0  0  0  0  0  0  0  0  0
  151.5527  138.9533  154.3587 H   0  0  0  0  0  0  0  0  0  0  0  0
  150.7660  139.0763  155.9340 H   0  0  0  0  0  0  0  0  0  0  0  0
  151.9827  136.6584  154.6358 H   0  0  0  0  0  0  0  0  0  0  0  0
  151.8601  137.0444  156.3505 H   0  0  0  0  0  0  0  0  0  0  0  0
  150.0768  135.4165  154.7201 H   0  0  0  0  0  0  0  0  0  0  0  0
  149.8785  135.7557  156.4375 H   0  0  0  0  0  0  0  0  0  0  0  0
  148.4378  137.5611  156.0336 H   0  0  0  0  0  0  0  0  0  0  0  0
  148.1377  136.7292  154.5063 H   0  0  0  0  0  0  0  0  0  0  0  0
  143.3475  136.4708  150.2106 H   0  0  0  0  0  0  0  0  0  0  0  0
  143.9494  137.3745  151.5478 H   0  0  0  0  0  0  0  0  0  0  0  0
  143.2313  133.3306  152.1930 H   0  0  0  0  0  0  0  0  0  0  0  0
  1  2  1  0  0  0  0
  1 26  1  0  0  0  0
  1 27  1  0  0  0  0
  1 28  1  0  0  0  0
  2  7  1  0  0  0  0
  2  3  1  0  0  0  0
  2 55  1  0  0  0  0
  3 25  1  0  0  0  0
  3  4  1  0  0  0  0
  3 29  1  0  0  0  0
  4  5  1  0  0  0  0
  4 30  1  0  0  0  0
  4 31  1  0  0  0  0
  5  6  1  0  0  0  0
  5 32  1  0  0  0  0
  5 33  1  0  0  0  0
  6  7  1  0  0  0  0
  6 34  1  0  0  0  0
  6 35  1  0  0  0  0
  7  8  1  0  0  0  0
  7 36  1  0  0  0  0
  8  9  1  0  0  0  0
  8 37  1  0  0  0  0
  8 38  1  0  0  0  0
  9 10  1  0  0  0  0
  9 25  1  0  0  0  0
  9 39  1  0  0  0  0
 10 11  1  0  0  0  0
 10 40  1  0  0  0  0
 11 12  2  0  0  0  0
 11 13  1  0  0  0  0
 13 14  1  0  0  0  0
 13 41  1  0  0  0  0
 14 19  1  0  0  0  0
 14 15  2  0  0  0  0
 15 16  1  0  0  0  0
 15 42  1  0  0  0  0
 16 17  2  0  0  0  0
 16 43  1  0  0  0  0
 17 18  1  0  0  0  0
 17 44  1  0  0  0  0
 18 19  2  0  0  0  0
 19 20  1  0  0  0  0
 20 24  1  0  0  0  0
 20 21  1  0  0  0  0
 21 22  1  0  0  0  0
 21 45  1  0  0  0  0
 21 46  1  0  0  0  0
 22 23  1  0  0  0  0
 22 47  1  0  0  0  0
 22 48  1  0  0  0  0
 23 24  1  0  0  0  0
 23 49  1  0  0  0  0
 23 50  1  0  0  0  0
 24 51  1  0  0  0  0
 24 52  1  0  0  0  0
 25 53  1  0  0  0  0
 25 54  1  0  0  0  0
M  CHG  1   2   1
M  END
> <s_m_source_file>
AV-unprocessed.smi

> <i_m_source_file_index>
2928

> <i_lp_mmshare_version>
43012

> <i_f3d_flags>
0

> <s_epik_input>
W0NIMl0xW0NIMl1bQ0gyXVtDQEhdKE4oW0NIM10pW0NIXTEyKVtDSDJdW0NASF0oW0NIMl0yKVtOSF1DKD1PKVtOSF1jM1tjSF1bY0hdW2NIXW5jM040W0NIMl1bQ0gyXVtDSDJdW0NIMl00

> <s_epik_cmdline>
J2VwaWtfcHl0aG9uJywgJy1waCcsICc3LjAnLCAnLXRuJywgJzgnLCAnLW1hJywgJzIwMCcsICctbWV0YWxfYmluZGluZycsICctaW1hZScsICc8aW5maWxlLm1hZT4nLCAnLW9tYWUnLCAnPG91dGZpbGUubWFlPic=

> <r_lp_tautomer_probability>
1

> <r_epik_Ionization_Penalty>
0.07954

> <r_epik_Ionization_Penalty_Charging>
0.00089841

> <r_epik_Ionization_Penalty_Neutral>
0.0786416

> <r_epik_State_Penalty>
0.0689917

> <r_epik_Charging_Adjusted_Penalty>
0.0698901

> <i_epik_Tot_Q>
1

> <i_epik_Tot_abs_Q>
1

> <r_epik_Metal_State_Penalty>
0.0608947

> <b_epik_Metal_Only>
0

> <s_lp_Force_Field>
OPLS_2005

> <r_lp_Energy>
66.3718

> <b_lp_Chiralities_Consistent>
1

> <s_lp_Variant>
AV-unprocessed.smi:2928-4

> <Gold.Version>
5.8.1

> <Gold.Id.Protein>
6NUR|6NUR_protein|mol2

> <Gold.PLP.Fitness>
45.0431

> <Gold.PLP.PLP>
-31.7736

> <Gold.PLP.part.hbond>
-3.1768

> <Gold.PLP.part.metal>
0.0000

> <Gold.PLP.part.buried>
-2.3512

> <Gold.PLP.part.nonpolar>
-33.4564

> <Gold.PLP.part.repulsive>
5.1951

> <Gold.PLP.ligand.clash>
0.0000

> <Gold.PLP.ligand.torsion>
0.8774

> <Gold.PLP.Chemscore.Hbond>
3.9825

> <Gold.PLP.Chemscore.CHOScore>
1.0000

> <Gold.PLP.Chemscore.Metal>
0.0000

> <Gold.Chemscore.Hbonds>
donor molecule, donor type, donor heavy atom, donor atom, acceptor molecule, acceptor atom, score
      L1  H    10    40       P1  7948  1.00
      L1  H    13    41       P1  7948  0.99
      L1  C    17    44       P1  8028  1.00

> <Gold.PLP.Chemscore.Internal.Correction>
0.0768

> <Gold.Rescore>
     Score         DG    S(hbond)    S(metal)    S(lipo)     H(rot)  DE(clash)    DE(int)     intcor
     15.48     -21.38       2.78        0.00      82.32       1.18       1.57       4.33       ----

> <Gold.Chemscore.Fitness>
15.4841

> <Gold.Chemscore.DG>
-21.3825

> <Gold.Chemscore.ZeroCoef>
-5.4800

> <Gold.Chemscore.Hbond>
2.7803

> <Gold.Chemscore.Metal>
0.0000

> <Gold.Chemscore.Lipo>
82.3166

> <Gold.Chemscore.Internal_Hbond>
0.0000

> <Gold.Chemscore.DEClash>
1.5718

> <Gold.Chemscore.DEInternal>
4.3267

> <Gold.Chemscore.Rot>
1.1776

> <Gold.Chemscore.Internal.Correction>
   9.000000E+99

> <Gold.Chemscore.Hbonds>
donor molecule, donor type, donor heavy atom, donor atom, acceptor molecule, acceptor atom, score
      L1  H    10    40       P1  7948  0.97
      L1  H    13    41       P1  7948  0.94

> <Gold.Chemscore.Hbond.Weighted>
-9.2862

> <Gold.Chemscore.Metal.Weighted>
-0.0000

> <Gold.Chemscore.Lipo.Weighted>
-9.6310

> <Gold.Chemscore.Internal_Hbond.Weighted>
0.0000

> <Gold.Chemscore.DEClash.Weighted>
1.5718

> <Gold.Chemscore.DEInternal.Weighted>
4.3267

> <Gold.Chemscore.Rot.Weighted>
3.0147

> <Gold.Chemscore.Internal.Correction.Weighted>
   9.000000E+99

> <Gold.Protein.RotatedTorsions>
[ 6907 6896 6895 6894 ] final  171.78 input  -60.11 | X-H torsion
[ 7974 7965 7964 7962 ] final  -47.22 input  175.53 | X-H torsion
[ 8008 7997 7996 7995 ] final  150.99 input   59.86 | X-H torsion
[ 10167 10162 10161 10158 ] final  -66.45 input  -65.29 | X-H torsion
[ 10718 10713 10712 10709 ] final -123.23 input   66.30 | X-H torsion
[ 10763 10752 10751 10750 ] final   59.42 input  -60.55 | X-H torsion
[ 11005 11000 10999 10996 ] final  -83.20 input  -57.11 | X-H torsion

> <Gold.Protein.ActiveResidues>
 VAL166  LYS551  ARG553  GLY616  TRP617  ASP618  TYR619  PRO620  LYS621  CYS622 
 ASP623  PHE694  ASN695  SER759  ASP760  ASP761  ALA762  ILE779  LEU786  VAL792 
 PHE793  MET794  SER795  GLU796  ALA797  LYS798  CYS799  TRP800  GLU811  SER814 

> <Gold.Protein.RotatedAtoms>
  151.7948  133.3363  159.3509 H   0  0  0  0  0  0  0  0  0  0  0  0  # atno 6907 bound_to 6896
  150.7379  134.5809  159.5947 H   0  0  0  0  0  0  0  0  0  0  0  0  # atno 6908 bound_to 6896
  152.3185  134.7411  160.0371 H   0  0  0  0  0  0  0  0  0  0  0  0  # atno 6909 bound_to 6896
  145.9639  140.7452  142.9444 H   0  0  0  0  0  0  0  0  0  0  0  0  # atno 7974 bound_to 7965
  156.2693  140.2060  156.6104 H   0  0  0  0  0  0  0  0  0  0  0  0  # atno 8008 bound_to 7997
  154.6836  140.0537  157.0315 H   0  0  0  0  0  0  0  0  0  0  0  0  # atno 8009 bound_to 7997
  155.0966  140.3202  155.4561 H   0  0  0  0  0  0  0  0  0  0  0  0  # atno 8010 bound_to 7997
  140.5656  143.2314  151.6641 H   0  0  0  0  0  0  0  0  0  0  0  0  # atno 10167 bound_to 10162
  156.1484  130.6517  150.9877 H   0  0  0  0  0  0  0  0  0  0  0  0  # atno 10718 bound_to 10713
  152.9894  135.5572  154.5710 H   0  0  0  0  0  0  0  0  0  0  0  0  # atno 10763 bound_to 10752
  154.5110  135.2802  155.1344 H   0  0  0  0  0  0  0  0  0  0  0  0  # atno 10764 bound_to 10752
  154.2736  135.6358  153.5372 H   0  0  0  0  0  0  0  0  0  0  0  0  # atno 10765 bound_to 10752
  141.1659  133.7282  156.8685 H   0  0  0  0  0  0  0  0  0  0  0  0  # atno 11005 bound_to 11000
  144.6821  140.2636  143.7315 LP  0  0  0  0  0  0  0  0  0  0  0  0  # atno 17320 bound_to 7965
  145.8001  139.1961  143.2053 LP  0  0  0  0  0  0  0  0  0  0  0  0  # atno 17321 bound_to 7965
  139.5091  144.3587  152.0583 LP  0  0  0  0  0  0  0  0  0  0  0  0  # atno 17342 bound_to 10162
  140.2718  144.3955  150.6148 LP  0  0  0  0  0  0  0  0  0  0  0  0  # atno 17343 bound_to 10162
  157.6636  131.0876  150.7780 LP  0  0  0  0  0  0  0  0  0  0  0  0  # atno 17370 bound_to 10713
  156.7850  130.4871  149.5394 LP  0  0  0  0  0  0  0  0  0  0  0  0  # atno 17371 bound_to 10713
  140.1798  134.9041  157.2935 LP  0  0  0  0  0  0  0  0  0  0  0  0  # atno 17394 bound_to 11000
  140.2408  134.3798  155.7481 LP  0  0  0  0  0  0  0  0  0  0  0  0  # atno 17395 bound_to 11000

$$$$
