AV-unprocessed.smi:2651|AV-procd|sdf|10292|dock4
  -GOLD-   2272014303D 1   1.00000     0.00000
 Structure written by MMmdl.
 43 44  0  0  0  0  0  0  0  0  1 V2000
  150.3960  141.5408  156.5964 C   0  0  0  0  0  0  0  0  0  0  0  0
  150.1419  140.3634  155.7190 C   0  0  0  0  0  0  0  0  0  0  0  0
  149.0007  139.7127  155.3432 C   0  0  0  0  0  0  0  0  0  0  0  0
  149.4859  138.6761  154.5025 C   0  0  0  0  0  0  0  0  0  0  0  0
  148.5950  137.7522  153.9001 N   0  0  0  0  0  0  0  0  0  0  0  0
  147.4001  137.3452  154.3600 C   0  0  0  0  0  0  0  0  0  0  0  0
  146.8875  137.7145  155.4164 O   0  0  0  0  0  0  0  0  0  0  0  0
  146.8298  136.4793  153.5054 N   0  0  0  0  0  0  0  0  0  0  0  0
  145.5241  135.8082  153.5982 C   0  0  1  0  0  0  0  0  0  0  0  0
  145.4547  134.9707  154.9006 C   0  0  0  0  0  0  0  0  0  0  0  0
  144.3973  136.8821  153.6412 C   0  0  0  0  0  0  0  0  0  0  0  0
  144.3952  137.7045  152.4913 O   0  0  0  0  0  0  0  0  0  0  0  0
  145.3899  134.8778  152.3397 C   0  0  0  0  0  0  0  0  0  0  0  0
  143.9826  134.2375  152.1896 C   0  0  0  0  0  0  0  0  0  0  0  0
  143.8672  133.3689  150.9266 C   0  0  0  0  0  0  0  0  0  0  0  0
  144.9398  132.2733  150.9041 C   0  0  0  0  0  0  0  0  0  0  0  0
  146.3400  132.8866  151.0237 C   0  0  0  0  0  0  0  0  0  0  0  0
  146.4633  133.7561  152.2851 C   0  0  0  0  0  0  0  0  0  0  0  0
  150.8034  138.6959  154.3715 N   0  0  0  0  0  0  0  0  0  0  0  0
  151.2306  139.7774  155.1507 O   0  0  0  0  0  0  0  0  0  0  0  0
  149.5048  141.8001  157.1681 H   0  0  0  0  0  0  0  0  0  0  0  0
  150.6825  142.4093  156.0034 H   0  0  0  0  0  0  0  0  0  0  0  0
  151.2002  141.3316  157.3023 H   0  0  0  0  0  0  0  0  0  0  0  0
  147.9847  139.9411  155.6288 H   0  0  0  0  0  0  0  0  0  0  0  0
  148.8925  137.3722  153.0139 H   0  0  0  0  0  0  0  0  0  0  0  0
  147.3595  136.2582  152.6750 H   0  0  0  0  0  0  0  0  0  0  0  0
  144.5863  134.3114  154.9002 H   0  0  0  0  0  0  0  0  0  0  0  0
  145.3709  135.6012  155.7860 H   0  0  0  0  0  0  0  0  0  0  0  0
  146.3407  134.3521  155.0412 H   0  0  0  0  0  0  0  0  0  0  0  0
  143.4133  136.4179  153.7106 H   0  0  0  0  0  0  0  0  0  0  0  0
  144.4885  137.5178  154.5220 H   0  0  0  0  0  0  0  0  0  0  0  0
  143.8445  138.4539  152.6596 H   0  0  0  0  0  0  0  0  0  0  0  0
  145.5366  135.4994  151.4553 H   0  0  0  0  0  0  0  0  0  0  0  0
  143.7482  133.6267  153.0619 H   0  0  0  0  0  0  0  0  0  0  0  0
  143.2123  135.0053  152.1366 H   0  0  0  0  0  0  0  0  0  0  0  0
  142.8759  132.9177  150.8761 H   0  0  0  0  0  0  0  0  0  0  0  0
  143.9658  133.9968  150.0402 H   0  0  0  0  0  0  0  0  0  0  0  0
  144.7714  131.5764  151.7264 H   0  0  0  0  0  0  0  0  0  0  0  0
  144.8629  131.6935  149.9837 H   0  0  0  0  0  0  0  0  0  0  0  0
  147.0901  132.0956  151.0444 H   0  0  0  0  0  0  0  0  0  0  0  0
  146.5528  133.4905  150.1407 H   0  0  0  0  0  0  0  0  0  0  0  0
  147.4663  134.1799  152.2999 H   0  0  0  0  0  0  0  0  0  0  0  0
  146.3867  133.1169  153.1651 H   0  0  0  0  0  0  0  0  0  0  0  0
  1  2  1  0  0  0  0
  1 21  1  0  0  0  0
  1 22  1  0  0  0  0
  1 23  1  0  0  0  0
  2 20  1  0  0  0  0
  2  3  2  0  0  0  0
  3  4  1  0  0  0  0
  3 24  1  0  0  0  0
  4  5  1  0  0  0  0
  4 19  2  0  0  0  0
  5  6  1  0  0  0  0
  5 25  1  0  0  0  0
  6  7  2  0  0  0  0
  6  8  1  0  0  0  0
  8  9  1  0  0  0  0
  8 26  1  0  0  0  0
  9 10  1  0  0  0  0
  9 11  1  0  0  0  0
  9 13  1  0  0  0  0
 10 27  1  0  0  0  0
 10 28  1  0  0  0  0
 10 29  1  0  0  0  0
 11 12  1  0  0  0  0
 11 30  1  0  0  0  0
 11 31  1  0  0  0  0
 12 32  1  0  0  0  0
 13 18  1  0  0  0  0
 13 14  1  0  0  0  0
 13 33  1  0  0  0  0
 14 15  1  0  0  0  0
 14 34  1  0  0  0  0
 14 35  1  0  0  0  0
 15 16  1  0  0  0  0
 15 36  1  0  0  0  0
 15 37  1  0  0  0  0
 16 17  1  0  0  0  0
 16 38  1  0  0  0  0
 16 39  1  0  0  0  0
 17 18  1  0  0  0  0
 17 40  1  0  0  0  0
 17 41  1  0  0  0  0
 18 42  1  0  0  0  0
 18 43  1  0  0  0  0
 19 20  1  0  0  0  0
M  END
> <s_m_source_file>
AV-unprocessed.smi

> <i_m_source_file_index>
2651

> <i_lp_mmshare_version>
43012

> <i_f3d_flags>
0

> <s_epik_input>
W0NIM11jMVtjSF1jKG5vMSlbTkhdQyg9TylbTkhdW0NAQF0oW0NIM10pKFtDSDJdW09IXSlbQ0hdMltDSDJdW0NIMl1bQ0gyXVtDSDJdW0NIMl0y

> <s_epik_cmdline>
J2VwaWtfcHl0aG9uJywgJy1waCcsICc3LjAnLCAnLXRuJywgJzgnLCAnLW1hJywgJzIwMCcsICctbWV0YWxfYmluZGluZycsICctaW1hZScsICc8aW5maWxlLm1hZT4nLCAnLW9tYWUnLCAnPG91dGZpbGUubWFlPic=

> <r_lp_tautomer_probability>
1

> <r_epik_Ionization_Penalty>
2.26451e-05

> <r_epik_Ionization_Penalty_Charging>
0

> <r_epik_Ionization_Penalty_Neutral>
2.26451e-05

> <r_epik_State_Penalty>
-0

> <r_epik_Charging_Adjusted_Penalty>
0

> <i_epik_Tot_Q>
0

> <i_epik_Tot_abs_Q>
0

> <r_epik_Metal_State_Penalty>
-0

> <b_epik_Metal_Only>
0

> <s_lp_Force_Field>
OPLS_2005

> <r_lp_Energy>
17.1045

> <b_lp_Chiralities_Consistent>
1

> <s_lp_Variant>
AV-unprocessed.smi:2651-1

> <Gold.Version>
5.8.1

> <Gold.Id.Protein>
6NUR|6NUR_protein|mol2

> <Gold.PLP.Fitness>
39.9266

> <Gold.PLP.PLP>
-28.9443

> <Gold.PLP.part.hbond>
-4.6979

> <Gold.PLP.part.metal>
0.0000

> <Gold.PLP.part.buried>
-3.8179

> <Gold.PLP.part.nonpolar>
-20.7457

> <Gold.PLP.part.repulsive>
0.3299

> <Gold.PLP.ligand.clash>
0.0000

> <Gold.PLP.ligand.torsion>
0.2207

> <Gold.PLP.Chemscore.Hbond>
3.7940

> <Gold.PLP.Chemscore.CHOScore>
0.0000

> <Gold.PLP.Chemscore.Metal>
0.0000

> <Gold.Chemscore.Hbonds>
donor molecule, donor type, donor heavy atom, donor atom, acceptor molecule, acceptor atom, score
      L1  H     5    25       P1  7948  1.00
      L1  H     8    26       P1  7948  0.98
      L1  H    12    32       P1 10175  0.91
      P1  H  7989  7998       L1    20  0.55

> <Gold.PLP.Chemscore.Internal.Correction>
0.0417

> <Gold.Rescore>
     Score         DG    S(hbond)    S(metal)    S(lipo)     H(rot)  DE(clash)    DE(int)     intcor
     16.80     -17.48       2.93        0.00      64.60       2.09       0.13       0.56       ----

> <Gold.Chemscore.Fitness>
16.7980

> <Gold.Chemscore.DG>
-17.4811

> <Gold.Chemscore.ZeroCoef>
-5.4800

> <Gold.Chemscore.Hbond>
2.9348

> <Gold.Chemscore.Metal>
0.0000

> <Gold.Chemscore.Lipo>
64.5993

> <Gold.Chemscore.Internal_Hbond>
0.0000

> <Gold.Chemscore.DEClash>
0.1252

> <Gold.Chemscore.DEInternal>
0.5580

> <Gold.Chemscore.Rot>
2.0935

> <Gold.Chemscore.Internal.Correction>
   9.000000E+99

> <Gold.Chemscore.Hbonds>
donor molecule, donor type, donor heavy atom, donor atom, acceptor molecule, acceptor atom, score
      L1  H     5    25       P1  7948  0.97
      L1  H     8    26       P1  7948  0.93
      L1  H    12    32       P1 10175  0.86
      P1  H  7989  7998       L1    20  0.02

> <Gold.Chemscore.Hbond.Weighted>
-9.8024

> <Gold.Chemscore.Metal.Weighted>
-0.0000

> <Gold.Chemscore.Lipo.Weighted>
-7.5581

> <Gold.Chemscore.Internal_Hbond.Weighted>
0.0000

> <Gold.Chemscore.DEClash.Weighted>
0.1252

> <Gold.Chemscore.DEInternal.Weighted>
0.5580

> <Gold.Chemscore.Rot.Weighted>
5.3594

> <Gold.Chemscore.Internal.Correction.Weighted>
   9.000000E+99

> <Gold.Protein.RotatedTorsions>
[ 6907 6896 6895 6894 ] final   52.09 input  -60.11 | X-H torsion
[ 7974 7965 7964 7962 ] final   19.15 input  175.53 | X-H torsion
[ 8008 7997 7996 7995 ] final   93.63 input   59.86 | X-H torsion
[ 10167 10162 10161 10158 ] final  -32.78 input  -65.29 | X-H torsion
[ 10718 10713 10712 10709 ] final -123.53 input   66.30 | X-H torsion
[ 10763 10752 10751 10750 ] final  -58.16 input  -60.55 | X-H torsion
[ 11005 11000 10999 10996 ] final   -8.64 input  -57.11 | X-H torsion

> <Gold.Protein.ActiveResidues>
 VAL166  LYS551  ARG553  GLY616  TRP617  ASP618  TYR619  PRO620  LYS621  CYS622 
 ASP623  PHE694  ASN695  SER759  ASP760  ASP761  ALA762  ILE779  LEU786  VAL792 
 PHE793  MET794  SER795  GLU796  ALA797  LYS798  CYS799  TRP800  GLU811  SER814 

> <Gold.Protein.RotatedAtoms>
  152.3196  134.7396  160.0316 H   0  0  0  0  0  0  0  0  0  0  0  0  # atno 6907 bound_to 6896
  151.7849  133.3348  159.3490 H   0  0  0  0  0  0  0  0  0  0  0  0  # atno 6908 bound_to 6896
  150.7363  134.5827  159.5991 H   0  0  0  0  0  0  0  0  0  0  0  0  # atno 6909 bound_to 6896
  146.2159  139.8354  142.8651 H   0  0  0  0  0  0  0  0  0  0  0  0  # atno 7974 bound_to 7965
  156.0489  140.3310  155.7328 H   0  0  0  0  0  0  0  0  0  0  0  0  # atno 8008 bound_to 7997
  155.5632  140.0621  157.2841 H   0  0  0  0  0  0  0  0  0  0  0  0  # atno 8009 bound_to 7997
  154.4426  140.1874  156.0792 H   0  0  0  0  0  0  0  0  0  0  0  0  # atno 8010 bound_to 7997
  140.7215  143.3669  151.1854 H   0  0  0  0  0  0  0  0  0  0  0  0  # atno 10167 bound_to 10162
  156.1510  130.6534  150.9913 H   0  0  0  0  0  0  0  0  0  0  0  0  # atno 10718 bound_to 10713
  154.2338  135.6356  153.5184 H   0  0  0  0  0  0  0  0  0  0  0  0  # atno 10763 bound_to 10752
  152.9943  135.5526  154.5984 H   0  0  0  0  0  0  0  0  0  0  0  0  # atno 10764 bound_to 10752
  154.5473  135.2899  155.1015 H   0  0  0  0  0  0  0  0  0  0  0  0  # atno 10765 bound_to 10752
  140.7256  133.8792  155.8854 H   0  0  0  0  0  0  0  0  0  0  0  0  # atno 11005 bound_to 11000
  145.2954  141.0179  143.3639 LP  0  0  0  0  0  0  0  0  0  0  0  0  # atno 17320 bound_to 7965
  144.9046  139.4606  143.6616 LP  0  0  0  0  0  0  0  0  0  0  0  0  # atno 17321 bound_to 7965
  139.7232  143.9190  152.2993 LP  0  0  0  0  0  0  0  0  0  0  0  0  # atno 17342 bound_to 10162
  139.8954  144.6942  150.8724 LP  0  0  0  0  0  0  0  0  0  0  0  0  # atno 17343 bound_to 10162
  157.6657  131.0872  150.7734 LP  0  0  0  0  0  0  0  0  0  0  0  0  # atno 17370 bound_to 10713
  156.7802  130.4857  149.5402 LP  0  0  0  0  0  0  0  0  0  0  0  0  # atno 17371 bound_to 10713
  140.9965  134.1208  157.4358 LP  0  0  0  0  0  0  0  0  0  0  0  0  # atno 17394 bound_to 11000
  139.8838  135.0056  156.6324 LP  0  0  0  0  0  0  0  0  0  0  0  0  # atno 17395 bound_to 11000

$$$$
