AV-unprocessed.smi:565|AV-procd|sdf|2952|dock4
  -GOLD-   2262023453D 1   1.00000     0.00000
 Structure written by MMmdl.
 50 51  0  0  0  0  0  0  0  0  2 V2000
  152.7222  138.6041  154.7673 C   0  0  0  0  0  0  0  0  0  0  0  0
  151.8988  139.5543  155.5893 C   0  0  0  0  0  0  0  0  0  0  0  0
  152.4324  140.1041  156.6669 N   0  0  0  0  0  0  0  0  0  0  0  0
  151.4561  140.8809  157.1771 N   0  0  0  0  0  0  0  0  0  0  0  0
  151.7123  141.6448  158.3829 C   0  0  0  0  0  0  0  0  0  0  0  0
  150.2996  140.8155  156.4247 C   0  0  0  0  0  0  0  0  0  0  0  0
  149.0668  141.5784  156.7898 C   0  0  0  0  0  0  0  0  0  0  0  0
  150.5489  139.9659  155.3798 C   0  0  0  0  0  0  0  0  0  0  0  0
  149.6215  139.5461  154.2677 C   0  0  0  0  0  0  0  0  0  0  0  0
  148.5788  138.5760  154.8207 C   0  0  0  0  0  0  0  0  0  0  0  0
  147.7185  138.9757  155.6053 O   0  0  0  0  0  0  0  0  0  0  0  0
  148.6804  137.2980  154.4245 N   0  0  0  0  0  0  0  0  0  0  0  0
  147.8327  136.2100  154.8942 C   0  0  0  0  0  0  0  0  0  0  0  0
  146.3827  136.3850  154.4027 C   0  0  0  0  0  0  0  0  0  0  0  0
  146.1347  135.7043  153.1072 N   0  3  2  0  0  0  0  0  0  0  0  0
  145.1686  136.4490  152.2587 C   0  0  0  0  0  0  0  0  0  0  0  0
  145.0539  135.8161  150.8629 C   0  0  0  0  0  0  0  0  0  0  0  0
  144.6732  134.3319  150.9598 C   0  0  0  0  0  0  0  0  0  0  0  0
  145.6337  133.5680  151.8897 C   0  0  1  0  0  0  0  0  0  0  0  0
  147.0130  133.3225  151.2522 C   0  0  0  0  0  0  0  0  0  0  0  0
  145.7419  134.2763  153.2559 C   0  0  0  0  0  0  0  0  0  0  0  0
  152.5207  138.7269  153.7033 H   0  0  0  0  0  0  0  0  0  0  0  0
  152.4982  137.5704  155.0311 H   0  0  0  0  0  0  0  0  0  0  0  0
  153.7907  138.7621  154.9191 H   0  0  0  0  0  0  0  0  0  0  0  0
  151.4968  142.6981  158.2023 H   0  0  0  0  0  0  0  0  0  0  0  0
  152.7550  141.5465  158.6879 H   0  0  0  0  0  0  0  0  0  0  0  0
  151.0730  141.2829  159.1882 H   0  0  0  0  0  0  0  0  0  0  0  0
  148.2016  141.2238  156.2297 H   0  0  0  0  0  0  0  0  0  0  0  0
  149.1933  142.6402  156.5777 H   0  0  0  0  0  0  0  0  0  0  0  0
  148.8392  141.4689  157.8504 H   0  0  0  0  0  0  0  0  0  0  0  0
  149.1074  140.4012  153.8278 H   0  0  0  0  0  0  0  0  0  0  0  0
  150.1673  139.0742  153.4499 H   0  0  0  0  0  0  0  0  0  0  0  0
  149.4158  137.0601  153.7742 H   0  0  0  0  0  0  0  0  0  0  0  0
  148.2367  135.2504  154.5668 H   0  0  0  0  0  0  0  0  0  0  0  0
  147.8802  136.2124  155.9824 H   0  0  0  0  0  0  0  0  0  0  0  0
  145.6729  136.0289  155.1514 H   0  0  0  0  0  0  0  0  0  0  0  0
  146.1901  137.4521  154.2820 H   0  0  0  0  0  0  0  0  0  0  0  0
  144.1930  136.4682  152.7474 H   0  0  0  0  0  0  0  0  0  0  0  0
  145.4902  137.4857  152.1521 H   0  0  0  0  0  0  0  0  0  0  0  0
  144.3091  136.3513  150.2734 H   0  0  0  0  0  0  0  0  0  0  0  0
  145.9991  135.9253  150.3303 H   0  0  0  0  0  0  0  0  0  0  0  0
  143.6574  134.2505  151.3487 H   0  0  0  0  0  0  0  0  0  0  0  0
  144.6568  133.8789  149.9678 H   0  0  0  0  0  0  0  0  0  0  0  0
  145.1989  132.5832  152.0659 H   0  0  0  0  0  0  0  0  0  0  0  0
  147.5444  134.2542  151.0575 H   0  0  0  0  0  0  0  0  0  0  0  0
  146.9179  132.7912  150.3048 H   0  0  0  0  0  0  0  0  0  0  0  0
  147.6424  132.7163  151.9043 H   0  0  0  0  0  0  0  0  0  0  0  0
  146.4578  133.7410  153.8782 H   0  0  0  0  0  0  0  0  0  0  0  0
  144.7835  134.2240  153.7751 H   0  0  0  0  0  0  0  0  0  0  0  0
  147.0125  135.7178  152.6077 H   0  0  0  0  0  0  0  0  0  0  0  0
  1  2  1  0  0  0  0
  1 22  1  0  0  0  0
  1 23  1  0  0  0  0
  1 24  1  0  0  0  0
  2  8  1  0  0  0  0
  2  3  2  0  0  0  0
  3  4  1  0  0  0  0
  4  5  1  0  0  0  0
  4  6  1  0  0  0  0
  5 25  1  0  0  0  0
  5 26  1  0  0  0  0
  5 27  1  0  0  0  0
  6  7  1  0  0  0  0
  6  8  2  0  0  0  0
  7 28  1  0  0  0  0
  7 29  1  0  0  0  0
  7 30  1  0  0  0  0
  8  9  1  0  0  0  0
  9 10  1  0  0  0  0
  9 31  1  0  0  0  0
  9 32  1  0  0  0  0
 10 11  2  0  0  0  0
 10 12  1  0  0  0  0
 12 13  1  0  0  0  0
 12 33  1  0  0  0  0
 13 14  1  0  0  0  0
 13 34  1  0  0  0  0
 13 35  1  0  0  0  0
 14 15  1  0  0  0  0
 14 36  1  0  0  0  0
 14 37  1  0  0  0  0
 15 21  1  0  0  0  0
 15 16  1  0  0  0  0
 15 50  1  0  0  0  0
 16 17  1  0  0  0  0
 16 38  1  0  0  0  0
 16 39  1  0  0  0  0
 17 18  1  0  0  0  0
 17 40  1  0  0  0  0
 17 41  1  0  0  0  0
 18 19  1  0  0  0  0
 18 42  1  0  0  0  0
 18 43  1  0  0  0  0
 19 20  1  0  0  0  0
 19 21  1  0  0  0  0
 19 44  1  0  0  0  0
 20 45  1  0  0  0  0
 20 46  1  0  0  0  0
 20 47  1  0  0  0  0
 21 48  1  0  0  0  0
 21 49  1  0  0  0  0
M  CHG  1  15   1
M  END
> <s_m_source_file>
AV-unprocessed.smi

> <i_m_source_file_index>
565

> <i_lp_mmshare_version>
43012

> <i_f3d_flags>
0

> <s_epik_input>
W0NIM11jMW5uKFtDSDNdKWMoW0NIM10pYzFbQ0gyXUMoPU8pW05IXVtDSDJdW0NIMl1OMltDSDJdW0NIMl1bQ0gyXVtDQEBIXShbQ0gzXSlbQ0gyXTI=

> <s_epik_cmdline>
J2VwaWtfcHl0aG9uJywgJy1waCcsICc3LjAnLCAnLXRuJywgJzgnLCAnLW1hJywgJzIwMCcsICctbWV0YWxfYmluZGluZycsICctaW1hZScsICc8aW5maWxlLm1hZT4nLCAnLW9tYWUnLCAnPG91dGZpbGUubWFlPic=

> <r_lp_tautomer_probability>
1

> <r_epik_Ionization_Penalty>
0.00411138

> <r_epik_Ionization_Penalty_Charging>
0.0019503

> <r_epik_Ionization_Penalty_Neutral>
0.00216107

> <r_epik_State_Penalty>
-0

> <r_epik_Charging_Adjusted_Penalty>
0.0019503

> <i_epik_Tot_Q>
1

> <i_epik_Tot_abs_Q>
1

> <r_epik_Metal_State_Penalty>
-0

> <b_epik_Metal_Only>
0

> <s_lp_Force_Field>
OPLS_2005

> <r_lp_Energy>
12.6128

> <b_lp_Chiralities_Consistent>
1

> <s_lp_Variant>
AV-unprocessed.smi:565-2

> <Gold.Version>
5.8.1

> <Gold.Id.Protein>
6NUR|6NUR_protein|mol2

> <Gold.PLP.Fitness>
42.4838

> <Gold.PLP.PLP>
-34.0469

> <Gold.PLP.part.hbond>
-3.0000

> <Gold.PLP.part.metal>
0.0000

> <Gold.PLP.part.buried>
-1.2326

> <Gold.PLP.part.nonpolar>
-29.8825

> <Gold.PLP.part.repulsive>
0.0201

> <Gold.PLP.ligand.clash>
0.0000

> <Gold.PLP.ligand.torsion>
0.8591

> <Gold.PLP.Chemscore.Hbond>
3.3648

> <Gold.PLP.Chemscore.CHOScore>
0.0000

> <Gold.PLP.Chemscore.Metal>
0.0000

> <Gold.Chemscore.Hbonds>
donor molecule, donor type, donor heavy atom, donor atom, acceptor molecule, acceptor atom, score
      L1  H    12    33       P1  7948  0.36
      L1  H    15    50       P1  7948  1.53
      P1  H  7997  8008       L1     3  1.00

> <Gold.PLP.Chemscore.Internal.Correction>
0.0609

> <Gold.Rescore>
     Score         DG    S(hbond)    S(metal)    S(lipo)     H(rot)  DE(clash)    DE(int)     intcor
     17.51     -18.75       2.22        0.00      85.19       1.61       0.37       0.87       ----

> <Gold.Chemscore.Fitness>
17.5089

> <Gold.Chemscore.DG>
-18.7459

> <Gold.Chemscore.ZeroCoef>
-5.4800

> <Gold.Chemscore.Hbond>
2.2248

> <Gold.Chemscore.Metal>
0.0000

> <Gold.Chemscore.Lipo>
85.1910

> <Gold.Chemscore.Internal_Hbond>
0.0000

> <Gold.Chemscore.DEClash>
0.3691

> <Gold.Chemscore.DEInternal>
0.8679

> <Gold.Chemscore.Rot>
1.6142

> <Gold.Chemscore.Internal.Correction>
   9.000000E+99

> <Gold.Chemscore.Hbonds>
donor molecule, donor type, donor heavy atom, donor atom, acceptor molecule, acceptor atom, score
      L1  H    12    33       P1  7948  0.33
      L1  H    15    50       P1  7948  0.75
      P1  H  7997  8008       L1     3  0.69

> <Gold.Chemscore.Hbond.Weighted>
-7.4310

> <Gold.Chemscore.Metal.Weighted>
-0.0000

> <Gold.Chemscore.Lipo.Weighted>
-9.9674

> <Gold.Chemscore.Internal_Hbond.Weighted>
0.0000

> <Gold.Chemscore.DEClash.Weighted>
0.3691

> <Gold.Chemscore.DEInternal.Weighted>
0.8679

> <Gold.Chemscore.Rot.Weighted>
4.1324

> <Gold.Chemscore.Internal.Correction.Weighted>
   9.000000E+99

> <Gold.Protein.RotatedTorsions>
[ 6907 6896 6895 6894 ] final -103.62 input  -60.11 | X-H torsion
[ 7974 7965 7964 7962 ] final  -10.66 input  175.53 | X-H torsion
[ 8008 7997 7996 7995 ] final  -50.11 input   59.86 | X-H torsion
[ 10167 10162 10161 10158 ] final  -58.68 input  -65.29 | X-H torsion
[ 10718 10713 10712 10709 ] final  -35.51 input   66.30 | X-H torsion
[ 10763 10752 10751 10750 ] final   85.89 input  -60.55 | X-H torsion
[ 11005 11000 10999 10996 ] final -167.46 input  -57.11 | X-H torsion

> <Gold.Protein.ActiveResidues>
 VAL166  LYS551  ARG553  GLY616  TRP617  ASP618  TYR619  PRO620  LYS621  CYS622 
 ASP623  PHE694  ASN695  SER759  ASP760  ASP761  ALA762  ILE779  LEU786  VAL792 
 PHE793  MET794  SER795  GLU796  ALA797  LYS798  CYS799  TRP800  GLU811  SER814 

> <Gold.Protein.RotatedAtoms>
  150.7249  134.0401  159.3762 H   0  0  0  0  0  0  0  0  0  0  0  0  # atno 6907 bound_to 6896
  151.8374  135.0599  160.0453 H   0  0  0  0  0  0  0  0  0  0  0  0  # atno 6908 bound_to 6896
  152.2888  133.5505  159.5581 H   0  0  0  0  0  0  0  0  0  0  0  0  # atno 6909 bound_to 6896
  146.2213  140.2796  142.8361 H   0  0  0  0  0  0  0  0  0  0  0  0  # atno 7974 bound_to 7965
  154.4056  140.1280  156.4612 H   0  0  0  0  0  0  0  0  0  0  0  0  # atno 8008 bound_to 7997
  155.7271  140.3492  155.5022 H   0  0  0  0  0  0  0  0  0  0  0  0  # atno 8009 bound_to 7997
  155.9161  140.1044  157.1232 H   0  0  0  0  0  0  0  0  0  0  0  0  # atno 8010 bound_to 7997
  140.6182  143.2410  151.5544 H   0  0  0  0  0  0  0  0  0  0  0  0  # atno 10167 bound_to 10162
  156.3378  130.4289  149.7814 H   0  0  0  0  0  0  0  0  0  0  0  0  # atno 10718 bound_to 10713
  153.1518  135.4600  154.9647 H   0  0  0  0  0  0  0  0  0  0  0  0  # atno 10763 bound_to 10752
  154.7830  135.3195  154.7950 H   0  0  0  0  0  0  0  0  0  0  0  0  # atno 10764 bound_to 10752
  153.8454  135.6926  153.4852 H   0  0  0  0  0  0  0  0  0  0  0  0  # atno 10765 bound_to 10752
  140.5530  134.5409  157.5126 H   0  0  0  0  0  0  0  0  0  0  0  0  # atno 11005 bound_to 11000
  144.9207  140.7864  143.5750 LP  0  0  0  0  0  0  0  0  0  0  0  0  # atno 17320 bound_to 7965
  145.2733  139.1946  143.4830 LP  0  0  0  0  0  0  0  0  0  0  0  0  # atno 17321 bound_to 7965
  139.5416  144.2631  152.1363 LP  0  0  0  0  0  0  0  0  0  0  0  0  # atno 17342 bound_to 10162
  140.1845  144.4812  150.6511 LP  0  0  0  0  0  0  0  0  0  0  0  0  # atno 17343 bound_to 10162
  156.5062  130.8151  151.3151 LP  0  0  0  0  0  0  0  0  0  0  0  0  # atno 17370 bound_to 10713
  157.7442  130.9929  150.2651 LP  0  0  0  0  0  0  0  0  0  0  0  0  # atno 17371 bound_to 10713
  139.9445  134.7726  156.0595 LP  0  0  0  0  0  0  0  0  0  0  0  0  # atno 17394 bound_to 11000
  141.1160  133.6627  156.3095 LP  0  0  0  0  0  0  0  0  0  0  0  0  # atno 17395 bound_to 11000

$$$$
