AV-unprocessed.smi:1820|AV-procd|sdf|7385|dock3
  -GOLD-   22720 9 53D 1   1.00000     0.00000
 Structure written by MMmdl.
 35 36  0  0  0  0  0  0  0  0  2 V2000
  145.4007  138.1218  153.8952 O   0  0  0  0  0  0  0  0  0  0  0  0
  146.4162  137.7240  153.3249 C   0  0  0  0  0  0  0  0  0  0  0  0
  146.5024  136.5391  152.7050 N   0  0  0  0  0  0  0  0  0  0  0  0
  145.4113  135.5769  152.5748 C   0  0  0  0  0  0  0  0  0  0  0  0
  145.2654  135.0173  151.1361 C   0  0  0  0  0  0  0  0  0  0  0  0
  145.3089  136.1018  150.2292 O   0  0  0  0  0  0  0  0  0  0  0  0
  146.2893  133.9339  150.7606 C   0  0  0  0  0  0  0  0  0  0  0  0
  145.7208  132.6375  151.3461 C   0  0  0  0  0  0  0  0  0  0  0  0
  144.1980  132.8345  151.4106 C   0  0  0  0  0  0  0  0  0  0  0  0
  143.9306  134.2786  150.9625 C   0  0  0  0  0  0  0  0  0  0  0  0
  147.5782  138.3957  153.2510 N   0  0  0  0  0  0  0  0  0  0  0  0
  147.8923  139.6841  153.7633 C   0  0  0  0  0  0  0  0  0  0  0  0
  146.8781  140.6668  153.7233 C   0  0  0  0  0  0  0  0  0  0  0  0
  147.1378  141.9564  154.2301 C   0  0  0  0  0  0  0  0  0  0  0  0
  148.3471  142.2399  154.7593 N   0  3  0  0  0  0  0  0  0  0  0  0
  149.3421  141.3304  154.8347 C   0  0  0  0  0  0  0  0  0  0  0  0
  149.1414  140.0243  154.3432 C   0  0  0  0  0  0  0  0  0  0  0  0
  147.3775  136.2913  152.2670 H   0  0  0  0  0  0  0  0  0  0  0  0
  145.6410  134.7631  153.2631 H   0  0  0  0  0  0  0  0  0  0  0  0
  144.4672  135.9984  152.9252 H   0  0  0  0  0  0  0  0  0  0  0  0
  145.5894  135.7787  149.3868 H   0  0  0  0  0  0  0  0  0  0  0  0
  146.3327  133.8332  149.6748 H   0  0  0  0  0  0  0  0  0  0  0  0
  147.3051  134.1395  151.0976 H   0  0  0  0  0  0  0  0  0  0  0  0
  145.9998  131.7686  150.7492 H   0  0  0  0  0  0  0  0  0  0  0  0
  146.1130  132.4820  152.3520 H   0  0  0  0  0  0  0  0  0  0  0  0
  143.6707  132.1230  150.7742 H   0  0  0  0  0  0  0  0  0  0  0  0
  143.8462  132.6803  152.4314 H   0  0  0  0  0  0  0  0  0  0  0  0
  143.1102  134.7437  151.5107 H   0  0  0  0  0  0  0  0  0  0  0  0
  143.6450  134.2659  149.9090 H   0  0  0  0  0  0  0  0  0  0  0  0
  148.3458  137.9019  152.8199 H   0  0  0  0  0  0  0  0  0  0  0  0
  145.9092  140.4398  153.3025 H   0  0  0  0  0  0  0  0  0  0  0  0
  146.4187  142.7625  154.2300 H   0  0  0  0  0  0  0  0  0  0  0  0
  150.2619  141.6700  155.2878 H   0  0  0  0  0  0  0  0  0  0  0  0
  149.9450  139.3093  154.4319 H   0  0  0  0  0  0  0  0  0  0  0  0
  148.5147  143.1789  155.1218 H   0  0  0  0  0  0  0  0  0  0  0  0
  1  2  2  0  0  0  0
  2  3  1  0  0  0  0
  2 11  1  0  0  0  0
  3  4  1  0  0  0  0
  3 18  1  0  0  0  0
  4  5  1  0  0  0  0
  4 19  1  0  0  0  0
  4 20  1  0  0  0  0
  5 10  1  0  0  0  0
  5  6  1  0  0  0  0
  5  7  1  0  0  0  0
  6 21  1  0  0  0  0
  7  8  1  0  0  0  0
  7 22  1  0  0  0  0
  7 23  1  0  0  0  0
  8  9  1  0  0  0  0
  8 24  1  0  0  0  0
  8 25  1  0  0  0  0
  9 10  1  0  0  0  0
  9 26  1  0  0  0  0
  9 27  1  0  0  0  0
 10 28  1  0  0  0  0
 10 29  1  0  0  0  0
 11 12  1  0  0  0  0
 11 30  1  0  0  0  0
 12 17  1  0  0  0  0
 12 13  2  0  0  0  0
 13 14  1  0  0  0  0
 13 31  1  0  0  0  0
 14 15  2  0  0  0  0
 14 32  1  0  0  0  0
 15 16  1  0  0  0  0
 15 35  1  0  0  0  0
 16 17  2  0  0  0  0
 16 33  1  0  0  0  0
 17 34  1  0  0  0  0
M  CHG  1  15   1
M  END
> <s_m_source_file>
AV-unprocessed.smi

> <i_m_source_file_index>
1820

> <i_lp_mmshare_version>
43012

> <i_f3d_flags>
0

> <s_epik_input>
W2NIXTFbY0hdbltjSF1bY0hdYzFbTkhdQyg9TylbTkhdW0NIMl1DMihbT0hdKVtDSDJdW0NIMl1bQ0gyXVtDSDJdMg==

> <s_epik_cmdline>
J2VwaWtfcHl0aG9uJywgJy1waCcsICc3LjAnLCAnLXRuJywgJzgnLCAnLW1hJywgJzIwMCcsICctbWV0YWxfYmluZGluZycsICctaW1hZScsICc8aW5maWxlLm1hZT4nLCAnLW9tYWUnLCAnPG91dGZpbGUubWFlPic=

> <r_epik_Ionization_Penalty>
0.972463

> <r_epik_Ionization_Penalty_Charging>
0.972441

> <r_epik_Ionization_Penalty_Neutral>
2.25054e-05

> <r_epik_State_Penalty>
1.01855

> <r_epik_Charging_Adjusted_Penalty>
1.99099

> <i_epik_Tot_Q>
1

> <i_epik_Tot_abs_Q>
1

> <r_epik_Metal_State_Penalty>
1.12508

> <b_epik_Metal_Only>
0

> <s_lp_Force_Field>
OPLS_2005

> <r_lp_Energy>
34.043

> <b_lp_Chiralities_Consistent>
1

> <s_lp_Variant>
AV-unprocessed.smi:1820-2

> <Gold.Version>
5.8.1

> <Gold.Id.Protein>
6NUR|6NUR_protein|mol2

> <Gold.PLP.Fitness>
45.9011

> <Gold.PLP.PLP>
-32.0841

> <Gold.PLP.part.hbond>
-5.1329

> <Gold.PLP.part.metal>
0.0000

> <Gold.PLP.part.buried>
-4.4902

> <Gold.PLP.part.nonpolar>
-23.9368

> <Gold.PLP.part.repulsive>
0.4258

> <Gold.PLP.ligand.clash>
0.0000

> <Gold.PLP.ligand.torsion>
0.5125

> <Gold.PLP.Chemscore.Hbond>
4.9440

> <Gold.PLP.Chemscore.CHOScore>
0.0000

> <Gold.PLP.Chemscore.Metal>
0.0000

> <Gold.Chemscore.Hbonds>
donor molecule, donor type, donor heavy atom, donor atom, acceptor molecule, acceptor atom, score
      L1  H     3    18       P1  7948  1.00
      L1  H     6    21       P1  7921  0.93
      L1  H    11    30       P1  7948  0.96
      L1  H    15    35       P1  8028  2.00

> <Gold.PLP.Chemscore.Internal.Correction>
0.0100

> <Gold.Rescore>
     Score         DG    S(hbond)    S(metal)    S(lipo)     H(rot)  DE(clash)    DE(int)     intcor
     20.47     -22.35       3.94        0.00      70.80       1.79       0.12       1.76       ----

> <Gold.Chemscore.Fitness>
20.4675

> <Gold.Chemscore.DG>
-22.3454

> <Gold.Chemscore.ZeroCoef>
-5.4800

> <Gold.Chemscore.Hbond>
3.9381

> <Gold.Chemscore.Metal>
0.0000

> <Gold.Chemscore.Lipo>
70.8018

> <Gold.Chemscore.Internal_Hbond>
0.0000

> <Gold.Chemscore.DEClash>
0.1205

> <Gold.Chemscore.DEInternal>
1.7574

> <Gold.Chemscore.Rot>
1.7858

> <Gold.Chemscore.Internal.Correction>
   9.000000E+99

> <Gold.Chemscore.Hbonds>
donor molecule, donor type, donor heavy atom, donor atom, acceptor molecule, acceptor atom, score
      L1  H     3    18       P1  7948  0.99
      L1  H     6    21       P1  7921  0.89
      L1  H    11    30       P1  7948  0.89
      L1  H    15    35       P1  8028  1.00

> <Gold.Chemscore.Hbond.Weighted>
-13.1533

> <Gold.Chemscore.Metal.Weighted>
-0.0000

> <Gold.Chemscore.Lipo.Weighted>
-8.2838

> <Gold.Chemscore.Internal_Hbond.Weighted>
0.0000

> <Gold.Chemscore.DEClash.Weighted>
0.1205

> <Gold.Chemscore.DEInternal.Weighted>
1.7574

> <Gold.Chemscore.Rot.Weighted>
4.5717

> <Gold.Chemscore.Internal.Correction.Weighted>
   9.000000E+99

> <Gold.Protein.RotatedTorsions>
[ 6907 6896 6895 6894 ] final  126.24 input  -60.11 | X-H torsion
[ 7974 7965 7964 7962 ] final -142.17 input  175.53 | X-H torsion
[ 8008 7997 7996 7995 ] final   42.43 input   59.86 | X-H torsion
[ 10167 10162 10161 10158 ] final  115.32 input  -65.29 | X-H torsion
[ 10718 10713 10712 10709 ] final -151.89 input   66.30 | X-H torsion
[ 10763 10752 10751 10750 ] final  -41.12 input  -60.55 | X-H torsion
[ 11005 11000 10999 10996 ] final -144.84 input  -57.11 | X-H torsion

> <Gold.Protein.ActiveResidues>
 VAL166  LYS551  ARG553  GLY616  TRP617  ASP618  TYR619  PRO620  LYS621  CYS622 
 ASP623  PHE694  ASN695  SER759  ASP760  ASP761  ALA762  ILE779  LEU786  VAL792 
 PHE793  MET794  SER795  GLU796  ALA797  LYS798  CYS799  TRP800  GLU811  SER814 

> <Gold.Protein.RotatedAtoms>
  152.3921  133.6694  159.6246 H   0  0  0  0  0  0  0  0  0  0  0  0  # atno 6907 bound_to 6896
  150.7827  133.8936  159.3329 H   0  0  0  0  0  0  0  0  0  0  0  0  # atno 6908 bound_to 6896
  151.6720  135.0976  160.0251 H   0  0  0  0  0  0  0  0  0  0  0  0  # atno 6909 bound_to 6896
  144.8464  140.5991  143.5419 H   0  0  0  0  0  0  0  0  0  0  0  0  # atno 7974 bound_to 7965
  155.2860  140.3375  155.4255 H   0  0  0  0  0  0  0  0  0  0  0  0  # atno 8008 bound_to 7997
  156.2068  140.1754  156.7823 H   0  0  0  0  0  0  0  0  0  0  0  0  # atno 8009 bound_to 7997
  154.5632  140.0683  156.8835 H   0  0  0  0  0  0  0  0  0  0  0  0  # atno 8010 bound_to 7997
  139.6326  144.7116  151.2401 H   0  0  0  0  0  0  0  0  0  0  0  0  # atno 10167 bound_to 10162
  156.4652  130.8232  151.2463 H   0  0  0  0  0  0  0  0  0  0  0  0  # atno 10718 bound_to 10713
  153.9572  135.6744  153.4744 H   0  0  0  0  0  0  0  0  0  0  0  0  # atno 10763 bound_to 10752
  153.0856  135.4901  154.8586 H   0  0  0  0  0  0  0  0  0  0  0  0  # atno 10764 bound_to 10752
  154.7293  135.3134  154.8878 H   0  0  0  0  0  0  0  0  0  0  0  0  # atno 10765 bound_to 10752
  140.7984  134.2886  157.4988 H   0  0  0  0  0  0  0  0  0  0  0  0  # atno 11005 bound_to 11000
  145.4589  139.1515  143.3877 LP  0  0  0  0  0  0  0  0  0  0  0  0  # atno 17320 bound_to 7965
  146.2747  140.4718  142.8800 LP  0  0  0  0  0  0  0  0  0  0  0  0  # atno 17321 bound_to 7965
  140.7447  143.6454  150.8297 LP  0  0  0  0  0  0  0  0  0  0  0  0  # atno 17342 bound_to 10162
  140.0080  143.5672  152.2850 LP  0  0  0  0  0  0  0  0  0  0  0  0  # atno 17343 bound_to 10162
  157.7495  131.0094  150.3266 LP  0  0  0  0  0  0  0  0  0  0  0  0  # atno 17370 bound_to 10713
  156.3675  130.3857  149.7202 LP  0  0  0  0  0  0  0  0  0  0  0  0  # atno 17371 bound_to 10713
  139.8724  134.9415  156.3799 LP  0  0  0  0  0  0  0  0  0  0  0  0  # atno 17394 bound_to 11000
  140.9319  133.7573  156.0036 LP  0  0  0  0  0  0  0  0  0  0  0  0  # atno 17395 bound_to 11000

$$$$
