AV-unprocessed.smi:702|AV-procd|sdf|3425|dock4
  -GOLD-   22720 0413D 1   1.00000     0.00000
 Structure written by MMmdl.
 50 52  0  0  0  0  0  0  0  0  4 V2000
  147.7940  137.7706  157.2279 C   0  0  0  0  0  0  0  0  0  0  0  0
  148.5212  138.1633  155.9251 C   0  0  1  0  0  0  0  0  0  0  0  0
  148.1622  137.1773  154.8989 N   0  5  0  0  0  0  0  0  0  0  0  0
  146.8926  136.8483  154.5366 C   0  0  0  0  0  0  0  0  0  0  0  0
  145.8648  136.9533  155.2145 O   0  0  0  0  0  0  0  0  0  0  0  0
  146.8325  136.3765  153.2787 N   0  0  0  0  0  0  0  0  0  0  0  0
  145.7116  135.8793  152.5604 C   0  0  0  0  0  0  0  0  0  0  0  0
  145.7937  135.8575  151.1507 C   0  0  0  0  0  0  0  0  0  0  0  0
  144.7140  135.3508  150.3994 C   0  0  0  0  0  0  0  0  0  0  0  0
  143.6174  134.8800  151.0314 N   0  3  0  0  0  0  0  0  0  0  0  0
  143.5004  134.8635  152.3766 C   0  0  0  0  0  0  0  0  0  0  0  0
  144.5482  135.3567  153.1802 C   0  0  0  0  0  0  0  0  0  0  0  0
  148.2615  139.6402  155.3918 C   0  0  0  0  0  0  0  0  0  0  0  0
  149.0316  140.7171  156.1513 N   0  3  0  0  0  0  0  0  0  0  0  0
  148.7099  140.9245  157.5973 C   0  0  0  0  0  0  0  0  0  0  0  0
  149.2736  142.2686  158.0802 C   0  0  0  0  0  0  0  0  0  0  0  0
  150.6800  142.2905  157.8779 O   0  0  0  0  0  0  0  0  0  0  0  0
  151.0172  142.1712  156.5026 C   0  0  0  0  0  0  0  0  0  0  0  0
  150.5066  140.8318  155.9459 C   0  0  0  0  0  0  0  0  0  0  0  0
  148.4681  139.7798  153.8533 C   0  0  0  0  0  0  0  0  0  0  0  0
  147.7525  141.0737  153.4467 C   0  0  0  0  0  0  0  0  0  0  0  0
  146.6249  141.2445  154.4709 C   0  0  0  0  0  0  0  0  0  0  0  0
  146.7614  140.0553  155.4336 C   0  0  0  0  0  0  0  0  0  0  0  0
  148.0789  138.4039  158.0663 H   0  0  0  0  0  0  0  0  0  0  0  0
  148.0525  136.7510  157.5170 H   0  0  0  0  0  0  0  0  0  0  0  0
  146.7097  137.8047  157.1276 H   0  0  0  0  0  0  0  0  0  0  0  0
  149.5835  138.1121  156.1669 H   0  0  0  0  0  0  0  0  0  0  0  0
  147.6948  136.4322  152.7567 H   0  0  0  0  0  0  0  0  0  0  0  0
  146.6734  136.2315  150.6468 H   0  0  0  0  0  0  0  0  0  0  0  0
  144.6962  135.3061  149.3204 H   0  0  0  0  0  0  0  0  0  0  0  0
  142.5814  134.4528  152.7681 H   0  0  0  0  0  0  0  0  0  0  0  0
  144.4476  135.3144  154.2541 H   0  0  0  0  0  0  0  0  0  0  0  0
  147.6372  140.9070  157.7794 H   0  0  0  0  0  0  0  0  0  0  0  0
  149.1447  140.1268  158.2011 H   0  0  0  0  0  0  0  0  0  0  0  0
  148.8011  143.1018  157.5573 H   0  0  0  0  0  0  0  0  0  0  0  0
  149.0694  142.4013  159.1428 H   0  0  0  0  0  0  0  0  0  0  0  0
  150.6010  143.0088  155.9403 H   0  0  0  0  0  0  0  0  0  0  0  0
  152.1013  142.2291  156.4012 H   0  0  0  0  0  0  0  0  0  0  0  0
  151.0313  140.0172  156.4426 H   0  0  0  0  0  0  0  0  0  0  0  0
  150.7831  140.7994  154.8957 H   0  0  0  0  0  0  0  0  0  0  0  0
  149.5019  139.7359  153.5134 H   0  0  0  0  0  0  0  0  0  0  0  0
  147.9649  138.9771  153.3120 H   0  0  0  0  0  0  0  0  0  0  0  0
  148.4373  141.9209  153.5000 H   0  0  0  0  0  0  0  0  0  0  0  0
  147.3756  141.0197  152.4249 H   0  0  0  0  0  0  0  0  0  0  0  0
  146.7483  142.1860  155.0075 H   0  0  0  0  0  0  0  0  0  0  0  0
  145.6423  141.2633  153.9984 H   0  0  0  0  0  0  0  0  0  0  0  0
  146.1082  139.2749  155.0415 H   0  0  0  0  0  0  0  0  0  0  0  0
  146.3774  140.2913  156.4249 H   0  0  0  0  0  0  0  0  0  0  0  0
  148.6847  141.5565  155.7111 H   0  0  0  0  0  0  0  0  0  0  0  0
  142.8474  134.5165  150.4695 H   0  0  0  0  0  0  0  0  0  0  0  0
  1  2  1  0  0  0  0
  1 24  1  0  0  0  0
  1 25  1  0  0  0  0
  1 26  1  0  0  0  0
  2  3  1  0  0  0  0
  2 13  1  0  0  0  0
  2 27  1  0  0  0  0
  3  4  1  0  0  0  0
  4  5  2  0  0  0  0
  4  6  1  0  0  0  0
  6  7  1  0  0  0  0
  6 28  1  0  0  0  0
  7 12  1  0  0  0  0
  7  8  2  0  0  0  0
  8  9  1  0  0  0  0
  8 29  1  0  0  0  0
  9 10  2  0  0  0  0
  9 30  1  0  0  0  0
 10 11  1  0  0  0  0
 10 50  1  0  0  0  0
 11 12  2  0  0  0  0
 11 31  1  0  0  0  0
 12 32  1  0  0  0  0
 13 23  1  0  0  0  0
 13 14  1  0  0  0  0
 13 20  1  0  0  0  0
 14 19  1  0  0  0  0
 14 15  1  0  0  0  0
 14 49  1  0  0  0  0
 15 16  1  0  0  0  0
 15 33  1  0  0  0  0
 15 34  1  0  0  0  0
 16 17  1  0  0  0  0
 16 35  1  0  0  0  0
 16 36  1  0  0  0  0
 17 18  1  0  0  0  0
 18 19  1  0  0  0  0
 18 37  1  0  0  0  0
 18 38  1  0  0  0  0
 19 39  1  0  0  0  0
 19 40  1  0  0  0  0
 20 21  1  0  0  0  0
 20 41  1  0  0  0  0
 20 42  1  0  0  0  0
 21 22  1  0  0  0  0
 21 43  1  0  0  0  0
 21 44  1  0  0  0  0
 22 23  1  0  0  0  0
 22 45  1  0  0  0  0
 22 46  1  0  0  0  0
 23 47  1  0  0  0  0
 23 48  1  0  0  0  0
M  CHG  1   3  -1
M  CHG  1  10   1
M  CHG  1  14   1
M  END
> <s_m_source_file>
AV-unprocessed.smi

> <i_m_source_file_index>
702

> <i_lp_mmshare_version>
43012

> <i_f3d_flags>
0

> <s_epik_input>
W0NIMl0xW0NIMl1PW0NIMl1bQ0gyXU4xQzIoW0NIMl1bQ0gyXVtDSDJdW0NIMl0yKVtDQEhdKFtDSDNdKVtOSF1DKD1PKVtOSF1jM1tjSF1bY0hdbltjSF1bY0hdMw==

> <s_epik_cmdline>
J2VwaWtfcHl0aG9uJywgJy1waCcsICc3LjAnLCAnLXRuJywgJzgnLCAnLW1hJywgJzIwMCcsICctbWV0YWxfYmluZGluZycsICctaW1hZScsICc8aW5maWxlLm1hZT4nLCAnLW9tYWUnLCAnPG91dGZpbGUubWFlPic=

> <r_epik_Ionization_Penalty>
8.33674

> <r_epik_Ionization_Penalty_Charging>
8.33674

> <r_epik_Ionization_Penalty_Neutral>
3.60854e-06

> <r_epik_State_Penalty>
8.24268

> <r_epik_Charging_Adjusted_Penalty>
16.5794

> <i_epik_Tot_Q>
1

> <i_epik_Tot_abs_Q>
3

> <r_epik_Metal_State_Penalty>
4.24853

> <b_epik_Metal_Only>
1

> <s_lp_Force_Field>
OPLS_2005

> <r_lp_Energy>
61.2868

> <b_lp_Chiralities_Consistent>
1

> <s_lp_Variant>
AV-unprocessed.smi:702-10

> <Gold.Version>
5.8.1

> <Gold.Id.Protein>
6NUR|6NUR_protein|mol2

> <Gold.PLP.Fitness>
34.0264

> <Gold.PLP.PLP>
-26.8071

> <Gold.PLP.part.hbond>
-2.0000

> <Gold.PLP.part.metal>
0.0000

> <Gold.PLP.part.buried>
-4.2311

> <Gold.PLP.part.nonpolar>
-20.8916

> <Gold.PLP.part.repulsive>
0.2427

> <Gold.PLP.ligand.clash>
0.0000

> <Gold.PLP.ligand.torsion>
1.1193

> <Gold.PLP.Chemscore.Hbond>
3.0000

> <Gold.PLP.Chemscore.CHOScore>
0.0000

> <Gold.PLP.Chemscore.Metal>
0.0000

> <Gold.Chemscore.Hbonds>
donor molecule, donor type, donor heavy atom, donor atom, acceptor molecule, acceptor atom, score
      L1  H     6    28       P1  7948  1.00
      L1  H    10    50       P1 10186  1.92

> <Gold.PLP.Chemscore.Internal.Correction>
0.4580

> <Gold.Rescore>
     Score         DG    S(hbond)    S(metal)    S(lipo)     H(rot)  DE(clash)    DE(int)     intcor
     11.35     -14.89       1.71        0.00      63.46       1.45       0.03       3.50       ----

> <Gold.Chemscore.Fitness>
11.3531

> <Gold.Chemscore.DG>
-14.8868

> <Gold.Chemscore.ZeroCoef>
-5.4800

> <Gold.Chemscore.Hbond>
1.7051

> <Gold.Chemscore.Metal>
0.0000

> <Gold.Chemscore.Lipo>
63.4575

> <Gold.Chemscore.Internal_Hbond>
0.0000

> <Gold.Chemscore.DEClash>
0.0294

> <Gold.Chemscore.DEInternal>
3.5043

> <Gold.Chemscore.Rot>
1.4504

> <Gold.Chemscore.Internal.Correction>
   9.000000E+99

> <Gold.Chemscore.Hbonds>
donor molecule, donor type, donor heavy atom, donor atom, acceptor molecule, acceptor atom, score
      L1  H     6    28       P1  7948  0.95
      L1  H    10    50       P1 10186  0.45

> <Gold.Chemscore.Hbond.Weighted>
-5.6952

> <Gold.Chemscore.Metal.Weighted>
-0.0000

> <Gold.Chemscore.Lipo.Weighted>
-7.4245

> <Gold.Chemscore.Internal_Hbond.Weighted>
0.0000

> <Gold.Chemscore.DEClash.Weighted>
0.0294

> <Gold.Chemscore.DEInternal.Weighted>
3.5043

> <Gold.Chemscore.Rot.Weighted>
3.7129

> <Gold.Chemscore.Internal.Correction.Weighted>
   9.000000E+99

> <Gold.Protein.RotatedTorsions>
[ 6907 6896 6895 6894 ] final -174.71 input  -60.11 | X-H torsion
[ 7974 7965 7964 7962 ] final  -12.45 input  175.53 | X-H torsion
[ 8008 7997 7996 7995 ] final -108.36 input   59.86 | X-H torsion
[ 10167 10162 10161 10158 ] final -120.64 input  -65.29 | X-H torsion
[ 10718 10713 10712 10709 ] final -151.35 input   66.30 | X-H torsion
[ 10763 10752 10751 10750 ] final  -14.35 input  -60.55 | X-H torsion
[ 11005 11000 10999 10996 ] final  -78.74 input  -57.11 | X-H torsion

> <Gold.Protein.ActiveResidues>
 VAL166  LYS551  ARG553  GLY616  TRP617  ASP618  TYR619  PRO620  LYS621  CYS622 
 ASP623  PHE694  ASN695  SER759  ASP760  ASP761  ALA762  ILE779  LEU786  VAL792 
 PHE793  MET794  SER795  GLU796  ALA797  LYS798  CYS799  TRP800  GLU811  SER814 

> <Gold.Protein.RotatedAtoms>
  151.5768  133.3383  159.3000 H   0  0  0  0  0  0  0  0  0  0  0  0  # atno 6907 bound_to 6896
  150.8336  134.7603  159.6885 H   0  0  0  0  0  0  0  0  0  0  0  0  # atno 6908 bound_to 6896
  152.4416  134.5586  159.9939 H   0  0  0  0  0  0  0  0  0  0  0  0  # atno 6909 bound_to 6896
  146.2151  140.3059  142.8379 H   0  0  0  0  0  0  0  0  0  0  0  0  # atno 7974 bound_to 7965
  154.9431  140.0402  157.2107 H   0  0  0  0  0  0  0  0  0  0  0  0  # atno 8008 bound_to 7997
  154.8050  140.2858  155.5872 H   0  0  0  0  0  0  0  0  0  0  0  0  # atno 8009 bound_to 7997
  156.2965  140.2548  156.2926 H   0  0  0  0  0  0  0  0  0  0  0  0  # atno 8010 bound_to 7997
  140.0337  143.5223  152.2164 H   0  0  0  0  0  0  0  0  0  0  0  0  # atno 10167 bound_to 10162
  156.4581  130.8200  151.2431 H   0  0  0  0  0  0  0  0  0  0  0  0  # atno 10718 bound_to 10713
  153.5269  135.7015  153.5703 H   0  0  0  0  0  0  0  0  0  0  0  0  # atno 10763 bound_to 10752
  153.3727  135.3940  155.1800 H   0  0  0  0  0  0  0  0  0  0  0  0  # atno 10764 bound_to 10752
  154.8689  135.3816  154.4762 H   0  0  0  0  0  0  0  0  0  0  0  0  # atno 10765 bound_to 10752
  141.1666  133.7076  156.8018 H   0  0  0  0  0  0  0  0  0  0  0  0  # atno 11005 bound_to 11000
  144.9023  140.7657  143.5859 LP  0  0  0  0  0  0  0  0  0  0  0  0  # atno 17320 bound_to 7965
  145.2986  139.1858  143.4702 LP  0  0  0  0  0  0  0  0  0  0  0  0  # atno 17321 bound_to 7965
  139.6059  144.7596  151.3062 LP  0  0  0  0  0  0  0  0  0  0  0  0  # atno 17342 bound_to 10162
  140.7291  143.6917  150.7916 LP  0  0  0  0  0  0  0  0  0  0  0  0  # atno 17343 bound_to 10162
  157.7499  131.0116  150.3351 LP  0  0  0  0  0  0  0  0  0  0  0  0  # atno 17370 bound_to 10713
  156.3745  130.3869  149.7149 LP  0  0  0  0  0  0  0  0  0  0  0  0  # atno 17371 bound_to 10713
  140.2251  134.8728  157.3418 LP  0  0  0  0  0  0  0  0  0  0  0  0  # atno 17394 bound_to 11000
  140.1948  134.4327  155.7695 LP  0  0  0  0  0  0  0  0  0  0  0  0  # atno 17395 bound_to 11000

$$$$
