AV-unprocessed.smi:2856|AV-procd|sdf|10994|dock8
  -GOLD-   2272015453D 1   1.00000     0.00000
 Structure written by MMmdl.
 37 38  0  0  0  0  0  0  0  0  1 V2000
  150.7661  142.2061  157.9514 C   0  0  0  0  0  0  0  0  0  0  0  0
  151.6837  140.6422  157.9615 S   0  0  0  0  0  0  0  0  0  0  0  0
  151.4312  140.0807  156.2472 C   0  0  1  0  0  0  0  0  0  0  0  0
  152.5465  139.1041  155.8252 C   0  0  0  0  0  0  0  0  0  0  0  0
  152.3740  138.6489  154.3674 C   0  0  0  0  0  0  0  0  0  0  0  0
  150.9879  138.0282  154.1372 C   0  0  0  0  0  0  0  0  0  0  0  0
  149.8671  138.9944  154.5580 C   0  0  0  0  0  0  0  0  0  0  0  0
  150.0252  139.4726  156.0176 C   0  0  1  0  0  0  0  0  0  0  0  0
  149.7668  138.3757  156.9517 N   0  0  0  0  0  0  0  0  0  0  0  0
  148.9436  138.4320  158.0084 C   0  0  0  0  0  0  0  0  0  0  0  0
  148.2999  139.4352  158.3169 O   0  0  0  0  0  0  0  0  0  0  0  0
  148.9157  137.2609  158.6671 N   0  0  0  0  0  0  0  0  0  0  0  0
  148.1586  136.9370  159.8218 C   0  0  0  0  0  0  0  0  0  0  0  0
  148.4142  135.7452  160.5509 C   0  0  0  0  0  0  0  0  0  0  0  0
  147.4926  135.7975  161.5589 C   0  0  0  0  0  0  0  0  0  0  0  0
  147.1744  134.8832  162.6917 C   0  0  0  0  0  0  0  0  0  0  0  0
  146.7432  136.9287  161.4577 O   0  0  0  0  0  0  0  0  0  0  0  0
  147.1749  137.6552  160.3416 N   0  0  0  0  0  0  0  0  0  0  0  0
  150.9026  142.7246  158.9005 H   0  0  0  0  0  0  0  0  0  0  0  0
  149.7003  142.0289  157.8116 H   0  0  0  0  0  0  0  0  0  0  0  0
  151.1223  142.8544  157.1508 H   0  0  0  0  0  0  0  0  0  0  0  0
  151.5225  140.9676  155.6183 H   0  0  0  0  0  0  0  0  0  0  0  0
  153.5206  139.5794  155.9444 H   0  0  0  0  0  0  0  0  0  0  0  0
  152.5488  138.2333  156.4820 H   0  0  0  0  0  0  0  0  0  0  0  0
  152.5073  139.5017  153.7006 H   0  0  0  0  0  0  0  0  0  0  0  0
  153.1514  137.9297  154.1080 H   0  0  0  0  0  0  0  0  0  0  0  0
  150.8716  137.7619  153.0864 H   0  0  0  0  0  0  0  0  0  0  0  0
  150.9050  137.0980  154.7005 H   0  0  0  0  0  0  0  0  0  0  0  0
  149.8802  139.8614  153.8963 H   0  0  0  0  0  0  0  0  0  0  0  0
  148.8943  138.5227  154.4141 H   0  0  0  0  0  0  0  0  0  0  0  0
  149.2857  140.2553  156.1904 H   0  0  0  0  0  0  0  0  0  0  0  0
  150.2582  137.5111  156.7779 H   0  0  0  0  0  0  0  0  0  0  0  0
  149.4893  136.5180  158.2964 H   0  0  0  0  0  0  0  0  0  0  0  0
  149.1479  134.9748  160.3656 H   0  0  0  0  0  0  0  0  0  0  0  0
  147.7616  133.9667  162.6300 H   0  0  0  0  0  0  0  0  0  0  0  0
  146.1192  134.6095  162.6822 H   0  0  0  0  0  0  0  0  0  0  0  0
  147.3919  135.3608  163.6470 H   0  0  0  0  0  0  0  0  0  0  0  0
  1  2  1  0  0  0  0
  1 19  1  0  0  0  0
  1 20  1  0  0  0  0
  1 21  1  0  0  0  0
  2  3  1  0  0  0  0
  3  8  1  0  0  0  0
  3  4  1  0  0  0  0
  3 22  1  0  0  0  0
  4  5  1  0  0  0  0
  4 23  1  0  0  0  0
  4 24  1  0  0  0  0
  5  6  1  0  0  0  0
  5 25  1  0  0  0  0
  5 26  1  0  0  0  0
  6  7  1  0  0  0  0
  6 27  1  0  0  0  0
  6 28  1  0  0  0  0
  7  8  1  0  0  0  0
  7 29  1  0  0  0  0
  7 30  1  0  0  0  0
  8  9  1  0  0  0  0
  8 31  1  0  0  0  0
  9 10  1  0  0  0  0
  9 32  1  0  0  0  0
 10 11  2  0  0  0  0
 10 12  1  0  0  0  0
 12 13  1  0  0  0  0
 12 33  1  0  0  0  0
 13 18  2  0  0  0  0
 13 14  1  0  0  0  0
 14 15  2  0  0  0  0
 14 34  1  0  0  0  0
 15 16  1  0  0  0  0
 15 17  1  0  0  0  0
 16 35  1  0  0  0  0
 16 36  1  0  0  0  0
 16 37  1  0  0  0  0
 17 18  1  0  0  0  0
M  END
> <s_m_source_file>
AV-unprocessed.smi

> <i_m_source_file_index>
2856

> <i_lp_mmshare_version>
43012

> <i_f3d_flags>
0

> <s_epik_input>
W0NIM11TW0NAQEhdMVtDSDJdW0NIMl1bQ0gyXVtDSDJdW0NASF0xW05IXUMoPU8pW05IXWMyW2NIXWMoW0NIM10pb24y

> <s_epik_cmdline>
J2VwaWtfcHl0aG9uJywgJy1waCcsICc3LjAnLCAnLXRuJywgJzgnLCAnLW1hJywgJzIwMCcsICctbWV0YWxfYmluZGluZycsICctaW1hZScsICc8aW5maWxlLm1hZT4nLCAnLW9tYWUnLCAnPG91dGZpbGUubWFlPic=

> <r_lp_tautomer_probability>
1

> <r_epik_Ionization_Penalty>
2.20874e-05

> <r_epik_Ionization_Penalty_Charging>
0

> <r_epik_Ionization_Penalty_Neutral>
2.20874e-05

> <r_epik_State_Penalty>
-0

> <r_epik_Charging_Adjusted_Penalty>
0

> <i_epik_Tot_Q>
0

> <i_epik_Tot_abs_Q>
0

> <r_epik_Metal_State_Penalty>
-0

> <b_epik_Metal_Only>
0

> <s_lp_Force_Field>
OPLS_2005

> <r_lp_Energy>
4.92743

> <b_lp_Chiralities_Consistent>
1

> <s_lp_Variant>
AV-unprocessed.smi:2856-2

> <Gold.Version>
5.8.1

> <Gold.Id.Protein>
6NUR|6NUR_protein|mol2

> <Gold.PLP.Fitness>
33.7690

> <Gold.PLP.PLP>
-31.4621

> <Gold.PLP.part.hbond>
-2.2755

> <Gold.PLP.part.metal>
0.0000

> <Gold.PLP.part.buried>
-3.2303

> <Gold.PLP.part.nonpolar>
-25.9571

> <Gold.PLP.part.repulsive>
0.1493

> <Gold.PLP.ligand.clash>
0.0000

> <Gold.PLP.ligand.torsion>
0.3539

> <Gold.PLP.Chemscore.Hbond>
1.0000

> <Gold.PLP.Chemscore.CHOScore>
0.0000

> <Gold.PLP.Chemscore.Metal>
0.0000

> <Gold.Chemscore.Hbonds>
donor molecule, donor type, donor heavy atom, donor atom, acceptor molecule, acceptor atom, score
      P1  H  6934  6947       L1    18  0.88

> <Gold.PLP.Chemscore.Internal.Correction>
0.0147

> <Gold.Rescore>
     Score         DG    S(hbond)    S(metal)    S(lipo)     H(rot)  DE(clash)    DE(int)     intcor
     12.41     -14.13       0.94        0.00      73.61       1.21       0.00       1.72       ----

> <Gold.Chemscore.Fitness>
12.4117

> <Gold.Chemscore.DG>
-14.1320

> <Gold.Chemscore.ZeroCoef>
-5.4800

> <Gold.Chemscore.Hbond>
0.9402

> <Gold.Chemscore.Metal>
0.0000

> <Gold.Chemscore.Lipo>
73.6051

> <Gold.Chemscore.Internal_Hbond>
0.0000

> <Gold.Chemscore.DEClash>
0.0009

> <Gold.Chemscore.DEInternal>
1.7194

> <Gold.Chemscore.Rot>
1.2109

> <Gold.Chemscore.Internal.Correction>
   9.000000E+99

> <Gold.Chemscore.Hbonds>
donor molecule, donor type, donor heavy atom, donor atom, acceptor molecule, acceptor atom, score
      P1  H  6934  6947       L1    18  0.22

> <Gold.Chemscore.Hbond.Weighted>
-3.1402

> <Gold.Chemscore.Metal.Weighted>
-0.0000

> <Gold.Chemscore.Lipo.Weighted>
-8.6118

> <Gold.Chemscore.Internal_Hbond.Weighted>
0.0000

> <Gold.Chemscore.DEClash.Weighted>
0.0009

> <Gold.Chemscore.DEInternal.Weighted>
1.7194

> <Gold.Chemscore.Rot.Weighted>
3.1000

> <Gold.Chemscore.Internal.Correction.Weighted>
   9.000000E+99

> <Gold.Protein.RotatedTorsions>
[ 6907 6896 6895 6894 ] final -150.10 input  -60.11 | X-H torsion
[ 7974 7965 7964 7962 ] final  -60.46 input  175.53 | X-H torsion
[ 8008 7997 7996 7995 ] final   54.08 input   59.86 | X-H torsion
[ 10167 10162 10161 10158 ] final -161.26 input  -65.29 | X-H torsion
[ 10718 10713 10712 10709 ] final   57.67 input   66.30 | X-H torsion
[ 10763 10752 10751 10750 ] final  -92.27 input  -60.55 | X-H torsion
[ 11005 11000 10999 10996 ] final  -15.51 input  -57.11 | X-H torsion

> <Gold.Protein.ActiveResidues>
 VAL166  LYS551  ARG553  GLY616  TRP617  ASP618  TYR619  PRO620  LYS621  CYS622 
 ASP623  PHE694  ASN695  SER759  ASP760  ASP761  ALA762  ILE779  LEU786  VAL792 
 PHE793  MET794  SER795  GLU796  ALA797  LYS798  CYS799  TRP800  GLU811  SER814 

> <Gold.Protein.RotatedAtoms>
  151.1937  133.4652  159.2594 H   0  0  0  0  0  0  0  0  0  0  0  0  # atno 6907 bound_to 6896
  151.1138  135.0041  159.8516 H   0  0  0  0  0  0  0  0  0  0  0  0  # atno 6908 bound_to 6896
  152.5452  134.1854  159.8705 H   0  0  0  0  0  0  0  0  0  0  0  0  # atno 6909 bound_to 6896
  145.8152  140.8574  143.0161 H   0  0  0  0  0  0  0  0  0  0  0  0  # atno 7974 bound_to 7965
  155.4789  140.3468  155.4337 H   0  0  0  0  0  0  0  0  0  0  0  0  # atno 8008 bound_to 7997
  156.1052  140.1446  156.9442 H   0  0  0  0  0  0  0  0  0  0  0  0  # atno 8009 bound_to 7997
  154.4719  140.0898  156.7145 H   0  0  0  0  0  0  0  0  0  0  0  0  # atno 8010 bound_to 7997
  139.6478  144.0140  152.2140 H   0  0  0  0  0  0  0  0  0  0  0  0  # atno 10167 bound_to 10162
  157.5534  130.8782  149.8998 H   0  0  0  0  0  0  0  0  0  0  0  0  # atno 10718 bound_to 10713
  154.6844  135.5237  153.8307 H   0  0  0  0  0  0  0  0  0  0  0  0  # atno 10763 bound_to 10752
  153.0587  135.6560  154.0523 H   0  0  0  0  0  0  0  0  0  0  0  0  # atno 10764 bound_to 10752
  154.0406  135.2977  155.3335 H   0  0  0  0  0  0  0  0  0  0  0  0  # atno 10765 bound_to 10752
  140.7974  133.8240  155.9437 H   0  0  0  0  0  0  0  0  0  0  0  0  # atno 11005 bound_to 11000
  144.6753  140.0453  143.7480 LP  0  0  0  0  0  0  0  0  0  0  0  0  # atno 17320 bound_to 7965
  145.9734  139.2887  143.1085 LP  0  0  0  0  0  0  0  0  0  0  0  0  # atno 17321 bound_to 7965
  139.9846  144.6404  150.7869 LP  0  0  0  0  0  0  0  0  0  0  0  0  # atno 17342 bound_to 10162
  140.7523  143.2988  151.3135 LP  0  0  0  0  0  0  0  0  0  0  0  0  # atno 17343 bound_to 10162
  156.0596  130.3702  150.1011 LP  0  0  0  0  0  0  0  0  0  0  0  0  # atno 17370 bound_to 10713
  156.9182  130.9674  151.3552 LP  0  0  0  0  0  0  0  0  0  0  0  0  # atno 17371 bound_to 10713
  140.9329  134.1999  157.4851 LP  0  0  0  0  0  0  0  0  0  0  0  0  # atno 17394 bound_to 11000
  139.8725  134.9840  156.5221 LP  0  0  0  0  0  0  0  0  0  0  0  0  # atno 17395 bound_to 11000

$$$$
