AV-unprocessed.smi:1772|AV-procd|sdf|7159|dock3
  -GOLD-   22720 8393D 1   1.00000     0.00000
 Structure written by MMmdl.
 33 34  0  0  0  0  0  0  0  0  1 V2000
  144.7098  137.0117  151.4317 O   0  0  0  0  0  0  0  0  0  0  0  0
  145.9025  136.7692  151.6153 C   0  0  0  0  0  0  0  0  0  0  0  0
  146.7950  137.7004  151.9805 N   0  0  0  0  0  0  0  0  0  0  0  0
  146.4854  139.1056  152.2243 C   0  0  0  0  0  0  0  0  0  0  0  0
  147.1020  139.6277  153.5380 C   0  0  2  0  0  0  0  0  0  0  0  0
  147.4866  141.1217  153.4871 C   0  0  0  0  0  0  0  0  0  0  0  0
  148.3530  141.4461  154.7075 C   0  0  0  0  0  0  0  0  0  0  0  0
  149.3470  139.9406  155.0176 S   0  0  0  0  0  0  0  0  0  0  0  0
  150.6805  140.1036  154.4190 O   0  0  0  0  0  0  0  0  0  0  0  0
  149.1922  139.5436  156.4252 O   0  0  0  0  0  0  0  0  0  0  0  0
  148.3505  138.8309  153.9507 C   0  0  0  0  0  0  0  0  0  0  0  0
  146.4880  135.5684  151.4619 N   0  0  0  0  0  0  0  0  0  0  0  0
  145.8930  134.3249  151.1140 C   0  0  0  0  0  0  0  0  0  0  0  0
  144.4855  134.2689  151.0404 C   0  0  0  0  0  0  0  0  0  0  0  0
  143.8715  133.0526  150.6806 C   0  0  0  0  0  0  0  0  0  0  0  0
  144.5626  131.9300  150.3917 N   0  0  0  0  0  0  0  0  0  0  0  0
  145.9100  131.9886  150.4490 C   0  0  0  0  0  0  0  0  0  0  0  0
  146.6227  133.1534  150.7976 C   0  0  0  0  0  0  0  0  0  0  0  0
  147.7558  137.4173  152.1065 H   0  0  0  0  0  0  0  0  0  0  0  0
  146.8273  139.7085  151.3812 H   0  0  0  0  0  0  0  0  0  0  0  0
  145.4004  139.2093  152.2540 H   0  0  0  0  0  0  0  0  0  0  0  0
  146.3708  139.5111  154.3395 H   0  0  0  0  0  0  0  0  0  0  0  0
  148.0659  141.3123  152.5827 H   0  0  0  0  0  0  0  0  0  0  0  0
  146.6087  141.7673  153.4457 H   0  0  0  0  0  0  0  0  0  0  0  0
  149.0048  142.3063  154.5555 H   0  0  0  0  0  0  0  0  0  0  0  0
  147.7322  141.6269  155.5854 H   0  0  0  0  0  0  0  0  0  0  0  0
  148.1069  137.9140  154.4879 H   0  0  0  0  0  0  0  0  0  0  0  0
  148.9591  138.5717  153.0839 H   0  0  0  0  0  0  0  0  0  0  0  0
  147.4915  135.5492  151.5692 H   0  0  0  0  0  0  0  0  0  0  0  0
  143.8819  135.1379  151.2595 H   0  0  0  0  0  0  0  0  0  0  0  0
  142.7955  132.9806  150.6215 H   0  0  0  0  0  0  0  0  0  0  0  0
  146.4392  131.0799  150.2028 H   0  0  0  0  0  0  0  0  0  0  0  0
  147.7011  133.1249  150.8019 H   0  0  0  0  0  0  0  0  0  0  0  0
  1  2  2  0  0  0  0
  2  3  1  0  0  0  0
  2 12  1  0  0  0  0
  3  4  1  0  0  0  0
  3 19  1  0  0  0  0
  4  5  1  0  0  0  0
  4 20  1  0  0  0  0
  4 21  1  0  0  0  0
  5 11  1  0  0  0  0
  5  6  1  0  0  0  0
  5 22  1  0  0  0  0
  6  7  1  0  0  0  0
  6 23  1  0  0  0  0
  6 24  1  0  0  0  0
  7  8  1  0  0  0  0
  7 25  1  0  0  0  0
  7 26  1  0  0  0  0
  8  9  2  0  0  0  0
  8 10  2  0  0  0  0
  8 11  1  0  0  0  0
 11 27  1  0  0  0  0
 11 28  1  0  0  0  0
 12 13  1  0  0  0  0
 12 29  1  0  0  0  0
 13 18  1  0  0  0  0
 13 14  2  0  0  0  0
 14 15  1  0  0  0  0
 14 30  1  0  0  0  0
 15 16  2  0  0  0  0
 15 31  1  0  0  0  0
 16 17  1  0  0  0  0
 17 18  2  0  0  0  0
 17 32  1  0  0  0  0
 18 33  1  0  0  0  0
M  END
> <s_m_source_file>
AV-unprocessed.smi

> <i_m_source_file_index>
1772

> <i_lp_mmshare_version>
43012

> <i_f3d_flags>
0

> <s_epik_input>
W2NIXTFbY0hdbltjSF1bY0hdYzFbTkhdQyg9TylbTkhdW0NIMl1bQ0BASF0oW0NIMl0yKVtDSDJdW0NIMl1TMig9Tyk9Tw==

> <s_epik_cmdline>
J2VwaWtfcHl0aG9uJywgJy1waCcsICc3LjAnLCAnLXRuJywgJzgnLCAnLW1hJywgJzIwMCcsICctbWV0YWxfYmluZGluZycsICctaW1hZScsICc8aW5maWxlLm1hZT4nLCAnLW9tYWUnLCAnPG91dGZpbGUubWFlPic=

> <r_epik_Ionization_Penalty>
0.110577

> <r_epik_Ionization_Penalty_Charging>
0

> <r_epik_Ionization_Penalty_Neutral>
0.110577

> <r_epik_State_Penalty>
0.100289

> <r_epik_Charging_Adjusted_Penalty>
0.100289

> <i_epik_Tot_Q>
0

> <i_epik_Tot_abs_Q>
0

> <r_epik_Metal_State_Penalty>
0.0843891

> <b_epik_Metal_Only>
0

> <s_lp_Force_Field>
OPLS_2005

> <r_lp_Energy>
10.6243

> <b_lp_Chiralities_Consistent>
1

> <s_lp_Variant>
AV-unprocessed.smi:1772-1

> <Gold.Version>
5.8.1

> <Gold.Id.Protein>
6NUR|6NUR_protein|mol2

> <Gold.PLP.Fitness>
42.1527

> <Gold.PLP.PLP>
-28.6813

> <Gold.PLP.part.hbond>
-2.9708

> <Gold.PLP.part.metal>
0.0000

> <Gold.PLP.part.buried>
-3.9115

> <Gold.PLP.part.nonpolar>
-27.4558

> <Gold.PLP.part.repulsive>
5.1392

> <Gold.PLP.ligand.clash>
0.0000

> <Gold.PLP.ligand.torsion>
0.5236

> <Gold.PLP.Chemscore.Hbond>
2.9600

> <Gold.PLP.Chemscore.CHOScore>
1.8783

> <Gold.PLP.Chemscore.Metal>
0.0000

> <Gold.Chemscore.Hbonds>
donor molecule, donor type, donor heavy atom, donor atom, acceptor molecule, acceptor atom, score
      L1  H     3    19       P1  7948  0.96
      L1  H    12    29       P1  7948  1.00
      P1  H  7989  7998       L1     9  0.99
      L1  C    15    31       P1 10186  1.00
      L1  C    17    32       P1 10747  0.88

> <Gold.PLP.Chemscore.Internal.Correction>
0.0036

> <Gold.Rescore>
     Score         DG    S(hbond)    S(metal)    S(lipo)     H(rot)  DE(clash)    DE(int)     intcor
     16.52     -20.52       2.89        0.00      74.58       1.30       2.07       1.94       ----

> <Gold.Chemscore.Fitness>
16.5196

> <Gold.Chemscore.DG>
-20.5224

> <Gold.Chemscore.ZeroCoef>
-5.4800

> <Gold.Chemscore.Hbond>
2.8868

> <Gold.Chemscore.Metal>
0.0000

> <Gold.Chemscore.Lipo>
74.5834

> <Gold.Chemscore.Internal_Hbond>
0.0000

> <Gold.Chemscore.DEClash>
2.0664

> <Gold.Chemscore.DEInternal>
1.9365

> <Gold.Chemscore.Rot>
1.2992

> <Gold.Chemscore.Internal.Correction>
   9.000000E+99

> <Gold.Chemscore.Hbonds>
donor molecule, donor type, donor heavy atom, donor atom, acceptor molecule, acceptor atom, score
      L1  H     3    19       P1  7948  0.92
      L1  H    12    29       P1  7948  0.93
      P1  H  7989  7998       L1     9  0.92

> <Gold.Chemscore.Hbond.Weighted>
-9.6421

> <Gold.Chemscore.Metal.Weighted>
-0.0000

> <Gold.Chemscore.Lipo.Weighted>
-8.7263

> <Gold.Chemscore.Internal_Hbond.Weighted>
0.0000

> <Gold.Chemscore.DEClash.Weighted>
2.0664

> <Gold.Chemscore.DEInternal.Weighted>
1.9365

> <Gold.Chemscore.Rot.Weighted>
3.3259

> <Gold.Chemscore.Internal.Correction.Weighted>
   9.000000E+99

> <Gold.Protein.RotatedTorsions>
[ 6907 6896 6895 6894 ] final  -33.36 input  -60.11 | X-H torsion
[ 7974 7965 7964 7962 ] final  -88.23 input  175.53 | X-H torsion
[ 8008 7997 7996 7995 ] final   45.12 input   59.86 | X-H torsion
[ 10167 10162 10161 10158 ] final -131.90 input  -65.29 | X-H torsion
[ 10718 10713 10712 10709 ] final  -50.11 input   66.30 | X-H torsion
[ 10763 10752 10751 10750 ] final  143.40 input  -60.55 | X-H torsion
[ 11005 11000 10999 10996 ] final   19.31 input  -57.11 | X-H torsion

> <Gold.Protein.ActiveResidues>
 VAL166  LYS551  ARG553  GLY616  TRP617  ASP618  TYR619  PRO620  LYS621  CYS622 
 ASP623  PHE694  ASN695  SER759  ASP760  ASP761  ALA762  ILE779  LEU786  VAL792 
 PHE793  MET794  SER795  GLU796  ALA797  LYS798  CYS799  TRP800  GLU811  SER814 

> <Gold.Protein.RotatedAtoms>
  151.0666  134.9771  159.8287 H   0  0  0  0  0  0  0  0  0  0  0  0  # atno 6907 bound_to 6896
  152.5403  134.2351  159.8850 H   0  0  0  0  0  0  0  0  0  0  0  0  # atno 6908 bound_to 6896
  151.2373  133.4375  159.2639 H   0  0  0  0  0  0  0  0  0  0  0  0  # atno 6909 bound_to 6896
  145.4559  140.9561  143.1996 H   0  0  0  0  0  0  0  0  0  0  0  0  # atno 7974 bound_to 7965
  155.3307  140.3402  155.4239 H   0  0  0  0  0  0  0  0  0  0  0  0  # atno 8008 bound_to 7997
  156.1863  140.1681  156.8215 H   0  0  0  0  0  0  0  0  0  0  0  0  # atno 8009 bound_to 7997
  154.5390  140.0729  156.8460 H   0  0  0  0  0  0  0  0  0  0  0  0  # atno 8010 bound_to 7997
  139.9141  143.6459  152.2569 H   0  0  0  0  0  0  0  0  0  0  0  0  # atno 10167 bound_to 10162
  156.1831  130.4151  149.9478 H   0  0  0  0  0  0  0  0  0  0  0  0  # atno 10718 bound_to 10713
  153.9718  135.2950  155.3427 H   0  0  0  0  0  0  0  0  0  0  0  0  # atno 10763 bound_to 10752
  154.7318  135.5064  153.8980 H   0  0  0  0  0  0  0  0  0  0  0  0  # atno 10764 bound_to 10752
  153.0896  135.6704  153.9992 H   0  0  0  0  0  0  0  0  0  0  0  0  # atno 10765 bound_to 10752
  140.4151  134.1577  155.7669 H   0  0  0  0  0  0  0  0  0  0  0  0  # atno 11005 bound_to 11000
  144.8032  139.6100  143.7062 LP  0  0  0  0  0  0  0  0  0  0  0  0  # atno 17320 bound_to 7965
  146.2478  139.6135  142.9447 LP  0  0  0  0  0  0  0  0  0  0  0  0  # atno 17321 bound_to 7965
  139.6917  144.7646  151.1427 LP  0  0  0  0  0  0  0  0  0  0  0  0  # atno 17342 bound_to 10162
  140.7678  143.5580  150.9131 LP  0  0  0  0  0  0  0  0  0  0  0  0  # atno 17343 bound_to 10162
  156.7243  130.9019  151.3621 LP  0  0  0  0  0  0  0  0  0  0  0  0  # atno 17370 bound_to 10713
  157.6881  130.9206  150.0440 LP  0  0  0  0  0  0  0  0  0  0  0  0  # atno 17371 bound_to 10713
  141.1806  133.8422  157.1271 LP  0  0  0  0  0  0  0  0  0  0  0  0  # atno 17394 bound_to 11000
  140.0240  134.9933  157.0648 LP  0  0  0  0  0  0  0  0  0  0  0  0  # atno 17395 bound_to 11000

$$$$
