AV-unprocessed.smi:1644|AV-procd|sdf|6597|dock4
  -GOLD-   22720 7303D 1   1.00000     0.00000
 Structure written by MMmdl.
 49 51  0  0  0  0  0  0  0  0  3 V2000
  150.1021  133.9202  155.1279 C   0  0  0  0  0  0  0  0  0  0  0  0
  148.7206  134.5598  155.3056 C   0  0  0  0  0  0  0  0  0  0  0  0
  148.4782  135.0464  156.7435 C   0  0  0  0  0  0  0  0  0  0  0  0
  149.4372  136.1764  157.1754 C   0  0  1  0  0  0  0  0  0  0  0  0
  150.7195  135.6519  157.5996 N   0  5  0  0  0  0  0  0  0  0  0  0
  151.6863  136.1821  156.8152 C   0  0  0  0  0  0  0  0  0  0  0  0
  152.8941  135.9576  156.8839 O   0  0  0  0  0  0  0  0  0  0  0  0
  151.1612  137.0130  155.8952 N   0  0  0  0  0  0  0  0  0  0  0  0
  151.9245  137.7171  154.8590 C   0  0  0  0  0  0  0  0  0  0  0  0
  152.1078  139.2092  155.2060 C   0  0  2  0  0  0  0  0  0  0  0  0
  153.3768  139.6270  154.7421 O   0  0  0  0  0  0  0  0  0  0  0  0
  152.0307  139.4573  156.7250 C   0  0  0  0  0  0  0  0  0  0  0  0
  151.5326  140.7998  157.0577 N   0  0  0  0  0  0  0  0  0  0  0  0
  150.7592  141.6428  156.3219 C   0  0  0  0  0  0  0  0  0  0  0  0
  150.5641  142.7709  157.0593 N   0  3  0  0  0  0  0  0  0  0  0  0
  151.2271  142.6480  158.2823 C   0  0  0  0  0  0  0  0  0  0  0  0
  151.3251  143.5254  159.3555 C   0  0  0  0  0  0  0  0  0  0  0  0
  152.0872  143.1020  160.4677 C   0  0  0  0  0  0  0  0  0  0  0  0
  152.2160  144.0383  161.6571 C   0  0  0  0  0  0  0  0  0  0  0  0
  152.7208  141.8324  160.4775 C   0  0  0  0  0  0  0  0  0  0  0  0
  153.5416  141.3892  161.6766 C   0  0  0  0  0  0  0  0  0  0  0  0
  152.6068  140.9535  159.3766 C   0  0  0  0  0  0  0  0  0  0  0  0
  151.8517  141.3858  158.2885 C   0  0  0  0  0  0  0  0  0  0  0  0
  149.8308  137.0658  156.0137 C   0  0  0  0  0  0  0  0  0  0  0  0
  149.0378  137.6995  155.3157 O   0  0  0  0  0  0  0  0  0  0  0  0
  150.2474  133.5886  154.0996 H   0  0  0  0  0  0  0  0  0  0  0  0
  150.2204  133.0525  155.7775 H   0  0  0  0  0  0  0  0  0  0  0  0
  150.8966  134.6283  155.3651 H   0  0  0  0  0  0  0  0  0  0  0  0
  148.6217  135.3977  154.6147 H   0  0  0  0  0  0  0  0  0  0  0  0
  147.9534  133.8371  155.0256 H   0  0  0  0  0  0  0  0  0  0  0  0
  147.4416  135.3707  156.8515 H   0  0  0  0  0  0  0  0  0  0  0  0
  148.5979  134.1964  157.4168 H   0  0  0  0  0  0  0  0  0  0  0  0
  148.9658  136.7981  157.9379 H   0  0  0  0  0  0  0  0  0  0  0  0
  152.9018  137.2378  154.7791 H   0  0  0  0  0  0  0  0  0  0  0  0
  151.4686  137.5948  153.8746 H   0  0  0  0  0  0  0  0  0  0  0  0
  151.3397  139.8077  154.7139 H   0  0  0  0  0  0  0  0  0  0  0  0
  153.3593  139.6379  153.7965 H   0  0  0  0  0  0  0  0  0  0  0  0
  151.3420  138.7447  157.1803 H   0  0  0  0  0  0  0  0  0  0  0  0
  152.9963  139.2975  157.2059 H   0  0  0  0  0  0  0  0  0  0  0  0
  150.3713  141.4506  155.3319 H   0  0  0  0  0  0  0  0  0  0  0  0
  150.8412  144.4911  159.3403 H   0  0  0  0  0  0  0  0  0  0  0  0
  151.7863  143.5836  162.5500 H   0  0  0  0  0  0  0  0  0  0  0  0
  151.6977  144.9814  161.4803 H   0  0  0  0  0  0  0  0  0  0  0  0
  153.2636  144.2670  161.8539 H   0  0  0  0  0  0  0  0  0  0  0  0
  153.9432  140.3850  161.5364 H   0  0  0  0  0  0  0  0  0  0  0  0
  152.9296  141.3796  162.5788 H   0  0  0  0  0  0  0  0  0  0  0  0
  154.3826  142.0645  161.8351 H   0  0  0  0  0  0  0  0  0  0  0  0
  153.0958  139.9906  159.3804 H   0  0  0  0  0  0  0  0  0  0  0  0
  150.0204  143.5656  156.7479 H   0  0  0  0  0  0  0  0  0  0  0  0
  1  2  1  0  0  0  0
  1 26  1  0  0  0  0
  1 27  1  0  0  0  0
  1 28  1  0  0  0  0
  2  3  1  0  0  0  0
  2 29  1  0  0  0  0
  2 30  1  0  0  0  0
  3  4  1  0  0  0  0
  3 31  1  0  0  0  0
  3 32  1  0  0  0  0
  4 24  1  0  0  0  0
  4  5  1  0  0  0  0
  4 33  1  0  0  0  0
  5  6  1  0  0  0  0
  6  7  2  0  0  0  0
  6  8  1  0  0  0  0
  8  9  1  0  0  0  0
  8 24  1  0  0  0  0
  9 10  1  0  0  0  0
  9 34  1  0  0  0  0
  9 35  1  0  0  0  0
 10 11  1  0  0  0  0
 10 12  1  0  0  0  0
 10 36  1  0  0  0  0
 11 37  1  0  0  0  0
 12 13  1  0  0  0  0
 12 38  1  0  0  0  0
 12 39  1  0  0  0  0
 13 23  1  0  0  0  0
 13 14  1  0  0  0  0
 14 15  2  0  0  0  0
 14 40  1  0  0  0  0
 15 16  1  0  0  0  0
 15 49  1  0  0  0  0
 16 23  2  0  0  0  0
 16 17  1  0  0  0  0
 17 18  2  0  0  0  0
 17 41  1  0  0  0  0
 18 19  1  0  0  0  0
 18 20  1  0  0  0  0
 19 42  1  0  0  0  0
 19 43  1  0  0  0  0
 19 44  1  0  0  0  0
 20 21  1  0  0  0  0
 20 22  2  0  0  0  0
 21 45  1  0  0  0  0
 21 46  1  0  0  0  0
 21 47  1  0  0  0  0
 22 23  1  0  0  0  0
 22 48  1  0  0  0  0
 24 25  2  0  0  0  0
M  CHG  1   5  -1
M  CHG  1  15   1
M  END
> <s_m_source_file>
AV-unprocessed.smi

> <i_m_source_file_index>
1644

> <i_lp_mmshare_version>
43012

> <i_f3d_flags>
0

> <s_epik_input>
W0NIM11bQ0gyXVtDSDJdW0NAQEhdMVtOSF1DKD1PKU4oQzE9TylbQ0gyXVtDQEhdKFtPSF0pW0NIMl1uKFtjSF1uMiljKGMyMylbY0hdYyhbQ0gzXSljKFtjSF0zKVtDSDNd

> <s_epik_cmdline>
J2VwaWtfcHl0aG9uJywgJy1waCcsICc3LjAnLCAnLXRuJywgJzgnLCAnLW1hJywgJzIwMCcsICctbWV0YWxfYmluZGluZycsICctaW1hZScsICc8aW5maWxlLm1hZT4nLCAnLW9tYWUnLCAnPG91dGZpbGUubWFlPic=

> <r_lp_tautomer_probability>
1

> <r_epik_Ionization_Penalty>
6.86868

> <r_epik_Ionization_Penalty_Charging>
6.86868

> <r_epik_Ionization_Penalty_Neutral>
5.84798e-07

> <r_epik_State_Penalty>
6.92818

> <r_epik_Charging_Adjusted_Penalty>
13.7969

> <i_epik_Tot_Q>
0

> <i_epik_Tot_abs_Q>
2

> <r_epik_Metal_State_Penalty>
2.98017

> <b_epik_Metal_Only>
1

> <s_lp_Force_Field>
OPLS_2005

> <r_lp_Energy>
23.8384

> <b_lp_Chiralities_Consistent>
1

> <s_lp_Variant>
AV-unprocessed.smi:1644-14

> <Gold.Version>
5.8.1

> <Gold.Id.Protein>
6NUR|6NUR_protein|mol2

> <Gold.PLP.Fitness>
57.9335

> <Gold.PLP.PLP>
-46.9862

> <Gold.PLP.part.hbond>
-5.0000

> <Gold.PLP.part.metal>
0.0000

> <Gold.PLP.part.buried>
-5.9272

> <Gold.PLP.part.nonpolar>
-36.4469

> <Gold.PLP.part.repulsive>
0.0873

> <Gold.PLP.ligand.clash>
0.0000

> <Gold.PLP.ligand.torsion>
1.6701

> <Gold.PLP.Chemscore.Hbond>
4.7332

> <Gold.PLP.Chemscore.CHOScore>
0.0000

> <Gold.PLP.Chemscore.Metal>
0.0000

> <Gold.Chemscore.Hbonds>
donor molecule, donor type, donor heavy atom, donor atom, acceptor molecule, acceptor atom, score
      L1  H    15    49       P1  8028  2.00
      P1  H  6896  6907       L1     5  0.56
      P1  H  7997  8009       L1    11  1.00
      P1  H 10752 10763       L1     7  1.00

> <Gold.PLP.Chemscore.Internal.Correction>
0.0879

> <Gold.Rescore>
     Score         DG    S(hbond)    S(metal)    S(lipo)     H(rot)  DE(clash)    DE(int)     intcor
     22.01     -23.55       3.59        0.00     111.67       2.72       0.03       1.52       ----

> <Gold.Chemscore.Fitness>
22.0062

> <Gold.Chemscore.DG>
-23.5492

> <Gold.Chemscore.ZeroCoef>
-5.4800

> <Gold.Chemscore.Hbond>
3.5863

> <Gold.Chemscore.Metal>
0.0000

> <Gold.Chemscore.Lipo>
111.6738

> <Gold.Chemscore.Internal_Hbond>
0.0000

> <Gold.Chemscore.DEClash>
0.0270

> <Gold.Chemscore.DEInternal>
1.5159

> <Gold.Chemscore.Rot>
2.7245

> <Gold.Chemscore.Internal.Correction>
   9.000000E+99

> <Gold.Chemscore.Hbonds>
donor molecule, donor type, donor heavy atom, donor atom, acceptor molecule, acceptor atom, score
      L1  H    15    49       P1  8028  0.99
      P1  H  6896  6907       L1     5  0.26
      P1  H  7997  8009       L1    11  0.98
      P1  H 10752 10763       L1     7  0.55

> <Gold.Chemscore.Hbond.Weighted>
-11.9781

> <Gold.Chemscore.Metal.Weighted>
-0.0000

> <Gold.Chemscore.Lipo.Weighted>
-13.0658

> <Gold.Chemscore.Internal_Hbond.Weighted>
0.0000

> <Gold.Chemscore.DEClash.Weighted>
0.0270

> <Gold.Chemscore.DEInternal.Weighted>
1.5159

> <Gold.Chemscore.Rot.Weighted>
6.9748

> <Gold.Chemscore.Internal.Correction.Weighted>
   9.000000E+99

> <Gold.Protein.RotatedTorsions>
[ 6907 6896 6895 6894 ] final  -69.02 input  -60.11 | X-H torsion
[ 7974 7965 7964 7962 ] final   90.61 input  175.53 | X-H torsion
[ 8008 7997 7996 7995 ] final -112.58 input   59.86 | X-H torsion
[ 10167 10162 10161 10158 ] final   52.82 input  -65.29 | X-H torsion
[ 10718 10713 10712 10709 ] final   99.09 input   66.30 | X-H torsion
[ 10763 10752 10751 10750 ] final  107.29 input  -60.55 | X-H torsion
[ 11005 11000 10999 10996 ] final  178.27 input  -57.11 | X-H torsion

> <Gold.Protein.ActiveResidues>
 VAL166  LYS551  ARG553  GLY616  TRP617  ASP618  TYR619  PRO620  LYS621  CYS622 
 ASP623  PHE694  ASN695  SER759  ASP760  ASP761  ALA762  ILE779  LEU786  VAL792 
 PHE793  MET794  SER795  GLU796  ALA797  LYS798  CYS799  TRP800  GLU811  SER814 

> <Gold.Protein.RotatedAtoms>
  150.7326  134.5657  159.5864 H   0  0  0  0  0  0  0  0  0  0  0  0  # atno 6907 bound_to 6896
  152.3109  134.7496  160.0346 H   0  0  0  0  0  0  0  0  0  0  0  0  # atno 6908 bound_to 6896
  151.8044  133.3338  159.3573 H   0  0  0  0  0  0  0  0  0  0  0  0  # atno 6909 bound_to 6896
  145.5167  139.2278  143.2694 H   0  0  0  0  0  0  0  0  0  0  0  0  # atno 7974 bound_to 7965
  155.0074  140.0394  157.2385 H   0  0  0  0  0  0  0  0  0  0  0  0  # atno 8008 bound_to 7997
  154.7490  140.2763  155.6285 H   0  0  0  0  0  0  0  0  0  0  0  0  # atno 8009 bound_to 7997
  156.2881  140.2650  156.2238 H   0  0  0  0  0  0  0  0  0  0  0  0  # atno 8010 bound_to 7997
  140.2473  144.3518  150.6360 H   0  0  0  0  0  0  0  0  0  0  0  0  # atno 10167 bound_to 10162
  157.6883  131.0659  150.4896 H   0  0  0  0  0  0  0  0  0  0  0  0  # atno 10718 bound_to 10713
  153.4047  135.3849  155.2010 H   0  0  0  0  0  0  0  0  0  0  0  0  # atno 10763 bound_to 10752
  154.8732  135.3779  154.4576 H   0  0  0  0  0  0  0  0  0  0  0  0  # atno 10764 bound_to 10752
  153.5077  135.7087  153.5860 H   0  0  0  0  0  0  0  0  0  0  0  0  # atno 10765 bound_to 10752
  140.3932  134.6843  157.4520 H   0  0  0  0  0  0  0  0  0  0  0  0  # atno 11005 bound_to 11000
  146.2132  140.5977  142.9050 LP  0  0  0  0  0  0  0  0  0  0  0  0  # atno 17320 bound_to 7965
  144.7698  140.5611  143.6678 LP  0  0  0  0  0  0  0  0  0  0  0  0  # atno 17321 bound_to 7965
  140.6068  143.2168  151.6965 LP  0  0  0  0  0  0  0  0  0  0  0  0  # atno 17342 bound_to 10162
  139.5058  144.3706  152.0474 LP  0  0  0  0  0  0  0  0  0  0  0  0  # atno 17343 bound_to 10162
  156.5223  130.4165  149.6244 LP  0  0  0  0  0  0  0  0  0  0  0  0  # atno 17370 bound_to 10713
  156.3143  130.7246  151.2145 LP  0  0  0  0  0  0  0  0  0  0  0  0  # atno 17371 bound_to 10713
  140.0391  134.6294  155.9004 LP  0  0  0  0  0  0  0  0  0  0  0  0  # atno 17394 bound_to 11000
  141.1883  133.6562  156.5319 LP  0  0  0  0  0  0  0  0  0  0  0  0  # atno 17395 bound_to 11000

$$$$
