AV-unprocessed.smi:162|AV-procd|sdf|1377|dock9
  -GOLD-   2262019103D 1   1.00000     0.00000
 Structure written by MMmdl.
 54 57  0  0  0  0  0  0  0  0  1 V2000
  152.2219  138.6871  154.8878 C   0  0  0  0  0  0  0  0  0  0  0  0
  150.9050  139.0252  155.2853 O   0  0  0  0  0  0  0  0  0  0  0  0
  150.6751  140.4239  155.2646 C   0  0  0  0  0  0  0  0  0  0  0  0
  151.1644  141.0326  156.5884 C   0  0  1  0  0  0  0  0  0  0  0  0
  151.3483  142.5483  156.5490 C   0  0  0  0  0  0  0  0  0  0  0  0
  151.3615  142.8993  158.0366 C   0  0  1  0  0  0  0  0  0  0  0  0
  150.9749  144.2390  158.3057 O   0  0  0  0  0  0  0  0  0  0  0  0
  152.0720  145.1206  158.4791 C   0  0  0  0  0  0  0  0  0  0  0  0
  150.3507  141.9127  158.6340 C   0  0  0  0  0  0  0  0  0  0  0  0
  150.2344  140.8040  157.6900 N   0  0  0  0  0  0  0  0  0  0  0  0
  150.3008  139.5711  158.2376 C   0  0  0  0  0  0  0  0  0  0  0  0
  151.4457  139.2443  158.8850 N   0  0  0  0  0  0  0  0  0  0  0  0
  151.5657  138.0456  159.4640 C   0  0  0  0  0  0  0  0  0  0  0  0
  150.6780  137.0499  159.5155 N   0  0  0  0  0  0  0  0  0  0  0  0
  149.5246  137.3789  158.8657 C   0  0  0  0  0  0  0  0  0  0  0  0
  149.2537  138.6074  158.2013 C   0  0  0  0  0  0  0  0  0  0  0  0
  147.9755  138.5812  157.6560 N   0  0  0  0  0  0  0  0  0  0  0  0
  147.5159  137.4041  157.9827 C   0  0  0  0  0  0  0  0  0  0  0  0
  148.3768  136.6204  158.7178 N   0  0  0  0  0  0  0  0  0  0  0  0
  148.1207  135.2802  159.2227 C   0  0  0  0  0  0  0  0  0  0  0  0
  147.3361  135.2551  160.5578 C   0  0  0  0  0  0  0  0  0  0  0  0
  146.0288  135.7361  160.2960 O   0  0  0  0  0  0  0  0  0  0  0  0
  147.2261  133.8128  161.0916 C   0  0  0  0  0  0  0  0  0  0  0  0
  146.6006  133.7597  162.4968 C   0  0  0  0  0  0  0  0  0  0  0  0
  147.3377  134.5865  163.3893 O   0  0  0  0  0  0  0  0  0  0  0  0
  147.3106  135.9591  163.0173 C   0  0  0  0  0  0  0  0  0  0  0  0
  147.9768  136.1487  161.6429 C   0  0  0  0  0  0  0  0  0  0  0  0
  152.1254  140.5804  156.8392 H   0  0  0  0  0  0  0  0  0  0  0  0
  152.3463  142.6881  158.4581 H   0  0  0  0  0  0  0  0  0  0  0  0
  152.3482  137.6050  154.9202 H   0  0  0  0  0  0  0  0  0  0  0  0
  152.9615  139.1326  155.5542 H   0  0  0  0  0  0  0  0  0  0  0  0
  152.4236  139.0194  153.8685 H   0  0  0  0  0  0  0  0  0  0  0  0
  151.1926  140.8832  154.4203 H   0  0  0  0  0  0  0  0  0  0  0  0
  149.6078  140.6116  155.1358 H   0  0  0  0  0  0  0  0  0  0  0  0
  152.2576  142.8506  156.0289 H   0  0  0  0  0  0  0  0  0  0  0  0
  150.4975  143.0228  156.0573 H   0  0  0  0  0  0  0  0  0  0  0  0
  151.7021  146.1187  158.7131 H   0  0  0  0  0  0  0  0  0  0  0  0
  152.6756  145.1932  157.5738 H   0  0  0  0  0  0  0  0  0  0  0  0
  152.7114  144.7988  159.3021 H   0  0  0  0  0  0  0  0  0  0  0  0
  150.6384  141.6054  159.6405 H   0  0  0  0  0  0  0  0  0  0  0  0
  149.3685  142.3803  158.7083 H   0  0  0  0  0  0  0  0  0  0  0  0
  152.5070  137.8588  159.9595 H   0  0  0  0  0  0  0  0  0  0  0  0
  146.5256  137.0752  157.7026 H   0  0  0  0  0  0  0  0  0  0  0  0
  147.5837  134.7217  158.4546 H   0  0  0  0  0  0  0  0  0  0  0  0
  149.0808  134.7775  159.3457 H   0  0  0  0  0  0  0  0  0  0  0  0
  146.0940  136.4826  159.7202 H   0  0  0  0  0  0  0  0  0  0  0  0
  146.6527  133.1911  160.4027 H   0  0  0  0  0  0  0  0  0  0  0  0
  148.2222  133.3709  161.1431 H   0  0  0  0  0  0  0  0  0  0  0  0
  145.5546  134.0693  162.4751 H   0  0  0  0  0  0  0  0  0  0  0  0
  146.6181  132.7366  162.8727 H   0  0  0  0  0  0  0  0  0  0  0  0
  146.2830  136.3257  163.0103 H   0  0  0  0  0  0  0  0  0  0  0  0
  147.8450  136.5369  163.7716 H   0  0  0  0  0  0  0  0  0  0  0  0
  149.0347  135.8992  161.7342 H   0  0  0  0  0  0  0  0  0  0  0  0
  147.9335  137.2008  161.3582 H   0  0  0  0  0  0  0  0  0  0  0  0
  1  2  1  0  0  0  0
  1 30  1  0  0  0  0
  1 31  1  0  0  0  0
  1 32  1  0  0  0  0
  2  3  1  0  0  0  0
  3  4  1  0  0  0  0
  3 33  1  0  0  0  0
  3 34  1  0  0  0  0
  4 28  1  0  0  0  0
  4 10  1  0  0  0  0
  4  5  1  0  0  0  0
  5  6  1  0  0  0  0
  5 35  1  0  0  0  0
  5 36  1  0  0  0  0
  6 29  1  0  0  0  0
  6  7  1  0  0  0  0
  6  9  1  0  0  0  0
  7  8  1  0  0  0  0
  8 37  1  0  0  0  0
  8 38  1  0  0  0  0
  8 39  1  0  0  0  0
  9 10  1  0  0  0  0
  9 40  1  0  0  0  0
  9 41  1  0  0  0  0
 10 11  1  0  0  0  0
 11 16  1  0  0  0  0
 11 12  2  0  0  0  0
 12 13  1  0  0  0  0
 13 14  2  0  0  0  0
 13 42  1  0  0  0  0
 14 15  1  0  0  0  0
 15 19  1  0  0  0  0
 15 16  2  0  0  0  0
 16 17  1  0  0  0  0
 17 18  2  0  0  0  0
 18 19  1  0  0  0  0
 18 43  1  0  0  0  0
 19 20  1  0  0  0  0
 20 21  1  0  0  0  0
 20 44  1  0  0  0  0
 20 45  1  0  0  0  0
 21 27  1  0  0  0  0
 21 22  1  0  0  0  0
 21 23  1  0  0  0  0
 22 46  1  0  0  0  0
 23 24  1  0  0  0  0
 23 47  1  0  0  0  0
 23 48  1  0  0  0  0
 24 25  1  0  0  0  0
 24 49  1  0  0  0  0
 24 50  1  0  0  0  0
 25 26  1  0  0  0  0
 26 27  1  0  0  0  0
 26 51  1  0  0  0  0
 26 52  1  0  0  0  0
 27 53  1  0  0  0  0
 27 54  1  0  0  0  0
M  END
> <s_m_source_file>
AV-unprocessed.smi

> <i_m_source_file_index>
162

> <i_lp_mmshare_version>
43012

> <i_f3d_flags>
0

> <s_epik_input>
W0NIM11PW0NIMl1bQ0BASF0xW0NIMl1bQ0BASF0oT1tDSDNdKVtDSDJdTjFjKG5bY0hdbjIpYyhjMjMpbltjSF1uM1tDSDJdQzQoW09IXSlbQ0gyXVtDSDJdT1tDSDJdW0NIMl00

> <s_epik_cmdline>
J2VwaWtfcHl0aG9uJywgJy1waCcsICc3LjAnLCAnLXRuJywgJzgnLCAnLW1hJywgJzIwMCcsICctbWV0YWxfYmluZGluZycsICctaW1hZScsICc8aW5maWxlLm1hZT4nLCAnLW9tYWUnLCAnPG91dGZpbGUubWFlPic=

> <r_lp_tautomer_probability>
1

> <r_epik_Ionization_Penalty>
0.00660334

> <r_epik_Ionization_Penalty_Charging>
0

> <r_epik_Ionization_Penalty_Neutral>
0.00660334

> <r_epik_State_Penalty>
0.00469459

> <r_epik_Charging_Adjusted_Penalty>
0.00469459

> <i_epik_Tot_Q>
0

> <i_epik_Tot_abs_Q>
0

> <r_epik_Metal_State_Penalty>
-0

> <b_epik_Metal_Only>
0

> <s_lp_Force_Field>
OPLS_2005

> <r_lp_Energy>
41.7702

> <b_lp_Chiralities_Consistent>
1

> <s_lp_Variant>
AV-unprocessed.smi:162-2

> <Gold.Version>
5.8.1

> <Gold.Id.Protein>
6NUR|6NUR_protein|mol2

> <Gold.PLP.Fitness>
45.6701

> <Gold.PLP.PLP>
-44.8038

> <Gold.PLP.part.hbond>
-2.6362

> <Gold.PLP.part.metal>
0.0000

> <Gold.PLP.part.buried>
-7.1491

> <Gold.PLP.part.nonpolar>
-35.2078

> <Gold.PLP.part.repulsive>
0.2486

> <Gold.PLP.ligand.clash>
0.0000

> <Gold.PLP.ligand.torsion>
1.1437

> <Gold.PLP.Chemscore.Hbond>
1.0000

> <Gold.PLP.Chemscore.CHOScore>
0.0000

> <Gold.PLP.Chemscore.Metal>
0.0000

> <Gold.Chemscore.Hbonds>
donor molecule, donor type, donor heavy atom, donor atom, acceptor molecule, acceptor atom, score
      P1  H  6896  6907       L1    14  0.89

> <Gold.PLP.Chemscore.Internal.Correction>
0.1538

> <Gold.Rescore>
     Score         DG    S(hbond)    S(metal)    S(lipo)     H(rot)  DE(clash)    DE(int)     intcor
     11.11     -12.85       0.94        0.00      98.75       2.86       0.58       1.17       ----

> <Gold.Chemscore.Fitness>
11.1064

> <Gold.Chemscore.DG>
-12.8542

> <Gold.Chemscore.ZeroCoef>
-5.4800

> <Gold.Chemscore.Hbond>
0.9440

> <Gold.Chemscore.Metal>
0.0000

> <Gold.Chemscore.Lipo>
98.7487

> <Gold.Chemscore.Internal_Hbond>
0.0000

> <Gold.Chemscore.DEClash>
0.5800

> <Gold.Chemscore.DEInternal>
1.1679

> <Gold.Chemscore.Rot>
2.8642

> <Gold.Chemscore.Internal.Correction>
   9.000000E+99

> <Gold.Chemscore.Hbonds>
donor molecule, donor type, donor heavy atom, donor atom, acceptor molecule, acceptor atom, score
      P1  H  6896  6907       L1    14  0.80

> <Gold.Chemscore.Hbond.Weighted>
-3.1530

> <Gold.Chemscore.Metal.Weighted>
-0.0000

> <Gold.Chemscore.Lipo.Weighted>
-11.5536

> <Gold.Chemscore.Internal_Hbond.Weighted>
0.0000

> <Gold.Chemscore.DEClash.Weighted>
0.5800

> <Gold.Chemscore.DEInternal.Weighted>
1.1679

> <Gold.Chemscore.Rot.Weighted>
7.3324

> <Gold.Chemscore.Internal.Correction.Weighted>
   9.000000E+99

> <Gold.Protein.RotatedTorsions>
[ 6907 6896 6895 6894 ] final  -35.29 input  -60.11 | X-H torsion
[ 7974 7965 7964 7962 ] final  155.96 input  175.53 | X-H torsion
[ 8008 7997 7996 7995 ] final  -95.59 input   59.86 | X-H torsion
[ 10167 10162 10161 10158 ] final   40.47 input  -65.29 | X-H torsion
[ 10718 10713 10712 10709 ] final   20.72 input   66.30 | X-H torsion
[ 10763 10752 10751 10750 ] final  -71.94 input  -60.55 | X-H torsion
[ 11005 11000 10999 10996 ] final  -59.48 input  -57.11 | X-H torsion

> <Gold.Protein.ActiveResidues>
 VAL166  LYS551  ARG553  GLY616  TRP617  ASP618  TYR619  PRO620  LYS621  CYS622 
 ASP623  PHE694  ASN695  SER759  ASP760  ASP761  ALA762  ILE779  LEU786  VAL792 
 PHE793  MET794  SER795  GLU796  ALA797  LYS798  CYS799  TRP800  GLU811  SER814 

> <Gold.Protein.RotatedAtoms>
  151.0417  134.9612  159.8165 H   0  0  0  0  0  0  0  0  0  0  0  0  # atno 6907 bound_to 6896
  152.5365  134.2649  159.8959 H   0  0  0  0  0  0  0  0  0  0  0  0  # atno 6908 bound_to 6896
  151.2662  133.4235  159.2652 H   0  0  0  0  0  0  0  0  0  0  0  0  # atno 6909 bound_to 6896
  144.7992  139.7138  143.6189 H   0  0  0  0  0  0  0  0  0  0  0  0  # atno 7974 bound_to 7965
  154.7633  140.0479  157.0991 H   0  0  0  0  0  0  0  0  0  0  0  0  # atno 8008 bound_to 7997
  154.9911  140.3113  155.4886 H   0  0  0  0  0  0  0  0  0  0  0  0  # atno 8009 bound_to 7997
  156.2908  140.2218  156.5016 H   0  0  0  0  0  0  0  0  0  0  0  0  # atno 8010 bound_to 7997
  140.3739  144.2069  150.6132 H   0  0  0  0  0  0  0  0  0  0  0  0  # atno 10167 bound_to 10162
  157.1285  130.6580  149.5944 H   0  0  0  0  0  0  0  0  0  0  0  0  # atno 10718 bound_to 10713
  154.4387  135.5946  153.6115 H   0  0  0  0  0  0  0  0  0  0  0  0  # atno 10763 bound_to 10752
  152.9804  135.5993  154.3749 H   0  0  0  0  0  0  0  0  0  0  0  0  # atno 10764 bound_to 10752
  154.3596  135.2841  155.2306 H   0  0  0  0  0  0  0  0  0  0  0  0  # atno 10765 bound_to 10752
  141.1250  133.6616  156.5078 H   0  0  0  0  0  0  0  0  0  0  0  0  # atno 11005 bound_to 11000
  146.2269  139.5740  142.9581 LP  0  0  0  0  0  0  0  0  0  0  0  0  # atno 17320 bound_to 7965
  145.5595  141.0406  143.2234 LP  0  0  0  0  0  0  0  0  0  0  0  0  # atno 17321 bound_to 7965
  140.5006  143.2319  151.8685 LP  0  0  0  0  0  0  0  0  0  0  0  0  # atno 17342 bound_to 10162
  139.4801  144.5064  151.8992 LP  0  0  0  0  0  0  0  0  0  0  0  0  # atno 17343 bound_to 10162
  155.9813  130.4819  150.6820 LP  0  0  0  0  0  0  0  0  0  0  0  0  # atno 17370 bound_to 10713
  157.4413  131.0861  151.0940 LP  0  0  0  0  0  0  0  0  0  0  0  0  # atno 17371 bound_to 10713
  140.4394  134.7029  157.4983 LP  0  0  0  0  0  0  0  0  0  0  0  0  # atno 17394 bound_to 11000
  140.0239  134.6505  155.9200 LP  0  0  0  0  0  0  0  0  0  0  0  0  # atno 17395 bound_to 11000

$$$$
