AV-unprocessed.smi:2374|AV-procd|sdf|9441|dock3
  -GOLD-   2272013 73D 1   1.00000     0.00000
 Structure written by MMmdl.
 38 39  0  0  0  0  0  0  0  0  1 V2000
  150.7787  145.5216  160.1138 C   0  0  0  0  0  0  0  0  0  0  0  0
  151.6181  144.2840  160.2552 C   0  0  0  0  0  0  0  0  0  0  0  0
  152.0296  143.9108  161.4552 N   0  0  0  0  0  0  0  0  0  0  0  0
  152.7847  142.7506  161.2580 O   0  0  0  0  0  0  0  0  0  0  0  0
  152.8009  142.4695  159.9303 C   0  0  0  0  0  0  0  0  0  0  0  0
  153.5676  141.2623  159.5074 C   0  0  0  0  0  0  0  0  0  0  0  0
  152.0795  143.4010  159.2361 C   0  0  0  0  0  0  0  0  0  0  0  0
  151.8379  143.4810  157.7509 C   0  0  0  0  0  0  0  0  0  0  0  0
  151.1136  142.2186  157.2866 C   0  0  0  0  0  0  0  0  0  0  0  0
  151.5138  141.1125  157.6473 O   0  0  0  0  0  0  0  0  0  0  0  0
  150.0612  142.4034  156.4724 N   0  0  0  0  0  0  0  0  0  0  0  0
  149.2376  141.3686  155.8454 C   0  0  0  0  0  0  0  0  0  0  0  0
  150.0646  140.4501  155.0369 C   0  0  0  0  0  0  0  0  0  0  0  0
  150.7134  139.7302  154.4043 N   0  0  0  0  0  0  0  0  0  0  0  0
  148.5571  140.5775  156.9855 C   0  0  0  0  0  0  0  0  0  0  0  0
  147.5469  139.5426  156.4611 C   0  0  0  0  0  0  0  0  0  0  0  0
  146.4814  140.2113  155.5811 C   0  0  0  0  0  0  0  0  0  0  0  0
  147.1253  141.0057  154.4361 C   0  0  0  0  0  0  0  0  0  0  0  0
  148.1410  142.0291  154.9720 C   0  0  0  0  0  0  0  0  0  0  0  0
  151.3922  146.3762  159.8277 H   0  0  0  0  0  0  0  0  0  0  0  0
  150.2726  145.7730  161.0465 H   0  0  0  0  0  0  0  0  0  0  0  0
  150.0126  145.3917  159.3493 H   0  0  0  0  0  0  0  0  0  0  0  0
  154.1556  140.8595  160.3325 H   0  0  0  0  0  0  0  0  0  0  0  0
  154.2513  141.5062  158.6940 H   0  0  0  0  0  0  0  0  0  0  0  0
  152.8926  140.4806  159.1588 H   0  0  0  0  0  0  0  0  0  0  0  0
  151.2314  144.3501  157.4930 H   0  0  0  0  0  0  0  0  0  0  0  0
  152.7715  143.5918  157.1983 H   0  0  0  0  0  0  0  0  0  0  0  0
  149.8187  143.3569  156.2463 H   0  0  0  0  0  0  0  0  0  0  0  0
  149.3109  140.0731  157.5918 H   0  0  0  0  0  0  0  0  0  0  0  0
  148.0396  141.2664  157.6557 H   0  0  0  0  0  0  0  0  0  0  0  0
  148.0656  138.7721  155.8896 H   0  0  0  0  0  0  0  0  0  0  0  0
  147.0691  139.0337  157.2987 H   0  0  0  0  0  0  0  0  0  0  0  0
  145.8049  139.4575  155.1773 H   0  0  0  0  0  0  0  0  0  0  0  0
  145.8718  140.8797  156.1904 H   0  0  0  0  0  0  0  0  0  0  0  0
  147.6192  140.3205  153.7461 H   0  0  0  0  0  0  0  0  0  0  0  0
  146.3533  141.5170  153.8605 H   0  0  0  0  0  0  0  0  0  0  0  0
  147.6108  142.7836  155.5554 H   0  0  0  0  0  0  0  0  0  0  0  0
  148.5896  142.5572  154.1301 H   0  0  0  0  0  0  0  0  0  0  0  0
  1  2  1  0  0  0  0
  1 20  1  0  0  0  0
  1 21  1  0  0  0  0
  1 22  1  0  0  0  0
  2  7  1  0  0  0  0
  2  3  2  0  0  0  0
  3  4  1  0  0  0  0
  4  5  1  0  0  0  0
  5  6  1  0  0  0  0
  5  7  2  0  0  0  0
  6 23  1  0  0  0  0
  6 24  1  0  0  0  0
  6 25  1  0  0  0  0
  7  8  1  0  0  0  0
  8  9  1  0  0  0  0
  8 26  1  0  0  0  0
  8 27  1  0  0  0  0
  9 10  2  0  0  0  0
  9 11  1  0  0  0  0
 11 12  1  0  0  0  0
 11 28  1  0  0  0  0
 12 19  1  0  0  0  0
 12 13  1  0  0  0  0
 12 15  1  0  0  0  0
 13 14  3  0  0  0  0
 15 16  1  0  0  0  0
 15 29  1  0  0  0  0
 15 30  1  0  0  0  0
 16 17  1  0  0  0  0
 16 31  1  0  0  0  0
 16 32  1  0  0  0  0
 17 18  1  0  0  0  0
 17 33  1  0  0  0  0
 17 34  1  0  0  0  0
 18 19  1  0  0  0  0
 18 35  1  0  0  0  0
 18 36  1  0  0  0  0
 19 37  1  0  0  0  0
 19 38  1  0  0  0  0
M  END
> <s_m_source_file>
AV-unprocessed.smi

> <i_m_source_file_index>
2374

> <i_lp_mmshare_version>
43012

> <i_f3d_flags>
0

> <s_epik_input>
W0NIM11jMW5vYyhbQ0gzXSljMVtDSDJdQyg9TylbTkhdQzIoQyNOKVtDSDJdW0NIMl1bQ0gyXVtDSDJdW0NIMl0y

> <s_epik_cmdline>
J2VwaWtfcHl0aG9uJywgJy1waCcsICc3LjAnLCAnLXRuJywgJzgnLCAnLW1hJywgJzIwMCcsICctbWV0YWxfYmluZGluZycsICctaW1hZScsICc8aW5maWxlLm1hZT4nLCAnLW9tYWUnLCAnPG91dGZpbGUubWFlPic=

> <r_lp_tautomer_probability>
1

> <r_epik_Ionization_Penalty>
5.32351e-07

> <r_epik_Ionization_Penalty_Charging>
0

> <r_epik_Ionization_Penalty_Neutral>
5.32351e-07

> <r_epik_State_Penalty>
-0

> <r_epik_Charging_Adjusted_Penalty>
0

> <i_epik_Tot_Q>
0

> <i_epik_Tot_abs_Q>
0

> <r_epik_Metal_State_Penalty>
-0

> <b_epik_Metal_Only>
0

> <s_lp_Force_Field>
OPLS_2005

> <r_lp_Energy>
1.24433

> <b_lp_Chiralities_Consistent>
1

> <s_lp_Variant>
AV-unprocessed.smi:2374-1

> <Gold.Version>
5.8.1

> <Gold.Id.Protein>
6NUR|6NUR_protein|mol2

> <Gold.PLP.Fitness>
39.7127

> <Gold.PLP.PLP>
-34.0334

> <Gold.PLP.part.hbond>
-2.0000

> <Gold.PLP.part.metal>
0.0000

> <Gold.PLP.part.buried>
-3.4212

> <Gold.PLP.part.nonpolar>
-28.9278

> <Gold.PLP.part.repulsive>
0.3892

> <Gold.PLP.ligand.clash>
0.0000

> <Gold.PLP.ligand.torsion>
0.1630

> <Gold.PLP.Chemscore.Hbond>
2.0000

> <Gold.PLP.Chemscore.CHOScore>
0.0000

> <Gold.PLP.Chemscore.Metal>
0.0000

> <Gold.Chemscore.Hbonds>
donor molecule, donor type, donor heavy atom, donor atom, acceptor molecule, acceptor atom, score
      L1  H    11    28       P1  8028  1.00
      P1  H  7989  7998       L1    14  1.00

> <Gold.PLP.Chemscore.Internal.Correction>
0.0053

> <Gold.Rescore>
     Score         DG    S(hbond)    S(metal)    S(lipo)     H(rot)  DE(clash)    DE(int)     intcor
     13.72     -17.69       1.81        0.00      83.38       1.40       0.62       3.35       ----

> <Gold.Chemscore.Fitness>
13.7229

> <Gold.Chemscore.DG>
-17.6908

> <Gold.Chemscore.ZeroCoef>
-5.4800

> <Gold.Chemscore.Hbond>
1.8088

> <Gold.Chemscore.Metal>
0.0000

> <Gold.Chemscore.Lipo>
83.3822

> <Gold.Chemscore.Internal_Hbond>
0.0000

> <Gold.Chemscore.DEClash>
0.6156

> <Gold.Chemscore.DEInternal>
3.3524

> <Gold.Chemscore.Rot>
1.4009

> <Gold.Chemscore.Internal.Correction>
   9.000000E+99

> <Gold.Chemscore.Hbonds>
donor molecule, donor type, donor heavy atom, donor atom, acceptor molecule, acceptor atom, score
      L1  H    11    28       P1  8028  1.00
      P1  H  7989  7998       L1    14  0.30

> <Gold.Chemscore.Hbond.Weighted>
-6.0414

> <Gold.Chemscore.Metal.Weighted>
-0.0000

> <Gold.Chemscore.Lipo.Weighted>
-9.7557

> <Gold.Chemscore.Internal_Hbond.Weighted>
0.0000

> <Gold.Chemscore.DEClash.Weighted>
0.6156

> <Gold.Chemscore.DEInternal.Weighted>
3.3524

> <Gold.Chemscore.Rot.Weighted>
3.5863

> <Gold.Chemscore.Internal.Correction.Weighted>
   9.000000E+99

> <Gold.Protein.RotatedTorsions>
[ 6907 6896 6895 6894 ] final  127.52 input  -60.11 | X-H torsion
[ 7974 7965 7964 7962 ] final -113.99 input  175.53 | X-H torsion
[ 8008 7997 7996 7995 ] final  -84.09 input   59.86 | X-H torsion
[ 10167 10162 10161 10158 ] final   13.77 input  -65.29 | X-H torsion
[ 10718 10713 10712 10709 ] final  -76.51 input   66.30 | X-H torsion
[ 10763 10752 10751 10750 ] final  163.53 input  -60.55 | X-H torsion
[ 11005 11000 10999 10996 ] final  -38.70 input  -57.11 | X-H torsion

> <Gold.Protein.ActiveResidues>
 VAL166  LYS551  ARG553  GLY616  TRP617  ASP618  TYR619  PRO620  LYS621  CYS622 
 ASP623  PHE694  ASN695  SER759  ASP760  ASP761  ALA762  ILE779  LEU786  VAL792 
 PHE793  MET794  SER795  GLU796  ALA797  LYS798  CYS799  TRP800  GLU811  SER814 

> <Gold.Protein.RotatedAtoms>
  152.3804  133.6539  159.6156 H   0  0  0  0  0  0  0  0  0  0  0  0  # atno 6907 bound_to 6896
  150.7737  133.9123  159.3382 H   0  0  0  0  0  0  0  0  0  0  0  0  # atno 6908 bound_to 6896
  151.6929  135.0944  160.0288 H   0  0  0  0  0  0  0  0  0  0  0  0  # atno 6909 bound_to 6896
  145.1255  140.8694  143.3788 H   0  0  0  0  0  0  0  0  0  0  0  0  # atno 7974 bound_to 7965
  154.6261  140.0610  156.9674 H   0  0  0  0  0  0  0  0  0  0  0  0  # atno 8008 bound_to 7997
  155.1740  140.3293  155.4369 H   0  0  0  0  0  0  0  0  0  0  0  0  # atno 8009 bound_to 7997
  156.2458  140.1909  156.6841 H   0  0  0  0  0  0  0  0  0  0  0  0  # atno 8010 bound_to 7997
  140.5981  143.8661  150.6937 H   0  0  0  0  0  0  0  0  0  0  0  0  # atno 10167 bound_to 10162
  156.0173  130.4467  150.3205 H   0  0  0  0  0  0  0  0  0  0  0  0  # atno 10718 bound_to 10713
  154.2951  135.2760  155.2637 H   0  0  0  0  0  0  0  0  0  0  0  0  # atno 10763 bound_to 10752
  154.5099  135.5785  153.6600 H   0  0  0  0  0  0  0  0  0  0  0  0  # atno 10764 bound_to 10752
  152.9908  135.6178  154.3118 H   0  0  0  0  0  0  0  0  0  0  0  0  # atno 10765 bound_to 10752
  141.0047  133.6937  156.2088 H   0  0  0  0  0  0  0  0  0  0  0  0  # atno 11005 bound_to 11000
  145.0693  139.3044  143.5840 LP  0  0  0  0  0  0  0  0  0  0  0  0  # atno 17320 bound_to 7965
  146.3518  140.0162  142.8662 LP  0  0  0  0  0  0  0  0  0  0  0  0  # atno 17321 bound_to 7965
  140.2200  143.3816  152.1650 LP  0  0  0  0  0  0  0  0  0  0  0  0  # atno 17342 bound_to 10162
  139.5272  144.7116  151.5187 LP  0  0  0  0  0  0  0  0  0  0  0  0  # atno 17343 bound_to 10162
  157.1305  131.0270  151.2971 LP  0  0  0  0  0  0  0  0  0  0  0  0  # atno 17370 bound_to 10713
  157.4554  130.7622  149.7188 LP  0  0  0  0  0  0  0  0  0  0  0  0  # atno 17371 bound_to 10713
  140.6832  134.4745  157.5589 LP  0  0  0  0  0  0  0  0  0  0  0  0  # atno 17394 bound_to 11000
  139.9057  134.8454  156.1716 LP  0  0  0  0  0  0  0  0  0  0  0  0  # atno 17395 bound_to 11000

$$$$
