AV-unprocessed.smi:236|AV-procd|sdf|1815|dock8
  -GOLD-   2262020403D 1   1.00000     0.00000
 Structure written by MMmdl.
 58 62  0  0  0  0  0  0  0  0  1 V2000
  146.4040  130.3348  151.7887 C   0  0  0  0  0  0  0  0  0  0  0  0
  145.8343  131.7331  152.0776 C   0  0  2  0  0  0  0  0  0  0  0  0
  145.1363  132.2343  150.9471 O   0  0  0  0  0  0  0  0  0  0  0  0
  144.9785  133.6277  151.1436 C   0  0  0  0  0  0  0  0  0  0  0  0
  146.3515  134.0555  151.6476 C   0  0  0  0  0  0  0  0  0  0  0  0
  146.8470  132.8479  152.4503 C   0  0  2  0  0  0  0  0  0  0  0  0
  148.1584  132.5347  152.0091 O   0  0  0  0  0  0  0  0  0  0  0  0
  146.9007  133.1411  153.9702 C   0  0  0  0  0  0  0  0  0  0  0  0
  147.6874  134.3177  154.3097 N   0  0  0  0  0  0  0  0  0  0  0  0
  147.3205  135.6329  154.1304 C   0  0  0  0  0  0  0  0  0  0  0  0
  148.2001  136.5151  154.5178 N   0  0  0  0  0  0  0  0  0  0  0  0
  149.2533  135.7515  155.0057 C   0  0  0  0  0  0  0  0  0  0  0  0
  150.5205  136.0543  155.5795 C   0  0  0  0  0  0  0  0  0  0  0  0
  150.9958  137.3001  155.7877 N   0  0  0  0  0  0  0  0  0  0  0  0
  152.0370  137.6840  154.8442 C   0  0  0  0  0  0  0  0  0  0  0  0
  152.4168  139.1581  155.0574 C   0  0  0  0  0  0  0  0  0  0  0  0
  152.7966  139.3572  156.4158 O   0  0  0  0  0  0  0  0  0  0  0  0
  151.7359  139.0701  157.3258 C   0  0  2  0  0  0  0  0  0  0  0  0
  152.2222  139.3875  158.7457 C   0  0  0  0  0  0  0  0  0  0  0  0
  152.5908  140.7548  158.8114 O   0  0  0  0  0  0  0  0  0  0  0  0
  153.2509  141.0906  160.0221 C   0  0  0  0  0  0  0  0  0  0  0  0
  153.4097  142.5935  160.1675 C   0  0  0  0  0  0  0  0  0  0  0  0
  152.5208  143.3871  161.1030 C   0  0  0  0  0  0  0  0  0  0  0  0
  152.3668  143.5432  159.6143 C   0  0  0  0  0  0  0  0  0  0  0  0
  151.3521  137.5854  157.1723 C   0  0  0  0  0  0  0  0  0  0  0  0
  151.3095  135.0213  155.9625 N   0  0  0  0  0  0  0  0  0  0  0  0
  150.8905  133.7633  155.7934 C   0  0  0  0  0  0  0  0  0  0  0  0
  149.7396  133.3283  155.2751 N   0  0  0  0  0  0  0  0  0  0  0  0
  148.9439  134.3671  154.8891 C   0  0  0  0  0  0  0  0  0  0  0  0
  146.9584  129.9507  152.6452 H   0  0  0  0  0  0  0  0  0  0  0  0
  147.0729  130.3433  150.9279 H   0  0  0  0  0  0  0  0  0  0  0  0
  145.6009  129.6301  151.5729 H   0  0  0  0  0  0  0  0  0  0  0  0
  145.0905  131.6444  152.8699 H   0  0  0  0  0  0  0  0  0  0  0  0
  144.6894  134.1359  150.2235 H   0  0  0  0  0  0  0  0  0  0  0  0
  144.2098  133.8099  151.8965 H   0  0  0  0  0  0  0  0  0  0  0  0
  146.9961  134.2481  150.7882 H   0  0  0  0  0  0  0  0  0  0  0  0
  146.3058  134.9764  152.2300 H   0  0  0  0  0  0  0  0  0  0  0  0
  148.1227  131.7375  151.5030 H   0  0  0  0  0  0  0  0  0  0  0  0
  145.8936  133.2811  154.3652 H   0  0  0  0  0  0  0  0  0  0  0  0
  147.3180  132.2850  154.5020 H   0  0  0  0  0  0  0  0  0  0  0  0
  146.3739  135.9199  153.6961 H   0  0  0  0  0  0  0  0  0  0  0  0
  152.9149  137.0524  154.9850 H   0  0  0  0  0  0  0  0  0  0  0  0
  151.6886  137.5312  153.8216 H   0  0  0  0  0  0  0  0  0  0  0  0
  153.2514  139.4291  154.4106 H   0  0  0  0  0  0  0  0  0  0  0  0
  151.5855  139.8163  154.7999 H   0  0  0  0  0  0  0  0  0  0  0  0
  150.8711  139.6953  157.0961 H   0  0  0  0  0  0  0  0  0  0  0  0
  151.4210  139.2002  159.4625 H   0  0  0  0  0  0  0  0  0  0  0  0
  153.0614  138.7441  159.0148 H   0  0  0  0  0  0  0  0  0  0  0  0
  152.6855  140.7138  160.8754 H   0  0  0  0  0  0  0  0  0  0  0  0
  154.2402  140.6318  160.0507 H   0  0  0  0  0  0  0  0  0  0  0  0
  154.4422  142.9302  160.0958 H   0  0  0  0  0  0  0  0  0  0  0  0
  151.7343  142.8569  161.6364 H   0  0  0  0  0  0  0  0  0  0  0  0
  152.9774  144.2100  161.6490 H   0  0  0  0  0  0  0  0  0  0  0  0
  152.7196  144.4706  159.1679 H   0  0  0  0  0  0  0  0  0  0  0  0
  151.4775  143.1164  159.1545 H   0  0  0  0  0  0  0  0  0  0  0  0
  150.5108  137.3456  157.8241 H   0  0  0  0  0  0  0  0  0  0  0  0
  152.1885  136.9575  157.4801 H   0  0  0  0  0  0  0  0  0  0  0  0
  151.5750  132.9949  156.1215 H   0  0  0  0  0  0  0  0  0  0  0  0
  1  2  1  0  0  0  0
  1 30  1  0  0  0  0
  1 31  1  0  0  0  0
  1 32  1  0  0  0  0
  2  6  1  0  0  0  0
  2  3  1  0  0  0  0
  2 33  1  0  0  0  0
  3  4  1  0  0  0  0
  4  5  1  0  0  0  0
  4 34  1  0  0  0  0
  4 35  1  0  0  0  0
  5  6  1  0  0  0  0
  5 36  1  0  0  0  0
  5 37  1  0  0  0  0
  6  7  1  0  0  0  0
  6  8  1  0  0  0  0
  7 38  1  0  0  0  0
  8  9  1  0  0  0  0
  8 39  1  0  0  0  0
  8 40  1  0  0  0  0
  9 29  1  0  0  0  0
  9 10  1  0  0  0  0
 10 11  2  0  0  0  0
 10 41  1  0  0  0  0
 11 12  1  0  0  0  0
 12 29  2  0  0  0  0
 12 13  1  0  0  0  0
 13 14  1  0  0  0  0
 13 26  2  0  0  0  0
 14 25  1  0  0  0  0
 14 15  1  0  0  0  0
 15 16  1  0  0  0  0
 15 42  1  0  0  0  0
 15 43  1  0  0  0  0
 16 17  1  0  0  0  0
 16 44  1  0  0  0  0
 16 45  1  0  0  0  0
 17 18  1  0  0  0  0
 18 19  1  0  0  0  0
 18 25  1  0  0  0  0
 18 46  1  0  0  0  0
 19 20  1  0  0  0  0
 19 47  1  0  0  0  0
 19 48  1  0  0  0  0
 20 21  1  0  0  0  0
 21 22  1  0  0  0  0
 21 49  1  0  0  0  0
 21 50  1  0  0  0  0
 22 24  1  0  0  0  0
 22 23  1  0  0  0  0
 22 51  1  0  0  0  0
 23 24  1  0  0  0  0
 23 52  1  0  0  0  0
 23 53  1  0  0  0  0
 24 54  1  0  0  0  0
 24 55  1  0  0  0  0
 25 56  1  0  0  0  0
 25 57  1  0  0  0  0
 26 27  1  0  0  0  0
 27 28  2  0  0  0  0
 27 58  1  0  0  0  0
 28 29  1  0  0  0  0
M  END
> <s_m_source_file>
AV-unprocessed.smi

> <i_m_source_file_index>
236

> <i_lp_mmshare_version>
43012

> <i_f3d_flags>
0

> <s_epik_input>
W0NIMl0xW0NIMl1PW0NAQEhdKFtDSDNdKVtDQEBdMShbT0hdKVtDSDJdbihbY0hdbjIpYyhjMjMpbltjSF1uYzNONFtDSDJdW0NIMl1PW0NASF0oW0NIMl00KVtDSDJdT1tDSDJdW0NIXTVbQ0gyXVtDSDJdNQ==

> <s_epik_cmdline>
J2VwaWtfcHl0aG9uJywgJy1waCcsICc3LjAnLCAnLXRuJywgJzgnLCAnLW1hJywgJzIwMCcsICctbWV0YWxfYmluZGluZycsICctaW1hZScsICc8aW5maWxlLm1hZT4nLCAnLW9tYWUnLCAnPG91dGZpbGUubWFlPic=

> <r_lp_tautomer_probability>
1

> <r_epik_Ionization_Penalty>
7.21838e-05

> <r_epik_Ionization_Penalty_Charging>
0

> <r_epik_Ionization_Penalty_Neutral>
7.21838e-05

> <r_epik_State_Penalty>
-0

> <r_epik_Charging_Adjusted_Penalty>
0

> <i_epik_Tot_Q>
0

> <i_epik_Tot_abs_Q>
0

> <r_epik_Metal_State_Penalty>
-0

> <b_epik_Metal_Only>
0

> <s_lp_Force_Field>
OPLS_2005

> <r_lp_Energy>
47.5689

> <b_lp_Chiralities_Consistent>
1

> <s_lp_Variant>
AV-unprocessed.smi:236-7

> <Gold.Version>
5.8.1

> <Gold.Id.Protein>
6NUR|6NUR_protein|mol2

> <Gold.PLP.Fitness>
52.4325

> <Gold.PLP.PLP>
-44.9030

> <Gold.PLP.part.hbond>
-3.0000

> <Gold.PLP.part.metal>
0.0000

> <Gold.PLP.part.buried>
-5.5193

> <Gold.PLP.part.nonpolar>
-34.9995

> <Gold.PLP.part.repulsive>
0.7540

> <Gold.PLP.ligand.clash>
0.0000

> <Gold.PLP.ligand.torsion>
0.9101

> <Gold.PLP.Chemscore.Hbond>
2.8233

> <Gold.PLP.Chemscore.CHOScore>
0.0000

> <Gold.PLP.Chemscore.Metal>
0.0000

> <Gold.Chemscore.Hbonds>
donor molecule, donor type, donor heavy atom, donor atom, acceptor molecule, acceptor atom, score
      L1  H     7    38       P1 10747  0.83
      P1  H  7997  8008       L1    17  1.00
      P1  H 10752 10763       L1    26  0.87

> <Gold.PLP.Chemscore.Internal.Correction>
0.8799

> <Gold.Rescore>
     Score         DG    S(hbond)    S(metal)    S(lipo)     H(rot)  DE(clash)    DE(int)     intcor
     17.77     -19.31       2.37        0.00     113.30       2.87       0.31       1.24       ----

> <Gold.Chemscore.Fitness>
17.7702

> <Gold.Chemscore.DG>
-19.3137

> <Gold.Chemscore.ZeroCoef>
-5.4800

> <Gold.Chemscore.Hbond>
2.3693

> <Gold.Chemscore.Metal>
0.0000

> <Gold.Chemscore.Lipo>
113.2986

> <Gold.Chemscore.Internal_Hbond>
0.0000

> <Gold.Chemscore.DEClash>
0.3084

> <Gold.Chemscore.DEInternal>
1.2351

> <Gold.Chemscore.Rot>
2.8655

> <Gold.Chemscore.Internal.Correction>
   9.000000E+99

> <Gold.Chemscore.Hbonds>
donor molecule, donor type, donor heavy atom, donor atom, acceptor molecule, acceptor atom, score
      L1  H     7    38       P1 10747  0.81
      P1  H  7997  8008       L1    17  0.40
      P1  H 10752 10763       L1    26  0.18

> <Gold.Chemscore.Hbond.Weighted>
-7.9136

> <Gold.Chemscore.Metal.Weighted>
-0.0000

> <Gold.Chemscore.Lipo.Weighted>
-13.2559

> <Gold.Chemscore.Internal_Hbond.Weighted>
0.0000

> <Gold.Chemscore.DEClash.Weighted>
0.3084

> <Gold.Chemscore.DEInternal.Weighted>
1.2351

> <Gold.Chemscore.Rot.Weighted>
7.3358

> <Gold.Chemscore.Internal.Correction.Weighted>
   9.000000E+99

> <Gold.Protein.RotatedTorsions>
[ 6907 6896 6895 6894 ] final   11.01 input  -60.11 | X-H torsion
[ 7974 7965 7964 7962 ] final  -18.03 input  175.53 | X-H torsion
[ 8008 7997 7996 7995 ] final  -39.16 input   59.86 | X-H torsion
[ 10167 10162 10161 10158 ] final -111.04 input  -65.29 | X-H torsion
[ 10718 10713 10712 10709 ] final   51.93 input   66.30 | X-H torsion
[ 10763 10752 10751 10750 ] final   79.90 input  -60.55 | X-H torsion
[ 11005 11000 10999 10996 ] final   97.50 input  -57.11 | X-H torsion

> <Gold.Protein.ActiveResidues>
 VAL166  LYS551  ARG553  GLY616  TRP617  ASP618  TYR619  PRO620  LYS621  CYS622 
 ASP623  PHE694  ASN695  SER759  ASP760  ASP761  ALA762  ILE779  LEU786  VAL792 
 PHE793  MET794  SER795  GLU796  ALA797  LYS798  CYS799  TRP800  GLU811  SER814 

> <Gold.Protein.RotatedAtoms>
  151.7475  135.0840  160.0325 H   0  0  0  0  0  0  0  0  0  0  0  0  # atno 6907 bound_to 6896
  152.3439  133.6095  159.5904 H   0  0  0  0  0  0  0  0  0  0  0  0  # atno 6908 bound_to 6896
  150.7496  133.9596  159.3553 H   0  0  0  0  0  0  0  0  0  0  0  0  # atno 6909 bound_to 6896
  146.1912  140.3863  142.8457 H   0  0  0  0  0  0  0  0  0  0  0  0  # atno 7974 bound_to 7965
  154.4026  140.1559  156.2818 H   0  0  0  0  0  0  0  0  0  0  0  0  # atno 8008 bound_to 7997
  155.8863  140.3441  155.5901 H   0  0  0  0  0  0  0  0  0  0  0  0  # atno 8009 bound_to 7997
  155.7610  140.0817  157.2146 H   0  0  0  0  0  0  0  0  0  0  0  0  # atno 8010 bound_to 7997
  140.1379  143.4304  152.1582 H   0  0  0  0  0  0  0  0  0  0  0  0  # atno 10167 bound_to 10162
  157.5027  130.8449  149.8337 H   0  0  0  0  0  0  0  0  0  0  0  0  # atno 10718 bound_to 10713
  153.0990  135.4822  154.8832 H   0  0  0  0  0  0  0  0  0  0  0  0  # atno 10763 bound_to 10752
  154.7357  135.3070  154.8818 H   0  0  0  0  0  0  0  0  0  0  0  0  # atno 10764 bound_to 10752
  153.9440  135.6831  153.4797 H   0  0  0  0  0  0  0  0  0  0  0  0  # atno 10765 bound_to 10752
  139.8776  134.9004  156.4317 H   0  0  0  0  0  0  0  0  0  0  0  0  # atno 11005 bound_to 11000
  144.8491  140.6974  143.6180 LP  0  0  0  0  0  0  0  0  0  0  0  0  # atno 17320 bound_to 7965
  145.3786  139.1642  143.4293 LP  0  0  0  0  0  0  0  0  0  0  0  0  # atno 17321 bound_to 7965
  139.5486  144.7319  151.4504 LP  0  0  0  0  0  0  0  0  0  0  0  0  # atno 17342 bound_to 10162
  140.6778  143.8151  150.7081 LP  0  0  0  0  0  0  0  0  0  0  0  0  # atno 17343 bound_to 10162
  156.0239  130.3786  150.1879 LP  0  0  0  0  0  0  0  0  0  0  0  0  # atno 17370 bound_to 10713
  157.0069  130.9939  151.3376 LP  0  0  0  0  0  0  0  0  0  0  0  0  # atno 17371 bound_to 10713
  140.9062  133.7744  155.9738 LP  0  0  0  0  0  0  0  0  0  0  0  0  # atno 17394 bound_to 11000
  140.8597  134.2856  157.5240 LP  0  0  0  0  0  0  0  0  0  0  0  0  # atno 17395 bound_to 11000

$$$$
