AV-unprocessed.smi:1040|AV-procd|sdf|4527|dock3
  -GOLD-   22720 2543D 1   1.00000     0.00000
 Structure written by MMmdl.
 55 56  0  0  0  0  0  0  0  0  2 V2000
  151.6736  137.4758  155.4866 C   0  0  0  0  0  0  0  0  0  0  0  0
  150.6999  137.9995  154.4181 C   0  0  1  0  0  0  0  0  0  0  0  0
  149.6070  137.0522  154.2094 N   0  0  0  0  0  0  0  0  0  0  0  0
  148.9111  136.4284  155.1697 C   0  0  0  0  0  0  0  0  0  0  0  0
  149.0840  136.6161  156.3737 O   0  0  0  0  0  0  0  0  0  0  0  0
  148.0292  135.5659  154.6397 N   0  0  0  0  0  0  0  0  0  0  0  0
  147.1544  134.6734  155.3210 C   0  0  0  0  0  0  0  0  0  0  0  0
  147.3500  134.3131  156.6784 C   0  0  0  0  0  0  0  0  0  0  0  0
  146.4501  133.4269  157.3022 C   0  0  0  0  0  0  0  0  0  0  0  0
  145.3668  132.9190  156.5623 C   0  0  0  0  0  0  0  0  0  0  0  0
  145.2007  133.2920  155.2762 N   0  3  0  0  0  0  0  0  0  0  0  0
  146.0324  134.1444  154.6282 C   0  0  0  0  0  0  0  0  0  0  0  0
  145.7521  134.4726  153.2875 N   0  0  0  0  0  0  0  0  0  0  0  0
  145.9782  133.4281  152.2892 C   0  0  0  0  0  0  0  0  0  0  0  0
  145.9691  134.0228  150.8704 C   0  0  0  0  0  0  0  0  0  0  0  0
  144.6772  134.8159  150.6137 C   0  0  0  0  0  0  0  0  0  0  0  0
  144.4729  135.8746  151.7097 C   0  0  0  0  0  0  0  0  0  0  0  0
  144.5191  135.2367  153.1086 C   0  0  0  0  0  0  0  0  0  0  0  0
  150.1524  139.3979  154.7280 C   0  0  0  0  0  0  0  0  0  0  0  0
  150.9178  140.3603  154.8030 O   0  0  0  0  0  0  0  0  0  0  0  0
  148.8200  139.4880  154.8895 N   0  0  0  0  0  0  0  0  0  0  0  0
  148.0162  140.6792  155.1899 C   0  0  0  0  0  0  0  0  0  0  0  0
  148.5809  141.2842  156.4872 C   0  0  0  0  0  0  0  0  0  0  0  0
  146.5386  140.2956  155.4173 C   0  0  0  0  0  0  0  0  0  0  0  0
  148.1409  141.7199  154.0568 C   0  0  0  0  0  0  0  0  0  0  0  0
  152.5035  138.1673  155.6364 H   0  0  0  0  0  0  0  0  0  0  0  0
  152.0993  136.5146  155.1973 H   0  0  0  0  0  0  0  0  0  0  0  0
  151.1748  137.3433  156.4475 H   0  0  0  0  0  0  0  0  0  0  0  0
  151.2514  138.0841  153.4792 H   0  0  0  0  0  0  0  0  0  0  0  0
  149.3929  136.8309  153.2478 H   0  0  0  0  0  0  0  0  0  0  0  0
  148.0696  135.4543  153.6373 H   0  0  0  0  0  0  0  0  0  0  0  0
  148.1715  134.7113  157.2546 H   0  0  0  0  0  0  0  0  0  0  0  0
  146.5887  133.1433  158.3354 H   0  0  0  0  0  0  0  0  0  0  0  0
  144.6288  132.2368  156.9591 H   0  0  0  0  0  0  0  0  0  0  0  0
  146.9340  132.9367  152.4755 H   0  0  0  0  0  0  0  0  0  0  0  0
  145.2007  132.6677  152.3763 H   0  0  0  0  0  0  0  0  0  0  0  0
  146.8313  134.6795  150.7449 H   0  0  0  0  0  0  0  0  0  0  0  0
  146.0748  133.2281  150.1316 H   0  0  0  0  0  0  0  0  0  0  0  0
  144.7147  135.2910  149.6330 H   0  0  0  0  0  0  0  0  0  0  0  0
  143.8254  134.1349  150.5982 H   0  0  0  0  0  0  0  0  0  0  0  0
  145.2494  136.6369  151.6312 H   0  0  0  0  0  0  0  0  0  0  0  0
  143.5210  136.3857  151.5632 H   0  0  0  0  0  0  0  0  0  0  0  0
  143.6686  134.5663  153.2391 H   0  0  0  0  0  0  0  0  0  0  0  0
  144.4256  136.0118  153.8695 H   0  0  0  0  0  0  0  0  0  0  0  0
  148.2982  138.6287  154.7943 H   0  0  0  0  0  0  0  0  0  0  0  0
  148.0324  142.1807  156.7787 H   0  0  0  0  0  0  0  0  0  0  0  0
  149.6288  141.5649  156.3730 H   0  0  0  0  0  0  0  0  0  0  0  0
  148.5180  140.5786  157.3167 H   0  0  0  0  0  0  0  0  0  0  0  0
  146.4405  139.5332  156.1909 H   0  0  0  0  0  0  0  0  0  0  0  0
  146.0698  139.9090  154.5124 H   0  0  0  0  0  0  0  0  0  0  0  0
  145.9532  141.1595  155.7341 H   0  0  0  0  0  0  0  0  0  0  0  0
  147.6232  142.6442  154.3155 H   0  0  0  0  0  0  0  0  0  0  0  0
  147.7083  141.3649  153.1215 H   0  0  0  0  0  0  0  0  0  0  0  0
  149.1840  141.9724  153.8626 H   0  0  0  0  0  0  0  0  0  0  0  0
  144.4017  132.9157  154.7657 H   0  0  0  0  0  0  0  0  0  0  0  0
  1  2  1  0  0  0  0
  1 26  1  0  0  0  0
  1 27  1  0  0  0  0
  1 28  1  0  0  0  0
  2  3  1  0  0  0  0
  2 19  1  0  0  0  0
  2 29  1  0  0  0  0
  3  4  1  0  0  0  0
  3 30  1  0  0  0  0
  4  5  2  0  0  0  0
  4  6  1  0  0  0  0
  6  7  1  0  0  0  0
  6 31  1  0  0  0  0
  7 12  1  0  0  0  0
  7  8  2  0  0  0  0
  8  9  1  0  0  0  0
  8 32  1  0  0  0  0
  9 10  2  0  0  0  0
  9 33  1  0  0  0  0
 10 11  1  0  0  0  0
 10 34  1  0  0  0  0
 11 12  2  0  0  0  0
 11 55  1  0  0  0  0
 12 13  1  0  0  0  0
 13 18  1  0  0  0  0
 13 14  1  0  0  0  0
 14 15  1  0  0  0  0
 14 35  1  0  0  0  0
 14 36  1  0  0  0  0
 15 16  1  0  0  0  0
 15 37  1  0  0  0  0
 15 38  1  0  0  0  0
 16 17  1  0  0  0  0
 16 39  1  0  0  0  0
 16 40  1  0  0  0  0
 17 18  1  0  0  0  0
 17 41  1  0  0  0  0
 17 42  1  0  0  0  0
 18 43  1  0  0  0  0
 18 44  1  0  0  0  0
 19 20  2  0  0  0  0
 19 21  1  0  0  0  0
 21 22  1  0  0  0  0
 21 45  1  0  0  0  0
 22 23  1  0  0  0  0
 22 24  1  0  0  0  0
 22 25  1  0  0  0  0
 23 46  1  0  0  0  0
 23 47  1  0  0  0  0
 23 48  1  0  0  0  0
 24 49  1  0  0  0  0
 24 50  1  0  0  0  0
 24 51  1  0  0  0  0
 25 52  1  0  0  0  0
 25 53  1  0  0  0  0
 25 54  1  0  0  0  0
M  CHG  1  11   1
M  END
> <s_m_source_file>
AV-unprocessed.smi

> <i_m_source_file_index>
1040

> <i_lp_mmshare_version>
43012

> <i_f3d_flags>
0

> <s_epik_input>
W0NIM11DKFtDSDNdKShbQ0gzXSlbTkhdQyg9TylbQ0BIXShbQ0gzXSlbTkhdQyg9TylbTkhdYzFbY0hdW2NIXVtjSF1uYzFOMltDSDJdW0NIMl1bQ0gyXVtDSDJdW0NIMl0y

> <s_epik_cmdline>
J2VwaWtfcHl0aG9uJywgJy1waCcsICc3LjAnLCAnLXRuJywgJzgnLCAnLW1hJywgJzIwMCcsICctbWV0YWxfYmluZGluZycsICctaW1hZScsICc8aW5maWxlLm1hZT4nLCAnLW9tYWUnLCAnPG91dGZpbGUubWFlPic=

> <r_lp_tautomer_probability>
0.999994

> <r_epik_Ionization_Penalty>
1.20468

> <r_epik_Ionization_Penalty_Charging>
1.20466

> <r_epik_Ionization_Penalty_Neutral>
1.88859e-05

> <r_epik_State_Penalty>
1.27057

> <r_epik_Charging_Adjusted_Penalty>
2.47523

> <i_epik_Tot_Q>
1

> <i_epik_Tot_abs_Q>
1

> <r_epik_Metal_State_Penalty>
1.34448

> <b_epik_Metal_Only>
0

> <s_lp_Force_Field>
OPLS_2005

> <r_lp_Energy>
27.4215

> <b_lp_Chiralities_Consistent>
1

> <s_lp_Variant>
AV-unprocessed.smi:1040-4

> <Gold.Version>
5.8.1

> <Gold.Id.Protein>
6NUR|6NUR_protein|mol2

> <Gold.PLP.Fitness>
40.2572

> <Gold.PLP.PLP>
-27.5398

> <Gold.PLP.part.hbond>
-4.0850

> <Gold.PLP.part.metal>
0.0000

> <Gold.PLP.part.buried>
-4.8873

> <Gold.PLP.part.nonpolar>
-20.4303

> <Gold.PLP.part.repulsive>
0.2336

> <Gold.PLP.ligand.clash>
0.0000

> <Gold.PLP.ligand.torsion>
0.5521

> <Gold.PLP.Chemscore.Hbond>
4.4817

> <Gold.PLP.Chemscore.CHOScore>
0.0000

> <Gold.PLP.Chemscore.Metal>
0.0000

> <Gold.Chemscore.Hbonds>
donor molecule, donor type, donor heavy atom, donor atom, acceptor molecule, acceptor atom, score
      L1  H     3    30       P1  7948  1.00
      L1  H     6    31       P1  7948  0.69
      L1  H    11    55       P1 10957  1.72
      P1  H  7989  7998       L1    20  1.00

> <Gold.PLP.Chemscore.Internal.Correction>
0.3764

> <Gold.Rescore>
     Score         DG    S(hbond)    S(metal)    S(lipo)     H(rot)  DE(clash)    DE(int)     intcor
     15.65     -19.49       3.35        0.00      60.14       1.64       0.03       3.82       ----

> <Gold.Chemscore.Fitness>
15.6463

> <Gold.Chemscore.DG>
-19.4934

> <Gold.Chemscore.ZeroCoef>
-5.4800

> <Gold.Chemscore.Hbond>
3.3481

> <Gold.Chemscore.Metal>
0.0000

> <Gold.Chemscore.Lipo>
60.1388

> <Gold.Chemscore.Internal_Hbond>
0.0000

> <Gold.Chemscore.DEClash>
0.0312

> <Gold.Chemscore.DEInternal>
3.8158

> <Gold.Chemscore.Rot>
1.6428

> <Gold.Chemscore.Internal.Correction>
   9.000000E+99

> <Gold.Chemscore.Hbonds>
donor molecule, donor type, donor heavy atom, donor atom, acceptor molecule, acceptor atom, score
      L1  H     3    30       P1  7948  0.83
      L1  H     6    31       P1  7948  0.66
      L1  H    11    55       P1 10957  0.80
      P1  H  7989  7998       L1    20  0.93

> <Gold.Chemscore.Hbond.Weighted>
-11.1826

> <Gold.Chemscore.Metal.Weighted>
-0.0000

> <Gold.Chemscore.Lipo.Weighted>
-7.0362

> <Gold.Chemscore.Internal_Hbond.Weighted>
0.0000

> <Gold.Chemscore.DEClash.Weighted>
0.0312

> <Gold.Chemscore.DEInternal.Weighted>
3.8158

> <Gold.Chemscore.Rot.Weighted>
4.2055

> <Gold.Chemscore.Internal.Correction.Weighted>
   9.000000E+99

> <Gold.Protein.RotatedTorsions>
[ 6907 6896 6895 6894 ] final  -39.67 input  -60.11 | X-H torsion
[ 7974 7965 7964 7962 ] final -169.54 input  175.53 | X-H torsion
[ 8008 7997 7996 7995 ] final    4.82 input   59.86 | X-H torsion
[ 10167 10162 10161 10158 ] final   -6.19 input  -65.29 | X-H torsion
[ 10718 10713 10712 10709 ] final  -31.17 input   66.30 | X-H torsion
[ 10763 10752 10751 10750 ] final  -26.26 input  -60.55 | X-H torsion
[ 11005 11000 10999 10996 ] final -169.99 input  -57.11 | X-H torsion

> <Gold.Protein.ActiveResidues>
 VAL166  LYS551  ARG553  GLY616  TRP617  ASP618  TYR619  PRO620  LYS621  CYS622 
 ASP623  PHE694  ASN695  SER759  ASP760  ASP761  ALA762  ILE779  LEU786  VAL792 
 PHE793  MET794  SER795  GLU796  ALA797  LYS798  CYS799  TRP800  GLU811  SER814 

> <Gold.Protein.RotatedAtoms>
  150.9876  134.9218  159.7880 H   0  0  0  0  0  0  0  0  0  0  0  0  # atno 6907 bound_to 6896
  152.5241  134.3325  159.9198 H   0  0  0  0  0  0  0  0  0  0  0  0  # atno 6908 bound_to 6896
  151.3332  133.3951  159.2699 H   0  0  0  0  0  0  0  0  0  0  0  0  # atno 6909 bound_to 6896
  144.7184  140.2206  143.6316 H   0  0  0  0  0  0  0  0  0  0  0  0  # atno 7974 bound_to 7965
  154.7206  140.2711  155.6544 H   0  0  0  0  0  0  0  0  0  0  0  0  # atno 8008 bound_to 7997
  156.2822  140.2735  156.1802 H   0  0  0  0  0  0  0  0  0  0  0  0  # atno 8009 bound_to 7997
  155.0512  140.0371  157.2534 H   0  0  0  0  0  0  0  0  0  0  0  0  # atno 8010 bound_to 7997
  140.6989  143.6222  150.8602 H   0  0  0  0  0  0  0  0  0  0  0  0  # atno 10167 bound_to 10162
  156.3906  130.4372  149.7398 H   0  0  0  0  0  0  0  0  0  0  0  0  # atno 10718 bound_to 10713
  153.7131  135.6949  153.5032 H   0  0  0  0  0  0  0  0  0  0  0  0  # atno 10763 bound_to 10752
  153.2258  135.4354  155.0539 H   0  0  0  0  0  0  0  0  0  0  0  0  # atno 10764 bound_to 10752
  154.8308  135.3472  154.6667 H   0  0  0  0  0  0  0  0  0  0  0  0  # atno 10765 bound_to 10752
  140.5246  134.5676  157.5057 H   0  0  0  0  0  0  0  0  0  0  0  0  # atno 11005 bound_to 11000
  145.8505  139.2173  143.1775 LP  0  0  0  0  0  0  0  0  0  0  0  0  # atno 17320 bound_to 7965
  146.0265  140.8298  142.9897 LP  0  0  0  0  0  0  0  0  0  0  0  0  # atno 17321 bound_to 7965
  139.9942  143.5814  152.2899 LP  0  0  0  0  0  0  0  0  0  0  0  0  # atno 17342 bound_to 10162
  139.6480  144.7659  151.2205 LP  0  0  0  0  0  0  0  0  0  0  0  0  # atno 17343 bound_to 10162
  156.4453  130.7880  151.2902 LP  0  0  0  0  0  0  0  0  0  0  0  0  # atno 17370 bound_to 10713
  157.7499  131.0112  150.3337 LP  0  0  0  0  0  0  0  0  0  0  0  0  # atno 17371 bound_to 10713
  139.9587  134.7490  156.0284 LP  0  0  0  0  0  0  0  0  0  0  0  0  # atno 17394 bound_to 11000
  141.1315  133.6585  156.3478 LP  0  0  0  0  0  0  0  0  0  0  0  0  # atno 17395 bound_to 11000

$$$$
