AV-unprocessed.smi:290|AV-procd|sdf|2216|dock7
  -GOLD-   2262022 53D 1   1.00000     0.00000
 Structure written by MMmdl.
 59 62  0  0  0  0  0  0  0  0  2 V2000
  150.3752  141.7189  156.8597 C   0  0  0  0  0  0  0  0  0  0  0  0
  150.3539  140.9320  155.5392 C   0  0  1  0  0  0  0  0  0  0  0  0
  151.4250  140.0005  155.4939 O   0  0  0  0  0  0  0  0  0  0  0  0
  151.1211  139.0700  154.4707 C   0  0  0  0  0  0  0  0  0  0  0  0
  149.6467  138.7723  154.7152 C   0  0  0  0  0  0  0  0  0  0  0  0
  149.0811  140.0988  155.2324 C   0  0  1  0  0  0  0  0  0  0  0  0
  148.3320  139.8296  156.4065 O   0  0  0  0  0  0  0  0  0  0  0  0
  148.1427  140.7738  154.2015 C   0  0  0  0  0  0  0  0  0  0  0  0
  147.3168  139.8302  153.4626 N   0  0  0  0  0  0  0  0  0  0  0  0
  147.2262  139.7110  152.0935 C   0  0  0  0  0  0  0  0  0  0  0  0
  146.4188  138.7790  151.6664 N   0  0  0  0  0  0  0  0  0  0  0  0
  145.9064  138.2185  152.8299 C   0  0  0  0  0  0  0  0  0  0  0  0
  144.9863  137.1687  153.1060 C   0  0  0  0  0  0  0  0  0  0  0  0
  144.3600  136.4274  152.1676 N   0  0  0  0  0  0  0  0  0  0  0  0
  143.4148  135.4418  152.6892 C   0  0  0  0  0  0  0  0  0  0  0  0
  143.4559  134.2565  151.7221 C   0  0  0  0  0  0  0  0  0  0  0  0
  144.9128  134.3074  151.2563 C   0  0  1  0  0  0  0  0  0  0  0  0
  145.3053  133.4636  150.0846 N   0  3  1  0  0  0  0  0  0  0  0  0
  146.6476  132.8595  150.2748 C   0  0  0  0  0  0  0  0  0  0  0  0
  144.2915  132.4650  149.6419 C   0  0  0  0  0  0  0  0  0  0  0  0
  143.7909  132.7118  148.2072 C   0  0  0  0  0  0  0  0  0  0  0  0
  143.0659  133.9214  148.1447 O   0  0  0  0  0  0  0  0  0  0  0  0
  145.2152  135.8158  151.1507 C   0  0  1  0  0  0  0  0  0  0  0  0
  144.9422  136.4782  149.7904 C   0  0  0  0  0  0  0  0  0  0  0  0
  144.7144  136.8823  154.4018 N   0  0  0  0  0  0  0  0  0  0  0  0
  145.3008  137.5844  155.3765 C   0  0  0  0  0  0  0  0  0  0  0  0
  146.1735  138.5894  155.2729 N   0  0  0  0  0  0  0  0  0  0  0  0
  146.4542  138.8729  153.9685 C   0  0  0  0  0  0  0  0  0  0  0  0
  145.5075  133.9673  152.1059 H   0  0  0  0  0  0  0  0  0  0  0  0
  146.2700  135.9750  151.3808 H   0  0  0  0  0  0  0  0  0  0  0  0
  149.5441  142.4227  156.9123 H   0  0  0  0  0  0  0  0  0  0  0  0
  151.2982  142.2914  156.9517 H   0  0  0  0  0  0  0  0  0  0  0  0
  150.3134  141.0562  157.7233 H   0  0  0  0  0  0  0  0  0  0  0  0
  150.5336  141.6291  154.7202 H   0  0  0  0  0  0  0  0  0  0  0  0
  151.2718  139.5316  153.4934 H   0  0  0  0  0  0  0  0  0  0  0  0
  151.7476  138.1802  154.5340 H   0  0  0  0  0  0  0  0  0  0  0  0
  149.1460  138.4048  153.8188 H   0  0  0  0  0  0  0  0  0  0  0  0
  149.5694  137.9906  155.4730 H   0  0  0  0  0  0  0  0  0  0  0  0
  148.5749  140.4587  157.0683 H   0  0  0  0  0  0  0  0  0  0  0  0
  147.4849  141.4844  154.7037 H   0  0  0  0  0  0  0  0  0  0  0  0
  148.7227  141.3537  153.4823 H   0  0  0  0  0  0  0  0  0  0  0  0
  147.7888  140.3372  151.4164 H   0  0  0  0  0  0  0  0  0  0  0  0
  143.7068  135.1194  153.6900 H   0  0  0  0  0  0  0  0  0  0  0  0
  142.4122  135.8648  152.7575 H   0  0  0  0  0  0  0  0  0  0  0  0
  143.1903  133.3130  152.1997 H   0  0  0  0  0  0  0  0  0  0  0  0
  142.7529  134.4390  150.9100 H   0  0  0  0  0  0  0  0  0  0  0  0
  146.6410  132.1549  151.1073 H   0  0  0  0  0  0  0  0  0  0  0  0
  147.3934  133.6272  150.4853 H   0  0  0  0  0  0  0  0  0  0  0  0
  146.9882  132.3325  149.3853 H   0  0  0  0  0  0  0  0  0  0  0  0
  144.7136  131.4622  149.7217 H   0  0  0  0  0  0  0  0  0  0  0  0
  143.4226  132.4799  150.2966 H   0  0  0  0  0  0  0  0  0  0  0  0
  144.6002  132.7302  147.4792 H   0  0  0  0  0  0  0  0  0  0  0  0
  143.1246  131.9024  147.9085 H   0  0  0  0  0  0  0  0  0  0  0  0
  142.5027  133.9762  148.9022 H   0  0  0  0  0  0  0  0  0  0  0  0
  145.5520  136.0398  149.0016 H   0  0  0  0  0  0  0  0  0  0  0  0
  145.1843  137.5406  149.8277 H   0  0  0  0  0  0  0  0  0  0  0  0
  143.8937  136.3980  149.5030 H   0  0  0  0  0  0  0  0  0  0  0  0
  145.0328  137.3001  156.3832 H   0  0  0  0  0  0  0  0  0  0  0  0
  145.4065  134.1118  149.3161 H   0  0  0  0  0  0  0  0  0  0  0  0
  1  2  1  0  0  0  0
  1 31  1  0  0  0  0
  1 32  1  0  0  0  0
  1 33  1  0  0  0  0
  2  6  1  0  0  0  0
  2  3  1  0  0  0  0
  2 34  1  0  0  0  0
  3  4  1  0  0  0  0
  4  5  1  0  0  0  0
  4 35  1  0  0  0  0
  4 36  1  0  0  0  0
  5  6  1  0  0  0  0
  5 37  1  0  0  0  0
  5 38  1  0  0  0  0
  6  7  1  0  0  0  0
  6  8  1  0  0  0  0
  7 39  1  0  0  0  0
  8  9  1  0  0  0  0
  8 40  1  0  0  0  0
  8 41  1  0  0  0  0
  9 28  1  0  0  0  0
  9 10  1  0  0  0  0
 10 11  2  0  0  0  0
 10 42  1  0  0  0  0
 11 12  1  0  0  0  0
 12 28  2  0  0  0  0
 12 13  1  0  0  0  0
 13 14  1  0  0  0  0
 13 25  2  0  0  0  0
 14 23  1  0  0  0  0
 14 15  1  0  0  0  0
 15 16  1  0  0  0  0
 15 43  1  0  0  0  0
 15 44  1  0  0  0  0
 16 17  1  0  0  0  0
 16 45  1  0  0  0  0
 16 46  1  0  0  0  0
 17 29  1  0  0  0  0
 17 18  1  0  0  0  0
 17 23  1  0  0  0  0
 18 19  1  0  0  0  0
 18 20  1  0  0  0  0
 18 59  1  0  0  0  0
 19 47  1  0  0  0  0
 19 48  1  0  0  0  0
 19 49  1  0  0  0  0
 20 21  1  0  0  0  0
 20 50  1  0  0  0  0
 20 51  1  0  0  0  0
 21 22  1  0  0  0  0
 21 52  1  0  0  0  0
 21 53  1  0  0  0  0
 22 54  1  0  0  0  0
 23 30  1  0  0  0  0
 23 24  1  0  0  0  0
 24 55  1  0  0  0  0
 24 56  1  0  0  0  0
 24 57  1  0  0  0  0
 25 26  1  0  0  0  0
 26 27  2  0  0  0  0
 26 58  1  0  0  0  0
 27 28  1  0  0  0  0
M  CHG  1  18   1
M  END
> <s_m_source_file>
AV-unprocessed.smi

> <i_m_source_file_index>
290

> <i_lp_mmshare_version>
43012

> <i_f3d_flags>
0

> <s_epik_input>
W0NIMl0xW0NIMl1PW0NAQEhdKFtDSDNdKVtDQEBdMShbT0hdKVtDSDJdbihbY0hdbjIpYyhjMjMpbltjSF1uYzNONFtDSDJdW0NIMl1bQ0BIXShbQ0BIXTRbQ0gzXSlOKFtDSDNdKVtDSDJdW0NIMl1bT0hd

> <s_epik_cmdline>
J2VwaWtfcHl0aG9uJywgJy1waCcsICc3LjAnLCAnLXRuJywgJzgnLCAnLW1hJywgJzIwMCcsICctbWV0YWxfYmluZGluZycsICctaW1hZScsICc8aW5maWxlLm1hZT4nLCAnLW9tYWUnLCAnPG91dGZpbGUubWFlPic=

> <r_lp_tautomer_probability>
1

> <r_epik_Ionization_Penalty>
0.0036983

> <r_epik_Ionization_Penalty_Charging>
0.0032725

> <r_epik_Ionization_Penalty_Neutral>
0.000425798

> <r_epik_State_Penalty>
-0

> <r_epik_Charging_Adjusted_Penalty>
0.0032725

> <i_epik_Tot_Q>
1

> <i_epik_Tot_abs_Q>
1

> <r_epik_Metal_State_Penalty>
-0

> <b_epik_Metal_Only>
0

> <s_lp_Force_Field>
OPLS_2005

> <r_lp_Energy>
65.8888

> <b_lp_Chiralities_Consistent>
1

> <s_lp_Variant>
AV-unprocessed.smi:290-2

> <Gold.Version>
5.8.1

> <Gold.Id.Protein>
6NUR|6NUR_protein|mol2

> <Gold.PLP.Fitness>
44.6641

> <Gold.PLP.PLP>
-40.7006

> <Gold.PLP.part.hbond>
-5.2269

> <Gold.PLP.part.metal>
0.0000

> <Gold.PLP.part.buried>
7.9281

> <Gold.PLP.part.nonpolar>
-44.1453

> <Gold.PLP.part.repulsive>
0.7221

> <Gold.PLP.ligand.clash>
0.0000

> <Gold.PLP.ligand.torsion>
2.3808

> <Gold.PLP.Chemscore.Hbond>
2.5600

> <Gold.PLP.Chemscore.CHOScore>
0.2548

> <Gold.PLP.Chemscore.Metal>
0.0000

> <Gold.Chemscore.Hbonds>
donor molecule, donor type, donor heavy atom, donor atom, acceptor molecule, acceptor atom, score
      L1  H    18    59       P1  7921  1.00
      L1  H    22    54       P1 10186  0.94
      P1  H 10192 10197       L1    22  0.65
      L1  C    10    42       P1  7957  0.39

> <Gold.PLP.Chemscore.Internal.Correction>
0.2809

> <Gold.Rescore>
     Score         DG    S(hbond)    S(metal)    S(lipo)     H(rot)  DE(clash)    DE(int)     intcor
      8.66     -16.38       2.21        0.00     110.40       3.67       3.91       3.81       ----

> <Gold.Chemscore.Fitness>
8.6633

> <Gold.Chemscore.DG>
-16.3807

> <Gold.Chemscore.ZeroCoef>
-5.4800

> <Gold.Chemscore.Hbond>
2.2061

> <Gold.Chemscore.Metal>
0.0000

> <Gold.Chemscore.Lipo>
110.3984

> <Gold.Chemscore.Internal_Hbond>
0.0000

> <Gold.Chemscore.DEClash>
3.9081

> <Gold.Chemscore.DEInternal>
3.8094

> <Gold.Chemscore.Rot>
3.6658

> <Gold.Chemscore.Internal.Correction>
   9.000000E+99

> <Gold.Chemscore.Hbonds>
donor molecule, donor type, donor heavy atom, donor atom, acceptor molecule, acceptor atom, score
      L1  H    18    59       P1  7921  0.86
      L1  H    22    54       P1 10186  0.91
      P1  H 10192 10197       L1    22  0.06

> <Gold.Chemscore.Hbond.Weighted>
-7.3685

> <Gold.Chemscore.Metal.Weighted>
-0.0000

> <Gold.Chemscore.Lipo.Weighted>
-12.9166

> <Gold.Chemscore.Internal_Hbond.Weighted>
0.0000

> <Gold.Chemscore.DEClash.Weighted>
3.9081

> <Gold.Chemscore.DEInternal.Weighted>
3.8094

> <Gold.Chemscore.Rot.Weighted>
9.3844

> <Gold.Chemscore.Internal.Correction.Weighted>
   9.000000E+99

> <Gold.Protein.RotatedTorsions>
[ 6907 6896 6895 6894 ] final  170.32 input  -60.11 | X-H torsion
[ 7974 7965 7964 7962 ] final -170.88 input  175.53 | X-H torsion
[ 8008 7997 7996 7995 ] final  162.01 input   59.86 | X-H torsion
[ 10167 10162 10161 10158 ] final -118.53 input  -65.29 | X-H torsion
[ 10718 10713 10712 10709 ] final  -19.14 input   66.30 | X-H torsion
[ 10763 10752 10751 10750 ] final  -35.32 input  -60.55 | X-H torsion
[ 11005 11000 10999 10996 ] final -156.35 input  -57.11 | X-H torsion

> <Gold.Protein.ActiveResidues>
 VAL166  LYS551  ARG553  GLY616  TRP617  ASP618  TYR619  PRO620  LYS621  CYS622 
 ASP623  PHE694  ASN695  SER759  ASP760  ASP761  ALA762  ILE779  LEU786  VAL792 
 PHE793  MET794  SER795  GLU796  ALA797  LYS798  CYS799  TRP800  GLU811  SER814 

> <Gold.Protein.RotatedAtoms>
  151.8179  133.3390  159.3574 H   0  0  0  0  0  0  0  0  0  0  0  0  # atno 6907 bound_to 6896
  150.7304  134.5602  159.5847 H   0  0  0  0  0  0  0  0  0  0  0  0  # atno 6908 bound_to 6896
  152.3027  134.7592  160.0405 H   0  0  0  0  0  0  0  0  0  0  0  0  # atno 6909 bound_to 6896
  144.7164  140.2005  143.6339 H   0  0  0  0  0  0  0  0  0  0  0  0  # atno 7974 bound_to 7965
  156.2062  140.1762  156.7795 H   0  0  0  0  0  0  0  0  0  0  0  0  # atno 8008 bound_to 7997
  154.5658  140.0691  156.8920 H   0  0  0  0  0  0  0  0  0  0  0  0  # atno 8009 bound_to 7997
  155.2763  140.3346  155.4264 H   0  0  0  0  0  0  0  0  0  0  0  0  # atno 8010 bound_to 7997
  140.0565  143.5009  152.2055 H   0  0  0  0  0  0  0  0  0  0  0  0  # atno 10167 bound_to 10162
  156.5497  130.4698  149.6458 H   0  0  0  0  0  0  0  0  0  0  0  0  # atno 10718 bound_to 10713
  153.8612  135.6840  153.4782 H   0  0  0  0  0  0  0  0  0  0  0  0  # atno 10763 bound_to 10752
  153.1341  135.4685  154.9392 H   0  0  0  0  0  0  0  0  0  0  0  0  # atno 10764 bound_to 10752
  154.7758  135.3253  154.8045 H   0  0  0  0  0  0  0  0  0  0  0  0  # atno 10765 bound_to 10752
  140.6765  134.4190  157.5229 H   0  0  0  0  0  0  0  0  0  0  0  0  # atno 11005 bound_to 11000
  145.8684  139.2259  143.1675 LP  0  0  0  0  0  0  0  0  0  0  0  0  # atno 17320 bound_to 7965
  146.0108  140.8437  142.9972 LP  0  0  0  0  0  0  0  0  0  0  0  0  # atno 17321 bound_to 7965
  139.5920  144.7553  151.3377 LP  0  0  0  0  0  0  0  0  0  0  0  0  # atno 17342 bound_to 10162
  140.7192  143.7182  150.7716 LP  0  0  0  0  0  0  0  0  0  0  0  0  # atno 17343 bound_to 10162
  156.2896  130.7116  151.1962 LP  0  0  0  0  0  0  0  0  0  0  0  0  # atno 17370 bound_to 10713
  157.7390  131.0534  150.5261 LP  0  0  0  0  0  0  0  0  0  0  0  0  # atno 17371 bound_to 10713
  139.8965  134.8658  156.2085 LP  0  0  0  0  0  0  0  0  0  0  0  0  # atno 17394 bound_to 11000
  141.0351  133.6968  156.1498 LP  0  0  0  0  0  0  0  0  0  0  0  0  # atno 17395 bound_to 11000

$$$$
