AV-unprocessed.smi:3045|AV-procd|sdf|11611|dock2
  -GOLD-   2272016593D 1   1.00000     0.00000
 Structure written by MMmdl.
 36 37  0  0  0  0  0  0  0  0  2 V2000
  152.6073  144.0680  162.4065 C   0  0  0  0  0  0  0  0  0  0  0  0
  152.4604  144.0393  160.9577 N   0  0  0  0  0  0  0  0  0  0  0  0
  153.0285  142.9615  160.1668 C   0  0  0  0  0  0  0  0  0  0  0  0
  152.5171  143.1891  158.7272 C   0  0  1  0  0  0  0  0  0  0  0  0
  151.5124  142.1115  158.2897 C   0  0  0  0  0  0  0  0  0  0  0  0
  151.3126  141.1239  158.9982 O   0  0  0  0  0  0  0  0  0  0  0  0
  150.8895  142.3116  157.1179 N   0  0  0  0  0  0  0  0  0  0  0  0
  149.8971  141.4155  156.5370 C   0  0  0  0  0  0  0  0  0  0  0  0
  150.3260  140.9100  155.1489 C   0  0  0  0  0  0  0  0  0  0  0  0
  149.1440  140.4492  154.3187 C   0  0  0  0  0  0  0  0  0  0  0  0
  147.9852  141.2508  154.2181 C   0  0  0  0  0  0  0  0  0  0  0  0
  146.9001  140.8035  153.4358 C   0  0  0  0  0  0  0  0  0  0  0  0
  146.9978  139.5629  152.7729 C   0  0  0  0  0  0  0  0  0  0  0  0
  148.1219  138.8228  152.8935 N   0  3  0  0  0  0  0  0  0  0  0  0
  149.1830  139.2165  153.6318 C   0  0  0  0  0  0  0  0  0  0  0  0
  151.8759  144.5924  158.7443 C   0  0  0  0  0  0  0  0  0  0  0  0
  151.8490  144.9674  160.2167 C   0  0  0  0  0  0  0  0  0  0  0  0
  151.3172  145.9944  160.6351 O   0  0  0  0  0  0  0  0  0  0  0  0
  153.1448  144.9636  162.7199 H   0  0  0  0  0  0  0  0  0  0  0  0
  153.1611  143.1990  162.7629 H   0  0  0  0  0  0  0  0  0  0  0  0
  151.6292  144.0673  162.8888 H   0  0  0  0  0  0  0  0  0  0  0  0
  154.1171  143.0204  160.2049 H   0  0  0  0  0  0  0  0  0  0  0  0
  152.7365  141.9929  160.5764 H   0  0  0  0  0  0  0  0  0  0  0  0
  153.3637  143.1846  158.0382 H   0  0  0  0  0  0  0  0  0  0  0  0
  151.1110  143.1495  156.5989 H   0  0  0  0  0  0  0  0  0  0  0  0
  149.7190  140.5776  157.2134 H   0  0  0  0  0  0  0  0  0  0  0  0
  148.9544  141.9578  156.4595 H   0  0  0  0  0  0  0  0  0  0  0  0
  150.8598  141.6961  154.6132 H   0  0  0  0  0  0  0  0  0  0  0  0
  151.0238  140.0771  155.2450 H   0  0  0  0  0  0  0  0  0  0  0  0
  147.9295  142.1998  154.7319 H   0  0  0  0  0  0  0  0  0  0  0  0
  146.0066  141.4040  153.3455 H   0  0  0  0  0  0  0  0  0  0  0  0
  146.2175  139.1440  152.1543 H   0  0  0  0  0  0  0  0  0  0  0  0
  150.0240  138.5384  153.6488 H   0  0  0  0  0  0  0  0  0  0  0  0
  152.4869  145.3114  158.1979 H   0  0  0  0  0  0  0  0  0  0  0  0
  150.8683  144.6213  158.3259 H   0  0  0  0  0  0  0  0  0  0  0  0
  148.1719  137.9279  152.4057 H   0  0  0  0  0  0  0  0  0  0  0  0
  1  2  1  0  0  0  0
  1 19  1  0  0  0  0
  1 20  1  0  0  0  0
  1 21  1  0  0  0  0
  2 17  1  0  0  0  0
  2  3  1  0  0  0  0
  3  4  1  0  0  0  0
  3 22  1  0  0  0  0
  3 23  1  0  0  0  0
  4  5  1  0  0  0  0
  4 16  1  0  0  0  0
  4 24  1  0  0  0  0
  5  6  2  0  0  0  0
  5  7  1  0  0  0  0
  7  8  1  0  0  0  0
  7 25  1  0  0  0  0
  8  9  1  0  0  0  0
  8 26  1  0  0  0  0
  8 27  1  0  0  0  0
  9 10  1  0  0  0  0
  9 28  1  0  0  0  0
  9 29  1  0  0  0  0
 10 15  1  0  0  0  0
 10 11  2  0  0  0  0
 11 12  1  0  0  0  0
 11 30  1  0  0  0  0
 12 13  2  0  0  0  0
 12 31  1  0  0  0  0
 13 14  1  0  0  0  0
 13 32  1  0  0  0  0
 14 15  2  0  0  0  0
 14 36  1  0  0  0  0
 15 33  1  0  0  0  0
 16 17  1  0  0  0  0
 16 34  1  0  0  0  0
 16 35  1  0  0  0  0
 17 18  2  0  0  0  0
M  CHG  1  14   1
M  END
> <s_m_source_file>
AV-unprocessed.smi

> <i_m_source_file_index>
3045

> <i_lp_mmshare_version>
43012

> <i_f3d_flags>
0

> <s_epik_input>
W0NIM11OMVtDSDJdW0NASF0oW0NIMl1DMT1PKUMoPU8pW05IXVtDSDJdW0NIMl1jMltjSF1bY0hdW2NIXW5bY0hdMg==

> <s_epik_cmdline>
J2VwaWtfcHl0aG9uJywgJy1waCcsICc3LjAnLCAnLXRuJywgJzgnLCAnLW1hJywgJzIwMCcsICctbWV0YWxfYmluZGluZycsICctaW1hZScsICc8aW5maWxlLm1hZT4nLCAnLW9tYWUnLCAnPG91dGZpbGUubWFlPic=

> <r_epik_Ionization_Penalty>
2.26523

> <r_epik_Ionization_Penalty_Charging>
2.26523

> <r_epik_Ionization_Penalty_Neutral>
2.92809e-08

> <r_epik_State_Penalty>
2.41338

> <r_epik_Charging_Adjusted_Penalty>
4.67861

> <i_epik_Tot_Q>
1

> <i_epik_Tot_abs_Q>
1

> <r_epik_Metal_State_Penalty>
2.42626

> <b_epik_Metal_Only>
0

> <s_lp_Force_Field>
OPLS_2005

> <r_lp_Energy>
17.4677

> <b_lp_Chiralities_Consistent>
1

> <s_lp_Variant>
AV-unprocessed.smi:3045-3

> <Gold.Version>
5.8.1

> <Gold.Id.Protein>
6NUR|6NUR_protein|mol2

> <Gold.PLP.Fitness>
48.1856

> <Gold.PLP.PLP>
-42.9105

> <Gold.PLP.part.hbond>
-4.1472

> <Gold.PLP.part.metal>
0.0000

> <Gold.PLP.part.buried>
0.1679

> <Gold.PLP.part.nonpolar>
-38.5728

> <Gold.PLP.part.repulsive>
0.3501

> <Gold.PLP.ligand.clash>
0.0000

> <Gold.PLP.ligand.torsion>
0.3525

> <Gold.PLP.Chemscore.Hbond>
1.9840

> <Gold.PLP.Chemscore.CHOScore>
0.0000

> <Gold.PLP.Chemscore.Metal>
0.0000

> <Gold.Chemscore.Hbonds>
donor molecule, donor type, donor heavy atom, donor atom, acceptor molecule, acceptor atom, score
      L1  H    14    36       P1  7948  2.00

> <Gold.PLP.Chemscore.Internal.Correction>
0.0280

> <Gold.Rescore>
     Score         DG    S(hbond)    S(metal)    S(lipo)     H(rot)  DE(clash)    DE(int)     intcor
     14.47     -15.77       0.92        0.00      99.07       1.71       0.99       0.31       ----

> <Gold.Chemscore.Fitness>
14.4718

> <Gold.Chemscore.DG>
-15.7721

> <Gold.Chemscore.ZeroCoef>
-5.4800

> <Gold.Chemscore.Hbond>
0.9221

> <Gold.Chemscore.Metal>
0.0000

> <Gold.Chemscore.Lipo>
99.0707

> <Gold.Chemscore.Internal_Hbond>
0.0000

> <Gold.Chemscore.DEClash>
0.9898

> <Gold.Chemscore.DEInternal>
0.3105

> <Gold.Chemscore.Rot>
1.7105

> <Gold.Chemscore.Internal.Correction>
   9.000000E+99

> <Gold.Chemscore.Hbonds>
donor molecule, donor type, donor heavy atom, donor atom, acceptor molecule, acceptor atom, score
      L1  H    14    36       P1  7948  0.98

> <Gold.Chemscore.Hbond.Weighted>
-3.0797

> <Gold.Chemscore.Metal.Weighted>
-0.0000

> <Gold.Chemscore.Lipo.Weighted>
-11.5913

> <Gold.Chemscore.Internal_Hbond.Weighted>
0.0000

> <Gold.Chemscore.DEClash.Weighted>
0.9898

> <Gold.Chemscore.DEInternal.Weighted>
0.3105

> <Gold.Chemscore.Rot.Weighted>
4.3789

> <Gold.Chemscore.Internal.Correction.Weighted>
   9.000000E+99

> <Gold.Protein.RotatedTorsions>
[ 6907 6896 6895 6894 ] final -121.65 input  -60.11 | X-H torsion
[ 7974 7965 7964 7962 ] final   47.87 input  175.53 | X-H torsion
[ 8008 7997 7996 7995 ] final -175.18 input   59.86 | X-H torsion
[ 10167 10162 10161 10158 ] final    9.79 input  -65.29 | X-H torsion
[ 10718 10713 10712 10709 ] final  -34.13 input   66.30 | X-H torsion
[ 10763 10752 10751 10750 ] final -103.42 input  -60.55 | X-H torsion
[ 11005 11000 10999 10996 ] final  103.41 input  -57.11 | X-H torsion

> <Gold.Protein.ActiveResidues>
 VAL166  LYS551  ARG553  GLY616  TRP617  ASP618  TYR619  PRO620  LYS621  CYS622 
 ASP623  PHE694  ASN695  SER759  ASP760  ASP761  ALA762  ILE779  LEU786  VAL792 
 PHE793  MET794  SER795  GLU796  ALA797  LYS798  CYS799  TRP800  GLU811  SER814 

> <Gold.Protein.RotatedAtoms>
  150.8503  133.7798  159.3027 H   0  0  0  0  0  0  0  0  0  0  0  0  # atno 6907 bound_to 6896
  151.5472  135.1066  159.9950 H   0  0  0  0  0  0  0  0  0  0  0  0  # atno 6908 bound_to 6896
  152.4547  133.7656  159.6826 H   0  0  0  0  0  0  0  0  0  0  0  0  # atno 6909 bound_to 6896
  146.0258  139.4704  142.9869 H   0  0  0  0  0  0  0  0  0  0  0  0  # atno 7974 bound_to 7965
  155.9794  140.1178  157.0741 H   0  0  0  0  0  0  0  0  0  0  0  0  # atno 8008 bound_to 7997
  154.4178  140.1147  156.5482 H   0  0  0  0  0  0  0  0  0  0  0  0  # atno 8009 bound_to 7997
  155.6491  140.3473  155.4744 H   0  0  0  0  0  0  0  0  0  0  0  0  # atno 8010 bound_to 7997
  140.6234  143.8155  150.7202 H   0  0  0  0  0  0  0  0  0  0  0  0  # atno 10167 bound_to 10162
  156.3542  130.4313  149.7678 H   0  0  0  0  0  0  0  0  0  0  0  0  # atno 10718 bound_to 10713
  154.7806  135.4824  153.9835 H   0  0  0  0  0  0  0  0  0  0  0  0  # atno 10763 bound_to 10752
  153.1488  135.6787  153.8921 H   0  0  0  0  0  0  0  0  0  0  0  0  # atno 10764 bound_to 10752
  153.8572  135.3160  155.3414 H   0  0  0  0  0  0  0  0  0  0  0  0  # atno 10765 bound_to 10752
  139.8783  134.9262  156.5206 H   0  0  0  0  0  0  0  0  0  0  0  0  # atno 11005 bound_to 11000
  145.7121  141.0103  143.1448 LP  0  0  0  0  0  0  0  0  0  0  0  0  # atno 17320 bound_to 7965
  144.7009  139.8769  143.7444 LP  0  0  0  0  0  0  0  0  0  0  0  0  # atno 17321 bound_to 7965
  140.1750  143.4162  152.1973 LP  0  0  0  0  0  0  0  0  0  0  0  0  # atno 17342 bound_to 10162
  139.5458  144.7297  151.4588 LP  0  0  0  0  0  0  0  0  0  0  0  0  # atno 17343 bound_to 10162
  156.4867  130.8066  151.3078 LP  0  0  0  0  0  0  0  0  0  0  0  0  # atno 17370 bound_to 10713
  157.7465  130.9988  150.2867 LP  0  0  0  0  0  0  0  0  0  0  0  0  # atno 17371 bound_to 10713
  140.8453  133.8173  155.9115 LP  0  0  0  0  0  0  0  0  0  0  0  0  # atno 17394 bound_to 11000
  140.9197  134.2157  157.4934 LP  0  0  0  0  0  0  0  0  0  0  0  0  # atno 17395 bound_to 11000

$$$$
