AV-unprocessed.smi:1115|AV-procd|sdf|4805|dock3
  -GOLD-   22720 3353D 1   1.00000     0.00000
 Structure written by MMmdl.
 51 52  0  0  0  0  0  0  0  0  2 V2000
  152.2315  144.5231  159.9380 C   0  0  0  0  0  0  0  0  0  0  0  0
  152.4072  143.0787  159.8512 N   0  0  0  0  0  0  0  0  0  0  0  0
  153.4057  142.4166  160.6844 C   0  0  0  0  0  0  0  0  0  0  0  0
  151.5653  142.3088  159.0163 C   0  0  0  0  0  0  0  0  0  0  0  0
  151.7969  140.9267  158.8044 C   0  0  0  0  0  0  0  0  0  0  0  0
  150.9303  140.2014  157.9642 C   0  0  0  0  0  0  0  0  0  0  0  0
  149.8432  140.8707  157.3571 C   0  0  0  0  0  0  0  0  0  0  0  0
  148.9144  140.2570  156.4737 N   0  0  0  0  0  0  0  0  0  0  0  0
  148.9043  138.9934  156.0161 C   0  0  0  0  0  0  0  0  0  0  0  0
  149.7030  138.1134  156.3361 O   0  0  0  0  0  0  0  0  0  0  0  0
  147.8815  138.7922  155.1727 N   0  0  0  0  0  0  0  0  0  0  0  0
  147.5767  137.5342  154.4903 C   0  0  0  0  0  0  0  0  0  0  0  0
  146.4588  137.6506  153.4088 C   0  0  0  0  0  0  0  0  0  0  0  0
  145.1265  138.0058  154.1213 C   0  0  0  0  0  0  0  0  0  0  0  0
  146.7931  138.8003  152.4272 C   0  0  0  0  0  0  0  0  0  0  0  0
  146.3439  136.3281  152.6870 N   0  3  0  0  0  0  0  0  0  0  0  0
  146.2271  135.1147  153.5475 C   0  0  0  0  0  0  0  0  0  0  0  0
  146.2619  133.8303  152.6999 C   0  0  0  0  0  0  0  0  0  0  0  0
  145.2371  133.8633  151.7182 O   0  0  0  0  0  0  0  0  0  0  0  0
  145.4064  134.9551  150.8274 C   0  0  0  0  0  0  0  0  0  0  0  0
  145.3089  136.2718  151.6137 C   0  0  0  0  0  0  0  0  0  0  0  0
  149.7010  142.2479  157.6154 C   0  0  0  0  0  0  0  0  0  0  0  0
  150.5275  142.9460  158.4213 N   0  0  0  0  0  0  0  0  0  0  0  0
  151.2286  144.7666  160.2898 H   0  0  0  0  0  0  0  0  0  0  0  0
  152.3838  144.9873  158.9634 H   0  0  0  0  0  0  0  0  0  0  0  0
  152.9440  144.9689  160.6322 H   0  0  0  0  0  0  0  0  0  0  0  0
  152.9267  141.7261  161.3793 H   0  0  0  0  0  0  0  0  0  0  0  0
  153.9776  143.1363  161.2705 H   0  0  0  0  0  0  0  0  0  0  0  0
  154.1090  141.8563  160.0677 H   0  0  0  0  0  0  0  0  0  0  0  0
  152.6242  140.4083  159.2647 H   0  0  0  0  0  0  0  0  0  0  0  0
  151.1278  139.1547  157.7930 H   0  0  0  0  0  0  0  0  0  0  0  0
  148.1400  140.8396  156.1907 H   0  0  0  0  0  0  0  0  0  0  0  0
  147.2716  139.5727  154.9766 H   0  0  0  0  0  0  0  0  0  0  0  0
  148.5213  137.2253  154.0477 H   0  0  0  0  0  0  0  0  0  0  0  0
  147.3191  136.7547  155.2095 H   0  0  0  0  0  0  0  0  0  0  0  0
  145.2093  138.9108  154.7220 H   0  0  0  0  0  0  0  0  0  0  0  0
  144.8030  137.2044  154.7867 H   0  0  0  0  0  0  0  0  0  0  0  0
  144.3211  138.2109  153.4163 H   0  0  0  0  0  0  0  0  0  0  0  0
  146.7753  139.7681  152.9295 H   0  0  0  0  0  0  0  0  0  0  0  0
  146.0749  138.8573  151.6093 H   0  0  0  0  0  0  0  0  0  0  0  0
  147.7865  138.6934  151.9915 H   0  0  0  0  0  0  0  0  0  0  0  0
  147.0511  135.0421  154.2550 H   0  0  0  0  0  0  0  0  0  0  0  0
  145.3031  135.1532  154.1253 H   0  0  0  0  0  0  0  0  0  0  0  0
  147.2352  133.7068  152.2217 H   0  0  0  0  0  0  0  0  0  0  0  0
  146.1099  132.9582  153.3361 H   0  0  0  0  0  0  0  0  0  0  0  0
  146.3618  134.8784  150.3055 H   0  0  0  0  0  0  0  0  0  0  0  0
  144.6249  134.9129  150.0683 H   0  0  0  0  0  0  0  0  0  0  0  0
  144.3116  136.3483  152.0480 H   0  0  0  0  0  0  0  0  0  0  0  0
  145.4129  137.0915  150.9069 H   0  0  0  0  0  0  0  0  0  0  0  0
  148.8953  142.8099  157.1662 H   0  0  0  0  0  0  0  0  0  0  0  0
  147.2298  136.2205  152.2133 H   0  0  0  0  0  0  0  0  0  0  0  0
  1  2  1  0  0  0  0
  1 24  1  0  0  0  0
  1 25  1  0  0  0  0
  1 26  1  0  0  0  0
  2  3  1  0  0  0  0
  2  4  1  0  0  0  0
  3 27  1  0  0  0  0
  3 28  1  0  0  0  0
  3 29  1  0  0  0  0
  4 23  1  0  0  0  0
  4  5  2  0  0  0  0
  5  6  1  0  0  0  0
  5 30  1  0  0  0  0
  6  7  2  0  0  0  0
  6 31  1  0  0  0  0
  7  8  1  0  0  0  0
  7 22  1  0  0  0  0
  8  9  1  0  0  0  0
  8 32  1  0  0  0  0
  9 10  2  0  0  0  0
  9 11  1  0  0  0  0
 11 12  1  0  0  0  0
 11 33  1  0  0  0  0
 12 13  1  0  0  0  0
 12 34  1  0  0  0  0
 12 35  1  0  0  0  0
 13 14  1  0  0  0  0
 13 15  1  0  0  0  0
 13 16  1  0  0  0  0
 14 36  1  0  0  0  0
 14 37  1  0  0  0  0
 14 38  1  0  0  0  0
 15 39  1  0  0  0  0
 15 40  1  0  0  0  0
 15 41  1  0  0  0  0
 16 21  1  0  0  0  0
 16 17  1  0  0  0  0
 16 51  1  0  0  0  0
 17 18  1  0  0  0  0
 17 42  1  0  0  0  0
 17 43  1  0  0  0  0
 18 19  1  0  0  0  0
 18 44  1  0  0  0  0
 18 45  1  0  0  0  0
 19 20  1  0  0  0  0
 20 21  1  0  0  0  0
 20 46  1  0  0  0  0
 20 47  1  0  0  0  0
 21 48  1  0  0  0  0
 21 49  1  0  0  0  0
 22 23  2  0  0  0  0
 22 50  1  0  0  0  0
M  CHG  1  16   1
M  END
> <s_m_source_file>
AV-unprocessed.smi

> <i_m_source_file_index>
1115

> <i_lp_mmshare_version>
43012

> <i_f3d_flags>
0

> <s_epik_input>
W0NIM11OKFtDSDNdKWMxW2NIXVtjSF1jKFtjSF1uMSlbTkhdQyg9TylbTkhdW0NIMl1DKFtDSDNdKShbQ0gzXSlOMltDSDJdW0NIMl1PW0NIMl1bQ0gyXTI=

> <s_epik_cmdline>
J2VwaWtfcHl0aG9uJywgJy1waCcsICc3LjAnLCAnLXRuJywgJzgnLCAnLW1hJywgJzIwMCcsICctbWV0YWxfYmluZGluZycsICctaW1hZScsICc8aW5maWxlLm1hZT4nLCAnLW9tYWUnLCAnPG91dGZpbGUubWFlPic=

> <r_epik_Ionization_Penalty>
1.14783

> <r_epik_Ionization_Penalty_Charging>
0.602531

> <r_epik_Ionization_Penalty_Neutral>
0.545303

> <r_epik_State_Penalty>
1.19446

> <r_epik_Charging_Adjusted_Penalty>
1.79699

> <i_epik_Tot_Q>
1

> <i_epik_Tot_abs_Q>
1

> <r_epik_Metal_State_Penalty>
0.937982

> <b_epik_Metal_Only>
0

> <s_lp_Force_Field>
OPLS_2005

> <r_lp_Energy>
30.1641

> <b_lp_Chiralities_Consistent>
1

> <s_lp_Variant>
AV-unprocessed.smi:1115-4

> <Gold.Version>
5.8.1

> <Gold.Id.Protein>
6NUR|6NUR_protein|mol2

> <Gold.PLP.Fitness>
42.2395

> <Gold.PLP.PLP>
-33.4801

> <Gold.PLP.part.hbond>
-1.0000

> <Gold.PLP.part.metal>
0.0000

> <Gold.PLP.part.buried>
-3.5358

> <Gold.PLP.part.nonpolar>
-29.1239

> <Gold.PLP.part.repulsive>
0.2453

> <Gold.PLP.ligand.clash>
0.0000

> <Gold.PLP.ligand.torsion>
0.1691

> <Gold.PLP.Chemscore.Hbond>
2.0000

> <Gold.PLP.Chemscore.CHOScore>
1.0000

> <Gold.PLP.Chemscore.Metal>
0.0000

> <Gold.Chemscore.Hbonds>
donor molecule, donor type, donor heavy atom, donor atom, acceptor molecule, acceptor atom, score
      L1  H    16    51       P1  7948  2.00
      L1  C    22    50       P1  8028  1.00

> <Gold.PLP.Chemscore.Internal.Correction>
0.0975

> <Gold.Rescore>
     Score         DG    S(hbond)    S(metal)    S(lipo)     H(rot)  DE(clash)    DE(int)     intcor
     13.14     -14.53       1.00        0.00      80.99       1.46       0.03       1.36       ----

> <Gold.Chemscore.Fitness>
13.1417

> <Gold.Chemscore.DG>
-14.5347

> <Gold.Chemscore.ZeroCoef>
-5.4800

> <Gold.Chemscore.Hbond>
0.9968

> <Gold.Chemscore.Metal>
0.0000

> <Gold.Chemscore.Lipo>
80.9853

> <Gold.Chemscore.Internal_Hbond>
0.0000

> <Gold.Chemscore.DEClash>
0.0344

> <Gold.Chemscore.DEInternal>
1.3586

> <Gold.Chemscore.Rot>
1.4648

> <Gold.Chemscore.Internal.Correction>
   9.000000E+99

> <Gold.Chemscore.Hbonds>
donor molecule, donor type, donor heavy atom, donor atom, acceptor molecule, acceptor atom, score
      L1  H    16    51       P1  7948  1.00

> <Gold.Chemscore.Hbond.Weighted>
-3.3294

> <Gold.Chemscore.Metal.Weighted>
-0.0000

> <Gold.Chemscore.Lipo.Weighted>
-9.4753

> <Gold.Chemscore.Internal_Hbond.Weighted>
0.0000

> <Gold.Chemscore.DEClash.Weighted>
0.0344

> <Gold.Chemscore.DEInternal.Weighted>
1.3586

> <Gold.Chemscore.Rot.Weighted>
3.7499

> <Gold.Chemscore.Internal.Correction.Weighted>
   9.000000E+99

> <Gold.Protein.RotatedTorsions>
[ 6907 6896 6895 6894 ] final -109.17 input  -60.11 | X-H torsion
[ 7974 7965 7964 7962 ] final  158.91 input  175.53 | X-H torsion
[ 8008 7997 7996 7995 ] final -142.91 input   59.86 | X-H torsion
[ 10167 10162 10161 10158 ] final   -6.61 input  -65.29 | X-H torsion
[ 10718 10713 10712 10709 ] final  154.47 input   66.30 | X-H torsion
[ 10763 10752 10751 10750 ] final -100.53 input  -60.55 | X-H torsion
[ 11005 11000 10999 10996 ] final  149.49 input  -57.11 | X-H torsion

> <Gold.Protein.ActiveResidues>
 VAL166  LYS551  ARG553  GLY616  TRP617  ASP618  TYR619  PRO620  LYS621  CYS622 
 ASP623  PHE694  ASN695  SER759  ASP760  ASP761  ALA762  ILE779  LEU786  VAL792 
 PHE793  MET794  SER795  GLU796  ALA797  LYS798  CYS799  TRP800  GLU811  SER814 

> <Gold.Protein.RotatedAtoms>
  150.7545  133.9569  159.3503 H   0  0  0  0  0  0  0  0  0  0  0  0  # atno 6907 bound_to 6896
  151.7492  135.0834  160.0337 H   0  0  0  0  0  0  0  0  0  0  0  0  # atno 6908 bound_to 6896
  152.3478  133.6105  159.5958 H   0  0  0  0  0  0  0  0  0  0  0  0  # atno 6909 bound_to 6896
  144.7819  139.7544  143.6256 H   0  0  0  0  0  0  0  0  0  0  0  0  # atno 7974 bound_to 7965
  155.5020  140.0576  157.2937 H   0  0  0  0  0  0  0  0  0  0  0  0  # atno 8008 bound_to 7997
  154.4583  140.1984  156.0265 H   0  0  0  0  0  0  0  0  0  0  0  0  # atno 8009 bound_to 7997
  156.0842  140.3242  155.7737 H   0  0  0  0  0  0  0  0  0  0  0  0  # atno 8010 bound_to 7997
  140.7002  143.6174  150.8645 H   0  0  0  0  0  0  0  0  0  0  0  0  # atno 10167 bound_to 10162
  157.2312  131.0739  151.1852 H   0  0  0  0  0  0  0  0  0  0  0  0  # atno 10718 bound_to 10713
  154.7586  135.4931  153.9422 H   0  0  0  0  0  0  0  0  0  0  0  0  # atno 10763 bound_to 10752
  153.1225  135.6735  153.9320 H   0  0  0  0  0  0  0  0  0  0  0  0  # atno 10764 bound_to 10752
  153.9047  135.3106  155.3427 H   0  0  0  0  0  0  0  0  0  0  0  0  # atno 10765 bound_to 10752
  140.1049  134.8960  157.1851 H   0  0  0  0  0  0  0  0  0  0  0  0  # atno 11005 bound_to 11000
  146.2032  139.5339  142.9730 LP  0  0  0  0  0  0  0  0  0  0  0  0  # atno 17320 bound_to 7965
  145.6027  141.0353  143.2010 LP  0  0  0  0  0  0  0  0  0  0  0  0  # atno 17321 bound_to 7965
  139.9896  143.5862  152.2915 LP  0  0  0  0  0  0  0  0  0  0  0  0  # atno 17342 bound_to 10162
  139.6512  144.7660  151.2144 LP  0  0  0  0  0  0  0  0  0  0  0  0  # atno 17343 bound_to 10162
  157.3476  130.7065  149.6420 LP  0  0  0  0  0  0  0  0  0  0  0  0  # atno 17370 bound_to 10713
  155.9675  130.4262  150.4687 LP  0  0  0  0  0  0  0  0  0  0  0  0  # atno 17371 bound_to 10713
  140.3169  134.2960  155.7254 LP  0  0  0  0  0  0  0  0  0  0  0  0  # atno 17394 bound_to 11000
  141.2115  133.7685  156.9856 LP  0  0  0  0  0  0  0  0  0  0  0  0  # atno 17395 bound_to 11000

$$$$
