AV-unprocessed.smi:1725|AV-procd|sdf|6954|dock7
  -GOLD-   22720 8163D 1   1.00000     0.00000
 Structure written by MMmdl.
 36 37  0  0  0  0  0  0  0  0  1 V2000
  151.2946  137.2448  155.5982 C   0  0  0  0  0  0  0  0  0  0  0  0
  151.3922  138.5549  154.8023 C   0  0  1  0  0  0  0  0  0  0  0  0
  150.2241  138.6502  153.9926 O   0  0  0  0  0  0  0  0  0  0  0  0
  149.0349  139.0387  154.6732 C   0  0  0  0  0  0  0  0  0  0  0  0
  148.3535  140.1953  153.9649 C   0  0  0  0  0  0  0  0  0  0  0  0
  148.5681  141.6229  154.4236 C   0  0  0  0  0  0  0  0  0  0  0  0
  147.2299  140.9657  154.6281 C   0  0  0  0  0  0  0  0  0  0  0  0
  151.4959  139.7732  155.7347 C   0  0  0  0  0  0  0  0  0  0  0  0
  151.0848  140.8668  155.3481 O   0  0  0  0  0  0  0  0  0  0  0  0
  152.0459  139.5312  156.9414 N   0  0  0  0  0  0  0  0  0  0  0  0
  152.3146  140.4168  157.9991 C   0  0  0  0  0  0  0  0  0  0  0  0
  151.9280  141.7190  158.0446 C   0  0  0  0  0  0  0  0  0  0  0  0
  152.2474  142.5802  159.1709 C   0  0  0  0  0  0  0  0  0  0  0  0
  151.8552  144.0496  159.1829 C   0  0  0  0  0  0  0  0  0  0  0  0
  152.5080  144.6998  158.2208 F   0  0  0  0  0  0  0  0  0  0  0  0
  150.5469  144.2055  158.9764 F   0  0  0  0  0  0  0  0  0  0  0  0
  152.1648  144.6162  160.3494 F   0  0  0  0  0  0  0  0  0  0  0  0
  152.9748  142.0296  160.1604 C   0  0  0  0  0  0  0  0  0  0  0  0
  153.3755  140.6924  160.1223 N   0  0  0  0  0  0  0  0  0  0  0  0
  153.0991  139.8448  159.1061 C   0  0  0  0  0  0  0  0  0  0  0  0
  153.4961  138.6805  159.1434 O   0  0  0  0  0  0  0  0  0  0  0  0
  153.9100  140.3509  160.9080 H   0  0  0  0  0  0  0  0  0  0  0  0
  152.1532  137.1170  156.2583 H   0  0  0  0  0  0  0  0  0  0  0  0
  151.2660  136.3869  154.9260 H   0  0  0  0  0  0  0  0  0  0  0  0
  150.3919  137.2115  156.2096 H   0  0  0  0  0  0  0  0  0  0  0  0
  152.2744  138.4993  154.1613 H   0  0  0  0  0  0  0  0  0  0  0  0
  148.3280  138.2109  154.7344 H   0  0  0  0  0  0  0  0  0  0  0  0
  149.2717  139.3468  155.6923 H   0  0  0  0  0  0  0  0  0  0  0  0
  148.2600  140.0520  152.8902 H   0  0  0  0  0  0  0  0  0  0  0  0
  149.1841  141.7915  155.3049 H   0  0  0  0  0  0  0  0  0  0  0  0
  148.6379  142.3906  153.6558 H   0  0  0  0  0  0  0  0  0  0  0  0
  146.4079  141.2957  153.9962 H   0  0  0  0  0  0  0  0  0  0  0  0
  146.9532  140.6969  155.6456 H   0  0  0  0  0  0  0  0  0  0  0  0
  152.2804  138.5680  157.1345 H   0  0  0  0  0  0  0  0  0  0  0  0
  151.3756  142.1658  157.2349 H   0  0  0  0  0  0  0  0  0  0  0  0
  153.3054  142.5603  161.0409 H   0  0  0  0  0  0  0  0  0  0  0  0
  1  2  1  0  0  0  0
  1 23  1  0  0  0  0
  1 24  1  0  0  0  0
  1 25  1  0  0  0  0
  2  3  1  0  0  0  0
  2  8  1  0  0  0  0
  2 26  1  0  0  0  0
  3  4  1  0  0  0  0
  4  5  1  0  0  0  0
  4 27  1  0  0  0  0
  4 28  1  0  0  0  0
  5  7  1  0  0  0  0
  5  6  1  0  0  0  0
  5 29  1  0  0  0  0
  6  7  1  0  0  0  0
  6 30  1  0  0  0  0
  6 31  1  0  0  0  0
  7 32  1  0  0  0  0
  7 33  1  0  0  0  0
  8  9  2  0  0  0  0
  8 10  1  0  0  0  0
 10 11  1  0  0  0  0
 10 34  1  0  0  0  0
 11 20  1  0  0  0  0
 11 12  2  0  0  0  0
 12 13  1  0  0  0  0
 12 35  1  0  0  0  0
 13 14  1  0  0  0  0
 13 18  2  0  0  0  0
 14 15  1  0  0  0  0
 14 16  1  0  0  0  0
 14 17  1  0  0  0  0
 18 19  1  0  0  0  0
 18 36  1  0  0  0  0
 19 22  1  0  0  0  0
 19 20  1  0  0  0  0
 20 21  2  0  0  0  0
M  END
> <s_m_source_file>
AV-unprocessed.smi

> <i_m_source_file_index>
1725

> <i_lp_mmshare_version>
43012

> <i_f3d_flags>
0

> <s_epik_input>
W0NIMl0xW0NIMl1bQ0hdMVtDSDJdT1tDQEBIXShbQ0gzXSlDKD1PKVtOSF1jMltjSF1jKEMoRikoRilGKVtjSF1bbkhdYzI9Tw==

> <s_epik_cmdline>
J2VwaWtfcHl0aG9uJywgJy1waCcsICc3LjAnLCAnLXRuJywgJzgnLCAnLW1hJywgJzIwMCcsICctbWV0YWxfYmluZGluZycsICctaW1hZScsICc8aW5maWxlLm1hZT4nLCAnLW9tYWUnLCAnPG91dGZpbGUubWFlPic=

> <r_lp_tautomer_probability>
0.999

> <r_epik_Ionization_Penalty>
0.00763408

> <r_epik_Ionization_Penalty_Charging>
0.00763398

> <r_epik_Ionization_Penalty_Neutral>
9.25705e-08

> <r_epik_State_Penalty>
0.00571302

> <r_epik_Charging_Adjusted_Penalty>
0.013347

> <i_epik_Tot_Q>
0

> <i_epik_Tot_abs_Q>
0

> <r_epik_Metal_State_Penalty>
0.392814

> <b_epik_Metal_Only>
0

> <s_lp_Force_Field>
OPLS_2005

> <r_lp_Energy>
26.7151

> <b_lp_Chiralities_Consistent>
1

> <s_lp_Variant>
AV-unprocessed.smi:1725-2

> <Gold.Version>
5.8.1

> <Gold.Id.Protein>
6NUR|6NUR_protein|mol2

> <Gold.PLP.Fitness>
42.9443

> <Gold.PLP.PLP>
-44.6094

> <Gold.PLP.part.hbond>
-1.0000

> <Gold.PLP.part.metal>
0.0000

> <Gold.PLP.part.buried>
-4.3246

> <Gold.PLP.part.nonpolar>
-39.3134

> <Gold.PLP.part.repulsive>
0.4876

> <Gold.PLP.ligand.clash>
1.1939

> <Gold.PLP.ligand.torsion>
1.6630

> <Gold.PLP.Chemscore.Hbond>
0.7520

> <Gold.PLP.Chemscore.CHOScore>
0.0000

> <Gold.PLP.Chemscore.Metal>
0.0000

> <Gold.Chemscore.Hbonds>
donor molecule, donor type, donor heavy atom, donor atom, acceptor molecule, acceptor atom, score
      P1  H  7989  7998       L1     9  0.75

> <Gold.PLP.Chemscore.Internal.Correction>
0.5989

> <Gold.Rescore>
     Score         DG    S(hbond)    S(metal)    S(lipo)     H(rot)  DE(clash)    DE(int)     intcor
      9.28     -13.44       0.85        0.00      82.88       1.79       0.06       4.10       ----

> <Gold.Chemscore.Fitness>
9.2781

> <Gold.Chemscore.DG>
-13.4374

> <Gold.Chemscore.ZeroCoef>
-5.4800

> <Gold.Chemscore.Hbond>
0.8542

> <Gold.Chemscore.Metal>
0.0000

> <Gold.Chemscore.Lipo>
82.8772

> <Gold.Chemscore.Internal_Hbond>
0.0000

> <Gold.Chemscore.DEClash>
0.0576

> <Gold.Chemscore.DEInternal>
4.1016

> <Gold.Chemscore.Rot>
1.7938

> <Gold.Chemscore.Internal.Correction>
   9.000000E+99

> <Gold.Chemscore.Hbonds>
donor molecule, donor type, donor heavy atom, donor atom, acceptor molecule, acceptor atom, score
      P1  H  7989  7998       L1     9  0.29

> <Gold.Chemscore.Hbond.Weighted>
-2.8530

> <Gold.Chemscore.Metal.Weighted>
-0.0000

> <Gold.Chemscore.Lipo.Weighted>
-9.6966

> <Gold.Chemscore.Internal_Hbond.Weighted>
0.0000

> <Gold.Chemscore.DEClash.Weighted>
0.0576

> <Gold.Chemscore.DEInternal.Weighted>
4.1016

> <Gold.Chemscore.Rot.Weighted>
4.5922

> <Gold.Chemscore.Internal.Correction.Weighted>
   9.000000E+99

> <Gold.Protein.RotatedTorsions>
[ 6907 6896 6895 6894 ] final -130.62 input  -60.11 | X-H torsion
[ 7974 7965 7964 7962 ] final -102.64 input  175.53 | X-H torsion
[ 8008 7997 7996 7995 ] final   12.04 input   59.86 | X-H torsion
[ 10167 10162 10161 10158 ] final   49.97 input  -65.29 | X-H torsion
[ 10718 10713 10712 10709 ] final -126.25 input   66.30 | X-H torsion
[ 10763 10752 10751 10750 ] final  -84.42 input  -60.55 | X-H torsion
[ 11005 11000 10999 10996 ] final  -95.78 input  -57.11 | X-H torsion

> <Gold.Protein.ActiveResidues>
 VAL166  LYS551  ARG553  GLY616  TRP617  ASP618  TYR619  PRO620  LYS621  CYS622 
 ASP623  PHE694  ASN695  SER759  ASP760  ASP761  ALA762  ILE779  LEU786  VAL792 
 PHE793  MET794  SER795  GLU796  ALA797  LYS798  CYS799  TRP800  GLU811  SER814 

> <Gold.Protein.RotatedAtoms>
  150.9418  133.6648  159.2789 H   0  0  0  0  0  0  0  0  0  0  0  0  # atno 6907 bound_to 6896
  151.4035  135.0973  159.9573 H   0  0  0  0  0  0  0  0  0  0  0  0  # atno 6908 bound_to 6896
  152.5072  133.8906  159.7447 H   0  0  0  0  0  0  0  0  0  0  0  0  # atno 6909 bound_to 6896
  145.2661  140.9284  143.3013 H   0  0  0  0  0  0  0  0  0  0  0  0  # atno 7974 bound_to 7965
  154.8152  140.2874  155.5825 H   0  0  0  0  0  0  0  0  0  0  0  0  # atno 8008 bound_to 7997
  156.2992  140.2560  156.2978 H   0  0  0  0  0  0  0  0  0  0  0  0  # atno 8009 bound_to 7997
  154.9402  140.0381  157.2082 H   0  0  0  0  0  0  0  0  0  0  0  0  # atno 8010 bound_to 7997
  140.2773  144.3197  150.6274 H   0  0  0  0  0  0  0  0  0  0  0  0  # atno 10167 bound_to 10162
  156.1749  130.6692  151.0228 H   0  0  0  0  0  0  0  0  0  0  0  0  # atno 10718 bound_to 10713
  154.5993  135.5521  153.7358 H   0  0  0  0  0  0  0  0  0  0  0  0  # atno 10763 bound_to 10752
  153.0148  135.6362  154.1737 H   0  0  0  0  0  0  0  0  0  0  0  0  # atno 10764 bound_to 10752
  154.1677  135.2894  155.3070 H   0  0  0  0  0  0  0  0  0  0  0  0  # atno 10765 bound_to 10752
  141.1431  133.8050  157.0482 H   0  0  0  0  0  0  0  0  0  0  0  0  # atno 11005 bound_to 11000
  144.9376  139.4226  143.6465 LP  0  0  0  0  0  0  0  0  0  0  0  0  # atno 17320 bound_to 7965
  146.3261  139.8319  142.8907 LP  0  0  0  0  0  0  0  0  0  0  0  0  # atno 17321 bound_to 7965
  140.5841  143.2171  151.7375 LP  0  0  0  0  0  0  0  0  0  0  0  0  # atno 17342 bound_to 10162
  139.4972  144.4037  152.0154 LP  0  0  0  0  0  0  0  0  0  0  0  0  # atno 17343 bound_to 10162
  157.6828  131.0833  150.7323 LP  0  0  0  0  0  0  0  0  0  0  0  0  # atno 17370 bound_to 10713
  156.7381  130.4730  149.5484 LP  0  0  0  0  0  0  0  0  0  0  0  0  # atno 17371 bound_to 10713
  140.0649  134.9734  157.1368 LP  0  0  0  0  0  0  0  0  0  0  0  0  # atno 17394 bound_to 11000
  140.3794  134.2303  155.7172 LP  0  0  0  0  0  0  0  0  0  0  0  0  # atno 17395 bound_to 11000

$$$$
