AV-unprocessed.smi:95|AV-procd|sdf|858|dock4
  -GOLD-   2262017303D 1   1.00000     0.00000
 Structure written by MMmdl.
 42 45  0  0  0  0  0  0  0  0  2 V2000
  148.2143  141.7772  153.4149 O   0  0  0  0  0  0  0  0  0  0  0  0
  147.5262  142.0976  154.3861 C   0  0  0  0  0  0  0  0  0  0  0  0
  146.3503  142.9542  154.2930 C   0  0  0  0  0  0  0  0  0  0  0  0
  145.9592  143.4169  153.0937 F   0  0  0  0  0  0  0  0  0  0  0  0
  145.6316  143.2737  155.3910 C   0  0  0  0  0  0  0  0  0  0  0  0
  145.9596  142.8428  156.6672 N   0  0  0  0  0  0  0  0  0  0  0  0
  145.0698  143.1298  157.8602 C   0  0  1  0  0  0  0  0  0  0  0  0
  145.7565  143.9198  158.9881 C   0  0  0  0  0  0  0  0  0  0  0  0
  145.1724  145.3080  158.8126 C   0  0  0  0  0  0  0  0  0  0  0  0
  143.7832  144.9899  158.2738 C   0  0  0  0  0  0  0  0  0  0  0  0
  143.9890  143.8862  157.4013 O   0  0  0  0  0  0  0  0  0  0  0  0
  147.0420  141.9491  156.8372 C   0  0  0  0  0  0  0  0  0  0  0  0
  147.2917  141.4600  157.9414 O   0  0  0  0  0  0  0  0  0  0  0  0
  147.8118  141.6331  155.6919 N   0  0  0  0  0  0  0  0  0  0  0  0
  148.9382  140.7256  155.8379 C   0  0  0  0  0  0  0  0  0  0  0  0
  149.9353  141.1198  156.9178 C   0  0  0  0  0  0  0  0  0  0  0  0
  150.4555  140.1990  157.8544 C   0  0  0  0  0  0  0  0  0  0  0  0
  151.3851  140.6431  158.8166 C   0  0  0  0  0  0  0  0  0  0  0  0
  151.7747  141.9993  158.8246 C   0  0  0  0  0  0  0  0  0  0  0  0
  152.7015  142.4833  159.7703 C   0  0  0  0  0  0  0  0  0  0  0  0
  153.0732  143.8428  159.7579 C   0  0  0  0  0  0  0  0  0  0  0  0
  152.5218  144.7205  158.8029 C   0  0  0  0  0  0  0  0  0  0  0  0
  151.5956  144.2433  157.8544 C   0  0  0  0  0  0  0  0  0  0  0  0
  151.2227  142.8846  157.8648 C   0  0  0  0  0  0  0  0  0  0  0  0
  150.3362  142.4106  156.9617 N   0  3  0  0  0  0  0  0  0  0  0  0
  144.7581  143.8877  155.2407 H   0  0  0  0  0  0  0  0  0  0  0  0
  144.7375  142.1583  158.2296 H   0  0  0  0  0  0  0  0  0  0  0  0
  145.4292  143.5017  159.9410 H   0  0  0  0  0  0  0  0  0  0  0  0
  146.8448  143.8673  158.9582 H   0  0  0  0  0  0  0  0  0  0  0  0
  145.1480  145.8810  159.7399 H   0  0  0  0  0  0  0  0  0  0  0  0
  145.7393  145.8773  158.0757 H   0  0  0  0  0  0  0  0  0  0  0  0
  143.1182  144.6860  159.0837 H   0  0  0  0  0  0  0  0  0  0  0  0
  143.3276  145.8332  157.7544 H   0  0  0  0  0  0  0  0  0  0  0  0
  148.5182  139.7357  156.0287 H   0  0  0  0  0  0  0  0  0  0  0  0
  149.4451  140.6297  154.8775 H   0  0  0  0  0  0  0  0  0  0  0  0
  150.1498  139.1631  157.8400 H   0  0  0  0  0  0  0  0  0  0  0  0
  151.7909  139.9480  159.5373 H   0  0  0  0  0  0  0  0  0  0  0  0
  153.1298  141.8183  160.5065 H   0  0  0  0  0  0  0  0  0  0  0  0
  153.7831  144.2135  160.4829 H   0  0  0  0  0  0  0  0  0  0  0  0
  152.8102  145.7616  158.7985 H   0  0  0  0  0  0  0  0  0  0  0  0
  151.1774  144.9220  157.1250 H   0  0  0  0  0  0  0  0  0  0  0  0
  149.9515  143.0593  156.2752 H   0  0  0  0  0  0  0  0  0  0  0  0
  1  2  2  0  0  0  0
  2 14  1  0  0  0  0
  2  3  1  0  0  0  0
  3  4  1  0  0  0  0
  3  5  2  0  0  0  0
  5  6  1  0  0  0  0
  5 26  1  0  0  0  0
  6  7  1  0  0  0  0
  6 12  1  0  0  0  0
  7 11  1  0  0  0  0
  7  8  1  0  0  0  0
  7 27  1  0  0  0  0
  8  9  1  0  0  0  0
  8 28  1  0  0  0  0
  8 29  1  0  0  0  0
  9 10  1  0  0  0  0
  9 30  1  0  0  0  0
  9 31  1  0  0  0  0
 10 11  1  0  0  0  0
 10 32  1  0  0  0  0
 10 33  1  0  0  0  0
 12 13  2  0  0  0  0
 12 14  1  0  0  0  0
 14 15  1  0  0  0  0
 15 16  1  0  0  0  0
 15 34  1  0  0  0  0
 15 35  1  0  0  0  0
 16 25  1  0  0  0  0
 16 17  2  0  0  0  0
 17 18  1  0  0  0  0
 17 36  1  0  0  0  0
 18 19  2  0  0  0  0
 18 37  1  0  0  0  0
 19 24  1  0  0  0  0
 19 20  1  0  0  0  0
 20 21  2  0  0  0  0
 20 38  1  0  0  0  0
 21 22  1  0  0  0  0
 21 39  1  0  0  0  0
 22 23  2  0  0  0  0
 22 40  1  0  0  0  0
 23 24  1  0  0  0  0
 23 41  1  0  0  0  0
 24 25  2  0  0  0  0
 25 42  1  0  0  0  0
M  CHG  1  25   1
M  END
> <s_m_source_file>
AV-unprocessed.smi

> <i_m_source_file_index>
95

> <i_lp_mmshare_version>
43012

> <i_f3d_flags>
0

> <s_epik_input>
TzFbQ0gyXVtDSDJdW0NIMl1bQ0BIXTFuKFtjSF1jKEYpYzI9TyljKD1PKW4yW0NIMl1jKFtjSF1bY0hdMyluYyhjMzQpW2NIXVtjSF1bY0hdW2NIXTQ=

> <s_epik_cmdline>
J2VwaWtfcHl0aG9uJywgJy1waCcsICc3LjAnLCAnLXRuJywgJzgnLCAnLW1hJywgJzIwMCcsICctbWV0YWxfYmluZGluZycsICctaW1hZScsICc8aW5maWxlLm1hZT4nLCAnLW9tYWUnLCAnPG91dGZpbGUubWFlPic=

> <r_lp_tautomer_probability>
1

> <r_epik_Ionization_Penalty>
1.83445

> <r_epik_Ionization_Penalty_Charging>
1.83445

> <r_epik_Ionization_Penalty_Neutral>
6.33322e-12

> <r_epik_State_Penalty>
1.95069

> <r_epik_Charging_Adjusted_Penalty>
3.78513

> <i_epik_Tot_Q>
1

> <i_epik_Tot_abs_Q>
1

> <r_epik_Metal_State_Penalty>
6.02102

> <b_epik_Metal_Only>
0

> <s_epik_Chemistry_Notes>
This compound contains an acetal/aminal-like group ( X-CH(R)-Y where X, Y are N, S, or O) that may be acid/base labile, releasing an aldehyde.

> <s_lp_Force_Field>
OPLS_2005

> <r_lp_Energy>
36.6829

> <b_lp_Chiralities_Consistent>
1

> <s_lp_Variant>
AV-unprocessed.smi:95-4

> <Gold.Version>
5.8.1

> <Gold.Id.Protein>
6NUR|6NUR_protein|mol2

> <Gold.PLP.Fitness>
49.7370

> <Gold.PLP.PLP>
-42.7024

> <Gold.PLP.part.hbond>
-2.0000

> <Gold.PLP.part.metal>
0.0000

> <Gold.PLP.part.buried>
-4.0391

> <Gold.PLP.part.nonpolar>
-36.1223

> <Gold.PLP.part.repulsive>
0.2820

> <Gold.PLP.ligand.clash>
0.0000

> <Gold.PLP.ligand.torsion>
0.2894

> <Gold.PLP.Chemscore.Hbond>
2.5059

> <Gold.PLP.Chemscore.CHOScore>
0.0000

> <Gold.PLP.Chemscore.Metal>
0.0000

> <Gold.Chemscore.Hbonds>
donor molecule, donor type, donor heavy atom, donor atom, acceptor molecule, acceptor atom, score
      L1  H    25    42       P1  8028  1.82
      P1  H  8011  8017       L1     1  0.54

> <Gold.PLP.Chemscore.Internal.Correction>
0.0957

> <Gold.Rescore>
     Score         DG    S(hbond)    S(metal)    S(lipo)     H(rot)  DE(clash)    DE(int)     intcor
     16.42     -19.01       1.54        0.00     105.48       1.54       0.80       1.79       ----

> <Gold.Chemscore.Fitness>
16.4176

> <Gold.Chemscore.DG>
-19.0058

> <Gold.Chemscore.ZeroCoef>
-5.4800

> <Gold.Chemscore.Hbond>
1.5356

> <Gold.Chemscore.Metal>
0.0000

> <Gold.Chemscore.Lipo>
105.4810

> <Gold.Chemscore.Internal_Hbond>
0.0000

> <Gold.Chemscore.DEClash>
0.7960

> <Gold.Chemscore.DEInternal>
1.7922

> <Gold.Chemscore.Rot>
1.5407

> <Gold.Chemscore.Internal.Correction>
   9.000000E+99

> <Gold.Chemscore.Hbonds>
donor molecule, donor type, donor heavy atom, donor atom, acceptor molecule, acceptor atom, score
      L1  H    25    42       P1  8028  0.85
      P1  H  8011  8017       L1     1  0.51

> <Gold.Chemscore.Hbond.Weighted>
-5.1288

> <Gold.Chemscore.Metal.Weighted>
-0.0000

> <Gold.Chemscore.Lipo.Weighted>
-12.3413

> <Gold.Chemscore.Internal_Hbond.Weighted>
0.0000

> <Gold.Chemscore.DEClash.Weighted>
0.7960

> <Gold.Chemscore.DEInternal.Weighted>
1.7922

> <Gold.Chemscore.Rot.Weighted>
3.9443

> <Gold.Chemscore.Internal.Correction.Weighted>
   9.000000E+99

> <Gold.Protein.RotatedTorsions>
[ 6907 6896 6895 6894 ] final  106.02 input  -60.11 | X-H torsion
[ 7974 7965 7964 7962 ] final  -69.78 input  175.53 | X-H torsion
[ 8008 7997 7996 7995 ] final  101.36 input   59.86 | X-H torsion
[ 10167 10162 10161 10158 ] final  -37.51 input  -65.29 | X-H torsion
[ 10718 10713 10712 10709 ] final  152.86 input   66.30 | X-H torsion
[ 10763 10752 10751 10750 ] final -164.28 input  -60.55 | X-H torsion
[ 11005 11000 10999 10996 ] final   -3.24 input  -57.11 | X-H torsion

> <Gold.Protein.ActiveResidues>
 VAL166  LYS551  ARG553  GLY616  TRP617  ASP618  TYR619  PRO620  LYS621  CYS622 
 ASP623  PHE694  ASN695  SER759  ASP760  ASP761  ALA762  ILE779  LEU786  VAL792 
 PHE793  MET794  SER795  GLU796  ALA797  LYS798  CYS799  TRP800  GLU811  SER814 

> <Gold.Protein.RotatedAtoms>
  152.5209  133.9442  159.7640 H   0  0  0  0  0  0  0  0  0  0  0  0  # atno 6907 bound_to 6896
  150.9766  133.6280  159.2736 H   0  0  0  0  0  0  0  0  0  0  0  0  # atno 6908 bound_to 6896
  151.3473  135.0882  159.9444 H   0  0  0  0  0  0  0  0  0  0  0  0  # atno 6909 bound_to 6896
  145.6994  140.9122  143.0739 H   0  0  0  0  0  0  0  0  0  0  0  0  # atno 7974 bound_to 7965
  156.1292  140.3198  155.8323 H   0  0  0  0  0  0  0  0  0  0  0  0  # atno 8008 bound_to 7997
  155.4363  140.0522  157.3031 H   0  0  0  0  0  0  0  0  0  0  0  0  # atno 8009 bound_to 7997
  154.4886  140.2083  155.9612 H   0  0  0  0  0  0  0  0  0  0  0  0  # atno 8010 bound_to 7997
  140.7116  143.3337  151.2510 H   0  0  0  0  0  0  0  0  0  0  0  0  # atno 10167 bound_to 10162
  157.2523  131.0781  151.1722 H   0  0  0  0  0  0  0  0  0  0  0  0  # atno 10718 bound_to 10713
  154.7043  135.2994  154.9294 H   0  0  0  0  0  0  0  0  0  0  0  0  # atno 10763 bound_to 10752
  154.0216  135.6682  153.4777 H   0  0  0  0  0  0  0  0  0  0  0  0  # atno 10764 bound_to 10752
  153.0705  135.5063  154.8205 H   0  0  0  0  0  0  0  0  0  0  0  0  # atno 10765 bound_to 10752
  140.6671  133.9269  155.8472 H   0  0  0  0  0  0  0  0  0  0  0  0  # atno 11005 bound_to 11000
  144.6973  139.8927  143.7454 LP  0  0  0  0  0  0  0  0  0  0  0  0  # atno 17320 bound_to 7965
  146.0811  139.3799  143.0463 LP  0  0  0  0  0  0  0  0  0  0  0  0  # atno 17321 bound_to 7965
  139.6826  143.9827  152.2817 LP  0  0  0  0  0  0  0  0  0  0  0  0  # atno 17342 bound_to 10162
  139.9463  144.6649  150.8216 LP  0  0  0  0  0  0  0  0  0  0  0  0  # atno 17343 bound_to 10162
  157.3265  130.6963  149.6299 LP  0  0  0  0  0  0  0  0  0  0  0  0  # atno 17370 bound_to 10713
  155.9666  130.4320  150.4944 LP  0  0  0  0  0  0  0  0  0  0  0  0  # atno 17371 bound_to 10713
  141.0421  134.0607  157.3890 LP  0  0  0  0  0  0  0  0  0  0  0  0  # atno 17394 bound_to 11000
  139.8993  135.0158  156.7192 LP  0  0  0  0  0  0  0  0  0  0  0  0  # atno 17395 bound_to 11000

$$$$
