AV-unprocessed.smi:678|AV-procd|sdf|3313|dock7
  -GOLD-   22720 0273D 1   1.00000     0.00000
 Structure written by MMmdl.
 51 52  0  0  0  0  0  0  0  0  2 V2000
  153.1040  141.5005  160.4876 C   0  0  0  0  0  0  0  0  0  0  0  0
  152.4622  142.2516  159.3341 C   0  0  0  0  0  0  0  0  0  0  0  0
  152.7188  143.5594  159.1141 C   0  0  0  0  0  0  0  0  0  0  0  0
  152.1030  144.2658  158.0170 C   0  0  0  0  0  0  0  0  0  0  0  0
  151.2684  143.5884  157.2158 C   0  0  0  0  0  0  0  0  0  0  0  0
  150.9865  142.2250  157.4210 N   0  0  0  0  0  0  0  0  0  0  0  0
  150.0517  141.5845  156.4800 C   0  0  0  0  0  0  0  0  0  0  0  0
  150.6363  140.3236  155.8294 C   0  0  0  0  0  0  0  0  0  0  0  0
  151.8303  140.2693  155.5323 O   0  0  0  0  0  0  0  0  0  0  0  0
  149.7782  139.3146  155.6175 N   0  0  0  0  0  0  0  0  0  0  0  0
  150.1064  138.0615  154.9466 C   0  0  0  0  0  0  0  0  0  0  0  0
  150.1860  136.8939  155.9471 C   0  0  2  0  0  0  0  0  0  0  0  0
  150.3227  135.5334  155.2361 C   0  0  0  0  0  0  0  0  0  0  0  0
  150.3447  134.4271  156.2257 N   0  3  2  0  0  0  0  0  0  0  0  0
  150.5250  133.0839  155.6169 C   0  0  0  0  0  0  0  0  0  0  0  0
  149.2346  132.5264  154.9775 C   0  0  0  0  0  0  0  0  0  0  0  0
  149.3552  131.0118  154.7526 C   0  0  0  0  0  0  0  0  0  0  0  0
  148.8927  133.2387  153.6581 C   0  0  0  0  0  0  0  0  0  0  0  0
  149.1510  134.4939  157.1016 C   0  0  0  0  0  0  0  0  0  0  0  0
  149.0346  135.8834  157.7483 C   0  0  0  0  0  0  0  0  0  0  0  0
  148.9962  136.8731  156.7299 O   0  0  0  0  0  0  0  0  0  0  0  0
  151.5423  141.5118  158.4501 C   0  0  0  0  0  0  0  0  0  0  0  0
  151.2802  140.3190  158.6211 O   0  0  0  0  0  0  0  0  0  0  0  0
  153.7583  142.1497  161.0702 H   0  0  0  0  0  0  0  0  0  0  0  0
  153.7010  140.6675  160.1152 H   0  0  0  0  0  0  0  0  0  0  0  0
  152.3400  141.1044  161.1572 H   0  0  0  0  0  0  0  0  0  0  0  0
  153.3939  144.0929  159.7671 H   0  0  0  0  0  0  0  0  0  0  0  0
  152.3061  145.3130  157.8482 H   0  0  0  0  0  0  0  0  0  0  0  0
  150.7622  144.0450  156.3779 H   0  0  0  0  0  0  0  0  0  0  0  0
  149.1224  141.3071  156.9790 H   0  0  0  0  0  0  0  0  0  0  0  0
  149.7602  142.2999  155.7083 H   0  0  0  0  0  0  0  0  0  0  0  0
  148.8188  139.4403  155.9069 H   0  0  0  0  0  0  0  0  0  0  0  0
  149.3905  137.8440  154.1520 H   0  0  0  0  0  0  0  0  0  0  0  0
  151.0734  138.1959  154.4613 H   0  0  0  0  0  0  0  0  0  0  0  0
  151.0476  137.0491  156.5998 H   0  0  0  0  0  0  0  0  0  0  0  0
  149.4926  135.3873  154.5430 H   0  0  0  0  0  0  0  0  0  0  0  0
  151.2368  135.5297  154.6439 H   0  0  0  0  0  0  0  0  0  0  0  0
  151.2927  133.1385  154.8434 H   0  0  0  0  0  0  0  0  0  0  0  0
  150.9071  132.3972  156.3739 H   0  0  0  0  0  0  0  0  0  0  0  0
  148.4018  132.6733  155.6643 H   0  0  0  0  0  0  0  0  0  0  0  0
  150.1566  130.7759  154.0516 H   0  0  0  0  0  0  0  0  0  0  0  0
  148.4295  130.5993  154.3498 H   0  0  0  0  0  0  0  0  0  0  0  0
  149.5655  130.4898  155.6867 H   0  0  0  0  0  0  0  0  0  0  0  0
  149.6958  133.1299  152.9285 H   0  0  0  0  0  0  0  0  0  0  0  0
  148.7235  134.3048  153.8113 H   0  0  0  0  0  0  0  0  0  0  0  0
  147.9851  132.8280  153.2148 H   0  0  0  0  0  0  0  0  0  0  0  0
  148.2552  134.2785  156.5167 H   0  0  0  0  0  0  0  0  0  0  0  0
  149.2177  133.7329  157.8801 H   0  0  0  0  0  0  0  0  0  0  0  0
  148.1207  135.9486  158.3388 H   0  0  0  0  0  0  0  0  0  0  0  0
  149.8676  136.0723  158.4276 H   0  0  0  0  0  0  0  0  0  0  0  0
  151.1428  134.5809  156.8258 H   0  0  0  0  0  0  0  0  0  0  0  0
  1  2  1  0  0  0  0
  1 24  1  0  0  0  0
  1 25  1  0  0  0  0
  1 26  1  0  0  0  0
  2 22  1  0  0  0  0
  2  3  2  0  0  0  0
  3  4  1  0  0  0  0
  3 27  1  0  0  0  0
  4  5  2  0  0  0  0
  4 28  1  0  0  0  0
  5  6  1  0  0  0  0
  5 29  1  0  0  0  0
  6  7  1  0  0  0  0
  6 22  1  0  0  0  0
  7  8  1  0  0  0  0
  7 30  1  0  0  0  0
  7 31  1  0  0  0  0
  8  9  2  0  0  0  0
  8 10  1  0  0  0  0
 10 11  1  0  0  0  0
 10 32  1  0  0  0  0
 11 12  1  0  0  0  0
 11 33  1  0  0  0  0
 11 34  1  0  0  0  0
 12 21  1  0  0  0  0
 12 13  1  0  0  0  0
 12 35  1  0  0  0  0
 13 14  1  0  0  0  0
 13 36  1  0  0  0  0
 13 37  1  0  0  0  0
 14 15  1  0  0  0  0
 14 19  1  0  0  0  0
 14 51  1  0  0  0  0
 15 16  1  0  0  0  0
 15 38  1  0  0  0  0
 15 39  1  0  0  0  0
 16 17  1  0  0  0  0
 16 18  1  0  0  0  0
 16 40  1  0  0  0  0
 17 41  1  0  0  0  0
 17 42  1  0  0  0  0
 17 43  1  0  0  0  0
 18 44  1  0  0  0  0
 18 45  1  0  0  0  0
 18 46  1  0  0  0  0
 19 20  1  0  0  0  0
 19 47  1  0  0  0  0
 19 48  1  0  0  0  0
 20 21  1  0  0  0  0
 20 49  1  0  0  0  0
 20 50  1  0  0  0  0
 22 23  2  0  0  0  0
M  CHG  1  14   1
M  END
> <s_m_source_file>
AV-unprocessed.smi

> <i_m_source_file_index>
678

> <i_lp_mmshare_version>
43012

> <i_f3d_flags>
0

> <s_epik_input>
W0NIM11jMVtjSF1bY0hdW2NIXW4oYzE9TylbQ0gyXUMoPU8pW05IXVtDSDJdW0NAQEhdMltDSDJdTihbQ0gyXVtDSDJdTzIpW0NIMl1bQ0hdKFtDSDNdKVtDSDNd

> <s_epik_cmdline>
J2VwaWtfcHl0aG9uJywgJy1waCcsICc3LjAnLCAnLXRuJywgJzgnLCAnLW1hJywgJzIwMCcsICctbWV0YWxfYmluZGluZycsICctaW1hZScsICc8aW5maWxlLm1hZT4nLCAnLW9tYWUnLCAnPG91dGZpbGUubWFlPic=

> <r_lp_tautomer_probability>
1

> <r_epik_Ionization_Penalty>
0.0975937

> <r_epik_Ionization_Penalty_Charging>
0.0975937

> <r_epik_Ionization_Penalty_Neutral>
6.27044e-08

> <r_epik_State_Penalty>
0.0877056

> <r_epik_Charging_Adjusted_Penalty>
0.185299

> <i_epik_Tot_Q>
1

> <i_epik_Tot_abs_Q>
1

> <r_epik_Metal_State_Penalty>
0.0877109

> <b_epik_Metal_Only>
0

> <s_lp_Force_Field>
OPLS_2005

> <r_lp_Energy>
27.0363

> <b_lp_Chiralities_Consistent>
1

> <s_lp_Variant>
AV-unprocessed.smi:678-1

> <Gold.Version>
5.8.1

> <Gold.Id.Protein>
6NUR|6NUR_protein|mol2

> <Gold.PLP.Fitness>
47.7966

> <Gold.PLP.PLP>
-43.7756

> <Gold.PLP.part.hbond>
-1.0000

> <Gold.PLP.part.metal>
0.0000

> <Gold.PLP.part.buried>
-4.1423

> <Gold.PLP.part.nonpolar>
-38.8495

> <Gold.PLP.part.repulsive>
0.1757

> <Gold.PLP.ligand.clash>
0.0000

> <Gold.PLP.ligand.torsion>
0.6964

> <Gold.PLP.Chemscore.Hbond>
0.7680

> <Gold.PLP.Chemscore.CHOScore>
1.0000

> <Gold.PLP.Chemscore.Metal>
0.0000

> <Gold.Chemscore.Hbonds>
donor molecule, donor type, donor heavy atom, donor atom, acceptor molecule, acceptor atom, score
      P1  H  7989  7998       L1     9  0.56
      L1  C     5    29       P1  8028  1.00

> <Gold.PLP.Chemscore.Internal.Correction>
0.1097

> <Gold.Rescore>
     Score         DG    S(hbond)    S(metal)    S(lipo)     H(rot)  DE(clash)    DE(int)     intcor
     14.94     -15.85       0.87        0.00     105.22       1.89       0.23       0.69       ----

> <Gold.Chemscore.Fitness>
14.9371

> <Gold.Chemscore.DG>
-15.8538

> <Gold.Chemscore.ZeroCoef>
-5.4800

> <Gold.Chemscore.Hbond>
0.8666

> <Gold.Chemscore.Metal>
0.0000

> <Gold.Chemscore.Lipo>
105.2154

> <Gold.Chemscore.Internal_Hbond>
0.0000

> <Gold.Chemscore.DEClash>
0.2259

> <Gold.Chemscore.DEInternal>
0.6908

> <Gold.Chemscore.Rot>
1.8871

> <Gold.Chemscore.Internal.Correction>
   9.000000E+99

> <Gold.Chemscore.Hbonds>
donor molecule, donor type, donor heavy atom, donor atom, acceptor molecule, acceptor atom, score
      P1  H  7989  7998       L1     9  0.11

> <Gold.Chemscore.Hbond.Weighted>
-2.8945

> <Gold.Chemscore.Metal.Weighted>
-0.0000

> <Gold.Chemscore.Lipo.Weighted>
-12.3102

> <Gold.Chemscore.Internal_Hbond.Weighted>
0.0000

> <Gold.Chemscore.DEClash.Weighted>
0.2259

> <Gold.Chemscore.DEInternal.Weighted>
0.6908

> <Gold.Chemscore.Rot.Weighted>
4.8309

> <Gold.Chemscore.Internal.Correction.Weighted>
   9.000000E+99

> <Gold.Protein.RotatedTorsions>
[ 6907 6896 6895 6894 ] final   97.23 input  -60.11 | X-H torsion
[ 7974 7965 7964 7962 ] final  -23.52 input  175.53 | X-H torsion
[ 8008 7997 7996 7995 ] final   51.25 input   59.86 | X-H torsion
[ 10167 10162 10161 10158 ] final -125.62 input  -65.29 | X-H torsion
[ 10718 10713 10712 10709 ] final  -87.42 input   66.30 | X-H torsion
[ 10763 10752 10751 10750 ] final  -96.73 input  -60.55 | X-H torsion
[ 11005 11000 10999 10996 ] final  121.65 input  -57.11 | X-H torsion

> <Gold.Protein.ActiveResidues>
 VAL166  LYS551  ARG553  GLY616  TRP617  ASP618  TYR619  PRO620  LYS621  CYS622 
 ASP623  PHE694  ASN695  SER759  ASP760  ASP761  ALA762  ILE779  LEU786  VAL792 
 PHE793  MET794  SER795  GLU796  ALA797  LYS798  CYS799  TRP800  GLU811  SER814 

> <Gold.Protein.RotatedAtoms>
  152.5426  134.0765  159.8216 H   0  0  0  0  0  0  0  0  0  0  0  0  # atno 6907 bound_to 6896
  151.0872  133.5336  159.2624 H   0  0  0  0  0  0  0  0  0  0  0  0  # atno 6908 bound_to 6896
  151.2141  135.0501  159.8977 H   0  0  0  0  0  0  0  0  0  0  0  0  # atno 6909 bound_to 6896
  146.1611  140.4628  142.8571 H   0  0  0  0  0  0  0  0  0  0  0  0  # atno 7974 bound_to 7965
  155.4321  140.3451  155.4281 H   0  0  0  0  0  0  0  0  0  0  0  0  # atno 8008 bound_to 7997
  156.1330  140.1519  156.9068 H   0  0  0  0  0  0  0  0  0  0  0  0  # atno 8009 bound_to 7997
  154.4909  140.0841  156.7573 H   0  0  0  0  0  0  0  0  0  0  0  0  # atno 8010 bound_to 7997
  139.9802  143.5751  152.2381 H   0  0  0  0  0  0  0  0  0  0  0  0  # atno 10167 bound_to 10162
  155.9985  130.4799  150.4864 H   0  0  0  0  0  0  0  0  0  0  0  0  # atno 10718 bound_to 10713
  154.7266  135.5072  153.8896 H   0  0  0  0  0  0  0  0  0  0  0  0  # atno 10763 bound_to 10752
  153.0910  135.6659  153.9862 H   0  0  0  0  0  0  0  0  0  0  0  0  # atno 10764 bound_to 10752
  153.9673  135.3042  155.3409 H   0  0  0  0  0  0  0  0  0  0  0  0  # atno 10765 bound_to 10752
  139.9235  134.9639  156.7990 H   0  0  0  0  0  0  0  0  0  0  0  0  # atno 11005 bound_to 11000
  144.8028  140.6244  143.6467 LP  0  0  0  0  0  0  0  0  0  0  0  0  # atno 17320 bound_to 7965
  145.4586  139.1515  143.3878 LP  0  0  0  0  0  0  0  0  0  0  0  0  # atno 17321 bound_to 7965
  139.6415  144.7655  151.2329 LP  0  0  0  0  0  0  0  0  0  0  0  0  # atno 17342 bound_to 10162
  140.7492  143.6309  150.8424 LP  0  0  0  0  0  0  0  0  0  0  0  0  # atno 17343 bound_to 10162
  157.2863  131.0617  151.2164 LP  0  0  0  0  0  0  0  0  0  0  0  0  # atno 17370 bound_to 10713
  157.3192  130.6928  149.6259 LP  0  0  0  0  0  0  0  0  0  0  0  0  # atno 17371 bound_to 10713
  140.6405  133.9822  155.7705 LP  0  0  0  0  0  0  0  0  0  0  0  0  # atno 17394 bound_to 11000
  141.0774  134.0114  157.3437 LP  0  0  0  0  0  0  0  0  0  0  0  0  # atno 17395 bound_to 11000

$$$$
