AV-unprocessed.smi:3067|AV-procd|sdf|11697|dock7
  -GOLD-   2272017103D 1   1.00000     0.00000
 Structure written by MMmdl.
 34 35  0  0  0  0  0  0  0  0  1 V2000
  150.8428  145.3063  160.0966 C   0  0  0  0  0  0  0  0  0  0  0  0
  150.9100  143.8894  160.0583 O   0  0  0  0  0  0  0  0  0  0  0  0
  152.1844  143.3531  160.3969 C   0  0  1  0  0  0  0  0  0  0  0  0
  152.3235  143.2927  161.9336 C   0  0  0  0  0  0  0  0  0  0  0  0
  153.6149  142.5804  162.3610 C   0  0  0  0  0  0  0  0  0  0  0  0
  153.6962  141.1756  161.7490 C   0  0  0  0  0  0  0  0  0  0  0  0
  153.5753  141.2357  160.2198 C   0  0  0  0  0  0  0  0  0  0  0  0
  152.2738  141.9401  159.7784 C   0  0  2  0  0  0  0  0  0  0  0  0
  152.2034  142.0216  158.3237 N   0  0  0  0  0  0  0  0  0  0  0  0
  152.0664  140.8860  157.5107 C   0  0  0  0  0  0  0  0  0  0  0  0
  152.3076  139.5650  157.9557 C   0  0  0  0  0  0  0  0  0  0  0  0
  152.1346  138.4971  157.0543 C   0  0  0  0  0  0  0  0  0  0  0  0
  151.7243  138.7831  155.7355 C   0  0  0  0  0  0  0  0  0  0  0  0
  151.5380  137.6951  154.7908 C   0  0  0  0  0  0  0  0  0  0  0  0
  151.3899  136.8281  154.0388 N   0  0  0  0  0  0  0  0  0  0  0  0
  151.4916  140.0402  155.3006 N   0  0  0  0  0  0  0  0  0  0  0  0
  151.6602  141.0585  156.1706 C   0  0  0  0  0  0  0  0  0  0  0  0
  149.8462  145.6288  159.7960 H   0  0  0  0  0  0  0  0  0  0  0  0
  151.5597  145.7538  159.4074 H   0  0  0  0  0  0  0  0  0  0  0  0
  151.0285  145.6959  161.0971 H   0  0  0  0  0  0  0  0  0  0  0  0
  152.9814  143.9715  159.9784 H   0  0  0  0  0  0  0  0  0  0  0  0
  152.3120  144.2951  162.3607 H   0  0  0  0  0  0  0  0  0  0  0  0
  151.4655  142.7681  162.3560 H   0  0  0  0  0  0  0  0  0  0  0  0
  154.4789  143.1681  162.0482 H   0  0  0  0  0  0  0  0  0  0  0  0
  153.6611  142.5153  163.4485 H   0  0  0  0  0  0  0  0  0  0  0  0
  154.6373  140.7019  162.0296 H   0  0  0  0  0  0  0  0  0  0  0  0
  152.9002  140.5504  162.1555 H   0  0  0  0  0  0  0  0  0  0  0  0
  154.4371  141.7653  159.8110 H   0  0  0  0  0  0  0  0  0  0  0  0
  153.6212  140.2242  159.8161 H   0  0  0  0  0  0  0  0  0  0  0  0
  151.4189  141.3702  160.1432 H   0  0  0  0  0  0  0  0  0  0  0  0
  152.1456  142.9378  157.9024 H   0  0  0  0  0  0  0  0  0  0  0  0
  152.6219  139.3514  158.9659 H   0  0  0  0  0  0  0  0  0  0  0  0
  152.3140  137.4808  157.3747 H   0  0  0  0  0  0  0  0  0  0  0  0
  151.4617  142.0465  155.7810 H   0  0  0  0  0  0  0  0  0  0  0  0
  1  2  1  0  0  0  0
  1 18  1  0  0  0  0
  1 19  1  0  0  0  0
  1 20  1  0  0  0  0
  2  3  1  0  0  0  0
  3  8  1  0  0  0  0
  3  4  1  0  0  0  0
  3 21  1  0  0  0  0
  4  5  1  0  0  0  0
  4 22  1  0  0  0  0
  4 23  1  0  0  0  0
  5  6  1  0  0  0  0
  5 24  1  0  0  0  0
  5 25  1  0  0  0  0
  6  7  1  0  0  0  0
  6 26  1  0  0  0  0
  6 27  1  0  0  0  0
  7  8  1  0  0  0  0
  7 28  1  0  0  0  0
  7 29  1  0  0  0  0
  8  9  1  0  0  0  0
  8 30  1  0  0  0  0
  9 10  1  0  0  0  0
  9 31  1  0  0  0  0
 10 17  1  0  0  0  0
 10 11  2  0  0  0  0
 11 12  1  0  0  0  0
 11 32  1  0  0  0  0
 12 13  2  0  0  0  0
 12 33  1  0  0  0  0
 13 14  1  0  0  0  0
 13 16  1  0  0  0  0
 14 15  3  0  0  0  0
 16 17  2  0  0  0  0
 17 34  1  0  0  0  0
M  END
> <s_m_source_file>
AV-unprocessed.smi

> <i_m_source_file_index>
3067

> <i_lp_mmshare_version>
43012

> <i_f3d_flags>
0

> <s_epik_input>
W0NIM11PW0NAQEhdMVtDSDJdW0NIMl1bQ0gyXVtDSDJdW0NASF0xW05IXWMyW2NIXVtjSF1jKEMjTiluW2NIXTI=

> <s_epik_cmdline>
J2VwaWtfcHl0aG9uJywgJy1waCcsICc3LjAnLCAnLXRuJywgJzgnLCAnLW1hJywgJzIwMCcsICctbWV0YWxfYmluZGluZycsICctaW1hZScsICc8aW5maWxlLm1hZT4nLCAnLW9tYWUnLCAnPG91dGZpbGUubWFlPic=

> <r_lp_tautomer_probability>
1

> <r_epik_Ionization_Penalty>
2.01011e-07

> <r_epik_Ionization_Penalty_Charging>
0

> <r_epik_Ionization_Penalty_Neutral>
2.01011e-07

> <r_epik_State_Penalty>
-0

> <r_epik_Charging_Adjusted_Penalty>
0

> <i_epik_Tot_Q>
0

> <i_epik_Tot_abs_Q>
0

> <r_epik_Metal_State_Penalty>
-0

> <b_epik_Metal_Only>
0

> <s_lp_Force_Field>
OPLS_2005

> <r_lp_Energy>
16.9027

> <b_lp_Chiralities_Consistent>
1

> <s_lp_Variant>
AV-unprocessed.smi:3067-4

> <Gold.Version>
5.8.1

> <Gold.Id.Protein>
6NUR|6NUR_protein|mol2

> <Gold.PLP.Fitness>
39.0395

> <Gold.PLP.PLP>
-33.7626

> <Gold.PLP.part.hbond>
-2.0000

> <Gold.PLP.part.metal>
0.0000

> <Gold.PLP.part.buried>
-5.5885

> <Gold.PLP.part.nonpolar>
-27.9344

> <Gold.PLP.part.repulsive>
2.8597

> <Gold.PLP.ligand.clash>
0.0000

> <Gold.PLP.ligand.torsion>
0.3504

> <Gold.PLP.Chemscore.Hbond>
1.9913

> <Gold.PLP.Chemscore.CHOScore>
0.0000

> <Gold.PLP.Chemscore.Metal>
0.0000

> <Gold.Chemscore.Hbonds>
donor molecule, donor type, donor heavy atom, donor atom, acceptor molecule, acceptor atom, score
      P1  H  7989  7998       L1    16  1.00
      P1  H 10752 10765       L1    15  1.00

> <Gold.PLP.Chemscore.Internal.Correction>
0.0039

> <Gold.Rescore>
     Score         DG    S(hbond)    S(metal)    S(lipo)     H(rot)  DE(clash)    DE(int)     intcor
     16.78     -19.36       1.44        0.00     103.70       1.20       1.73       0.85       ----

> <Gold.Chemscore.Fitness>
16.7804

> <Gold.Chemscore.DG>
-19.3581

> <Gold.Chemscore.ZeroCoef>
-5.4800

> <Gold.Chemscore.Hbond>
1.4431

> <Gold.Chemscore.Metal>
0.0000

> <Gold.Chemscore.Lipo>
103.7007

> <Gold.Chemscore.Internal_Hbond>
0.0000

> <Gold.Chemscore.DEClash>
1.7274

> <Gold.Chemscore.DEInternal>
0.8503

> <Gold.Chemscore.Rot>
1.2012

> <Gold.Chemscore.Internal.Correction>
   9.000000E+99

> <Gold.Chemscore.Hbonds>
donor molecule, donor type, donor heavy atom, donor atom, acceptor molecule, acceptor atom, score
      P1  H  7989  7998       L1    16  0.47
      P1  H 10752 10765       L1    15  0.65

> <Gold.Chemscore.Hbond.Weighted>
-4.8201

> <Gold.Chemscore.Metal.Weighted>
-0.0000

> <Gold.Chemscore.Lipo.Weighted>
-12.1330

> <Gold.Chemscore.Internal_Hbond.Weighted>
0.0000

> <Gold.Chemscore.DEClash.Weighted>
1.7274

> <Gold.Chemscore.DEInternal.Weighted>
0.8503

> <Gold.Chemscore.Rot.Weighted>
3.0750

> <Gold.Chemscore.Internal.Correction.Weighted>
   9.000000E+99

> <Gold.Protein.RotatedTorsions>
[ 6907 6896 6895 6894 ] final   54.25 input  -60.11 | X-H torsion
[ 7974 7965 7964 7962 ] final   23.41 input  175.53 | X-H torsion
[ 8008 7997 7996 7995 ] final -163.07 input   59.86 | X-H torsion
[ 10167 10162 10161 10158 ] final  -60.33 input  -65.29 | X-H torsion
[ 10718 10713 10712 10709 ] final  -31.40 input   66.30 | X-H torsion
[ 10763 10752 10751 10750 ] final  152.22 input  -60.55 | X-H torsion
[ 11005 11000 10999 10996 ] final -134.08 input  -57.11 | X-H torsion

> <Gold.Protein.ActiveResidues>
 VAL166  LYS551  ARG553  GLY616  TRP617  ASP618  TYR619  PRO620  LYS621  CYS622 
 ASP623  PHE694  ASN695  SER759  ASP760  ASP761  ALA762  ILE779  LEU786  VAL792 
 PHE793  MET794  SER795  GLU796  ALA797  LYS798  CYS799  TRP800  GLU811  SER814 

> <Gold.Protein.RotatedAtoms>
  152.3420  134.7122  160.0260 H   0  0  0  0  0  0  0  0  0  0  0  0  # atno 6907 bound_to 6896
  151.7504  133.3321  159.3398 H   0  0  0  0  0  0  0  0  0  0  0  0  # atno 6908 bound_to 6896
  150.7485  134.6130  159.6141 H   0  0  0  0  0  0  0  0  0  0  0  0  # atno 6909 bound_to 6896
  146.1985  139.7748  142.8779 H   0  0  0  0  0  0  0  0  0  0  0  0  # atno 7974 bound_to 7965
  155.8159  140.0912  157.1877 H   0  0  0  0  0  0  0  0  0  0  0  0  # atno 8008 bound_to 7997
  154.3979  140.1446  156.3502 H   0  0  0  0  0  0  0  0  0  0  0  0  # atno 8009 bound_to 7997
  155.8317  140.3442  155.5579 H   0  0  0  0  0  0  0  0  0  0  0  0  # atno 8010 bound_to 7997
  140.6078  143.2378  151.5780 H   0  0  0  0  0  0  0  0  0  0  0  0  # atno 10167 bound_to 10162
  156.3878  130.4367  149.7419 H   0  0  0  0  0  0  0  0  0  0  0  0  # atno 10718 bound_to 10713
  154.1164  135.2835  155.3218 H   0  0  0  0  0  0  0  0  0  0  0  0  # atno 10763 bound_to 10752
  154.6454  135.5388  153.7841 H   0  0  0  0  0  0  0  0  0  0  0  0  # atno 10764 bound_to 10752
  153.0328  135.6496  154.1320 H   0  0  0  0  0  0  0  0  0  0  0  0  # atno 10765 bound_to 10752
  140.9023  134.1675  157.4451 H   0  0  0  0  0  0  0  0  0  0  0  0  # atno 11005 bound_to 11000
  145.3562  141.0317  143.3310 LP  0  0  0  0  0  0  0  0  0  0  0  0  # atno 17320 bound_to 7965
  144.8632  139.5146  143.6802 LP  0  0  0  0  0  0  0  0  0  0  0  0  # atno 17321 bound_to 7965
  139.5338  144.2839  152.1207 LP  0  0  0  0  0  0  0  0  0  0  0  0  # atno 17342 bound_to 10162
  140.2032  144.4637  150.6421 LP  0  0  0  0  0  0  0  0  0  0  0  0  # atno 17343 bound_to 10162
  156.4484  130.7895  151.2916 LP  0  0  0  0  0  0  0  0  0  0  0  0  # atno 17370 bound_to 10713
  157.7497  131.0103  150.3301 LP  0  0  0  0  0  0  0  0  0  0  0  0  # atno 17371 bound_to 10713
  139.8744  134.9903  156.5495 LP  0  0  0  0  0  0  0  0  0  0  0  0  # atno 17394 bound_to 11000
  140.8215  133.8350  155.8900 LP  0  0  0  0  0  0  0  0  0  0  0  0  # atno 17395 bound_to 11000

$$$$
