AV-unprocessed.smi:2926|AV-procd|sdf|11228|dock4
  -GOLD-   2272016123D 1   1.00000     0.00000
 Structure written by MMmdl.
 31 31  0  0  0  0  0  0  0  0  2 V2000
  148.6902  139.0486  154.0006 C   0  0  0  0  0  0  0  0  0  0  0  0
  149.5387  139.0286  155.2953 C   0  0  0  0  0  0  0  0  0  0  0  0
  151.0312  139.1365  154.9078 C   0  0  0  0  0  0  0  0  0  0  0  0
  149.2190  137.8052  156.2128 C   0  0  1  0  0  0  0  0  0  0  0  0
  149.3704  136.4258  155.5303 C   0  0  0  0  0  0  0  0  0  0  0  0
  148.3005  136.1420  154.6485 O   0  0  0  0  0  0  0  0  0  0  0  0
  150.0647  137.8426  157.4009 N   0  5  0  0  0  0  0  0  0  0  0  0
  149.8413  136.7534  158.5816 S   0  0  0  0  0  0  0  0  0  0  0  0
  149.8194  135.3700  158.0778 O   0  0  0  0  0  0  0  0  0  0  0  0
  150.6869  137.0273  159.7551 O   0  0  0  0  0  0  0  0  0  0  0  0
  148.1155  137.1546  159.1034 C   0  0  0  0  0  0  0  0  0  0  0  0
  147.7490  136.4038  160.3549 C   0  0  0  0  0  0  0  0  0  0  0  0
  147.7356  134.9976  160.5713 C   0  0  0  0  0  0  0  0  0  0  0  0
  147.3285  134.8770  161.8681 C   0  0  0  0  0  0  0  0  0  0  0  0
  147.0958  136.0996  162.4086 O   0  0  0  0  0  0  0  0  0  0  0  0
  147.3626  137.0680  161.4339 N   0  0  0  0  0  0  0  0  0  0  0  0
  148.1671  137.8955  156.4880 H   0  0  0  0  0  0  0  0  0  0  0  0
  148.8706  138.1705  153.3774 H   0  0  0  0  0  0  0  0  0  0  0  0
  148.9317  139.9236  153.3968 H   0  0  0  0  0  0  0  0  0  0  0  0
  147.6184  139.1006  154.1988 H   0  0  0  0  0  0  0  0  0  0  0  0
  149.2935  139.9357  155.8502 H   0  0  0  0  0  0  0  0  0  0  0  0
  151.3837  138.2547  154.3692 H   0  0  0  0  0  0  0  0  0  0  0  0
  151.6787  139.2865  155.7728 H   0  0  0  0  0  0  0  0  0  0  0  0
  151.1958  139.9947  154.2555 H   0  0  0  0  0  0  0  0  0  0  0  0
  150.3027  136.3832  154.9660 H   0  0  0  0  0  0  0  0  0  0  0  0
  149.4338  135.6311  156.2731 H   0  0  0  0  0  0  0  0  0  0  0  0
  148.6249  136.1844  153.7624 H   0  0  0  0  0  0  0  0  0  0  0  0
  148.0671  138.2307  159.2721 H   0  0  0  0  0  0  0  0  0  0  0  0
  147.4383  136.9236  158.2814 H   0  0  0  0  0  0  0  0  0  0  0  0
  147.9949  134.2058  159.8837 H   0  0  0  0  0  0  0  0  0  0  0  0
  147.1610  134.0306  162.5175 H   0  0  0  0  0  0  0  0  0  0  0  0
  1  2  1  0  0  0  0
  1 18  1  0  0  0  0
  1 19  1  0  0  0  0
  1 20  1  0  0  0  0
  2  3  1  0  0  0  0
  2  4  1  0  0  0  0
  2 21  1  0  0  0  0
  3 22  1  0  0  0  0
  3 23  1  0  0  0  0
  3 24  1  0  0  0  0
  4 17  1  0  0  0  0
  4  5  1  0  0  0  0
  4  7  1  0  0  0  0
  5  6  1  0  0  0  0
  5 25  1  0  0  0  0
  5 26  1  0  0  0  0
  6 27  1  0  0  0  0
  7  8  1  0  0  0  0
  8  9  2  0  0  0  0
  8 10  2  0  0  0  0
  8 11  1  0  0  0  0
 11 12  1  0  0  0  0
 11 28  1  0  0  0  0
 11 29  1  0  0  0  0
 12 16  2  0  0  0  0
 12 13  1  0  0  0  0
 13 14  2  0  0  0  0
 13 30  1  0  0  0  0
 14 15  1  0  0  0  0
 14 31  1  0  0  0  0
 15 16  1  0  0  0  0
M  CHG  1   7  -1
M  END
> <s_m_source_file>
AV-unprocessed.smi

> <i_m_source_file_index>
2926

> <i_lp_mmshare_version>
43012

> <i_f3d_flags>
0

> <s_epik_input>
W0NIM11bQ0hdKFtDSDNdKVtDQEBIXShbQ0gyXVtPSF0pW05IXVMoPU8pKD1PKVtDSDJdYzFbY0hdW2NIXW9uMQ==

> <s_epik_cmdline>
J2VwaWtfcHl0aG9uJywgJy1waCcsICc3LjAnLCAnLXRuJywgJzgnLCAnLW1hJywgJzIwMCcsICctbWV0YWxfYmluZGluZycsICctaW1hZScsICc8aW5maWxlLm1hZT4nLCAnLW9tYWUnLCAnPG91dGZpbGUubWFlPic=

> <r_lp_tautomer_probability>
1

> <r_epik_Ionization_Penalty>
4.75719

> <r_epik_Ionization_Penalty_Charging>
4.75718

> <r_epik_Ionization_Penalty_Neutral>
1.48962e-06

> <r_epik_State_Penalty>
4.75699

> <r_epik_Charging_Adjusted_Penalty>
9.51417

> <i_epik_Tot_Q>
-1

> <i_epik_Tot_abs_Q>
1

> <r_epik_Metal_State_Penalty>
0.961449

> <b_epik_Metal_Only>
1

> <s_lp_Force_Field>
OPLS_2005

> <r_lp_Energy>
4.17098

> <b_lp_Chiralities_Consistent>
1

> <s_lp_Variant>
AV-unprocessed.smi:2926-3

> <Gold.Version>
5.8.1

> <Gold.Id.Protein>
6NUR|6NUR_protein|mol2

> <Gold.PLP.Fitness>
34.4550

> <Gold.PLP.PLP>
-23.5761

> <Gold.PLP.part.hbond>
-5.0540

> <Gold.PLP.part.metal>
0.0000

> <Gold.PLP.part.buried>
-2.9719

> <Gold.PLP.part.nonpolar>
-15.2286

> <Gold.PLP.part.repulsive>
0.0000

> <Gold.PLP.ligand.clash>
0.0000

> <Gold.PLP.ligand.torsion>
0.8224

> <Gold.PLP.Chemscore.Hbond>
3.7840

> <Gold.PLP.Chemscore.CHOScore>
0.0000

> <Gold.PLP.Chemscore.Metal>
0.0000

> <Gold.Chemscore.Hbonds>
donor molecule, donor type, donor heavy atom, donor atom, acceptor molecule, acceptor atom, score
      L1  H     6    27       P1  7948  1.00
      P1  H  6896  6908       L1     9  1.00
      P1  H  6931  6943       L1    16  0.78
      P1  H  6934  6947       L1    16  0.96

> <Gold.PLP.Chemscore.Internal.Correction>
1.1717

> <Gold.Rescore>
     Score         DG    S(hbond)    S(metal)    S(lipo)     H(rot)  DE(clash)    DE(int)     intcor
     10.78     -13.96       2.95        0.00      44.64       2.58       0.13       3.05       ----

> <Gold.Chemscore.Fitness>
10.7844

> <Gold.Chemscore.DG>
-13.9623

> <Gold.Chemscore.ZeroCoef>
-5.4800

> <Gold.Chemscore.Hbond>
2.9517

> <Gold.Chemscore.Metal>
0.0000

> <Gold.Chemscore.Lipo>
44.6362

> <Gold.Chemscore.Internal_Hbond>
0.0000

> <Gold.Chemscore.DEClash>
0.1267

> <Gold.Chemscore.DEInternal>
3.0512

> <Gold.Chemscore.Rot>
2.5776

> <Gold.Chemscore.Internal.Correction>
   9.000000E+99

> <Gold.Chemscore.Hbonds>
donor molecule, donor type, donor heavy atom, donor atom, acceptor molecule, acceptor atom, score
      L1  H     6    27       P1  7948  1.00
      P1  H  6896  6908       L1     9  0.24
      P1  H  6931  6943       L1    16  0.29
      P1  H  6934  6947       L1    16  0.57

> <Gold.Chemscore.Hbond.Weighted>
-9.8585

> <Gold.Chemscore.Metal.Weighted>
-0.0000

> <Gold.Chemscore.Lipo.Weighted>
-5.2224

> <Gold.Chemscore.Internal_Hbond.Weighted>
0.0000

> <Gold.Chemscore.DEClash.Weighted>
0.1267

> <Gold.Chemscore.DEInternal.Weighted>
3.0512

> <Gold.Chemscore.Rot.Weighted>
6.5987

> <Gold.Chemscore.Internal.Correction.Weighted>
   9.000000E+99

> <Gold.Protein.RotatedTorsions>
[ 6907 6896 6895 6894 ] final  163.77 input  -60.11 | X-H torsion
[ 7974 7965 7964 7962 ] final  121.30 input  175.53 | X-H torsion
[ 8008 7997 7996 7995 ] final  -43.41 input   59.86 | X-H torsion
[ 10167 10162 10161 10158 ] final  -85.52 input  -65.29 | X-H torsion
[ 10718 10713 10712 10709 ] final  179.37 input   66.30 | X-H torsion
[ 10763 10752 10751 10750 ] final   54.72 input  -60.55 | X-H torsion
[ 11005 11000 10999 10996 ] final -114.74 input  -57.11 | X-H torsion

> <Gold.Protein.ActiveResidues>
 VAL166  LYS551  ARG553  GLY616  TRP617  ASP618  TYR619  PRO620  LYS621  CYS622 
 ASP623  PHE694  ASN695  SER759  ASP760  ASP761  ALA762  ILE779  LEU786  VAL792 
 PHE793  MET794  SER795  GLU796  ALA797  LYS798  CYS799  TRP800  GLU811  SER814 

> <Gold.Protein.RotatedAtoms>
  151.9201  133.3583  159.3893 H   0  0  0  0  0  0  0  0  0  0  0  0  # atno 6907 bound_to 6896
  150.7039  134.4644  159.5405 H   0  0  0  0  0  0  0  0  0  0  0  0  # atno 6908 bound_to 6896
  152.2266  134.8362  160.0530 H   0  0  0  0  0  0  0  0  0  0  0  0  # atno 6909 bound_to 6896
  145.1210  139.3389  143.4714 H   0  0  0  0  0  0  0  0  0  0  0  0  # atno 7974 bound_to 7965
  154.3997  140.1448  156.3515 H   0  0  0  0  0  0  0  0  0  0  0  0  # atno 8008 bound_to 7997
  155.8265  140.3467  155.5525 H   0  0  0  0  0  0  0  0  0  0  0  0  # atno 8009 bound_to 7997
  155.8233  140.0901  157.1826 H   0  0  0  0  0  0  0  0  0  0  0  0  # atno 8010 bound_to 7997
  140.4030  143.2655  151.9118 H   0  0  0  0  0  0  0  0  0  0  0  0  # atno 10167 bound_to 10162
  156.8767  130.9802  151.3067 H   0  0  0  0  0  0  0  0  0  0  0  0  # atno 10718 bound_to 10713
  152.9808  135.5735  154.4950 H   0  0  0  0  0  0  0  0  0  0  0  0  # atno 10763 bound_to 10752
  154.4478  135.2777  155.1804 H   0  0  0  0  0  0  0  0  0  0  0  0  # atno 10764 bound_to 10752
  154.3445  135.6222  153.5666 H   0  0  0  0  0  0  0  0  0  0  0  0  # atno 10765 bound_to 10752
  141.0532  133.9653  157.2799 H   0  0  0  0  0  0  0  0  0  0  0  0  # atno 11005 bound_to 11000
  146.3521  140.1169  142.8601 LP  0  0  0  0  0  0  0  0  0  0  0  0  # atno 17320 bound_to 7965
  145.0741  140.9176  143.4864 LP  0  0  0  0  0  0  0  0  0  0  0  0  # atno 17321 bound_to 7965
  139.4784  144.5614  151.8232 LP  0  0  0  0  0  0  0  0  0  0  0  0  # atno 17342 bound_to 10162
  140.4720  144.1574  150.5919 LP  0  0  0  0  0  0  0  0  0  0  0  0  # atno 17343 bound_to 10162
  157.6164  130.8621  149.9035 LP  0  0  0  0  0  0  0  0  0  0  0  0  # atno 17370 bound_to 10713
  156.0698  130.3687  150.0800 LP  0  0  0  0  0  0  0  0  0  0  0  0  # atno 17371 bound_to 10713
  139.9368  135.0195  156.8581 LP  0  0  0  0  0  0  0  0  0  0  0  0  # atno 17394 bound_to 11000
  140.6014  134.0168  155.7539 LP  0  0  0  0  0  0  0  0  0  0  0  0  # atno 17395 bound_to 11000

$$$$
