AV-unprocessed.smi:2083|AV-procd|sdf|8498|dock2
  -GOLD-   2272011203D 1   1.00000     0.00000
 Structure written by MMmdl.
 44 45  0  0  0  0  0  0  0  0  3 V2000
  151.4226  140.9019  156.2847 C   0  0  0  0  0  0  0  0  0  0  0  0
  151.7545  139.6011  155.6368 C   0  0  0  0  0  0  0  0  0  0  0  0
  151.0704  138.4250  155.5136 C   0  0  0  0  0  0  0  0  0  0  0  0
  151.9664  137.6034  154.7764 C   0  0  0  0  0  0  0  0  0  0  0  0
  151.7544  136.3292  154.4125 N   0  5  0  0  0  0  0  0  0  0  0  0
  150.8852  135.5569  155.1031 C   0  0  0  0  0  0  0  0  0  0  0  0
  151.0847  135.0237  156.1967 O   0  0  0  0  0  0  0  0  0  0  0  0
  149.7083  135.3919  154.4860 N   0  0  0  0  0  0  0  0  0  0  0  0
  148.5834  134.6220  155.0032 C   0  0  0  0  0  0  0  0  0  0  0  0
  148.2782  133.3840  154.1265 C   0  0  2  0  0  0  0  0  0  0  0  0
  149.5957  132.6770  153.7219 C   0  0  0  0  0  0  0  0  0  0  0  0
  147.4182  133.7866  152.9650 N   0  3  1  0  0  0  0  0  0  0  0  0
  147.0678  132.7026  152.0013 C   0  0  0  0  0  0  0  0  0  0  0  0
  146.3029  133.2530  150.7863 C   0  0  0  0  0  0  0  0  0  0  0  0
  145.0456  134.0136  151.2169 C   0  0  0  0  0  0  0  0  0  0  0  0
  145.4197  135.1184  152.2158 C   0  0  1  0  0  0  0  0  0  0  0  0
  144.1784  135.8907  152.6848 C   0  0  0  0  0  0  0  0  0  0  0  0
  146.1933  134.5155  153.4050 C   0  0  0  0  0  0  0  0  0  0  0  0
  153.0999  138.2213  154.4911 N   0  0  0  0  0  0  0  0  0  0  0  0
  152.9699  139.5049  155.0343 O   0  0  0  0  0  0  0  0  0  0  0  0
  151.2575  140.7688  157.3539 H   0  0  0  0  0  0  0  0  0  0  0  0
  150.5169  141.3274  155.8526 H   0  0  0  0  0  0  0  0  0  0  0  0
  152.2295  141.6236  156.1551 H   0  0  0  0  0  0  0  0  0  0  0  0
  150.0854  138.1899  155.8876 H   0  0  0  0  0  0  0  0  0  0  0  0
  149.5856  135.8455  153.5924 H   0  0  0  0  0  0  0  0  0  0  0  0
  148.8252  134.3415  156.0276 H   0  0  0  0  0  0  0  0  0  0  0  0
  147.6976  135.2578  155.0539 H   0  0  0  0  0  0  0  0  0  0  0  0
  147.7141  132.6660  154.7244 H   0  0  0  0  0  0  0  0  0  0  0  0
  150.1954  132.4118  154.5925 H   0  0  0  0  0  0  0  0  0  0  0  0
  150.2129  133.3141  153.0874 H   0  0  0  0  0  0  0  0  0  0  0  0
  149.4123  131.7403  153.1954 H   0  0  0  0  0  0  0  0  0  0  0  0
  147.9640  132.2186  151.6152 H   0  0  0  0  0  0  0  0  0  0  0  0
  146.4763  131.9379  152.5078 H   0  0  0  0  0  0  0  0  0  0  0  0
  146.9540  133.9162  150.2150 H   0  0  0  0  0  0  0  0  0  0  0  0
  146.0314  132.4364  150.1167 H   0  0  0  0  0  0  0  0  0  0  0  0
  144.5528  134.4412  150.3430 H   0  0  0  0  0  0  0  0  0  0  0  0
  144.3341  133.3224  151.6708 H   0  0  0  0  0  0  0  0  0  0  0  0
  146.0761  135.8280  151.7095 H   0  0  0  0  0  0  0  0  0  0  0  0
  143.4776  135.2382  153.2066 H   0  0  0  0  0  0  0  0  0  0  0  0
  143.6515  136.3368  151.8407 H   0  0  0  0  0  0  0  0  0  0  0  0
  144.4515  136.6976  153.3652 H   0  0  0  0  0  0  0  0  0  0  0  0
  145.5489  133.8323  153.9610 H   0  0  0  0  0  0  0  0  0  0  0  0
  146.4533  135.3193  154.0921 H   0  0  0  0  0  0  0  0  0  0  0  0
  147.9723  134.4447  152.4358 H   0  0  0  0  0  0  0  0  0  0  0  0
  1  2  1  0  0  0  0
  1 21  1  0  0  0  0
  1 22  1  0  0  0  0
  1 23  1  0  0  0  0
  2 20  1  0  0  0  0
  2  3  2  0  0  0  0
  3  4  1  0  0  0  0
  3 24  1  0  0  0  0
  4  5  1  0  0  0  0
  4 19  2  0  0  0  0
  5  6  1  0  0  0  0
  6  7  2  0  0  0  0
  6  8  1  0  0  0  0
  8  9  1  0  0  0  0
  8 25  1  0  0  0  0
  9 10  1  0  0  0  0
  9 26  1  0  0  0  0
  9 27  1  0  0  0  0
 10 11  1  0  0  0  0
 10 12  1  0  0  0  0
 10 28  1  0  0  0  0
 11 29  1  0  0  0  0
 11 30  1  0  0  0  0
 11 31  1  0  0  0  0
 12 18  1  0  0  0  0
 12 13  1  0  0  0  0
 12 44  1  0  0  0  0
 13 14  1  0  0  0  0
 13 32  1  0  0  0  0
 13 33  1  0  0  0  0
 14 15  1  0  0  0  0
 14 34  1  0  0  0  0
 14 35  1  0  0  0  0
 15 16  1  0  0  0  0
 15 36  1  0  0  0  0
 15 37  1  0  0  0  0
 16 17  1  0  0  0  0
 16 18  1  0  0  0  0
 16 38  1  0  0  0  0
 17 39  1  0  0  0  0
 17 40  1  0  0  0  0
 17 41  1  0  0  0  0
 18 42  1  0  0  0  0
 18 43  1  0  0  0  0
 19 20  1  0  0  0  0
M  CHG  1   5  -1
M  CHG  1  12   1
M  END
> <s_m_source_file>
AV-unprocessed.smi

> <i_m_source_file_index>
2083

> <i_lp_mmshare_version>
43012

> <i_f3d_flags>
0

> <s_epik_input>
W0NIM11jMVtjSF1jKG5vMSlbTkhdQyg9TylbTkhdW0NIMl1bQ0BIXShbQ0gzXSlOMltDSDJdW0NIMl1bQ0gyXVtDQEBIXShbQ0gzXSlbQ0gyXTI=

> <s_epik_cmdline>
J2VwaWtfcHl0aG9uJywgJy1waCcsICc3LjAnLCAnLXRuJywgJzgnLCAnLW1hJywgJzIwMCcsICctbWV0YWxfYmluZGluZycsICctaW1hZScsICc8aW5maWxlLm1hZT4nLCAnLW9tYWUnLCAnPG91dGZpbGUubWFlPic=

> <r_epik_Ionization_Penalty>
6.22434

> <r_epik_Ionization_Penalty_Charging>
6.22425

> <r_epik_Ionization_Penalty_Neutral>
9.62407e-05

> <r_epik_State_Penalty>
6.22423

> <r_epik_Charging_Adjusted_Penalty>
12.4485

> <i_epik_Tot_Q>
0

> <i_epik_Tot_abs_Q>
2

> <r_epik_Metal_State_Penalty>
2.16764

> <b_epik_Metal_Only>
1

> <s_lp_Force_Field>
OPLS_2005

> <r_lp_Energy>
12.4443

> <b_lp_Chiralities_Consistent>
1

> <s_lp_Variant>
AV-unprocessed.smi:2083-9

> <Gold.Version>
5.8.1

> <Gold.Id.Protein>
6NUR|6NUR_protein|mol2

> <Gold.PLP.Fitness>
51.3229

> <Gold.PLP.PLP>
-35.3862

> <Gold.PLP.part.hbond>
-5.3956

> <Gold.PLP.part.metal>
0.0000

> <Gold.PLP.part.buried>
-4.4538

> <Gold.PLP.part.nonpolar>
-26.5189

> <Gold.PLP.part.repulsive>
0.3108

> <Gold.PLP.ligand.clash>
0.0000

> <Gold.PLP.ligand.torsion>
1.0715

> <Gold.PLP.Chemscore.Hbond>
6.0000

> <Gold.PLP.Chemscore.CHOScore>
0.0000

> <Gold.PLP.Chemscore.Metal>
0.0000

> <Gold.Chemscore.Hbonds>
donor molecule, donor type, donor heavy atom, donor atom, acceptor molecule, acceptor atom, score
      L1  H     8    25       P1  7948  1.00
      L1  H    12    44       P1  7948  1.79
      P1  H  7997  8010       L1    20  1.00
      P1  H 10752 10765       L1     5  1.24

> <Gold.PLP.Chemscore.Internal.Correction>
0.0796

> <Gold.Rescore>
     Score         DG    S(hbond)    S(metal)    S(lipo)     H(rot)  DE(clash)    DE(int)     intcor
     18.15     -19.40       3.21        0.00      60.49       1.52       0.00       1.24       ----

> <Gold.Chemscore.Fitness>
18.1482

> <Gold.Chemscore.DG>
-19.3978

> <Gold.Chemscore.ZeroCoef>
-5.4800

> <Gold.Chemscore.Hbond>
3.2122

> <Gold.Chemscore.Metal>
0.0000

> <Gold.Chemscore.Lipo>
60.4932

> <Gold.Chemscore.Internal_Hbond>
0.0000

> <Gold.Chemscore.DEClash>
0.0048

> <Gold.Chemscore.DEInternal>
1.2448

> <Gold.Chemscore.Rot>
1.5190

> <Gold.Chemscore.Internal.Correction>
   9.000000E+99

> <Gold.Chemscore.Hbonds>
donor molecule, donor type, donor heavy atom, donor atom, acceptor molecule, acceptor atom, score
      L1  H     8    25       P1  7948  0.26
      L1  H    12    44       P1  7948  0.35
      P1  H  7997  8010       L1    20  0.68
      P1  H 10752 10765       L1     5  0.18

> <Gold.Chemscore.Hbond.Weighted>
-10.7287

> <Gold.Chemscore.Metal.Weighted>
-0.0000

> <Gold.Chemscore.Lipo.Weighted>
-7.0777

> <Gold.Chemscore.Internal_Hbond.Weighted>
0.0000

> <Gold.Chemscore.DEClash.Weighted>
0.0048

> <Gold.Chemscore.DEInternal.Weighted>
1.2448

> <Gold.Chemscore.Rot.Weighted>
3.8886

> <Gold.Chemscore.Internal.Correction.Weighted>
   9.000000E+99

> <Gold.Protein.RotatedTorsions>
[ 6907 6896 6895 6894 ] final  106.43 input  -60.11 | X-H torsion
[ 7974 7965 7964 7962 ] final   -7.05 input  175.53 | X-H torsion
[ 8008 7997 7996 7995 ] final   82.81 input   59.86 | X-H torsion
[ 10167 10162 10161 10158 ] final  110.06 input  -65.29 | X-H torsion
[ 10718 10713 10712 10709 ] final   90.91 input   66.30 | X-H torsion
[ 10763 10752 10751 10750 ] final  175.64 input  -60.55 | X-H torsion
[ 11005 11000 10999 10996 ] final  -87.89 input  -57.11 | X-H torsion

> <Gold.Protein.ActiveResidues>
 VAL166  LYS551  ARG553  GLY616  TRP617  ASP618  TYR619  PRO620  LYS621  CYS622 
 ASP623  PHE694  ASN695  SER759  ASP760  ASP761  ALA762  ILE779  LEU786  VAL792 
 PHE793  MET794  SER795  GLU796  ALA797  LYS798  CYS799  TRP800  GLU811  SER814 

> <Gold.Protein.RotatedAtoms>
  152.5194  133.9383  159.7613 H   0  0  0  0  0  0  0  0  0  0  0  0  # atno 6907 bound_to 6896
  150.9718  133.6327  159.2743 H   0  0  0  0  0  0  0  0  0  0  0  0  # atno 6908 bound_to 6896
  151.3536  135.0895  159.9464 H   0  0  0  0  0  0  0  0  0  0  0  0  # atno 6909 bound_to 6896
  146.2316  140.2261  142.8339 H   0  0  0  0  0  0  0  0  0  0  0  0  # atno 7974 bound_to 7965
  155.9155  140.3424  155.6132 H   0  0  0  0  0  0  0  0  0  0  0  0  # atno 8008 bound_to 7997
  155.7336  140.0798  157.2296 H   0  0  0  0  0  0  0  0  0  0  0  0  # atno 8009 bound_to 7997
  154.4062  140.1583  156.2524 H   0  0  0  0  0  0  0  0  0  0  0  0  # atno 8010 bound_to 7997
  139.6717  144.7125  151.1675 H   0  0  0  0  0  0  0  0  0  0  0  0  # atno 10167 bound_to 10162
  157.6960  131.0388  150.3650 H   0  0  0  0  0  0  0  0  0  0  0  0  # atno 10718 bound_to 10713
  154.4703  135.2771  155.1647 H   0  0  0  0  0  0  0  0  0  0  0  0  # atno 10763 bound_to 10752
  154.3399  135.6172  153.5595 H   0  0  0  0  0  0  0  0  0  0  0  0  # atno 10764 bound_to 10752
  152.9863  135.5786  154.5083 H   0  0  0  0  0  0  0  0  0  0  0  0  # atno 10765 bound_to 10752
  141.1610  133.7538  156.9372 H   0  0  0  0  0  0  0  0  0  0  0  0  # atno 11005 bound_to 11000
  144.9594  140.8260  143.5523 LP  0  0  0  0  0  0  0  0  0  0  0  0  # atno 17320 bound_to 7965
  145.2230  139.2150  143.5083 LP  0  0  0  0  0  0  0  0  0  0  0  0  # atno 17321 bound_to 7965
  140.7620  143.5833  150.8872 LP  0  0  0  0  0  0  0  0  0  0  0  0  # atno 17342 bound_to 10162
  139.9499  143.6284  152.3032 LP  0  0  0  0  0  0  0  0  0  0  0  0  # atno 17343 bound_to 10162
  156.4082  130.3929  149.6911 LP  0  0  0  0  0  0  0  0  0  0  0  0  # atno 17370 bound_to 10713
  156.4204  130.7766  151.2783 LP  0  0  0  0  0  0  0  0  0  0  0  0  # atno 17371 bound_to 10713
  140.1346  134.9333  157.2384 LP  0  0  0  0  0  0  0  0  0  0  0  0  # atno 17394 bound_to 11000
  140.2911  134.3239  155.7315 LP  0  0  0  0  0  0  0  0  0  0  0  0  # atno 17395 bound_to 11000

$$$$
