AV-unprocessed.smi:1100|AV-procd|sdf|4759|dock9
  -GOLD-   22720 3293D 1   1.00000     0.00000
 Structure written by MMmdl.
 43 44  0  0  0  0  0  0  0  0  1 V2000
  146.8858  141.2802  154.1827 C   0  0  0  0  0  0  0  0  0  0  0  0
  147.6155  139.9285  153.9738 C   0  0  2  0  0  0  0  0  0  0  0  0
  146.6113  138.7696  154.2429 C   0  0  0  0  0  0  0  0  0  0  0  0
  146.8207  137.6054  153.3860 N   0  0  0  0  0  0  0  0  0  0  0  0
  145.8563  136.7735  152.9671 C   0  0  0  0  0  0  0  0  0  0  0  0
  144.6701  136.9178  153.2605 O   0  0  0  0  0  0  0  0  0  0  0  0
  146.3680  135.7940  152.1994 N   0  0  0  0  0  0  0  0  0  0  0  0
  145.7143  134.7107  151.5956 C   0  0  0  0  0  0  0  0  0  0  0  0
  144.5862  134.8095  150.6803 C   0  0  0  0  0  0  0  0  0  0  0  0
  144.0257  133.7029  150.1529 C   0  0  0  0  0  0  0  0  0  0  0  0
  144.5197  132.3613  150.4728 C   0  0  0  0  0  0  0  0  0  0  0  0
  144.0218  131.3442  149.9895 O   0  0  0  0  0  0  0  0  0  0  0  0
  145.5676  132.3125  151.3446 N   0  0  0  0  0  0  0  0  0  0  0  0
  146.1320  131.0180  151.7341 C   0  0  0  0  0  0  0  0  0  0  0  0
  146.1485  133.4720  151.8912 C   0  0  0  0  0  0  0  0  0  0  0  0
  148.8608  139.8193  154.7692 N   0  0  0  0  0  0  0  0  0  0  0  0
  149.8442  138.9151  154.1610 C   0  0  0  0  0  0  0  0  0  0  0  0
  151.1519  138.8239  154.9664 C   0  0  0  0  0  0  0  0  0  0  0  0
  151.7118  140.1205  155.1217 O   0  0  0  0  0  0  0  0  0  0  0  0
  150.8200  141.0102  155.7786 C   0  0  0  0  0  0  0  0  0  0  0  0
  149.5118  141.1183  154.9764 C   0  0  0  0  0  0  0  0  0  0  0  0
  145.9463  141.3358  153.6342 H   0  0  0  0  0  0  0  0  0  0  0  0
  147.4709  142.1256  153.8238 H   0  0  0  0  0  0  0  0  0  0  0  0
  146.6603  141.4478  155.2363 H   0  0  0  0  0  0  0  0  0  0  0  0
  147.8909  139.8778  152.9194 H   0  0  0  0  0  0  0  0  0  0  0  0
  146.6633  138.4122  155.2703 H   0  0  0  0  0  0  0  0  0  0  0  0
  145.5907  139.1220  154.0914 H   0  0  0  0  0  0  0  0  0  0  0  0
  147.7702  137.4190  153.0980 H   0  0  0  0  0  0  0  0  0  0  0  0
  147.3618  135.8356  152.0277 H   0  0  0  0  0  0  0  0  0  0  0  0
  144.1579  135.7600  150.4075 H   0  0  0  0  0  0  0  0  0  0  0  0
  143.1864  133.8052  149.4807 H   0  0  0  0  0  0  0  0  0  0  0  0
  146.9210  131.1095  152.4811 H   0  0  0  0  0  0  0  0  0  0  0  0
  146.5596  130.5137  150.8666 H   0  0  0  0  0  0  0  0  0  0  0  0
  145.3607  130.3722  152.1569 H   0  0  0  0  0  0  0  0  0  0  0  0
  146.9756  133.2904  152.5627 H   0  0  0  0  0  0  0  0  0  0  0  0
  149.4492  137.9039  154.0912 H   0  0  0  0  0  0  0  0  0  0  0  0
  150.0672  139.2408  153.1438 H   0  0  0  0  0  0  0  0  0  0  0  0
  150.9722  138.3767  155.9452 H   0  0  0  0  0  0  0  0  0  0  0  0
  151.8699  138.1861  154.4508 H   0  0  0  0  0  0  0  0  0  0  0  0
  150.6240  140.6596  156.7933 H   0  0  0  0  0  0  0  0  0  0  0  0
  151.2933  141.9885  155.8640 H   0  0  0  0  0  0  0  0  0  0  0  0
  149.7161  141.5877  154.0129 H   0  0  0  0  0  0  0  0  0  0  0  0
  148.8574  141.7930  155.5252 H   0  0  0  0  0  0  0  0  0  0  0  0
  1  2  1  0  0  0  0
  1 22  1  0  0  0  0
  1 23  1  0  0  0  0
  1 24  1  0  0  0  0
  2  3  1  0  0  0  0
  2 16  1  0  0  0  0
  2 25  1  0  0  0  0
  3  4  1  0  0  0  0
  3 26  1  0  0  0  0
  3 27  1  0  0  0  0
  4  5  1  0  0  0  0
  4 28  1  0  0  0  0
  5  6  2  0  0  0  0
  5  7  1  0  0  0  0
  7  8  1  0  0  0  0
  7 29  1  0  0  0  0
  8 15  2  0  0  0  0
  8  9  1  0  0  0  0
  9 10  2  0  0  0  0
  9 30  1  0  0  0  0
 10 11  1  0  0  0  0
 10 31  1  0  0  0  0
 11 12  2  0  0  0  0
 11 13  1  0  0  0  0
 13 14  1  0  0  0  0
 13 15  1  0  0  0  0
 14 32  1  0  0  0  0
 14 33  1  0  0  0  0
 14 34  1  0  0  0  0
 15 35  1  0  0  0  0
 16 21  1  0  0  0  0
 16 17  1  0  0  0  0
 17 18  1  0  0  0  0
 17 36  1  0  0  0  0
 17 37  1  0  0  0  0
 18 19  1  0  0  0  0
 18 38  1  0  0  0  0
 18 39  1  0  0  0  0
 19 20  1  0  0  0  0
 20 21  1  0  0  0  0
 20 40  1  0  0  0  0
 20 41  1  0  0  0  0
 21 42  1  0  0  0  0
 21 43  1  0  0  0  0
M  END
> <s_m_source_file>
AV-unprocessed.smi

> <i_m_source_file_index>
1100

> <i_lp_mmshare_version>
43012

> <i_f3d_flags>
0

> <s_epik_input>
W0NIMl0xW0NIMl1PW0NIMl1bQ0gyXU4xW0NASF0oW0NIM10pW0NIMl1bTkhdQyg9TylbTkhdYzJbY0hdW2NIXWMoPU8pbihbQ0gzXSlbY0hdMg==

> <s_epik_cmdline>
J2VwaWtfcHl0aG9uJywgJy1waCcsICc3LjAnLCAnLXRuJywgJzgnLCAnLW1hJywgJzIwMCcsICctbWV0YWxfYmluZGluZycsICctaW1hZScsICc8aW5maWxlLm1hZT4nLCAnLW9tYWUnLCAnPG91dGZpbGUubWFlPic=

> <r_lp_tautomer_probability>
1

> <r_epik_Ionization_Penalty>
0.266016

> <r_epik_Ionization_Penalty_Charging>
5.79683e-06

> <r_epik_Ionization_Penalty_Neutral>
0.26601

> <r_epik_State_Penalty>
0.257924

> <r_epik_Charging_Adjusted_Penalty>
0.25793

> <i_epik_Tot_Q>
0

> <i_epik_Tot_abs_Q>
0

> <r_epik_Metal_State_Penalty>
0.260326

> <b_epik_Metal_Only>
0

> <s_lp_Force_Field>
OPLS_2005

> <r_lp_Energy>
41.8129

> <b_lp_Chiralities_Consistent>
1

> <s_lp_Variant>
AV-unprocessed.smi:1100-1

> <Gold.Version>
5.8.1

> <Gold.Id.Protein>
6NUR|6NUR_protein|mol2

> <Gold.PLP.Fitness>
44.1155

> <Gold.PLP.PLP>
-37.8702

> <Gold.PLP.part.hbond>
-4.0000

> <Gold.PLP.part.metal>
0.0000

> <Gold.PLP.part.buried>
-2.9723

> <Gold.PLP.part.nonpolar>
-31.2678

> <Gold.PLP.part.repulsive>
0.5217

> <Gold.PLP.ligand.clash>
0.0710

> <Gold.PLP.ligand.torsion>
1.7045

> <Gold.PLP.Chemscore.Hbond>
3.2299

> <Gold.PLP.Chemscore.CHOScore>
0.0000

> <Gold.PLP.Chemscore.Metal>
0.0000

> <Gold.Chemscore.Hbonds>
donor molecule, donor type, donor heavy atom, donor atom, acceptor molecule, acceptor atom, score
      L1  H     4    28       P1  7948  0.77
      L1  H     7    29       P1  7948  1.00
      P1  H  7989  7998       L1    19  0.85
      P1  H 10785 10796       L1    12  0.64

> <Gold.PLP.Chemscore.Internal.Correction>
0.0355

> <Gold.Rescore>
     Score         DG    S(hbond)    S(metal)    S(lipo)     H(rot)  DE(clash)    DE(int)     intcor
     18.06     -20.00       2.72        0.00      79.07       1.49       0.29       1.64       ----

> <Gold.Chemscore.Fitness>
18.0616

> <Gold.Chemscore.DG>
-19.9970

> <Gold.Chemscore.ZeroCoef>
-5.4800

> <Gold.Chemscore.Hbond>
2.7216

> <Gold.Chemscore.Metal>
0.0000

> <Gold.Chemscore.Lipo>
79.0694

> <Gold.Chemscore.Internal_Hbond>
0.0000

> <Gold.Chemscore.DEClash>
0.2918

> <Gold.Chemscore.DEInternal>
1.6435

> <Gold.Chemscore.Rot>
1.4938

> <Gold.Chemscore.Internal.Correction>
   9.000000E+99

> <Gold.Chemscore.Hbonds>
donor molecule, donor type, donor heavy atom, donor atom, acceptor molecule, acceptor atom, score
      L1  H     4    28       P1  7948  0.74
      L1  H     7    29       P1  7948  0.99
      P1  H  7989  7998       L1    19  0.09
      P1  H 10785 10796       L1    12  0.64

> <Gold.Chemscore.Hbond.Weighted>
-9.0900

> <Gold.Chemscore.Metal.Weighted>
-0.0000

> <Gold.Chemscore.Lipo.Weighted>
-9.2511

> <Gold.Chemscore.Internal_Hbond.Weighted>
0.0000

> <Gold.Chemscore.DEClash.Weighted>
0.2918

> <Gold.Chemscore.DEInternal.Weighted>
1.6435

> <Gold.Chemscore.Rot.Weighted>
3.8242

> <Gold.Chemscore.Internal.Correction.Weighted>
   9.000000E+99

> <Gold.Protein.RotatedTorsions>
[ 6907 6896 6895 6894 ] final -142.90 input  -60.11 | X-H torsion
[ 7974 7965 7964 7962 ] final -102.95 input  175.53 | X-H torsion
[ 8008 7997 7996 7995 ] final -176.04 input   59.86 | X-H torsion
[ 10167 10162 10161 10158 ] final   54.63 input  -65.29 | X-H torsion
[ 10718 10713 10712 10709 ] final   -8.58 input   66.30 | X-H torsion
[ 10763 10752 10751 10750 ] final  133.54 input  -60.55 | X-H torsion
[ 11005 11000 10999 10996 ] final   13.04 input  -57.11 | X-H torsion

> <Gold.Protein.ActiveResidues>
 VAL166  LYS551  ARG553  GLY616  TRP617  ASP618  TYR619  PRO620  LYS621  CYS622 
 ASP623  PHE694  ASN695  SER759  ASP760  ASP761  ALA762  ILE779  LEU786  VAL792 
 PHE793  MET794  SER795  GLU796  ALA797  LYS798  CYS799  TRP800  GLU811  SER814 

> <Gold.Protein.RotatedAtoms>
  151.0932  133.5300  159.2613 H   0  0  0  0  0  0  0  0  0  0  0  0  # atno 6907 bound_to 6896
  151.2159  135.0499  159.8940 H   0  0  0  0  0  0  0  0  0  0  0  0  # atno 6908 bound_to 6896
  152.5436  134.0741  159.8260 H   0  0  0  0  0  0  0  0  0  0  0  0  # atno 6909 bound_to 6896
  145.2621  140.9272  143.3034 H   0  0  0  0  0  0  0  0  0  0  0  0  # atno 7974 bound_to 7965
  155.9900  140.1199  157.0647 H   0  0  0  0  0  0  0  0  0  0  0  0  # atno 8008 bound_to 7997
  154.4208  140.1127  156.5620 H   0  0  0  0  0  0  0  0  0  0  0  0  # atno 8009 bound_to 7997
  155.6356  140.3473  155.4700 H   0  0  0  0  0  0  0  0  0  0  0  0  # atno 8010 bound_to 7997
  140.2281  144.3716  150.6425 H   0  0  0  0  0  0  0  0  0  0  0  0  # atno 10167 bound_to 10162
  156.7005  130.5092  149.5918 H   0  0  0  0  0  0  0  0  0  0  0  0  # atno 10718 bound_to 10713
  153.8089  135.3132  155.3398 H   0  0  0  0  0  0  0  0  0  0  0  0  # atno 10763 bound_to 10752
  154.8059  135.4698  154.0395 H   0  0  0  0  0  0  0  0  0  0  0  0  # atno 10764 bound_to 10752
  153.1767  135.6887  153.8622 H   0  0  0  0  0  0  0  0  0  0  0  0  # atno 10765 bound_to 10752
  140.4852  134.0896  155.7759 H   0  0  0  0  0  0  0  0  0  0  0  0  # atno 11005 bound_to 11000
  144.9409  139.4190  143.6449 LP  0  0  0  0  0  0  0  0  0  0  0  0  # atno 17320 bound_to 7965
  146.3272  139.8368  142.8898 LP  0  0  0  0  0  0  0  0  0  0  0  0  # atno 17321 bound_to 7965
  140.6205  143.2176  151.6703 LP  0  0  0  0  0  0  0  0  0  0  0  0  # atno 17342 bound_to 10162
  139.5120  144.3491  152.0669 LP  0  0  0  0  0  0  0  0  0  0  0  0  # atno 17343 bound_to 10162
  156.1732  130.6451  151.0863 LP  0  0  0  0  0  0  0  0  0  0  0  0  # atno 17370 bound_to 10713
  157.6975  131.0788  150.6924 LP  0  0  0  0  0  0  0  0  0  0  0  0  # atno 17371 bound_to 10713
  141.1512  133.8966  157.2094 LP  0  0  0  0  0  0  0  0  0  0  0  0  # atno 17394 bound_to 11000
  139.9802  135.0100  156.9732 LP  0  0  0  0  0  0  0  0  0  0  0  0  # atno 17395 bound_to 11000

$$$$
