AV-unprocessed.smi:625|AV-procd|sdf|3108|dock7
  -GOLD-   22720 0 33D 1   1.00000     0.00000
 Structure written by MMmdl.
 49 51  0  0  0  0  0  0  0  0  1 V2000
  143.8120  137.2098  152.7954 C   0  0  0  0  0  0  0  0  0  0  0  0
  144.9155  138.1072  153.1026 N   0  0  0  0  0  0  0  0  0  0  0  0
  146.0598  137.7317  153.6975 C   0  0  0  0  0  0  0  0  0  0  0  0
  146.2610  136.5636  154.0338 O   0  0  0  0  0  0  0  0  0  0  0  0
  147.0111  138.8281  153.8962 C   0  0  0  0  0  0  0  0  0  0  0  0
  146.6438  140.2316  153.7788 C   0  0  0  0  0  0  0  0  0  0  0  0
  147.5650  141.1987  153.9562 C   0  0  0  0  0  0  0  0  0  0  0  0
  148.9611  140.8860  154.2725 C   0  0  0  0  0  0  0  0  0  0  0  0
  149.8102  141.7653  154.4181 O   0  0  0  0  0  0  0  0  0  0  0  0
  149.2616  139.5564  154.3865 N   0  0  0  0  0  0  0  0  0  0  0  0
  150.6380  139.1188  154.6858 C   0  0  0  0  0  0  0  0  0  0  0  0
  151.3391  139.9320  155.7876 C   0  0  0  0  0  0  0  0  0  0  0  0
  152.4859  140.3359  155.5996 O   0  0  0  0  0  0  0  0  0  0  0  0
  150.6640  140.1527  156.9283 N   0  0  0  0  0  0  0  0  0  0  0  0
  151.1785  140.8168  158.1214 C   0  0  1  0  0  0  0  0  0  0  0  0
  152.3188  139.9870  158.7365 C   0  0  0  0  0  0  0  0  0  0  0  0
  151.6332  142.2438  157.7353 C   0  0  1  0  0  0  0  0  0  0  0  0
  150.4945  143.2849  157.6254 C   0  0  0  0  0  0  0  0  0  0  0  0
  151.0307  144.4714  158.4477 C   0  0  1  0  0  0  0  0  0  0  0  0
  150.9412  144.1236  159.9444 C   0  0  0  0  0  0  0  0  0  0  0  0
  152.0659  143.0865  160.1174 C   0  0  0  0  0  0  0  0  0  0  0  0
  152.6301  142.9491  158.6879 C   0  0  2  0  0  0  0  0  0  0  0  0
  152.5323  144.3898  158.1953 C   0  0  0  0  0  0  0  0  0  0  0  0
  148.2953  138.5492  154.1950 C   0  0  0  0  0  0  0  0  0  0  0  0
  143.0006  137.7660  152.3263 H   0  0  0  0  0  0  0  0  0  0  0  0
  143.4254  136.7437  153.7025 H   0  0  0  0  0  0  0  0  0  0  0  0
  144.1296  136.4249  152.1079 H   0  0  0  0  0  0  0  0  0  0  0  0
  144.8045  139.0779  152.8480 H   0  0  0  0  0  0  0  0  0  0  0  0
  145.6321  140.5311  153.5482 H   0  0  0  0  0  0  0  0  0  0  0  0
  147.2686  142.2332  153.8631 H   0  0  0  0  0  0  0  0  0  0  0  0
  150.6453  138.0651  154.9704 H   0  0  0  0  0  0  0  0  0  0  0  0
  151.2546  139.1702  153.7875 H   0  0  0  0  0  0  0  0  0  0  0  0
  149.7231  139.7914  156.9890 H   0  0  0  0  0  0  0  0  0  0  0  0
  150.3627  140.8825  158.8417 H   0  0  0  0  0  0  0  0  0  0  0  0
  152.6896  140.4438  159.6539 H   0  0  0  0  0  0  0  0  0  0  0  0
  153.1587  139.8940  158.0471 H   0  0  0  0  0  0  0  0  0  0  0  0
  151.9850  138.9808  158.9913 H   0  0  0  0  0  0  0  0  0  0  0  0
  152.1146  142.1776  156.7575 H   0  0  0  0  0  0  0  0  0  0  0  0
  150.3345  143.5672  156.5841 H   0  0  0  0  0  0  0  0  0  0  0  0
  149.5429  142.9227  158.0172 H   0  0  0  0  0  0  0  0  0  0  0  0
  150.5690  145.4255  158.1921 H   0  0  0  0  0  0  0  0  0  0  0  0
  151.1319  145.0024  160.5615 H   0  0  0  0  0  0  0  0  0  0  0  0
  149.9632  143.7272  160.2199 H   0  0  0  0  0  0  0  0  0  0  0  0
  152.8321  143.4736  160.7905 H   0  0  0  0  0  0  0  0  0  0  0  0
  151.7145  142.1465  160.5400 H   0  0  0  0  0  0  0  0  0  0  0  0
  153.6367  142.5313  158.6545 H   0  0  0  0  0  0  0  0  0  0  0  0
  152.8024  144.5106  157.1447 H   0  0  0  0  0  0  0  0  0  0  0  0
  153.1113  145.0942  158.7957 H   0  0  0  0  0  0  0  0  0  0  0  0
  148.6767  137.5427  154.2976 H   0  0  0  0  0  0  0  0  0  0  0  0
  1  2  1  0  0  0  0
  1 25  1  0  0  0  0
  1 26  1  0  0  0  0
  1 27  1  0  0  0  0
  2  3  1  0  0  0  0
  2 28  1  0  0  0  0
  3  4  2  0  0  0  0
  3  5  1  0  0  0  0
  5 24  2  0  0  0  0
  5  6  1  0  0  0  0
  6  7  2  0  0  0  0
  6 29  1  0  0  0  0
  7  8  1  0  0  0  0
  7 30  1  0  0  0  0
  8  9  2  0  0  0  0
  8 10  1  0  0  0  0
 10 11  1  0  0  0  0
 10 24  1  0  0  0  0
 11 12  1  0  0  0  0
 11 31  1  0  0  0  0
 11 32  1  0  0  0  0
 12 13  2  0  0  0  0
 12 14  1  0  0  0  0
 14 15  1  0  0  0  0
 14 33  1  0  0  0  0
 15 16  1  0  0  0  0
 15 17  1  0  0  0  0
 15 34  1  0  0  0  0
 16 35  1  0  0  0  0
 16 36  1  0  0  0  0
 16 37  1  0  0  0  0
 17 22  1  0  0  0  0
 17 18  1  0  0  0  0
 17 38  1  0  0  0  0
 18 19  1  0  0  0  0
 18 39  1  0  0  0  0
 18 40  1  0  0  0  0
 19 23  1  0  0  0  0
 19 20  1  0  0  0  0
 19 41  1  0  0  0  0
 20 21  1  0  0  0  0
 20 42  1  0  0  0  0
 20 43  1  0  0  0  0
 21 22  1  0  0  0  0
 21 44  1  0  0  0  0
 21 45  1  0  0  0  0
 22 23  1  0  0  0  0
 22 46  1  0  0  0  0
 23 47  1  0  0  0  0
 23 48  1  0  0  0  0
 24 49  1  0  0  0  0
M  END
> <s_m_source_file>
AV-unprocessed.smi

> <i_m_source_file_index>
625

> <i_lp_mmshare_version>
43012

> <i_f3d_flags>
0

> <s_epik_input>
W0NIM11bTkhdQyg9TyljMVtjSF1bY0hdYyg9TyluKFtjSF0xKVtDSDJdQyg9TylbTkhdW0NASF0oW0NIM10pW0NASF0oW0NIMl1bQ0BIXTIzKVtDQEhdKFtDSDJdMylbQ0gyXVtDSDJdMg==

> <s_epik_cmdline>
J2VwaWtfcHl0aG9uJywgJy1waCcsICc3LjAnLCAnLXRuJywgJzgnLCAnLW1hJywgJzIwMCcsICctbWV0YWxfYmluZGluZycsICctaW1hZScsICc8aW5maWxlLm1hZT4nLCAnLW9tYWUnLCAnPG91dGZpbGUubWFlPic=

> <r_lp_tautomer_probability>
1

> <r_epik_Ionization_Penalty>
3.7129e-07

> <r_epik_Ionization_Penalty_Charging>
5.04114e-08

> <r_epik_Ionization_Penalty_Neutral>
3.20879e-07

> <r_epik_State_Penalty>
-0

> <r_epik_Charging_Adjusted_Penalty>
5.04114e-08

> <i_epik_Tot_Q>
0

> <i_epik_Tot_abs_Q>
0

> <r_epik_Metal_State_Penalty>
-0

> <b_epik_Metal_Only>
0

> <s_lp_Force_Field>
OPLS_2005

> <r_lp_Energy>
63.411

> <b_lp_Chiralities_Consistent>
1

> <s_lp_Variant>
AV-unprocessed.smi:625-8

> <Gold.Version>
5.8.1

> <Gold.Id.Protein>
6NUR|6NUR_protein|mol2

> <Gold.PLP.Fitness>
49.0124

> <Gold.PLP.PLP>
-42.9901

> <Gold.PLP.part.hbond>
-5.0000

> <Gold.PLP.part.metal>
0.0000

> <Gold.PLP.part.buried>
2.6109

> <Gold.PLP.part.nonpolar>
-40.7775

> <Gold.PLP.part.repulsive>
0.3236

> <Gold.PLP.ligand.clash>
0.0000

> <Gold.PLP.ligand.torsion>
0.8855

> <Gold.PLP.Chemscore.Hbond>
2.3153

> <Gold.PLP.Chemscore.CHOScore>
0.2596

> <Gold.PLP.Chemscore.Metal>
0.0000

> <Gold.Chemscore.Hbonds>
donor molecule, donor type, donor heavy atom, donor atom, acceptor molecule, acceptor atom, score
      L1  H     2    28       P1 10175  0.96
      P1  H  7989  7998       L1     9  0.12
      P1  H  7997  8010       L1    13  1.00
      P1  H  8011  8017       L1     9  0.21
      L1  C    24    49       P1  7948  0.27

> <Gold.PLP.Chemscore.Internal.Correction>
0.0684

> <Gold.Rescore>
     Score         DG    S(hbond)    S(metal)    S(lipo)     H(rot)  DE(clash)    DE(int)     intcor
     17.36     -20.73       1.85        0.00     114.10       1.67       0.12       3.25       ----

> <Gold.Chemscore.Fitness>
17.3591

> <Gold.Chemscore.DG>
-20.7268

> <Gold.Chemscore.ZeroCoef>
-5.4800

> <Gold.Chemscore.Hbond>
1.8486

> <Gold.Chemscore.Metal>
0.0000

> <Gold.Chemscore.Lipo>
114.1009

> <Gold.Chemscore.Internal_Hbond>
0.0000

> <Gold.Chemscore.DEClash>
0.1166

> <Gold.Chemscore.DEInternal>
3.2512

> <Gold.Chemscore.Rot>
1.6709

> <Gold.Chemscore.Internal.Correction>
   9.000000E+99

> <Gold.Chemscore.Hbonds>
donor molecule, donor type, donor heavy atom, donor atom, acceptor molecule, acceptor atom, score
      L1  H     2    28       P1 10175  0.92
      P1  H  7989  7998       L1     9  0.06
      P1  H  7997  8010       L1    13  0.94
      P1  H  8011  8017       L1     9  0.03

> <Gold.Chemscore.Hbond.Weighted>
-6.1744

> <Gold.Chemscore.Metal.Weighted>
-0.0000

> <Gold.Chemscore.Lipo.Weighted>
-13.3498

> <Gold.Chemscore.Internal_Hbond.Weighted>
0.0000

> <Gold.Chemscore.DEClash.Weighted>
0.1166

> <Gold.Chemscore.DEInternal.Weighted>
3.2512

> <Gold.Chemscore.Rot.Weighted>
4.2774

> <Gold.Chemscore.Internal.Correction.Weighted>
   9.000000E+99

> <Gold.Protein.RotatedTorsions>
[ 6907 6896 6895 6894 ] final   25.74 input  -60.11 | X-H torsion
[ 7974 7965 7964 7962 ] final  -91.52 input  175.53 | X-H torsion
[ 8008 7997 7996 7995 ] final  101.78 input   59.86 | X-H torsion
[ 10167 10162 10161 10158 ] final   65.43 input  -65.29 | X-H torsion
[ 10718 10713 10712 10709 ] final   15.55 input   66.30 | X-H torsion
[ 10763 10752 10751 10750 ] final  147.61 input  -60.55 | X-H torsion
[ 11005 11000 10999 10996 ] final  116.59 input  -57.11 | X-H torsion

> <Gold.Protein.ActiveResidues>
 VAL166  LYS551  ARG553  GLY616  TRP617  ASP618  TYR619  PRO620  LYS621  CYS622 
 ASP623  PHE694  ASN695  SER759  ASP760  ASP761  ALA762  ILE779  LEU786  VAL792 
 PHE793  MET794  SER795  GLU796  ALA797  LYS798  CYS799  TRP800  GLU811  SER814 

> <Gold.Protein.RotatedAtoms>
  151.9770  135.0048  160.0555 H   0  0  0  0  0  0  0  0  0  0  0  0  # atno 6907 bound_to 6896
  152.1731  133.4652  159.4927 H   0  0  0  0  0  0  0  0  0  0  0  0  # atno 6908 bound_to 6896
  150.6905  134.1846  159.4304 H   0  0  0  0  0  0  0  0  0  0  0  0  # atno 6909 bound_to 6896
  145.4121  140.9545  143.2228 H   0  0  0  0  0  0  0  0  0  0  0  0  # atno 7974 bound_to 7965
  156.1331  140.3192  155.8380 H   0  0  0  0  0  0  0  0  0  0  0  0  # atno 8008 bound_to 7997
  155.4294  140.0518  157.3037 H   0  0  0  0  0  0  0  0  0  0  0  0  # atno 8009 bound_to 7997
  154.4915  140.2094  155.9550 H   0  0  0  0  0  0  0  0  0  0  0  0  # atno 8010 bound_to 7997
  140.1113  144.4815  150.6976 H   0  0  0  0  0  0  0  0  0  0  0  0  # atno 10167 bound_to 10162
  157.0551  130.6286  149.5775 H   0  0  0  0  0  0  0  0  0  0  0  0  # atno 10718 bound_to 10713
  154.0411  135.2889  155.3355 H   0  0  0  0  0  0  0  0  0  0  0  0  # atno 10763 bound_to 10752
  154.6928  135.5219  153.8420 H   0  0  0  0  0  0  0  0  0  0  0  0  # atno 10764 bound_to 10752
  153.0599  135.6610  154.0615 H   0  0  0  0  0  0  0  0  0  0  0  0  # atno 10765 bound_to 10752
  139.9046  134.9600  156.7221 H   0  0  0  0  0  0  0  0  0  0  0  0  # atno 11005 bound_to 11000
  144.8302  139.5641  143.6947 LP  0  0  0  0  0  0  0  0  0  0  0  0  # atno 17320 bound_to 7965
  146.2700  139.6611  142.9303 LP  0  0  0  0  0  0  0  0  0  0  0  0  # atno 17321 bound_to 7965
  140.6924  143.2383  151.5095 LP  0  0  0  0  0  0  0  0  0  0  0  0  # atno 17342 bound_to 10162
  139.5617  144.2139  152.1702 LP  0  0  0  0  0  0  0  0  0  0  0  0  # atno 17343 bound_to 10162
  155.9995  130.5071  150.7610 LP  0  0  0  0  0  0  0  0  0  0  0  0  # atno 17370 bound_to 10713
  157.4999  131.0918  151.0327 LP  0  0  0  0  0  0  0  0  0  0  0  0  # atno 17371 bound_to 10713
  140.6992  133.9321  155.8014 LP  0  0  0  0  0  0  0  0  0  0  0  0  # atno 17394 bound_to 11000
  141.0384  134.0656  157.3931 LP  0  0  0  0  0  0  0  0  0  0  0  0  # atno 17395 bound_to 11000

$$$$
