AV-unprocessed.smi:2288|AV-procd|sdf|9207|dock5
  -GOLD-   2272012423D 1   1.00000     0.00000
 Structure written by MMmdl.
 40 41  0  0  0  0  0  0  0  0  1 V2000
  152.9903  142.4871  162.9668 C   0  0  0  0  0  0  0  0  0  0  0  0
  152.7629  142.7453  161.4916 C   0  0  0  0  0  0  0  0  0  0  0  0
  152.4397  144.0394  161.0347 C   0  0  0  0  0  0  0  0  0  0  0  0
  152.2240  144.2728  159.6616 C   0  0  0  0  0  0  0  0  0  0  0  0
  151.8736  145.6652  159.1791 C   0  0  0  0  0  0  0  0  0  0  0  0
  152.3377  143.2086  158.7437 C   0  0  0  0  0  0  0  0  0  0  0  0
  152.6658  141.9116  159.1916 C   0  0  0  0  0  0  0  0  0  0  0  0
  152.7709  140.7715  158.1894 C   0  0  1  0  0  0  0  0  0  0  0  0
  153.7006  139.7934  158.6129 O   0  0  0  0  0  0  0  0  0  0  0  0
  151.3986  140.0937  157.9814 C   0  0  0  0  0  0  0  0  0  0  0  0
  150.7127  140.5761  156.7707 N   0  0  0  0  0  0  0  0  0  0  0  0
  151.3646  140.3382  155.5497 C   0  0  0  0  0  0  0  0  0  0  0  0
  150.8534  140.7126  154.4226 N   0  0  0  0  0  0  0  0  0  0  0  0
  149.6227  141.3752  154.4012 C   0  0  0  0  0  0  0  0  0  0  0  0
  149.1126  141.7669  153.0256 C   0  0  0  0  0  0  0  0  0  0  0  0
  148.9435  141.6426  155.5499 C   0  0  0  0  0  0  0  0  0  0  0  0
  147.6007  142.3618  155.5879 C   0  0  0  0  0  0  0  0  0  0  0  0
  149.5150  141.2259  156.8407 C   0  0  0  0  0  0  0  0  0  0  0  0
  148.9597  141.4447  157.9194 O   0  0  0  0  0  0  0  0  0  0  0  0
  152.8731  141.6847  160.5700 C   0  0  0  0  0  0  0  0  0  0  0  0
  152.9057  143.4047  163.5499 H   0  0  0  0  0  0  0  0  0  0  0  0
  153.9853  142.0720  163.1286 H   0  0  0  0  0  0  0  0  0  0  0  0
  152.2553  141.7753  163.3431 H   0  0  0  0  0  0  0  0  0  0  0  0
  152.3542  144.8559  161.7370 H   0  0  0  0  0  0  0  0  0  0  0  0
  151.5287  145.6518  158.1447 H   0  0  0  0  0  0  0  0  0  0  0  0
  152.7461  146.3158  159.2412 H   0  0  0  0  0  0  0  0  0  0  0  0
  151.0811  146.0931  159.7938 H   0  0  0  0  0  0  0  0  0  0  0  0
  152.1693  143.3867  157.6914 H   0  0  0  0  0  0  0  0  0  0  0  0
  153.1363  141.1826  157.2475 H   0  0  0  0  0  0  0  0  0  0  0  0
  153.5117  139.5719  159.5122 H   0  0  0  0  0  0  0  0  0  0  0  0
  151.5012  139.0065  157.9989 H   0  0  0  0  0  0  0  0  0  0  0  0
  150.7576  140.3146  158.8374 H   0  0  0  0  0  0  0  0  0  0  0  0
  152.3242  139.8233  155.6215 H   0  0  0  0  0  0  0  0  0  0  0  0
  148.1568  141.2838  152.8208 H   0  0  0  0  0  0  0  0  0  0  0  0
  149.8119  141.4700  152.2430 H   0  0  0  0  0  0  0  0  0  0  0  0
  148.9793  142.8471  152.9611 H   0  0  0  0  0  0  0  0  0  0  0  0
  147.6845  143.2832  156.1654 H   0  0  0  0  0  0  0  0  0  0  0  0
  146.8495  141.7309  156.0641 H   0  0  0  0  0  0  0  0  0  0  0  0
  147.2268  142.6262  154.6003 H   0  0  0  0  0  0  0  0  0  0  0  0
  153.1153  140.6930  160.9245 H   0  0  0  0  0  0  0  0  0  0  0  0
  1  2  1  0  0  0  0
  1 21  1  0  0  0  0
  1 22  1  0  0  0  0
  1 23  1  0  0  0  0
  2 20  1  0  0  0  0
  2  3  2  0  0  0  0
  3  4  1  0  0  0  0
  3 24  1  0  0  0  0
  4  5  1  0  0  0  0
  4  6  2  0  0  0  0
  5 25  1  0  0  0  0
  5 26  1  0  0  0  0
  5 27  1  0  0  0  0
  6  7  1  0  0  0  0
  6 28  1  0  0  0  0
  7  8  1  0  0  0  0
  7 20  2  0  0  0  0
  8  9  1  0  0  0  0
  8 10  1  0  0  0  0
  8 29  1  0  0  0  0
  9 30  1  0  0  0  0
 10 11  1  0  0  0  0
 10 31  1  0  0  0  0
 10 32  1  0  0  0  0
 11 18  1  0  0  0  0
 11 12  1  0  0  0  0
 12 13  2  0  0  0  0
 12 33  1  0  0  0  0
 13 14  1  0  0  0  0
 14 15  1  0  0  0  0
 14 16  2  0  0  0  0
 15 34  1  0  0  0  0
 15 35  1  0  0  0  0
 15 36  1  0  0  0  0
 16 17  1  0  0  0  0
 16 18  1  0  0  0  0
 17 37  1  0  0  0  0
 17 38  1  0  0  0  0
 17 39  1  0  0  0  0
 18 19  2  0  0  0  0
 20 40  1  0  0  0  0
M  END
> <s_m_source_file>
AV-unprocessed.smi

> <i_m_source_file_index>
2288

> <i_lp_mmshare_version>
43012

> <i_f3d_flags>
0

> <s_epik_input>
W0NIM11jMVtjSF1jKFtDSDNdKVtjSF1jKFtjSF0xKVtDQEhdKFtPSF0pW0NIMl1uMltjSF1uYyhbQ0gzXSljKFtDSDNdKWMyPU8=

> <s_epik_cmdline>
J2VwaWtfcHl0aG9uJywgJy1waCcsICc3LjAnLCAnLXRuJywgJzgnLCAnLW1hJywgJzIwMCcsICctbWV0YWxfYmluZGluZycsICctaW1hZScsICc8aW5maWxlLm1hZT4nLCAnLW9tYWUnLCAnPG91dGZpbGUubWFlPic=

> <r_lp_tautomer_probability>
1

> <r_epik_Ionization_Penalty>
5.07027e-05

> <r_epik_Ionization_Penalty_Charging>
7.56727e-08

> <r_epik_Ionization_Penalty_Neutral>
5.06271e-05

> <r_epik_State_Penalty>
-0

> <r_epik_Charging_Adjusted_Penalty>
7.56727e-08

> <i_epik_Tot_Q>
0

> <i_epik_Tot_abs_Q>
0

> <r_epik_Metal_State_Penalty>
-0

> <b_epik_Metal_Only>
0

> <s_lp_Force_Field>
OPLS_2005

> <r_lp_Energy>
19.2499

> <b_lp_Chiralities_Consistent>
1

> <s_lp_Variant>
AV-unprocessed.smi:2288-2

> <Gold.Version>
5.8.1

> <Gold.Id.Protein>
6NUR|6NUR_protein|mol2

> <Gold.PLP.Fitness>
47.9190

> <Gold.PLP.PLP>
-44.6619

> <Gold.PLP.part.hbond>
-3.3259

> <Gold.PLP.part.metal>
0.0000

> <Gold.PLP.part.buried>
-1.8439

> <Gold.PLP.part.nonpolar>
-37.8615

> <Gold.PLP.part.repulsive>
0.1143

> <Gold.PLP.ligand.clash>
0.0000

> <Gold.PLP.ligand.torsion>
1.3140

> <Gold.PLP.Chemscore.Hbond>
1.9600

> <Gold.PLP.Chemscore.CHOScore>
0.0000

> <Gold.PLP.Chemscore.Metal>
0.0000

> <Gold.Chemscore.Hbonds>
donor molecule, donor type, donor heavy atom, donor atom, acceptor molecule, acceptor atom, score
      P1  H  7989  7998       L1    13  0.20
      P1  H  7997  8010       L1     9  0.65

> <Gold.PLP.Chemscore.Internal.Correction>
0.0050

> <Gold.Rescore>
     Score         DG    S(hbond)    S(metal)    S(lipo)     H(rot)  DE(clash)    DE(int)     intcor
     16.29     -17.50       0.77        0.00     122.22       1.89       0.06       1.15       ----

> <Gold.Chemscore.Fitness>
16.2850

> <Gold.Chemscore.DG>
-17.4973

> <Gold.Chemscore.ZeroCoef>
-5.4800

> <Gold.Chemscore.Hbond>
0.7657

> <Gold.Chemscore.Metal>
0.0000

> <Gold.Chemscore.Lipo>
122.2230

> <Gold.Chemscore.Internal_Hbond>
0.0000

> <Gold.Chemscore.DEClash>
0.0630

> <Gold.Chemscore.DEInternal>
1.1493

> <Gold.Chemscore.Rot>
1.8907

> <Gold.Chemscore.Internal.Correction>
   9.000000E+99

> <Gold.Chemscore.Hbonds>
donor molecule, donor type, donor heavy atom, donor atom, acceptor molecule, acceptor atom, score
      P1  H  7989  7998       L1    13  0.17
      P1  H  7997  8010       L1     9  0.06

> <Gold.Chemscore.Hbond.Weighted>
-2.5573

> <Gold.Chemscore.Metal.Weighted>
-0.0000

> <Gold.Chemscore.Lipo.Weighted>
-14.3001

> <Gold.Chemscore.Internal_Hbond.Weighted>
0.0000

> <Gold.Chemscore.DEClash.Weighted>
0.0630

> <Gold.Chemscore.DEInternal.Weighted>
1.1493

> <Gold.Chemscore.Rot.Weighted>
4.8401

> <Gold.Chemscore.Internal.Correction.Weighted>
   9.000000E+99

> <Gold.Protein.RotatedTorsions>
[ 6907 6896 6895 6894 ] final   77.58 input  -60.11 | X-H torsion
[ 7974 7965 7964 7962 ] final  142.55 input  175.53 | X-H torsion
[ 8008 7997 7996 7995 ] final   23.25 input   59.86 | X-H torsion
[ 10167 10162 10161 10158 ] final  -26.07 input  -65.29 | X-H torsion
[ 10718 10713 10712 10709 ] final -147.90 input   66.30 | X-H torsion
[ 10763 10752 10751 10750 ] final  -21.76 input  -60.55 | X-H torsion
[ 11005 11000 10999 10996 ] final  141.88 input  -57.11 | X-H torsion

> <Gold.Protein.ActiveResidues>
 VAL166  LYS551  ARG553  GLY616  TRP617  ASP618  TYR619  PRO620  LYS621  CYS622 
 ASP623  PHE694  ASN695  SER759  ASP760  ASP761  ALA762  ILE779  LEU786  VAL792 
 PHE793  MET794  SER795  GLU796  ALA797  LYS798  CYS799  TRP800  GLU811  SER814 

> <Gold.Protein.RotatedAtoms>
  152.5124  134.3795  159.9345 H   0  0  0  0  0  0  0  0  0  0  0  0  # atno 6907 bound_to 6896
  151.3751  133.3834  159.2711 H   0  0  0  0  0  0  0  0  0  0  0  0  # atno 6908 bound_to 6896
  150.9547  134.8963  159.7752 H   0  0  0  0  0  0  0  0  0  0  0  0  # atno 6909 bound_to 6896
  144.8998  139.5440  143.5759 H   0  0  0  0  0  0  0  0  0  0  0  0  # atno 7974 bound_to 7965
  154.9781  140.3098  155.4958 H   0  0  0  0  0  0  0  0  0  0  0  0  # atno 8008 bound_to 7997
  156.2957  140.2271  156.4817 H   0  0  0  0  0  0  0  0  0  0  0  0  # atno 8009 bound_to 7997
  154.7815  140.0445  157.1119 H   0  0  0  0  0  0  0  0  0  0  0  0  # atno 8010 bound_to 7997
  140.7284  143.4210  151.0952 H   0  0  0  0  0  0  0  0  0  0  0  0  # atno 10167 bound_to 10162
  156.4134  130.7993  151.2212 H   0  0  0  0  0  0  0  0  0  0  0  0  # atno 10718 bound_to 10713
  153.6412  135.6985  153.5241 H   0  0  0  0  0  0  0  0  0  0  0  0  # atno 10763 bound_to 10752
  153.2781  135.4194  155.1051 H   0  0  0  0  0  0  0  0  0  0  0  0  # atno 10764 bound_to 10752
  154.8499  135.3595  154.5956 H   0  0  0  0  0  0  0  0  0  0  0  0  # atno 10765 bound_to 10752
  140.0435  134.9293  157.0886 H   0  0  0  0  0  0  0  0  0  0  0  0  # atno 11005 bound_to 11000
  146.3102  139.7718  142.9026 LP  0  0  0  0  0  0  0  0  0  0  0  0  # atno 17320 bound_to 7965
  145.3637  141.0330  143.3270 LP  0  0  0  0  0  0  0  0  0  0  0  0  # atno 17321 bound_to 7965
  139.7855  143.8293  152.3144 LP  0  0  0  0  0  0  0  0  0  0  0  0  # atno 17342 bound_to 10162
  139.8259  144.7275  150.9512 LP  0  0  0  0  0  0  0  0  0  0  0  0  # atno 17343 bound_to 10162
  157.7507  131.0250  150.3902 LP  0  0  0  0  0  0  0  0  0  0  0  0  # atno 17370 bound_to 10713
  156.4205  130.3952  149.6828 LP  0  0  0  0  0  0  0  0  0  0  0  0  # atno 17371 bound_to 10713
  140.4031  134.2061  155.7163 LP  0  0  0  0  0  0  0  0  0  0  0  0  # atno 17394 bound_to 11000
  141.1895  133.8237  157.0954 LP  0  0  0  0  0  0  0  0  0  0  0  0  # atno 17395 bound_to 11000

$$$$
