AV-unprocessed.smi:3221|AV-procd|sdf|12301|dock2
  -GOLD-   2272018143D 1   1.00000     0.00000
 Structure written by MMmdl.
 27 28  0  0  0  0  0  0  0  0  2 V2000
  152.3955  143.4267  159.5559 F   0  0  0  0  0  0  0  0  0  0  0  0
  151.6165  143.5625  158.4829 C   0  0  0  0  0  0  0  0  0  0  0  0
  150.4578  144.0801  158.8903 F   0  0  0  0  0  0  0  0  0  0  0  0
  152.1958  144.4503  157.6751 F   0  0  0  0  0  0  0  0  0  0  0  0
  151.4052  142.2509  157.7832 C   0  0  0  0  0  0  0  0  0  0  0  0
  151.9077  141.0248  158.1449 C   0  0  0  0  0  0  0  0  0  0  0  0
  151.4048  139.7640  157.0529 S   0  0  0  0  0  0  0  0  0  0  0  0
  150.5123  140.9646  156.1263 C   0  0  0  0  0  0  0  0  0  0  0  0
  149.7214  140.6327  154.9008 C   0  0  2  0  0  0  0  0  0  0  0  0
  148.2553  141.0937  155.0018 C   0  0  0  0  0  0  0  0  0  0  0  0
  147.4887  140.7293  153.7209 C   0  0  0  0  0  0  0  0  0  0  0  0
  147.6284  139.2310  153.4040 C   0  0  0  0  0  0  0  0  0  0  0  0
  149.0536  138.8507  153.2937 N   0  3  0  0  0  0  0  0  0  0  0  0
  149.8274  139.1418  154.5208 C   0  0  0  0  0  0  0  0  0  0  0  0
  150.6156  142.1982  156.6292 N   0  0  0  0  0  0  0  0  0  0  0  0
  152.5412  140.7876  158.9869 H   0  0  0  0  0  0  0  0  0  0  0  0
  150.1741  141.1989  154.0852 H   0  0  0  0  0  0  0  0  0  0  0  0
  147.7744  140.6204  155.8589 H   0  0  0  0  0  0  0  0  0  0  0  0
  148.2066  142.1699  155.1713 H   0  0  0  0  0  0  0  0  0  0  0  0
  146.4359  140.9916  153.8292 H   0  0  0  0  0  0  0  0  0  0  0  0
  147.8692  141.3183  152.8852 H   0  0  0  0  0  0  0  0  0  0  0  0
  147.1554  138.6319  154.1834 H   0  0  0  0  0  0  0  0  0  0  0  0
  147.1232  138.9931  152.4676 H   0  0  0  0  0  0  0  0  0  0  0  0
  149.1153  137.8623  153.0949 H   0  0  0  0  0  0  0  0  0  0  0  0
  150.8685  138.8628  154.3559 H   0  0  0  0  0  0  0  0  0  0  0  0
  149.4527  138.5130  155.3300 H   0  0  0  0  0  0  0  0  0  0  0  0
  149.4640  139.3632  152.5261 H   0  0  0  0  0  0  0  0  0  0  0  0
  1  2  1  0  0  0  0
  2  3  1  0  0  0  0
  2  4  1  0  0  0  0
  2  5  1  0  0  0  0
  5 15  1  0  0  0  0
  5  6  2  0  0  0  0
  6  7  1  0  0  0  0
  6 16  1  0  0  0  0
  7  8  1  0  0  0  0
  8  9  1  0  0  0  0
  8 15  2  0  0  0  0
  9 14  1  0  0  0  0
  9 10  1  0  0  0  0
  9 17  1  0  0  0  0
 10 11  1  0  0  0  0
 10 18  1  0  0  0  0
 10 19  1  0  0  0  0
 11 12  1  0  0  0  0
 11 20  1  0  0  0  0
 11 21  1  0  0  0  0
 12 13  1  0  0  0  0
 12 22  1  0  0  0  0
 12 23  1  0  0  0  0
 13 14  1  0  0  0  0
 13 24  1  0  0  0  0
 13 27  1  0  0  0  0
 14 25  1  0  0  0  0
 14 26  1  0  0  0  0
M  CHG  1  13   1
M  END
> <s_m_source_file>
AV-unprocessed.smi

> <i_m_source_file_index>
3221

> <i_lp_mmshare_version>
43012

> <i_f3d_flags>
0

> <s_epik_input>
RkMoRikoRiljMVtjSF1zYyhuMSlbQ0BASF0yW0NIMl1bQ0gyXVtDSDJdW05IXVtDSDJdMg==

> <s_epik_cmdline>
J2VwaWtfcHl0aG9uJywgJy1waCcsICc3LjAnLCAnLXRuJywgJzgnLCAnLW1hJywgJzIwMCcsICctbWV0YWxfYmluZGluZycsICctaW1hZScsICc8aW5maWxlLm1hZT4nLCAnLW9tYWUnLCAnPG91dGZpbGUubWFlPic=

> <r_epik_Ionization_Penalty>
0.000426856

> <r_epik_Ionization_Penalty_Charging>
0.000426856

> <r_epik_Ionization_Penalty_Neutral>
2.38238e-11

> <r_epik_State_Penalty>
0.00026276

> <r_epik_Charging_Adjusted_Penalty>
0.000689616

> <i_epik_Tot_Q>
1

> <i_epik_Tot_abs_Q>
1

> <r_epik_Metal_State_Penalty>
-0

> <b_epik_Metal_Only>
0

> <s_lp_Force_Field>
OPLS_2005

> <r_lp_Energy>
6.82196

> <b_lp_Chiralities_Consistent>
1

> <s_lp_Variant>
AV-unprocessed.smi:3221-1

> <Gold.Version>
5.8.1

> <Gold.Id.Protein>
6NUR|6NUR_protein|mol2

> <Gold.PLP.Fitness>
43.5364

> <Gold.PLP.PLP>
-34.5698

> <Gold.PLP.part.hbond>
-1.8882

> <Gold.PLP.part.metal>
0.0000

> <Gold.PLP.part.buried>
-4.1321

> <Gold.PLP.part.nonpolar>
-29.9022

> <Gold.PLP.part.repulsive>
0.2067

> <Gold.PLP.ligand.clash>
0.0000

> <Gold.PLP.ligand.torsion>
0.0302

> <Gold.PLP.Chemscore.Hbond>
2.9913

> <Gold.PLP.Chemscore.CHOScore>
0.0000

> <Gold.PLP.Chemscore.Metal>
0.0000

> <Gold.Chemscore.Hbonds>
donor molecule, donor type, donor heavy atom, donor atom, acceptor molecule, acceptor atom, score
      L1  H    13    24       P1  7948  2.00
      L1  H    13    27       P1  7957  0.99

> <Gold.PLP.Chemscore.Internal.Correction>
0.0532

> <Gold.Rescore>
     Score         DG    S(hbond)    S(metal)    S(lipo)     H(rot)  DE(clash)    DE(int)     intcor
     17.59     -17.64       1.91        0.00      71.35       1.00       0.02       0.03       ----

> <Gold.Chemscore.Fitness>
17.5856

> <Gold.Chemscore.DG>
-17.6366

> <Gold.Chemscore.ZeroCoef>
-5.4800

> <Gold.Chemscore.Hbond>
1.9069

> <Gold.Chemscore.Metal>
0.0000

> <Gold.Chemscore.Lipo>
71.3475

> <Gold.Chemscore.Internal_Hbond>
0.0000

> <Gold.Chemscore.DEClash>
0.0207

> <Gold.Chemscore.DEInternal>
0.0302

> <Gold.Chemscore.Rot>
1.0000

> <Gold.Chemscore.Internal.Correction>
   9.000000E+99

> <Gold.Chemscore.Hbonds>
donor molecule, donor type, donor heavy atom, donor atom, acceptor molecule, acceptor atom, score
      L1  H    13    24       P1  7948  0.90
      L1  H    13    27       P1  7957  0.92

> <Gold.Chemscore.Hbond.Weighted>
-6.3690

> <Gold.Chemscore.Metal.Weighted>
-0.0000

> <Gold.Chemscore.Lipo.Weighted>
-8.3477

> <Gold.Chemscore.Internal_Hbond.Weighted>
0.0000

> <Gold.Chemscore.DEClash.Weighted>
0.0207

> <Gold.Chemscore.DEInternal.Weighted>
0.0302

> <Gold.Chemscore.Rot.Weighted>
2.5600

> <Gold.Chemscore.Internal.Correction.Weighted>
   9.000000E+99

> <Gold.Protein.RotatedTorsions>
[ 6907 6896 6895 6894 ] final  -12.24 input  -60.11 | X-H torsion
[ 7974 7965 7964 7962 ] final  146.16 input  175.53 | X-H torsion
[ 8008 7997 7996 7995 ] final   22.66 input   59.86 | X-H torsion
[ 10167 10162 10161 10158 ] final  108.68 input  -65.29 | X-H torsion
[ 10718 10713 10712 10709 ] final -101.46 input   66.30 | X-H torsion
[ 10763 10752 10751 10750 ] final   35.58 input  -60.55 | X-H torsion
[ 11005 11000 10999 10996 ] final  -67.28 input  -57.11 | X-H torsion

> <Gold.Protein.ActiveResidues>
 VAL166  LYS551  ARG553  GLY616  TRP617  ASP618  TYR619  PRO620  LYS621  CYS622 
 ASP623  PHE694  ASN695  SER759  ASP760  ASP761  ALA762  ILE779  LEU786  VAL792 
 PHE793  MET794  SER795  GLU796  ALA797  LYS798  CYS799  TRP800  GLU811  SER814 

> <Gold.Protein.RotatedAtoms>
  151.3737  135.0927  159.9473 H   0  0  0  0  0  0  0  0  0  0  0  0  # atno 6907 bound_to 6896
  152.5128  133.9140  159.7512 H   0  0  0  0  0  0  0  0  0  0  0  0  # atno 6908 bound_to 6896
  150.9559  133.6443  159.2792 H   0  0  0  0  0  0  0  0  0  0  0  0  # atno 6909 bound_to 6896
  144.8693  139.5871  143.5894 H   0  0  0  0  0  0  0  0  0  0  0  0  # atno 7974 bound_to 7965
  154.9691  140.3088  155.4996 H   0  0  0  0  0  0  0  0  0  0  0  0  # atno 8008 bound_to 7997
  156.2968  140.2287  156.4721 H   0  0  0  0  0  0  0  0  0  0  0  0  # atno 8009 bound_to 7997
  154.7894  140.0441  157.1177 H   0  0  0  0  0  0  0  0  0  0  0  0  # atno 8010 bound_to 7997
  139.6827  144.7116  151.1487 H   0  0  0  0  0  0  0  0  0  0  0  0  # atno 10167 bound_to 10162
  156.0195  130.5375  150.6967 H   0  0  0  0  0  0  0  0  0  0  0  0  # atno 10718 bound_to 10713
  153.0113  135.6329  154.1849 H   0  0  0  0  0  0  0  0  0  0  0  0  # atno 10763 bound_to 10752
  154.1591  135.2824  155.3115 H   0  0  0  0  0  0  0  0  0  0  0  0  # atno 10764 bound_to 10752
  154.5995  135.5592  153.7420 H   0  0  0  0  0  0  0  0  0  0  0  0  # atno 10765 bound_to 10752
  141.1504  133.6716  156.6269 H   0  0  0  0  0  0  0  0  0  0  0  0  # atno 11005 bound_to 11000
  146.2919  139.7163  142.9155 LP  0  0  0  0  0  0  0  0  0  0  0  0  # atno 17320 bound_to 7965
  145.4160  141.0401  143.2990 LP  0  0  0  0  0  0  0  0  0  0  0  0  # atno 17321 bound_to 7965
  140.7657  143.5675  150.9031 LP  0  0  0  0  0  0  0  0  0  0  0  0  # atno 17342 bound_to 10162
  139.9348  143.6451  152.3068 LP  0  0  0  0  0  0  0  0  0  0  0  0  # atno 17343 bound_to 10162
  157.4636  131.0886  151.0719 LP  0  0  0  0  0  0  0  0  0  0  0  0  # atno 17370 bound_to 10713
  157.1199  130.6057  149.5502 LP  0  0  0  0  0  0  0  0  0  0  0  0  # atno 17371 bound_to 10713
  140.3497  134.7779  157.4458 LP  0  0  0  0  0  0  0  0  0  0  0  0  # atno 17394 bound_to 11000
  140.0871  134.5652  155.8481 LP  0  0  0  0  0  0  0  0  0  0  0  0  # atno 17395 bound_to 11000

$$$$
