AV-unprocessed.smi:35|AV-procd|sdf|254|dock2
  -GOLD-   2262016 13D 1   1.00000     0.00000
 Structure written by MMmdl.
 29 30  0  0  0  0  0  0  0  0  1 V2000
  152.2253  137.0199  159.9154 O   0  0  0  0  0  0  0  0  0  0  0  0
  151.8112  137.5106  158.8673 C   0  0  0  0  0  0  0  0  0  0  0  0
  152.7078  138.0180  157.9229 N   0  0  0  0  0  0  0  0  0  0  0  0
  152.3569  138.5970  156.7019 C   0  0  0  0  0  0  0  0  0  0  0  0
  153.2307  139.0230  155.9477 O   0  0  0  0  0  0  0  0  0  0  0  0
  150.9805  138.6749  156.3927 N   0  0  0  0  0  0  0  0  0  0  0  0
  150.5751  139.2986  155.0694 C   0  0  1  0  0  0  0  0  0  0  0  0
  149.3773  138.7297  154.6262 O   0  0  0  0  0  0  0  0  0  0  0  0
  148.3112  139.6654  154.7568 C   0  0  2  0  0  0  0  0  0  0  0  0
  147.1453  139.3140  153.8172 C   0  0  0  0  0  0  0  0  0  0  0  0
  147.6434  138.7584  152.6193 O   0  0  0  0  0  0  0  0  0  0  0  0
  149.0000  141.0083  154.4867 C   0  0  2  0  0  0  0  0  0  0  0  0
  149.1602  141.2317  153.0972 O   0  0  0  0  0  0  0  0  0  0  0  0
  150.3560  140.8298  155.1566 C   0  0  1  0  0  0  0  0  0  0  0  0
  150.2981  141.3274  156.4830 O   0  0  0  0  0  0  0  0  0  0  0  0
  150.0515  138.1839  157.3028 C   0  0  0  0  0  0  0  0  0  0  0  0
  150.4085  137.6267  158.4839 C   0  0  0  0  0  0  0  0  0  0  0  0
  148.9342  136.9879  159.6428 Br  0  0  0  0  0  0  0  0  0  0  0  0
  153.6914  137.9631  158.1440 H   0  0  0  0  0  0  0  0  0  0  0  0
  151.3511  139.0138  154.3561 H   0  0  0  0  0  0  0  0  0  0  0  0
  147.9648  139.6717  155.7918 H   0  0  0  0  0  0  0  0  0  0  0  0
  146.5022  138.5656  154.2811 H   0  0  0  0  0  0  0  0  0  0  0  0
  146.5285  140.1867  153.6003 H   0  0  0  0  0  0  0  0  0  0  0  0
  148.1201  139.4289  152.1539 H   0  0  0  0  0  0  0  0  0  0  0  0
  148.4343  141.8457  154.8982 H   0  0  0  0  0  0  0  0  0  0  0  0
  149.1889  140.3950  152.6586 H   0  0  0  0  0  0  0  0  0  0  0  0
  151.1565  141.3495  154.6282 H   0  0  0  0  0  0  0  0  0  0  0  0
  149.9618  142.2103  156.4542 H   0  0  0  0  0  0  0  0  0  0  0  0
  148.9969  138.2376  157.0817 H   0  0  0  0  0  0  0  0  0  0  0  0
  1  2  2  0  0  0  0
  2 17  1  0  0  0  0
  2  3  1  0  0  0  0
  3 19  1  0  0  0  0
  3  4  1  0  0  0  0
  4  5  2  0  0  0  0
  4  6  1  0  0  0  0
  6  7  1  0  0  0  0
  6 16  1  0  0  0  0
  7 14  1  0  0  0  0
  7  8  1  0  0  0  0
  7 20  1  0  0  0  0
  8  9  1  0  0  0  0
  9 10  1  0  0  0  0
  9 12  1  0  0  0  0
  9 21  1  0  0  0  0
 10 11  1  0  0  0  0
 10 22  1  0  0  0  0
 10 23  1  0  0  0  0
 11 24  1  0  0  0  0
 12 13  1  0  0  0  0
 12 14  1  0  0  0  0
 12 25  1  0  0  0  0
 13 26  1  0  0  0  0
 14 15  1  0  0  0  0
 14 27  1  0  0  0  0
 15 28  1  0  0  0  0
 16 17  2  0  0  0  0
 16 29  1  0  0  0  0
 17 18  1  0  0  0  0
M  END
> <s_m_source_file>
AV-unprocessed.smi

> <i_m_source_file_index>
35

> <i_lp_mmshare_version>
43012

> <i_f3d_flags>
0

> <s_epik_input>
Tz1jMVtuSF1jKD1PKW4oW2NIXWMxQnIpW0NAQEhdMk9bQ0BASF0oW0NIMl1bT0hdKVtDQEBIXShbT0hdKVtDQEhdMltPSF0=

> <s_epik_cmdline>
J2VwaWtfcHl0aG9uJywgJy1waCcsICc3LjAnLCAnLXRuJywgJzgnLCAnLW1hJywgJzIwMCcsICctbWV0YWxfYmluZGluZycsICctaW1hZScsICc8aW5maWxlLm1hZT4nLCAnLW9tYWUnLCAnPG91dGZpbGUubWFlPic=

> <r_lp_tautomer_probability>
0.999537

> <r_epik_Ionization_Penalty>
0.10812

> <r_epik_Ionization_Penalty_Charging>
0.108119

> <r_epik_Ionization_Penalty_Neutral>
4.93006e-07

> <r_epik_State_Penalty>
0.0979238

> <r_epik_Charging_Adjusted_Penalty>
0.206043

> <i_epik_Tot_Q>
0

> <i_epik_Tot_abs_Q>
0

> <r_epik_Metal_State_Penalty>
3.07911

> <b_epik_Metal_Only>
0

> <s_epik_Chemistry_Notes>
This compound contains an acetal/aminal-like group ( X-CH(R)-Y where X, Y are N, S, or O) that may be acid/base labile, releasing an aldehyde.

> <s_lp_Force_Field>
OPLS_2005

> <r_lp_Energy>
33.5115

> <b_lp_Chiralities_Consistent>
1

> <s_lp_Variant>
AV-unprocessed.smi:35-8

> <Gold.Version>
5.8.1

> <Gold.Id.Protein>
6NUR|6NUR_protein|mol2

> <Gold.PLP.Fitness>
36.2557

> <Gold.PLP.PLP>
-24.3661

> <Gold.PLP.part.hbond>
-6.2768

> <Gold.PLP.part.metal>
0.0000

> <Gold.PLP.part.buried>
-4.0073

> <Gold.PLP.part.nonpolar>
-14.8769

> <Gold.PLP.part.repulsive>
0.2726

> <Gold.PLP.ligand.clash>
0.0000

> <Gold.PLP.ligand.torsion>
1.0096

> <Gold.PLP.Chemscore.Hbond>
4.6153

> <Gold.PLP.Chemscore.CHOScore>
0.0000

> <Gold.PLP.Chemscore.Metal>
0.0000

> <Gold.Chemscore.Hbonds>
donor molecule, donor type, donor heavy atom, donor atom, acceptor molecule, acceptor atom, score
      L1  H    11    24       P1  7957  1.00
      L1  H    13    26       P1  7957  0.59
      P1  H  6896  6909       L1     1  1.00
      P1  H  7997  8009       L1     5  1.00
      P1  H  8011  8017       L1    13  1.00

> <Gold.PLP.Chemscore.Internal.Correction>
0.0631

> <Gold.Rescore>
     Score         DG    S(hbond)    S(metal)    S(lipo)     H(rot)  DE(clash)    DE(int)     intcor
     13.13     -14.79       4.35        0.00      35.64       3.67       0.65       1.01       ----

> <Gold.Chemscore.Fitness>
13.1264

> <Gold.Chemscore.DG>
-14.7931

> <Gold.Chemscore.ZeroCoef>
-5.4800

> <Gold.Chemscore.Hbond>
4.3528

> <Gold.Chemscore.Metal>
0.0000

> <Gold.Chemscore.Lipo>
35.6425

> <Gold.Chemscore.Internal_Hbond>
0.0000

> <Gold.Chemscore.DEClash>
0.6535

> <Gold.Chemscore.DEInternal>
1.0132

> <Gold.Chemscore.Rot>
3.6701

> <Gold.Chemscore.Internal.Correction>
   9.000000E+99

> <Gold.Chemscore.Hbonds>
donor molecule, donor type, donor heavy atom, donor atom, acceptor molecule, acceptor atom, score
      L1  H    11    24       P1  7957  0.96
      L1  H    13    26       P1  7957  0.57
      P1  H  6896  6909       L1     1  0.85
      P1  H  7997  8009       L1     5  0.97
      P1  H  8011  8017       L1    13  0.85

> <Gold.Chemscore.Hbond.Weighted>
-14.5384

> <Gold.Chemscore.Metal.Weighted>
-0.0000

> <Gold.Chemscore.Lipo.Weighted>
-4.1702

> <Gold.Chemscore.Internal_Hbond.Weighted>
0.0000

> <Gold.Chemscore.DEClash.Weighted>
0.6535

> <Gold.Chemscore.DEInternal.Weighted>
1.0132

> <Gold.Chemscore.Rot.Weighted>
9.3955

> <Gold.Chemscore.Internal.Correction.Weighted>
   9.000000E+99

> <Gold.Protein.RotatedTorsions>
[ 6907 6896 6895 6894 ] final  139.68 input  -60.11 | X-H torsion
[ 7974 7965 7964 7962 ] final  168.15 input  175.53 | X-H torsion
[ 8008 7997 7996 7995 ] final -150.35 input   59.86 | X-H torsion
[ 10167 10162 10161 10158 ] final -161.69 input  -65.29 | X-H torsion
[ 10718 10713 10712 10709 ] final -153.68 input   66.30 | X-H torsion
[ 10763 10752 10751 10750 ] final  114.50 input  -60.55 | X-H torsion
[ 11005 11000 10999 10996 ] final  -30.20 input  -57.11 | X-H torsion

> <Gold.Protein.ActiveResidues>
 VAL166  LYS551  ARG553  GLY616  TRP617  ASP618  TYR619  PRO620  LYS621  CYS622 
 ASP623  PHE694  ASN695  SER759  ASP760  ASP761  ALA762  ILE779  LEU786  VAL792 
 PHE793  MET794  SER795  GLU796  ALA797  LYS798  CYS799  TRP800  GLU811  SER814 

> <Gold.Protein.RotatedAtoms>
  152.2520  133.5223  159.5330 H   0  0  0  0  0  0  0  0  0  0  0  0  # atno 6907 bound_to 6896
  150.7097  134.0946  159.3953 H   0  0  0  0  0  0  0  0  0  0  0  0  # atno 6908 bound_to 6896
  151.8866  135.0433  160.0544 H   0  0  0  0  0  0  0  0  0  0  0  0  # atno 6909 bound_to 6896
  144.7399  139.8865  143.6400 H   0  0  0  0  0  0  0  0  0  0  0  0  # atno 7974 bound_to 7965
  155.6221  140.0682  157.2675 H   0  0  0  0  0  0  0  0  0  0  0  0  # atno 8008 bound_to 7997
  154.4226  140.1782  156.1431 H   0  0  0  0  0  0  0  0  0  0  0  0  # atno 8009 bound_to 7997
  156.0001  140.3337  155.6840 H   0  0  0  0  0  0  0  0  0  0  0  0  # atno 8010 bound_to 7997
  139.6447  144.0194  152.2118 H   0  0  0  0  0  0  0  0  0  0  0  0  # atno 10167 bound_to 10162
  156.4890  130.8338  151.2562 H   0  0  0  0  0  0  0  0  0  0  0  0  # atno 10718 bound_to 10713
  153.5082  135.3623  155.2573 H   0  0  0  0  0  0  0  0  0  0  0  0  # atno 10763 bound_to 10752
  154.8743  135.4016  154.3399 H   0  0  0  0  0  0  0  0  0  0  0  0  # atno 10764 bound_to 10752
  153.4048  135.7076  153.6467 H   0  0  0  0  0  0  0  0  0  0  0  0  # atno 10765 bound_to 10752
  140.9362  133.7307  156.1008 H   0  0  0  0  0  0  0  0  0  0  0  0  # atno 11005 bound_to 11000
  146.1173  139.4186  143.0250 LP  0  0  0  0  0  0  0  0  0  0  0  0  # atno 17320 bound_to 7965
  145.7356  141.0027  143.1328 LP  0  0  0  0  0  0  0  0  0  0  0  0  # atno 17321 bound_to 7965
  139.9893  144.6373  150.7829 LP  0  0  0  0  0  0  0  0  0  0  0  0  # atno 17342 bound_to 10162
  140.7508  143.2962  151.3198 LP  0  0  0  0  0  0  0  0  0  0  0  0  # atno 17343 bound_to 10162
  157.7476  131.0020  150.2983 LP  0  0  0  0  0  0  0  0  0  0  0  0  # atno 17370 bound_to 10713
  156.3445  130.3821  149.7381 LP  0  0  0  0  0  0  0  0  0  0  0  0  # atno 17371 bound_to 10713
  140.7796  134.3741  157.5490 LP  0  0  0  0  0  0  0  0  0  0  0  0  # atno 17394 bound_to 11000
  139.8808  134.9073  156.2942 LP  0  0  0  0  0  0  0  0  0  0  0  0  # atno 17395 bound_to 11000

$$$$
