AV-unprocessed.smi:1247|AV-procd|sdf|5248|dock8
  -GOLD-   22720 4363D 1   1.00000     0.00000
 Structure written by MMmdl.
 47 48  0  0  0  0  0  0  0  0  2 V2000
  151.7770  141.5846  157.7926 C   0  0  0  0  0  0  0  0  0  0  0  0
  151.4319  140.6885  156.6398 C   0  0  0  0  0  0  0  0  0  0  0  0
  150.1945  140.5989  155.9385 C   0  0  0  0  0  0  0  0  0  0  0  0
  150.4481  139.6344  155.0017 C   0  0  0  0  0  0  0  0  0  0  0  0
  149.6200  139.1304  154.0480 N   0  0  0  0  0  0  0  0  0  0  0  0
  148.3241  139.4136  153.8275 C   0  0  0  0  0  0  0  0  0  0  0  0
  147.6436  140.2055  154.4802 O   0  0  0  0  0  0  0  0  0  0  0  0
  147.8419  138.7166  152.7883 N   0  0  0  0  0  0  0  0  0  0  0  0
  146.4761  138.8167  152.2868 C   0  0  0  0  0  0  0  0  0  0  0  0
  146.1768  137.7322  151.2340 C   0  0  0  0  0  0  0  0  0  0  0  0
  146.1632  136.3693  151.8209 N   0  3  1  0  0  0  0  0  0  0  0  0
  145.4285  136.3107  153.1056 C   0  0  0  0  0  0  0  0  0  0  0  0
  145.5329  134.9037  153.7212 C   0  0  1  0  0  0  0  0  0  0  0  0
  144.7137  134.7776  155.0104 C   0  0  0  0  0  0  0  0  0  0  0  0
  145.0386  133.9423  152.7925 O   0  0  0  0  0  0  0  0  0  0  0  0
  145.7017  133.9327  151.5285 C   0  0  2  0  0  0  0  0  0  0  0  0
  147.1233  133.3500  151.6191 C   0  0  0  0  0  0  0  0  0  0  0  0
  145.6506  135.3342  150.8890 C   0  0  0  0  0  0  0  0  0  0  0  0
  151.7467  139.1998  155.1512 N   0  0  0  0  0  0  0  0  0  0  0  0
  152.4762  138.1949  154.4023 C   0  0  0  0  0  0  0  0  0  0  0  0
  152.3502  139.8526  156.1681 N   0  0  0  0  0  0  0  0  0  0  0  0
  150.9365  142.2264  158.0578 H   0  0  0  0  0  0  0  0  0  0  0  0
  152.6221  142.2291  157.5500 H   0  0  0  0  0  0  0  0  0  0  0  0
  152.0418  141.0035  158.6761 H   0  0  0  0  0  0  0  0  0  0  0  0
  149.2877  141.1584  156.1115 H   0  0  0  0  0  0  0  0  0  0  0  0
  150.0422  138.4568  153.4260 H   0  0  0  0  0  0  0  0  0  0  0  0
  148.4642  138.0858  152.3039 H   0  0  0  0  0  0  0  0  0  0  0  0
  145.7833  138.7621  153.1270 H   0  0  0  0  0  0  0  0  0  0  0  0
  146.3486  139.8058  151.8460 H   0  0  0  0  0  0  0  0  0  0  0  0
  145.2000  137.9468  150.7979 H   0  0  0  0  0  0  0  0  0  0  0  0
  146.8937  137.7685  150.4122 H   0  0  0  0  0  0  0  0  0  0  0  0
  145.8412  137.0430  153.8008 H   0  0  0  0  0  0  0  0  0  0  0  0
  144.3832  136.5785  152.9407 H   0  0  0  0  0  0  0  0  0  0  0  0
  146.5738  134.6840  153.9602 H   0  0  0  0  0  0  0  0  0  0  0  0
  145.0569  135.4856  155.7650 H   0  0  0  0  0  0  0  0  0  0  0  0
  144.8019  133.7758  155.4314 H   0  0  0  0  0  0  0  0  0  0  0  0
  143.6559  134.9690  154.8272 H   0  0  0  0  0  0  0  0  0  0  0  0
  145.1268  133.2580  150.8933 H   0  0  0  0  0  0  0  0  0  0  0  0
  147.5514  133.2201  150.6248 H   0  0  0  0  0  0  0  0  0  0  0  0
  147.1118  132.3723  152.1015 H   0  0  0  0  0  0  0  0  0  0  0  0
  147.8005  133.9928  152.1807 H   0  0  0  0  0  0  0  0  0  0  0  0
  144.6194  135.5746  150.6247 H   0  0  0  0  0  0  0  0  0  0  0  0
  146.2178  135.3323  149.9588 H   0  0  0  0  0  0  0  0  0  0  0  0
  152.3110  138.3378  153.3340 H   0  0  0  0  0  0  0  0  0  0  0  0
  152.1278  137.2022  154.6887 H   0  0  0  0  0  0  0  0  0  0  0  0
  153.5458  138.2685  154.6040 H   0  0  0  0  0  0  0  0  0  0  0  0
  147.1225  136.1342  152.0320 H   0  0  0  0  0  0  0  0  0  0  0  0
  1  2  1  0  0  0  0
  1 22  1  0  0  0  0
  1 23  1  0  0  0  0
  1 24  1  0  0  0  0
  2 21  2  0  0  0  0
  2  3  1  0  0  0  0
  3  4  2  0  0  0  0
  3 25  1  0  0  0  0
  4  5  1  0  0  0  0
  4 19  1  0  0  0  0
  5  6  1  0  0  0  0
  5 26  1  0  0  0  0
  6  7  2  0  0  0  0
  6  8  1  0  0  0  0
  8  9  1  0  0  0  0
  8 27  1  0  0  0  0
  9 10  1  0  0  0  0
  9 28  1  0  0  0  0
  9 29  1  0  0  0  0
 10 11  1  0  0  0  0
 10 30  1  0  0  0  0
 10 31  1  0  0  0  0
 11 18  1  0  0  0  0
 11 12  1  0  0  0  0
 11 47  1  0  0  0  0
 12 13  1  0  0  0  0
 12 32  1  0  0  0  0
 12 33  1  0  0  0  0
 13 14  1  0  0  0  0
 13 15  1  0  0  0  0
 13 34  1  0  0  0  0
 14 35  1  0  0  0  0
 14 36  1  0  0  0  0
 14 37  1  0  0  0  0
 15 16  1  0  0  0  0
 16 17  1  0  0  0  0
 16 18  1  0  0  0  0
 16 38  1  0  0  0  0
 17 39  1  0  0  0  0
 17 40  1  0  0  0  0
 17 41  1  0  0  0  0
 18 42  1  0  0  0  0
 18 43  1  0  0  0  0
 19 20  1  0  0  0  0
 19 21  1  0  0  0  0
 20 44  1  0  0  0  0
 20 45  1  0  0  0  0
 20 46  1  0  0  0  0
M  CHG  1  11   1
M  END
> <s_m_source_file>
AV-unprocessed.smi

> <i_m_source_file_index>
1247

> <i_lp_mmshare_version>
43012

> <i_f3d_flags>
0

> <s_epik_input>
W0NIM11jMVtjSF1jKG4objEpW0NIM10pW05IXUMoPU8pW05IXVtDSDJdW0NIMl1OMltDSDJdW0NAQEhdKFtDSDNdKU9bQ0BASF0oW0NIM10pW0NIMl0y

> <s_epik_cmdline>
J2VwaWtfcHl0aG9uJywgJy1waCcsICc3LjAnLCAnLXRuJywgJzgnLCAnLW1hJywgJzIwMCcsICctbWV0YWxfYmluZGluZycsICctaW1hZScsICc8aW5maWxlLm1hZT4nLCAnLW9tYWUnLCAnPG91dGZpbGUubWFlPic=

> <r_lp_tautomer_probability>
1

> <r_epik_Ionization_Penalty>
0.663902

> <r_epik_Ionization_Penalty_Charging>
0.663826

> <r_epik_Ionization_Penalty_Neutral>
7.65444e-05

> <r_epik_State_Penalty>
0.683414

> <r_epik_Charging_Adjusted_Penalty>
1.34724

> <i_epik_Tot_Q>
1

> <i_epik_Tot_abs_Q>
1

> <r_epik_Metal_State_Penalty>
0.683419

> <b_epik_Metal_Only>
0

> <s_lp_Force_Field>
OPLS_2005

> <r_lp_Energy>
18.4757

> <b_lp_Chiralities_Consistent>
1

> <s_lp_Variant>
AV-unprocessed.smi:1247-6

> <Gold.Version>
5.8.1

> <Gold.Id.Protein>
6NUR|6NUR_protein|mol2

> <Gold.PLP.Fitness>
46.8522

> <Gold.PLP.PLP>
-35.1110

> <Gold.PLP.part.hbond>
-5.0000

> <Gold.PLP.part.metal>
0.0000

> <Gold.PLP.part.buried>
0.3152

> <Gold.PLP.part.nonpolar>
-30.8046

> <Gold.PLP.part.repulsive>
0.3926

> <Gold.PLP.ligand.clash>
0.0000

> <Gold.PLP.ligand.torsion>
0.1414

> <Gold.PLP.Chemscore.Hbond>
4.0000

> <Gold.PLP.Chemscore.CHOScore>
0.0000

> <Gold.PLP.Chemscore.Metal>
0.0000

> <Gold.Chemscore.Hbonds>
donor molecule, donor type, donor heavy atom, donor atom, acceptor molecule, acceptor atom, score
      L1  H     8    27       P1  7948  0.99
      L1  H    11    47       P1  7948  2.00
      P1  H  7997  8010       L1    21  1.00

> <Gold.PLP.Chemscore.Internal.Correction>
0.0240

> <Gold.Rescore>
     Score         DG    S(hbond)    S(metal)    S(lipo)     H(rot)  DE(clash)    DE(int)     intcor
     17.04     -19.33       2.88        0.00      69.40       1.52       0.97       1.32       ----

> <Gold.Chemscore.Fitness>
17.0415

> <Gold.Chemscore.DG>
-19.3272

> <Gold.Chemscore.ZeroCoef>
-5.4800

> <Gold.Chemscore.Hbond>
2.8816

> <Gold.Chemscore.Metal>
0.0000

> <Gold.Chemscore.Lipo>
69.3952

> <Gold.Chemscore.Internal_Hbond>
0.0000

> <Gold.Chemscore.DEClash>
0.9677

> <Gold.Chemscore.DEInternal>
1.3180

> <Gold.Chemscore.Rot>
1.5221

> <Gold.Chemscore.Internal.Correction>
   9.000000E+99

> <Gold.Chemscore.Hbonds>
donor molecule, donor type, donor heavy atom, donor atom, acceptor molecule, acceptor atom, score
      L1  H     8    27       P1  7948  0.94
      L1  H    11    47       P1  7948  0.98
      P1  H  7997  8010       L1    21  0.94

> <Gold.Chemscore.Hbond.Weighted>
-9.6246

> <Gold.Chemscore.Metal.Weighted>
-0.0000

> <Gold.Chemscore.Lipo.Weighted>
-8.1192

> <Gold.Chemscore.Internal_Hbond.Weighted>
0.0000

> <Gold.Chemscore.DEClash.Weighted>
0.9677

> <Gold.Chemscore.DEInternal.Weighted>
1.3180

> <Gold.Chemscore.Rot.Weighted>
3.8967

> <Gold.Chemscore.Internal.Correction.Weighted>
   9.000000E+99

> <Gold.Protein.RotatedTorsions>
[ 6907 6896 6895 6894 ] final -100.52 input  -60.11 | X-H torsion
[ 7974 7965 7964 7962 ] final  -61.99 input  175.53 | X-H torsion
[ 8008 7997 7996 7995 ] final   84.08 input   59.86 | X-H torsion
[ 10167 10162 10161 10158 ] final -114.32 input  -65.29 | X-H torsion
[ 10718 10713 10712 10709 ] final   58.02 input   66.30 | X-H torsion
[ 10763 10752 10751 10750 ] final -148.47 input  -60.55 | X-H torsion
[ 11005 11000 10999 10996 ] final  -42.74 input  -57.11 | X-H torsion

> <Gold.Protein.ActiveResidues>
 VAL166  LYS551  ARG553  GLY616  TRP617  ASP618  TYR619  PRO620  LYS621  CYS622 
 ASP623  PHE694  ASN695  SER759  ASP760  ASP761  ALA762  ILE779  LEU786  VAL792 
 PHE793  MET794  SER795  GLU796  ALA797  LYS798  CYS799  TRP800  GLU811  SER814 

> <Gold.Protein.RotatedAtoms>
  150.7119  134.0874  159.3919 H   0  0  0  0  0  0  0  0  0  0  0  0  # atno 6907 bound_to 6896
  151.8859  135.0433  160.0502 H   0  0  0  0  0  0  0  0  0  0  0  0  # atno 6908 bound_to 6896
  152.2531  133.5196  159.5373 H   0  0  0  0  0  0  0  0  0  0  0  0  # atno 6909 bound_to 6896
  145.7968  140.8678  143.0252 H   0  0  0  0  0  0  0  0  0  0  0  0  # atno 7974 bound_to 7965
  155.9324  140.3414  155.6260 H   0  0  0  0  0  0  0  0  0  0  0  0  # atno 8008 bound_to 7997
  155.7141  140.0775  157.2377 H   0  0  0  0  0  0  0  0  0  0  0  0  # atno 8009 bound_to 7997
  154.4087  140.1617  156.2316 H   0  0  0  0  0  0  0  0  0  0  0  0  # atno 8010 bound_to 7997
  140.1022  143.4602  152.1805 H   0  0  0  0  0  0  0  0  0  0  0  0  # atno 10167 bound_to 10162
  157.5562  130.8802  149.9039 H   0  0  0  0  0  0  0  0  0  0  0  0  # atno 10718 bound_to 10713
  154.8231  135.3334  154.6978 H   0  0  0  0  0  0  0  0  0  0  0  0  # atno 10763 bound_to 10752
  153.7608  135.6932  153.4930 H   0  0  0  0  0  0  0  0  0  0  0  0  # atno 10764 bound_to 10752
  153.2111  135.4482  155.0330 H   0  0  0  0  0  0  0  0  0  0  0  0  # atno 10765 bound_to 10752
  141.0336  133.6809  156.2636 H   0  0  0  0  0  0  0  0  0  0  0  0  # atno 11005 bound_to 11000
  144.6774  140.0202  143.7484 LP  0  0  0  0  0  0  0  0  0  0  0  0  # atno 17320 bound_to 7965
  145.9919  139.3022  143.0979 LP  0  0  0  0  0  0  0  0  0  0  0  0  # atno 17321 bound_to 7965
  139.5665  144.7438  151.4009 LP  0  0  0  0  0  0  0  0  0  0  0  0  # atno 17342 bound_to 10162
  140.6971  143.7722  150.7344 LP  0  0  0  0  0  0  0  0  0  0  0  0  # atno 17343 bound_to 10162
  156.0621  130.3698  150.0960 LP  0  0  0  0  0  0  0  0  0  0  0  0  # atno 17370 bound_to 10713
  156.9128  130.9657  151.3560 LP  0  0  0  0  0  0  0  0  0  0  0  0  # atno 17371 bound_to 10713
  140.6362  134.5213  157.5565 LP  0  0  0  0  0  0  0  0  0  0  0  0  # atno 17394 bound_to 11000
  139.9225  134.8121  156.1168 LP  0  0  0  0  0  0  0  0  0  0  0  0  # atno 17395 bound_to 11000

$$$$
