AV-unprocessed.smi:2046|AV-procd|sdf|8313|dock5
  -GOLD-   2272010583D 1   1.00000     0.00000
 Structure written by MMmdl.
 29 30  0  0  0  0  0  0  0  0  2 V2000
  152.5827  139.1009  159.3549 O   0  0  0  0  0  0  0  0  0  0  0  0
  152.7277  139.6183  158.2448 C   0  0  0  0  0  0  0  0  0  0  0  0
  152.9303  138.9664  157.0770 N   0  5  0  0  0  0  0  0  0  0  0  0
  152.0285  139.0661  156.0865 C   0  0  0  0  0  0  0  0  0  0  0  0
  151.4343  140.2277  155.7701 N   0  0  0  0  0  0  0  0  0  0  0  0
  150.5413  140.1142  154.7129 N   0  0  0  0  0  0  0  0  0  0  0  0
  150.4921  138.8650  154.2506 C   0  0  0  0  0  0  0  0  0  0  0  0
  151.5320  137.7148  155.0636 S   0  0  0  0  0  0  0  0  0  0  0  0
  152.6916  140.9538  158.1181 N   0  0  0  0  0  0  0  0  0  0  0  0
  152.5025  141.9235  159.1993 C   0  0  2  0  0  0  0  0  0  0  0  0
  152.3128  143.3223  158.5603 C   0  0  0  0  0  0  0  0  0  0  0  0
  152.4933  144.5376  159.4975 C   0  0  0  0  0  0  0  0  0  0  0  0
  151.8160  144.4089  160.8773 C   0  0  0  0  0  0  0  0  0  0  0  0
  152.2916  143.2417  161.7810 C   0  0  0  0  0  0  0  0  0  0  0  0
  153.5275  142.5910  161.3456 N   0  0  0  0  0  0  0  0  0  0  0  0
  153.6992  141.9493  160.1772 C   0  0  0  0  0  0  0  0  0  0  0  0
  154.7755  141.4293  159.8849 O   0  0  0  0  0  0  0  0  0  0  0  0
  149.8417  138.6199  153.4244 H   0  0  0  0  0  0  0  0  0  0  0  0
  152.8215  141.3304  157.1908 H   0  0  0  0  0  0  0  0  0  0  0  0
  151.5970  141.6508  159.7426 H   0  0  0  0  0  0  0  0  0  0  0  0
  153.0012  143.4437  157.7224 H   0  0  0  0  0  0  0  0  0  0  0  0
  151.3135  143.3616  158.1249 H   0  0  0  0  0  0  0  0  0  0  0  0
  153.5567  144.7363  159.6378 H   0  0  0  0  0  0  0  0  0  0  0  0
  152.1063  145.4240  158.9939 H   0  0  0  0  0  0  0  0  0  0  0  0
  151.9814  145.3435  161.4144 H   0  0  0  0  0  0  0  0  0  0  0  0
  150.7358  144.3398  160.7451 H   0  0  0  0  0  0  0  0  0  0  0  0
  152.4407  143.6073  162.7971 H   0  0  0  0  0  0  0  0  0  0  0  0
  151.5079  142.4869  161.8591 H   0  0  0  0  0  0  0  0  0  0  0  0
  154.3093  142.6206  161.9837 H   0  0  0  0  0  0  0  0  0  0  0  0
  1  2  2  0  0  0  0
  2  3  1  0  0  0  0
  2  9  1  0  0  0  0
  3  4  1  0  0  0  0
  4  8  1  0  0  0  0
  4  5  2  0  0  0  0
  5  6  1  0  0  0  0
  6  7  2  0  0  0  0
  7  8  1  0  0  0  0
  7 18  1  0  0  0  0
  9 10  1  0  0  0  0
  9 19  1  0  0  0  0
 10 16  1  0  0  0  0
 10 11  1  0  0  0  0
 10 20  1  0  0  0  0
 11 12  1  0  0  0  0
 11 21  1  0  0  0  0
 11 22  1  0  0  0  0
 12 13  1  0  0  0  0
 12 23  1  0  0  0  0
 12 24  1  0  0  0  0
 13 14  1  0  0  0  0
 13 25  1  0  0  0  0
 13 26  1  0  0  0  0
 14 15  1  0  0  0  0
 14 27  1  0  0  0  0
 14 28  1  0  0  0  0
 15 16  1  0  0  0  0
 15 29  1  0  0  0  0
 16 17  2  0  0  0  0
M  CHG  1   3  -1
M  END
> <s_m_source_file>
AV-unprocessed.smi

> <i_m_source_file_index>
2046

> <i_lp_mmshare_version>
43012

> <i_f3d_flags>
0

> <s_epik_input>
czFbY0hdbm5jMVtOSF1DKD1PKVtOSF1bQ0BASF0yW0NIMl1bQ0gyXVtDSDJdW0NIMl1bTkhdQzI9Tw==

> <s_epik_cmdline>
J2VwaWtfcHl0aG9uJywgJy1waCcsICc3LjAnLCAnLXRuJywgJzgnLCAnLW1hJywgJzIwMCcsICctbWV0YWxfYmluZGluZycsICctaW1hZScsICc8aW5maWxlLm1hZT4nLCAnLW9tYWUnLCAnPG91dGZpbGUubWFlPic=

> <r_lp_tautomer_probability>
1

> <r_epik_Ionization_Penalty>
4.05949

> <r_epik_Ionization_Penalty_Charging>
4.01916

> <r_epik_Ionization_Penalty_Neutral>
0.0403285

> <r_epik_State_Penalty>
4.01849

> <r_epik_Charging_Adjusted_Penalty>
8.03765

> <i_epik_Tot_Q>
-1

> <i_epik_Tot_abs_Q>
1

> <r_epik_Metal_State_Penalty>
0.626741

> <b_epik_Metal_Only>
1

> <s_lp_Force_Field>
OPLS_2005

> <r_lp_Energy>
13.487

> <b_lp_Chiralities_Consistent>
1

> <s_lp_Variant>
AV-unprocessed.smi:2046-3

> <Gold.Version>
5.8.1

> <Gold.Id.Protein>
6NUR|6NUR_protein|mol2

> <Gold.PLP.Fitness>
42.1668

> <Gold.PLP.PLP>
-33.9166

> <Gold.PLP.part.hbond>
-2.5148

> <Gold.PLP.part.metal>
0.0000

> <Gold.PLP.part.buried>
-3.4483

> <Gold.PLP.part.nonpolar>
-27.7422

> <Gold.PLP.part.repulsive>
0.2156

> <Gold.PLP.ligand.clash>
0.0000

> <Gold.PLP.ligand.torsion>
0.9763

> <Gold.PLP.Chemscore.Hbond>
2.4000

> <Gold.PLP.Chemscore.CHOScore>
1.0000

> <Gold.PLP.Chemscore.Metal>
0.0000

> <Gold.Chemscore.Hbonds>
donor molecule, donor type, donor heavy atom, donor atom, acceptor molecule, acceptor atom, score
      P1  H  7989  7998       L1     6  0.75
      P1  H  7997  8009       L1     3  1.20
      L1  C     7    18       P1  7957  0.59

> <Gold.PLP.Chemscore.Internal.Correction>
0.0028

> <Gold.Rescore>
     Score         DG    S(hbond)    S(metal)    S(lipo)     H(rot)  DE(clash)    DE(int)     intcor
     13.61     -14.66       0.93        0.00      73.88       1.00       0.05       1.00       ----

> <Gold.Chemscore.Fitness>
13.6067

> <Gold.Chemscore.DG>
-14.6578

> <Gold.Chemscore.ZeroCoef>
-5.4800

> <Gold.Chemscore.Hbond>
0.9264

> <Gold.Chemscore.Metal>
0.0000

> <Gold.Chemscore.Lipo>
73.8778

> <Gold.Chemscore.Internal_Hbond>
0.0000

> <Gold.Chemscore.DEClash>
0.0494

> <Gold.Chemscore.DEInternal>
1.0016

> <Gold.Chemscore.Rot>
1.0000

> <Gold.Chemscore.Internal.Correction>
   9.000000E+99

> <Gold.Chemscore.Hbonds>
donor molecule, donor type, donor heavy atom, donor atom, acceptor molecule, acceptor atom, score
      P1  H  7989  7998       L1     6  0.03
      P1  H  7997  8009       L1     3  0.03

> <Gold.Chemscore.Hbond.Weighted>
-3.0940

> <Gold.Chemscore.Metal.Weighted>
-0.0000

> <Gold.Chemscore.Lipo.Weighted>
-8.6437

> <Gold.Chemscore.Internal_Hbond.Weighted>
0.0000

> <Gold.Chemscore.DEClash.Weighted>
0.0494

> <Gold.Chemscore.DEInternal.Weighted>
1.0016

> <Gold.Chemscore.Rot.Weighted>
2.5600

> <Gold.Chemscore.Internal.Correction.Weighted>
   9.000000E+99

> <Gold.Protein.RotatedTorsions>
[ 6907 6896 6895 6894 ] final  -73.01 input  -60.11 | X-H torsion
[ 7974 7965 7964 7962 ] final  -15.30 input  175.53 | X-H torsion
[ 8008 7997 7996 7995 ] final  178.64 input   59.86 | X-H torsion
[ 10167 10162 10161 10158 ] final  -89.27 input  -65.29 | X-H torsion
[ 10718 10713 10712 10709 ] final  109.67 input   66.30 | X-H torsion
[ 10763 10752 10751 10750 ] final  134.54 input  -60.55 | X-H torsion
[ 11005 11000 10999 10996 ] final -141.99 input  -57.11 | X-H torsion

> <Gold.Protein.ActiveResidues>
 VAL166  LYS551  ARG553  GLY616  TRP617  ASP618  TYR619  PRO620  LYS621  CYS622 
 ASP623  PHE694  ASN695  SER759  ASP760  ASP761  ALA762  ILE779  LEU786  VAL792 
 PHE793  MET794  SER795  GLU796  ALA797  LYS798  CYS799  TRP800  GLU811  SER814 

> <Gold.Protein.RotatedAtoms>
  150.7147  134.5079  159.5592 H   0  0  0  0  0  0  0  0  0  0  0  0  # atno 6907 bound_to 6896
  152.2662  134.7978  160.0431 H   0  0  0  0  0  0  0  0  0  0  0  0  # atno 6908 bound_to 6896
  151.8675  133.3434  159.3760 H   0  0  0  0  0  0  0  0  0  0  0  0  # atno 6909 bound_to 6896
  146.2038  140.3473  142.8414 H   0  0  0  0  0  0  0  0  0  0  0  0  # atno 7974 bound_to 7965
  156.0523  140.1328  157.0036 H   0  0  0  0  0  0  0  0  0  0  0  0  # atno 8008 bound_to 7997
  154.4441  140.1008  156.6465 H   0  0  0  0  0  0  0  0  0  0  0  0  # atno 8009 bound_to 7997
  155.5504  140.3463  155.4469 H   0  0  0  0  0  0  0  0  0  0  0  0  # atno 8010 bound_to 7997
  140.3665  143.2816  151.9552 H   0  0  0  0  0  0  0  0  0  0  0  0  # atno 10167 bound_to 10162
  157.6531  131.0918  150.6488 H   0  0  0  0  0  0  0  0  0  0  0  0  # atno 10718 bound_to 10713
  153.8252  135.3111  155.3414 H   0  0  0  0  0  0  0  0  0  0  0  0  # atno 10763 bound_to 10752
  154.7996  135.4734  154.0247 H   0  0  0  0  0  0  0  0  0  0  0  0  # atno 10764 bound_to 10752
  153.1668  135.6871  153.8753 H   0  0  0  0  0  0  0  0  0  0  0  0  # atno 10765 bound_to 10752
  140.8270  134.2563  157.4874 H   0  0  0  0  0  0  0  0  0  0  0  0  # atno 11005 bound_to 11000
  144.8744  140.7316  143.6026 LP  0  0  0  0  0  0  0  0  0  0  0  0  # atno 17320 bound_to 7965
  145.3392  139.1737  143.4495 LP  0  0  0  0  0  0  0  0  0  0  0  0  # atno 17321 bound_to 7965
  139.4808  144.5946  151.7713 LP  0  0  0  0  0  0  0  0  0  0  0  0  # atno 17342 bound_to 10162
  140.5076  144.1074  150.5986 LP  0  0  0  0  0  0  0  0  0  0  0  0  # atno 17343 bound_to 10162
  156.6797  130.4563  149.5631 LP  0  0  0  0  0  0  0  0  0  0  0  0  # atno 17370 bound_to 10713
  156.1938  130.6576  151.1091 LP  0  0  0  0  0  0  0  0  0  0  0  0  # atno 17371 bound_to 10713
  139.8706  134.9566  156.4242 LP  0  0  0  0  0  0  0  0  0  0  0  0  # atno 17394 bound_to 11000
  140.9039  133.7760  155.9712 LP  0  0  0  0  0  0  0  0  0  0  0  0  # atno 17395 bound_to 11000

$$$$
