AV-unprocessed.smi:2945|AV-procd|sdf|11278|dock10
  -GOLD-   2272016173D 1   1.00000     0.00000
 Structure written by MMmdl.
 36 37  0  0  0  0  0  0  0  0  1 V2000
  146.6786  133.9009  162.2199 C   0  0  0  0  0  0  0  0  0  0  0  0
  147.1924  135.0437  161.4129 C   0  0  0  0  0  0  0  0  0  0  0  0
  147.8448  135.1175  160.2145 C   0  0  0  0  0  0  0  0  0  0  0  0
  148.0320  136.5142  160.0376 C   0  0  0  0  0  0  0  0  0  0  0  0
  148.6840  137.0193  158.8843 N   0  0  0  0  0  0  0  0  0  0  0  0
  149.9910  137.2923  158.7334 C   0  0  0  0  0  0  0  0  0  0  0  0
  150.8542  137.1253  159.5953 O   0  0  0  0  0  0  0  0  0  0  0  0
  150.2434  137.7730  157.5068 N   0  0  0  0  0  0  0  0  0  0  0  0
  151.5498  138.1880  156.9907 C   0  0  2  0  0  0  0  0  0  0  0  0
  152.1165  139.3262  157.8632 C   0  0  0  0  0  0  0  0  0  0  0  0
  151.3334  140.6388  157.6872 C   0  0  0  0  0  0  0  0  0  0  0  0
  151.2701  141.0546  156.2099 C   0  0  0  0  0  0  0  0  0  0  0  0
  150.6853  139.9327  155.3366 C   0  0  0  0  0  0  0  0  0  0  0  0
  151.4712  138.6154  155.5026 C   0  0  2  0  0  0  0  0  0  0  0  0
  150.9220  137.5091  154.5859 C   0  0  0  0  0  0  0  0  0  0  0  0
  147.5404  137.2285  161.0383 N   0  0  0  0  0  0  0  0  0  0  0  0
  147.0002  136.2897  161.9252 O   0  0  0  0  0  0  0  0  0  0  0  0
  146.7969  132.9597  161.6826 H   0  0  0  0  0  0  0  0  0  0  0  0
  145.6197  134.0302  162.4439 H   0  0  0  0  0  0  0  0  0  0  0  0
  147.2178  133.8217  163.1640 H   0  0  0  0  0  0  0  0  0  0  0  0
  148.1374  134.3020  159.5697 H   0  0  0  0  0  0  0  0  0  0  0  0
  148.0889  137.2014  158.0900 H   0  0  0  0  0  0  0  0  0  0  0  0
  149.4647  137.8673  156.8718 H   0  0  0  0  0  0  0  0  0  0  0  0
  152.2469  137.3514  157.0634 H   0  0  0  0  0  0  0  0  0  0  0  0
  152.1205  139.0310  158.9131 H   0  0  0  0  0  0  0  0  0  0  0  0
  153.1596  139.4968  157.5939 H   0  0  0  0  0  0  0  0  0  0  0  0
  150.3221  140.5225  158.0784 H   0  0  0  0  0  0  0  0  0  0  0  0
  151.7998  141.4297  158.2750 H   0  0  0  0  0  0  0  0  0  0  0  0
  150.6703  141.9590  156.1043 H   0  0  0  0  0  0  0  0  0  0  0  0
  152.2718  141.3059  155.8588 H   0  0  0  0  0  0  0  0  0  0  0  0
  149.6371  139.7776  155.5948 H   0  0  0  0  0  0  0  0  0  0  0  0
  150.6989  140.2442  154.2916 H   0  0  0  0  0  0  0  0  0  0  0  0
  152.4938  138.8095  155.1749 H   0  0  0  0  0  0  0  0  0  0  0  0
  149.8758  137.2886  154.7993 H   0  0  0  0  0  0  0  0  0  0  0  0
  151.4885  136.5852  154.7052 H   0  0  0  0  0  0  0  0  0  0  0  0
  150.9878  137.8022  153.5380 H   0  0  0  0  0  0  0  0  0  0  0  0
  1  2  1  0  0  0  0
  1 18  1  0  0  0  0
  1 19  1  0  0  0  0
  1 20  1  0  0  0  0
  2 17  1  0  0  0  0
  2  3  2  0  0  0  0
  3  4  1  0  0  0  0
  3 21  1  0  0  0  0
  4  5  1  0  0  0  0
  4 16  2  0  0  0  0
  5  6  1  0  0  0  0
  5 22  1  0  0  0  0
  6  7  2  0  0  0  0
  6  8  1  0  0  0  0
  8  9  1  0  0  0  0
  8 23  1  0  0  0  0
  9 14  1  0  0  0  0
  9 10  1  0  0  0  0
  9 24  1  0  0  0  0
 10 11  1  0  0  0  0
 10 25  1  0  0  0  0
 10 26  1  0  0  0  0
 11 12  1  0  0  0  0
 11 27  1  0  0  0  0
 11 28  1  0  0  0  0
 12 13  1  0  0  0  0
 12 29  1  0  0  0  0
 12 30  1  0  0  0  0
 13 14  1  0  0  0  0
 13 31  1  0  0  0  0
 13 32  1  0  0  0  0
 14 15  1  0  0  0  0
 14 33  1  0  0  0  0
 15 34  1  0  0  0  0
 15 35  1  0  0  0  0
 15 36  1  0  0  0  0
 16 17  1  0  0  0  0
M  END
> <s_m_source_file>
AV-unprocessed.smi

> <i_m_source_file_index>
2945

> <i_lp_mmshare_version>
43012

> <i_f3d_flags>
0

> <s_epik_input>
W0NIM11jMVtjSF1jKG5vMSlbTkhdQyg9TylbTkhdW0NAQEhdMltDSDJdW0NIMl1bQ0gyXVtDSDJdW0NASF0yW0NIM10=

> <s_epik_cmdline>
J2VwaWtfcHl0aG9uJywgJy1waCcsICc3LjAnLCAnLXRuJywgJzgnLCAnLW1hJywgJzIwMCcsICctbWV0YWxfYmluZGluZycsICctaW1hZScsICc8aW5maWxlLm1hZT4nLCAnLW9tYWUnLCAnPG91dGZpbGUubWFlPic=

> <r_lp_tautomer_probability>
1

> <r_epik_Ionization_Penalty>
2.357e-05

> <r_epik_Ionization_Penalty_Charging>
0

> <r_epik_Ionization_Penalty_Neutral>
2.357e-05

> <r_epik_State_Penalty>
-0

> <r_epik_Charging_Adjusted_Penalty>
0

> <i_epik_Tot_Q>
0

> <i_epik_Tot_abs_Q>
0

> <r_epik_Metal_State_Penalty>
-0

> <b_epik_Metal_Only>
0

> <s_lp_Force_Field>
OPLS_2005

> <r_lp_Energy>
7.46694

> <b_lp_Chiralities_Consistent>
1

> <s_lp_Variant>
AV-unprocessed.smi:2945-3

> <Gold.Version>
5.8.1

> <Gold.Id.Protein>
6NUR|6NUR_protein|mol2

> <Gold.PLP.Fitness>
37.1152

> <Gold.PLP.PLP>
-30.2673

> <Gold.PLP.part.hbond>
-2.9739

> <Gold.PLP.part.metal>
0.0000

> <Gold.PLP.part.buried>
-4.4852

> <Gold.PLP.part.nonpolar>
-22.7508

> <Gold.PLP.part.repulsive>
0.2077

> <Gold.PLP.ligand.clash>
0.0000

> <Gold.PLP.ligand.torsion>
0.7543

> <Gold.PLP.Chemscore.Hbond>
2.7833

> <Gold.PLP.Chemscore.CHOScore>
0.0000

> <Gold.PLP.Chemscore.Metal>
0.0000

> <Gold.Chemscore.Hbonds>
donor molecule, donor type, donor heavy atom, donor atom, acceptor molecule, acceptor atom, score
      P1  H  6896  6908       L1     7  0.93
      P1  H  6931  6943       L1    16  0.85
      P1  H  6934  6947       L1    16  0.96

> <Gold.PLP.Chemscore.Internal.Correction>
0.0067

> <Gold.Rescore>
     Score         DG    S(hbond)    S(metal)    S(lipo)     H(rot)  DE(clash)    DE(int)     intcor
     18.07     -18.87       2.56        0.00      63.28       1.00       0.05       0.76       ----

> <Gold.Chemscore.Fitness>
18.0693

> <Gold.Chemscore.DG>
-18.8742

> <Gold.Chemscore.ZeroCoef>
-5.4800

> <Gold.Chemscore.Hbond>
2.5599

> <Gold.Chemscore.Metal>
0.0000

> <Gold.Chemscore.Lipo>
63.2815

> <Gold.Chemscore.Internal_Hbond>
0.0000

> <Gold.Chemscore.DEClash>
0.0456

> <Gold.Chemscore.DEInternal>
0.7592

> <Gold.Chemscore.Rot>
1.0000

> <Gold.Chemscore.Internal.Correction>
   9.000000E+99

> <Gold.Chemscore.Hbonds>
donor molecule, donor type, donor heavy atom, donor atom, acceptor molecule, acceptor atom, score
      P1  H  6896  6908       L1     7  0.80
      P1  H  6931  6943       L1    16  0.45
      P1  H  6934  6947       L1    16  0.92

> <Gold.Chemscore.Hbond.Weighted>
-8.5502

> <Gold.Chemscore.Metal.Weighted>
-0.0000

> <Gold.Chemscore.Lipo.Weighted>
-7.4039

> <Gold.Chemscore.Internal_Hbond.Weighted>
0.0000

> <Gold.Chemscore.DEClash.Weighted>
0.0456

> <Gold.Chemscore.DEInternal.Weighted>
0.7592

> <Gold.Chemscore.Rot.Weighted>
2.5600

> <Gold.Chemscore.Internal.Correction.Weighted>
   9.000000E+99

> <Gold.Protein.RotatedTorsions>
[ 6907 6896 6895 6894 ] final -130.68 input  -60.11 | X-H torsion
[ 7974 7965 7964 7962 ] final   -9.00 input  175.53 | X-H torsion
[ 8008 7997 7996 7995 ] final  111.22 input   59.86 | X-H torsion
[ 10167 10162 10161 10158 ] final   -8.68 input  -65.29 | X-H torsion
[ 10718 10713 10712 10709 ] final  136.87 input   66.30 | X-H torsion
[ 10763 10752 10751 10750 ] final   47.17 input  -60.55 | X-H torsion
[ 11005 11000 10999 10996 ] final  -80.48 input  -57.11 | X-H torsion

> <Gold.Protein.ActiveResidues>
 VAL166  LYS551  ARG553  GLY616  TRP617  ASP618  TYR619  PRO620  LYS621  CYS622 
 ASP623  PHE694  ASN695  SER759  ASP760  ASP761  ALA762  ILE779  LEU786  VAL792 
 PHE793  MET794  SER795  GLU796  ALA797  LYS798  CYS799  TRP800  GLU811  SER814 

> <Gold.Protein.RotatedAtoms>
  150.9425  133.6640  159.2787 H   0  0  0  0  0  0  0  0  0  0  0  0  # atno 6907 bound_to 6896
  151.4025  135.0972  159.9570 H   0  0  0  0  0  0  0  0  0  0  0  0  # atno 6908 bound_to 6896
  152.5075  133.8916  159.7451 H   0  0  0  0  0  0  0  0  0  0  0  0  # atno 6909 bound_to 6896
  146.2264  140.2551  142.8349 H   0  0  0  0  0  0  0  0  0  0  0  0  # atno 7974 bound_to 7965
  156.2108  140.3023  155.9729 H   0  0  0  0  0  0  0  0  0  0  0  0  # atno 8008 bound_to 7997
  155.2727  140.0434  157.3025 H   0  0  0  0  0  0  0  0  0  0  0  0  # atno 8009 bound_to 7997
  154.5697  140.2344  155.8218 H   0  0  0  0  0  0  0  0  0  0  0  0  # atno 8010 bound_to 7997
  140.7066  143.5942  150.8863 H   0  0  0  0  0  0  0  0  0  0  0  0  # atno 10167 bound_to 10162
  157.4421  131.1058  151.0131 H   0  0  0  0  0  0  0  0  0  0  0  0  # atno 10718 bound_to 10713
  152.9802  135.5985  154.3718 H   0  0  0  0  0  0  0  0  0  0  0  0  # atno 10763 bound_to 10752
  154.3391  135.2768  155.2434 H   0  0  0  0  0  0  0  0  0  0  0  0  # atno 10764 bound_to 10752
  154.4523  135.5986  153.6255 H   0  0  0  0  0  0  0  0  0  0  0  0  # atno 10765 bound_to 10752
  141.1668  133.7152  156.8279 H   0  0  0  0  0  0  0  0  0  0  0  0  # atno 11005 bound_to 11000
  144.9382  140.8050  143.5647 LP  0  0  0  0  0  0  0  0  0  0  0  0  # atno 17320 bound_to 7965
  145.2500  139.2035  143.4947 LP  0  0  0  0  0  0  0  0  0  0  0  0  # atno 17321 bound_to 7965
  139.9667  143.6102  152.2986 LP  0  0  0  0  0  0  0  0  0  0  0  0  # atno 17342 bound_to 10162
  139.6674  144.7662  151.1846 LP  0  0  0  0  0  0  0  0  0  0  0  0  # atno 17343 bound_to 10162
  157.0990  130.5974  149.5456 LP  0  0  0  0  0  0  0  0  0  0  0  0  # atno 17370 bound_to 10713
  155.9953  130.5019  150.7453 LP  0  0  0  0  0  0  0  0  0  0  0  0  # atno 17371 bound_to 10713
  140.2072  134.8854  157.3234 LP  0  0  0  0  0  0  0  0  0  0  0  0  # atno 17394 bound_to 11000
  140.2125  134.4121  155.7605 LP  0  0  0  0  0  0  0  0  0  0  0  0  # atno 17395 bound_to 11000

$$$$
