AV-unprocessed.smi:2931|AV-procd|sdf|11246|dock2
  -GOLD-   2272016143D 1   1.00000     0.00000
 Structure written by MMmdl.
 43 44  0  0  0  0  0  0  0  0  3 V2000
  141.9715  134.4918  152.9392 C   0  0  0  0  0  0  0  0  0  0  0  0
  143.2640  133.8002  152.7451 N   0  3  1  0  0  0  0  0  0  0  0  0
  143.3671  133.1613  151.4092 C   0  0  0  0  0  0  0  0  0  0  0  0
  144.6650  132.3458  151.2866 C   0  0  0  0  0  0  0  0  0  0  0  0
  145.8950  133.2158  151.5811 C   0  0  0  0  0  0  0  0  0  0  0  0
  145.7480  133.8928  152.9558 C   0  0  1  0  0  0  0  0  0  0  0  0
  146.8736  134.7864  153.2123 N   0  0  0  0  0  0  0  0  0  0  0  0
  147.0404  135.5115  154.3272 C   0  0  0  0  0  0  0  0  0  0  0  0
  146.2519  135.5148  155.2721 O   0  0  0  0  0  0  0  0  0  0  0  0
  148.1748  136.2242  154.2935 N   0  0  0  0  0  0  0  0  0  0  0  0
  148.6310  137.1276  155.3471 C   0  0  0  0  0  0  0  0  0  0  0  0
  149.9266  137.8854  154.9901 C   0  0  0  0  0  0  0  0  0  0  0  0
  149.8238  139.3915  155.1615 C   0  0  0  0  0  0  0  0  0  0  0  0
  150.7414  140.0854  155.9820 C   0  0  0  0  0  0  0  0  0  0  0  0
  150.6196  141.4829  156.1217 C   0  0  0  0  0  0  0  0  0  0  0  0
  149.6336  142.1404  155.4729 N   0  3  0  0  0  0  0  0  0  0  0  0
  148.7367  141.5156  154.6785 C   0  0  0  0  0  0  0  0  0  0  0  0
  148.8086  140.1185  154.5018 C   0  0  0  0  0  0  0  0  0  0  0  0
  144.4254  134.6796  153.0314 C   0  0  0  0  0  0  0  0  0  0  0  0
  141.8626  135.3218  152.2399 H   0  0  0  0  0  0  0  0  0  0  0  0
  141.8933  134.8852  153.9532 H   0  0  0  0  0  0  0  0  0  0  0  0
  141.1398  133.8036  152.7855 H   0  0  0  0  0  0  0  0  0  0  0  0
  142.5098  132.5059  151.2500 H   0  0  0  0  0  0  0  0  0  0  0  0
  143.3296  133.9276  150.6333 H   0  0  0  0  0  0  0  0  0  0  0  0
  144.6365  131.5063  151.9828 H   0  0  0  0  0  0  0  0  0  0  0  0
  144.7429  131.9164  150.2874 H   0  0  0  0  0  0  0  0  0  0  0  0
  146.7974  132.6039  151.5509 H   0  0  0  0  0  0  0  0  0  0  0  0
  146.0038  133.9717  150.8019 H   0  0  0  0  0  0  0  0  0  0  0  0
  145.7233  133.1205  153.7279 H   0  0  0  0  0  0  0  0  0  0  0  0
  147.5785  134.8523  152.4924 H   0  0  0  0  0  0  0  0  0  0  0  0
  148.7569  136.1550  153.4718 H   0  0  0  0  0  0  0  0  0  0  0  0
  147.8300  137.8457  155.5244 H   0  0  0  0  0  0  0  0  0  0  0  0
  148.7599  136.5767  156.2798 H   0  0  0  0  0  0  0  0  0  0  0  0
  150.7451  137.5179  155.6103 H   0  0  0  0  0  0  0  0  0  0  0  0
  150.2128  137.6634  153.9615 H   0  0  0  0  0  0  0  0  0  0  0  0
  151.5297  139.5553  156.4969 H   0  0  0  0  0  0  0  0  0  0  0  0
  151.2756  142.0898  156.7287 H   0  0  0  0  0  0  0  0  0  0  0  0
  147.9940  142.1469  154.2126 H   0  0  0  0  0  0  0  0  0  0  0  0
  148.0941  139.6129  153.8683 H   0  0  0  0  0  0  0  0  0  0  0  0
  144.4347  135.5109  152.3240 H   0  0  0  0  0  0  0  0  0  0  0  0
  144.3133  135.1113  154.0271 H   0  0  0  0  0  0  0  0  0  0  0  0
  143.2935  133.0535  153.4250 H   0  0  0  0  0  0  0  0  0  0  0  0
  149.5624  143.1518  155.5886 H   0  0  0  0  0  0  0  0  0  0  0  0
  1  2  1  0  0  0  0
  1 20  1  0  0  0  0
  1 21  1  0  0  0  0
  1 22  1  0  0  0  0
  2 19  1  0  0  0  0
  2  3  1  0  0  0  0
  2 42  1  0  0  0  0
  3  4  1  0  0  0  0
  3 23  1  0  0  0  0
  3 24  1  0  0  0  0
  4  5  1  0  0  0  0
  4 25  1  0  0  0  0
  4 26  1  0  0  0  0
  5  6  1  0  0  0  0
  5 27  1  0  0  0  0
  5 28  1  0  0  0  0
  6  7  1  0  0  0  0
  6 19  1  0  0  0  0
  6 29  1  0  0  0  0
  7  8  1  0  0  0  0
  7 30  1  0  0  0  0
  8  9  2  0  0  0  0
  8 10  1  0  0  0  0
 10 11  1  0  0  0  0
 10 31  1  0  0  0  0
 11 12  1  0  0  0  0
 11 32  1  0  0  0  0
 11 33  1  0  0  0  0
 12 13  1  0  0  0  0
 12 34  1  0  0  0  0
 12 35  1  0  0  0  0
 13 18  1  0  0  0  0
 13 14  2  0  0  0  0
 14 15  1  0  0  0  0
 14 36  1  0  0  0  0
 15 16  2  0  0  0  0
 15 37  1  0  0  0  0
 16 17  1  0  0  0  0
 16 43  1  0  0  0  0
 17 18  2  0  0  0  0
 17 38  1  0  0  0  0
 18 39  1  0  0  0  0
 19 40  1  0  0  0  0
 19 41  1  0  0  0  0
M  CHG  1   2   1
M  CHG  1  16   1
M  END
> <s_m_source_file>
AV-unprocessed.smi

> <i_m_source_file_index>
2931

> <i_lp_mmshare_version>
43012

> <i_f3d_flags>
0

> <s_epik_input>
W0NIM11OMVtDSDJdW0NIMl1bQ0gyXVtDQEhdKFtDSDJdMSlbTkhdQyg9TylbTkhdW0NIMl1bQ0gyXWMyW2NIXVtjSF1uW2NIXVtjSF0y

> <s_epik_cmdline>
J2VwaWtfcHl0aG9uJywgJy1waCcsICc3LjAnLCAnLXRuJywgJzgnLCAnLW1hJywgJzIwMCcsICctbWV0YWxfYmluZGluZycsICctaW1hZScsICc8aW5maWxlLm1hZT4nLCAnLW9tYWUnLCAnPG91dGZpbGUubWFlPic=

> <r_epik_Ionization_Penalty>
1.43754

> <r_epik_Ionization_Penalty_Charging>
1.4375

> <r_epik_Ionization_Penalty_Neutral>
3.7629e-05

> <r_epik_State_Penalty>
1.52008

> <r_epik_Charging_Adjusted_Penalty>
2.95758

> <i_epik_Tot_Q>
2

> <i_epik_Tot_abs_Q>
2

> <r_epik_Metal_State_Penalty>
1.57105

> <b_epik_Metal_Only>
0

> <s_lp_Force_Field>
OPLS_2005

> <r_lp_Energy>
22.3029

> <b_lp_Chiralities_Consistent>
1

> <s_lp_Variant>
AV-unprocessed.smi:2931-5

> <Gold.Version>
5.8.1

> <Gold.Id.Protein>
6NUR|6NUR_protein|mol2

> <Gold.PLP.Fitness>
48.0461

> <Gold.PLP.PLP>
-31.6015

> <Gold.PLP.part.hbond>
-3.8228

> <Gold.PLP.part.metal>
0.0000

> <Gold.PLP.part.buried>
-3.7261

> <Gold.PLP.part.nonpolar>
-24.2952

> <Gold.PLP.part.repulsive>
0.2361

> <Gold.PLP.ligand.clash>
0.0000

> <Gold.PLP.ligand.torsion>
0.3899

> <Gold.PLP.Chemscore.Hbond>
5.7360

> <Gold.PLP.Chemscore.CHOScore>
0.0000

> <Gold.PLP.Chemscore.Metal>
0.0000

> <Gold.Chemscore.Hbonds>
donor molecule, donor type, donor heavy atom, donor atom, acceptor molecule, acceptor atom, score
      L1  H     2    42       P1 10957  2.00
      L1  H     7    30       P1  7948  0.77
      L1  H    10    31       P1  7948  1.00
      L1  H    16    43       P1  8028  2.00

> <Gold.PLP.Chemscore.Internal.Correction>
0.0164

> <Gold.Rescore>
     Score         DG    S(hbond)    S(metal)    S(lipo)     H(rot)  DE(clash)    DE(int)     intcor
     20.24     -21.42       3.41        0.00      74.92       1.65       0.02       1.15       ----

> <Gold.Chemscore.Fitness>
20.2447

> <Gold.Chemscore.DG>
-21.4165

> <Gold.Chemscore.ZeroCoef>
-5.4800

> <Gold.Chemscore.Hbond>
3.4087

> <Gold.Chemscore.Metal>
0.0000

> <Gold.Chemscore.Lipo>
74.9245

> <Gold.Chemscore.Internal_Hbond>
0.0000

> <Gold.Chemscore.DEClash>
0.0212

> <Gold.Chemscore.DEInternal>
1.1505

> <Gold.Chemscore.Rot>
1.6464

> <Gold.Chemscore.Internal.Correction>
   9.000000E+99

> <Gold.Chemscore.Hbonds>
donor molecule, donor type, donor heavy atom, donor atom, acceptor molecule, acceptor atom, score
      L1  H     2    42       P1 10957  0.86
      L1  H     7    30       P1  7948  0.70
      L1  H    10    31       P1  7948  0.95
      L1  H    16    43       P1  8028  1.00

> <Gold.Chemscore.Hbond.Weighted>
-11.3851

> <Gold.Chemscore.Metal.Weighted>
-0.0000

> <Gold.Chemscore.Lipo.Weighted>
-8.7662

> <Gold.Chemscore.Internal_Hbond.Weighted>
0.0000

> <Gold.Chemscore.DEClash.Weighted>
0.0212

> <Gold.Chemscore.DEInternal.Weighted>
1.1505

> <Gold.Chemscore.Rot.Weighted>
4.2148

> <Gold.Chemscore.Internal.Correction.Weighted>
   9.000000E+99

> <Gold.Protein.RotatedTorsions>
[ 6907 6896 6895 6894 ] final   16.63 input  -60.11 | X-H torsion
[ 7974 7965 7964 7962 ] final  172.80 input  175.53 | X-H torsion
[ 8008 7997 7996 7995 ] final   72.42 input   59.86 | X-H torsion
[ 10167 10162 10161 10158 ] final   12.20 input  -65.29 | X-H torsion
[ 10718 10713 10712 10709 ] final   98.78 input   66.30 | X-H torsion
[ 10763 10752 10751 10750 ] final    6.63 input  -60.55 | X-H torsion
[ 11005 11000 10999 10996 ] final   78.60 input  -57.11 | X-H torsion

> <Gold.Protein.ActiveResidues>
 VAL166  LYS551  ARG553  GLY616  TRP617  ASP618  TYR619  PRO620  LYS621  CYS622 
 ASP623  PHE694  ASN695  SER759  ASP760  ASP761  ALA762  ILE779  LEU786  VAL792 
 PHE793  MET794  SER795  GLU796  ALA797  LYS798  CYS799  TRP800  GLU811  SER814 

> <Gold.Protein.RotatedAtoms>
  151.8369  135.0603  160.0443 H   0  0  0  0  0  0  0  0  0  0  0  0  # atno 6907 bound_to 6896
  152.2838  133.5491  159.5523 H   0  0  0  0  0  0  0  0  0  0  0  0  # atno 6908 bound_to 6896
  150.7200  134.0442  159.3818 H   0  0  0  0  0  0  0  0  0  0  0  0  # atno 6909 bound_to 6896
  144.7259  139.9553  143.6433 H   0  0  0  0  0  0  0  0  0  0  0  0  # atno 7974 bound_to 7965
  155.7685  140.3485  155.5235 H   0  0  0  0  0  0  0  0  0  0  0  0  # atno 8008 bound_to 7997
  155.8844  140.1007  157.1483 H   0  0  0  0  0  0  0  0  0  0  0  0  # atno 8009 bound_to 7997
  154.4027  140.1316  156.4224 H   0  0  0  0  0  0  0  0  0  0  0  0  # atno 8010 bound_to 7997
  140.6083  143.8461  150.7037 H   0  0  0  0  0  0  0  0  0  0  0  0  # atno 10167 bound_to 10162
  157.6889  131.0650  150.4849 H   0  0  0  0  0  0  0  0  0  0  0  0  # atno 10718 bound_to 10713
  153.2456  135.6908  153.7735 H   0  0  0  0  0  0  0  0  0  0  0  0  # atno 10763 bound_to 10752
  153.6849  135.3322  155.3188 H   0  0  0  0  0  0  0  0  0  0  0  0  # atno 10764 bound_to 10752
  154.8373  135.4531  154.1394 H   0  0  0  0  0  0  0  0  0  0  0  0  # atno 10765 bound_to 10752
  139.9206  134.7776  156.1671 H   0  0  0  0  0  0  0  0  0  0  0  0  # atno 11005 bound_to 11000
  146.0680  139.3670  143.0540 LP  0  0  0  0  0  0  0  0  0  0  0  0  # atno 17320 bound_to 7965
  145.8006  140.9773  143.1001 LP  0  0  0  0  0  0  0  0  0  0  0  0  # atno 17321 bound_to 7965
  140.2024  143.3949  152.1781 LP  0  0  0  0  0  0  0  0  0  0  0  0  # atno 17342 bound_to 10162
  139.5342  144.7191  151.4952 LP  0  0  0  0  0  0  0  0  0  0  0  0  # atno 17343 bound_to 10162
  156.5179  130.4155  149.6266 LP  0  0  0  0  0  0  0  0  0  0  0  0  # atno 17370 bound_to 10713
  156.3181  130.7265  151.2172 LP  0  0  0  0  0  0  0  0  0  0  0  0  # atno 17371 bound_to 10713
  141.0723  133.6791  156.2165 LP  0  0  0  0  0  0  0  0  0  0  0  0  # atno 17394 bound_to 11000
  140.6486  134.5090  157.5575 LP  0  0  0  0  0  0  0  0  0  0  0  0  # atno 17395 bound_to 11000

$$$$
