AV-unprocessed.smi:109|AV-procd|sdf|1034|dock2
  -GOLD-   2262018 43D 1   1.00000     0.00000
 Structure written by MMmdl.
 58 61  0  0  0  0  0  0  0  0  1 V2000
  152.6608  139.4089  155.6564 O   0  0  0  0  0  0  0  0  0  0  0  0
  151.7748  139.9449  156.6151 C   0  0  0  0  0  0  0  0  0  0  0  0
  150.9307  141.0615  155.9800 C   0  0  0  0  0  0  0  0  0  0  0  0
  150.4432  142.1053  157.0091 C   0  0  1  0  0  0  0  0  0  0  0  0
  149.2837  141.5826  157.7322 N   0  0  0  0  0  0  0  0  0  0  0  0
  148.9315  140.2793  157.6631 C   0  0  0  0  0  0  0  0  0  0  0  0
  149.4766  139.3540  158.4950 N   0  0  0  0  0  0  0  0  0  0  0  0
  149.1025  138.0745  158.4086 C   0  0  0  0  0  0  0  0  0  0  0  0
  148.2155  137.5195  157.5806 N   0  0  0  0  0  0  0  0  0  0  0  0
  147.6637  138.4430  156.7407 C   0  0  0  0  0  0  0  0  0  0  0  0
  147.9690  139.8329  156.7206 C   0  0  0  0  0  0  0  0  0  0  0  0
  147.2171  140.4666  155.7403 N   0  0  0  0  0  0  0  0  0  0  0  0
  146.5077  139.5040  155.2157 C   0  0  0  0  0  0  0  0  0  0  0  0
  146.7090  138.2546  155.7592 N   0  0  0  0  0  0  0  0  0  0  0  0
  146.0312  136.9763  155.3639 C   0  0  1  0  0  0  0  0  0  0  0  0
  145.1303  137.2295  154.3242 O   0  0  0  0  0  0  0  0  0  0  0  0
  145.4477  136.4124  153.2007 C   0  0  2  0  0  0  0  0  0  0  0  0
  144.1874  136.1116  152.3704 C   0  0  0  0  0  0  0  0  0  0  0  0
  143.4606  137.2836  152.0638 O   0  0  0  0  0  0  0  0  0  0  0  0
  146.2011  135.2171  153.7898 C   0  0  1  0  0  0  0  0  0  0  0  0
  146.9928  134.5253  152.8422 O   0  0  0  0  0  0  0  0  0  0  0  0
  147.0166  135.8867  154.8883 C   0  0  1  0  0  0  0  0  0  0  0  0
  148.2519  136.4056  154.4185 O   0  0  0  0  0  0  0  0  0  0  0  0
  151.5415  142.5837  157.9984 C   0  0  0  0  0  0  0  0  0  0  0  0
  151.7799  141.5863  159.1531 C   0  0  0  0  0  0  0  0  0  0  0  0
  152.9402  142.0377  160.0552 C   0  0  0  0  0  0  0  0  0  0  0  0
  152.6994  143.4526  160.6040 C   0  0  0  0  0  0  0  0  0  0  0  0
  152.4579  144.4553  159.4649 C   0  0  0  0  0  0  0  0  0  0  0  0
  151.2998  144.0035  158.5598 C   0  0  0  0  0  0  0  0  0  0  0  0
  145.4685  136.6764  156.2487 H   0  0  0  0  0  0  0  0  0  0  0  0
  146.1351  136.9900  152.5808 H   0  0  0  0  0  0  0  0  0  0  0  0
  145.5060  134.5145  154.2506 H   0  0  0  0  0  0  0  0  0  0  0  0
  147.2270  135.2017  155.7101 H   0  0  0  0  0  0  0  0  0  0  0  0
  152.5612  138.4690  155.6485 H   0  0  0  0  0  0  0  0  0  0  0  0
  151.1350  139.1467  156.9928 H   0  0  0  0  0  0  0  0  0  0  0  0
  152.3560  140.3230  157.4567 H   0  0  0  0  0  0  0  0  0  0  0  0
  151.5081  141.5504  155.1943 H   0  0  0  0  0  0  0  0  0  0  0  0
  150.0772  140.5980  155.4869 H   0  0  0  0  0  0  0  0  0  0  0  0
  150.1238  142.9745  156.4330 H   0  0  0  0  0  0  0  0  0  0  0  0
  148.7656  142.2598  158.2735 H   0  0  0  0  0  0  0  0  0  0  0  0
  149.5800  137.3993  159.1032 H   0  0  0  0  0  0  0  0  0  0  0  0
  145.8075  139.6815  154.4125 H   0  0  0  0  0  0  0  0  0  0  0  0
  144.4514  135.5919  151.4491 H   0  0  0  0  0  0  0  0  0  0  0  0
  143.5284  135.4487  152.9314 H   0  0  0  0  0  0  0  0  0  0  0  0
  143.6038  137.4958  151.1541 H   0  0  0  0  0  0  0  0  0  0  0  0
  147.8179  134.9772  152.7537 H   0  0  0  0  0  0  0  0  0  0  0  0
  148.2854  136.2959  153.4807 H   0  0  0  0  0  0  0  0  0  0  0  0
  152.4776  142.6203  157.4390 H   0  0  0  0  0  0  0  0  0  0  0  0
  150.8820  141.4833  159.7618 H   0  0  0  0  0  0  0  0  0  0  0  0
  151.9966  140.5959  158.7513 H   0  0  0  0  0  0  0  0  0  0  0  0
  153.0643  141.3356  160.8800 H   0  0  0  0  0  0  0  0  0  0  0  0
  153.8726  142.0181  159.4898 H   0  0  0  0  0  0  0  0  0  0  0  0
  151.8369  143.4433  161.2719 H   0  0  0  0  0  0  0  0  0  0  0  0
  153.5527  143.7693  161.2044 H   0  0  0  0  0  0  0  0  0  0  0  0
  152.2435  145.4414  159.8778 H   0  0  0  0  0  0  0  0  0  0  0  0
  153.3668  144.5601  158.8709 H   0  0  0  0  0  0  0  0  0  0  0  0
  151.1793  144.7171  157.7443 H   0  0  0  0  0  0  0  0  0  0  0  0
  150.3730  144.0287  159.1337 H   0  0  0  0  0  0  0  0  0  0  0  0
  1  2  1  0  0  0  0
  1 34  1  0  0  0  0
  2  3  1  0  0  0  0
  2 35  1  0  0  0  0
  2 36  1  0  0  0  0
  3  4  1  0  0  0  0
  3 37  1  0  0  0  0
  3 38  1  0  0  0  0
  4  5  1  0  0  0  0
  4 24  1  0  0  0  0
  4 39  1  0  0  0  0
  5  6  1  0  0  0  0
  5 40  1  0  0  0  0
  6 11  1  0  0  0  0
  6  7  2  0  0  0  0
  7  8  1  0  0  0  0
  8  9  2  0  0  0  0
  8 41  1  0  0  0  0
  9 10  1  0  0  0  0
 10 14  1  0  0  0  0
 10 11  2  0  0  0  0
 11 12  1  0  0  0  0
 12 13  2  0  0  0  0
 13 14  1  0  0  0  0
 13 42  1  0  0  0  0
 14 15  1  0  0  0  0
 15 30  1  0  0  0  0
 15 22  1  0  0  0  0
 15 16  1  0  0  0  0
 16 17  1  0  0  0  0
 17 31  1  0  0  0  0
 17 18  1  0  0  0  0
 17 20  1  0  0  0  0
 18 19  1  0  0  0  0
 18 43  1  0  0  0  0
 18 44  1  0  0  0  0
 19 45  1  0  0  0  0
 20 32  1  0  0  0  0
 20 21  1  0  0  0  0
 20 22  1  0  0  0  0
 21 46  1  0  0  0  0
 22 33  1  0  0  0  0
 22 23  1  0  0  0  0
 23 47  1  0  0  0  0
 24 29  1  0  0  0  0
 24 25  1  0  0  0  0
 24 48  1  0  0  0  0
 25 26  1  0  0  0  0
 25 49  1  0  0  0  0
 25 50  1  0  0  0  0
 26 27  1  0  0  0  0
 26 51  1  0  0  0  0
 26 52  1  0  0  0  0
 27 28  1  0  0  0  0
 27 53  1  0  0  0  0
 27 54  1  0  0  0  0
 28 29  1  0  0  0  0
 28 55  1  0  0  0  0
 28 56  1  0  0  0  0
 29 57  1  0  0  0  0
 29 58  1  0  0  0  0
M  END
> <s_m_source_file>
AV-unprocessed.smi

> <i_m_source_file_index>
109

> <i_lp_mmshare_version>
43012

> <i_f3d_flags>
0

> <s_epik_input>
W0NIMl0xW0NIMl1bQ0gyXVtDSDJdW0NIMl1bQ0hdMVtDQEhdKFtDSDJdW0NIMl1bT0hdKVtOSF1jKG5bY0hdbjIpYyhjMjMpbltjSF1uM1tDQEBIXTRPW0NASF0oW0NIMl1bT0hdKVtDQEBIXShbT0hdKVtDQEhdNFtPSF0=

> <s_epik_cmdline>
J2VwaWtfcHl0aG9uJywgJy1waCcsICc3LjAnLCAnLXRuJywgJzgnLCAnLW1hJywgJzIwMCcsICctbWV0YWxfYmluZGluZycsICctaW1hZScsICc8aW5maWxlLm1hZT4nLCAnLW9tYWUnLCAnPG91dGZpbGUubWFlPic=

> <r_lp_tautomer_probability>
1

> <r_epik_Ionization_Penalty>
0.000793976

> <r_epik_Ionization_Penalty_Charging>
0

> <r_epik_Ionization_Penalty_Neutral>
0.000793976

> <r_epik_State_Penalty>
-0

> <r_epik_Charging_Adjusted_Penalty>
0

> <i_epik_Tot_Q>
0

> <i_epik_Tot_abs_Q>
0

> <r_epik_Metal_State_Penalty>
-0

> <b_epik_Metal_Only>
0

> <s_epik_Chemistry_Notes>
This compound contains an acetal/aminal-like group ( X-CH(R)-Y where X, Y are N, S, or O) that may be acid/base labile, releasing an aldehyde.

> <s_lp_Force_Field>
OPLS_2005

> <r_lp_Energy>
63.9822

> <b_lp_Chiralities_Consistent>
1

> <s_lp_Variant>
AV-unprocessed.smi:109-4

> <Gold.Version>
5.8.1

> <Gold.Id.Protein>
6NUR|6NUR_protein|mol2

> <Gold.PLP.Fitness>
46.5361

> <Gold.PLP.PLP>
-38.1584

> <Gold.PLP.part.hbond>
-3.7832

> <Gold.PLP.part.metal>
0.0000

> <Gold.PLP.part.buried>
-6.4412

> <Gold.PLP.part.nonpolar>
-28.1959

> <Gold.PLP.part.repulsive>
0.1946

> <Gold.PLP.ligand.clash>
0.8012

> <Gold.PLP.ligand.torsion>
1.5936

> <Gold.PLP.Chemscore.Hbond>
4.0000

> <Gold.PLP.Chemscore.CHOScore>
0.0000

> <Gold.PLP.Chemscore.Metal>
0.0000

> <Gold.Chemscore.Hbonds>
donor molecule, donor type, donor heavy atom, donor atom, acceptor molecule, acceptor atom, score
      L1  H    19    45       P1 10171  1.00
      L1  H    21    46       P1  7948  1.00
      L1  H    23    47       P1  7948  1.00
      P1  H  7997  8008       L1     1  1.00

> <Gold.PLP.Chemscore.Internal.Correction>
0.3660

> <Gold.Rescore>
     Score         DG    S(hbond)    S(metal)    S(lipo)     H(rot)  DE(clash)    DE(int)     intcor
     13.24     -15.20       3.70        0.00      96.93       5.47       0.00       1.96       ----

> <Gold.Chemscore.Fitness>
13.2378

> <Gold.Chemscore.DG>
-15.1954

> <Gold.Chemscore.ZeroCoef>
-5.4800

> <Gold.Chemscore.Hbond>
3.7029

> <Gold.Chemscore.Metal>
0.0000

> <Gold.Chemscore.Lipo>
96.9336

> <Gold.Chemscore.Internal_Hbond>
0.0000

> <Gold.Chemscore.DEClash>
0.0021

> <Gold.Chemscore.DEInternal>
1.9555

> <Gold.Chemscore.Rot>
5.4662

> <Gold.Chemscore.Internal.Correction>
   9.000000E+99

> <Gold.Chemscore.Hbonds>
donor molecule, donor type, donor heavy atom, donor atom, acceptor molecule, acceptor atom, score
      L1  H    19    45       P1 10171  0.96
      L1  H    21    46       P1  7948  0.92
      L1  H    23    47       P1  7948  0.99
      P1  H  7997  8008       L1     1  0.70

> <Gold.Chemscore.Hbond.Weighted>
-12.3677

> <Gold.Chemscore.Metal.Weighted>
-0.0000

> <Gold.Chemscore.Lipo.Weighted>
-11.3412

> <Gold.Chemscore.Internal_Hbond.Weighted>
0.0000

> <Gold.Chemscore.DEClash.Weighted>
0.0021

> <Gold.Chemscore.DEInternal.Weighted>
1.9555

> <Gold.Chemscore.Rot.Weighted>
13.9935

> <Gold.Chemscore.Internal.Correction.Weighted>
   9.000000E+99

> <Gold.Protein.RotatedTorsions>
[ 6907 6896 6895 6894 ] final  175.16 input  -60.11 | X-H torsion
[ 7974 7965 7964 7962 ] final  160.69 input  175.53 | X-H torsion
[ 8008 7997 7996 7995 ] final  -14.24 input   59.86 | X-H torsion
[ 10167 10162 10161 10158 ] final  167.95 input  -65.29 | X-H torsion
[ 10718 10713 10712 10709 ] final   95.39 input   66.30 | X-H torsion
[ 10763 10752 10751 10750 ] final  -64.50 input  -60.55 | X-H torsion
[ 11005 11000 10999 10996 ] final   56.73 input  -57.11 | X-H torsion

> <Gold.Protein.ActiveResidues>
 VAL166  LYS551  ARG553  GLY616  TRP617  ASP618  TYR619  PRO620  LYS621  CYS622 
 ASP623  PHE694  ASN695  SER759  ASP760  ASP761  ALA762  ILE779  LEU786  VAL792 
 PHE793  MET794  SER795  GLU796  ALA797  LYS798  CYS799  TRP800  GLU811  SER814 

> <Gold.Protein.RotatedAtoms>
  151.7407  133.3322  159.3364 H   0  0  0  0  0  0  0  0  0  0  0  0  # atno 6907 bound_to 6896
  150.7574  134.6280  159.6181 H   0  0  0  0  0  0  0  0  0  0  0  0  # atno 6908 bound_to 6896
  152.3532  134.6978  160.0281 H   0  0  0  0  0  0  0  0  0  0  0  0  # atno 6909 bound_to 6896
  144.7724  139.7793  143.6292 H   0  0  0  0  0  0  0  0  0  0  0  0  # atno 7974 bound_to 7965
  154.5226  140.2228  155.8947 H   0  0  0  0  0  0  0  0  0  0  0  0  # atno 8008 bound_to 7997
  156.1679  140.3128  155.8886 H   0  0  0  0  0  0  0  0  0  0  0  0  # atno 8009 bound_to 7997
  155.3619  140.0461  157.3037 H   0  0  0  0  0  0  0  0  0  0  0  0  # atno 8010 bound_to 7997
  139.4957  144.3866  151.9563 H   0  0  0  0  0  0  0  0  0  0  0  0  # atno 10167 bound_to 10162
  157.6939  131.0544  150.4332 H   0  0  0  0  0  0  0  0  0  0  0  0  # atno 10718 bound_to 10713
  154.3310  135.6176  153.5551 H   0  0  0  0  0  0  0  0  0  0  0  0  # atno 10763 bound_to 10752
  152.9811  135.5747  154.4962 H   0  0  0  0  0  0  0  0  0  0  0  0  # atno 10764 bound_to 10752
  154.4648  135.2857  155.1663 H   0  0  0  0  0  0  0  0  0  0  0  0  # atno 10765 bound_to 10752
  140.0507  134.5741  155.9268 H   0  0  0  0  0  0  0  0  0  0  0  0  # atno 11005 bound_to 11000
  146.1879  139.5104  142.9824 LP  0  0  0  0  0  0  0  0  0  0  0  0  # atno 17320 bound_to 7965
  145.6286  141.0308  143.1876 LP  0  0  0  0  0  0  0  0  0  0  0  0  # atno 17321 bound_to 7965
  140.3303  144.3324  150.5989 LP  0  0  0  0  0  0  0  0  0  0  0  0  # atno 17342 bound_to 10162
  140.5650  143.2187  151.7699 LP  0  0  0  0  0  0  0  0  0  0  0  0  # atno 17343 bound_to 10162
  156.4697  130.4050  149.6526 LP  0  0  0  0  0  0  0  0  0  0  0  0  # atno 17370 bound_to 10713
  156.3611  130.7482  151.2454 LP  0  0  0  0  0  0  0  0  0  0  0  0  # atno 17371 bound_to 10713
  141.1929  133.6577  156.5521 LP  0  0  0  0  0  0  0  0  0  0  0  0  # atno 17394 bound_to 11000
  140.3922  134.7430  157.4729 LP  0  0  0  0  0  0  0  0  0  0  0  0  # atno 17395 bound_to 11000

$$$$
