AV-unprocessed.smi:644|AV-procd|sdf|3158|dock5
  -GOLD-   22720 0 83D 1   1.00000     0.00000
 Structure written by MMmdl.
 38 40  0  0  0  0  0  0  0  0  2 V2000
  152.5310  143.8868  160.1121 C   0  0  0  0  0  0  0  0  0  0  0  0
  152.1896  142.8043  159.1023 C   0  0  0  0  0  0  0  0  0  0  0  0
  151.2915  143.1162  158.0564 C   0  0  0  0  0  0  0  0  0  0  0  0
  150.9976  142.1046  157.1497 C   0  0  0  0  0  0  0  0  0  0  0  0
  150.1634  142.0917  156.0293 N   0  3  0  0  0  0  0  0  0  0  0  0
  150.1968  140.8585  155.4520 C   0  0  0  0  0  0  0  0  0  0  0  0
  151.0409  140.0852  156.1874 N   0  0  0  0  0  0  0  0  0  0  0  0
  151.4304  138.6802  156.0118 C   0  0  0  0  0  0  0  0  0  0  0  0
  150.7448  138.0192  154.8005 C   0  0  1  0  0  0  0  0  0  0  0  0
  151.6315  137.0882  154.2095 O   0  0  0  0  0  0  0  0  0  0  0  0
  149.4435  137.3038  155.1957 C   0  0  0  0  0  0  0  0  0  0  0  0
  149.7657  135.7552  156.0952 S   0  0  0  0  0  0  0  0  0  0  0  0
  150.3400  136.4010  157.6334 C   0  0  0  0  0  0  0  0  0  0  0  0
  151.5813  136.2543  158.1191 N   0  0  0  0  0  0  0  0  0  0  0  0
  151.7426  136.8713  159.3525 N   0  0  0  0  0  0  0  0  0  0  0  0
  150.6149  137.4629  159.7537 C   0  0  0  0  0  0  0  0  0  0  0  0
  149.2492  137.3217  158.6627 S   0  0  0  0  0  0  0  0  0  0  0  0
  151.5641  140.8198  157.2559 C   0  0  0  0  0  0  0  0  0  0  0  0
  152.4510  140.4952  158.2791 C   0  0  0  0  0  0  0  0  0  0  0  0
  152.7619  141.5101  159.2121 C   0  0  0  0  0  0  0  0  0  0  0  0
  153.7257  141.1853  160.3408 C   0  0  0  0  0  0  0  0  0  0  0  0
  152.0084  144.8179  159.8913 H   0  0  0  0  0  0  0  0  0  0  0  0
  153.6012  144.0954  160.1030 H   0  0  0  0  0  0  0  0  0  0  0  0
  152.2466  143.5761  161.1177 H   0  0  0  0  0  0  0  0  0  0  0  0
  150.8513  144.0987  157.9671 H   0  0  0  0  0  0  0  0  0  0  0  0
  149.6489  140.5479  154.5740 H   0  0  0  0  0  0  0  0  0  0  0  0
  152.5149  138.6523  155.8961 H   0  0  0  0  0  0  0  0  0  0  0  0
  151.2032  138.1425  156.9331 H   0  0  0  0  0  0  0  0  0  0  0  0
  150.5157  138.7830  154.0567 H   0  0  0  0  0  0  0  0  0  0  0  0
  151.3262  136.8988  153.3349 H   0  0  0  0  0  0  0  0  0  0  0  0
  148.8219  137.9590  155.8076 H   0  0  0  0  0  0  0  0  0  0  0  0
  148.8732  137.0643  154.2976 H   0  0  0  0  0  0  0  0  0  0  0  0
  150.5871  137.9855  160.6983 H   0  0  0  0  0  0  0  0  0  0  0  0
  152.8844  139.5095  158.3620 H   0  0  0  0  0  0  0  0  0  0  0  0
  154.0657  140.1506  160.2901 H   0  0  0  0  0  0  0  0  0  0  0  0
  153.2452  141.3300  161.3087 H   0  0  0  0  0  0  0  0  0  0  0  0
  154.6051  141.8278  160.2904 H   0  0  0  0  0  0  0  0  0  0  0  0
  149.6089  142.8643  155.6834 H   0  0  0  0  0  0  0  0  0  0  0  0
  1  2  1  0  0  0  0
  1 22  1  0  0  0  0
  1 23  1  0  0  0  0
  1 24  1  0  0  0  0
  2 20  1  0  0  0  0
  2  3  2  0  0  0  0
  3  4  1  0  0  0  0
  3 25  1  0  0  0  0
  4 18  2  0  0  0  0
  4  5  1  0  0  0  0
  5  6  2  0  0  0  0
  5 38  1  0  0  0  0
  6  7  1  0  0  0  0
  6 26  1  0  0  0  0
  7  8  1  0  0  0  0
  7 18  1  0  0  0  0
  8  9  1  0  0  0  0
  8 27  1  0  0  0  0
  8 28  1  0  0  0  0
  9 10  1  0  0  0  0
  9 11  1  0  0  0  0
  9 29  1  0  0  0  0
 10 30  1  0  0  0  0
 11 12  1  0  0  0  0
 11 31  1  0  0  0  0
 11 32  1  0  0  0  0
 12 13  1  0  0  0  0
 13 17  1  0  0  0  0
 13 14  2  0  0  0  0
 14 15  1  0  0  0  0
 15 16  2  0  0  0  0
 16 17  1  0  0  0  0
 16 33  1  0  0  0  0
 18 19  1  0  0  0  0
 19 20  2  0  0  0  0
 19 34  1  0  0  0  0
 20 21  1  0  0  0  0
 21 35  1  0  0  0  0
 21 36  1  0  0  0  0
 21 37  1  0  0  0  0
M  CHG  1   5   1
M  END
> <s_m_source_file>
AV-unprocessed.smi

> <i_m_source_file_index>
644

> <i_lp_mmshare_version>
43012

> <i_f3d_flags>
0

> <s_epik_input>
W0NIM11jKFtjSF0xKWMoW0NIM10pW2NIXWMoYzEyKW4oW2NIXW4yKVtDSDJdW0NASF0oW09IXSlbQ0gyXVNjM25uW2NIXXMz

> <s_epik_cmdline>
J2VwaWtfcHl0aG9uJywgJy1waCcsICc3LjAnLCAnLXRuJywgJzgnLCAnLW1hJywgJzIwMCcsICctbWV0YWxfYmluZGluZycsICctaW1hZScsICc8aW5maWxlLm1hZT4nLCAnLW9tYWUnLCAnPG91dGZpbGUubWFlPic=

> <r_lp_tautomer_probability>
1

> <r_epik_Ionization_Penalty>
1.07492

> <r_epik_Ionization_Penalty_Charging>
1.07491

> <r_epik_Ionization_Penalty_Neutral>
3.80549e-06

> <r_epik_State_Penalty>
1.12982

> <r_epik_Charging_Adjusted_Penalty>
2.20473

> <i_epik_Tot_Q>
1

> <i_epik_Tot_abs_Q>
1

> <r_epik_Metal_State_Penalty>
1.2206

> <b_epik_Metal_Only>
0

> <s_lp_Force_Field>
OPLS_2005

> <r_lp_Energy>
12.6095

> <b_lp_Chiralities_Consistent>
1

> <s_lp_Variant>
AV-unprocessed.smi:644-4

> <Gold.Version>
5.8.1

> <Gold.Id.Protein>
6NUR|6NUR_protein|mol2

> <Gold.PLP.Fitness>
54.8042

> <Gold.PLP.PLP>
-41.9381

> <Gold.PLP.part.hbond>
-4.9194

> <Gold.PLP.part.metal>
0.0000

> <Gold.PLP.part.buried>
-5.0803

> <Gold.PLP.part.nonpolar>
-33.5420

> <Gold.PLP.part.repulsive>
0.1211

> <Gold.PLP.ligand.clash>
0.0000

> <Gold.PLP.ligand.torsion>
0.5950

> <Gold.PLP.Chemscore.Hbond>
4.6656

> <Gold.PLP.Chemscore.CHOScore>
0.0000

> <Gold.PLP.Chemscore.Metal>
0.0000

> <Gold.Chemscore.Hbonds>
donor molecule, donor type, donor heavy atom, donor atom, acceptor molecule, acceptor atom, score
      L1  H     5    38       P1  8028  2.00
      L1  H    10    30       P1  7949  0.93
      P1  H  6896  6908       L1    15  0.22
      P1  H 10752 10765       L1    10  0.75

> <Gold.PLP.Chemscore.Internal.Correction>
0.0594

> <Gold.Rescore>
     Score         DG    S(hbond)    S(metal)    S(lipo)     H(rot)  DE(clash)    DE(int)     intcor
     18.79     -19.87       2.44        0.00     108.85       2.53       0.36       0.72       ----

> <Gold.Chemscore.Fitness>
18.7896

> <Gold.Chemscore.DG>
-19.8739

> <Gold.Chemscore.ZeroCoef>
-5.4800

> <Gold.Chemscore.Hbond>
2.4370

> <Gold.Chemscore.Metal>
0.0000

> <Gold.Chemscore.Lipo>
108.8452

> <Gold.Chemscore.Internal_Hbond>
0.0000

> <Gold.Chemscore.DEClash>
0.3645

> <Gold.Chemscore.DEInternal>
0.7198

> <Gold.Chemscore.Rot>
2.5315

> <Gold.Chemscore.Internal.Correction>
   9.000000E+99

> <Gold.Chemscore.Hbonds>
donor molecule, donor type, donor heavy atom, donor atom, acceptor molecule, acceptor atom, score
      L1  H     5    38       P1  8028  0.95
      L1  H    10    30       P1  7949  0.62
      P1  H 10752 10765       L1    10  0.09

> <Gold.Chemscore.Hbond.Weighted>
-8.1395

> <Gold.Chemscore.Metal.Weighted>
-0.0000

> <Gold.Chemscore.Lipo.Weighted>
-12.7349

> <Gold.Chemscore.Internal_Hbond.Weighted>
0.0000

> <Gold.Chemscore.DEClash.Weighted>
0.3645

> <Gold.Chemscore.DEInternal.Weighted>
0.7198

> <Gold.Chemscore.Rot.Weighted>
6.4805

> <Gold.Chemscore.Internal.Correction.Weighted>
   9.000000E+99

> <Gold.Protein.RotatedTorsions>
[ 6907 6896 6895 6894 ] final -100.09 input  -60.11 | X-H torsion
[ 7974 7965 7964 7962 ] final  -52.40 input  175.53 | X-H torsion
[ 8008 7997 7996 7995 ] final    6.72 input   59.86 | X-H torsion
[ 10167 10162 10161 10158 ] final  139.32 input  -65.29 | X-H torsion
[ 10718 10713 10712 10709 ] final  133.45 input   66.30 | X-H torsion
[ 10763 10752 10751 10750 ] final  158.46 input  -60.55 | X-H torsion
[ 11005 11000 10999 10996 ] final  140.31 input  -57.11 | X-H torsion

> <Gold.Protein.ActiveResidues>
 VAL166  LYS551  ARG553  GLY616  TRP617  ASP618  TYR619  PRO620  LYS621  CYS622 
 ASP623  PHE694  ASN695  SER759  ASP760  ASP761  ALA762  ILE779  LEU786  VAL792 
 PHE793  MET794  SER795  GLU796  ALA797  LYS798  CYS799  TRP800  GLU811  SER814 

> <Gold.Protein.RotatedAtoms>
  150.7103  134.0940  159.3941 H   0  0  0  0  0  0  0  0  0  0  0  0  # atno 6907 bound_to 6896
  151.8926  135.0408  160.0508 H   0  0  0  0  0  0  0  0  0  0  0  0  # atno 6908 bound_to 6896
  152.2479  133.5155  159.5345 H   0  0  0  0  0  0  0  0  0  0  0  0  # atno 6909 bound_to 6896
  145.9084  140.7936  142.9708 H   0  0  0  0  0  0  0  0  0  0  0  0  # atno 7974 bound_to 7965
  154.7446  140.2755  155.6344 H   0  0  0  0  0  0  0  0  0  0  0  0  # atno 8008 bound_to 7997
  156.2882  140.2690  156.2109 H   0  0  0  0  0  0  0  0  0  0  0  0  # atno 8009 bound_to 7997
  155.0214  140.0371  157.2428 H   0  0  0  0  0  0  0  0  0  0  0  0  # atno 8010 bound_to 7997
  139.5083  144.6302  151.5837 H   0  0  0  0  0  0  0  0  0  0  0  0  # atno 10167 bound_to 10162
  157.4771  131.1083  150.9729 H   0  0  0  0  0  0  0  0  0  0  0  0  # atno 10718 bound_to 10713
  154.2164  135.2784  155.2940 H   0  0  0  0  0  0  0  0  0  0  0  0  # atno 10763 bound_to 10752
  154.5737  135.5610  153.7123 H   0  0  0  0  0  0  0  0  0  0  0  0  # atno 10764 bound_to 10752
  153.0052  135.6327  154.2303 H   0  0  0  0  0  0  0  0  0  0  0  0  # atno 10765 bound_to 10752
  140.0318  134.9348  157.0676 H   0  0  0  0  0  0  0  0  0  0  0  0  # atno 11005 bound_to 11000
  144.6741  140.1787  143.7408 LP  0  0  0  0  0  0  0  0  0  0  0  0  # atno 17320 bound_to 7965
  145.8703  139.2268  143.1665 LP  0  0  0  0  0  0  0  0  0  0  0  0  # atno 17321 bound_to 7965
  140.6032  143.9572  150.6400 LP  0  0  0  0  0  0  0  0  0  0  0  0  # atno 17342 bound_to 10162
  140.2790  143.3402  152.1168 LP  0  0  0  0  0  0  0  0  0  0  0  0  # atno 17343 bound_to 10162
  157.0474  130.5773  149.5365 LP  0  0  0  0  0  0  0  0  0  0  0  0  # atno 17370 bound_to 10713
  156.0102  130.5193  150.7965 LP  0  0  0  0  0  0  0  0  0  0  0  0  # atno 17371 bound_to 10713
  140.4213  134.1877  155.7164 LP  0  0  0  0  0  0  0  0  0  0  0  0  # atno 17394 bound_to 11000
  141.1835  133.8363  157.1172 LP  0  0  0  0  0  0  0  0  0  0  0  0  # atno 17395 bound_to 11000

$$$$
