AV-unprocessed.smi:1046|AV-procd|sdf|4552|dock2
  -GOLD-   22720 2583D 1   1.00000     0.00000
 Structure written by MMmdl.
 54 56  0  0  0  0  0  0  0  0  3 V2000
  152.8765  143.0598  162.1875 C   0  0  0  0  0  0  0  0  0  0  0  0
  152.4313  142.6221  160.8024 C   0  0  0  0  0  0  0  0  0  0  0  0
  152.7495  141.3138  160.3738 C   0  0  0  0  0  0  0  0  0  0  0  0
  152.3263  140.9422  159.1033 C   0  0  0  0  0  0  0  0  0  0  0  0
  152.4816  139.7440  158.4036 N   0  3  0  0  0  0  0  0  0  0  0  0
  151.8898  139.8508  157.1822 C   0  0  0  0  0  0  0  0  0  0  0  0
  151.3598  141.1010  157.0893 N   0  0  0  0  0  0  0  0  0  0  0  0
  150.6136  141.7215  155.9846 C   0  0  0  0  0  0  0  0  0  0  0  0
  149.7807  140.7056  155.1780 C   0  0  2  0  0  0  0  0  0  0  0  0
  150.6414  139.8926  154.4033 O   0  0  0  0  0  0  0  0  0  0  0  0
  148.7801  141.4080  154.2380 C   0  0  0  0  0  0  0  0  0  0  0  0
  147.7314  142.1625  154.9715 N   0  3  0  0  0  0  0  0  0  0  0  0
  147.2584  141.4410  156.1815 C   0  0  0  0  0  0  0  0  0  0  0  0
  146.2215  142.2896  156.9459 C   0  0  0  0  0  0  0  0  0  0  0  0
  145.0726  142.6743  156.1266 N   0  0  0  0  0  0  0  0  0  0  0  0
  144.1808  141.5469  155.8353 C   0  0  0  0  0  0  0  0  0  0  0  0
  142.7157  141.9308  155.5728 C   0  0  0  0  0  0  0  0  0  0  0  0
  142.1464  141.0091  154.6692 O   0  0  0  0  0  0  0  0  0  0  0  0
  145.5640  143.3832  154.9427 C   0  0  0  0  0  0  0  0  0  0  0  0
  146.5809  142.5672  154.1190 C   0  0  0  0  0  0  0  0  0  0  0  0
  151.6090  141.8192  158.2661 C   0  0  0  0  0  0  0  0  0  0  0  0
  151.2904  143.1132  158.6729 C   0  0  0  0  0  0  0  0  0  0  0  0
  151.7133  143.5111  159.9614 C   0  0  0  0  0  0  0  0  0  0  0  0
  151.3797  144.9173  160.4305 C   0  0  0  0  0  0  0  0  0  0  0  0
  153.3584  142.2443  162.7277 H   0  0  0  0  0  0  0  0  0  0  0  0
  152.0227  143.3911  162.7791 H   0  0  0  0  0  0  0  0  0  0  0  0
  153.5900  143.8813  162.1171 H   0  0  0  0  0  0  0  0  0  0  0  0
  153.2982  140.6323  161.0076 H   0  0  0  0  0  0  0  0  0  0  0  0
  151.8481  139.0812  156.4250 H   0  0  0  0  0  0  0  0  0  0  0  0
  149.9539  142.4680  156.4288 H   0  0  0  0  0  0  0  0  0  0  0  0
  151.3033  142.2708  155.3434 H   0  0  0  0  0  0  0  0  0  0  0  0
  149.2536  140.0625  155.8822 H   0  0  0  0  0  0  0  0  0  0  0  0
  151.1851  139.3833  154.9854 H   0  0  0  0  0  0  0  0  0  0  0  0
  149.3015  142.0887  153.5631 H   0  0  0  0  0  0  0  0  0  0  0  0
  148.3133  140.6529  153.6034 H   0  0  0  0  0  0  0  0  0  0  0  0
  146.8395  140.4741  155.8986 H   0  0  0  0  0  0  0  0  0  0  0  0
  148.1050  141.2359  156.8379 H   0  0  0  0  0  0  0  0  0  0  0  0
  145.8817  141.7510  157.8314 H   0  0  0  0  0  0  0  0  0  0  0  0
  146.7093  143.1917  157.3180 H   0  0  0  0  0  0  0  0  0  0  0  0
  144.5569  140.9671  154.9927 H   0  0  0  0  0  0  0  0  0  0  0  0
  144.1932  140.8677  156.6891 H   0  0  0  0  0  0  0  0  0  0  0  0
  142.1422  141.9200  156.5003 H   0  0  0  0  0  0  0  0  0  0  0  0
  142.6313  142.9284  155.1426 H   0  0  0  0  0  0  0  0  0  0  0  0
  142.7938  140.7871  154.0170 H   0  0  0  0  0  0  0  0  0  0  0  0
  144.7334  143.6917  154.3091 H   0  0  0  0  0  0  0  0  0  0  0  0
  146.0408  144.3109  155.2624 H   0  0  0  0  0  0  0  0  0  0  0  0
  146.9260  143.1785  153.2863 H   0  0  0  0  0  0  0  0  0  0  0  0
  146.1090  141.6861  153.6828 H   0  0  0  0  0  0  0  0  0  0  0  0
  150.7446  143.7933  158.0369 H   0  0  0  0  0  0  0  0  0  0  0  0
  150.8918  145.4951  159.6447 H   0  0  0  0  0  0  0  0  0  0  0  0
  152.2843  145.4520  160.7208 H   0  0  0  0  0  0  0  0  0  0  0  0
  150.7063  144.8836  161.2874 H   0  0  0  0  0  0  0  0  0  0  0  0
  148.1661  143.0119  155.3035 H   0  0  0  0  0  0  0  0  0  0  0  0
  152.9547  138.9125  158.7340 H   0  0  0  0  0  0  0  0  0  0  0  0
  1  2  1  0  0  0  0
  1 25  1  0  0  0  0
  1 26  1  0  0  0  0
  1 27  1  0  0  0  0
  2 23  1  0  0  0  0
  2  3  2  0  0  0  0
  3  4  1  0  0  0  0
  3 28  1  0  0  0  0
  4 21  2  0  0  0  0
  4  5  1  0  0  0  0
  5  6  2  0  0  0  0
  5 54  1  0  0  0  0
  6  7  1  0  0  0  0
  6 29  1  0  0  0  0
  7  8  1  0  0  0  0
  7 21  1  0  0  0  0
  8  9  1  0  0  0  0
  8 30  1  0  0  0  0
  8 31  1  0  0  0  0
  9 10  1  0  0  0  0
  9 11  1  0  0  0  0
  9 32  1  0  0  0  0
 10 33  1  0  0  0  0
 11 12  1  0  0  0  0
 11 34  1  0  0  0  0
 11 35  1  0  0  0  0
 12 20  1  0  0  0  0
 12 13  1  0  0  0  0
 12 53  1  0  0  0  0
 13 14  1  0  0  0  0
 13 36  1  0  0  0  0
 13 37  1  0  0  0  0
 14 15  1  0  0  0  0
 14 38  1  0  0  0  0
 14 39  1  0  0  0  0
 15 16  1  0  0  0  0
 15 19  1  0  0  0  0
 16 17  1  0  0  0  0
 16 40  1  0  0  0  0
 16 41  1  0  0  0  0
 17 18  1  0  0  0  0
 17 42  1  0  0  0  0
 17 43  1  0  0  0  0
 18 44  1  0  0  0  0
 19 20  1  0  0  0  0
 19 45  1  0  0  0  0
 19 46  1  0  0  0  0
 20 47  1  0  0  0  0
 20 48  1  0  0  0  0
 21 22  1  0  0  0  0
 22 23  2  0  0  0  0
 22 49  1  0  0  0  0
 23 24  1  0  0  0  0
 24 50  1  0  0  0  0
 24 51  1  0  0  0  0
 24 52  1  0  0  0  0
M  CHG  1   5   1
M  CHG  1  12   1
M  END
> <s_m_source_file>
AV-unprocessed.smi

> <i_m_source_file_index>
1046

> <i_lp_mmshare_version>
43012

> <i_f3d_flags>
0

> <s_epik_input>
W0NIM11jKFtjSF0xKWMoW0NIM10pW2NIXWMoYzEyKW4oW2NIXW4yKVtDSDJdW0NASF0oW09IXSlbQ0gyXU4zW0NIMl1bQ0gyXU4oW0NIMl1bQ0gyXTMpW0NIMl1bQ0gyXVtPSF0=

> <s_epik_cmdline>
J2VwaWtfcHl0aG9uJywgJy1waCcsICc3LjAnLCAnLXRuJywgJzgnLCAnLW1hJywgJzIwMCcsICctbWV0YWxfYmluZGluZycsICctaW1hZScsICc8aW5maWxlLm1hZT4nLCAnLW9tYWUnLCAnPG91dGZpbGUubWFlPic=

> <r_epik_Ionization_Penalty>
1.22056

> <r_epik_Ionization_Penalty_Charging>
1.17959

> <r_epik_Ionization_Penalty_Neutral>
0.0409743

> <r_epik_State_Penalty>
1.27074

> <r_epik_Charging_Adjusted_Penalty>
2.45032

> <i_epik_Tot_Q>
2

> <i_epik_Tot_abs_Q>
2

> <r_epik_Metal_State_Penalty>
5.26922

> <b_epik_Metal_Only>
0

> <s_lp_Force_Field>
OPLS_2005

> <r_lp_Energy>
41.2385

> <b_lp_Chiralities_Consistent>
1

> <s_lp_Variant>
AV-unprocessed.smi:1046-5

> <Gold.Version>
5.8.1

> <Gold.Id.Protein>
6NUR|6NUR_protein|mol2

> <Gold.PLP.Fitness>
60.4760

> <Gold.PLP.PLP>
-50.5064

> <Gold.PLP.part.hbond>
-4.0000

> <Gold.PLP.part.metal>
0.0000

> <Gold.PLP.part.buried>
-7.0754

> <Gold.PLP.part.nonpolar>
-38.9654

> <Gold.PLP.part.repulsive>
0.3349

> <Gold.PLP.ligand.clash>
0.0000

> <Gold.PLP.ligand.torsion>
1.0753

> <Gold.PLP.Chemscore.Hbond>
4.0000

> <Gold.PLP.Chemscore.CHOScore>
0.0000

> <Gold.PLP.Chemscore.Metal>
0.0000

> <Gold.Chemscore.Hbonds>
donor molecule, donor type, donor heavy atom, donor atom, acceptor molecule, acceptor atom, score
      L1  H    12    53       P1  8028  2.00
      L1  H    18    44       P1 10175  1.00
      P1  H  7989  7998       L1    10  1.00

> <Gold.PLP.Chemscore.Internal.Correction>
0.1203

> <Gold.Rescore>
     Score         DG    S(hbond)    S(metal)    S(lipo)     H(rot)  DE(clash)    DE(int)     intcor
     19.44     -20.70       2.73        0.00     123.98       3.29       0.10       1.16       ----

> <Gold.Chemscore.Fitness>
19.4357

> <Gold.Chemscore.DG>
-20.6955

> <Gold.Chemscore.ZeroCoef>
-5.4800

> <Gold.Chemscore.Hbond>
2.7339

> <Gold.Chemscore.Metal>
0.0000

> <Gold.Chemscore.Lipo>
123.9811

> <Gold.Chemscore.Internal_Hbond>
0.0000

> <Gold.Chemscore.DEClash>
0.0952

> <Gold.Chemscore.DEInternal>
1.1645

> <Gold.Chemscore.Rot>
3.2896

> <Gold.Chemscore.Internal.Correction>
   9.000000E+99

> <Gold.Chemscore.Hbonds>
donor molecule, donor type, donor heavy atom, donor atom, acceptor molecule, acceptor atom, score
      L1  H    12    53       P1  8028  0.96
      L1  H    18    44       P1 10175  0.55
      P1  H  7989  7998       L1    10  0.46

> <Gold.Chemscore.Hbond.Weighted>
-9.1312

> <Gold.Chemscore.Metal.Weighted>
-0.0000

> <Gold.Chemscore.Lipo.Weighted>
-14.5058

> <Gold.Chemscore.Internal_Hbond.Weighted>
0.0000

> <Gold.Chemscore.DEClash.Weighted>
0.0952

> <Gold.Chemscore.DEInternal.Weighted>
1.1645

> <Gold.Chemscore.Rot.Weighted>
8.4215

> <Gold.Chemscore.Internal.Correction.Weighted>
   9.000000E+99

> <Gold.Protein.RotatedTorsions>
[ 6907 6896 6895 6894 ] final  -80.91 input  -60.11 | X-H torsion
[ 7974 7965 7964 7962 ] final -141.30 input  175.53 | X-H torsion
[ 8008 7997 7996 7995 ] final  110.80 input   59.86 | X-H torsion
[ 10167 10162 10161 10158 ] final  -94.20 input  -65.29 | X-H torsion
[ 10718 10713 10712 10709 ] final   98.13 input   66.30 | X-H torsion
[ 10763 10752 10751 10750 ] final   86.60 input  -60.55 | X-H torsion
[ 11005 11000 10999 10996 ] final  -86.73 input  -57.11 | X-H torsion

> <Gold.Protein.ActiveResidues>
 VAL166  LYS551  ARG553  GLY616  TRP617  ASP618  TYR619  PRO620  LYS621  CYS622 
 ASP623  PHE694  ASN695  SER759  ASP760  ASP761  ALA762  ILE779  LEU786  VAL792 
 PHE793  MET794  SER795  GLU796  ALA797  LYS798  CYS799  TRP800  GLU811  SER814 

> <Gold.Protein.RotatedAtoms>
  150.6921  134.3898  159.5071 H   0  0  0  0  0  0  0  0  0  0  0  0  # atno 6907 bound_to 6896
  152.1688  134.8849  160.0545 H   0  0  0  0  0  0  0  0  0  0  0  0  # atno 6908 bound_to 6896
  151.9882  133.3747  159.4171 H   0  0  0  0  0  0  0  0  0  0  0  0  # atno 6909 bound_to 6896
  144.8530  140.6096  143.5378 H   0  0  0  0  0  0  0  0  0  0  0  0  # atno 7974 bound_to 7965
  156.2079  140.3031  155.9667 H   0  0  0  0  0  0  0  0  0  0  0  0  # atno 8008 bound_to 7997
  155.2796  140.0437  157.3031 H   0  0  0  0  0  0  0  0  0  0  0  0  # atno 8009 bound_to 7997
  154.5659  140.2334  155.8274 H   0  0  0  0  0  0  0  0  0  0  0  0  # atno 8010 bound_to 7997
  140.3169  143.3072  152.0088 H   0  0  0  0  0  0  0  0  0  0  0  0  # atno 10167 bound_to 10162
  157.6901  131.0630  150.4749 H   0  0  0  0  0  0  0  0  0  0  0  0  # atno 10718 bound_to 10713
  153.1586  135.4574  154.9739 H   0  0  0  0  0  0  0  0  0  0  0  0  # atno 10763 bound_to 10752
  154.7880  135.3210  154.7844 H   0  0  0  0  0  0  0  0  0  0  0  0  # atno 10764 bound_to 10752
  153.8338  135.6936  153.4865 H   0  0  0  0  0  0  0  0  0  0  0  0  # atno 10765 bound_to 10752
  141.1626  133.7471  156.9204 H   0  0  0  0  0  0  0  0  0  0  0  0  # atno 11005 bound_to 11000
  145.4462  139.1529  143.3943 LP  0  0  0  0  0  0  0  0  0  0  0  0  # atno 17320 bound_to 7965
  146.2800  140.4586  142.8780 LP  0  0  0  0  0  0  0  0  0  0  0  0  # atno 17321 bound_to 7965
  139.4882  144.6341  151.7011 LP  0  0  0  0  0  0  0  0  0  0  0  0  # atno 17342 bound_to 10162
  140.5518  144.0412  150.6130 LP  0  0  0  0  0  0  0  0  0  0  0  0  # atno 17343 bound_to 10162
  156.5084  130.4133  149.6314 LP  0  0  0  0  0  0  0  0  0  0  0  0  # atno 17370 bound_to 10713
  156.3263  130.7307  151.2229 LP  0  0  0  0  0  0  0  0  0  0  0  0  # atno 17371 bound_to 10713
  140.1456  134.9265  157.2524 LP  0  0  0  0  0  0  0  0  0  0  0  0  # atno 17394 bound_to 11000
  140.2784  134.3378  155.7351 LP  0  0  0  0  0  0  0  0  0  0  0  0  # atno 17395 bound_to 11000

$$$$
