AV-unprocessed.smi:685|AV-procd|sdf|3334|dock3
  -GOLD-   22720 0303D 1   1.00000     0.00000
 Structure written by MMmdl.
 50 51  0  0  0  0  0  0  0  0  1 V2000
  147.5995  137.3157  156.3870 C   0  0  0  0  0  0  0  0  0  0  0  0
  147.0701  137.6316  155.0170 C   0  0  0  0  0  0  0  0  0  0  0  0
  145.9371  137.0798  154.6157 N   0  0  0  0  0  0  0  0  0  0  0  0
  145.7472  137.5533  153.3679 N   0  0  0  0  0  0  0  0  0  0  0  0
  144.5742  137.1416  152.6217 C   0  0  0  0  0  0  0  0  0  0  0  0
  146.7638  138.4035  152.9786 C   0  0  0  0  0  0  0  0  0  0  0  0
  146.7841  139.0523  151.6319 C   0  0  0  0  0  0  0  0  0  0  0  0
  147.6435  138.4803  154.0254 C   0  0  0  0  0  0  0  0  0  0  0  0
  148.9254  139.2656  154.1339 C   0  0  0  0  0  0  0  0  0  0  0  0
  148.6780  140.7646  154.4082 C   0  0  1  0  0  0  0  0  0  0  0  0
  147.1955  141.0880  154.6538 C   0  0  0  0  0  0  0  0  0  0  0  0
  149.4571  141.2020  155.5632 N   0  0  0  0  0  0  0  0  0  0  0  0
  150.7474  140.9062  155.7860 C   0  0  0  0  0  0  0  0  0  0  0  0
  151.4247  140.2212  155.0188 O   0  0  0  0  0  0  0  0  0  0  0  0
  151.3629  141.4742  157.0682 C   0  0  0  0  0  0  0  0  0  0  0  0
  151.0684  142.9745  157.2575 C   0  0  0  0  0  0  0  0  0  0  0  0
  151.8646  143.6084  158.4122 C   0  0  0  0  0  0  0  0  0  0  0  0
  151.8873  142.7489  159.6782 C   0  0  0  0  0  0  0  0  0  0  0  0
  152.2839  143.7110  160.8023 C   0  0  0  0  0  0  0  0  0  0  0  0
  151.8798  145.1146  160.3269 C   0  0  0  0  0  0  0  0  0  0  0  0
  151.3079  144.9445  158.9143 C   0  0  0  0  0  0  0  0  0  0  0  0
  147.9944  138.2092  156.8710 H   0  0  0  0  0  0  0  0  0  0  0  0
  148.4063  136.5845  156.3324 H   0  0  0  0  0  0  0  0  0  0  0  0
  146.8235  136.9069  157.0353 H   0  0  0  0  0  0  0  0  0  0  0  0
  144.8812  136.5954  151.7295 H   0  0  0  0  0  0  0  0  0  0  0  0
  144.0026  138.0207  152.3230 H   0  0  0  0  0  0  0  0  0  0  0  0
  143.9370  136.4965  153.2286 H   0  0  0  0  0  0  0  0  0  0  0  0
  147.7156  139.5922  151.4641 H   0  0  0  0  0  0  0  0  0  0  0  0
  145.9625  139.7619  151.5330 H   0  0  0  0  0  0  0  0  0  0  0  0
  146.6870  138.3080  150.8412 H   0  0  0  0  0  0  0  0  0  0  0  0
  149.5702  138.8571  154.9124 H   0  0  0  0  0  0  0  0  0  0  0  0
  149.4961  139.1571  153.2111 H   0  0  0  0  0  0  0  0  0  0  0  0
  149.0020  141.3400  153.5389 H   0  0  0  0  0  0  0  0  0  0  0  0
  146.5843  140.8455  153.7845 H   0  0  0  0  0  0  0  0  0  0  0  0
  147.0552  142.1495  154.8606 H   0  0  0  0  0  0  0  0  0  0  0  0
  146.8024  140.5280  155.5031 H   0  0  0  0  0  0  0  0  0  0  0  0
  148.9787  141.7734  156.2444 H   0  0  0  0  0  0  0  0  0  0  0  0
  150.9712  140.9084  157.9139 H   0  0  0  0  0  0  0  0  0  0  0  0
  152.4409  141.3080  157.0534 H   0  0  0  0  0  0  0  0  0  0  0  0
  151.2738  143.5114  156.3301 H   0  0  0  0  0  0  0  0  0  0  0  0
  150.0047  143.1113  157.4580 H   0  0  0  0  0  0  0  0  0  0  0  0
  152.8964  143.7625  158.0917 H   0  0  0  0  0  0  0  0  0  0  0  0
  150.8898  142.3529  159.8759 H   0  0  0  0  0  0  0  0  0  0  0  0
  152.5686  141.9014  159.5963 H   0  0  0  0  0  0  0  0  0  0  0  0
  151.8058  143.4434  161.7452 H   0  0  0  0  0  0  0  0  0  0  0  0
  153.3623  143.6737  160.9611 H   0  0  0  0  0  0  0  0  0  0  0  0
  151.1507  145.5753  160.9942 H   0  0  0  0  0  0  0  0  0  0  0  0
  152.7565  145.7634  160.3051 H   0  0  0  0  0  0  0  0  0  0  0  0
  151.5680  145.7783  158.2618 H   0  0  0  0  0  0  0  0  0  0  0  0
  150.2194  144.8965  158.9687 H   0  0  0  0  0  0  0  0  0  0  0  0
  1  2  1  0  0  0  0
  1 22  1  0  0  0  0
  1 23  1  0  0  0  0
  1 24  1  0  0  0  0
  2  8  1  0  0  0  0
  2  3  2  0  0  0  0
  3  4  1  0  0  0  0
  4  5  1  0  0  0  0
  4  6  1  0  0  0  0
  5 25  1  0  0  0  0
  5 26  1  0  0  0  0
  5 27  1  0  0  0  0
  6  7  1  0  0  0  0
  6  8  2  0  0  0  0
  7 28  1  0  0  0  0
  7 29  1  0  0  0  0
  7 30  1  0  0  0  0
  8  9  1  0  0  0  0
  9 10  1  0  0  0  0
  9 31  1  0  0  0  0
  9 32  1  0  0  0  0
 10 11  1  0  0  0  0
 10 12  1  0  0  0  0
 10 33  1  0  0  0  0
 11 34  1  0  0  0  0
 11 35  1  0  0  0  0
 11 36  1  0  0  0  0
 12 13  1  0  0  0  0
 12 37  1  0  0  0  0
 13 14  2  0  0  0  0
 13 15  1  0  0  0  0
 15 16  1  0  0  0  0
 15 38  1  0  0  0  0
 15 39  1  0  0  0  0
 16 17  1  0  0  0  0
 16 40  1  0  0  0  0
 16 41  1  0  0  0  0
 17 21  1  0  0  0  0
 17 18  1  0  0  0  0
 17 42  1  0  0  0  0
 18 19  1  0  0  0  0
 18 43  1  0  0  0  0
 18 44  1  0  0  0  0
 19 20  1  0  0  0  0
 19 45  1  0  0  0  0
 19 46  1  0  0  0  0
 20 21  1  0  0  0  0
 20 47  1  0  0  0  0
 20 48  1  0  0  0  0
 21 49  1  0  0  0  0
 21 50  1  0  0  0  0
M  END
> <s_m_source_file>
AV-unprocessed.smi

> <i_m_source_file_index>
685

> <i_lp_mmshare_version>
43012

> <i_f3d_flags>
0

> <s_epik_input>
W0NIM11jMW5uKFtDSDNdKWMoW0NIM10pYzFbQ0gyXVtDQEhdKFtDSDNdKVtOSF1DKD1PKVtDSDJdW0NIMl1bQ0hdMltDSDJdW0NIMl1bQ0gyXVtDSDJdMg==

> <s_epik_cmdline>
J2VwaWtfcHl0aG9uJywgJy1waCcsICc3LjAnLCAnLXRuJywgJzgnLCAnLW1hJywgJzIwMCcsICctbWV0YWxfYmluZGluZycsICctaW1hZScsICc8aW5maWxlLm1hZT4nLCAnLW9tYWUnLCAnPG91dGZpbGUubWFlPic=

> <r_lp_tautomer_probability>
1

> <r_epik_Ionization_Penalty>
0.0131144

> <r_epik_Ionization_Penalty_Charging>
0

> <r_epik_Ionization_Penalty_Neutral>
0.0131144

> <r_epik_State_Penalty>
0.0101889

> <r_epik_Charging_Adjusted_Penalty>
0.0101889

> <i_epik_Tot_Q>
0

> <i_epik_Tot_abs_Q>
0

> <r_epik_Metal_State_Penalty>
0.00996794

> <b_epik_Metal_Only>
0

> <s_lp_Force_Field>
OPLS_2005

> <r_lp_Energy>
16.0397

> <b_lp_Chiralities_Consistent>
1

> <s_lp_Variant>
AV-unprocessed.smi:685-2

> <Gold.Version>
5.8.1

> <Gold.Id.Protein>
6NUR|6NUR_protein|mol2

> <Gold.PLP.Fitness>
42.0020

> <Gold.PLP.PLP>
-42.7923

> <Gold.PLP.part.hbond>
-1.0000

> <Gold.PLP.part.metal>
0.0000

> <Gold.PLP.part.buried>
-2.3876

> <Gold.PLP.part.nonpolar>
-40.0811

> <Gold.PLP.part.repulsive>
0.2158

> <Gold.PLP.ligand.clash>
1.1014

> <Gold.PLP.ligand.torsion>
1.3835

> <Gold.PLP.Chemscore.Hbond>
1.0000

> <Gold.PLP.Chemscore.CHOScore>
0.0000

> <Gold.PLP.Chemscore.Metal>
0.0000

> <Gold.Chemscore.Hbonds>
donor molecule, donor type, donor heavy atom, donor atom, acceptor molecule, acceptor atom, score
      P1  H  7989  7998       L1    14  1.00

> <Gold.PLP.Chemscore.Internal.Correction>
0.0781

> <Gold.Rescore>
     Score         DG    S(hbond)    S(metal)    S(lipo)     H(rot)  DE(clash)    DE(int)     intcor
     15.53     -18.37       0.91        0.00     117.52       1.53       0.05       2.78       ----

> <Gold.Chemscore.Fitness>
15.5339

> <Gold.Chemscore.DG>
-18.3658

> <Gold.Chemscore.ZeroCoef>
-5.4800

> <Gold.Chemscore.Hbond>
0.9115

> <Gold.Chemscore.Metal>
0.0000

> <Gold.Chemscore.Lipo>
117.5213

> <Gold.Chemscore.Internal_Hbond>
0.0000

> <Gold.Chemscore.DEClash>
0.0485

> <Gold.Chemscore.DEInternal>
2.7834

> <Gold.Chemscore.Rot>
1.5268

> <Gold.Chemscore.Internal.Correction>
   9.000000E+99

> <Gold.Chemscore.Hbonds>
donor molecule, donor type, donor heavy atom, donor atom, acceptor molecule, acceptor atom, score
      P1  H  7989  7998       L1    14  0.88

> <Gold.Chemscore.Hbond.Weighted>
-3.0443

> <Gold.Chemscore.Metal.Weighted>
-0.0000

> <Gold.Chemscore.Lipo.Weighted>
-13.7500

> <Gold.Chemscore.Internal_Hbond.Weighted>
0.0000

> <Gold.Chemscore.DEClash.Weighted>
0.0485

> <Gold.Chemscore.DEInternal.Weighted>
2.7834

> <Gold.Chemscore.Rot.Weighted>
3.9086

> <Gold.Chemscore.Internal.Correction.Weighted>
   9.000000E+99

> <Gold.Protein.RotatedTorsions>
[ 6907 6896 6895 6894 ] final   35.07 input  -60.11 | X-H torsion
[ 7974 7965 7964 7962 ] final  -87.72 input  175.53 | X-H torsion
[ 8008 7997 7996 7995 ] final  -28.20 input   59.86 | X-H torsion
[ 10167 10162 10161 10158 ] final   21.22 input  -65.29 | X-H torsion
[ 10718 10713 10712 10709 ] final -111.02 input   66.30 | X-H torsion
[ 10763 10752 10751 10750 ] final  144.29 input  -60.55 | X-H torsion
[ 11005 11000 10999 10996 ] final  -43.96 input  -57.11 | X-H torsion

> <Gold.Protein.ActiveResidues>
 VAL166  LYS551  ARG553  GLY616  TRP617  ASP618  TYR619  PRO620  LYS621  CYS622 
 ASP623  PHE694  ASN695  SER759  ASP760  ASP761  ALA762  ILE779  LEU786  VAL792 
 PHE793  MET794  SER795  GLU796  ALA797  LYS798  CYS799  TRP800  GLU811  SER814 

> <Gold.Protein.RotatedAtoms>
  152.1110  134.9274  160.0566 H   0  0  0  0  0  0  0  0  0  0  0  0  # atno 6907 bound_to 6896
  152.0451  133.3989  159.4361 H   0  0  0  0  0  0  0  0  0  0  0  0  # atno 6908 bound_to 6896
  150.6843  134.3291  159.4863 H   0  0  0  0  0  0  0  0  0  0  0  0  # atno 6909 bound_to 6896
  145.4627  140.9561  143.1960 H   0  0  0  0  0  0  0  0  0  0  0  0  # atno 7974 bound_to 7965
  154.4343  140.1852  156.1051 H   0  0  0  0  0  0  0  0  0  0  0  0  # atno 8008 bound_to 7997
  156.0261  140.3335  155.7064 H   0  0  0  0  0  0  0  0  0  0  0  0  # atno 8009 bound_to 7997
  155.5906  140.0630  157.2750 H   0  0  0  0  0  0  0  0  0  0  0  0  # atno 8010 bound_to 7997
  140.5444  143.9621  150.6538 H   0  0  0  0  0  0  0  0  0  0  0  0  # atno 10167 bound_to 10162
  156.0623  130.5845  150.8316 H   0  0  0  0  0  0  0  0  0  0  0  0  # atno 10718 bound_to 10713
  153.9864  135.2936  155.3416 H   0  0  0  0  0  0  0  0  0  0  0  0  # atno 10763 bound_to 10752
  154.7239  135.5097  153.8859 H   0  0  0  0  0  0  0  0  0  0  0  0  # atno 10764 bound_to 10752
  153.0830  135.6685  154.0122 H   0  0  0  0  0  0  0  0  0  0  0  0  # atno 10765 bound_to 10752
  141.0419  133.6777  156.2806 H   0  0  0  0  0  0  0  0  0  0  0  0  # atno 11005 bound_to 11000
  144.7993  139.6172  143.7079 LP  0  0  0  0  0  0  0  0  0  0  0  0  # atno 17320 bound_to 7965
  146.2442  139.6063  142.9471 LP  0  0  0  0  0  0  0  0  0  0  0  0  # atno 17321 bound_to 7965
  140.3030  143.3248  152.0953 LP  0  0  0  0  0  0  0  0  0  0  0  0  # atno 17342 bound_to 10162
  139.5001  144.6685  151.6300 LP  0  0  0  0  0  0  0  0  0  0  0  0  # atno 17343 bound_to 10162
  157.5641  131.0946  150.9516 LP  0  0  0  0  0  0  0  0  0  0  0  0  # atno 17370 bound_to 10713
  156.9747  130.5504  149.5292 LP  0  0  0  0  0  0  0  0  0  0  0  0  # atno 17371 bound_to 10713
  140.6219  134.5353  157.5548 LP  0  0  0  0  0  0  0  0  0  0  0  0  # atno 17394 bound_to 11000
  139.9282  134.8015  156.1007 LP  0  0  0  0  0  0  0  0  0  0  0  0  # atno 17395 bound_to 11000

$$$$
