AV-unprocessed.smi:760|AV-procd|sdf|3628|dock4
  -GOLD-   22720 1 23D 1   1.00000     0.00000
 Structure written by MMmdl.
 44 45  0  0  0  0  0  0  0  0  2 V2000
  149.6799  132.6648  153.8486 C   0  0  0  0  0  0  0  0  0  0  0  0
  148.9824  133.7261  154.2867 C   0  0  0  0  0  0  0  0  0  0  0  0
  147.5441  133.9690  153.8641 C   0  0  0  0  0  0  0  0  0  0  0  0
  149.5835  134.7303  155.2585 C   0  0  0  0  0  0  0  0  0  0  0  0
  149.6763  136.1004  154.6889 N   0  3  2  0  0  0  0  0  0  0  0  0
  151.0576  136.6394  154.7869 C   0  0  0  0  0  0  0  0  0  0  0  0
  151.1871  137.9895  154.0610 C   0  0  0  0  0  0  0  0  0  0  0  0
  150.1738  139.0232  154.5866 C   0  0  2  0  0  0  0  0  0  0  0  0
  150.5025  139.4657  155.9418 N   0  0  0  0  0  0  0  0  0  0  0  0
  150.8840  140.7070  156.2764 C   0  0  0  0  0  0  0  0  0  0  0  0
  151.0026  141.6232  155.4631 O   0  0  0  0  0  0  0  0  0  0  0  0
  151.1200  140.8089  157.5945 N   0  0  0  0  0  0  0  0  0  0  0  0
  151.5387  141.9637  158.3022 C   0  0  0  0  0  0  0  0  0  0  0  0
  152.5438  142.0942  159.3026 C   0  0  0  0  0  0  0  0  0  0  0  0
  152.6376  143.3475  159.7214 N   0  0  0  0  0  0  0  0  0  0  0  0
  151.7073  144.0277  159.0086 N   0  0  0  0  0  0  0  0  0  0  0  0
  151.5461  145.4496  159.2259 C   0  0  0  0  0  0  0  0  0  0  0  0
  151.0209  143.2124  158.1309 C   0  0  0  0  0  0  0  0  0  0  0  0
  148.7582  138.4256  154.5378 C   0  0  0  0  0  0  0  0  0  0  0  0
  148.6742  137.0548  155.2349 C   0  0  0  0  0  0  0  0  0  0  0  0
  149.2445  131.9481  153.1674 H   0  0  0  0  0  0  0  0  0  0  0  0
  150.6989  132.4960  154.1651 H   0  0  0  0  0  0  0  0  0  0  0  0
  146.8860  133.9122  154.7314 H   0  0  0  0  0  0  0  0  0  0  0  0
  147.2124  133.2208  153.1432 H   0  0  0  0  0  0  0  0  0  0  0  0
  147.4175  134.9506  153.4104 H   0  0  0  0  0  0  0  0  0  0  0  0
  149.0207  134.7408  156.1933 H   0  0  0  0  0  0  0  0  0  0  0  0
  150.5864  134.3803  155.5074 H   0  0  0  0  0  0  0  0  0  0  0  0
  151.3358  136.7450  155.8367 H   0  0  0  0  0  0  0  0  0  0  0  0
  151.7604  135.9317  154.3455 H   0  0  0  0  0  0  0  0  0  0  0  0
  152.2058  138.3682  154.1532 H   0  0  0  0  0  0  0  0  0  0  0  0
  151.0200  137.8364  152.9939 H   0  0  0  0  0  0  0  0  0  0  0  0
  150.1916  139.8973  153.9328 H   0  0  0  0  0  0  0  0  0  0  0  0
  150.4269  138.7795  156.6784 H   0  0  0  0  0  0  0  0  0  0  0  0
  150.9899  139.9758  158.1491 H   0  0  0  0  0  0  0  0  0  0  0  0
  153.1967  141.3502  159.7340 H   0  0  0  0  0  0  0  0  0  0  0  0
  150.5794  145.7779  158.8428 H   0  0  0  0  0  0  0  0  0  0  0  0
  152.3372  145.9917  158.7075 H   0  0  0  0  0  0  0  0  0  0  0  0
  151.5971  145.6738  160.2922 H   0  0  0  0  0  0  0  0  0  0  0  0
  150.2437  143.5841  157.4792 H   0  0  0  0  0  0  0  0  0  0  0  0
  148.0400  139.1164  154.9814 H   0  0  0  0  0  0  0  0  0  0  0  0
  148.4587  138.3092  153.4951 H   0  0  0  0  0  0  0  0  0  0  0  0
  147.6680  136.6675  155.0847 H   0  0  0  0  0  0  0  0  0  0  0  0
  148.8190  137.1633  156.3108 H   0  0  0  0  0  0  0  0  0  0  0  0
  149.4795  136.0086  153.7023 H   0  0  0  0  0  0  0  0  0  0  0  0
  1  2  2  0  0  0  0
  1 21  1  0  0  0  0
  1 22  1  0  0  0  0
  2  3  1  0  0  0  0
  2  4  1  0  0  0  0
  3 23  1  0  0  0  0
  3 24  1  0  0  0  0
  3 25  1  0  0  0  0
  4  5  1  0  0  0  0
  4 26  1  0  0  0  0
  4 27  1  0  0  0  0
  5 20  1  0  0  0  0
  5  6  1  0  0  0  0
  5 44  1  0  0  0  0
  6  7  1  0  0  0  0
  6 28  1  0  0  0  0
  6 29  1  0  0  0  0
  7  8  1  0  0  0  0
  7 30  1  0  0  0  0
  7 31  1  0  0  0  0
  8  9  1  0  0  0  0
  8 19  1  0  0  0  0
  8 32  1  0  0  0  0
  9 10  1  0  0  0  0
  9 33  1  0  0  0  0
 10 11  2  0  0  0  0
 10 12  1  0  0  0  0
 12 13  1  0  0  0  0
 12 34  1  0  0  0  0
 13 18  2  0  0  0  0
 13 14  1  0  0  0  0
 14 15  2  0  0  0  0
 14 35  1  0  0  0  0
 15 16  1  0  0  0  0
 16 17  1  0  0  0  0
 16 18  1  0  0  0  0
 17 36  1  0  0  0  0
 17 37  1  0  0  0  0
 17 38  1  0  0  0  0
 18 39  1  0  0  0  0
 19 20  1  0  0  0  0
 19 40  1  0  0  0  0
 19 41  1  0  0  0  0
 20 42  1  0  0  0  0
 20 43  1  0  0  0  0
M  CHG  1   5   1
M  END
> <s_m_source_file>
AV-unprocessed.smi

> <i_m_source_file_index>
760

> <i_lp_mmshare_version>
43012

> <i_f3d_flags>
0

> <s_epik_input>
W0NIMl09QyhbQ0gzXSlbQ0gyXU4xW0NIMl1bQ0gyXVtDSF0oW0NIMl1bQ0gyXTEpW05IXUMoPU8pW05IXWMyW2NIXW5uKFtDSDNdKVtjSF0y

> <s_epik_cmdline>
J2VwaWtfcHl0aG9uJywgJy1waCcsICc3LjAnLCAnLXRuJywgJzgnLCAnLW1hJywgJzIwMCcsICctbWV0YWxfYmluZGluZycsICctaW1hZScsICc8aW5maWxlLm1hZT4nLCAnLW9tYWUnLCAnPG91dGZpbGUubWFlPic=

> <r_lp_tautomer_probability>
1

> <r_epik_Ionization_Penalty>
0.0194996

> <r_epik_Ionization_Penalty_Charging>
0.0193505

> <r_epik_Ionization_Penalty_Neutral>
0.000149098

> <r_epik_State_Penalty>
0.0154499

> <r_epik_Charging_Adjusted_Penalty>
0.0348004

> <i_epik_Tot_Q>
1

> <i_epik_Tot_abs_Q>
1

> <r_epik_Metal_State_Penalty>
0.0154507

> <b_epik_Metal_Only>
0

> <s_lp_Force_Field>
OPLS_2005

> <r_lp_Energy>
20.0822

> <b_lp_Chiralities_Consistent>
1

> <s_lp_Variant>
AV-unprocessed.smi:760-2

> <Gold.Version>
5.8.1

> <Gold.Id.Protein>
6NUR|6NUR_protein|mol2

> <Gold.PLP.Fitness>
43.0975

> <Gold.PLP.PLP>
-35.4167

> <Gold.PLP.part.hbond>
-2.0000

> <Gold.PLP.part.metal>
0.0000

> <Gold.PLP.part.buried>
-0.6235

> <Gold.PLP.part.nonpolar>
-32.4258

> <Gold.PLP.part.repulsive>
0.2238

> <Gold.PLP.ligand.clash>
0.0000

> <Gold.PLP.ligand.torsion>
1.0984

> <Gold.PLP.Chemscore.Hbond>
2.2930

> <Gold.PLP.Chemscore.CHOScore>
0.9903

> <Gold.PLP.Chemscore.Metal>
0.0000

> <Gold.Chemscore.Hbonds>
donor molecule, donor type, donor heavy atom, donor atom, acceptor molecule, acceptor atom, score
      L1  H     5    44       P1  7948  2.00
      P1  H  7989  7998       L1    11  0.24
      L1  C    18    39       P1  8028  1.00

> <Gold.PLP.Chemscore.Internal.Correction>
0.0278

> <Gold.Rescore>
     Score         DG    S(hbond)    S(metal)    S(lipo)     H(rot)  DE(clash)    DE(int)     intcor
     13.98     -16.66       1.37        0.00      86.60       1.38       1.56       1.12       ----

> <Gold.Chemscore.Fitness>
13.9757

> <Gold.Chemscore.DG>
-16.6554

> <Gold.Chemscore.ZeroCoef>
-5.4800

> <Gold.Chemscore.Hbond>
1.3664

> <Gold.Chemscore.Metal>
0.0000

> <Gold.Chemscore.Lipo>
86.5972

> <Gold.Chemscore.Internal_Hbond>
0.0000

> <Gold.Chemscore.DEClash>
1.5598

> <Gold.Chemscore.DEInternal>
1.1198

> <Gold.Chemscore.Rot>
1.3752

> <Gold.Chemscore.Internal.Correction>
   9.000000E+99

> <Gold.Chemscore.Hbonds>
donor molecule, donor type, donor heavy atom, donor atom, acceptor molecule, acceptor atom, score
      L1  H     5    44       P1  7948  0.55
      P1  H  7989  7998       L1    11  0.21

> <Gold.Chemscore.Hbond.Weighted>
-4.5639

> <Gold.Chemscore.Metal.Weighted>
-0.0000

> <Gold.Chemscore.Lipo.Weighted>
-10.1319

> <Gold.Chemscore.Internal_Hbond.Weighted>
0.0000

> <Gold.Chemscore.DEClash.Weighted>
1.5598

> <Gold.Chemscore.DEInternal.Weighted>
1.1198

> <Gold.Chemscore.Rot.Weighted>
3.5204

> <Gold.Chemscore.Internal.Correction.Weighted>
   9.000000E+99

> <Gold.Protein.RotatedTorsions>
[ 6907 6896 6895 6894 ] final  145.58 input  -60.11 | X-H torsion
[ 7974 7965 7964 7962 ] final  -21.20 input  175.53 | X-H torsion
[ 8008 7997 7996 7995 ] final  -33.65 input   59.86 | X-H torsion
[ 10167 10162 10161 10158 ] final -175.55 input  -65.29 | X-H torsion
[ 10718 10713 10712 10709 ] final -120.62 input   66.30 | X-H torsion
[ 10763 10752 10751 10750 ] final   26.75 input  -60.55 | X-H torsion
[ 11005 11000 10999 10996 ] final -140.33 input  -57.11 | X-H torsion

> <Gold.Protein.ActiveResidues>
 VAL166  LYS551  ARG553  GLY616  TRP617  ASP618  TYR619  PRO620  LYS621  CYS622 
 ASP623  PHE694  ASN695  SER759  ASP760  ASP761  ALA762  ILE779  LEU786  VAL792 
 PHE793  MET794  SER795  GLU796  ALA797  LYS798  CYS799  TRP800  GLU811  SER814 

> <Gold.Protein.RotatedAtoms>
  152.1790  133.4694  159.4948 H   0  0  0  0  0  0  0  0  0  0  0  0  # atno 6907 bound_to 6896
  150.6931  134.1857  159.4275 H   0  0  0  0  0  0  0  0  0  0  0  0  # atno 6908 bound_to 6896
  151.9767  135.0049  160.0606 H   0  0  0  0  0  0  0  0  0  0  0  0  # atno 6909 bound_to 6896
  146.1746  140.4308  142.8519 H   0  0  0  0  0  0  0  0  0  0  0  0  # atno 7974 bound_to 7965
  154.4143  140.1705  156.1922 H   0  0  0  0  0  0  0  0  0  0  0  0  # atno 8008 bound_to 7997
  155.9593  140.3395  155.6453 H   0  0  0  0  0  0  0  0  0  0  0  0  # atno 8009 bound_to 7997
  155.6769  140.0718  157.2490 H   0  0  0  0  0  0  0  0  0  0  0  0  # atno 8010 bound_to 7997
  139.5575  144.1952  152.1184 H   0  0  0  0  0  0  0  0  0  0  0  0  # atno 10167 bound_to 10162
  156.1272  130.6368  150.9563 H   0  0  0  0  0  0  0  0  0  0  0  0  # atno 10718 bound_to 10713
  153.0601  135.6553  154.0483 H   0  0  0  0  0  0  0  0  0  0  0  0  # atno 10763 bound_to 10752
  154.0152  135.2925  155.3389 H   0  0  0  0  0  0  0  0  0  0  0  0  # atno 10764 bound_to 10752
  154.6935  135.5273  153.8494 H   0  0  0  0  0  0  0  0  0  0  0  0  # atno 10765 bound_to 10752
  140.8433  134.2375  157.4799 H   0  0  0  0  0  0  0  0  0  0  0  0  # atno 11005 bound_to 11000
  144.8216  140.6559  143.6349 LP  0  0  0  0  0  0  0  0  0  0  0  0  # atno 17320 bound_to 7965
  145.4247  139.1558  143.4055 LP  0  0  0  0  0  0  0  0  0  0  0  0  # atno 17321 bound_to 7965
  140.1459  144.5159  150.6716 LP  0  0  0  0  0  0  0  0  0  0  0  0  # atno 17342 bound_to 10162
  140.6850  143.2345  151.5284 LP  0  0  0  0  0  0  0  0  0  0  0  0  # atno 17343 bound_to 10162
  157.6453  131.0905  150.8166 LP  0  0  0  0  0  0  0  0  0  0  0  0  # atno 17370 bound_to 10713
  156.8255  130.4998  149.5338 LP  0  0  0  0  0  0  0  0  0  0  0  0  # atno 17371 bound_to 10713
  139.8703  134.9646  156.4502 LP  0  0  0  0  0  0  0  0  0  0  0  0  # atno 17394 bound_to 11000
  140.8871  133.7875  155.9531 LP  0  0  0  0  0  0  0  0  0  0  0  0  # atno 17395 bound_to 11000

$$$$
