AV-unprocessed.smi:2825|AV-procd|sdf|10891|dock9
  -GOLD-   2272015343D 1   1.00000     0.00000
 Structure written by MMmdl.
 49 50  0  0  0  0  0  0  0  0  2 V2000
  147.9457  135.9607  162.6832 C   0  0  0  0  0  0  0  0  0  0  0  0
  147.4169  135.2699  161.4220 C   0  0  0  0  0  0  0  0  0  0  0  0
  147.3768  136.2128  160.2109 C   0  0  0  0  0  0  0  0  0  0  0  0
  149.0125  136.3020  159.3596 S   0  0  0  0  0  0  0  0  0  0  0  0
  150.0058  136.8645  160.2872 O   0  0  0  0  0  0  0  0  0  0  0  0
  149.2658  135.0074  158.7082 O   0  0  0  0  0  0  0  0  0  0  0  0
  148.7355  137.4837  158.1182 N   0  0  0  0  0  0  0  0  0  0  0  0
  147.3499  137.8353  157.7890 C   0  0  0  0  0  0  0  0  0  0  0  0
  149.7029  138.5794  157.9564 C   0  0  0  0  0  0  0  0  0  0  0  0
  150.6865  138.2876  156.8006 C   0  0  1  0  0  0  0  0  0  0  0  0
  149.9639  138.2980  155.5870 O   0  0  0  0  0  0  0  0  0  0  0  0
  151.8178  139.3267  156.6658 C   0  0  0  0  0  0  0  0  0  0  0  0
  151.3217  140.7095  156.7149 N   0  0  0  0  0  0  0  0  0  0  0  0
  150.5313  141.3720  155.8272 C   0  0  0  0  0  0  0  0  0  0  0  0
  150.3555  142.6376  156.2965 N   0  3  0  0  0  0  0  0  0  0  0  0
  151.0387  142.7850  157.5050 C   0  0  0  0  0  0  0  0  0  0  0  0
  151.1593  143.8798  158.3524 C   0  0  0  0  0  0  0  0  0  0  0  0
  151.9376  143.7097  159.5193 C   0  0  0  0  0  0  0  0  0  0  0  0
  152.0918  144.8877  160.4664 C   0  0  0  0  0  0  0  0  0  0  0  0
  152.5646  142.4691  159.8039 C   0  0  0  0  0  0  0  0  0  0  0  0
  153.4030  142.2981  161.0592 C   0  0  0  0  0  0  0  0  0  0  0  0
  152.4273  141.3667  158.9305 C   0  0  0  0  0  0  0  0  0  0  0  0
  151.6578  141.5504  157.7835 C   0  0  0  0  0  0  0  0  0  0  0  0
  147.9632  135.2700  163.5267 H   0  0  0  0  0  0  0  0  0  0  0  0
  147.3173  136.8076  162.9603 H   0  0  0  0  0  0  0  0  0  0  0  0
  148.9609  136.3293  162.5345 H   0  0  0  0  0  0  0  0  0  0  0  0
  148.0420  134.4051  161.1986 H   0  0  0  0  0  0  0  0  0  0  0  0
  146.4155  134.8867  161.6192 H   0  0  0  0  0  0  0  0  0  0  0  0
  146.6193  135.9060  159.4907 H   0  0  0  0  0  0  0  0  0  0  0  0
  147.1234  137.2220  160.5358 H   0  0  0  0  0  0  0  0  0  0  0  0
  147.2974  138.3034  156.8055 H   0  0  0  0  0  0  0  0  0  0  0  0
  146.9515  138.5282  158.5306 H   0  0  0  0  0  0  0  0  0  0  0  0
  146.7188  136.9478  157.7741 H   0  0  0  0  0  0  0  0  0  0  0  0
  149.1965  139.5334  157.7989 H   0  0  0  0  0  0  0  0  0  0  0  0
  150.2278  138.6836  158.9042 H   0  0  0  0  0  0  0  0  0  0  0  0
  151.1367  137.3011  156.9121 H   0  0  0  0  0  0  0  0  0  0  0  0
  149.0477  138.1706  155.7798 H   0  0  0  0  0  0  0  0  0  0  0  0
  152.5187  139.2194  157.4949 H   0  0  0  0  0  0  0  0  0  0  0  0
  152.3972  139.1711  155.7562 H   0  0  0  0  0  0  0  0  0  0  0  0
  150.1281  140.9694  154.9090 H   0  0  0  0  0  0  0  0  0  0  0  0
  150.6805  144.8220  158.1279 H   0  0  0  0  0  0  0  0  0  0  0  0
  153.1401  145.1745  160.5528 H   0  0  0  0  0  0  0  0  0  0  0  0
  151.7183  144.6334  161.4587 H   0  0  0  0  0  0  0  0  0  0  0  0
  151.5360  145.7575  160.1149 H   0  0  0  0  0  0  0  0  0  0  0  0
  153.8307  141.2969  161.1208 H   0  0  0  0  0  0  0  0  0  0  0  0
  152.7946  142.4553  161.9499 H   0  0  0  0  0  0  0  0  0  0  0  0
  154.2267  143.0122  161.0708 H   0  0  0  0  0  0  0  0  0  0  0  0
  152.9107  140.4264  159.1490 H   0  0  0  0  0  0  0  0  0  0  0  0
  149.8126  143.3476  155.8221 H   0  0  0  0  0  0  0  0  0  0  0  0
  1  2  1  0  0  0  0
  1 24  1  0  0  0  0
  1 25  1  0  0  0  0
  1 26  1  0  0  0  0
  2  3  1  0  0  0  0
  2 27  1  0  0  0  0
  2 28  1  0  0  0  0
  3  4  1  0  0  0  0
  3 29  1  0  0  0  0
  3 30  1  0  0  0  0
  4  5  2  0  0  0  0
  4  6  2  0  0  0  0
  4  7  1  0  0  0  0
  7  8  1  0  0  0  0
  7  9  1  0  0  0  0
  8 31  1  0  0  0  0
  8 32  1  0  0  0  0
  8 33  1  0  0  0  0
  9 10  1  0  0  0  0
  9 34  1  0  0  0  0
  9 35  1  0  0  0  0
 10 11  1  0  0  0  0
 10 12  1  0  0  0  0
 10 36  1  0  0  0  0
 11 37  1  0  0  0  0
 12 13  1  0  0  0  0
 12 38  1  0  0  0  0
 12 39  1  0  0  0  0
 13 23  1  0  0  0  0
 13 14  1  0  0  0  0
 14 15  2  0  0  0  0
 14 40  1  0  0  0  0
 15 16  1  0  0  0  0
 15 49  1  0  0  0  0
 16 23  2  0  0  0  0
 16 17  1  0  0  0  0
 17 18  2  0  0  0  0
 17 41  1  0  0  0  0
 18 19  1  0  0  0  0
 18 20  1  0  0  0  0
 19 42  1  0  0  0  0
 19 43  1  0  0  0  0
 19 44  1  0  0  0  0
 20 21  1  0  0  0  0
 20 22  2  0  0  0  0
 21 45  1  0  0  0  0
 21 46  1  0  0  0  0
 21 47  1  0  0  0  0
 22 23  1  0  0  0  0
 22 48  1  0  0  0  0
M  CHG  1  15   1
M  END
> <s_m_source_file>
AV-unprocessed.smi

> <i_m_source_file_index>
2825

> <i_lp_mmshare_version>
43012

> <i_f3d_flags>
0

> <s_epik_input>
W0NIM11bQ0gyXVtDSDJdUyg9TykoPU8pTihbQ0gzXSlbQ0gyXVtDQEhdKFtPSF0pW0NIMl1uKFtjSF1uMSljKGMxMilbY0hdYyhbQ0gzXSljKFtjSF0yKVtDSDNd

> <s_epik_cmdline>
J2VwaWtfcHl0aG9uJywgJy1waCcsICc3LjAnLCAnLXRuJywgJzgnLCAnLW1hJywgJzIwMCcsICctbWV0YWxfYmluZGluZycsICctaW1hZScsICc8aW5maWxlLm1hZT4nLCAnLW9tYWUnLCAnPG91dGZpbGUubWFlPic=

> <r_epik_Ionization_Penalty>
1.0773

> <r_epik_Ionization_Penalty_Charging>
1.0773

> <r_epik_Ionization_Penalty_Neutral>
1.44651e-06

> <r_epik_State_Penalty>
1.13242

> <r_epik_Charging_Adjusted_Penalty>
2.20972

> <i_epik_Tot_Q>
1

> <i_epik_Tot_abs_Q>
1

> <r_epik_Metal_State_Penalty>
5.13045

> <b_epik_Metal_Only>
0

> <s_lp_Force_Field>
OPLS_2005

> <r_lp_Energy>
14.1853

> <b_lp_Chiralities_Consistent>
1

> <s_lp_Variant>
AV-unprocessed.smi:2825-4

> <Gold.Version>
5.8.1

> <Gold.Id.Protein>
6NUR|6NUR_protein|mol2

> <Gold.PLP.Fitness>
56.2771

> <Gold.PLP.PLP>
-46.9200

> <Gold.PLP.part.hbond>
-3.0000

> <Gold.PLP.part.metal>
0.0000

> <Gold.PLP.part.buried>
-5.6967

> <Gold.PLP.part.nonpolar>
-38.9792

> <Gold.PLP.part.repulsive>
0.1135

> <Gold.PLP.ligand.clash>
0.0000

> <Gold.PLP.ligand.torsion>
1.6599

> <Gold.PLP.Chemscore.Hbond>
3.3648

> <Gold.PLP.Chemscore.CHOScore>
0.0000

> <Gold.PLP.Chemscore.Metal>
0.0000

> <Gold.Chemscore.Hbonds>
donor molecule, donor type, donor heavy atom, donor atom, acceptor molecule, acceptor atom, score
      L1  H    15    49       P1  8028  2.00
      P1  H  6896  6909       L1     6  1.00
      P1  H  6931  6943       L1     5  0.12

> <Gold.PLP.Chemscore.Internal.Correction>
2.5827

> <Gold.Rescore>
     Score         DG    S(hbond)    S(metal)    S(lipo)     H(rot)  DE(clash)    DE(int)     intcor
     18.86     -20.58       2.33        0.00     117.44       2.51       0.04       1.68       ----

> <Gold.Chemscore.Fitness>
18.8619

> <Gold.Chemscore.DG>
-20.5845

> <Gold.Chemscore.ZeroCoef>
-5.4800

> <Gold.Chemscore.Hbond>
2.3327

> <Gold.Chemscore.Metal>
0.0000

> <Gold.Chemscore.Lipo>
117.4382

> <Gold.Chemscore.Internal_Hbond>
0.0000

> <Gold.Chemscore.DEClash>
0.0449

> <Gold.Chemscore.DEInternal>
1.6777

> <Gold.Chemscore.Rot>
2.5106

> <Gold.Chemscore.Internal.Correction>
   9.000000E+99

> <Gold.Chemscore.Hbonds>
donor molecule, donor type, donor heavy atom, donor atom, acceptor molecule, acceptor atom, score
      L1  H    15    49       P1  8028  0.99
      P1  H  6896  6909       L1     6  0.65
      P1  H  6931  6943       L1     5  0.10

> <Gold.Chemscore.Hbond.Weighted>
-7.7913

> <Gold.Chemscore.Metal.Weighted>
-0.0000

> <Gold.Chemscore.Lipo.Weighted>
-13.7403

> <Gold.Chemscore.Internal_Hbond.Weighted>
0.0000

> <Gold.Chemscore.DEClash.Weighted>
0.0449

> <Gold.Chemscore.DEInternal.Weighted>
1.6777

> <Gold.Chemscore.Rot.Weighted>
6.4271

> <Gold.Chemscore.Internal.Correction.Weighted>
   9.000000E+99

> <Gold.Protein.RotatedTorsions>
[ 6907 6896 6895 6894 ] final   31.68 input  -60.11 | X-H torsion
[ 7974 7965 7964 7962 ] final   31.67 input  175.53 | X-H torsion
[ 8008 7997 7996 7995 ] final    8.48 input   59.86 | X-H torsion
[ 10167 10162 10161 10158 ] final  102.45 input  -65.29 | X-H torsion
[ 10718 10713 10712 10709 ] final  -88.80 input   66.30 | X-H torsion
[ 10763 10752 10751 10750 ] final   48.58 input  -60.55 | X-H torsion
[ 11005 11000 10999 10996 ] final  -48.36 input  -57.11 | X-H torsion

> <Gold.Protein.ActiveResidues>
 VAL166  LYS551  ARG553  GLY616  TRP617  ASP618  TYR619  PRO620  LYS621  CYS622 
 ASP623  PHE694  ASN695  SER759  ASP760  ASP761  ALA762  ILE779  LEU786  VAL792 
 PHE793  MET794  SER795  GLU796  ALA797  LYS798  CYS799  TRP800  GLU811  SER814 

> <Gold.Protein.RotatedAtoms>
  152.0638  134.9577  160.0574 H   0  0  0  0  0  0  0  0  0  0  0  0  # atno 6907 bound_to 6896
  152.0930  133.4205  159.4561 H   0  0  0  0  0  0  0  0  0  0  0  0  # atno 6908 bound_to 6896
  150.6837  134.2768  159.4654 H   0  0  0  0  0  0  0  0  0  0  0  0  # atno 6909 bound_to 6896
  146.1535  139.6626  142.9082 H   0  0  0  0  0  0  0  0  0  0  0  0  # atno 7974 bound_to 7965
  154.7673  140.2795  155.6165 H   0  0  0  0  0  0  0  0  0  0  0  0  # atno 8008 bound_to 7997
  156.2927  140.2648  156.2395 H   0  0  0  0  0  0  0  0  0  0  0  0  # atno 8009 bound_to 7997
  154.9943  140.0373  157.2322 H   0  0  0  0  0  0  0  0  0  0  0  0  # atno 8010 bound_to 7997
  139.7349  144.7026  151.0665 H   0  0  0  0  0  0  0  0  0  0  0  0  # atno 10167 bound_to 10162
  155.9983  130.4849  150.5075 H   0  0  0  0  0  0  0  0  0  0  0  0  # atno 10718 bound_to 10713
  152.9791  135.5939  154.3949 H   0  0  0  0  0  0  0  0  0  0  0  0  # atno 10763 bound_to 10752
  154.3600  135.2767  155.2327 H   0  0  0  0  0  0  0  0  0  0  0  0  # atno 10764 bound_to 10752
  154.4328  135.6032  153.6134 H   0  0  0  0  0  0  0  0  0  0  0  0  # atno 10765 bound_to 10752
  141.0696  133.6683  156.3430 H   0  0  0  0  0  0  0  0  0  0  0  0  # atno 11005 bound_to 11000
  145.4765  141.0437  143.2669 LP  0  0  0  0  0  0  0  0  0  0  0  0  # atno 17320 bound_to 7965
  144.7934  139.6283  143.7103 LP  0  0  0  0  0  0  0  0  0  0  0  0  # atno 17321 bound_to 7965
  140.7777  143.4997  150.9787 LP  0  0  0  0  0  0  0  0  0  0  0  0  # atno 17342 bound_to 10162
  139.8685  143.7223  152.3168 LP  0  0  0  0  0  0  0  0  0  0  0  0  # atno 17343 bound_to 10162
  157.3052  131.0653  151.2040 LP  0  0  0  0  0  0  0  0  0  0  0  0  # atno 17370 bound_to 10713
  157.3006  130.6840  149.6162 LP  0  0  0  0  0  0  0  0  0  0  0  0  # atno 17371 bound_to 10713
  140.5701  134.5848  157.5455 LP  0  0  0  0  0  0  0  0  0  0  0  0  # atno 17394 bound_to 11000
  139.9510  134.7617  156.0449 LP  0  0  0  0  0  0  0  0  0  0  0  0  # atno 17395 bound_to 11000

$$$$
