AV-unprocessed.smi:496|AV-procd|sdf|2716|dock4
  -GOLD-   2262023163D 1   1.00000     0.00000
 Structure written by MMmdl.
 42 44  0  0  0  0  0  0  0  0  1 V2000
  154.5984  135.2377  158.3259 C   0  0  0  0  0  0  0  0  0  0  0  0
  153.7909  135.9959  159.2093 O   0  0  0  0  0  0  0  0  0  0  0  0
  153.4970  137.2861  158.7027 C   0  0  0  0  0  0  0  0  0  0  0  0
  152.8893  138.1333  159.8275 C   0  0  0  0  0  0  0  0  0  0  0  0
  152.0923  139.2331  159.3046 N   0  0  0  0  0  0  0  0  0  0  0  0
  150.8936  139.1863  158.6653 C   0  0  0  0  0  0  0  0  0  0  0  0
  150.1677  137.8949  158.3799 C   0  0  2  0  0  0  0  0  0  0  0  0
  149.2459  138.0073  157.1577 C   0  0  0  0  0  0  0  0  0  0  0  0
  149.3954  137.5275  159.5642 N   0  0  0  0  0  0  0  0  0  0  0  0
  148.9262  136.2986  159.8330 C   0  0  0  0  0  0  0  0  0  0  0  0
  149.0802  135.3344  159.0832 O   0  0  0  0  0  0  0  0  0  0  0  0
  148.1801  136.1601  161.0977 C   0  0  0  0  0  0  0  0  0  0  0  0
  147.8120  135.0520  161.8155 C   0  0  0  0  0  0  0  0  0  0  0  0
  147.0901  135.5216  162.9475 C   0  0  0  0  0  0  0  0  0  0  0  0
  147.0629  136.8823  162.8375 C   0  0  0  0  0  0  0  0  0  0  0  0
  147.7166  137.2862  161.7144 O   0  0  0  0  0  0  0  0  0  0  0  0
  150.3874  140.3698  158.3072 N   0  0  0  0  0  0  0  0  0  0  0  0
  151.3492  141.2602  158.7383 C   0  0  0  0  0  0  0  0  0  0  0  0
  151.4022  142.6695  158.6453 C   0  0  0  0  0  0  0  0  0  0  0  0
  152.5076  143.3775  159.1606 C   0  0  0  0  0  0  0  0  0  0  0  0
  153.5726  142.6880  159.7755 C   0  0  0  0  0  0  0  0  0  0  0  0
  153.5380  141.2841  159.8800 C   0  0  0  0  0  0  0  0  0  0  0  0
  152.4320  140.5816  159.3640 C   0  0  0  0  0  0  0  0  0  0  0  0
  154.7948  134.2572  158.7596 H   0  0  0  0  0  0  0  0  0  0  0  0
  155.5577  135.7264  158.1502 H   0  0  0  0  0  0  0  0  0  0  0  0
  154.1007  135.0880  157.3668 H   0  0  0  0  0  0  0  0  0  0  0  0
  154.4084  137.7578  158.3314 H   0  0  0  0  0  0  0  0  0  0  0  0
  152.8017  137.2077  157.8658 H   0  0  0  0  0  0  0  0  0  0  0  0
  152.2786  137.5252  160.4945 H   0  0  0  0  0  0  0  0  0  0  0  0
  153.6852  138.5440  160.4490 H   0  0  0  0  0  0  0  0  0  0  0  0
  150.8767  137.0954  158.1704 H   0  0  0  0  0  0  0  0  0  0  0  0
  149.8128  138.2729  156.2651 H   0  0  0  0  0  0  0  0  0  0  0  0
  148.4795  138.7695  157.3029 H   0  0  0  0  0  0  0  0  0  0  0  0
  148.7412  137.0615  156.9590 H   0  0  0  0  0  0  0  0  0  0  0  0
  149.2218  138.2582  160.2386 H   0  0  0  0  0  0  0  0  0  0  0  0
  148.0337  134.0264  161.5586 H   0  0  0  0  0  0  0  0  0  0  0  0
  146.6452  134.9381  163.7401 H   0  0  0  0  0  0  0  0  0  0  0  0
  146.6417  137.6759  163.4372 H   0  0  0  0  0  0  0  0  0  0  0  0
  150.5917  143.2064  158.1753 H   0  0  0  0  0  0  0  0  0  0  0  0
  152.5388  144.4544  159.0832 H   0  0  0  0  0  0  0  0  0  0  0  0
  154.4162  143.2376  160.1671 H   0  0  0  0  0  0  0  0  0  0  0  0
  154.3536  140.7552  160.3499 H   0  0  0  0  0  0  0  0  0  0  0  0
  1  2  1  0  0  0  0
  1 24  1  0  0  0  0
  1 25  1  0  0  0  0
  1 26  1  0  0  0  0
  2  3  1  0  0  0  0
  3  4  1  0  0  0  0
  3 27  1  0  0  0  0
  3 28  1  0  0  0  0
  4  5  1  0  0  0  0
  4 29  1  0  0  0  0
  4 30  1  0  0  0  0
  5 23  1  0  0  0  0
  5  6  1  0  0  0  0
  6  7  1  0  0  0  0
  6 17  2  0  0  0  0
  7  8  1  0  0  0  0
  7  9  1  0  0  0  0
  7 31  1  0  0  0  0
  8 32  1  0  0  0  0
  8 33  1  0  0  0  0
  8 34  1  0  0  0  0
  9 10  1  0  0  0  0
  9 35  1  0  0  0  0
 10 11  2  0  0  0  0
 10 12  1  0  0  0  0
 12 16  1  0  0  0  0
 12 13  2  0  0  0  0
 13 14  1  0  0  0  0
 13 36  1  0  0  0  0
 14 15  2  0  0  0  0
 14 37  1  0  0  0  0
 15 16  1  0  0  0  0
 15 38  1  0  0  0  0
 17 18  1  0  0  0  0
 18 23  2  0  0  0  0
 18 19  1  0  0  0  0
 19 20  2  0  0  0  0
 19 39  1  0  0  0  0
 20 21  1  0  0  0  0
 20 40  1  0  0  0  0
 21 22  2  0  0  0  0
 21 41  1  0  0  0  0
 22 23  1  0  0  0  0
 22 42  1  0  0  0  0
M  END
> <s_m_source_file>
AV-unprocessed.smi

> <i_m_source_file_index>
496

> <i_lp_mmshare_version>
43012

> <i_f3d_flags>
0

> <s_epik_input>
W2NIXTFbY0hdW2NIXVtjSF1jKGMxMiluKFtDSDJdW0NIMl1PW0NIM10pYyhuMilbQ0BIXShbQ0gzXSlbTkhdQyg9TyljM1tjSF1bY0hdW2NIXW8z

> <s_epik_cmdline>
J2VwaWtfcHl0aG9uJywgJy1waCcsICc3LjAnLCAnLXRuJywgJzgnLCAnLW1hJywgJzIwMCcsICctbWV0YWxfYmluZGluZycsICctaW1hZScsICc8aW5maWxlLm1hZT4nLCAnLW9tYWUnLCAnPG91dGZpbGUubWFlPic=

> <r_epik_Ionization_Penalty>
0.116528

> <r_epik_Ionization_Penalty_Charging>
0

> <r_epik_Ionization_Penalty_Neutral>
0.116528

> <r_epik_State_Penalty>
0.106132

> <r_epik_Charging_Adjusted_Penalty>
0.106132

> <i_epik_Tot_Q>
0

> <i_epik_Tot_abs_Q>
0

> <r_epik_Metal_State_Penalty>
0.0963468

> <b_epik_Metal_Only>
0

> <s_lp_Force_Field>
OPLS_2005

> <r_lp_Energy>
7.66614

> <b_lp_Chiralities_Consistent>
1

> <s_lp_Variant>
AV-unprocessed.smi:496-1

> <Gold.Version>
5.8.1

> <Gold.Id.Protein>
6NUR|6NUR_protein|mol2

> <Gold.PLP.Fitness>
52.3406

> <Gold.PLP.PLP>
-43.4802

> <Gold.PLP.part.hbond>
-4.0000

> <Gold.PLP.part.metal>
0.0000

> <Gold.PLP.part.buried>
-6.4232

> <Gold.PLP.part.nonpolar>
-33.7149

> <Gold.PLP.part.repulsive>
0.2434

> <Gold.PLP.ligand.clash>
0.0000

> <Gold.PLP.ligand.torsion>
1.3214

> <Gold.PLP.Chemscore.Hbond>
3.8080

> <Gold.PLP.Chemscore.CHOScore>
0.0000

> <Gold.PLP.Chemscore.Metal>
0.0000

> <Gold.Chemscore.Hbonds>
donor molecule, donor type, donor heavy atom, donor atom, acceptor molecule, acceptor atom, score
      P1  H  6896  6908       L1    11  1.00
      P1  H  6896  6909       L1     2  0.99
      P1  H  6931  6943       L1    16  0.98
      P1  H  6934  6947       L1    16  0.67

> <Gold.PLP.Chemscore.Internal.Correction>
0.0792

> <Gold.Rescore>
     Score         DG    S(hbond)    S(metal)    S(lipo)     H(rot)  DE(clash)    DE(int)     intcor
     22.05     -23.53       3.10        0.00     106.22       1.85       0.08       1.40       ----

> <Gold.Chemscore.Fitness>
22.0456

> <Gold.Chemscore.DG>
-23.5295

> <Gold.Chemscore.ZeroCoef>
-5.4800

> <Gold.Chemscore.Hbond>
3.0994

> <Gold.Chemscore.Metal>
0.0000

> <Gold.Chemscore.Lipo>
106.2240

> <Gold.Chemscore.Internal_Hbond>
0.0000

> <Gold.Chemscore.DEClash>
0.0801

> <Gold.Chemscore.DEInternal>
1.4038

> <Gold.Chemscore.Rot>
1.8480

> <Gold.Chemscore.Internal.Correction>
   9.000000E+99

> <Gold.Chemscore.Hbonds>
donor molecule, donor type, donor heavy atom, donor atom, acceptor molecule, acceptor atom, score
      P1  H  6896  6908       L1    11  0.50
      P1  H  6896  6909       L1     2  0.62
      P1  H  6931  6943       L1    16  0.48
      P1  H  6934  6947       L1    16  0.63

> <Gold.Chemscore.Hbond.Weighted>
-10.3521

> <Gold.Chemscore.Metal.Weighted>
-0.0000

> <Gold.Chemscore.Lipo.Weighted>
-12.4282

> <Gold.Chemscore.Internal_Hbond.Weighted>
0.0000

> <Gold.Chemscore.DEClash.Weighted>
0.0801

> <Gold.Chemscore.DEInternal.Weighted>
1.4038

> <Gold.Chemscore.Rot.Weighted>
4.7308

> <Gold.Chemscore.Internal.Correction.Weighted>
   9.000000E+99

> <Gold.Protein.RotatedTorsions>
[ 6907 6896 6895 6894 ] final  171.14 input  -60.11 | X-H torsion
[ 7974 7965 7964 7962 ] final  106.68 input  175.53 | X-H torsion
[ 8008 7997 7996 7995 ] final -118.43 input   59.86 | X-H torsion
[ 10167 10162 10161 10158 ] final   62.49 input  -65.29 | X-H torsion
[ 10718 10713 10712 10709 ] final   79.07 input   66.30 | X-H torsion
[ 10763 10752 10751 10750 ] final -115.46 input  -60.55 | X-H torsion
[ 11005 11000 10999 10996 ] final  147.95 input  -57.11 | X-H torsion

> <Gold.Protein.ActiveResidues>
 VAL166  LYS551  ARG553  GLY616  TRP617  ASP618  TYR619  PRO620  LYS621  CYS622 
 ASP623  PHE694  ASN695  SER759  ASP760  ASP761  ALA762  ILE779  LEU786  VAL792 
 PHE793  MET794  SER795  GLU796  ALA797  LYS798  CYS799  TRP800  GLU811  SER814 

> <Gold.Protein.RotatedAtoms>
  151.8049  133.3374  159.3537 H   0  0  0  0  0  0  0  0  0  0  0  0  # atno 6907 bound_to 6896
  150.7346  134.5719  159.5904 H   0  0  0  0  0  0  0  0  0  0  0  0  # atno 6908 bound_to 6896
  152.3116  134.7491  160.0386 H   0  0  0  0  0  0  0  0  0  0  0  0  # atno 6909 bound_to 6896
  145.3035  139.2562  143.3801 H   0  0  0  0  0  0  0  0  0  0  0  0  # atno 7974 bound_to 7965
  155.0996  140.0396  157.2693 H   0  0  0  0  0  0  0  0  0  0  0  0  # atno 8008 bound_to 7997
  154.6768  140.2624  155.6924 H   0  0  0  0  0  0  0  0  0  0  0  0  # atno 8009 bound_to 7997
  156.2680  140.2786  156.1298 H   0  0  0  0  0  0  0  0  0  0  0  0  # atno 8010 bound_to 7997
  140.1433  144.4532  150.6799 H   0  0  0  0  0  0  0  0  0  0  0  0  # atno 10167 bound_to 10162
  157.6765  130.9897  150.1879 H   0  0  0  0  0  0  0  0  0  0  0  0  # atno 10718 bound_to 10713
  154.8482  135.4381  154.1666 H   0  0  0  0  0  0  0  0  0  0  0  0  # atno 10763 bound_to 10752
  153.2790  135.6952  153.7410 H   0  0  0  0  0  0  0  0  0  0  0  0  # atno 10764 bound_to 10752
  153.6622  135.3433  155.3105 H   0  0  0  0  0  0  0  0  0  0  0  0  # atno 10765 bound_to 10752
  140.0918  134.9036  157.1663 H   0  0  0  0  0  0  0  0  0  0  0  0  # atno 11005 bound_to 11000
  146.3143  140.3554  142.8660 LP  0  0  0  0  0  0  0  0  0  0  0  0  # atno 17320 bound_to 7965
  144.9074  140.7716  143.5829 LP  0  0  0  0  0  0  0  0  0  0  0  0  # atno 17321 bound_to 7965
  140.6747  143.2300  151.5537 LP  0  0  0  0  0  0  0  0  0  0  0  0  # atno 17342 bound_to 10162
  139.5461  144.2517  152.1445 LP  0  0  0  0  0  0  0  0  0  0  0  0  # atno 17343 bound_to 10162
  156.2597  130.3709  149.8144 LP  0  0  0  0  0  0  0  0  0  0  0  0  # atno 17370 bound_to 10713
  156.5892  130.8499  151.3403 LP  0  0  0  0  0  0  0  0  0  0  0  0  # atno 17371 bound_to 10713
  140.3341  134.2777  155.7223 LP  0  0  0  0  0  0  0  0  0  0  0  0  # atno 17394 bound_to 11000
  141.2080  133.7789  157.0084 LP  0  0  0  0  0  0  0  0  0  0  0  0  # atno 17395 bound_to 11000

$$$$
