AV-unprocessed.smi:148|AV-procd|sdf|1203|dock3
  -GOLD-   2262018363D 1   1.00000     0.00000
 Structure written by MMmdl.
 63 67  0  0  0  0  0  0  0  0  1 V2000
  150.3527  142.3445  156.7301 O   0  0  0  0  0  0  0  0  0  0  0  0
  151.2173  141.2846  157.0848 C   0  0  0  0  0  0  0  0  0  0  0  0
  151.4548  141.2342  158.6138 C   0  0  1  0  0  0  0  0  0  0  0  0
  152.2238  139.9305  158.9677 C   0  0  0  0  0  0  0  0  0  0  0  0
  151.6117  138.6979  158.4999 N   0  0  0  0  0  0  0  0  0  0  0  0
  151.0634  137.7062  159.2834 C   0  0  0  0  0  0  0  0  0  0  0  0
  150.6124  136.6669  158.6353 N   0  0  0  0  0  0  0  0  0  0  0  0
  150.8845  136.9589  157.3055 C   0  0  0  0  0  0  0  0  0  0  0  0
  150.6814  136.2652  156.0840 C   0  0  0  0  0  0  0  0  0  0  0  0
  150.1666  135.0155  156.0537 N   0  0  0  0  0  0  0  0  0  0  0  0
  151.2800  134.0622  156.0620 C   0  0  0  0  0  0  0  0  0  0  0  0
  150.8008  132.6322  156.3216 C   0  0  0  0  0  0  0  0  0  0  0  0
  149.7470  132.2496  155.2840 C   0  0  0  0  0  0  0  0  0  0  0  0
  148.5968  133.2625  155.3195 C   0  0  0  0  0  0  0  0  0  0  0  0
  149.0662  134.7308  155.1064 C   0  0  1  0  0  0  0  0  0  0  0  0
  147.8491  135.7132  155.2387 C   0  0  2  0  0  0  0  0  0  0  0  0
  147.4242  136.0015  156.6936 C   0  0  0  0  0  0  0  0  0  0  0  0
  145.9755  136.4625  156.6129 C   0  0  0  0  0  0  0  0  0  0  0  0
  145.3803  135.5264  155.5712 C   0  0  0  0  0  0  0  0  0  0  0  0
  146.5189  135.2590  154.5735 C   0  0  1  0  0  0  0  0  0  0  0  0
  146.2693  136.0103  153.4039 O   0  0  0  0  0  0  0  0  0  0  0  0
  151.1027  136.8587  154.9358 N   0  0  0  0  0  0  0  0  0  0  0  0
  151.6703  138.0684  154.9823 C   0  0  0  0  0  0  0  0  0  0  0  0
  151.9256  138.8322  156.0475 N   0  0  0  0  0  0  0  0  0  0  0  0
  151.5121  138.2313  157.2002 C   0  0  0  0  0  0  0  0  0  0  0  0
  152.1719  142.5202  159.1228 C   0  0  2  0  0  0  0  0  0  0  0  0
  152.9743  142.3531  160.4119 C   0  0  0  0  0  0  0  0  0  0  0  0
  152.8619  143.6973  161.1360 C   0  0  0  0  0  0  0  0  0  0  0  0
  152.0814  144.5223  160.2859 O   0  0  0  0  0  0  0  0  0  0  0  0
  151.2469  143.6758  159.5168 C   0  0  0  0  0  0  0  0  0  0  0  0
  149.5047  142.1824  157.1145 H   0  0  0  0  0  0  0  0  0  0  0  0
  150.8017  140.3427  156.7252 H   0  0  0  0  0  0  0  0  0  0  0  0
  152.1460  141.4539  156.5413 H   0  0  0  0  0  0  0  0  0  0  0  0
  150.4711  141.1956  159.0835 H   0  0  0  0  0  0  0  0  0  0  0  0
  153.2295  139.9562  158.5477 H   0  0  0  0  0  0  0  0  0  0  0  0
  152.3508  139.8619  160.0491 H   0  0  0  0  0  0  0  0  0  0  0  0
  151.0089  137.7768  160.3599 H   0  0  0  0  0  0  0  0  0  0  0  0
  151.8004  134.1031  155.1037 H   0  0  0  0  0  0  0  0  0  0  0  0
  152.0062  134.3391  156.8284 H   0  0  0  0  0  0  0  0  0  0  0  0
  151.6422  131.9402  156.2790 H   0  0  0  0  0  0  0  0  0  0  0  0
  150.3814  132.5574  157.3257 H   0  0  0  0  0  0  0  0  0  0  0  0
  150.1931  132.2291  154.2888 H   0  0  0  0  0  0  0  0  0  0  0  0
  149.3712  131.2453  155.4816 H   0  0  0  0  0  0  0  0  0  0  0  0
  147.8781  132.9637  154.5576 H   0  0  0  0  0  0  0  0  0  0  0  0
  148.0824  133.1808  156.2783 H   0  0  0  0  0  0  0  0  0  0  0  0
  149.4660  134.8061  154.0941 H   0  0  0  0  0  0  0  0  0  0  0  0
  148.1463  136.6756  154.8166 H   0  0  0  0  0  0  0  0  0  0  0  0
  147.4632  135.0876  157.2885 H   0  0  0  0  0  0  0  0  0  0  0  0
  148.0594  136.7441  157.1775 H   0  0  0  0  0  0  0  0  0  0  0  0
  145.4605  136.4077  157.5724 H   0  0  0  0  0  0  0  0  0  0  0  0
  145.9303  137.4943  156.2612 H   0  0  0  0  0  0  0  0  0  0  0  0
  145.1004  134.5892  156.0543 H   0  0  0  0  0  0  0  0  0  0  0  0
  144.4781  135.9322  155.1107 H   0  0  0  0  0  0  0  0  0  0  0  0
  146.5281  134.1985  154.3249 H   0  0  0  0  0  0  0  0  0  0  0  0
  147.0631  136.0402  152.8920 H   0  0  0  0  0  0  0  0  0  0  0  0
  151.9700  138.4806  154.0301 H   0  0  0  0  0  0  0  0  0  0  0  0
  152.8410  142.8890  158.3434 H   0  0  0  0  0  0  0  0  0  0  0  0
  152.5455  141.5701  161.0379 H   0  0  0  0  0  0  0  0  0  0  0  0
  154.0146  142.0951  160.2157 H   0  0  0  0  0  0  0  0  0  0  0  0
  152.3560  143.5762  162.0947 H   0  0  0  0  0  0  0  0  0  0  0  0
  153.8354  144.1522  161.3199 H   0  0  0  0  0  0  0  0  0  0  0  0
  150.8462  144.2121  158.6563 H   0  0  0  0  0  0  0  0  0  0  0  0
  150.4136  143.3282  160.1301 H   0  0  0  0  0  0  0  0  0  0  0  0
  1  2  1  0  0  0  0
  1 31  1  0  0  0  0
  2  3  1  0  0  0  0
  2 32  1  0  0  0  0
  2 33  1  0  0  0  0
  3  4  1  0  0  0  0
  3 26  1  0  0  0  0
  3 34  1  0  0  0  0
  4  5  1  0  0  0  0
  4 35  1  0  0  0  0
  4 36  1  0  0  0  0
  5 25  1  0  0  0  0
  5  6  1  0  0  0  0
  6  7  2  0  0  0  0
  6 37  1  0  0  0  0
  7  8  1  0  0  0  0
  8 25  2  0  0  0  0
  8  9  1  0  0  0  0
  9 10  1  0  0  0  0
  9 22  2  0  0  0  0
 10 15  1  0  0  0  0
 10 11  1  0  0  0  0
 11 12  1  0  0  0  0
 11 38  1  0  0  0  0
 11 39  1  0  0  0  0
 12 13  1  0  0  0  0
 12 40  1  0  0  0  0
 12 41  1  0  0  0  0
 13 14  1  0  0  0  0
 13 42  1  0  0  0  0
 13 43  1  0  0  0  0
 14 15  1  0  0  0  0
 14 44  1  0  0  0  0
 14 45  1  0  0  0  0
 15 16  1  0  0  0  0
 15 46  1  0  0  0  0
 16 20  1  0  0  0  0
 16 17  1  0  0  0  0
 16 47  1  0  0  0  0
 17 18  1  0  0  0  0
 17 48  1  0  0  0  0
 17 49  1  0  0  0  0
 18 19  1  0  0  0  0
 18 50  1  0  0  0  0
 18 51  1  0  0  0  0
 19 20  1  0  0  0  0
 19 52  1  0  0  0  0
 19 53  1  0  0  0  0
 20 21  1  0  0  0  0
 20 54  1  0  0  0  0
 21 55  1  0  0  0  0
 22 23  1  0  0  0  0
 23 24  2  0  0  0  0
 23 56  1  0  0  0  0
 24 25  1  0  0  0  0
 26 30  1  0  0  0  0
 26 27  1  0  0  0  0
 26 57  1  0  0  0  0
 27 28  1  0  0  0  0
 27 58  1  0  0  0  0
 27 59  1  0  0  0  0
 28 29  1  0  0  0  0
 28 60  1  0  0  0  0
 28 61  1  0  0  0  0
 29 30  1  0  0  0  0
 30 62  1  0  0  0  0
 30 63  1  0  0  0  0
M  END
> <s_m_source_file>
AV-unprocessed.smi

> <i_m_source_file_index>
148

> <i_lp_mmshare_version>
43012

> <i_f3d_flags>
0

> <s_epik_input>
W0NIMl0xT1tDSDJdW0NIMl1bQ0BIXTFbQ0BIXShbQ0gyXVtPSF0pW0NIMl1uKFtjSF1uMiljKGMyMyluW2NIXW5jM040W0NIMl1bQ0gyXVtDSDJdW0NIMl1bQ0BIXTRbQ0BASF01W0NIMl1bQ0gyXVtDSDJdW0NASF01W09IXQ==

> <s_epik_cmdline>
J2VwaWtfcHl0aG9uJywgJy1waCcsICc3LjAnLCAnLXRuJywgJzgnLCAnLW1hJywgJzIwMCcsICctbWV0YWxfYmluZGluZycsICctaW1hZScsICc8aW5maWxlLm1hZT4nLCAnLW9tYWUnLCAnPG91dGZpbGUubWFlPic=

> <r_lp_tautomer_probability>
1

> <r_epik_Ionization_Penalty>
0.00556303

> <r_epik_Ionization_Penalty_Charging>
0

> <r_epik_Ionization_Penalty_Neutral>
0.00556303

> <r_epik_State_Penalty>
0.00401767

> <r_epik_Charging_Adjusted_Penalty>
0.00401767

> <i_epik_Tot_Q>
0

> <i_epik_Tot_abs_Q>
0

> <r_epik_Metal_State_Penalty>
-0

> <b_epik_Metal_Only>
0

> <s_lp_Force_Field>
OPLS_2005

> <r_lp_Energy>
69.6021

> <b_lp_Chiralities_Consistent>
1

> <s_lp_Variant>
AV-unprocessed.smi:148-2

> <Gold.Version>
5.8.1

> <Gold.Id.Protein>
6NUR|6NUR_protein|mol2

> <Gold.PLP.Fitness>
46.4988

> <Gold.PLP.PLP>
-40.0576

> <Gold.PLP.part.hbond>
-3.7465

> <Gold.PLP.part.metal>
0.0000

> <Gold.PLP.part.buried>
-8.3504

> <Gold.PLP.part.nonpolar>
-28.9028

> <Gold.PLP.part.repulsive>
0.2377

> <Gold.PLP.ligand.clash>
0.0000

> <Gold.PLP.ligand.torsion>
1.5249

> <Gold.PLP.Chemscore.Hbond>
2.9920

> <Gold.PLP.Chemscore.CHOScore>
0.0000

> <Gold.PLP.Chemscore.Metal>
0.0000

> <Gold.Chemscore.Hbonds>
donor molecule, donor type, donor heavy atom, donor atom, acceptor molecule, acceptor atom, score
      L1  H    21    55       P1  7948  0.70
      P1  H  6896  6908       L1     7  0.84
      P1  H 10752 10763       L1    22  0.43

> <Gold.PLP.Chemscore.Internal.Correction>
0.5151

> <Gold.Rescore>
     Score         DG    S(hbond)    S(metal)    S(lipo)     H(rot)  DE(clash)    DE(int)     intcor
     11.99     -15.01       2.30        0.00      88.37       3.32       0.14       2.87       ----

> <Gold.Chemscore.Fitness>
11.9932

> <Gold.Chemscore.DG>
-15.0051

> <Gold.Chemscore.ZeroCoef>
-5.4800

> <Gold.Chemscore.Hbond>
2.3010

> <Gold.Chemscore.Metal>
0.0000

> <Gold.Chemscore.Lipo>
88.3750

> <Gold.Chemscore.Internal_Hbond>
0.0000

> <Gold.Chemscore.DEClash>
0.1386

> <Gold.Chemscore.DEInternal>
2.8733

> <Gold.Chemscore.Rot>
3.3203

> <Gold.Chemscore.Internal.Correction>
   9.000000E+99

> <Gold.Chemscore.Hbonds>
donor molecule, donor type, donor heavy atom, donor atom, acceptor molecule, acceptor atom, score
      L1  H    21    55       P1  7948  0.69
      P1  H  6896  6908       L1     7  0.62
      P1  H 10752 10763       L1    22  0.03

> <Gold.Chemscore.Hbond.Weighted>
-7.6852

> <Gold.Chemscore.Metal.Weighted>
-0.0000

> <Gold.Chemscore.Lipo.Weighted>
-10.3399

> <Gold.Chemscore.Internal_Hbond.Weighted>
0.0000

> <Gold.Chemscore.DEClash.Weighted>
0.1386

> <Gold.Chemscore.DEInternal.Weighted>
2.8733

> <Gold.Chemscore.Rot.Weighted>
8.5000

> <Gold.Chemscore.Internal.Correction.Weighted>
   9.000000E+99

> <Gold.Protein.RotatedTorsions>
[ 6907 6896 6895 6894 ] final -165.36 input  -60.11 | X-H torsion
[ 7974 7965 7964 7962 ] final  134.06 input  175.53 | X-H torsion
[ 8008 7997 7996 7995 ] final  151.08 input   59.86 | X-H torsion
[ 10167 10162 10161 10158 ] final  -77.97 input  -65.29 | X-H torsion
[ 10718 10713 10712 10709 ] final  -23.80 input   66.30 | X-H torsion
[ 10763 10752 10751 10750 ] final   53.05 input  -60.55 | X-H torsion
[ 11005 11000 10999 10996 ] final  -74.66 input  -57.11 | X-H torsion

> <Gold.Protein.ActiveResidues>
 VAL166  LYS551  ARG553  GLY616  TRP617  ASP618  TYR619  PRO620  LYS621  CYS622 
 ASP623  PHE694  ASN695  SER759  ASP760  ASP761  ALA762  ILE779  LEU786  VAL792 
 PHE793  MET794  SER795  GLU796  ALA797  LYS798  CYS799  TRP800  GLU811  SER814 

> <Gold.Protein.RotatedAtoms>
  151.4265  133.3683  159.2762 H   0  0  0  0  0  0  0  0  0  0  0  0  # atno 6907 bound_to 6896
  150.9256  134.8674  159.7528 H   0  0  0  0  0  0  0  0  0  0  0  0  # atno 6908 bound_to 6896
  152.5003  134.4206  159.9531 H   0  0  0  0  0  0  0  0  0  0  0  0  # atno 6909 bound_to 6896
  144.9802  139.4512  143.5390 H   0  0  0  0  0  0  0  0  0  0  0  0  # atno 7974 bound_to 7965
  156.2689  140.2057  156.6119 H   0  0  0  0  0  0  0  0  0  0  0  0  # atno 8008 bound_to 7997
  154.6825  140.0538  157.0304 H   0  0  0  0  0  0  0  0  0  0  0  0  # atno 8009 bound_to 7997
  155.0980  140.3203  155.4558 H   0  0  0  0  0  0  0  0  0  0  0  0  # atno 8010 bound_to 7997
  140.4723  143.2423  151.8186 H   0  0  0  0  0  0  0  0  0  0  0  0  # atno 10167 bound_to 10162
  156.4862  130.4556  149.6782 H   0  0  0  0  0  0  0  0  0  0  0  0  # atno 10718 bound_to 10713
  152.9792  135.5792  154.4679 H   0  0  0  0  0  0  0  0  0  0  0  0  # atno 10763 bound_to 10752
  154.4245  135.2772  155.1955 H   0  0  0  0  0  0  0  0  0  0  0  0  # atno 10764 bound_to 10752
  154.3690  135.6172  153.5784 H   0  0  0  0  0  0  0  0  0  0  0  0  # atno 10765 bound_to 10752
  141.1637  133.6919  156.7399 H   0  0  0  0  0  0  0  0  0  0  0  0  # atno 11005 bound_to 11000
  146.3406  139.9070  142.8786 LP  0  0  0  0  0  0  0  0  0  0  0  0  # atno 17320 bound_to 7965
  145.2432  141.0017  143.3924 LP  0  0  0  0  0  0  0  0  0  0  0  0  # atno 17321 bound_to 7965
  139.4820  144.4876  151.9226 LP  0  0  0  0  0  0  0  0  0  0  0  0  # atno 17342 bound_to 10162
  140.3961  144.2553  150.5896 LP  0  0  0  0  0  0  0  0  0  0  0  0  # atno 17343 bound_to 10162
  156.3472  130.7413  151.2367 LP  0  0  0  0  0  0  0  0  0  0  0  0  # atno 17370 bound_to 10713
  157.7478  131.0387  150.4516 LP  0  0  0  0  0  0  0  0  0  0  0  0  # atno 17371 bound_to 10713
  140.2682  134.8413  157.3823 LP  0  0  0  0  0  0  0  0  0  0  0  0  # atno 17394 bound_to 11000
  140.1546  134.4806  155.7937 LP  0  0  0  0  0  0  0  0  0  0  0  0  # atno 17395 bound_to 11000

$$$$
