AV-unprocessed.smi:3284|AV-procd|sdf|12574|dock2
  -GOLD-   2272018493D 1   1.00000     0.00000
 Structure written by MMmdl.
 44 45  0  0  0  0  0  0  0  0  2 V2000
  151.9171  140.3491  157.6130 C   0  0  0  0  0  0  0  0  0  0  0  0
  152.0691  141.4140  158.6867 C   0  0  0  0  0  0  0  0  0  0  0  0
  152.7643  141.1383  159.8066 C   0  0  0  0  0  0  0  0  0  0  0  0
  153.0435  142.1386  160.9039 C   0  0  0  0  0  0  0  0  0  0  0  0
  152.9074  143.5720  160.3860 C   0  0  0  0  0  0  0  0  0  0  0  0
  151.5828  143.7730  159.6322 C   0  0  1  0  0  0  0  0  0  0  0  0
  151.4533  145.2497  159.2111 C   0  0  0  0  0  0  0  0  0  0  0  0
  151.4281  142.7932  158.4277 C   0  0  2  0  0  0  0  0  0  0  0  0
  149.9355  142.6932  158.0146 C   0  0  0  0  0  0  0  0  0  0  0  0
  149.7530  142.3543  156.5884 N   0  3  0  0  0  0  0  0  0  0  0  0
  148.4851  141.6607  156.2914 C   0  0  0  0  0  0  0  0  0  0  0  0
  148.4770  141.1189  154.8566 C   0  0  0  0  0  0  0  0  0  0  0  0
  149.4002  139.9535  154.6835 C   0  0  0  0  0  0  0  0  0  0  0  0
  150.7199  140.0374  154.8183 N   0  0  0  0  0  0  0  0  0  0  0  0
  151.1822  138.7440  154.6004 C   0  0  0  0  0  0  0  0  0  0  0  0
  150.1156  137.9156  154.3481 C   0  0  0  0  0  0  0  0  0  0  0  0
  148.9748  138.7047  154.4108 N   0  0  0  0  0  0  0  0  0  0  0  0
  147.6123  138.2480  154.2180 C   0  0  0  0  0  0  0  0  0  0  0  0
  152.2006  140.7452  156.6377 H   0  0  0  0  0  0  0  0  0  0  0  0
  150.8904  139.9871  157.5661 H   0  0  0  0  0  0  0  0  0  0  0  0
  152.5548  139.4880  157.8164 H   0  0  0  0  0  0  0  0  0  0  0  0
  153.1764  140.1508  159.9563 H   0  0  0  0  0  0  0  0  0  0  0  0
  152.3548  141.9554  161.7291 H   0  0  0  0  0  0  0  0  0  0  0  0
  154.0524  141.9792  161.2854 H   0  0  0  0  0  0  0  0  0  0  0  0
  152.9807  144.2664  161.2239 H   0  0  0  0  0  0  0  0  0  0  0  0
  153.7433  143.8001  159.7228 H   0  0  0  0  0  0  0  0  0  0  0  0
  150.7825  143.5609  160.3435 H   0  0  0  0  0  0  0  0  0  0  0  0
  152.2207  145.5221  158.4860 H   0  0  0  0  0  0  0  0  0  0  0  0
  151.5670  145.9109  160.0706 H   0  0  0  0  0  0  0  0  0  0  0  0
  150.4846  145.4738  158.7675 H   0  0  0  0  0  0  0  0  0  0  0  0
  151.9867  143.2193  157.5927 H   0  0  0  0  0  0  0  0  0  0  0  0
  149.4323  141.9511  158.6362 H   0  0  0  0  0  0  0  0  0  0  0  0
  149.4163  143.6351  158.1841 H   0  0  0  0  0  0  0  0  0  0  0  0
  149.7933  143.2059  156.0470 H   0  0  0  0  0  0  0  0  0  0  0  0
  148.3515  140.8408  156.9984 H   0  0  0  0  0  0  0  0  0  0  0  0
  147.6533  142.3513  156.4356 H   0  0  0  0  0  0  0  0  0  0  0  0
  147.4665  140.8338  154.5626 H   0  0  0  0  0  0  0  0  0  0  0  0
  148.7838  141.9038  154.1640 H   0  0  0  0  0  0  0  0  0  0  0  0
  152.2360  138.5114  154.6430 H   0  0  0  0  0  0  0  0  0  0  0  0
  150.0766  136.8568  154.1376 H   0  0  0  0  0  0  0  0  0  0  0  0
  147.5911  137.1631  154.1098 H   0  0  0  0  0  0  0  0  0  0  0  0
  147.1961  138.6999  153.3175 H   0  0  0  0  0  0  0  0  0  0  0  0
  147.0024  138.5274  155.0771 H   0  0  0  0  0  0  0  0  0  0  0  0
  150.5159  141.7555  156.3061 H   0  0  0  0  0  0  0  0  0  0  0  0
  1  2  1  0  0  0  0
  1 19  1  0  0  0  0
  1 20  1  0  0  0  0
  1 21  1  0  0  0  0
  2  8  1  0  0  0  0
  2  3  2  0  0  0  0
  3  4  1  0  0  0  0
  3 22  1  0  0  0  0
  4  5  1  0  0  0  0
  4 23  1  0  0  0  0
  4 24  1  0  0  0  0
  5  6  1  0  0  0  0
  5 25  1  0  0  0  0
  5 26  1  0  0  0  0
  6  7  1  0  0  0  0
  6  8  1  0  0  0  0
  6 27  1  0  0  0  0
  7 28  1  0  0  0  0
  7 29  1  0  0  0  0
  7 30  1  0  0  0  0
  8  9  1  0  0  0  0
  8 31  1  0  0  0  0
  9 10  1  0  0  0  0
  9 32  1  0  0  0  0
  9 33  1  0  0  0  0
 10 11  1  0  0  0  0
 10 34  1  0  0  0  0
 10 44  1  0  0  0  0
 11 12  1  0  0  0  0
 11 35  1  0  0  0  0
 11 36  1  0  0  0  0
 12 13  1  0  0  0  0
 12 37  1  0  0  0  0
 12 38  1  0  0  0  0
 13 17  1  0  0  0  0
 13 14  2  0  0  0  0
 14 15  1  0  0  0  0
 15 16  2  0  0  0  0
 15 39  1  0  0  0  0
 16 17  1  0  0  0  0
 16 40  1  0  0  0  0
 17 18  1  0  0  0  0
 18 41  1  0  0  0  0
 18 42  1  0  0  0  0
 18 43  1  0  0  0  0
M  CHG  1  10   1
M  END
> <s_m_source_file>
AV-unprocessed.smi

> <i_m_source_file_index>
3284

> <i_lp_mmshare_version>
43012

> <i_f3d_flags>
0

> <s_epik_input>
W0NIM11DMT1bQ0hdW0NIMl1bQ0gyXVtDQEBIXShbQ0gzXSlbQ0BIXTFbQ0gyXVtOSF1bQ0gyXVtDSDJdYzJuW2NIXVtjSF1uMltDSDNd

> <s_epik_cmdline>
J2VwaWtfcHl0aG9uJywgJy1waCcsICc3LjAnLCAnLXRuJywgJzgnLCAnLW1hJywgJzIwMCcsICctbWV0YWxfYmluZGluZycsICctaW1hZScsICc8aW5maWxlLm1hZT4nLCAnLW9tYWUnLCAnPG91dGZpbGUubWFlPic=

> <r_lp_tautomer_probability>
1

> <r_epik_Ionization_Penalty>
0.150779

> <r_epik_Ionization_Penalty_Charging>
0.150779

> <r_epik_Ionization_Penalty_Neutral>
1.39452e-13

> <r_epik_State_Penalty>
0.349447

> <r_epik_Charging_Adjusted_Penalty>
0.500226

> <i_epik_Tot_Q>
1

> <i_epik_Tot_abs_Q>
1

> <r_epik_Metal_State_Penalty>
0.000470967

> <b_epik_Metal_Only>
0

> <s_lp_Force_Field>
OPLS_2005

> <r_lp_Energy>
12.7203

> <b_lp_Chiralities_Consistent>
1

> <s_lp_Variant>
AV-unprocessed.smi:3284-3

> <Gold.Version>
5.8.1

> <Gold.Id.Protein>
6NUR|6NUR_protein|mol2

> <Gold.PLP.Fitness>
48.6927

> <Gold.PLP.PLP>
-39.0052

> <Gold.PLP.part.hbond>
-2.0000

> <Gold.PLP.part.metal>
0.0000

> <Gold.PLP.part.buried>
-4.6582

> <Gold.PLP.part.nonpolar>
-33.6059

> <Gold.PLP.part.repulsive>
0.1133

> <Gold.PLP.ligand.clash>
0.0000

> <Gold.PLP.ligand.torsion>
0.5024

> <Gold.PLP.Chemscore.Hbond>
2.7200

> <Gold.PLP.Chemscore.CHOScore>
0.8139

> <Gold.PLP.Chemscore.Metal>
0.0000

> <Gold.Chemscore.Hbonds>
donor molecule, donor type, donor heavy atom, donor atom, acceptor molecule, acceptor atom, score
      L1  H    10    34       P1  8028  1.76
      P1  H  7989  7998       L1    14  0.90
      L1  C    16    40       P1  7948  0.62

> <Gold.PLP.Chemscore.Internal.Correction>
0.0908

> <Gold.Rescore>
     Score         DG    S(hbond)    S(metal)    S(lipo)     H(rot)  DE(clash)    DE(int)     intcor
     19.51     -20.23       1.69        0.00     113.01       1.61       0.02       0.70       ----

> <Gold.Chemscore.Fitness>
19.5107

> <Gold.Chemscore.DG>
-20.2323

> <Gold.Chemscore.ZeroCoef>
-5.4800

> <Gold.Chemscore.Hbond>
1.6926

> <Gold.Chemscore.Metal>
0.0000

> <Gold.Chemscore.Lipo>
113.0103

> <Gold.Chemscore.Internal_Hbond>
0.0000

> <Gold.Chemscore.DEClash>
0.0228

> <Gold.Chemscore.DEInternal>
0.6989

> <Gold.Chemscore.Rot>
1.6105

> <Gold.Chemscore.Internal.Correction>
   9.000000E+99

> <Gold.Chemscore.Hbonds>
donor molecule, donor type, donor heavy atom, donor atom, acceptor molecule, acceptor atom, score
      L1  H    10    34       P1  8028  0.87
      P1  H  7989  7998       L1    14  0.17

> <Gold.Chemscore.Hbond.Weighted>
-5.6531

> <Gold.Chemscore.Metal.Weighted>
-0.0000

> <Gold.Chemscore.Lipo.Weighted>
-13.2222

> <Gold.Chemscore.Internal_Hbond.Weighted>
0.0000

> <Gold.Chemscore.DEClash.Weighted>
0.0228

> <Gold.Chemscore.DEInternal.Weighted>
0.6989

> <Gold.Chemscore.Rot.Weighted>
4.1230

> <Gold.Chemscore.Internal.Correction.Weighted>
   9.000000E+99

> <Gold.Protein.RotatedTorsions>
[ 6907 6896 6895 6894 ] final   53.93 input  -60.11 | X-H torsion
[ 7974 7965 7964 7962 ] final  -37.49 input  175.53 | X-H torsion
[ 8008 7997 7996 7995 ] final  121.16 input   59.86 | X-H torsion
[ 10167 10162 10161 10158 ] final   12.25 input  -65.29 | X-H torsion
[ 10718 10713 10712 10709 ] final  121.51 input   66.30 | X-H torsion
[ 10763 10752 10751 10750 ] final -133.64 input  -60.55 | X-H torsion
[ 11005 11000 10999 10996 ] final -152.93 input  -57.11 | X-H torsion

> <Gold.Protein.ActiveResidues>
 VAL166  LYS551  ARG553  GLY616  TRP617  ASP618  TYR619  PRO620  LYS621  CYS622 
 ASP623  PHE694  ASN695  SER759  ASP760  ASP761  ALA762  ILE779  LEU786  VAL792 
 PHE793  MET794  SER795  GLU796  ALA797  LYS798  CYS799  TRP800  GLU811  SER814 

> <Gold.Protein.RotatedAtoms>
  152.3387  134.7163  160.0269 H   0  0  0  0  0  0  0  0  0  0  0  0  # atno 6907 bound_to 6896
  151.7556  133.3325  159.3411 H   0  0  0  0  0  0  0  0  0  0  0  0  # atno 6908 bound_to 6896
  150.7466  134.6085  159.6118 H   0  0  0  0  0  0  0  0  0  0  0  0  # atno 6909 bound_to 6896
  146.0570  140.6402  142.9015 H   0  0  0  0  0  0  0  0  0  0  0  0  # atno 7974 bound_to 7965
  156.2674  140.2815  156.1263 H   0  0  0  0  0  0  0  0  0  0  0  0  # atno 8008 bound_to 7997
  155.1101  140.0391  157.2739 H   0  0  0  0  0  0  0  0  0  0  0  0  # atno 8009 bound_to 7997
  154.6749  140.2596  155.6975 H   0  0  0  0  0  0  0  0  0  0  0  0  # atno 8010 bound_to 7997
  140.6080  143.8467  150.7034 H   0  0  0  0  0  0  0  0  0  0  0  0  # atno 10167 bound_to 10162
  157.5812  131.1074  150.8183 H   0  0  0  0  0  0  0  0  0  0  0  0  # atno 10718 bound_to 10713
  154.8730  135.3760  154.4605 H   0  0  0  0  0  0  0  0  0  0  0  0  # atno 10763 bound_to 10752
  153.5273  135.7028  153.5706 H   0  0  0  0  0  0  0  0  0  0  0  0  # atno 10764 bound_to 10752
  153.3926  135.3968  155.1899 H   0  0  0  0  0  0  0  0  0  0  0  0  # atno 10765 bound_to 10752
  140.7135  134.3806  157.5194 H   0  0  0  0  0  0  0  0  0  0  0  0  # atno 11005 bound_to 11000
  144.7153  140.4188  143.7049 LP  0  0  0  0  0  0  0  0  0  0  0  0  # atno 17320 bound_to 7965
  145.6626  139.1584  143.2799 LP  0  0  0  0  0  0  0  0  0  0  0  0  # atno 17321 bound_to 7965
  140.2029  143.3945  152.1778 LP  0  0  0  0  0  0  0  0  0  0  0  0  # atno 17342 bound_to 10162
  139.5339  144.7189  151.4959 LP  0  0  0  0  0  0  0  0  0  0  0  0  # atno 17343 bound_to 10162
  156.8629  130.5119  149.5302 LP  0  0  0  0  0  0  0  0  0  0  0  0  # atno 17370 bound_to 10713
  156.0858  130.5857  150.9645 LP  0  0  0  0  0  0  0  0  0  0  0  0  # atno 17371 bound_to 10713
  139.8865  134.8906  156.2578 LP  0  0  0  0  0  0  0  0  0  0  0  0  # atno 17394 bound_to 11000
  141.0064  133.7121  156.1041 LP  0  0  0  0  0  0  0  0  0  0  0  0  # atno 17395 bound_to 11000

$$$$
