AV-unprocessed.smi:1648|AV-procd|sdf|6629|dock6
  -GOLD-   22720 7333D 1   1.00000     0.00000
 Structure written by MMmdl.
 42 42  0  0  0  0  0  0  0  0  2 V2000
  150.7510  137.1826  154.3680 C   0  0  0  0  0  0  0  0  0  0  0  0
  150.5228  138.6923  154.4621 C   0  0  0  0  0  0  0  0  0  0  0  0
  151.4778  139.4351  154.6769 O   0  0  0  0  0  0  0  0  0  0  0  0
  149.2794  139.1811  154.3121 N   0  0  0  0  0  0  0  0  0  0  0  0
  148.8604  140.5844  154.3677 C   0  0  2  0  0  0  0  0  0  0  0  0
  149.0414  141.0931  155.8106 C   0  0  0  0  0  0  0  0  0  0  0  0
  148.0782  141.1660  156.5755 O   0  0  0  0  0  0  0  0  0  0  0  0
  150.2840  141.4633  156.1587 N   0  0  0  0  0  0  0  0  0  0  0  0
  150.6710  141.9917  157.4629 C   0  0  1  0  0  0  0  0  0  0  0  0
  151.4033  140.8970  158.2552 C   0  0  0  0  0  0  0  0  0  0  0  0
  151.5085  143.2771  157.2843 C   0  0  0  0  0  0  0  0  0  0  0  0
  151.7411  143.9903  158.5432 N   0  0  0  0  0  0  0  0  0  0  0  0
  151.2240  145.2018  158.9253 C   0  0  0  0  0  0  0  0  0  0  0  0
  151.7151  145.4576  160.1799 C   0  0  0  0  0  0  0  0  0  0  0  0
  152.5063  144.3905  160.5117 N   0  3  0  0  0  0  0  0  0  0  0  0
  152.5192  143.4984  159.5159 C   0  0  0  0  0  0  0  0  0  0  0  0
  147.3594  140.6745  153.9611 C   0  0  0  0  0  0  0  0  0  0  0  0
  147.0735  139.9107  152.6528 C   0  0  0  0  0  0  0  0  0  0  0  0
  146.8561  142.1264  153.8161 C   0  0  0  0  0  0  0  0  0  0  0  0
  150.2141  136.6613  155.1607 H   0  0  0  0  0  0  0  0  0  0  0  0
  151.8110  136.9482  154.4725 H   0  0  0  0  0  0  0  0  0  0  0  0
  150.4181  136.7969  153.4042 H   0  0  0  0  0  0  0  0  0  0  0  0
  148.5414  138.5078  154.1640 H   0  0  0  0  0  0  0  0  0  0  0  0
  149.4529  141.1875  153.6777 H   0  0  0  0  0  0  0  0  0  0  0  0
  151.0150  141.3719  155.4678 H   0  0  0  0  0  0  0  0  0  0  0  0
  149.7639  142.2405  158.0172 H   0  0  0  0  0  0  0  0  0  0  0  0
  151.6388  141.2251  159.2676 H   0  0  0  0  0  0  0  0  0  0  0  0
  152.3378  140.6134  157.7701 H   0  0  0  0  0  0  0  0  0  0  0  0
  150.7884  140.0005  158.3423 H   0  0  0  0  0  0  0  0  0  0  0  0
  152.4807  143.0431  156.8475 H   0  0  0  0  0  0  0  0  0  0  0  0
  151.0153  143.9706  156.6014 H   0  0  0  0  0  0  0  0  0  0  0  0
  150.5639  145.7777  158.2927 H   0  0  0  0  0  0  0  0  0  0  0  0
  151.5629  146.2958  160.8443 H   0  0  0  0  0  0  0  0  0  0  0  0
  153.0534  142.5649  159.5000 H   0  0  0  0  0  0  0  0  0  0  0  0
  146.7602  140.2019  154.7417 H   0  0  0  0  0  0  0  0  0  0  0  0
  147.6622  140.3099  151.8263 H   0  0  0  0  0  0  0  0  0  0  0  0
  146.0214  139.9862  152.3764 H   0  0  0  0  0  0  0  0  0  0  0  0
  147.3010  138.8482  152.7401 H   0  0  0  0  0  0  0  0  0  0  0  0
  147.4470  142.6771  153.0835 H   0  0  0  0  0  0  0  0  0  0  0  0
  146.8963  142.6740  154.7576 H   0  0  0  0  0  0  0  0  0  0  0  0
  145.8171  142.1492  153.4860 H   0  0  0  0  0  0  0  0  0  0  0  0
  153.0079  144.2880  161.3852 H   0  0  0  0  0  0  0  0  0  0  0  0
  1  2  1  0  0  0  0
  1 20  1  0  0  0  0
  1 21  1  0  0  0  0
  1 22  1  0  0  0  0
  2  3  2  0  0  0  0
  2  4  1  0  0  0  0
  4  5  1  0  0  0  0
  4 23  1  0  0  0  0
  5  6  1  0  0  0  0
  5 17  1  0  0  0  0
  5 24  1  0  0  0  0
  6  7  2  0  0  0  0
  6  8  1  0  0  0  0
  8  9  1  0  0  0  0
  8 25  1  0  0  0  0
  9 10  1  0  0  0  0
  9 11  1  0  0  0  0
  9 26  1  0  0  0  0
 10 27  1  0  0  0  0
 10 28  1  0  0  0  0
 10 29  1  0  0  0  0
 11 12  1  0  0  0  0
 11 30  1  0  0  0  0
 11 31  1  0  0  0  0
 12 16  1  0  0  0  0
 12 13  1  0  0  0  0
 13 14  2  0  0  0  0
 13 32  1  0  0  0  0
 14 15  1  0  0  0  0
 14 33  1  0  0  0  0
 15 16  2  0  0  0  0
 15 42  1  0  0  0  0
 16 34  1  0  0  0  0
 17 18  1  0  0  0  0
 17 19  1  0  0  0  0
 17 35  1  0  0  0  0
 18 36  1  0  0  0  0
 18 37  1  0  0  0  0
 18 38  1  0  0  0  0
 19 39  1  0  0  0  0
 19 40  1  0  0  0  0
 19 41  1  0  0  0  0
M  CHG  1  15   1
M  END
> <s_m_source_file>
AV-unprocessed.smi

> <i_m_source_file_index>
1648

> <i_lp_mmshare_version>
43012

> <i_f3d_flags>
0

> <s_epik_input>
W0NIM11DKD1PKVtOSF1bQ0BASF0oW0NIXShbQ0gzXSlbQ0gzXSlDKD1PKVtOSF1bQ0BIXShbQ0gzXSlbQ0gyXW4xW2NIXVtjSF1uW2NIXTE=

> <s_epik_cmdline>
J2VwaWtfcHl0aG9uJywgJy1waCcsICc3LjAnLCAnLXRuJywgJzgnLCAnLW1hJywgJzIwMCcsICctbWV0YWxfYmluZGluZycsICctaW1hZScsICc8aW5maWxlLm1hZT4nLCAnLW9tYWUnLCAnPG91dGZpbGUubWFlPic=

> <r_lp_tautomer_probability>
1

> <r_epik_Ionization_Penalty>
0.251562

> <r_epik_Ionization_Penalty_Charging>
0

> <r_epik_Ionization_Penalty_Neutral>
0.251562

> <r_epik_State_Penalty>
0.242926

> <r_epik_Charging_Adjusted_Penalty>
0.242926

> <i_epik_Tot_Q>
1

> <i_epik_Tot_abs_Q>
1

> <r_epik_Metal_State_Penalty>
0.53388

> <b_epik_Metal_Only>
0

> <s_lp_Force_Field>
OPLS_2005

> <r_lp_Energy>
11.8238

> <b_lp_Chiralities_Consistent>
1

> <s_lp_Variant>
AV-unprocessed.smi:1648-3

> <Gold.Version>
5.8.1

> <Gold.Id.Protein>
6NUR|6NUR_protein|mol2

> <Gold.PLP.Fitness>
44.5014

> <Gold.PLP.PLP>
-40.3900

> <Gold.PLP.part.hbond>
-1.1256

> <Gold.PLP.part.metal>
0.0000

> <Gold.PLP.part.buried>
-3.2016

> <Gold.PLP.part.nonpolar>
-36.9610

> <Gold.PLP.part.repulsive>
0.3450

> <Gold.PLP.ligand.clash>
0.0000

> <Gold.PLP.ligand.torsion>
0.9764

> <Gold.PLP.Chemscore.Hbond>
1.0000

> <Gold.PLP.Chemscore.CHOScore>
1.0000

> <Gold.PLP.Chemscore.Metal>
0.0000

> <Gold.Chemscore.Hbonds>
donor molecule, donor type, donor heavy atom, donor atom, acceptor molecule, acceptor atom, score
      P1  H  7989  7998       L1     3  1.00
      L1  C    13    32       P1  8029  0.24

> <Gold.PLP.Chemscore.Internal.Correction>
0.0642

> <Gold.Rescore>
     Score         DG    S(hbond)    S(metal)    S(lipo)     H(rot)  DE(clash)    DE(int)     intcor
     10.13     -11.44       0.98        0.00      80.18       2.61       0.09       1.22       ----

> <Gold.Chemscore.Fitness>
10.1313

> <Gold.Chemscore.DG>
-11.4434

> <Gold.Chemscore.ZeroCoef>
-5.4800

> <Gold.Chemscore.Hbond>
0.9798

> <Gold.Chemscore.Metal>
0.0000

> <Gold.Chemscore.Lipo>
80.1826

> <Gold.Chemscore.Internal_Hbond>
0.0000

> <Gold.Chemscore.DEClash>
0.0875

> <Gold.Chemscore.DEInternal>
1.2246

> <Gold.Chemscore.Rot>
2.6135

> <Gold.Chemscore.Internal.Correction>
   9.000000E+99

> <Gold.Chemscore.Hbonds>
donor molecule, donor type, donor heavy atom, donor atom, acceptor molecule, acceptor atom, score
      P1  H  7989  7998       L1     3  0.90

> <Gold.Chemscore.Hbond.Weighted>
-3.2726

> <Gold.Chemscore.Metal.Weighted>
-0.0000

> <Gold.Chemscore.Lipo.Weighted>
-9.3814

> <Gold.Chemscore.Internal_Hbond.Weighted>
0.0000

> <Gold.Chemscore.DEClash.Weighted>
0.0875

> <Gold.Chemscore.DEInternal.Weighted>
1.2246

> <Gold.Chemscore.Rot.Weighted>
6.6906

> <Gold.Chemscore.Internal.Correction.Weighted>
   9.000000E+99

> <Gold.Protein.RotatedTorsions>
[ 6907 6896 6895 6894 ] final  121.22 input  -60.11 | X-H torsion
[ 7974 7965 7964 7962 ] final   89.64 input  175.53 | X-H torsion
[ 8008 7997 7996 7995 ] final -145.46 input   59.86 | X-H torsion
[ 10167 10162 10161 10158 ] final  100.40 input  -65.29 | X-H torsion
[ 10718 10713 10712 10709 ] final  -28.10 input   66.30 | X-H torsion
[ 10763 10752 10751 10750 ] final   46.45 input  -60.55 | X-H torsion
[ 11005 11000 10999 10996 ] final -129.36 input  -57.11 | X-H torsion

> <Gold.Protein.ActiveResidues>
 VAL166  LYS551  ARG553  GLY616  TRP617  ASP618  TYR619  PRO620  LYS621  CYS622 
 ASP623  PHE694  ASN695  SER759  ASP760  ASP761  ALA762  ILE779  LEU786  VAL792 
 PHE793  MET794  SER795  GLU796  ALA797  LYS798  CYS799  TRP800  GLU811  SER814 

> <Gold.Protein.RotatedAtoms>
  152.4338  133.7325  159.6595 H   0  0  0  0  0  0  0  0  0  0  0  0  # atno 6907 bound_to 6896
  150.8220  133.8226  159.3141 H   0  0  0  0  0  0  0  0  0  0  0  0  # atno 6908 bound_to 6896
  151.5905  135.1056  160.0089 H   0  0  0  0  0  0  0  0  0  0  0  0  # atno 6909 bound_to 6896
  145.5297  139.2282  143.2625 H   0  0  0  0  0  0  0  0  0  0  0  0  # atno 7974 bound_to 7965
  155.5435  140.0610  157.2865 H   0  0  0  0  0  0  0  0  0  0  0  0  # atno 8008 bound_to 7997
  154.4444  140.1915  156.0659 H   0  0  0  0  0  0  0  0  0  0  0  0  # atno 8009 bound_to 7997
  156.0567  140.3277  155.7418 H   0  0  0  0  0  0  0  0  0  0  0  0  # atno 8010 bound_to 7997
  139.7530  144.6978  151.0403 H   0  0  0  0  0  0  0  0  0  0  0  0  # atno 10167 bound_to 10162
  156.4297  130.4442  149.7126 H   0  0  0  0  0  0  0  0  0  0  0  0  # atno 10718 bound_to 10713
  152.9811  135.6008  154.3601 H   0  0  0  0  0  0  0  0  0  0  0  0  # atno 10763 bound_to 10752
  154.3284  135.2769  155.2486 H   0  0  0  0  0  0  0  0  0  0  0  0  # atno 10764 bound_to 10752
  154.4621  135.5963  153.6319 H   0  0  0  0  0  0  0  0  0  0  0  0  # atno 10765 bound_to 10752
  140.9438  134.1157  157.4126 H   0  0  0  0  0  0  0  0  0  0  0  0  # atno 11005 bound_to 11000
  146.2052  140.6113  142.9084 LP  0  0  0  0  0  0  0  0  0  0  0  0  # atno 17320 bound_to 7965
  144.7632  140.5471  143.6721 LP  0  0  0  0  0  0  0  0  0  0  0  0  # atno 17321 bound_to 7965
  140.7800  143.4786  151.0049 LP  0  0  0  0  0  0  0  0  0  0  0  0  # atno 17342 bound_to 10162
  139.8473  143.7484  152.3179 LP  0  0  0  0  0  0  0  0  0  0  0  0  # atno 17343 bound_to 10162
  156.4034  130.7686  151.2695 LP  0  0  0  0  0  0  0  0  0  0  0  0  # atno 17370 bound_to 10713
  157.7508  131.0233  150.3828 LP  0  0  0  0  0  0  0  0  0  0  0  0  # atno 17371 bound_to 10713
  139.8827  135.0045  156.6253 LP  0  0  0  0  0  0  0  0  0  0  0  0  # atno 17394 bound_to 11000
  140.7697  133.8748  155.8482 LP  0  0  0  0  0  0  0  0  0  0  0  0  # atno 17395 bound_to 11000

$$$$
