AV-unprocessed.smi:280|AV-procd|sdf|2098|dock8
  -GOLD-   2262021383D 1   1.00000     0.00000
 Structure written by MMmdl.
 59 62  0  0  0  0  0  0  0  0  2 V2000
  148.2574  137.8730  156.4864 C   0  0  0  0  0  0  0  0  0  0  0  0
  148.5482  137.6348  154.9880 C   0  0  1  0  0  0  0  0  0  0  0  0
  149.9954  138.0231  154.6155 C   0  0  0  0  0  0  0  0  0  0  0  0
  150.9515  137.0353  155.1171 N   0  0  0  0  0  0  0  0  0  0  0  0
  151.6275  137.3097  156.2671 C   0  0  0  0  0  0  0  0  0  0  0  0
  152.5649  136.4104  156.6659 N   0  0  0  0  0  0  0  0  0  0  0  0
  153.2706  136.6069  157.7818 C   0  0  0  0  0  0  0  0  0  0  0  0
  153.2028  137.6238  158.6398 N   0  0  0  0  0  0  0  0  0  0  0  0
  152.2657  138.5349  158.2554 C   0  0  0  0  0  0  0  0  0  0  0  0
  151.4413  138.4612  157.0937 C   0  0  0  0  0  0  0  0  0  0  0  0
  150.6313  139.5909  157.0344 N   0  0  0  0  0  0  0  0  0  0  0  0
  150.9493  140.2803  158.0947 C   0  0  0  0  0  0  0  0  0  0  0  0
  151.9166  139.7138  158.8916 N   0  0  0  0  0  0  0  0  0  0  0  0
  152.4579  140.2676  160.1244 C   0  0  0  0  0  0  0  0  0  0  0  0
  153.3926  141.4766  159.9209 C   0  0  0  0  0  0  0  0  0  0  0  0
  154.8449  140.9717  159.7954 C   0  0  0  0  0  0  0  0  0  0  0  0
  154.9625  139.8674  158.9205 O   0  0  0  0  0  0  0  0  0  0  0  0
  152.9528  142.5112  158.8746 C   0  0  0  0  0  0  0  0  0  0  0  0
  153.0920  143.5992  159.8143 O   0  0  0  0  0  0  0  0  0  0  0  0
  153.1605  142.6421  160.8940 C   0  0  0  0  0  0  0  0  0  0  0  0
  150.6812  135.6632  154.7011 C   0  0  0  0  0  0  0  0  0  0  0  0
  149.2429  135.2483  155.0645 C   0  0  0  0  0  0  0  0  0  0  0  0
  148.2603  136.2383  154.5447 N   0  3  1  0  0  0  0  0  0  0  0  0
  146.8385  135.8250  154.7006 C   0  0  0  0  0  0  0  0  0  0  0  0
  146.3744  134.8144  153.6232 C   0  0  0  0  0  0  0  0  0  0  0  0
  147.0679  133.4588  153.8415 C   0  0  0  0  0  0  0  0  0  0  0  0
  144.8451  134.6337  153.6124 C   0  0  0  0  0  0  0  0  0  0  0  0
  146.7779  135.2635  152.3456 O   0  0  0  0  0  0  0  0  0  0  0  0
  148.4708  138.9072  156.7576 H   0  0  0  0  0  0  0  0  0  0  0  0
  148.8655  137.2399  157.1318 H   0  0  0  0  0  0  0  0  0  0  0  0
  147.2130  137.6878  156.7357 H   0  0  0  0  0  0  0  0  0  0  0  0
  147.8880  138.2937  154.4223 H   0  0  0  0  0  0  0  0  0  0  0  0
  150.0933  138.0547  153.5297 H   0  0  0  0  0  0  0  0  0  0  0  0
  150.2101  139.0343  154.9610 H   0  0  0  0  0  0  0  0  0  0  0  0
  153.9929  135.8402  158.0208 H   0  0  0  0  0  0  0  0  0  0  0  0
  150.4803  141.2250  158.3288 H   0  0  0  0  0  0  0  0  0  0  0  0
  151.6176  140.5356  160.7663 H   0  0  0  0  0  0  0  0  0  0  0  0
  152.9846  139.4701  160.6500 H   0  0  0  0  0  0  0  0  0  0  0  0
  155.5016  141.7620  159.4301 H   0  0  0  0  0  0  0  0  0  0  0  0
  155.2353  140.6559  160.7628 H   0  0  0  0  0  0  0  0  0  0  0  0
  155.3408  139.1444  159.3974 H   0  0  0  0  0  0  0  0  0  0  0  0
  153.6260  142.5997  158.0212 H   0  0  0  0  0  0  0  0  0  0  0  0
  151.9193  142.4044  158.5448 H   0  0  0  0  0  0  0  0  0  0  0  0
  152.2168  142.5827  161.4387 H   0  0  0  0  0  0  0  0  0  0  0  0
  153.9878  142.8336  161.5783 H   0  0  0  0  0  0  0  0  0  0  0  0
  150.8020  135.6187  153.6183 H   0  0  0  0  0  0  0  0  0  0  0  0
  151.4139  134.9643  155.1025 H   0  0  0  0  0  0  0  0  0  0  0  0
  149.0457  134.2611  154.6500 H   0  0  0  0  0  0  0  0  0  0  0  0
  149.1297  135.1534  156.1440 H   0  0  0  0  0  0  0  0  0  0  0  0
  146.6699  135.4352  155.7059 H   0  0  0  0  0  0  0  0  0  0  0  0
  146.1958  136.7020  154.6129 H   0  0  0  0  0  0  0  0  0  0  0  0
  146.7975  133.0276  154.8060 H   0  0  0  0  0  0  0  0  0  0  0  0
  148.1539  133.5582  153.8199 H   0  0  0  0  0  0  0  0  0  0  0  0
  146.7893  132.7377  153.0716 H   0  0  0  0  0  0  0  0  0  0  0  0
  144.4826  134.2921  154.5827 H   0  0  0  0  0  0  0  0  0  0  0  0
  144.5389  133.8952  152.8704 H   0  0  0  0  0  0  0  0  0  0  0  0
  144.3264  135.5630  153.3755 H   0  0  0  0  0  0  0  0  0  0  0  0
  147.5919  135.7364  152.4348 H   0  0  0  0  0  0  0  0  0  0  0  0
  148.4109  136.2566  153.5462 H   0  0  0  0  0  0  0  0  0  0  0  0
  1  2  1  0  0  0  0
  1 29  1  0  0  0  0
  1 30  1  0  0  0  0
  1 31  1  0  0  0  0
  2 23  1  0  0  0  0
  2  3  1  0  0  0  0
  2 32  1  0  0  0  0
  3  4  1  0  0  0  0
  3 33  1  0  0  0  0
  3 34  1  0  0  0  0
  4  5  1  0  0  0  0
  4 21  1  0  0  0  0
  5 10  1  0  0  0  0
  5  6  2  0  0  0  0
  6  7  1  0  0  0  0
  7  8  2  0  0  0  0
  7 35  1  0  0  0  0
  8  9  1  0  0  0  0
  9 13  1  0  0  0  0
  9 10  2  0  0  0  0
 10 11  1  0  0  0  0
 11 12  2  0  0  0  0
 12 13  1  0  0  0  0
 12 36  1  0  0  0  0
 13 14  1  0  0  0  0
 14 15  1  0  0  0  0
 14 37  1  0  0  0  0
 14 38  1  0  0  0  0
 15 20  1  0  0  0  0
 15 16  1  0  0  0  0
 15 18  1  0  0  0  0
 16 17  1  0  0  0  0
 16 39  1  0  0  0  0
 16 40  1  0  0  0  0
 17 41  1  0  0  0  0
 18 19  1  0  0  0  0
 18 42  1  0  0  0  0
 18 43  1  0  0  0  0
 19 20  1  0  0  0  0
 20 44  1  0  0  0  0
 20 45  1  0  0  0  0
 21 22  1  0  0  0  0
 21 46  1  0  0  0  0
 21 47  1  0  0  0  0
 22 23  1  0  0  0  0
 22 48  1  0  0  0  0
 22 49  1  0  0  0  0
 23 24  1  0  0  0  0
 23 59  1  0  0  0  0
 24 25  1  0  0  0  0
 24 50  1  0  0  0  0
 24 51  1  0  0  0  0
 25 26  1  0  0  0  0
 25 27  1  0  0  0  0
 25 28  1  0  0  0  0
 26 52  1  0  0  0  0
 26 53  1  0  0  0  0
 26 54  1  0  0  0  0
 27 55  1  0  0  0  0
 27 56  1  0  0  0  0
 27 57  1  0  0  0  0
 28 58  1  0  0  0  0
M  CHG  1  23   1
M  END
> <s_m_source_file>
AV-unprocessed.smi

> <i_m_source_file_index>
280

> <i_lp_mmshare_version>
43012

> <i_f3d_flags>
0

> <s_epik_input>
W0NIM11DKFtDSDNdKShbT0hdKVtDSDJdTjFbQ0gyXVtDSDJdTihbQ0gyXVtDQEhdMVtDSDNdKWMobltjSF1uMiljKGMyMyluW2NIXW4zW0NIMl1DNChbQ0gyXVtPSF0pW0NIMl1PW0NIMl00

> <s_epik_cmdline>
J2VwaWtfcHl0aG9uJywgJy1waCcsICc3LjAnLCAnLXRuJywgJzgnLCAnLW1hJywgJzIwMCcsICctbWV0YWxfYmluZGluZycsICctaW1hZScsICc8aW5maWxlLm1hZT4nLCAnLW9tYWUnLCAnPG91dGZpbGUubWFlPic=

> <r_lp_tautomer_probability>
1

> <r_epik_Ionization_Penalty>
0.00179402

> <r_epik_Ionization_Penalty_Charging>
0.00173996

> <r_epik_Ionization_Penalty_Neutral>
5.40607e-05

> <r_epik_State_Penalty>
-0

> <r_epik_Charging_Adjusted_Penalty>
0.00173996

> <i_epik_Tot_Q>
1

> <i_epik_Tot_abs_Q>
1

> <r_epik_Metal_State_Penalty>
-0

> <b_epik_Metal_Only>
0

> <s_lp_Force_Field>
OPLS_2005

> <r_lp_Energy>
54.8934

> <b_lp_Chiralities_Consistent>
1

> <s_lp_Variant>
AV-unprocessed.smi:280-2

> <Gold.Version>
5.8.1

> <Gold.Id.Protein>
6NUR|6NUR_protein|mol2

> <Gold.PLP.Fitness>
45.5971

> <Gold.PLP.PLP>
-32.8131

> <Gold.PLP.part.hbond>
-3.5614

> <Gold.PLP.part.metal>
0.0000

> <Gold.PLP.part.buried>
-3.8051

> <Gold.PLP.part.nonpolar>
-24.6767

> <Gold.PLP.part.repulsive>
0.0000

> <Gold.PLP.ligand.clash>
0.0000

> <Gold.PLP.ligand.torsion>
1.5554

> <Gold.PLP.Chemscore.Hbond>
4.9920

> <Gold.PLP.Chemscore.CHOScore>
0.0000

> <Gold.PLP.Chemscore.Metal>
0.0000

> <Gold.Chemscore.Hbonds>
donor molecule, donor type, donor heavy atom, donor atom, acceptor molecule, acceptor atom, score
      L1  H    23    59       P1  7948  2.00
      L1  H    28    58       P1  7948  0.99
      P1  H  7997  8010       L1    17  1.00
      P1  H 10752 10763       L1     6  1.00

> <Gold.PLP.Chemscore.Internal.Correction>
0.9188

> <Gold.Rescore>
     Score         DG    S(hbond)    S(metal)    S(lipo)     H(rot)  DE(clash)    DE(int)     intcor
     14.36     -19.15       3.78        0.00      81.13       3.30       0.19       4.60       ----

> <Gold.Chemscore.Fitness>
14.3571

> <Gold.Chemscore.DG>
-19.1485

> <Gold.Chemscore.ZeroCoef>
-5.4800

> <Gold.Chemscore.Hbond>
3.7792

> <Gold.Chemscore.Metal>
0.0000

> <Gold.Chemscore.Lipo>
81.1253

> <Gold.Chemscore.Internal_Hbond>
0.0000

> <Gold.Chemscore.DEClash>
0.1884

> <Gold.Chemscore.DEInternal>
4.6030

> <Gold.Chemscore.Rot>
3.2991

> <Gold.Chemscore.Internal.Correction>
   9.000000E+99

> <Gold.Chemscore.Hbonds>
donor molecule, donor type, donor heavy atom, donor atom, acceptor molecule, acceptor atom, score
      L1  H    23    59       P1  7948  1.00
      L1  H    28    58       P1  7948  0.89
      P1  H  7997  8010       L1    17  0.95
      P1  H 10752 10763       L1     6  0.86

> <Gold.Chemscore.Hbond.Weighted>
-12.6225

> <Gold.Chemscore.Metal.Weighted>
-0.0000

> <Gold.Chemscore.Lipo.Weighted>
-9.4917

> <Gold.Chemscore.Internal_Hbond.Weighted>
0.0000

> <Gold.Chemscore.DEClash.Weighted>
0.1884

> <Gold.Chemscore.DEInternal.Weighted>
4.6030

> <Gold.Chemscore.Rot.Weighted>
8.4456

> <Gold.Chemscore.Internal.Correction.Weighted>
   9.000000E+99

> <Gold.Protein.RotatedTorsions>
[ 6907 6896 6895 6894 ] final -138.99 input  -60.11 | X-H torsion
[ 7974 7965 7964 7962 ] final -123.50 input  175.53 | X-H torsion
[ 8008 7997 7996 7995 ] final    2.73 input   59.86 | X-H torsion
[ 10167 10162 10161 10158 ] final  113.29 input  -65.29 | X-H torsion
[ 10718 10713 10712 10709 ] final    8.27 input   66.30 | X-H torsion
[ 10763 10752 10751 10750 ] final  107.69 input  -60.55 | X-H torsion
[ 11005 11000 10999 10996 ] final  147.78 input  -57.11 | X-H torsion

> <Gold.Protein.ActiveResidues>
 VAL166  LYS551  ARG553  GLY616  TRP617  ASP618  TYR619  PRO620  LYS621  CYS622 
 ASP623  PHE694  ASN695  SER759  ASP760  ASP761  ALA762  ILE779  LEU786  VAL792 
 PHE793  MET794  SER795  GLU796  ALA797  LYS798  CYS799  TRP800  GLU811  SER814 

> <Gold.Protein.RotatedAtoms>
  151.0421  133.5697  159.2649 H   0  0  0  0  0  0  0  0  0  0  0  0  # atno 6907 bound_to 6896
  151.2740  135.0692  159.9154 H   0  0  0  0  0  0  0  0  0  0  0  0  # atno 6908 bound_to 6896
  152.5366  134.0146  159.8008 H   0  0  0  0  0  0  0  0  0  0  0  0  # atno 6909 bound_to 6896
  145.0180  140.7964  143.4398 H   0  0  0  0  0  0  0  0  0  0  0  0  # atno 7974 bound_to 7965
  154.6951  140.2661  155.6774 H   0  0  0  0  0  0  0  0  0  0  0  0  # atno 8008 bound_to 7997
  156.2746  140.2783  156.1466 H   0  0  0  0  0  0  0  0  0  0  0  0  # atno 8009 bound_to 7997
  155.0842  140.0373  157.2639 H   0  0  0  0  0  0  0  0  0  0  0  0  # atno 8010 bound_to 7997
  139.6472  144.7127  151.2118 H   0  0  0  0  0  0  0  0  0  0  0  0  # atno 10167 bound_to 10162
  156.9491  130.5890  149.5656 H   0  0  0  0  0  0  0  0  0  0  0  0  # atno 10718 bound_to 10713
  153.4103  135.3836  155.2045 H   0  0  0  0  0  0  0  0  0  0  0  0  # atno 10763 bound_to 10752
  154.8737  135.3792  154.4509 H   0  0  0  0  0  0  0  0  0  0  0  0  # atno 10764 bound_to 10752
  153.5017  135.7088  153.5890 H   0  0  0  0  0  0  0  0  0  0  0  0  # atno 10765 bound_to 10752
  140.0904  134.9044  157.1642 H   0  0  0  0  0  0  0  0  0  0  0  0  # atno 11005 bound_to 11000
  145.1934  139.2289  143.5231 LP  0  0  0  0  0  0  0  0  0  0  0  0  # atno 17320 bound_to 7965
  146.3481  140.1735  142.8589 LP  0  0  0  0  0  0  0  0  0  0  0  0  # atno 17321 bound_to 7965
  140.7520  143.6210  150.8513 LP  0  0  0  0  0  0  0  0  0  0  0  0  # atno 17342 bound_to 10162
  139.9854  143.5905  152.2928 LP  0  0  0  0  0  0  0  0  0  0  0  0  # atno 17343 bound_to 10162
  156.0370  130.5457  150.8679 LP  0  0  0  0  0  0  0  0  0  0  0  0  # atno 17370 bound_to 10713
  157.5734  131.0946  150.9383 LP  0  0  0  0  0  0  0  0  0  0  0  0  # atno 17371 bound_to 10713
  140.3360  134.2757  155.7220 LP  0  0  0  0  0  0  0  0  0  0  0  0  # atno 17394 bound_to 11000
  141.2076  133.7801  157.0109 LP  0  0  0  0  0  0  0  0  0  0  0  0  # atno 17395 bound_to 11000

$$$$
