AV-unprocessed.smi:1683|AV-procd|sdf|6751|dock4
  -GOLD-   22720 7503D 1   1.00000     0.00000
 Structure written by MMmdl.
 37 38  0  0  0  0  0  0  0  0  2 V2000
  144.5391  136.6726  151.7132 O   0  0  0  0  0  0  0  0  0  0  0  0
  145.7387  136.4000  151.7518 C   0  0  0  0  0  0  0  0  0  0  0  0
  146.6965  137.3082  151.9872 N   0  0  0  0  0  0  0  0  0  0  0  0
  146.4670  138.7330  152.2052 C   0  0  0  0  0  0  0  0  0  0  0  0
  147.0550  139.2279  153.5413 C   0  0  2  0  0  0  0  0  0  0  0  0
  147.4259  140.7070  153.5463 C   0  0  0  0  0  0  0  0  0  0  0  0
  148.3791  140.8033  154.7336 C   0  0  0  0  0  0  0  0  0  0  0  0
  149.1481  139.5383  154.7280 N   0  3  1  0  0  0  0  0  0  0  0  0
  149.6068  139.0723  156.0605 C   0  0  0  0  0  0  0  0  0  0  0  0
  150.9995  139.6088  156.4378 C   0  0  0  0  0  0  0  0  0  0  0  0
  151.3584  139.2097  157.6575 F   0  0  0  0  0  0  0  0  0  0  0  0
  151.8928  139.1457  155.5649 F   0  0  0  0  0  0  0  0  0  0  0  0
  151.0064  140.9409  156.3898 F   0  0  0  0  0  0  0  0  0  0  0  0
  148.3575  138.5365  153.9715 C   0  0  0  0  0  0  0  0  0  0  0  0
  146.2599  135.1759  151.5700 N   0  0  0  0  0  0  0  0  0  0  0  0
  145.5557  133.9739  151.3091 C   0  0  0  0  0  0  0  0  0  0  0  0
  146.0612  132.6549  151.1136 C   0  0  0  0  0  0  0  0  0  0  0  0
  145.0789  131.7927  150.8926 N   0  0  0  0  0  0  0  0  0  0  0  0
  143.9564  132.5447  150.9442 N   0  0  0  0  0  0  0  0  0  0  0  0
  144.2011  133.8771  151.1936 C   0  0  0  0  0  0  0  0  0  0  0  0
  143.0417  132.1379  150.8094 H   0  0  0  0  0  0  0  0  0  0  0  0
  147.6563  136.9947  151.9943 H   0  0  0  0  0  0  0  0  0  0  0  0
  146.9182  139.2759  151.3741 H   0  0  0  0  0  0  0  0  0  0  0  0
  145.3965  138.9419  152.1635 H   0  0  0  0  0  0  0  0  0  0  0  0
  146.3184  139.0772  154.3326 H   0  0  0  0  0  0  0  0  0  0  0  0
  147.9474  140.9745  152.6257 H   0  0  0  0  0  0  0  0  0  0  0  0
  146.5594  141.3612  153.6475 H   0  0  0  0  0  0  0  0  0  0  0  0
  149.0334  141.6729  154.6696 H   0  0  0  0  0  0  0  0  0  0  0  0
  147.7993  140.8836  155.6547 H   0  0  0  0  0  0  0  0  0  0  0  0
  148.8721  139.3325  156.8241 H   0  0  0  0  0  0  0  0  0  0  0  0
  149.6582  137.9826  156.0384 H   0  0  0  0  0  0  0  0  0  0  0  0
  148.1467  137.6374  154.5526 H   0  0  0  0  0  0  0  0  0  0  0  0
  148.9438  138.2336  153.1031 H   0  0  0  0  0  0  0  0  0  0  0  0
  147.2651  135.0952  151.6164 H   0  0  0  0  0  0  0  0  0  0  0  0
  147.0787  132.2930  151.1219 H   0  0  0  0  0  0  0  0  0  0  0  0
  143.4141  134.6132  151.2660 H   0  0  0  0  0  0  0  0  0  0  0  0
  149.9769  139.7061  154.1752 H   0  0  0  0  0  0  0  0  0  0  0  0
  1  2  2  0  0  0  0
  2  3  1  0  0  0  0
  2 15  1  0  0  0  0
  3  4  1  0  0  0  0
  3 22  1  0  0  0  0
  4  5  1  0  0  0  0
  4 23  1  0  0  0  0
  4 24  1  0  0  0  0
  5 14  1  0  0  0  0
  5  6  1  0  0  0  0
  5 25  1  0  0  0  0
  6  7  1  0  0  0  0
  6 26  1  0  0  0  0
  6 27  1  0  0  0  0
  7  8  1  0  0  0  0
  7 28  1  0  0  0  0
  7 29  1  0  0  0  0
  8  9  1  0  0  0  0
  8 14  1  0  0  0  0
  8 37  1  0  0  0  0
  9 10  1  0  0  0  0
  9 30  1  0  0  0  0
  9 31  1  0  0  0  0
 10 11  1  0  0  0  0
 10 12  1  0  0  0  0
 10 13  1  0  0  0  0
 14 32  1  0  0  0  0
 14 33  1  0  0  0  0
 15 16  1  0  0  0  0
 15 34  1  0  0  0  0
 16 20  2  0  0  0  0
 16 17  1  0  0  0  0
 17 18  2  0  0  0  0
 17 35  1  0  0  0  0
 18 19  1  0  0  0  0
 19 21  1  0  0  0  0
 19 20  1  0  0  0  0
 20 36  1  0  0  0  0
M  CHG  1   8   1
M  END
> <s_m_source_file>
AV-unprocessed.smi

> <i_m_source_file_index>
1683

> <i_lp_mmshare_version>
43012

> <i_f3d_flags>
0

> <s_epik_input>
W2NIXTFbbkhdbltjSF1jMVtOSF1DKD1PKVtOSF1bQ0gyXVtDQEBIXTJbQ0gyXVtDSDJdTihbQ0gyXTIpW0NIMl1DKEYpKEYpRg==

> <s_epik_cmdline>
J2VwaWtfcHl0aG9uJywgJy1waCcsICc3LjAnLCAnLXRuJywgJzgnLCAnLW1hJywgJzIwMCcsICctbWV0YWxfYmluZGluZycsICctaW1hZScsICc8aW5maWxlLm1hZT4nLCAnLW9tYWUnLCAnPG91dGZpbGUubWFlPic=

> <r_lp_tautomer_probability>
0.5

> <r_epik_Ionization_Penalty>
0.641865

> <r_epik_Ionization_Penalty_Charging>
0.64182

> <r_epik_Ionization_Penalty_Neutral>
4.50685e-05

> <r_epik_State_Penalty>
0.65957

> <r_epik_Charging_Adjusted_Penalty>
1.30139

> <i_epik_Tot_Q>
1

> <i_epik_Tot_abs_Q>
1

> <r_epik_Metal_State_Penalty>
0.659571

> <b_epik_Metal_Only>
0

> <s_lp_Force_Field>
OPLS_2005

> <r_lp_Energy>
31.6125

> <b_lp_Chiralities_Consistent>
1

> <s_lp_Variant>
AV-unprocessed.smi:1683-5

> <Gold.Version>
5.8.1

> <Gold.Id.Protein>
6NUR|6NUR_protein|mol2

> <Gold.PLP.Fitness>
39.0761

> <Gold.PLP.PLP>
-31.5226

> <Gold.PLP.part.hbond>
-1.9892

> <Gold.PLP.part.metal>
0.0000

> <Gold.PLP.part.buried>
-2.8988

> <Gold.PLP.part.nonpolar>
-27.6523

> <Gold.PLP.part.repulsive>
1.2676

> <Gold.PLP.ligand.clash>
0.0000

> <Gold.PLP.ligand.torsion>
0.7521

> <Gold.PLP.Chemscore.Hbond>
1.8800

> <Gold.PLP.Chemscore.CHOScore>
1.0000

> <Gold.PLP.Chemscore.Metal>
0.0000

> <Gold.Chemscore.Hbonds>
donor molecule, donor type, donor heavy atom, donor atom, acceptor molecule, acceptor atom, score
      L1  H     3    22       P1  7948  0.89
      L1  H    15    34       P1  7948  0.85
      L1  C    17    35       P1 10747  1.00

> <Gold.PLP.Chemscore.Internal.Correction>
0.4176

> <Gold.Rescore>
     Score         DG    S(hbond)    S(metal)    S(lipo)     H(rot)  DE(clash)    DE(int)     intcor
     11.34     -13.97       1.83        0.00      59.88       1.81       0.50       2.12       ----

> <Gold.Chemscore.Fitness>
11.3437

> <Gold.Chemscore.DG>
-13.9650

> <Gold.Chemscore.ZeroCoef>
-5.4800

> <Gold.Chemscore.Hbond>
1.8313

> <Gold.Chemscore.Metal>
0.0000

> <Gold.Chemscore.Lipo>
59.8826

> <Gold.Chemscore.Internal_Hbond>
0.0000

> <Gold.Chemscore.DEClash>
0.5042

> <Gold.Chemscore.DEInternal>
2.1172

> <Gold.Chemscore.Rot>
1.8116

> <Gold.Chemscore.Internal.Correction>
   9.000000E+99

> <Gold.Chemscore.Hbonds>
donor molecule, donor type, donor heavy atom, donor atom, acceptor molecule, acceptor atom, score
      L1  H     3    22       P1  7948  0.87
      L1  H    15    34       P1  7948  0.70

> <Gold.Chemscore.Hbond.Weighted>
-6.1166

> <Gold.Chemscore.Metal.Weighted>
-0.0000

> <Gold.Chemscore.Lipo.Weighted>
-7.0063

> <Gold.Chemscore.Internal_Hbond.Weighted>
0.0000

> <Gold.Chemscore.DEClash.Weighted>
0.5042

> <Gold.Chemscore.DEInternal.Weighted>
2.1172

> <Gold.Chemscore.Rot.Weighted>
4.6378

> <Gold.Chemscore.Internal.Correction.Weighted>
   9.000000E+99

> <Gold.Protein.RotatedTorsions>
[ 6907 6896 6895 6894 ] final   49.58 input  -60.11 | X-H torsion
[ 7974 7965 7964 7962 ] final   70.85 input  175.53 | X-H torsion
[ 8008 7997 7996 7995 ] final -144.81 input   59.86 | X-H torsion
[ 10167 10162 10161 10158 ] final  -89.05 input  -65.29 | X-H torsion
[ 10718 10713 10712 10709 ] final  -72.62 input   66.30 | X-H torsion
[ 10763 10752 10751 10750 ] final -144.25 input  -60.55 | X-H torsion
[ 11005 11000 10999 10996 ] final   50.29 input  -57.11 | X-H torsion

> <Gold.Protein.ActiveResidues>
 VAL166  LYS551  ARG553  GLY616  TRP617  ASP618  TYR619  PRO620  LYS621  CYS622 
 ASP623  PHE694  ASN695  SER759  ASP760  ASP761  ALA762  ILE779  LEU786  VAL792 
 PHE793  MET794  SER795  GLU796  ALA797  LYS798  CYS799  TRP800  GLU811  SER814 

> <Gold.Protein.RotatedAtoms>
  152.2923  134.7707  160.0374 H   0  0  0  0  0  0  0  0  0  0  0  0  # atno 6907 bound_to 6896
  151.8248  133.3394  159.3603 H   0  0  0  0  0  0  0  0  0  0  0  0  # atno 6908 bound_to 6896
  150.7236  134.5468  159.5819 H   0  0  0  0  0  0  0  0  0  0  0  0  # atno 6909 bound_to 6896
  145.7731  139.2852  143.1309 H   0  0  0  0  0  0  0  0  0  0  0  0  # atno 7974 bound_to 7965
  155.5329  140.0601  157.2885 H   0  0  0  0  0  0  0  0  0  0  0  0  # atno 8008 bound_to 7997
  154.4478  140.1932  156.0557 H   0  0  0  0  0  0  0  0  0  0  0  0  # atno 8009 bound_to 7997
  156.0639  140.3269  155.7499 H   0  0  0  0  0  0  0  0  0  0  0  0  # atno 8010 bound_to 7997
  140.3686  143.2805  151.9527 H   0  0  0  0  0  0  0  0  0  0  0  0  # atno 10167 bound_to 10162
  156.0313  130.4376  150.2620 H   0  0  0  0  0  0  0  0  0  0  0  0  # atno 10718 bound_to 10713
  154.8436  135.3445  154.6316 H   0  0  0  0  0  0  0  0  0  0  0  0  # atno 10763 bound_to 10752
  153.6925  135.6974  153.5090 H   0  0  0  0  0  0  0  0  0  0  0  0  # atno 10764 bound_to 10752
  153.2584  135.4331  155.0824 H   0  0  0  0  0  0  0  0  0  0  0  0  # atno 10765 bound_to 10752
  140.1030  134.5056  155.8745 H   0  0  0  0  0  0  0  0  0  0  0  0  # atno 11005 bound_to 11000
  146.0150  140.8401  142.9952 LP  0  0  0  0  0  0  0  0  0  0  0  0  # atno 17320 bound_to 7965
  144.6809  140.2545  143.7327 LP  0  0  0  0  0  0  0  0  0  0  0  0  # atno 17321 bound_to 7965
  139.4806  144.5927  151.7743 LP  0  0  0  0  0  0  0  0  0  0  0  0  # atno 17342 bound_to 10162
  140.5056  144.1104  150.5981 LP  0  0  0  0  0  0  0  0  0  0  0  0  # atno 17343 bound_to 10162
  157.0722  131.0120  151.3186 LP  0  0  0  0  0  0  0  0  0  0  0  0  # atno 17370 bound_to 10713
  157.4990  130.7868  149.7585 LP  0  0  0  0  0  0  0  0  0  0  0  0  # atno 17371 bound_to 10713
  141.2111  133.6702  156.6555 LP  0  0  0  0  0  0  0  0  0  0  0  0  # atno 17394 bound_to 11000
  140.3194  134.8020  157.4240 LP  0  0  0  0  0  0  0  0  0  0  0  0  # atno 17395 bound_to 11000

$$$$
