AV-unprocessed.smi:2044|AV-procd|sdf|8307|dock8
  -GOLD-   2272010573D 1   1.00000     0.00000
 Structure written by MMmdl.
 39 40  0  0  0  0  0  0  0  0  3 V2000
  153.4167  142.3446  160.5643 C   0  0  0  0  0  0  0  0  0  0  0  0
  152.4989  142.7614  159.4661 C   0  0  0  0  0  0  0  0  0  0  0  0
  151.7832  142.0587  158.5381 C   0  0  0  0  0  0  0  0  0  0  0  0
  151.1285  143.0785  157.7976 C   0  0  0  0  0  0  0  0  0  0  0  0
  150.2633  142.7501  156.7208 N   0  0  0  0  0  0  0  0  0  0  0  0
  149.7753  141.5461  156.3724 C   0  0  0  0  0  0  0  0  0  0  0  0
  150.0235  140.5481  157.0596 O   0  0  0  0  0  0  0  0  0  0  0  0
  149.0421  141.5958  155.2255 N   0  5  0  0  0  0  0  0  0  0  0  0
  148.3858  140.4454  154.5941 C   0  0  0  0  0  0  0  0  0  0  0  0
  146.8764  140.7092  154.3338 C   0  0  1  0  0  0  0  0  0  0  0  0
  146.5600  142.1324  153.8095 C   0  0  0  0  0  0  0  0  0  0  0  0
  146.2657  139.6009  153.5320 N   0  3  0  0  0  0  0  0  0  0  0  0
  147.0525  139.2063  152.3386 C   0  0  0  0  0  0  0  0  0  0  0  0
  146.2364  138.2350  151.4682 C   0  0  0  0  0  0  0  0  0  0  0  0
  145.8462  137.1038  152.2380 O   0  0  0  0  0  0  0  0  0  0  0  0
  145.0284  137.4672  153.3442 C   0  0  0  0  0  0  0  0  0  0  0  0
  145.8206  138.3937  154.2788 C   0  0  0  0  0  0  0  0  0  0  0  0
  151.4134  144.2947  158.2397 N   0  0  0  0  0  0  0  0  0  0  0  0
  152.2956  144.0978  159.3086 O   0  0  0  0  0  0  0  0  0  0  0  0
  153.0306  141.4638  161.0775 H   0  0  0  0  0  0  0  0  0  0  0  0
  153.5334  143.1395  161.3014 H   0  0  0  0  0  0  0  0  0  0  0  0
  154.4033  142.1012  160.1700 H   0  0  0  0  0  0  0  0  0  0  0  0
  151.7380  140.9873  158.4100 H   0  0  0  0  0  0  0  0  0  0  0  0
  149.9954  143.5205  156.1264 H   0  0  0  0  0  0  0  0  0  0  0  0
  148.8592  140.1750  153.6491 H   0  0  0  0  0  0  0  0  0  0  0  0
  148.4801  139.5565  155.2179 H   0  0  0  0  0  0  0  0  0  0  0  0
  146.4211  140.6717  155.3245 H   0  0  0  0  0  0  0  0  0  0  0  0
  146.9202  142.9032  154.4935 H   0  0  0  0  0  0  0  0  0  0  0  0
  145.4838  142.2803  153.7179 H   0  0  0  0  0  0  0  0  0  0  0  0
  147.0053  142.3348  152.8340 H   0  0  0  0  0  0  0  0  0  0  0  0
  147.3075  140.0882  151.7496 H   0  0  0  0  0  0  0  0  0  0  0  0
  147.9888  138.7434  152.6534 H   0  0  0  0  0  0  0  0  0  0  0  0
  145.3540  138.7299  151.0587 H   0  0  0  0  0  0  0  0  0  0  0  0
  146.8337  137.8974  150.6211 H   0  0  0  0  0  0  0  0  0  0  0  0
  144.1136  137.9516  152.9980 H   0  0  0  0  0  0  0  0  0  0  0  0
  144.7293  136.5634  153.8753 H   0  0  0  0  0  0  0  0  0  0  0  0
  146.6811  137.8572  154.6802 H   0  0  0  0  0  0  0  0  0  0  0  0
  145.1909  138.6763  155.1224 H   0  0  0  0  0  0  0  0  0  0  0  0
  145.4176  140.0117  153.1656 H   0  0  0  0  0  0  0  0  0  0  0  0
  1  2  1  0  0  0  0
  1 20  1  0  0  0  0
  1 21  1  0  0  0  0
  1 22  1  0  0  0  0
  2 19  1  0  0  0  0
  2  3  2  0  0  0  0
  3  4  1  0  0  0  0
  3 23  1  0  0  0  0
  4  5  1  0  0  0  0
  4 18  2  0  0  0  0
  5  6  1  0  0  0  0
  5 24  1  0  0  0  0
  6  7  2  0  0  0  0
  6  8  1  0  0  0  0
  8  9  1  0  0  0  0
  9 10  1  0  0  0  0
  9 25  1  0  0  0  0
  9 26  1  0  0  0  0
 10 11  1  0  0  0  0
 10 12  1  0  0  0  0
 10 27  1  0  0  0  0
 11 28  1  0  0  0  0
 11 29  1  0  0  0  0
 11 30  1  0  0  0  0
 12 17  1  0  0  0  0
 12 13  1  0  0  0  0
 12 39  1  0  0  0  0
 13 14  1  0  0  0  0
 13 31  1  0  0  0  0
 13 32  1  0  0  0  0
 14 15  1  0  0  0  0
 14 33  1  0  0  0  0
 14 34  1  0  0  0  0
 15 16  1  0  0  0  0
 16 17  1  0  0  0  0
 16 35  1  0  0  0  0
 16 36  1  0  0  0  0
 17 37  1  0  0  0  0
 17 38  1  0  0  0  0
 18 19  1  0  0  0  0
M  CHG  1   8  -1
M  CHG  1  12   1
M  END
> <s_m_source_file>
AV-unprocessed.smi

> <i_m_source_file_index>
2044

> <i_lp_mmshare_version>
43012

> <i_f3d_flags>
0

> <s_epik_input>
W0NIM11jMVtjSF1jKG5vMSlbTkhdQyg9TylbTkhdW0NIMl1bQ0BIXShbQ0gzXSlOMltDSDJdW0NIMl1PW0NIMl1bQ0gyXTI=

> <s_epik_cmdline>
J2VwaWtfcHl0aG9uJywgJy1waCcsICc3LjAnLCAnLXRuJywgJzgnLCAnLW1hJywgJzIwMCcsICctbWV0YWxfYmluZGluZycsICctaW1hZScsICc8aW5maWxlLm1hZT4nLCAnLW9tYWUnLCAnPG91dGZpbGUubWFlPic=

> <r_epik_Ionization_Penalty>
6.79272

> <r_epik_Ionization_Penalty_Charging>
6.79272

> <r_epik_Ionization_Penalty_Neutral>
5.6208e-06

> <r_epik_State_Penalty>
7.45901

> <r_epik_Charging_Adjusted_Penalty>
14.2517

> <i_epik_Tot_Q>
0

> <i_epik_Tot_abs_Q>
2

> <r_epik_Metal_State_Penalty>
3.38639

> <b_epik_Metal_Only>
1

> <s_lp_Force_Field>
OPLS_2005

> <r_lp_Energy>
15.3215

> <b_lp_Chiralities_Consistent>
1

> <s_lp_Variant>
AV-unprocessed.smi:2044-10

> <Gold.Version>
5.8.1

> <Gold.Id.Protein>
6NUR|6NUR_protein|mol2

> <Gold.PLP.Fitness>
39.6405

> <Gold.PLP.PLP>
-31.7940

> <Gold.PLP.part.hbond>
-2.0000

> <Gold.PLP.part.metal>
0.0000

> <Gold.PLP.part.buried>
-3.1264

> <Gold.PLP.part.nonpolar>
-28.4967

> <Gold.PLP.part.repulsive>
0.5662

> <Gold.PLP.ligand.clash>
0.0000

> <Gold.PLP.ligand.torsion>
0.6742

> <Gold.PLP.Chemscore.Hbond>
2.9920

> <Gold.PLP.Chemscore.CHOScore>
0.0000

> <Gold.PLP.Chemscore.Metal>
0.0000

> <Gold.Chemscore.Hbonds>
donor molecule, donor type, donor heavy atom, donor atom, acceptor molecule, acceptor atom, score
      L1  H     5    24       P1  8028  1.00
      L1  H    12    39       P1 10175  2.00

> <Gold.PLP.Chemscore.Internal.Correction>
0.2190

> <Gold.Rescore>
     Score         DG    S(hbond)    S(metal)    S(lipo)     H(rot)  DE(clash)    DE(int)     intcor
     13.83     -16.22       1.98        0.00      70.13       1.59       0.24       2.15       ----

> <Gold.Chemscore.Fitness>
13.8293

> <Gold.Chemscore.DG>
-16.2160

> <Gold.Chemscore.ZeroCoef>
-5.4800

> <Gold.Chemscore.Hbond>
1.9788

> <Gold.Chemscore.Metal>
0.0000

> <Gold.Chemscore.Lipo>
70.1271

> <Gold.Chemscore.Internal_Hbond>
0.0000

> <Gold.Chemscore.DEClash>
0.2398

> <Gold.Chemscore.DEInternal>
2.1469

> <Gold.Chemscore.Rot>
1.5930

> <Gold.Chemscore.Internal.Correction>
   9.000000E+99

> <Gold.Chemscore.Hbonds>
donor molecule, donor type, donor heavy atom, donor atom, acceptor molecule, acceptor atom, score
      L1  H     5    24       P1  8028  0.95
      L1  H    12    39       P1 10175  1.00

> <Gold.Chemscore.Hbond.Weighted>
-6.6091

> <Gold.Chemscore.Metal.Weighted>
-0.0000

> <Gold.Chemscore.Lipo.Weighted>
-8.2049

> <Gold.Chemscore.Internal_Hbond.Weighted>
0.0000

> <Gold.Chemscore.DEClash.Weighted>
0.2398

> <Gold.Chemscore.DEInternal.Weighted>
2.1469

> <Gold.Chemscore.Rot.Weighted>
4.0781

> <Gold.Chemscore.Internal.Correction.Weighted>
   9.000000E+99

> <Gold.Protein.RotatedTorsions>
[ 6907 6896 6895 6894 ] final  131.60 input  -60.11 | X-H torsion
[ 7974 7965 7964 7962 ] final  167.57 input  175.53 | X-H torsion
[ 8008 7997 7996 7995 ] final  -94.95 input   59.86 | X-H torsion
[ 10167 10162 10161 10158 ] final -146.40 input  -65.29 | X-H torsion
[ 10718 10713 10712 10709 ] final   97.04 input   66.30 | X-H torsion
[ 10763 10752 10751 10750 ] final   97.05 input  -60.55 | X-H torsion
[ 11005 11000 10999 10996 ] final  -85.12 input  -57.11 | X-H torsion

> <Gold.Protein.ActiveResidues>
 VAL166  LYS551  ARG553  GLY616  TRP617  ASP618  TYR619  PRO620  LYS621  CYS622 
 ASP623  PHE694  ASN695  SER759  ASP760  ASP761  ALA762  ILE779  LEU786  VAL792 
 PHE793  MET794  SER795  GLU796  ALA797  LYS798  CYS799  TRP800  GLU811  SER814 

> <Gold.Protein.RotatedAtoms>
  152.3410  133.6066  159.5875 H   0  0  0  0  0  0  0  0  0  0  0  0  # atno 6907 bound_to 6896
  150.7478  133.9723  159.3558 H   0  0  0  0  0  0  0  0  0  0  0  0  # atno 6908 bound_to 6896
  151.7587  135.0816  160.0393 H   0  0  0  0  0  0  0  0  0  0  0  0  # atno 6909 bound_to 6896
  144.7419  139.8781  143.6394 H   0  0  0  0  0  0  0  0  0  0  0  0  # atno 7974 bound_to 7965
  154.7550  140.0484  157.0925 H   0  0  0  0  0  0  0  0  0  0  0  0  # atno 8008 bound_to 7997
  155.0009  140.3124  155.4848 H   0  0  0  0  0  0  0  0  0  0  0  0  # atno 8009 bound_to 7997
  156.2893  140.2201  156.5119 H   0  0  0  0  0  0  0  0  0  0  0  0  # atno 8010 bound_to 7997
  139.7717  143.8228  152.2625 H   0  0  0  0  0  0  0  0  0  0  0  0  # atno 10167 bound_to 10162
  157.6918  131.0597  150.4584 H   0  0  0  0  0  0  0  0  0  0  0  0  # atno 10718 bound_to 10713
  153.2722  135.4197  155.0999 H   0  0  0  0  0  0  0  0  0  0  0  0  # atno 10763 bound_to 10752
  154.8460  135.3475  154.6228 H   0  0  0  0  0  0  0  0  0  0  0  0  # atno 10764 bound_to 10752
  153.6648  135.7046  153.5223 H   0  0  0  0  0  0  0  0  0  0  0  0  # atno 10765 bound_to 10752
  141.1644  133.7382  156.8968 H   0  0  0  0  0  0  0  0  0  0  0  0  # atno 11005 bound_to 11000
  146.1232  139.4253  143.0215 LP  0  0  0  0  0  0  0  0  0  0  0  0  # atno 17320 bound_to 7965
  145.7274  141.0054  143.1370 LP  0  0  0  0  0  0  0  0  0  0  0  0  # atno 17321 bound_to 7965
  139.8264  144.7273  150.9506 LP  0  0  0  0  0  0  0  0  0  0  0  0  # atno 17342 bound_to 10162
  140.7814  143.4110  151.0993 LP  0  0  0  0  0  0  0  0  0  0  0  0  # atno 17343 bound_to 10162
  156.4930  130.4099  149.6396 LP  0  0  0  0  0  0  0  0  0  0  0  0  # atno 17370 bound_to 10713
  156.3399  130.7376  151.2320 LP  0  0  0  0  0  0  0  0  0  0  0  0  # atno 17371 bound_to 10713
  140.1610  134.9165  157.2715 LP  0  0  0  0  0  0  0  0  0  0  0  0  # atno 17394 bound_to 11000
  140.2611  134.3570  155.7406 LP  0  0  0  0  0  0  0  0  0  0  0  0  # atno 17395 bound_to 11000

$$$$
