AV-unprocessed.smi:60|AV-procd|sdf|593|dock6
  -GOLD-   2262016483D 1   1.00000     0.00000
 Structure written by MMmdl.
 36 37  0  0  0  0  0  0  0  0  1 V2000
  155.8695  138.9719  158.5532 O   0  0  0  0  0  0  0  0  0  0  0  0
  154.7255  138.5658  158.3556 C   0  0  0  0  0  0  0  0  0  0  0  0
  154.4970  137.6060  157.3649 N   0  0  0  0  0  0  0  0  0  0  0  0
  153.2588  137.0539  157.0396 C   0  0  0  0  0  0  0  0  0  0  0  0
  153.1704  136.2176  156.1404 O   0  0  0  0  0  0  0  0  0  0  0  0
  152.1506  137.5014  157.7883 N   0  0  0  0  0  0  0  0  0  0  0  0
  150.8477  136.9656  157.4364 C   0  0  0  0  0  0  0  0  0  0  0  0
  150.3376  136.2622  158.5226 O   0  0  0  0  0  0  0  0  0  0  0  0
  149.0617  135.6948  158.2700 C   0  0  0  0  0  0  0  0  0  0  0  0
  148.4624  135.1987  159.5912 C   0  0  0  0  0  0  0  0  0  0  0  0
  148.2846  136.2806  160.4803 O   0  0  0  0  0  0  0  0  0  0  0  0
  152.3242  138.4663  158.7663 C   0  0  0  0  0  0  0  0  0  0  0  0
  153.5294  139.0038  159.0841 C   0  0  0  0  0  0  0  0  0  0  0  0
  153.6797  140.0582  160.1709 C   0  0  0  0  0  0  0  0  0  0  0  0
  152.8865  141.3228  159.8936 C   0  0  0  0  0  0  0  0  0  0  0  0
  152.7619  142.3144  160.8899 C   0  0  0  0  0  0  0  0  0  0  0  0
  152.0315  143.4906  160.6316 C   0  0  0  0  0  0  0  0  0  0  0  0
  151.4206  143.6794  159.3770 C   0  0  0  0  0  0  0  0  0  0  0  0
  151.5406  142.6911  158.3808 C   0  0  0  0  0  0  0  0  0  0  0  0
  152.2725  141.5153  158.6379 C   0  0  0  0  0  0  0  0  0  0  0  0
  155.2974  137.2865  156.8388 H   0  0  0  0  0  0  0  0  0  0  0  0
  150.1904  137.7883  157.1440 H   0  0  0  0  0  0  0  0  0  0  0  0
  150.9579  136.2980  156.5797 H   0  0  0  0  0  0  0  0  0  0  0  0
  148.4142  136.4682  157.8534 H   0  0  0  0  0  0  0  0  0  0  0  0
  149.1167  134.8888  157.5360 H   0  0  0  0  0  0  0  0  0  0  0  0
  147.5190  134.6762  159.4292 H   0  0  0  0  0  0  0  0  0  0  0  0
  149.1460  134.4933  160.0640 H   0  0  0  0  0  0  0  0  0  0  0  0
  147.9552  135.9448  161.3001 H   0  0  0  0  0  0  0  0  0  0  0  0
  151.4536  138.8051  159.3099 H   0  0  0  0  0  0  0  0  0  0  0  0
  153.4006  139.6385  161.1386 H   0  0  0  0  0  0  0  0  0  0  0  0
  154.7313  140.3324  160.2626 H   0  0  0  0  0  0  0  0  0  0  0  0
  153.2284  142.1770  161.8543 H   0  0  0  0  0  0  0  0  0  0  0  0
  151.9406  144.2484  161.3956 H   0  0  0  0  0  0  0  0  0  0  0  0
  150.8605  144.5813  159.1789 H   0  0  0  0  0  0  0  0  0  0  0  0
  151.0727  142.8358  157.4180 H   0  0  0  0  0  0  0  0  0  0  0  0
  152.3631  140.7641  157.8668 H   0  0  0  0  0  0  0  0  0  0  0  0
  1  2  2  0  0  0  0
  2 13  1  0  0  0  0
  2  3  1  0  0  0  0
  3 21  1  0  0  0  0
  3  4  1  0  0  0  0
  4  5  2  0  0  0  0
  4  6  1  0  0  0  0
  6  7  1  0  0  0  0
  6 12  1  0  0  0  0
  7  8  1  0  0  0  0
  7 22  1  0  0  0  0
  7 23  1  0  0  0  0
  8  9  1  0  0  0  0
  9 10  1  0  0  0  0
  9 24  1  0  0  0  0
  9 25  1  0  0  0  0
 10 11  1  0  0  0  0
 10 26  1  0  0  0  0
 10 27  1  0  0  0  0
 11 28  1  0  0  0  0
 12 13  2  0  0  0  0
 12 29  1  0  0  0  0
 13 14  1  0  0  0  0
 14 15  1  0  0  0  0
 14 30  1  0  0  0  0
 14 31  1  0  0  0  0
 15 20  1  0  0  0  0
 15 16  2  0  0  0  0
 16 17  1  0  0  0  0
 16 32  1  0  0  0  0
 17 18  2  0  0  0  0
 17 33  1  0  0  0  0
 18 19  1  0  0  0  0
 18 34  1  0  0  0  0
 19 20  2  0  0  0  0
 19 35  1  0  0  0  0
 20 36  1  0  0  0  0
M  END
> <s_m_source_file>
AV-unprocessed.smi

> <i_m_source_file_index>
60

> <i_lp_mmshare_version>
43012

> <i_f3d_flags>
0

> <s_epik_input>
W09IXVtDSDJdW0NIMl1PW0NIMl1uKGMoPU8pW25IXWMxPU8pW2NIXWMxW0NIMl1jMltjSF1bY0hdW2NIXVtjSF1bY0hdMg==

> <s_epik_cmdline>
J2VwaWtfcHl0aG9uJywgJy1waCcsICc3LjAnLCAnLXRuJywgJzgnLCAnLW1hJywgJzIwMCcsICctbWV0YWxfYmluZGluZycsICctaW1hZScsICc8aW5maWxlLm1hZT4nLCAnLW9tYWUnLCAnPG91dGZpbGUubWFlPic=

> <r_lp_tautomer_probability>
0.999537

> <r_epik_Ionization_Penalty>
0.00298861

> <r_epik_Ionization_Penalty_Charging>
0.00298856

> <r_epik_Ionization_Penalty_Neutral>
5.3532e-08

> <r_epik_State_Penalty>
0.00209779

> <r_epik_Charging_Adjusted_Penalty>
0.00508635

> <i_epik_Tot_Q>
0

> <i_epik_Tot_abs_Q>
0

> <r_epik_Metal_State_Penalty>
1.06718

> <b_epik_Metal_Only>
0

> <s_epik_Chemistry_Notes>
This compound contains an acetal/aminal-like group ( X-CH(R)-Y where X, Y are N, S, or O) that may be acid/base labile, releasing an aldehyde.

> <s_lp_Force_Field>
OPLS_2005

> <r_lp_Energy>
6.34754

> <b_lp_Chiralities_Consistent>
1

> <s_lp_Variant>
AV-unprocessed.smi:60-1

> <Gold.Version>
5.8.1

> <Gold.Id.Protein>
6NUR|6NUR_protein|mol2

> <Gold.PLP.Fitness>
49.6068

> <Gold.PLP.PLP>
-36.7907

> <Gold.PLP.part.hbond>
-4.8362

> <Gold.PLP.part.metal>
0.0000

> <Gold.PLP.part.buried>
-3.7054

> <Gold.PLP.part.nonpolar>
-28.0685

> <Gold.PLP.part.repulsive>
0.1595

> <Gold.PLP.ligand.clash>
0.0000

> <Gold.PLP.ligand.torsion>
0.1355

> <Gold.PLP.Chemscore.Hbond>
4.3417

> <Gold.PLP.Chemscore.CHOScore>
0.0000

> <Gold.PLP.Chemscore.Metal>
0.0000

> <Gold.Chemscore.Hbonds>
donor molecule, donor type, donor heavy atom, donor atom, acceptor molecule, acceptor atom, score
      P1  H  6896  6908       L1     8  0.88
      P1  H  7997  8009       L1     1  0.15
      P1  H 10752 10764       L1     5  0.18

> <Gold.PLP.Chemscore.Internal.Correction>
0.0620

> <Gold.Rescore>
     Score         DG    S(hbond)    S(metal)    S(lipo)     H(rot)  DE(clash)    DE(int)     intcor
     17.28     -17.75       2.94        0.00      92.91       3.28       0.13       0.34       ----

> <Gold.Chemscore.Fitness>
17.2832

> <Gold.Chemscore.DG>
-17.7516

> <Gold.Chemscore.ZeroCoef>
-5.4800

> <Gold.Chemscore.Hbond>
2.9360

> <Gold.Chemscore.Metal>
0.0000

> <Gold.Chemscore.Lipo>
92.9096

> <Gold.Chemscore.Internal_Hbond>
0.0000

> <Gold.Chemscore.DEClash>
0.1312

> <Gold.Chemscore.DEInternal>
0.3372

> <Gold.Chemscore.Rot>
3.2832

> <Gold.Chemscore.Internal.Correction>
   9.000000E+99

> <Gold.Chemscore.Hbonds>
donor molecule, donor type, donor heavy atom, donor atom, acceptor molecule, acceptor atom, score
      P1  H  6896  6908       L1     8  0.17
      P1  H 10752 10764       L1     5  0.18

> <Gold.Chemscore.Hbond.Weighted>
-9.8063

> <Gold.Chemscore.Metal.Weighted>
-0.0000

> <Gold.Chemscore.Lipo.Weighted>
-10.8704

> <Gold.Chemscore.Internal_Hbond.Weighted>
0.0000

> <Gold.Chemscore.DEClash.Weighted>
0.1312

> <Gold.Chemscore.DEInternal.Weighted>
0.3372

> <Gold.Chemscore.Rot.Weighted>
8.4050

> <Gold.Chemscore.Internal.Correction.Weighted>
   9.000000E+99

> <Gold.Protein.RotatedTorsions>
[ 6907 6896 6895 6894 ] final -159.03 input  -60.11 | X-H torsion
[ 7974 7965 7964 7962 ] final  -57.48 input  175.53 | X-H torsion
[ 8008 7997 7996 7995 ] final   99.44 input   59.86 | X-H torsion
[ 10167 10162 10161 10158 ] final -162.14 input  -65.29 | X-H torsion
[ 10718 10713 10712 10709 ] final -162.59 input   66.30 | X-H torsion
[ 10763 10752 10751 10750 ] final   -9.82 input  -60.55 | X-H torsion
[ 11005 11000 10999 10996 ] final   26.25 input  -57.11 | X-H torsion

> <Gold.Protein.ActiveResidues>
 VAL166  LYS551  ARG553  GLY616  TRP617  ASP618  TYR619  PRO620  LYS621  CYS622 
 ASP623  PHE694  ASN695  SER759  ASP760  ASP761  ALA762  ILE779  LEU786  VAL792 
 PHE793  MET794  SER795  GLU796  ALA797  LYS798  CYS799  TRP800  GLU811  SER814 

> <Gold.Protein.RotatedAtoms>
  151.3273  133.4015  159.2659 H   0  0  0  0  0  0  0  0  0  0  0  0  # atno 6907 bound_to 6896
  150.9984  134.9303  159.7950 H   0  0  0  0  0  0  0  0  0  0  0  0  # atno 6908 bound_to 6896
  152.5268  134.3238  159.9210 H   0  0  0  0  0  0  0  0  0  0  0  0  # atno 6909 bound_to 6896
  145.8506  140.8355  142.9988 H   0  0  0  0  0  0  0  0  0  0  0  0  # atno 7974 bound_to 7965
  156.1105  140.3228  155.8066 H   0  0  0  0  0  0  0  0  0  0  0  0  # atno 8008 bound_to 7997
  155.4680  140.0544  157.3000 H   0  0  0  0  0  0  0  0  0  0  0  0  # atno 8009 bound_to 7997
  154.4757  140.2031  155.9899 H   0  0  0  0  0  0  0  0  0  0  0  0  # atno 8010 bound_to 7997
  139.6414  144.0253  152.2094 H   0  0  0  0  0  0  0  0  0  0  0  0  # atno 10167 bound_to 10162
  156.6127  130.8857  151.2940 H   0  0  0  0  0  0  0  0  0  0  0  0  # atno 10718 bound_to 10713
  153.4602  135.7016  153.6055 H   0  0  0  0  0  0  0  0  0  0  0  0  # atno 10763 bound_to 10752
  153.4353  135.3793  155.2195 H   0  0  0  0  0  0  0  0  0  0  0  0  # atno 10764 bound_to 10752
  154.8727  135.3960  154.4026 H   0  0  0  0  0  0  0  0  0  0  0  0  # atno 10765 bound_to 10752
  140.3390  134.2353  155.7692 H   0  0  0  0  0  0  0  0  0  0  0  0  # atno 11005 bound_to 11000
  144.6729  140.0947  143.7463 LP  0  0  0  0  0  0  0  0  0  0  0  0  # atno 17320 bound_to 7965
  145.9362  139.2639  143.1295 LP  0  0  0  0  0  0  0  0  0  0  0  0  # atno 17321 bound_to 7965
  139.9943  144.6339  150.7786 LP  0  0  0  0  0  0  0  0  0  0  0  0  # atno 17342 bound_to 10162
  140.7492  143.2936  151.3265 LP  0  0  0  0  0  0  0  0  0  0  0  0  # atno 17343 bound_to 10162
  157.7250  130.9610  150.1595 LP  0  0  0  0  0  0  0  0  0  0  0  0  # atno 17370 bound_to 10713
  156.2377  130.3688  149.8373 LP  0  0  0  0  0  0  0  0  0  0  0  0  # atno 17371 bound_to 10713
  141.2043  133.7889  157.0292 LP  0  0  0  0  0  0  0  0  0  0  0  0  # atno 17394 bound_to 11000
  140.0796  134.9655  157.1603 LP  0  0  0  0  0  0  0  0  0  0  0  0  # atno 17395 bound_to 11000

$$$$
