AV-unprocessed.smi:103|AV-procd|sdf|979|dock7
  -GOLD-   2262017543D 1   1.00000     0.00000
 Structure written by MMmdl.
 53 55  0  0  0  0  0  0  0  0  1 V2000
  150.9226  141.4480  156.1018 C   0  0  0  0  0  0  0  0  0  0  0  0
  150.3294  140.1082  155.6862 C   0  0  0  0  0  0  0  0  0  0  0  0
  150.6607  139.5537  154.6382 O   0  0  0  0  0  0  0  0  0  0  0  0
  149.4420  139.6449  156.5776 O   0  0  0  0  0  0  0  0  0  0  0  0
  148.8192  138.3893  156.3622 C   0  0  0  0  0  0  0  0  0  0  0  0
  149.5803  137.3113  157.1427 C   0  0  2  0  0  0  0  0  0  0  0  0
  148.9537  136.0512  156.9011 O   0  0  0  0  0  0  0  0  0  0  0  0
  148.6301  135.4523  158.1139 C   0  0  2  0  0  0  0  0  0  0  0  0
  147.3745  134.6606  157.9423 N   0  0  0  0  0  0  0  0  0  0  0  0
  147.1428  133.3138  158.1377 C   0  0  0  0  0  0  0  0  0  0  0  0
  148.3497  132.0834  158.6183 S   0  0  0  0  0  0  0  0  0  0  0  0
  148.1266  132.0322  160.4423 C   0  0  0  0  0  0  0  0  0  0  0  0
  147.9220  130.7999  158.0414 O   0  0  0  0  0  0  0  0  0  0  0  0
  149.6763  132.6372  158.3052 O   0  0  0  0  0  0  0  0  0  0  0  0
  145.9453  132.8789  157.8526 N   0  0  0  0  0  0  0  0  0  0  0  0
  145.2698  134.0346  157.4871 C   0  0  0  0  0  0  0  0  0  0  0  0
  143.9397  134.3132  157.0833 C   0  0  0  0  0  0  0  0  0  0  0  0
  142.9938  133.3693  156.9798 N   0  0  0  0  0  0  0  0  0  0  0  0
  143.6079  135.5920  156.7885 N   0  0  0  0  0  0  0  0  0  0  0  0
  144.5339  136.5519  156.8830 C   0  0  0  0  0  0  0  0  0  0  0  0
  145.8156  136.4441  157.2430 N   0  0  0  0  0  0  0  0  0  0  0  0
  146.1490  135.1539  157.5421 C   0  0  0  0  0  0  0  0  0  0  0  0
  148.4372  136.5902  159.1105 C   0  0  1  0  0  0  0  0  0  0  0  0
  148.5949  136.1610  160.4581 O   0  0  0  0  0  0  0  0  0  0  0  0
  147.7653  136.6081  161.4165 C   0  0  0  0  0  0  0  0  0  0  0  0
  147.8104  135.7447  162.6696 C   0  0  0  0  0  0  0  0  0  0  0  0
  147.0247  137.5883  161.3373 O   0  0  0  0  0  0  0  0  0  0  0  0
  149.5366  137.5380  158.6663 C   0  0  1  0  0  0  0  0  0  0  0  0
  150.7872  137.1725  159.2443 O   0  0  0  0  0  0  0  0  0  0  0  0
  151.8422  138.0011  159.1554 C   0  0  0  0  0  0  0  0  0  0  0  0
  153.0306  137.5170  159.9753 C   0  0  0  0  0  0  0  0  0  0  0  0
  151.8952  139.0389  158.4955 O   0  0  0  0  0  0  0  0  0  0  0  0
  150.1386  142.2016  156.1776 H   0  0  0  0  0  0  0  0  0  0  0  0
  151.6576  141.7854  155.3708 H   0  0  0  0  0  0  0  0  0  0  0  0
  151.4141  141.3600  157.0707 H   0  0  0  0  0  0  0  0  0  0  0  0
  147.7742  138.4208  156.6737 H   0  0  0  0  0  0  0  0  0  0  0  0
  148.8381  138.1600  155.2960 H   0  0  0  0  0  0  0  0  0  0  0  0
  150.6068  137.2615  156.7763 H   0  0  0  0  0  0  0  0  0  0  0  0
  149.4178  134.7528  158.3860 H   0  0  0  0  0  0  0  0  0  0  0  0
  148.8178  131.3077  160.8717 H   0  0  0  0  0  0  0  0  0  0  0  0
  147.1029  131.7431  160.6782 H   0  0  0  0  0  0  0  0  0  0  0  0
  148.3293  133.0186  160.8593 H   0  0  0  0  0  0  0  0  0  0  0  0
  143.2170  132.4081  157.1947 H   0  0  0  0  0  0  0  0  0  0  0  0
  142.0593  133.6211  156.6917 H   0  0  0  0  0  0  0  0  0  0  0  0
  144.2010  137.5487  156.6334 H   0  0  0  0  0  0  0  0  0  0  0  0
  147.4702  137.0641  158.9357 H   0  0  0  0  0  0  0  0  0  0  0  0
  147.4330  134.7453  162.4523 H   0  0  0  0  0  0  0  0  0  0  0  0
  147.1977  136.1816  163.4584 H   0  0  0  0  0  0  0  0  0  0  0  0
  148.8339  135.6579  163.0347 H   0  0  0  0  0  0  0  0  0  0  0  0
  149.2831  138.5659  158.9309 H   0  0  0  0  0  0  0  0  0  0  0  0
  153.4275  136.5922  159.5564 H   0  0  0  0  0  0  0  0  0  0  0  0
  152.7295  137.3305  161.0062 H   0  0  0  0  0  0  0  0  0  0  0  0
  153.8243  138.2646  159.9775 H   0  0  0  0  0  0  0  0  0  0  0  0
  1  2  1  0  0  0  0
  1 33  1  0  0  0  0
  1 34  1  0  0  0  0
  1 35  1  0  0  0  0
  2  3  2  0  0  0  0
  2  4  1  0  0  0  0
  4  5  1  0  0  0  0
  5  6  1  0  0  0  0
  5 36  1  0  0  0  0
  5 37  1  0  0  0  0
  6 28  1  0  0  0  0
  6  7  1  0  0  0  0
  6 38  1  0  0  0  0
  7  8  1  0  0  0  0
  8  9  1  0  0  0  0
  8 23  1  0  0  0  0
  8 39  1  0  0  0  0
  9 22  1  0  0  0  0
  9 10  1  0  0  0  0
 10 11  1  0  0  0  0
 10 15  2  0  0  0  0
 11 12  1  0  0  0  0
 11 13  2  0  0  0  0
 11 14  2  0  0  0  0
 12 40  1  0  0  0  0
 12 41  1  0  0  0  0
 12 42  1  0  0  0  0
 15 16  1  0  0  0  0
 16 22  2  0  0  0  0
 16 17  1  0  0  0  0
 17 18  1  0  0  0  0
 17 19  2  0  0  0  0
 18 43  1  0  0  0  0
 18 44  1  0  0  0  0
 19 20  1  0  0  0  0
 20 21  2  0  0  0  0
 20 45  1  0  0  0  0
 21 22  1  0  0  0  0
 23 24  1  0  0  0  0
 23 28  1  0  0  0  0
 23 46  1  0  0  0  0
 24 25  1  0  0  0  0
 25 26  1  0  0  0  0
 25 27  2  0  0  0  0
 26 47  1  0  0  0  0
 26 48  1  0  0  0  0
 26 49  1  0  0  0  0
 28 29  1  0  0  0  0
 28 50  1  0  0  0  0
 29 30  1  0  0  0  0
 30 31  1  0  0  0  0
 30 32  2  0  0  0  0
 31 51  1  0  0  0  0
 31 52  1  0  0  0  0
 31 53  1  0  0  0  0
M  END
> <s_m_source_file>
AV-unprocessed.smi

> <i_m_source_file_index>
103

> <i_lp_mmshare_version>
43012

> <i_f3d_flags>
0

> <s_epik_input>
W0NIM11DKD1PKU9bQ0gyXVtDQEBIXTFPW0NASF0oW0NAQEhdKE9DKD1PKVtDSDNdKVtDQEhdMU9DKD1PKVtDSDNdKW4oYyhuMilTKD1PKSg9TylbQ0gzXSljKGMyMyluW2NIXW5jM1tOSDJd

> <s_epik_cmdline>
J2VwaWtfcHl0aG9uJywgJy1waCcsICc3LjAnLCAnLXRuJywgJzgnLCAnLW1hJywgJzIwMCcsICctbWV0YWxfYmluZGluZycsICctaW1hZScsICc8aW5maWxlLm1hZT4nLCAnLW9tYWUnLCAnPG91dGZpbGUubWFlPic=

> <r_lp_tautomer_probability>
1

> <r_epik_Ionization_Penalty>
1.51338e-05

> <r_epik_Ionization_Penalty_Charging>
0

> <r_epik_Ionization_Penalty_Neutral>
1.51338e-05

> <r_epik_State_Penalty>
-0

> <r_epik_Charging_Adjusted_Penalty>
0

> <i_epik_Tot_Q>
0

> <i_epik_Tot_abs_Q>
0

> <r_epik_Metal_State_Penalty>
-0

> <b_epik_Metal_Only>
0

> <s_epik_Chemistry_Notes>
This compound has an ester and may undergo hydrolysis at high or low pH. This compound contains an acetal/aminal-like group ( X-CH(R)-Y where X, Y are N, S, or O) that may be acid/base labile, releasing an aldehyde.

> <s_lp_Force_Field>
OPLS_2005

> <r_lp_Energy>
16.6357

> <b_lp_Chiralities_Consistent>
1

> <s_lp_Variant>
AV-unprocessed.smi:103-3

> <Gold.Version>
5.8.1

> <Gold.Id.Protein>
6NUR|6NUR_protein|mol2

> <Gold.PLP.Fitness>
41.4141

> <Gold.PLP.PLP>
-31.7611

> <Gold.PLP.part.hbond>
-6.4326

> <Gold.PLP.part.metal>
0.0000

> <Gold.PLP.part.buried>
-5.0812

> <Gold.PLP.part.nonpolar>
-20.0303

> <Gold.PLP.part.repulsive>
0.1326

> <Gold.PLP.ligand.clash>
0.0000

> <Gold.PLP.ligand.torsion>
2.2935

> <Gold.PLP.Chemscore.Hbond>
4.0000

> <Gold.PLP.Chemscore.CHOScore>
0.0000

> <Gold.PLP.Chemscore.Metal>
0.0000

> <Gold.Chemscore.Hbonds>
donor molecule, donor type, donor heavy atom, donor atom, acceptor molecule, acceptor atom, score
      L1  H    18    44       P1 11000  1.00
      P1  H  6896  6907       L1    14  1.00
      P1  H  6934  6947       L1    27  0.91
      P1  H  7989  7998       L1     3  1.00

> <Gold.PLP.Chemscore.Internal.Correction>
2.2400

> <Gold.Rescore>
     Score         DG    S(hbond)    S(metal)    S(lipo)     H(rot)  DE(clash)    DE(int)     intcor
      8.52     -12.33       4.04        0.00      36.11       4.25       0.00       3.81       ----

> <Gold.Chemscore.Fitness>
8.5197

> <Gold.Chemscore.DG>
-12.3295

> <Gold.Chemscore.ZeroCoef>
-5.4800

> <Gold.Chemscore.Hbond>
4.0400

> <Gold.Chemscore.Metal>
0.0000

> <Gold.Chemscore.Lipo>
36.1072

> <Gold.Chemscore.Internal_Hbond>
0.0000

> <Gold.Chemscore.DEClash>
0.0000

> <Gold.Chemscore.DEInternal>
3.8099

> <Gold.Chemscore.Rot>
4.2456

> <Gold.Chemscore.Internal.Correction>
   9.000000E+99

> <Gold.Chemscore.Hbonds>
donor molecule, donor type, donor heavy atom, donor atom, acceptor molecule, acceptor atom, score
      L1  H    18    44       P1 11000  0.97
      P1  H  6896  6907       L1    14  0.95
      P1  H  6934  6947       L1    27  0.85
      P1  H  7989  7998       L1     3  0.68

> <Gold.Chemscore.Hbond.Weighted>
-13.4937

> <Gold.Chemscore.Metal.Weighted>
-0.0000

> <Gold.Chemscore.Lipo.Weighted>
-4.2245

> <Gold.Chemscore.Internal_Hbond.Weighted>
0.0000

> <Gold.Chemscore.DEClash.Weighted>
0.0000

> <Gold.Chemscore.DEInternal.Weighted>
3.8099

> <Gold.Chemscore.Rot.Weighted>
10.8687

> <Gold.Chemscore.Internal.Correction.Weighted>
   9.000000E+99

> <Gold.Protein.RotatedTorsions>
[ 6907 6896 6895 6894 ] final -149.29 input  -60.11 | X-H torsion
[ 7974 7965 7964 7962 ] final -136.95 input  175.53 | X-H torsion
[ 8008 7997 7996 7995 ] final -126.80 input   59.86 | X-H torsion
[ 10167 10162 10161 10158 ] final -132.20 input  -65.29 | X-H torsion
[ 10718 10713 10712 10709 ] final  -26.25 input   66.30 | X-H torsion
[ 10763 10752 10751 10750 ] final   10.98 input  -60.55 | X-H torsion
[ 11005 11000 10999 10996 ] final  124.63 input  -57.11 | X-H torsion

> <Gold.Protein.ActiveResidues>
 VAL166  LYS551  ARG553  GLY616  TRP617  ASP618  TYR619  PRO620  LYS621  CYS622 
 ASP623  PHE694  ASN695  SER759  ASP760  ASP761  ALA762  ILE779  LEU786  VAL792 
 PHE793  MET794  SER795  GLU796  ALA797  LYS798  CYS799  TRP800  GLU811  SER814 

> <Gold.Protein.RotatedAtoms>
  151.1820  133.4719  159.2593 H   0  0  0  0  0  0  0  0  0  0  0  0  # atno 6907 bound_to 6896
  151.1249  135.0099  159.8566 H   0  0  0  0  0  0  0  0  0  0  0  0  # atno 6908 bound_to 6896
  152.5457  134.1728  159.8657 H   0  0  0  0  0  0  0  0  0  0  0  0  # atno 6909 bound_to 6896
  144.8883  140.6606  143.5161 H   0  0  0  0  0  0  0  0  0  0  0  0  # atno 7974 bound_to 7965
  155.2357  140.0427  157.2968 H   0  0  0  0  0  0  0  0  0  0  0  0  # atno 8008 bound_to 7997
  154.5860  140.2414  155.7957 H   0  0  0  0  0  0  0  0  0  0  0  0  # atno 8009 bound_to 7997
  156.2226  140.2965  155.9998 H   0  0  0  0  0  0  0  0  0  0  0  0  # atno 8010 bound_to 7997
  139.9110  143.6494  152.2575 H   0  0  0  0  0  0  0  0  0  0  0  0  # atno 10167 bound_to 10162
  156.4537  130.4489  149.6973 H   0  0  0  0  0  0  0  0  0  0  0  0  # atno 10718 bound_to 10713
  153.1975  135.6851  153.8274 H   0  0  0  0  0  0  0  0  0  0  0  0  # atno 10763 bound_to 10752
  153.7551  135.3218  155.3329 H   0  0  0  0  0  0  0  0  0  0  0  0  # atno 10764 bound_to 10752
  154.8152  135.4690  154.0726 H   0  0  0  0  0  0  0  0  0  0  0  0  # atno 10765 bound_to 10752
  139.9368  134.9639  156.8438 H   0  0  0  0  0  0  0  0  0  0  0  0  # atno 11005 bound_to 11000
  145.3828  139.1633  143.4271 LP  0  0  0  0  0  0  0  0  0  0  0  0  # atno 17320 bound_to 7965
  146.3038  140.3911  142.8694 LP  0  0  0  0  0  0  0  0  0  0  0  0  # atno 17321 bound_to 7965
  139.6942  144.7643  151.1385 LP  0  0  0  0  0  0  0  0  0  0  0  0  # atno 17342 bound_to 10162
  140.7685  143.5546  150.9166 LP  0  0  0  0  0  0  0  0  0  0  0  0  # atno 17343 bound_to 10162
  156.3789  130.7569  151.2560 LP  0  0  0  0  0  0  0  0  0  0  0  0  # atno 17370 bound_to 10713
  157.7501  131.0301  150.4123 LP  0  0  0  0  0  0  0  0  0  0  0  0  # atno 17371 bound_to 10713
  140.6055  134.0131  155.7555 LP  0  0  0  0  0  0  0  0  0  0  0  0  # atno 17394 bound_to 11000
  141.0985  133.9806  157.3119 LP  0  0  0  0  0  0  0  0  0  0  0  0  # atno 17395 bound_to 11000

$$$$
