AV-unprocessed.smi:382|AV-procd|sdf|2463|dock2
  -GOLD-   2262022403D 1   1.00000     0.00000
 Structure written by MMmdl.
 36 37  0  0  0  0  0  0  0  0  1 V2000
  147.2616  138.7231  153.2799 C   0  0  0  0  0  0  0  0  0  0  0  0
  146.3628  137.6294  153.8737 C   0  0  0  0  0  0  0  0  0  0  0  0
  147.0788  136.7236  154.8931 C   0  0  0  0  0  0  0  0  0  0  0  0
  147.7500  135.5921  154.2619 N   0  0  0  0  0  0  0  0  0  0  0  0
  147.7781  134.3414  154.7458 C   0  0  0  0  0  0  0  0  0  0  0  0
  147.2498  134.0185  155.8108 O   0  0  0  0  0  0  0  0  0  0  0  0
  148.5277  133.3077  153.8917 C   0  0  0  0  0  0  0  0  0  0  0  0
  147.6264  132.3703  153.1867 N   0  0  0  0  0  0  0  0  0  0  0  0
  146.5913  132.8963  152.3719 C   0  0  0  0  0  0  0  0  0  0  0  0
  146.4215  134.1121  152.2657 O   0  0  0  0  0  0  0  0  0  0  0  0
  145.7746  131.9050  151.6751 C   0  0  0  0  0  0  0  0  0  0  0  0
  144.7446  132.3944  150.8197 C   0  0  0  0  0  0  0  0  0  0  0  0
  143.9235  132.7871  150.1048 N   0  0  0  0  0  0  0  0  0  0  0  0
  145.9971  130.5842  151.8357 C   0  0  0  0  0  0  0  0  0  0  0  0
  146.9832  130.0935  152.6635 N   0  0  0  0  0  0  0  0  0  0  0  0
  147.3012  128.6939  152.7007 C   0  0  0  0  0  0  0  0  0  0  0  0
  148.7170  128.2554  152.3958 C   0  0  0  0  0  0  0  0  0  0  0  0
  147.6091  127.9431  151.4197 C   0  0  0  0  0  0  0  0  0  0  0  0
  147.8628  130.9806  153.3216 C   0  0  0  0  0  0  0  0  0  0  0  0
  148.8143  130.5610  153.9860 O   0  0  0  0  0  0  0  0  0  0  0  0
  146.6942  139.3648  152.6055 H   0  0  0  0  0  0  0  0  0  0  0  0
  148.0872  138.2967  152.7095 H   0  0  0  0  0  0  0  0  0  0  0  0
  147.6834  139.3541  154.0626 H   0  0  0  0  0  0  0  0  0  0  0  0
  145.5088  138.1001  154.3614 H   0  0  0  0  0  0  0  0  0  0  0  0
  145.9497  137.0243  153.0657 H   0  0  0  0  0  0  0  0  0  0  0  0
  147.8274  137.3010  155.4364 H   0  0  0  0  0  0  0  0  0  0  0  0
  146.3695  136.3627  155.6396 H   0  0  0  0  0  0  0  0  0  0  0  0
  148.2152  135.7710  153.3836 H   0  0  0  0  0  0  0  0  0  0  0  0
  149.1663  133.8296  153.1766 H   0  0  0  0  0  0  0  0  0  0  0  0
  149.2312  132.7796  154.5365 H   0  0  0  0  0  0  0  0  0  0  0  0
  145.3760  129.8810  151.2998 H   0  0  0  0  0  0  0  0  0  0  0  0
  146.7853  128.1222  153.4704 H   0  0  0  0  0  0  0  0  0  0  0  0
  149.4380  129.0165  152.1030 H   0  0  0  0  0  0  0  0  0  0  0  0
  149.1224  127.4295  152.9766 H   0  0  0  0  0  0  0  0  0  0  0  0
  147.2728  126.9106  151.3522 H   0  0  0  0  0  0  0  0  0  0  0  0
  147.6031  128.4965  150.4826 H   0  0  0  0  0  0  0  0  0  0  0  0
  1  2  1  0  0  0  0
  1 21  1  0  0  0  0
  1 22  1  0  0  0  0
  1 23  1  0  0  0  0
  2  3  1  0  0  0  0
  2 24  1  0  0  0  0
  2 25  1  0  0  0  0
  3  4  1  0  0  0  0
  3 26  1  0  0  0  0
  3 27  1  0  0  0  0
  4  5  1  0  0  0  0
  4 28  1  0  0  0  0
  5  6  2  0  0  0  0
  5  7  1  0  0  0  0
  7  8  1  0  0  0  0
  7 29  1  0  0  0  0
  7 30  1  0  0  0  0
  8 19  1  0  0  0  0
  8  9  1  0  0  0  0
  9 10  2  0  0  0  0
  9 11  1  0  0  0  0
 11 12  1  0  0  0  0
 11 14  2  0  0  0  0
 12 13  3  0  0  0  0
 14 15  1  0  0  0  0
 14 31  1  0  0  0  0
 15 16  1  0  0  0  0
 15 19  1  0  0  0  0
 16 18  1  0  0  0  0
 16 17  1  0  0  0  0
 16 32  1  0  0  0  0
 17 18  1  0  0  0  0
 17 33  1  0  0  0  0
 17 34  1  0  0  0  0
 18 35  1  0  0  0  0
 18 36  1  0  0  0  0
 19 20  2  0  0  0  0
M  END
> <s_m_source_file>
AV-unprocessed.smi

> <i_m_source_file_index>
382

> <i_lp_mmshare_version>
43012

> <i_f3d_flags>
0

> <s_epik_input>
W0NIM11bQ0gyXVtDSDJdW05IXUMoPU8pW0NIMl1uMWMoPU8pYyhDI04pW2NIXW4oYzE9TylbQ0hdMltDSDJdW0NIMl0y

> <s_epik_cmdline>
J2VwaWtfcHl0aG9uJywgJy1waCcsICc3LjAnLCAnLXRuJywgJzgnLCAnLW1hJywgJzIwMCcsICctbWV0YWxfYmluZGluZycsICctaW1hZScsICc8aW5maWxlLm1hZT4nLCAnLW9tYWUnLCAnPG91dGZpbGUubWFlPic=

> <r_lp_tautomer_probability>
1

> <r_epik_Ionization_Penalty>
1.82511e-08

> <r_epik_Ionization_Penalty_Charging>
8.22213e-11

> <r_epik_Ionization_Penalty_Neutral>
1.81689e-08

> <r_epik_State_Penalty>
-0

> <r_epik_Charging_Adjusted_Penalty>
8.22213e-11

> <i_epik_Tot_Q>
0

> <i_epik_Tot_abs_Q>
0

> <r_epik_Metal_State_Penalty>
-0

> <b_epik_Metal_Only>
0

> <s_lp_Force_Field>
OPLS_2005

> <r_lp_Energy>
29.1959

> <b_lp_Chiralities_Consistent>
1

> <s_lp_Variant>
AV-unprocessed.smi:382-1

> <Gold.Version>
5.8.1

> <Gold.Id.Protein>
6NUR|6NUR_protein|mol2

> <Gold.PLP.Fitness>
39.7488

> <Gold.PLP.PLP>
-35.5915

> <Gold.PLP.part.hbond>
-1.8700

> <Gold.PLP.part.metal>
0.0000

> <Gold.PLP.part.buried>
-5.6414

> <Gold.PLP.part.nonpolar>
-30.1610

> <Gold.PLP.part.repulsive>
0.4655

> <Gold.PLP.ligand.clash>
0.0000

> <Gold.PLP.ligand.torsion>
0.6293

> <Gold.PLP.Chemscore.Hbond>
1.7342

> <Gold.PLP.Chemscore.CHOScore>
0.0000

> <Gold.PLP.Chemscore.Metal>
0.0000

> <Gold.Chemscore.Hbonds>
donor molecule, donor type, donor heavy atom, donor atom, acceptor molecule, acceptor atom, score
      L1  H     4    28       P1  7948  1.00

> <Gold.PLP.Chemscore.Internal.Correction>
0.2135

> <Gold.Rescore>
     Score         DG    S(hbond)    S(metal)    S(lipo)     H(rot)  DE(clash)    DE(int)     intcor
     10.75     -12.88       1.81        0.00      56.21       2.04       0.10       2.04       ----

> <Gold.Chemscore.Fitness>
10.7452

> <Gold.Chemscore.DG>
-12.8816

> <Gold.Chemscore.ZeroCoef>
-5.4800

> <Gold.Chemscore.Hbond>
1.8135

> <Gold.Chemscore.Metal>
0.0000

> <Gold.Chemscore.Lipo>
56.2120

> <Gold.Chemscore.Internal_Hbond>
0.0000

> <Gold.Chemscore.DEClash>
0.0971

> <Gold.Chemscore.DEInternal>
2.0392

> <Gold.Chemscore.Rot>
2.0438

> <Gold.Chemscore.Internal.Correction>
   9.000000E+99

> <Gold.Chemscore.Hbonds>
donor molecule, donor type, donor heavy atom, donor atom, acceptor molecule, acceptor atom, score
      L1  H     4    28       P1  7948  1.00

> <Gold.Chemscore.Hbond.Weighted>
-6.0570

> <Gold.Chemscore.Metal.Weighted>
-0.0000

> <Gold.Chemscore.Lipo.Weighted>
-6.5768

> <Gold.Chemscore.Internal_Hbond.Weighted>
0.0000

> <Gold.Chemscore.DEClash.Weighted>
0.0971

> <Gold.Chemscore.DEInternal.Weighted>
2.0392

> <Gold.Chemscore.Rot.Weighted>
5.2322

> <Gold.Chemscore.Internal.Correction.Weighted>
   9.000000E+99

> <Gold.Protein.RotatedTorsions>
[ 6907 6896 6895 6894 ] final  159.25 input  -60.11 | X-H torsion
[ 7974 7965 7964 7962 ] final  168.03 input  175.53 | X-H torsion
[ 8008 7997 7996 7995 ] final   70.65 input   59.86 | X-H torsion
[ 10167 10162 10161 10158 ] final  153.22 input  -65.29 | X-H torsion
[ 10718 10713 10712 10709 ] final  158.20 input   66.30 | X-H torsion
[ 10763 10752 10751 10750 ] final  -52.26 input  -60.55 | X-H torsion
[ 11005 11000 10999 10996 ] final  -65.85 input  -57.11 | X-H torsion

> <Gold.Protein.ActiveResidues>
 VAL166  LYS551  ARG553  GLY616  TRP617  ASP618  TYR619  PRO620  LYS621  CYS622 
 ASP623  PHE694  ASN695  SER759  ASP760  ASP761  ALA762  ILE779  LEU786  VAL792 
 PHE793  MET794  SER795  GLU796  ALA797  LYS798  CYS799  TRP800  GLU811  SER814 

> <Gold.Protein.RotatedAtoms>
  151.9883  133.3782  159.4134 H   0  0  0  0  0  0  0  0  0  0  0  0  # atno 6907 bound_to 6896
  150.6925  134.3964  159.5108 H   0  0  0  0  0  0  0  0  0  0  0  0  # atno 6908 bound_to 6896
  152.1693  134.8847  160.0586 H   0  0  0  0  0  0  0  0  0  0  0  0  # atno 6909 bound_to 6896
  144.7403  139.8848  143.6399 H   0  0  0  0  0  0  0  0  0  0  0  0  # atno 7974 bound_to 7965
  155.7420  140.3490  155.5109 H   0  0  0  0  0  0  0  0  0  0  0  0  # atno 8008 bound_to 7997
  155.9085  140.1046  157.1318 H   0  0  0  0  0  0  0  0  0  0  0  0  # atno 8009 bound_to 7997
  154.4053  140.1272  156.4514 H   0  0  0  0  0  0  0  0  0  0  0  0  # atno 8010 bound_to 7997
  139.4828  144.5291  151.7752 H   0  0  0  0  0  0  0  0  0  0  0  0  # atno 10167 bound_to 10162
  157.1812  131.0633  151.2131 H   0  0  0  0  0  0  0  0  0  0  0  0  # atno 10718 bound_to 10713
  154.1398  135.6507  153.4940 H   0  0  0  0  0  0  0  0  0  0  0  0  # atno 10763 bound_to 10752
  153.0169  135.5313  154.6916 H   0  0  0  0  0  0  0  0  0  0  0  0  # atno 10764 bound_to 10752
  154.6174  135.2961  155.0335 H   0  0  0  0  0  0  0  0  0  0  0  0  # atno 10765 bound_to 10752
  141.1466  133.6688  156.6049 H   0  0  0  0  0  0  0  0  0  0  0  0  # atno 11005 bound_to 11000
  146.1185  139.4199  143.0243 LP  0  0  0  0  0  0  0  0  0  0  0  0  # atno 17320 bound_to 7965
  145.7339  141.0032  143.1337 LP  0  0  0  0  0  0  0  0  0  0  0  0  # atno 17321 bound_to 7965
  140.4815  144.1443  150.5933 LP  0  0  0  0  0  0  0  0  0  0  0  0  # atno 17342 bound_to 10162
  140.4272  143.2584  151.9641 LP  0  0  0  0  0  0  0  0  0  0  0  0  # atno 17343 bound_to 10162
  157.3951  130.7303  149.6726 LP  0  0  0  0  0  0  0  0  0  0  0  0  # atno 17370 bound_to 10713
  155.9724  130.4136  150.4090 LP  0  0  0  0  0  0  0  0  0  0  0  0  # atno 17371 bound_to 10713
  140.3660  134.7647  157.4566 LP  0  0  0  0  0  0  0  0  0  0  0  0  # atno 17394 bound_to 11000
  140.0748  134.5813  155.8603 LP  0  0  0  0  0  0  0  0  0  0  0  0  # atno 17395 bound_to 11000

$$$$
