AV-unprocessed.smi:3183|AV-procd|sdf|12155|dock7
  -GOLD-   2272017593D 1   1.00000     0.00000
 Structure written by MMmdl.
 43 44  0  0  0  0  0  0  0  0  2 V2000
  152.2861  143.7869  162.2810 C   0  0  0  0  0  0  0  0  0  0  0  0
  152.5043  143.9519  160.7664 C   0  0  2  0  0  0  0  0  0  0  0  0
  151.4456  144.9130  160.1890 C   0  0  0  0  0  0  0  0  0  0  0  0
  151.6224  145.1307  158.6783 C   0  0  0  0  0  0  0  0  0  0  0  0
  151.6168  143.8046  157.9002 C   0  0  2  0  0  0  0  0  0  0  0  0
  150.2641  143.2025  157.8899 N   0  3  0  0  0  0  0  0  0  0  0  0
  150.2187  141.7774  157.5072 C   0  0  0  0  0  0  0  0  0  0  0  0
  150.9960  141.5316  156.2057 C   0  0  0  0  0  0  0  0  0  0  0  0
  150.4104  140.4651  155.3302 C   0  0  0  0  0  0  0  0  0  0  0  0
  150.8936  139.2359  154.9714 C   0  0  0  0  0  0  0  0  0  0  0  0
  149.8853  138.6958  154.1273 C   0  0  0  0  0  0  0  0  0  0  0  0
  148.8619  139.5165  153.9732 N   0  0  0  0  0  0  0  0  0  0  0  0
  149.1798  140.6022  154.7088 N   0  0  0  0  0  0  0  0  0  0  0  0
  148.2404  141.7071  154.7471 C   0  0  0  0  0  0  0  0  0  0  0  0
  152.6509  142.8241  158.4828 C   0  0  0  0  0  0  0  0  0  0  0  0
  152.4931  142.6004  160.0037 C   0  0  1  0  0  0  0  0  0  0  0  0
  153.5766  141.6260  160.4999 C   0  0  0  0  0  0  0  0  0  0  0  0
  151.3545  143.2612  162.4932 H   0  0  0  0  0  0  0  0  0  0  0  0
  152.2389  144.7563  162.7779 H   0  0  0  0  0  0  0  0  0  0  0  0
  153.0990  143.2331  162.7500 H   0  0  0  0  0  0  0  0  0  0  0  0
  153.4826  144.4140  160.6249 H   0  0  0  0  0  0  0  0  0  0  0  0
  150.4461  144.5248  160.3902 H   0  0  0  0  0  0  0  0  0  0  0  0
  151.5039  145.8763  160.6973 H   0  0  0  0  0  0  0  0  0  0  0  0
  150.8444  145.7956  158.3007 H   0  0  0  0  0  0  0  0  0  0  0  0
  152.5692  145.6437  158.5040 H   0  0  0  0  0  0  0  0  0  0  0  0
  151.9075  144.0225  156.8712 H   0  0  0  0  0  0  0  0  0  0  0  0
  149.8690  143.2982  158.8145 H   0  0  0  0  0  0  0  0  0  0  0  0
  150.6420  141.1785  158.3150 H   0  0  0  0  0  0  0  0  0  0  0  0
  149.1778  141.4747  157.3848 H   0  0  0  0  0  0  0  0  0  0  0  0
  151.0487  142.4637  155.6413 H   0  0  0  0  0  0  0  0  0  0  0  0
  152.0247  141.2635  156.4503 H   0  0  0  0  0  0  0  0  0  0  0  0
  151.8293  138.7840  155.2655 H   0  0  0  0  0  0  0  0  0  0  0  0
  149.8665  137.7394  153.6258 H   0  0  0  0  0  0  0  0  0  0  0  0
  148.6131  142.5152  155.3754 H   0  0  0  0  0  0  0  0  0  0  0  0
  147.2862  141.3637  155.1476 H   0  0  0  0  0  0  0  0  0  0  0  0
  148.0844  142.0911  153.7385 H   0  0  0  0  0  0  0  0  0  0  0  0
  152.5900  141.8712  157.9547 H   0  0  0  0  0  0  0  0  0  0  0  0
  153.6513  143.2118  158.2840 H   0  0  0  0  0  0  0  0  0  0  0  0
  151.5265  142.1237  160.1740 H   0  0  0  0  0  0  0  0  0  0  0  0
  154.5702  142.0711  160.4370 H   0  0  0  0  0  0  0  0  0  0  0  0
  153.5856  140.7131  159.9040 H   0  0  0  0  0  0  0  0  0  0  0  0
  153.4087  141.3252  161.5338 H   0  0  0  0  0  0  0  0  0  0  0  0
  149.6911  143.7252  157.2429 H   0  0  0  0  0  0  0  0  0  0  0  0
  1  2  1  0  0  0  0
  1 18  1  0  0  0  0
  1 19  1  0  0  0  0
  1 20  1  0  0  0  0
  2 16  1  0  0  0  0
  2  3  1  0  0  0  0
  2 21  1  0  0  0  0
  3  4  1  0  0  0  0
  3 22  1  0  0  0  0
  3 23  1  0  0  0  0
  4  5  1  0  0  0  0
  4 24  1  0  0  0  0
  4 25  1  0  0  0  0
  5  6  1  0  0  0  0
  5 15  1  0  0  0  0
  5 26  1  0  0  0  0
  6  7  1  0  0  0  0
  6 27  1  0  0  0  0
  6 43  1  0  0  0  0
  7  8  1  0  0  0  0
  7 28  1  0  0  0  0
  7 29  1  0  0  0  0
  8  9  1  0  0  0  0
  8 30  1  0  0  0  0
  8 31  1  0  0  0  0
  9 13  1  0  0  0  0
  9 10  2  0  0  0  0
 10 11  1  0  0  0  0
 10 32  1  0  0  0  0
 11 12  2  0  0  0  0
 11 33  1  0  0  0  0
 12 13  1  0  0  0  0
 13 14  1  0  0  0  0
 14 34  1  0  0  0  0
 14 35  1  0  0  0  0
 14 36  1  0  0  0  0
 15 16  1  0  0  0  0
 15 37  1  0  0  0  0
 15 38  1  0  0  0  0
 16 17  1  0  0  0  0
 16 39  1  0  0  0  0
 17 40  1  0  0  0  0
 17 41  1  0  0  0  0
 17 42  1  0  0  0  0
M  CHG  1   6   1
M  END
> <s_m_source_file>
AV-unprocessed.smi

> <i_m_source_file_index>
3183

> <i_lp_mmshare_version>
43012

> <i_f3d_flags>
0

> <s_epik_input>
W0NIM11bQ0BASF0xW0NIMl1bQ0gyXVtDQEhdKFtDSDJdW0NASF0xW0NIM10pW05IXVtDSDJdW0NIMl1jMltjSF1bY0hdbm4yW0NIM10=

> <s_epik_cmdline>
J2VwaWtfcHl0aG9uJywgJy1waCcsICc3LjAnLCAnLXRuJywgJzgnLCAnLW1hJywgJzIwMCcsICctbWV0YWxfYmluZGluZycsICctaW1hZScsICc8aW5maWxlLm1hZT4nLCAnLW9tYWUnLCAnPG91dGZpbGUubWFlPic=

> <r_lp_tautomer_probability>
1

> <r_epik_Ionization_Penalty>
0.000327718

> <r_epik_Ionization_Penalty_Charging>
0.000294043

> <r_epik_Ionization_Penalty_Neutral>
3.36755e-05

> <r_epik_State_Penalty>
-0

> <r_epik_Charging_Adjusted_Penalty>
0.000294043

> <i_epik_Tot_Q>
1

> <i_epik_Tot_abs_Q>
1

> <r_epik_Metal_State_Penalty>
-0

> <b_epik_Metal_Only>
0

> <s_lp_Force_Field>
OPLS_2005

> <r_lp_Energy>
17.888

> <b_lp_Chiralities_Consistent>
1

> <s_lp_Variant>
AV-unprocessed.smi:3183-3

> <Gold.Version>
5.8.1

> <Gold.Id.Protein>
6NUR|6NUR_protein|mol2

> <Gold.PLP.Fitness>
54.0045

> <Gold.PLP.PLP>
-45.8908

> <Gold.PLP.part.hbond>
-1.0000

> <Gold.PLP.part.metal>
0.0000

> <Gold.PLP.part.buried>
-3.1853

> <Gold.PLP.part.nonpolar>
-42.2845

> <Gold.PLP.part.repulsive>
1.2700

> <Gold.PLP.ligand.clash>
0.0000

> <Gold.PLP.ligand.torsion>
0.4497

> <Gold.PLP.Chemscore.Hbond>
2.0000

> <Gold.PLP.Chemscore.CHOScore>
1.0000

> <Gold.PLP.Chemscore.Metal>
0.0000

> <Gold.Chemscore.Hbonds>
donor molecule, donor type, donor heavy atom, donor atom, acceptor molecule, acceptor atom, score
      L1  H     6    43       P1  8028  2.00
      L1  C    11    33       P1  7948  1.00

> <Gold.PLP.Chemscore.Internal.Correction>
0.0132

> <Gold.Rescore>
     Score         DG    S(hbond)    S(metal)    S(lipo)     H(rot)  DE(clash)    DE(int)     intcor
     20.25     -20.71       0.88        0.00     135.26       1.38       0.08       0.38       ----

> <Gold.Chemscore.Fitness>
20.2549

> <Gold.Chemscore.DG>
-20.7088

> <Gold.Chemscore.ZeroCoef>
-5.4800

> <Gold.Chemscore.Hbond>
0.8768

> <Gold.Chemscore.Metal>
0.0000

> <Gold.Chemscore.Lipo>
135.2574

> <Gold.Chemscore.Internal_Hbond>
0.0000

> <Gold.Chemscore.DEClash>
0.0766

> <Gold.Chemscore.DEInternal>
0.3773

> <Gold.Chemscore.Rot>
1.3768

> <Gold.Chemscore.Internal.Correction>
   9.000000E+99

> <Gold.Chemscore.Hbonds>
donor molecule, donor type, donor heavy atom, donor atom, acceptor molecule, acceptor atom, score
      L1  H     6    43       P1  8028  0.78

> <Gold.Chemscore.Hbond.Weighted>
-2.9284

> <Gold.Chemscore.Metal.Weighted>
-0.0000

> <Gold.Chemscore.Lipo.Weighted>
-15.8251

> <Gold.Chemscore.Internal_Hbond.Weighted>
0.0000

> <Gold.Chemscore.DEClash.Weighted>
0.0766

> <Gold.Chemscore.DEInternal.Weighted>
0.3773

> <Gold.Chemscore.Rot.Weighted>
3.5247

> <Gold.Chemscore.Internal.Correction.Weighted>
   9.000000E+99

> <Gold.Protein.RotatedTorsions>
[ 6907 6896 6895 6894 ] final -106.56 input  -60.11 | X-H torsion
[ 7974 7965 7964 7962 ] final  -59.54 input  175.53 | X-H torsion
[ 8008 7997 7996 7995 ] final  113.88 input   59.86 | X-H torsion
[ 10167 10162 10161 10158 ] final -125.48 input  -65.29 | X-H torsion
[ 10718 10713 10712 10709 ] final  177.72 input   66.30 | X-H torsion
[ 10763 10752 10751 10750 ] final  -96.84 input  -60.55 | X-H torsion
[ 11005 11000 10999 10996 ] final  149.76 input  -57.11 | X-H torsion

> <Gold.Protein.ActiveResidues>
 VAL166  LYS551  ARG553  GLY616  TRP617  ASP618  TYR619  PRO620  LYS621  CYS622 
 ASP623  PHE694  ASN695  SER759  ASP760  ASP761  ALA762  ILE779  LEU786  VAL792 
 PHE793  MET794  SER795  GLU796  ALA797  LYS798  CYS799  TRP800  GLU811  SER814 

> <Gold.Protein.RotatedAtoms>
  150.7396  133.9958  159.3621 H   0  0  0  0  0  0  0  0  0  0  0  0  # atno 6907 bound_to 6896
  151.7909  135.0734  160.0396 H   0  0  0  0  0  0  0  0  0  0  0  0  # atno 6908 bound_to 6896
  152.3208  133.5815  159.5780 H   0  0  0  0  0  0  0  0  0  0  0  0  # atno 6909 bound_to 6896
  145.8262  140.8509  143.0107 H   0  0  0  0  0  0  0  0  0  0  0  0  # atno 7974 bound_to 7965
  156.2286  140.2970  156.0131 H   0  0  0  0  0  0  0  0  0  0  0  0  # atno 8008 bound_to 7997
  155.2287  140.0418  157.2976 H   0  0  0  0  0  0  0  0  0  0  0  0  # atno 8009 bound_to 7997
  154.5957  140.2413  155.7867 H   0  0  0  0  0  0  0  0  0  0  0  0  # atno 8010 bound_to 7997
  139.9817  143.5735  152.2376 H   0  0  0  0  0  0  0  0  0  0  0  0  # atno 10167 bound_to 10162
  156.9011  130.9879  151.3035 H   0  0  0  0  0  0  0  0  0  0  0  0  # atno 10718 bound_to 10713
  154.7276  135.5068  153.8911 H   0  0  0  0  0  0  0  0  0  0  0  0  # atno 10763 bound_to 10752
  153.0919  135.6661  153.9846 H   0  0  0  0  0  0  0  0  0  0  0  0  # atno 10764 bound_to 10752
  153.9655  135.3043  155.3410 H   0  0  0  0  0  0  0  0  0  0  0  0  # atno 10765 bound_to 10752
  140.1072  134.8946  157.1884 H   0  0  0  0  0  0  0  0  0  0  0  0  # atno 11005 bound_to 11000
  144.6743  140.0606  143.7476 LP  0  0  0  0  0  0  0  0  0  0  0  0  # atno 17320 bound_to 7965
  145.9621  139.2808  143.1149 LP  0  0  0  0  0  0  0  0  0  0  0  0  # atno 17321 bound_to 7965
  139.6405  144.7654  151.2349 LP  0  0  0  0  0  0  0  0  0  0  0  0  # atno 17342 bound_to 10162
  140.7487  143.6325  150.8409 LP  0  0  0  0  0  0  0  0  0  0  0  0  # atno 17343 bound_to 10162
  157.6025  130.8523  149.8825 LP  0  0  0  0  0  0  0  0  0  0  0  0  # atno 17370 bound_to 10713
  156.0581  130.3704  150.1044 LP  0  0  0  0  0  0  0  0  0  0  0  0  # atno 17371 bound_to 10713
  140.3139  134.2992  155.7260 LP  0  0  0  0  0  0  0  0  0  0  0  0  # atno 17394 bound_to 11000
  141.2121  133.7668  156.9816 LP  0  0  0  0  0  0  0  0  0  0  0  0  # atno 17395 bound_to 11000

$$$$
