AV-unprocessed.smi:1978|AV-procd|sdf|8006|dock6
  -GOLD-   2272010193D 1   1.00000     0.00000
 Structure written by MMmdl.
 44 45  0  0  0  0  0  0  0  0  3 V2000
  146.4133  135.9621  162.7224 C   0  0  0  0  0  0  0  0  0  0  0  0
  147.1923  135.9504  161.4517 C   0  0  0  0  0  0  0  0  0  0  0  0
  147.6757  134.9399  160.6700 C   0  0  0  0  0  0  0  0  0  0  0  0
  148.3176  135.6308  159.6061 C   0  0  0  0  0  0  0  0  0  0  0  0
  148.9645  135.0654  158.5752 N   0  5  0  0  0  0  0  0  0  0  0  0
  148.7184  135.4743  157.3102 C   0  0  0  0  0  0  0  0  0  0  0  0
  148.0946  136.4839  156.9744 O   0  0  0  0  0  0  0  0  0  0  0  0
  149.2202  134.6573  156.3731 N   0  0  0  0  0  0  0  0  0  0  0  0
  149.0838  134.8313  154.9297 C   0  0  0  0  0  0  0  0  0  0  0  0
  148.3214  133.6619  154.2413 C   0  0  2  0  0  0  0  0  0  0  0  0
  149.3370  132.5646  153.8280 C   0  0  0  0  0  0  0  0  0  0  0  0
  147.4879  134.1474  153.0865 N   0  3  2  0  0  0  0  0  0  0  0  0
  146.3134  134.9790  153.4926 C   0  0  0  0  0  0  0  0  0  0  0  0
  145.6438  135.6491  152.2814 C   0  0  0  0  0  0  0  0  0  0  0  0
  145.2196  134.6180  151.2337 C   0  0  0  0  0  0  0  0  0  0  0  0
  146.4248  133.7528  150.8492 C   0  0  0  0  0  0  0  0  0  0  0  0
  147.0946  133.1045  152.0795 C   0  0  2  0  0  0  0  0  0  0  0  0
  146.2316  131.9679  152.6741 C   0  0  0  0  0  0  0  0  0  0  0  0
  148.2451  136.9443  159.7396 N   0  0  0  0  0  0  0  0  0  0  0  0
  147.5199  137.1579  160.9181 O   0  0  0  0  0  0  0  0  0  0  0  0
  147.0340  135.6373  163.5573 H   0  0  0  0  0  0  0  0  0  0  0  0
  145.5571  135.2908  162.6559 H   0  0  0  0  0  0  0  0  0  0  0  0
  146.0405  136.9620  162.9463 H   0  0  0  0  0  0  0  0  0  0  0  0
  147.5831  133.8764  160.8313 H   0  0  0  0  0  0  0  0  0  0  0  0
  149.7300  133.8460  156.6917 H   0  0  0  0  0  0  0  0  0  0  0  0
  148.6033  135.7960  154.7811 H   0  0  0  0  0  0  0  0  0  0  0  0
  150.0849  134.9203  154.5068 H   0  0  0  0  0  0  0  0  0  0  0  0
  147.6391  133.2217  154.9695 H   0  0  0  0  0  0  0  0  0  0  0  0
  149.9650  132.2533  154.6623 H   0  0  0  0  0  0  0  0  0  0  0  0
  149.9993  132.9167  153.0367 H   0  0  0  0  0  0  0  0  0  0  0  0
  148.8545  131.6512  153.4842 H   0  0  0  0  0  0  0  0  0  0  0  0
  145.5935  134.3705  154.0404 H   0  0  0  0  0  0  0  0  0  0  0  0
  146.5999  135.7827  154.1644 H   0  0  0  0  0  0  0  0  0  0  0  0
  144.7768  136.2248  152.6070 H   0  0  0  0  0  0  0  0  0  0  0  0
  146.3360  136.3626  151.8323 H   0  0  0  0  0  0  0  0  0  0  0  0
  144.4146  133.9958  151.6258 H   0  0  0  0  0  0  0  0  0  0  0  0
  144.8206  135.1203  150.3521 H   0  0  0  0  0  0  0  0  0  0  0  0
  146.1204  132.9859  150.1358 H   0  0  0  0  0  0  0  0  0  0  0  0
  147.1562  134.3735  150.3296 H   0  0  0  0  0  0  0  0  0  0  0  0
  148.0010  132.6507  151.6816 H   0  0  0  0  0  0  0  0  0  0  0  0
  146.0069  131.2199  151.9136 H   0  0  0  0  0  0  0  0  0  0  0  0
  145.2789  132.3263  153.0618 H   0  0  0  0  0  0  0  0  0  0  0  0
  146.7379  131.4484  153.4867 H   0  0  0  0  0  0  0  0  0  0  0  0
  148.0958  134.7752  152.5806 H   0  0  0  0  0  0  0  0  0  0  0  0
  1  2  1  0  0  0  0
  1 21  1  0  0  0  0
  1 22  1  0  0  0  0
  1 23  1  0  0  0  0
  2 20  1  0  0  0  0
  2  3  2  0  0  0  0
  3  4  1  0  0  0  0
  3 24  1  0  0  0  0
  4  5  1  0  0  0  0
  4 19  2  0  0  0  0
  5  6  1  0  0  0  0
  6  7  2  0  0  0  0
  6  8  1  0  0  0  0
  8  9  1  0  0  0  0
  8 25  1  0  0  0  0
  9 10  1  0  0  0  0
  9 26  1  0  0  0  0
  9 27  1  0  0  0  0
 10 11  1  0  0  0  0
 10 12  1  0  0  0  0
 10 28  1  0  0  0  0
 11 29  1  0  0  0  0
 11 30  1  0  0  0  0
 11 31  1  0  0  0  0
 12 17  1  0  0  0  0
 12 13  1  0  0  0  0
 12 44  1  0  0  0  0
 13 14  1  0  0  0  0
 13 32  1  0  0  0  0
 13 33  1  0  0  0  0
 14 15  1  0  0  0  0
 14 34  1  0  0  0  0
 14 35  1  0  0  0  0
 15 16  1  0  0  0  0
 15 36  1  0  0  0  0
 15 37  1  0  0  0  0
 16 17  1  0  0  0  0
 16 38  1  0  0  0  0
 16 39  1  0  0  0  0
 17 18  1  0  0  0  0
 17 40  1  0  0  0  0
 18 41  1  0  0  0  0
 18 42  1  0  0  0  0
 18 43  1  0  0  0  0
 19 20  1  0  0  0  0
M  CHG  1   5  -1
M  CHG  1  12   1
M  END
> <s_m_source_file>
AV-unprocessed.smi

> <i_m_source_file_index>
1978

> <i_lp_mmshare_version>
43012

> <i_f3d_flags>
0

> <s_epik_input>
W0NIM11jMVtjSF1jKG5vMSlbTkhdQyg9TylbTkhdW0NIMl1bQ0BIXShbQ0gzXSlOMltDSDJdW0NIMl1bQ0gyXVtDSDJdW0NASF0yW0NIM10=

> <s_epik_cmdline>
J2VwaWtfcHl0aG9uJywgJy1waCcsICc3LjAnLCAnLXRuJywgJzgnLCAnLW1hJywgJzIwMCcsICctbWV0YWxfYmluZGluZycsICctaW1hZScsICc8aW5maWxlLm1hZT4nLCAnLW9tYWUnLCAnPG91dGZpbGUubWFlPic=

> <r_epik_Ionization_Penalty>
6.22372

> <r_epik_Ionization_Penalty_Charging>
6.22362

> <r_epik_Ionization_Penalty_Neutral>
9.65074e-05

> <r_epik_State_Penalty>
6.22363

> <r_epik_Charging_Adjusted_Penalty>
12.4472

> <i_epik_Tot_Q>
0

> <i_epik_Tot_abs_Q>
2

> <r_epik_Metal_State_Penalty>
2.16675

> <b_epik_Metal_Only>
1

> <s_lp_Force_Field>
OPLS_2005

> <r_lp_Energy>
13.4454

> <b_lp_Chiralities_Consistent>
1

> <s_lp_Variant>
AV-unprocessed.smi:1978-15

> <Gold.Version>
5.8.1

> <Gold.Id.Protein>
6NUR|6NUR_protein|mol2

> <Gold.PLP.Fitness>
46.4080

> <Gold.PLP.PLP>
-31.2768

> <Gold.PLP.part.hbond>
-4.2698

> <Gold.PLP.part.metal>
0.0000

> <Gold.PLP.part.buried>
-4.5260

> <Gold.PLP.part.nonpolar>
-22.1914

> <Gold.PLP.part.repulsive>
0.0449

> <Gold.PLP.ligand.clash>
0.0000

> <Gold.PLP.ligand.torsion>
1.1478

> <Gold.PLP.Chemscore.Hbond>
5.7600

> <Gold.PLP.Chemscore.CHOScore>
0.0000

> <Gold.PLP.Chemscore.Metal>
0.0000

> <Gold.Chemscore.Hbonds>
donor molecule, donor type, donor heavy atom, donor atom, acceptor molecule, acceptor atom, score
      L1  H    12    44       P1  7948  2.00
      P1  H  6896  6907       L1     5  1.79
      P1  H  6931  6943       L1    20  0.55
      P1  H  6934  6947       L1    20  1.00

> <Gold.PLP.Chemscore.Internal.Correction>
0.1469

> <Gold.Rescore>
     Score         DG    S(hbond)    S(metal)    S(lipo)     H(rot)  DE(clash)    DE(int)     intcor
     15.03     -17.58       2.52        0.00      64.62       1.52       0.01       2.55       ----

> <Gold.Chemscore.Fitness>
15.0253

> <Gold.Chemscore.DG>
-17.5841

> <Gold.Chemscore.ZeroCoef>
-5.4800

> <Gold.Chemscore.Hbond>
2.5245

> <Gold.Chemscore.Metal>
0.0000

> <Gold.Chemscore.Lipo>
64.6246

> <Gold.Chemscore.Internal_Hbond>
0.0000

> <Gold.Chemscore.DEClash>
0.0089

> <Gold.Chemscore.DEInternal>
2.5499

> <Gold.Chemscore.Rot>
1.5190

> <Gold.Chemscore.Internal.Correction>
   9.000000E+99

> <Gold.Chemscore.Hbonds>
donor molecule, donor type, donor heavy atom, donor atom, acceptor molecule, acceptor atom, score
      L1  H    12    44       P1  7948  0.65
      P1  H  6896  6907       L1     5  0.47
      P1  H  6931  6943       L1    20  0.07
      P1  H  6934  6947       L1    20  0.42

> <Gold.Chemscore.Hbond.Weighted>
-8.4317

> <Gold.Chemscore.Metal.Weighted>
-0.0000

> <Gold.Chemscore.Lipo.Weighted>
-7.5611

> <Gold.Chemscore.Internal_Hbond.Weighted>
0.0000

> <Gold.Chemscore.DEClash.Weighted>
0.0089

> <Gold.Chemscore.DEInternal.Weighted>
2.5499

> <Gold.Chemscore.Rot.Weighted>
3.8886

> <Gold.Chemscore.Internal.Correction.Weighted>
   9.000000E+99

> <Gold.Protein.RotatedTorsions>
[ 6907 6896 6895 6894 ] final  -97.94 input  -60.11 | X-H torsion
[ 7974 7965 7964 7962 ] final   77.71 input  175.53 | X-H torsion
[ 8008 7997 7996 7995 ] final -175.95 input   59.86 | X-H torsion
[ 10167 10162 10161 10158 ] final   33.24 input  -65.29 | X-H torsion
[ 10718 10713 10712 10709 ] final  105.12 input   66.30 | X-H torsion
[ 10763 10752 10751 10750 ] final  -66.16 input  -60.55 | X-H torsion
[ 11005 11000 10999 10996 ] final  -55.52 input  -57.11 | X-H torsion

> <Gold.Protein.ActiveResidues>
 VAL166  LYS551  ARG553  GLY616  TRP617  ASP618  TYR619  PRO620  LYS621  CYS622 
 ASP623  PHE694  ASN695  SER759  ASP760  ASP761  ALA762  ILE779  LEU786  VAL792 
 PHE793  MET794  SER795  GLU796  ALA797  LYS798  CYS799  TRP800  GLU811  SER814 

> <Gold.Protein.RotatedAtoms>
  150.7031  134.1271  159.4055 H   0  0  0  0  0  0  0  0  0  0  0  0  # atno 6907 bound_to 6896
  151.9257  135.0276  160.0535 H   0  0  0  0  0  0  0  0  0  0  0  0  # atno 6908 bound_to 6896
  152.2218  133.4954  159.5203 H   0  0  0  0  0  0  0  0  0  0  0  0  # atno 6909 bound_to 6896
  145.6865  139.2539  143.1784 H   0  0  0  0  0  0  0  0  0  0  0  0  # atno 7974 bound_to 7965
  155.9889  140.1197  157.0657 H   0  0  0  0  0  0  0  0  0  0  0  0  # atno 8008 bound_to 7997
  154.4205  140.1129  156.5606 H   0  0  0  0  0  0  0  0  0  0  0  0  # atno 8009 bound_to 7997
  155.6370  140.3473  155.4704 H   0  0  0  0  0  0  0  0  0  0  0  0  # atno 8010 bound_to 7997
  140.4425  144.1166  150.6176 H   0  0  0  0  0  0  0  0  0  0  0  0  # atno 10167 bound_to 10162
  157.6716  131.0820  150.5809 H   0  0  0  0  0  0  0  0  0  0  0  0  # atno 10718 bound_to 10713
  154.3558  135.6127  153.5665 H   0  0  0  0  0  0  0  0  0  0  0  0  # atno 10763 bound_to 10752
  152.9796  135.5803  154.4691 H   0  0  0  0  0  0  0  0  0  0  0  0  # atno 10764 bound_to 10752
  154.4420  135.2850  155.1818 H   0  0  0  0  0  0  0  0  0  0  0  0  # atno 10765 bound_to 10752
  141.1077  133.6612  156.4481 H   0  0  0  0  0  0  0  0  0  0  0  0  # atno 11005 bound_to 11000
  146.0919  140.7645  142.9591 LP  0  0  0  0  0  0  0  0  0  0  0  0  # atno 17320 bound_to 7965
  144.7010  140.3651  143.7156 LP  0  0  0  0  0  0  0  0  0  0  0  0  # atno 17321 bound_to 7965
  140.4301  143.2572  151.9606 LP  0  0  0  0  0  0  0  0  0  0  0  0  # atno 17342 bound_to 10162
  139.4790  144.5751  151.8024 LP  0  0  0  0  0  0  0  0  0  0  0  0  # atno 17343 bound_to 10162
  156.6110  130.4380  149.5859 LP  0  0  0  0  0  0  0  0  0  0  0  0  # atno 17370 bound_to 10713
  156.2430  130.6862  151.1574 LP  0  0  0  0  0  0  0  0  0  0  0  0  # atno 17371 bound_to 10713
  140.4858  134.6622  157.5190 LP  0  0  0  0  0  0  0  0  0  0  0  0  # atno 17394 bound_to 11000
  139.9955  134.6917  155.9616 LP  0  0  0  0  0  0  0  0  0  0  0  0  # atno 17395 bound_to 11000

$$$$
