AV-unprocessed.smi:138|AV-procd|sdf|1179|dock2
  -GOLD-   2262018333D 1   1.00000     0.00000
 Structure written by MMmdl.
 52 55  0  0  0  0  0  0  0  0  1 V2000
  148.3709  136.0249  158.8184 C   0  0  0  0  0  0  0  0  0  0  0  0
  147.5100  137.2157  158.5395 C   0  0  0  0  0  0  0  0  0  0  0  0
  147.7614  138.2991  157.7508 C   0  0  0  0  0  0  0  0  0  0  0  0
  146.6344  139.1656  157.7978 C   0  0  0  0  0  0  0  0  0  0  0  0
  146.4292  140.4533  157.0874 C   0  0  0  0  0  0  0  0  0  0  0  0
  145.5536  141.2626  157.3984 O   0  0  0  0  0  0  0  0  0  0  0  0
  147.3848  140.7304  155.9115 C   0  0  0  0  0  0  0  0  0  0  0  0
  148.7663  140.9262  156.3338 N   0  0  0  0  0  0  0  0  0  0  0  0
  149.7729  140.1752  155.6768 C   0  0  0  0  0  0  0  0  0  0  0  0
  149.5111  139.3738  154.7781 O   0  0  0  0  0  0  0  0  0  0  0  0
  151.1293  140.4418  156.1432 C   0  0  0  0  0  0  0  0  0  0  0  0
  152.1621  139.7778  155.5969 F   0  0  0  0  0  0  0  0  0  0  0  0
  151.3681  141.3476  157.1160 C   0  0  0  0  0  0  0  0  0  0  0  0
  150.3644  142.0782  157.7309 N   0  0  0  0  0  0  0  0  0  0  0  0
  150.6595  143.1013  158.8054 C   0  0  2  0  0  0  0  0  0  0  0  0
  151.5740  144.2106  158.2562 C   0  0  0  0  0  0  0  0  0  0  0  0
  152.6547  144.3015  159.3141 C   0  0  0  0  0  0  0  0  0  0  0  0
  152.7076  142.8716  159.8306 C   0  0  0  0  0  0  0  0  0  0  0  0
  151.3371  142.4936  159.8684 O   0  0  0  0  0  0  0  0  0  0  0  0
  149.0204  141.8826  157.3460 C   0  0  0  0  0  0  0  0  0  0  0  0
  148.1136  142.5355  157.8687 O   0  0  0  0  0  0  0  0  0  0  0  0
  145.7109  138.5920  158.6414 C   0  0  0  0  0  0  0  0  0  0  0  0
  144.3526  139.0741  159.0715 C   0  0  0  0  0  0  0  0  0  0  0  0
  146.2424  137.3794  159.0869 N   0  0  0  0  0  0  0  0  0  0  0  0
  145.5888  136.4318  159.9849 C   0  0  0  0  0  0  0  0  0  0  0  0
  146.4377  136.0729  161.1614 C   0  0  0  0  0  0  0  0  0  0  0  0
  146.7872  134.8851  161.7425 C   0  0  0  0  0  0  0  0  0  0  0  0
  147.6301  135.2077  162.8414 C   0  0  0  0  0  0  0  0  0  0  0  0
  147.7337  136.5693  162.8488 C   0  0  0  0  0  0  0  0  0  0  0  0
  147.0138  137.1122  161.8300 O   0  0  0  0  0  0  0  0  0  0  0  0
  149.3561  136.1450  158.3673 H   0  0  0  0  0  0  0  0  0  0  0  0
  147.9271  135.1181  158.4076 H   0  0  0  0  0  0  0  0  0  0  0  0
  148.5131  135.8828  159.8896 H   0  0  0  0  0  0  0  0  0  0  0  0
  148.6704  138.4481  157.1868 H   0  0  0  0  0  0  0  0  0  0  0  0
  147.3636  139.9119  155.1903 H   0  0  0  0  0  0  0  0  0  0  0  0
  147.0741  141.6153  155.3543 H   0  0  0  0  0  0  0  0  0  0  0  0
  152.3951  141.4945  157.4119 H   0  0  0  0  0  0  0  0  0  0  0  0
  149.6891  143.4552  159.1582 H   0  0  0  0  0  0  0  0  0  0  0  0
  152.0037  143.9060  157.3004 H   0  0  0  0  0  0  0  0  0  0  0  0
  151.0228  145.1411  158.1178 H   0  0  0  0  0  0  0  0  0  0  0  0
  153.6104  144.6495  158.9212 H   0  0  0  0  0  0  0  0  0  0  0  0
  152.3439  144.9768  160.1122 H   0  0  0  0  0  0  0  0  0  0  0  0
  153.2559  142.2304  159.1393 H   0  0  0  0  0  0  0  0  0  0  0  0
  153.1717  142.7946  160.8141 H   0  0  0  0  0  0  0  0  0  0  0  0
  144.3996  140.1120  159.4011 H   0  0  0  0  0  0  0  0  0  0  0  0
  143.9368  138.5066  159.9009 H   0  0  0  0  0  0  0  0  0  0  0  0
  143.6466  139.0171  158.2430 H   0  0  0  0  0  0  0  0  0  0  0  0
  144.6386  136.8518  160.3144 H   0  0  0  0  0  0  0  0  0  0  0  0
  145.3244  135.5292  159.4351 H   0  0  0  0  0  0  0  0  0  0  0  0
  146.4732  133.9046  161.4171 H   0  0  0  0  0  0  0  0  0  0  0  0
  148.1008  134.5298  163.5381 H   0  0  0  0  0  0  0  0  0  0  0  0
  148.2526  137.2789  163.4762 H   0  0  0  0  0  0  0  0  0  0  0  0
  1  2  1  0  0  0  0
  1 31  1  0  0  0  0
  1 32  1  0  0  0  0
  1 33  1  0  0  0  0
  2 24  1  0  0  0  0
  2  3  2  0  0  0  0
  3  4  1  0  0  0  0
  3 34  1  0  0  0  0
  4  5  1  0  0  0  0
  4 22  2  0  0  0  0
  5  6  2  0  0  0  0
  5  7  1  0  0  0  0
  7  8  1  0  0  0  0
  7 35  1  0  0  0  0
  7 36  1  0  0  0  0
  8 20  1  0  0  0  0
  8  9  1  0  0  0  0
  9 10  2  0  0  0  0
  9 11  1  0  0  0  0
 11 12  1  0  0  0  0
 11 13  2  0  0  0  0
 13 14  1  0  0  0  0
 13 37  1  0  0  0  0
 14 15  1  0  0  0  0
 14 20  1  0  0  0  0
 15 19  1  0  0  0  0
 15 16  1  0  0  0  0
 15 38  1  0  0  0  0
 16 17  1  0  0  0  0
 16 39  1  0  0  0  0
 16 40  1  0  0  0  0
 17 18  1  0  0  0  0
 17 41  1  0  0  0  0
 17 42  1  0  0  0  0
 18 19  1  0  0  0  0
 18 43  1  0  0  0  0
 18 44  1  0  0  0  0
 20 21  2  0  0  0  0
 22 23  1  0  0  0  0
 22 24  1  0  0  0  0
 23 45  1  0  0  0  0
 23 46  1  0  0  0  0
 23 47  1  0  0  0  0
 24 25  1  0  0  0  0
 25 26  1  0  0  0  0
 25 48  1  0  0  0  0
 25 49  1  0  0  0  0
 26 30  1  0  0  0  0
 26 27  2  0  0  0  0
 27 28  1  0  0  0  0
 27 50  1  0  0  0  0
 28 29  2  0  0  0  0
 28 51  1  0  0  0  0
 29 30  1  0  0  0  0
 29 52  1  0  0  0  0
M  END
> <s_m_source_file>
AV-unprocessed.smi

> <i_m_source_file_index>
138

> <i_lp_mmshare_version>
43012

> <i_f3d_flags>
0

> <s_epik_input>
bzFbY0hdW2NIXVtjSF1jMVtDSDJdbjJjKFtDSDNdKWMoW2NIXWMyW0NIM10pQyg9TylbQ0gyXW4zYyg9TyljKEYpW2NIXW4oYzM9TylbQ0BASF00W0NIMl1bQ0gyXVtDSDJdTzQ=

> <s_epik_cmdline>
J2VwaWtfcHl0aG9uJywgJy1waCcsICc3LjAnLCAnLXRuJywgJzgnLCAnLW1hJywgJzIwMCcsICctbWV0YWxfYmluZGluZycsICctaW1hZScsICc8aW5maWxlLm1hZT4nLCAnLW9tYWUnLCAnPG91dGZpbGUubWFlPic=

> <r_lp_tautomer_probability>
1

> <r_epik_Ionization_Penalty>
5.03107e-09

> <r_epik_Ionization_Penalty_Charging>
5.01743e-09

> <r_epik_Ionization_Penalty_Neutral>
1.36377e-11

> <r_epik_State_Penalty>
-0

> <r_epik_Charging_Adjusted_Penalty>
5.01743e-09

> <i_epik_Tot_Q>
0

> <i_epik_Tot_abs_Q>
0

> <r_epik_Metal_State_Penalty>
-0

> <b_epik_Metal_Only>
0

> <s_epik_Chemistry_Notes>
This compound contains an acetal/aminal-like group ( X-CH(R)-Y where X, Y are N, S, or O) that may be acid/base labile, releasing an aldehyde.

> <s_lp_Force_Field>
OPLS_2005

> <r_lp_Energy>
38.6842

> <b_lp_Chiralities_Consistent>
1

> <s_lp_Variant>
AV-unprocessed.smi:138-1

> <Gold.Version>
5.8.1

> <Gold.Id.Protein>
6NUR|6NUR_protein|mol2

> <Gold.PLP.Fitness>
49.3254

> <Gold.PLP.PLP>
-47.3675

> <Gold.PLP.part.hbond>
-2.6399

> <Gold.PLP.part.metal>
0.0000

> <Gold.PLP.part.buried>
-4.5718

> <Gold.PLP.part.nonpolar>
-39.0806

> <Gold.PLP.part.repulsive>
0.7424

> <Gold.PLP.ligand.clash>
0.0000

> <Gold.PLP.ligand.torsion>
0.4145

> <Gold.PLP.Chemscore.Hbond>
0.9120

> <Gold.PLP.Chemscore.CHOScore>
0.0000

> <Gold.PLP.Chemscore.Metal>
0.0000

> <Gold.Chemscore.Hbonds>
donor molecule, donor type, donor heavy atom, donor atom, acceptor molecule, acceptor atom, score
      P1  H  6934  6947       L1    30  0.71

> <Gold.PLP.Chemscore.Internal.Correction>
0.0507

> <Gold.Rescore>
     Score         DG    S(hbond)    S(metal)    S(lipo)     H(rot)  DE(clash)    DE(int)     intcor
     10.41     -14.46       0.91        0.00      94.53       2.00       0.19       3.86       ----

> <Gold.Chemscore.Fitness>
10.4134

> <Gold.Chemscore.DG>
-14.4646

> <Gold.Chemscore.ZeroCoef>
-5.4800

> <Gold.Chemscore.Hbond>
0.9084

> <Gold.Chemscore.Metal>
0.0000

> <Gold.Chemscore.Lipo>
94.5280

> <Gold.Chemscore.Internal_Hbond>
0.0000

> <Gold.Chemscore.DEClash>
0.1937

> <Gold.Chemscore.DEInternal>
3.8576

> <Gold.Chemscore.Rot>
1.9958

> <Gold.Chemscore.Internal.Correction>
   9.000000E+99

> <Gold.Chemscore.Hbonds>
donor molecule, donor type, donor heavy atom, donor atom, acceptor molecule, acceptor atom, score
      P1  H  6934  6947       L1    30  0.68

> <Gold.Chemscore.Hbond.Weighted>
-3.0341

> <Gold.Chemscore.Metal.Weighted>
-0.0000

> <Gold.Chemscore.Lipo.Weighted>
-11.0598

> <Gold.Chemscore.Internal_Hbond.Weighted>
0.0000

> <Gold.Chemscore.DEClash.Weighted>
0.1937

> <Gold.Chemscore.DEInternal.Weighted>
3.8576

> <Gold.Chemscore.Rot.Weighted>
5.1092

> <Gold.Chemscore.Internal.Correction.Weighted>
   9.000000E+99

> <Gold.Protein.RotatedTorsions>
[ 6907 6896 6895 6894 ] final  160.75 input  -60.11 | X-H torsion
[ 7974 7965 7964 7962 ] final -167.38 input  175.53 | X-H torsion
[ 8008 7997 7996 7995 ] final   34.35 input   59.86 | X-H torsion
[ 10167 10162 10161 10158 ] final -156.15 input  -65.29 | X-H torsion
[ 10718 10713 10712 10709 ] final -110.77 input   66.30 | X-H torsion
[ 10763 10752 10751 10750 ] final   -1.66 input  -60.55 | X-H torsion
[ 11005 11000 10999 10996 ] final  126.08 input  -57.11 | X-H torsion

> <Gold.Protein.ActiveResidues>
 VAL166  LYS551  ARG553  GLY616  TRP617  ASP618  TYR619  PRO620  LYS621  CYS622 
 ASP623  PHE694  ASN695  SER759  ASP760  ASP761  ALA762  ILE779  LEU786  VAL792 
 PHE793  MET794  SER795  GLU796  ALA797  LYS798  CYS799  TRP800  GLU811  SER814 

> <Gold.Protein.RotatedAtoms>
  151.9659  133.3710  159.4052 H   0  0  0  0  0  0  0  0  0  0  0  0  # atno 6907 bound_to 6896
  150.6956  134.4191  159.5206 H   0  0  0  0  0  0  0  0  0  0  0  0  # atno 6908 bound_to 6896
  152.1887  134.8690  160.0570 H   0  0  0  0  0  0  0  0  0  0  0  0  # atno 6909 bound_to 6896
  144.7224  140.2527  143.6276 H   0  0  0  0  0  0  0  0  0  0  0  0  # atno 7974 bound_to 7965
  155.1534  140.3277  155.4426 H   0  0  0  0  0  0  0  0  0  0  0  0  # atno 8008 bound_to 7997
  156.2566  140.1973  156.6595 H   0  0  0  0  0  0  0  0  0  0  0  0  # atno 8009 bound_to 7997
  154.6456  140.0565  156.9883 H   0  0  0  0  0  0  0  0  0  0  0  0  # atno 8010 bound_to 7997
  139.6873  143.9480  152.2367 H   0  0  0  0  0  0  0  0  0  0  0  0  # atno 10167 bound_to 10162
  156.0609  130.5832  150.8282 H   0  0  0  0  0  0  0  0  0  0  0  0  # atno 10718 bound_to 10713
  153.3477  135.6984  153.6814 H   0  0  0  0  0  0  0  0  0  0  0  0  # atno 10763 bound_to 10752
  153.5553  135.3545  155.2777 H   0  0  0  0  0  0  0  0  0  0  0  0  # atno 10764 bound_to 10752
  154.8648  135.4236  154.2705 H   0  0  0  0  0  0  0  0  0  0  0  0  # atno 10765 bound_to 10752
  139.9438  134.9632  156.8653 H   0  0  0  0  0  0  0  0  0  0  0  0  # atno 11005 bound_to 11000
  145.8213  139.2045  143.1936 LP  0  0  0  0  0  0  0  0  0  0  0  0  # atno 17320 bound_to 7965
  146.0512  140.8067  142.9781 LP  0  0  0  0  0  0  0  0  0  0  0  0  # atno 17321 bound_to 7965
  139.9286  144.6755  150.8386 LP  0  0  0  0  0  0  0  0  0  0  0  0  # atno 17342 bound_to 10162
  140.7672  143.3324  151.2381 LP  0  0  0  0  0  0  0  0  0  0  0  0  # atno 17343 bound_to 10162
  157.5617  131.0946  150.9549 LP  0  0  0  0  0  0  0  0  0  0  0  0  # atno 17370 bound_to 10713
  156.9786  130.5518  149.5295 LP  0  0  0  0  0  0  0  0  0  0  0  0  # atno 17371 bound_to 10713
  140.5885  134.0284  155.7491 LP  0  0  0  0  0  0  0  0  0  0  0  0  # atno 17394 bound_to 11000
  141.1082  133.9660  157.2959 LP  0  0  0  0  0  0  0  0  0  0  0  0  # atno 17395 bound_to 11000

$$$$
