AV-unprocessed.smi:1911|AV-procd|sdf|7744|dock2
  -GOLD-   22720 9483D 1   1.00000     0.00000
 Structure written by MMmdl.
 51 53  0  0  0  0  0  0  0  0  3 V2000
  145.7125  128.2316  154.3625 N   0  5  0  0  0  0  0  0  0  0  0  0
  146.9444  128.7786  154.3970 C   0  0  0  0  0  0  0  0  0  0  0  0
  147.6680  128.9494  155.3754 O   0  0  0  0  0  0  0  0  0  0  0  0
  147.4296  129.2129  153.0095 C   0  0  0  0  0  0  0  0  0  0  0  0
  147.8282  130.6438  153.0128 N   0  3  2  0  0  0  0  0  0  0  0  0
  149.0032  130.9012  153.8829 C   0  0  0  0  0  0  0  0  0  0  0  0
  149.4827  132.3568  153.7548 C   0  0  0  0  0  0  0  0  0  0  0  0
  148.3485  133.3426  154.0759 C   0  0  1  0  0  0  0  0  0  0  0  0
  148.8086  134.7144  153.8785 N   0  0  0  0  0  0  0  0  0  0  0  0
  149.1798  135.5510  154.8586 C   0  0  0  0  0  0  0  0  0  0  0  0
  149.1459  135.2533  156.0525 O   0  0  0  0  0  0  0  0  0  0  0  0
  149.5644  136.7407  154.3651 N   0  0  0  0  0  0  0  0  0  0  0  0
  150.0878  137.8595  155.0683 C   0  0  0  0  0  0  0  0  0  0  0  0
  150.3755  137.7084  156.4387 C   0  0  0  0  0  0  0  0  0  0  0  0
  150.8740  138.8072  157.1640 C   0  0  0  0  0  0  0  0  0  0  0  0
  151.0662  140.0404  156.4972 C   0  0  0  0  0  0  0  0  0  0  0  0
  151.5550  141.1710  157.1814 N   0  0  0  0  0  0  0  0  0  0  0  0
  151.0332  142.5086  156.9548 C   0  0  0  0  0  0  0  0  0  0  0  0
  151.7656  143.3873  157.9687 C   0  0  0  0  0  0  0  0  0  0  0  0
  152.0092  142.4391  159.1430 C   0  0  0  0  0  0  0  0  0  0  0  0
  152.2102  141.0724  158.4795 C   0  0  0  0  0  0  0  0  0  0  0  0
  150.7728  140.1914  155.1842 N   0  0  0  0  0  0  0  0  0  0  0  0
  150.2971  139.1350  154.4921 C   0  0  0  0  0  0  0  0  0  0  0  0
  147.1340  133.0366  153.1817 C   0  0  0  0  0  0  0  0  0  0  0  0
  146.7020  131.5669  153.3186 C   0  0  0  0  0  0  0  0  0  0  0  0
  144.9010  128.8534  154.2630 H   0  0  0  0  0  0  0  0  0  0  0  0
  148.2594  128.5870  152.6771 H   0  0  0  0  0  0  0  0  0  0  0  0
  146.6133  129.0464  152.3044 H   0  0  0  0  0  0  0  0  0  0  0  0
  148.7452  130.6777  154.9193 H   0  0  0  0  0  0  0  0  0  0  0  0
  149.8185  130.2316  153.6065 H   0  0  0  0  0  0  0  0  0  0  0  0
  150.3272  132.5260  154.4238 H   0  0  0  0  0  0  0  0  0  0  0  0
  149.8502  132.5284  152.7419 H   0  0  0  0  0  0  0  0  0  0  0  0
  148.0645  133.2046  155.1211 H   0  0  0  0  0  0  0  0  0  0  0  0
  148.8583  135.0465  152.9262 H   0  0  0  0  0  0  0  0  0  0  0  0
  149.4413  136.8729  153.3719 H   0  0  0  0  0  0  0  0  0  0  0  0
  150.2197  136.7605  156.9330 H   0  0  0  0  0  0  0  0  0  0  0  0
  151.0968  138.6878  158.2136 H   0  0  0  0  0  0  0  0  0  0  0  0
  151.2110  142.8450  155.9329 H   0  0  0  0  0  0  0  0  0  0  0  0
  149.9586  142.5152  157.1425 H   0  0  0  0  0  0  0  0  0  0  0  0
  152.7216  143.7101  157.5546 H   0  0  0  0  0  0  0  0  0  0  0  0
  151.1999  144.2769  158.2463 H   0  0  0  0  0  0  0  0  0  0  0  0
  152.8543  142.7367  159.7640 H   0  0  0  0  0  0  0  0  0  0  0  0
  151.1218  142.4104  159.7767 H   0  0  0  0  0  0  0  0  0  0  0  0
  151.7968  140.2732  159.0962 H   0  0  0  0  0  0  0  0  0  0  0  0
  153.2702  140.8701  158.3225 H   0  0  0  0  0  0  0  0  0  0  0  0
  150.0632  139.3426  153.4598 H   0  0  0  0  0  0  0  0  0  0  0  0
  146.2995  133.6889  153.4422 H   0  0  0  0  0  0  0  0  0  0  0  0
  147.3768  133.2469  152.1389 H   0  0  0  0  0  0  0  0  0  0  0  0
  145.8664  131.3774  152.6442 H   0  0  0  0  0  0  0  0  0  0  0  0
  146.3393  131.3765  154.3298 H   0  0  0  0  0  0  0  0  0  0  0  0
  148.1235  130.8385  152.0659 H   0  0  0  0  0  0  0  0  0  0  0  0
  1  2  1  0  0  0  0
  1 26  1  0  0  0  0
  2  3  2  0  0  0  0
  2  4  1  0  0  0  0
  4  5  1  0  0  0  0
  4 27  1  0  0  0  0
  4 28  1  0  0  0  0
  5 25  1  0  0  0  0
  5  6  1  0  0  0  0
  5 51  1  0  0  0  0
  6  7  1  0  0  0  0
  6 29  1  0  0  0  0
  6 30  1  0  0  0  0
  7  8  1  0  0  0  0
  7 31  1  0  0  0  0
  7 32  1  0  0  0  0
  8  9  1  0  0  0  0
  8 24  1  0  0  0  0
  8 33  1  0  0  0  0
  9 10  1  0  0  0  0
  9 34  1  0  0  0  0
 10 11  2  0  0  0  0
 10 12  1  0  0  0  0
 12 13  1  0  0  0  0
 12 35  1  0  0  0  0
 13 23  1  0  0  0  0
 13 14  2  0  0  0  0
 14 15  1  0  0  0  0
 14 36  1  0  0  0  0
 15 16  2  0  0  0  0
 15 37  1  0  0  0  0
 16 17  1  0  0  0  0
 16 22  1  0  0  0  0
 17 21  1  0  0  0  0
 17 18  1  0  0  0  0
 18 19  1  0  0  0  0
 18 38  1  0  0  0  0
 18 39  1  0  0  0  0
 19 20  1  0  0  0  0
 19 40  1  0  0  0  0
 19 41  1  0  0  0  0
 20 21  1  0  0  0  0
 20 42  1  0  0  0  0
 20 43  1  0  0  0  0
 21 44  1  0  0  0  0
 21 45  1  0  0  0  0
 22 23  2  0  0  0  0
 23 46  1  0  0  0  0
 24 25  1  0  0  0  0
 24 47  1  0  0  0  0
 24 48  1  0  0  0  0
 25 49  1  0  0  0  0
 25 50  1  0  0  0  0
M  CHG  1   1  -1
M  CHG  1   5   1
M  END
> <s_m_source_file>
AV-unprocessed.smi

> <i_m_source_file_index>
1911

> <i_lp_mmshare_version>
43012

> <i_f3d_flags>
0

> <s_epik_input>
W05IMl1DKD1PKVtDSDJdTjFbQ0gyXVtDSDJdW0NIXShbQ0gyXVtDSDJdMSlbTkhdQyg9TylbTkhdYzJbY0hdW2NIXWMobltjSF0yKU4zW0NIMl1bQ0gyXVtDSDJdW0NIMl0z

> <s_epik_cmdline>
J2VwaWtfcHl0aG9uJywgJy1waCcsICc3LjAnLCAnLXRuJywgJzgnLCAnLW1hJywgJzIwMCcsICctbWV0YWxfYmluZGluZycsICctaW1hZScsICc8aW5maWxlLm1hZT4nLCAnLW9tYWUnLCAnPG91dGZpbGUubWFlPic=

> <r_lp_tautomer_probability>
1

> <r_epik_Ionization_Penalty>
5.80652

> <r_epik_Ionization_Penalty_Charging>
5.7288

> <r_epik_Ionization_Penalty_Neutral>
0.0777157

> <r_epik_State_Penalty>
6.60246

> <r_epik_Charging_Adjusted_Penalty>
12.3313

> <i_epik_Tot_Q>
0

> <i_epik_Tot_abs_Q>
2

> <r_epik_Metal_State_Penalty>
2.64988

> <b_epik_Metal_Only>
1

> <s_lp_Force_Field>
OPLS_2005

> <r_lp_Energy>
33.5559

> <b_lp_Chiralities_Consistent>
1

> <s_lp_Variant>
AV-unprocessed.smi:1911-7

> <Gold.Version>
5.8.1

> <Gold.Id.Protein>
6NUR|6NUR_protein|mol2

> <Gold.PLP.Fitness>
50.8107

> <Gold.PLP.PLP>
-36.0422

> <Gold.PLP.part.hbond>
-4.8854

> <Gold.PLP.part.metal>
0.0000

> <Gold.PLP.part.buried>
-4.5069

> <Gold.PLP.part.nonpolar>
-26.5508

> <Gold.PLP.part.repulsive>
0.1230

> <Gold.PLP.ligand.clash>
0.0000

> <Gold.PLP.ligand.torsion>
0.6622

> <Gold.PLP.Chemscore.Hbond>
4.3100

> <Gold.PLP.Chemscore.CHOScore>
1.0000

> <Gold.PLP.Chemscore.Metal>
0.0000

> <Gold.Chemscore.Hbonds>
donor molecule, donor type, donor heavy atom, donor atom, acceptor molecule, acceptor atom, score
      L1  H     1    26       P1 10956  1.00
      L1  H     5    51       P1 10747  1.00
      L1  H     9    34       P1  7948  0.95
      L1  H    12    35       P1  7948  0.99
      P1  H  7989  7998       L1    22  0.45
      L1  C    23    46       P1  7957  1.00

> <Gold.PLP.Chemscore.Internal.Correction>
0.1629

> <Gold.Rescore>
     Score         DG    S(hbond)    S(metal)    S(lipo)     H(rot)  DE(clash)    DE(int)     intcor
     18.88     -22.36       3.41        0.00      88.14       1.88       0.10       3.38       ----

> <Gold.Chemscore.Fitness>
18.8824

> <Gold.Chemscore.DG>
-22.3636

> <Gold.Chemscore.ZeroCoef>
-5.4800

> <Gold.Chemscore.Hbond>
3.4078

> <Gold.Chemscore.Metal>
0.0000

> <Gold.Chemscore.Lipo>
88.1398

> <Gold.Chemscore.Internal_Hbond>
0.0000

> <Gold.Chemscore.DEClash>
0.0965

> <Gold.Chemscore.DEInternal>
3.3847

> <Gold.Chemscore.Rot>
1.8793

> <Gold.Chemscore.Internal.Correction>
   9.000000E+99

> <Gold.Chemscore.Hbonds>
donor molecule, donor type, donor heavy atom, donor atom, acceptor molecule, acceptor atom, score
      L1  H     1    26       P1 10956  0.98
      L1  H     5    51       P1 10747  0.98
      L1  H     9    34       P1  7948  0.20
      L1  H    12    35       P1  7948  0.82
      P1  H  7989  7998       L1    22  0.02

> <Gold.Chemscore.Hbond.Weighted>
-11.3822

> <Gold.Chemscore.Metal.Weighted>
-0.0000

> <Gold.Chemscore.Lipo.Weighted>
-10.3124

> <Gold.Chemscore.Internal_Hbond.Weighted>
0.0000

> <Gold.Chemscore.DEClash.Weighted>
0.0965

> <Gold.Chemscore.DEInternal.Weighted>
3.3847

> <Gold.Chemscore.Rot.Weighted>
4.8109

> <Gold.Chemscore.Internal.Correction.Weighted>
   9.000000E+99

> <Gold.Protein.RotatedTorsions>
[ 6907 6896 6895 6894 ] final   97.27 input  -60.11 | X-H torsion
[ 7974 7965 7964 7962 ] final  175.85 input  175.53 | X-H torsion
[ 8008 7997 7996 7995 ] final   83.47 input   59.86 | X-H torsion
[ 10167 10162 10161 10158 ] final   -3.57 input  -65.29 | X-H torsion
[ 10718 10713 10712 10709 ] final  -79.15 input   66.30 | X-H torsion
[ 10763 10752 10751 10750 ] final  -28.20 input  -60.55 | X-H torsion
[ 11005 11000 10999 10996 ] final  113.30 input  -57.11 | X-H torsion

> <Gold.Protein.ActiveResidues>
 VAL166  LYS551  ARG553  GLY616  TRP617  ASP618  TYR619  PRO620  LYS621  CYS622 
 ASP623  PHE694  ASN695  SER759  ASP760  ASP761  ALA762  ILE779  LEU786  VAL792 
 PHE793  MET794  SER795  GLU796  ALA797  LYS798  CYS799  TRP800  GLU811  SER814 

> <Gold.Protein.RotatedAtoms>
  152.5425  134.0758  159.8213 H   0  0  0  0  0  0  0  0  0  0  0  0  # atno 6907 bound_to 6896
  151.0867  133.5340  159.2624 H   0  0  0  0  0  0  0  0  0  0  0  0  # atno 6908 bound_to 6896
  151.2147  135.0504  159.8979 H   0  0  0  0  0  0  0  0  0  0  0  0  # atno 6909 bound_to 6896
  144.7194  140.0008  143.6440 H   0  0  0  0  0  0  0  0  0  0  0  0  # atno 7974 bound_to 7965
  155.9244  140.3419  155.6198 H   0  0  0  0  0  0  0  0  0  0  0  0  # atno 8008 bound_to 7997
  155.7234  140.0786  157.2339 H   0  0  0  0  0  0  0  0  0  0  0  0  # atno 8009 bound_to 7997
  154.4075  140.1601  156.2415 H   0  0  0  0  0  0  0  0  0  0  0  0  # atno 8010 bound_to 7997
  140.6895  143.6524  150.8338 H   0  0  0  0  0  0  0  0  0  0  0  0  # atno 10167 bound_to 10162
  156.0099  130.4538  150.3605 H   0  0  0  0  0  0  0  0  0  0  0  0  # atno 10718 bound_to 10713
  153.7444  135.6930  153.4959 H   0  0  0  0  0  0  0  0  0  0  0  0  # atno 10763 bound_to 10752
  153.2046  135.4424  155.0307 H   0  0  0  0  0  0  0  0  0  0  0  0  # atno 10764 bound_to 10752
  154.8209  135.3421  154.6968 H   0  0  0  0  0  0  0  0  0  0  0  0  # atno 10765 bound_to 10752
  139.8949  134.9547  156.6717 H   0  0  0  0  0  0  0  0  0  0  0  0  # atno 11005 bound_to 11000
  146.0337  139.3358  143.0740 LP  0  0  0  0  0  0  0  0  0  0  0  0  # atno 17320 bound_to 7965
  145.8421  140.9575  143.0793 LP  0  0  0  0  0  0  0  0  0  0  0  0  # atno 17321 bound_to 7965
  140.0235  143.5517  152.2790 LP  0  0  0  0  0  0  0  0  0  0  0  0  # atno 17342 bound_to 10162
  139.6284  144.7641  151.2588 LP  0  0  0  0  0  0  0  0  0  0  0  0  # atno 17343 bound_to 10162
  157.1694  131.0365  151.2803 LP  0  0  0  0  0  0  0  0  0  0  0  0  # atno 17370 bound_to 10713
  157.4242  130.7454  149.6938 LP  0  0  0  0  0  0  0  0  0  0  0  0  # atno 17371 bound_to 10713
  140.7368  133.9012  155.8249 LP  0  0  0  0  0  0  0  0  0  0  0  0  # atno 17394 bound_to 11000
  141.0110  134.1021  157.4222 LP  0  0  0  0  0  0  0  0  0  0  0  0  # atno 17395 bound_to 11000

$$$$
