AV-unprocessed.smi:3003|AV-procd|sdf|11437|dock3
  -GOLD-   2272016363D 1   1.00000     0.00000
 Structure written by MMmdl.
 41 42  0  0  0  0  0  0  0  0  1 V2000
  152.0615  145.3542  159.1229 C   0  0  0  0  0  0  0  0  0  0  0  0
  151.7613  144.4668  157.5704 S   0  0  0  0  0  0  0  0  0  0  0  0
  151.2997  142.8219  158.1933 C   0  0  2  0  0  0  0  0  0  0  0  0
  152.3548  142.3182  159.1905 C   0  0  0  0  0  0  0  0  0  0  0  0
  151.0958  141.8136  157.0561 C   0  0  0  0  0  0  0  0  0  0  0  0
  151.8256  140.8258  156.9631 O   0  0  0  0  0  0  0  0  0  0  0  0
  150.1075  142.0809  156.1878 N   0  0  0  0  0  0  0  0  0  0  0  0
  149.7775  141.2643  155.0251 C   0  0  0  0  0  0  0  0  0  0  0  0
  149.8941  139.7719  155.2873 C   0  0  0  0  0  0  0  0  0  0  0  0
  150.6031  138.9268  154.4107 C   0  0  0  0  0  0  0  0  0  0  0  0
  150.6836  137.5521  154.7029 C   0  0  0  0  0  0  0  0  0  0  0  0
  150.0456  137.0542  155.8642 C   0  0  0  0  0  0  0  0  0  0  0  0
  150.1128  135.6791  156.1781 N   0  0  0  0  0  0  0  0  0  0  0  0
  149.2462  135.2325  157.2662 C   0  0  0  0  0  0  0  0  0  0  0  0
  149.1756  133.6960  157.2980 C   0  0  0  0  0  0  0  0  0  0  0  0
  150.4893  133.1537  157.3806 O   0  0  0  0  0  0  0  0  0  0  0  0
  151.2814  133.5114  156.2533 C   0  0  0  0  0  0  0  0  0  0  0  0
  151.4280  135.0407  156.1871 C   0  0  0  0  0  0  0  0  0  0  0  0
  149.3639  137.8726  156.7041 N   0  0  0  0  0  0  0  0  0  0  0  0
  149.2904  139.1898  156.4196 C   0  0  0  0  0  0  0  0  0  0  0  0
  152.4199  146.3619  158.9139 H   0  0  0  0  0  0  0  0  0  0  0  0
  152.8124  144.8378  159.7205 H   0  0  0  0  0  0  0  0  0  0  0  0
  151.1439  145.4331  159.7043 H   0  0  0  0  0  0  0  0  0  0  0  0
  150.3597  142.9361  158.7352 H   0  0  0  0  0  0  0  0  0  0  0  0
  152.0983  141.3306  159.5759 H   0  0  0  0  0  0  0  0  0  0  0  0
  152.4339  142.9913  160.0448 H   0  0  0  0  0  0  0  0  0  0  0  0
  153.3423  142.2517  158.7317 H   0  0  0  0  0  0  0  0  0  0  0  0
  149.5539  142.9121  156.3369 H   0  0  0  0  0  0  0  0  0  0  0  0
  148.7757  141.5098  154.6680 H   0  0  0  0  0  0  0  0  0  0  0  0
  150.4638  141.5251  154.2192 H   0  0  0  0  0  0  0  0  0  0  0  0
  151.0839  139.3233  153.5286 H   0  0  0  0  0  0  0  0  0  0  0  0
  151.2427  136.9036  154.0453 H   0  0  0  0  0  0  0  0  0  0  0  0
  149.6464  135.6062  158.2096 H   0  0  0  0  0  0  0  0  0  0  0  0
  148.2371  135.6307  157.1710 H   0  0  0  0  0  0  0  0  0  0  0  0
  148.6004  133.3652  158.1627 H   0  0  0  0  0  0  0  0  0  0  0  0
  148.6668  133.3120  156.4123 H   0  0  0  0  0  0  0  0  0  0  0  0
  152.2620  133.0445  156.3457 H   0  0  0  0  0  0  0  0  0  0  0  0
  150.8290  133.1238  155.3391 H   0  0  0  0  0  0  0  0  0  0  0  0
  151.9863  135.3110  155.2898 H   0  0  0  0  0  0  0  0  0  0  0  0
  151.9969  135.3983  157.0463 H   0  0  0  0  0  0  0  0  0  0  0  0
  148.7356  139.7952  157.1210 H   0  0  0  0  0  0  0  0  0  0  0  0
  1  2  1  0  0  0  0
  1 21  1  0  0  0  0
  1 22  1  0  0  0  0
  1 23  1  0  0  0  0
  2  3  1  0  0  0  0
  3  4  1  0  0  0  0
  3  5  1  0  0  0  0
  3 24  1  0  0  0  0
  4 25  1  0  0  0  0
  4 26  1  0  0  0  0
  4 27  1  0  0  0  0
  5  6  2  0  0  0  0
  5  7  1  0  0  0  0
  7  8  1  0  0  0  0
  7 28  1  0  0  0  0
  8  9  1  0  0  0  0
  8 29  1  0  0  0  0
  8 30  1  0  0  0  0
  9 20  1  0  0  0  0
  9 10  2  0  0  0  0
 10 11  1  0  0  0  0
 10 31  1  0  0  0  0
 11 12  2  0  0  0  0
 11 32  1  0  0  0  0
 12 13  1  0  0  0  0
 12 19  1  0  0  0  0
 13 18  1  0  0  0  0
 13 14  1  0  0  0  0
 14 15  1  0  0  0  0
 14 33  1  0  0  0  0
 14 34  1  0  0  0  0
 15 16  1  0  0  0  0
 15 35  1  0  0  0  0
 15 36  1  0  0  0  0
 16 17  1  0  0  0  0
 17 18  1  0  0  0  0
 17 37  1  0  0  0  0
 17 38  1  0  0  0  0
 18 39  1  0  0  0  0
 18 40  1  0  0  0  0
 19 20  2  0  0  0  0
 20 41  1  0  0  0  0
M  END
> <s_m_source_file>
AV-unprocessed.smi

> <i_m_source_file_index>
3003

> <i_lp_mmshare_version>
43012

> <i_f3d_flags>
0

> <s_epik_input>
W0NIM11TW0NASF0oW0NIM10pQyg9TylbTkhdW0NIMl1jMVtjSF1bY0hdYyhuW2NIXTEpTjJbQ0gyXVtDSDJdT1tDSDJdW0NIMl0y

> <s_epik_cmdline>
J2VwaWtfcHl0aG9uJywgJy1waCcsICc3LjAnLCAnLXRuJywgJzgnLCAnLW1hJywgJzIwMCcsICctbWV0YWxfYmluZGluZycsICctaW1hZScsICc8aW5maWxlLm1hZT4nLCAnLW9tYWUnLCAnPG91dGZpbGUubWFlPic=

> <r_lp_tautomer_probability>
1

> <r_epik_Ionization_Penalty>
0.00417642

> <r_epik_Ionization_Penalty_Charging>
0

> <r_epik_Ionization_Penalty_Neutral>
0.00417642

> <r_epik_State_Penalty>
0.00299889

> <r_epik_Charging_Adjusted_Penalty>
0.00299889

> <i_epik_Tot_Q>
0

> <i_epik_Tot_abs_Q>
0

> <r_epik_Metal_State_Penalty>
-0

> <b_epik_Metal_Only>
0

> <s_lp_Force_Field>
OPLS_2005

> <r_lp_Energy>
16.2796

> <b_lp_Chiralities_Consistent>
1

> <s_lp_Variant>
AV-unprocessed.smi:3003-1

> <Gold.Version>
5.8.1

> <Gold.Id.Protein>
6NUR|6NUR_protein|mol2

> <Gold.PLP.Fitness>
39.0169

> <Gold.PLP.PLP>
-33.6310

> <Gold.PLP.part.hbond>
-2.0000

> <Gold.PLP.part.metal>
0.0000

> <Gold.PLP.part.buried>
-3.4990

> <Gold.PLP.part.nonpolar>
-27.1613

> <Gold.PLP.part.repulsive>
0.1287

> <Gold.PLP.ligand.clash>
0.0000

> <Gold.PLP.ligand.torsion>
0.4999

> <Gold.PLP.Chemscore.Hbond>
1.9913

> <Gold.PLP.Chemscore.CHOScore>
0.0000

> <Gold.PLP.Chemscore.Metal>
0.0000

> <Gold.Chemscore.Hbonds>
donor molecule, donor type, donor heavy atom, donor atom, acceptor molecule, acceptor atom, score
      L1  H     7    28       P1  8028  0.97
      P1  H  6896  6907       L1    16  1.00

> <Gold.PLP.Chemscore.Internal.Correction>
0.4120

> <Gold.Rescore>
     Score         DG    S(hbond)    S(metal)    S(lipo)     H(rot)  DE(clash)    DE(int)     intcor
     15.59     -17.59       1.71        0.00      91.12       1.67       0.13       1.87       ----

> <Gold.Chemscore.Fitness>
15.5934

> <Gold.Chemscore.DG>
-17.5901

> <Gold.Chemscore.ZeroCoef>
-5.4800

> <Gold.Chemscore.Hbond>
1.7124

> <Gold.Chemscore.Metal>
0.0000

> <Gold.Chemscore.Lipo>
91.1226

> <Gold.Chemscore.Internal_Hbond>
0.0000

> <Gold.Chemscore.DEClash>
0.1294

> <Gold.Chemscore.DEInternal>
1.8673

> <Gold.Chemscore.Rot>
1.6682

> <Gold.Chemscore.Internal.Correction>
   9.000000E+99

> <Gold.Chemscore.Hbonds>
donor molecule, donor type, donor heavy atom, donor atom, acceptor molecule, acceptor atom, score
      L1  H     7    28       P1  8028  0.85
      P1  H  6896  6907       L1    16  0.33

> <Gold.Chemscore.Hbond.Weighted>
-5.7195

> <Gold.Chemscore.Metal.Weighted>
-0.0000

> <Gold.Chemscore.Lipo.Weighted>
-10.6613

> <Gold.Chemscore.Internal_Hbond.Weighted>
0.0000

> <Gold.Chemscore.DEClash.Weighted>
0.1294

> <Gold.Chemscore.DEInternal.Weighted>
1.8673

> <Gold.Chemscore.Rot.Weighted>
4.2707

> <Gold.Chemscore.Internal.Correction.Weighted>
   9.000000E+99

> <Gold.Protein.RotatedTorsions>
[ 6907 6896 6895 6894 ] final -135.45 input  -60.11 | X-H torsion
[ 7974 7965 7964 7962 ] final   -3.97 input  175.53 | X-H torsion
[ 8008 7997 7996 7995 ] final  177.36 input   59.86 | X-H torsion
[ 10167 10162 10161 10158 ] final   41.17 input  -65.29 | X-H torsion
[ 10718 10713 10712 10709 ] final  -36.49 input   66.30 | X-H torsion
[ 10763 10752 10751 10750 ] final -139.89 input  -60.55 | X-H torsion
[ 11005 11000 10999 10996 ] final  138.36 input  -57.11 | X-H torsion

> <Gold.Protein.ActiveResidues>
 VAL166  LYS551  ARG553  GLY616  TRP617  ASP618  TYR619  PRO620  LYS621  CYS622 
 ASP623  PHE694  ASN695  SER759  ASP760  ASP761  ALA762  ILE779  LEU786  VAL792 
 PHE793  MET794  SER795  GLU796  ALA797  LYS798  CYS799  TRP800  GLU811  SER814 

> <Gold.Protein.RotatedAtoms>
  150.9981  133.6083  159.2698 H   0  0  0  0  0  0  0  0  0  0  0  0  # atno 6907 bound_to 6896
  151.3280  135.0834  159.9338 H   0  0  0  0  0  0  0  0  0  0  0  0  # atno 6908 bound_to 6896
  152.5266  133.9615  159.7774 H   0  0  0  0  0  0  0  0  0  0  0  0  # atno 6909 bound_to 6896
  146.2380  140.1801  142.8332 H   0  0  0  0  0  0  0  0  0  0  0  0  # atno 7974 bound_to 7965
  156.0664  140.1360  156.9880 H   0  0  0  0  0  0  0  0  0  0  0  0  # atno 8008 bound_to 7997
  154.4508  140.0981  156.6665 H   0  0  0  0  0  0  0  0  0  0  0  0  # atno 8009 bound_to 7997
  155.5296  140.3458  155.4426 H   0  0  0  0  0  0  0  0  0  0  0  0  # atno 8010 bound_to 7997
  140.3670  144.2155  150.6135 H   0  0  0  0  0  0  0  0  0  0  0  0  # atno 10167 bound_to 10162
  156.3263  130.4273  149.7914 H   0  0  0  0  0  0  0  0  0  0  0  0  # atno 10718 bound_to 10713
  154.8596  135.3569  154.5619 H   0  0  0  0  0  0  0  0  0  0  0  0  # atno 10763 bound_to 10752
  153.6234  135.7005  153.5307 H   0  0  0  0  0  0  0  0  0  0  0  0  # atno 10764 bound_to 10752
  153.3110  135.4178  155.1295 H   0  0  0  0  0  0  0  0  0  0  0  0  # atno 10765 bound_to 10752
  140.0178  134.9410  157.0412 H   0  0  0  0  0  0  0  0  0  0  0  0  # atno 11005 bound_to 11000
  144.9942  140.8574  143.5321 LP  0  0  0  0  0  0  0  0  0  0  0  0  # atno 17320 bound_to 7965
  145.1811  139.2351  143.5292 LP  0  0  0  0  0  0  0  0  0  0  0  0  # atno 17321 bound_to 7965
  140.5071  143.2301  151.8591 LP  0  0  0  0  0  0  0  0  0  0  0  0  # atno 17342 bound_to 10162
  139.4808  144.4993  151.9082 LP  0  0  0  0  0  0  0  0  0  0  0  0  # atno 17343 bound_to 10162
  156.5203  130.8212  151.3201 LP  0  0  0  0  0  0  0  0  0  0  0  0  # atno 17370 bound_to 10713
  157.7422  130.9885  150.2498 LP  0  0  0  0  0  0  0  0  0  0  0  0  # atno 17371 bound_to 10713
  140.4440  134.1651  155.7176 LP  0  0  0  0  0  0  0  0  0  0  0  0  # atno 17394 bound_to 11000
  141.1754  133.8524  157.1437 LP  0  0  0  0  0  0  0  0  0  0  0  0  # atno 17395 bound_to 11000

$$$$
