AV-unprocessed.smi:2238|AV-procd|sdf|9054|dock1
  -GOLD-   2272012263D 1   1.00000     0.00000
 Structure written by MMmdl.
 38 39  0  0  0  0  0  0  0  0  1 V2000
  151.6025  144.7313  159.4488 C   0  0  0  0  0  0  0  0  0  0  0  0
  152.1734  143.3328  159.5635 C   0  0  0  0  0  0  0  0  0  0  0  0
  152.7729  142.9061  160.7648 C   0  0  0  0  0  0  0  0  0  0  0  0
  153.3005  141.6060  160.8624 C   0  0  0  0  0  0  0  0  0  0  0  0
  153.2324  140.7294  159.7622 C   0  0  0  0  0  0  0  0  0  0  0  0
  153.8904  139.1389  159.9083 Cl  0  0  0  0  0  0  0  0  0  0  0  0
  152.6367  141.1425  158.5500 C   0  0  0  0  0  0  0  0  0  0  0  0
  152.6088  140.2306  157.5160 O   0  0  0  0  0  0  0  0  0  0  0  0
  151.7314  140.4676  156.4219 C   0  0  0  0  0  0  0  0  0  0  0  0
  151.4398  139.1450  155.6920 C   0  0  2  0  0  0  0  0  0  0  0  0
  150.9872  139.4685  154.3926 O   0  0  0  0  0  0  0  0  0  0  0  0
  150.4034  138.2627  156.4252 C   0  0  0  0  0  0  0  0  0  0  0  0
  150.2862  136.9263  155.8191 N   0  0  0  0  0  0  0  0  0  0  0  0
  149.0001  136.5370  155.3946 C   0  0  0  0  0  0  0  0  0  0  0  0
  148.7819  135.3833  154.8474 N   0  0  0  0  0  0  0  0  0  0  0  0
  149.8437  134.4910  154.6709 C   0  0  0  0  0  0  0  0  0  0  0  0
  149.5272  133.1581  154.0243 C   0  0  0  0  0  0  0  0  0  0  0  0
  151.0957  134.8120  155.0717 C   0  0  0  0  0  0  0  0  0  0  0  0
  151.3705  136.1069  155.6953 C   0  0  0  0  0  0  0  0  0  0  0  0
  152.4936  136.4312  156.0810 O   0  0  0  0  0  0  0  0  0  0  0  0
  152.1067  142.4553  158.4620 C   0  0  0  0  0  0  0  0  0  0  0  0
  151.5165  145.2064  160.4266 H   0  0  0  0  0  0  0  0  0  0  0  0
  150.6096  144.7016  158.9992 H   0  0  0  0  0  0  0  0  0  0  0  0
  152.2452  145.3506  158.8230 H   0  0  0  0  0  0  0  0  0  0  0  0
  152.8307  143.5718  161.6136 H   0  0  0  0  0  0  0  0  0  0  0  0
  153.7595  141.2811  161.7848 H   0  0  0  0  0  0  0  0  0  0  0  0
  150.8022  140.9343  156.7538 H   0  0  0  0  0  0  0  0  0  0  0  0
  152.2149  141.1522  155.7230 H   0  0  0  0  0  0  0  0  0  0  0  0
  152.3831  138.6073  155.5846 H   0  0  0  0  0  0  0  0  0  0  0  0
  150.0530  139.6094  154.4251 H   0  0  0  0  0  0  0  0  0  0  0  0
  150.6993  138.1548  157.4708 H   0  0  0  0  0  0  0  0  0  0  0  0
  149.4349  138.7643  156.4750 H   0  0  0  0  0  0  0  0  0  0  0  0
  148.2089  137.2697  155.5626 H   0  0  0  0  0  0  0  0  0  0  0  0
  150.4170  132.7212  153.5697 H   0  0  0  0  0  0  0  0  0  0  0  0
  148.7742  133.2768  153.2446 H   0  0  0  0  0  0  0  0  0  0  0  0
  149.1439  132.4599  154.7686 H   0  0  0  0  0  0  0  0  0  0  0  0
  151.9056  134.1108  154.9332 H   0  0  0  0  0  0  0  0  0  0  0  0
  151.6424  142.8129  157.5556 H   0  0  0  0  0  0  0  0  0  0  0  0
  1  2  1  0  0  0  0
  1 22  1  0  0  0  0
  1 23  1  0  0  0  0
  1 24  1  0  0  0  0
  2 21  1  0  0  0  0
  2  3  2  0  0  0  0
  3  4  1  0  0  0  0
  3 25  1  0  0  0  0
  4  5  2  0  0  0  0
  4 26  1  0  0  0  0
  5  6  1  0  0  0  0
  5  7  1  0  0  0  0
  7  8  1  0  0  0  0
  7 21  2  0  0  0  0
  8  9  1  0  0  0  0
  9 10  1  0  0  0  0
  9 27  1  0  0  0  0
  9 28  1  0  0  0  0
 10 11  1  0  0  0  0
 10 12  1  0  0  0  0
 10 29  1  0  0  0  0
 11 30  1  0  0  0  0
 12 13  1  0  0  0  0
 12 31  1  0  0  0  0
 12 32  1  0  0  0  0
 13 19  1  0  0  0  0
 13 14  1  0  0  0  0
 14 15  2  0  0  0  0
 14 33  1  0  0  0  0
 15 16  1  0  0  0  0
 16 17  1  0  0  0  0
 16 18  2  0  0  0  0
 17 34  1  0  0  0  0
 17 35  1  0  0  0  0
 17 36  1  0  0  0  0
 18 19  1  0  0  0  0
 18 37  1  0  0  0  0
 19 20  2  0  0  0  0
 21 38  1  0  0  0  0
M  END
> <s_m_source_file>
AV-unprocessed.smi

> <i_m_source_file_index>
2238

> <i_lp_mmshare_version>
43012

> <i_f3d_flags>
0

> <s_epik_input>
W0NIM11jMVtjSF1bY0hdYyhDbCljKFtjSF0xKU9bQ0gyXVtDQEhdKFtPSF0pW0NIMl1uMltjSF1uYyhbQ0gzXSlbY0hdYzI9Tw==

> <s_epik_cmdline>
J2VwaWtfcHl0aG9uJywgJy1waCcsICc3LjAnLCAnLXRuJywgJzgnLCAnLW1hJywgJzIwMCcsICctbWV0YWxfYmluZGluZycsICctaW1hZScsICc8aW5maWxlLm1hZT4nLCAnLW9tYWUnLCAnPG91dGZpbGUubWFlPic=

> <r_lp_tautomer_probability>
1

> <r_epik_Ionization_Penalty>
1.78029e-05

> <r_epik_Ionization_Penalty_Charging>
3.78421e-08

> <r_epik_Ionization_Penalty_Neutral>
1.7765e-05

> <r_epik_State_Penalty>
-0

> <r_epik_Charging_Adjusted_Penalty>
3.78421e-08

> <i_epik_Tot_Q>
0

> <i_epik_Tot_abs_Q>
0

> <r_epik_Metal_State_Penalty>
-0

> <b_epik_Metal_Only>
0

> <s_lp_Force_Field>
OPLS_2005

> <r_lp_Energy>
23.6885

> <b_lp_Chiralities_Consistent>
1

> <s_lp_Variant>
AV-unprocessed.smi:2238-1

> <Gold.Version>
5.8.1

> <Gold.Id.Protein>
6NUR|6NUR_protein|mol2

> <Gold.PLP.Fitness>
48.7991

> <Gold.PLP.PLP>
-40.8073

> <Gold.PLP.part.hbond>
-3.0000

> <Gold.PLP.part.metal>
0.0000

> <Gold.PLP.part.buried>
-4.5835

> <Gold.PLP.part.nonpolar>
-32.2103

> <Gold.PLP.part.repulsive>
0.1285

> <Gold.PLP.ligand.clash>
0.0000

> <Gold.PLP.ligand.torsion>
0.5405

> <Gold.PLP.Chemscore.Hbond>
2.9833

> <Gold.PLP.Chemscore.CHOScore>
0.0000

> <Gold.PLP.Chemscore.Metal>
0.0000

> <Gold.Chemscore.Hbonds>
donor molecule, donor type, donor heavy atom, donor atom, acceptor molecule, acceptor atom, score
      P1  H  7989  7998       L1    11  1.00
      P1  H  7997  8009       L1     8  1.00
      P1  H 10752 10763       L1    20  0.80

> <Gold.PLP.Chemscore.Internal.Correction>
0.1228

> <Gold.Rescore>
     Score         DG    S(hbond)    S(metal)    S(lipo)     H(rot)  DE(clash)    DE(int)     intcor
     17.42     -19.15       2.15        0.00     109.46       2.47       0.00       1.72       ----

> <Gold.Chemscore.Fitness>
17.4196

> <Gold.Chemscore.DG>
-19.1472

> <Gold.Chemscore.ZeroCoef>
-5.4800

> <Gold.Chemscore.Hbond>
2.1523

> <Gold.Chemscore.Metal>
0.0000

> <Gold.Chemscore.Lipo>
109.4557

> <Gold.Chemscore.Internal_Hbond>
0.0000

> <Gold.Chemscore.DEClash>
0.0038

> <Gold.Chemscore.DEInternal>
1.7239

> <Gold.Chemscore.Rot>
2.4718

> <Gold.Chemscore.Internal.Correction>
   9.000000E+99

> <Gold.Chemscore.Hbonds>
donor molecule, donor type, donor heavy atom, donor atom, acceptor molecule, acceptor atom, score
      P1  H  7989  7998       L1    11  0.49
      P1  H  7997  8009       L1     8  0.35
      P1  H 10752 10763       L1    20  0.11

> <Gold.Chemscore.Hbond.Weighted>
-7.1888

> <Gold.Chemscore.Metal.Weighted>
-0.0000

> <Gold.Chemscore.Lipo.Weighted>
-12.8063

> <Gold.Chemscore.Internal_Hbond.Weighted>
0.0000

> <Gold.Chemscore.DEClash.Weighted>
0.0038

> <Gold.Chemscore.DEInternal.Weighted>
1.7239

> <Gold.Chemscore.Rot.Weighted>
6.3279

> <Gold.Chemscore.Internal.Correction.Weighted>
   9.000000E+99

> <Gold.Protein.RotatedTorsions>
[ 6907 6896 6895 6894 ] final  -54.67 input  -60.11 | X-H torsion
[ 7974 7965 7964 7962 ] final -170.30 input  175.53 | X-H torsion
[ 8008 7997 7996 7995 ] final  176.87 input   59.86 | X-H torsion
[ 10167 10162 10161 10158 ] final   82.51 input  -65.29 | X-H torsion
[ 10718 10713 10712 10709 ] final   20.40 input   66.30 | X-H torsion
[ 10763 10752 10751 10750 ] final   98.89 input  -60.55 | X-H torsion
[ 11005 11000 10999 10996 ] final  -48.05 input  -57.11 | X-H torsion

> <Gold.Protein.ActiveResidues>
 VAL166  LYS551  ARG553  GLY616  TRP617  ASP618  TYR619  PRO620  LYS621  CYS622 
 ASP623  PHE694  ASN695  SER759  ASP760  ASP761  ALA762  ILE779  LEU786  VAL792 
 PHE793  MET794  SER795  GLU796  ALA797  LYS798  CYS799  TRP800  GLU811  SER814 

> <Gold.Protein.RotatedAtoms>
  150.8318  134.7574  159.6859 H   0  0  0  0  0  0  0  0  0  0  0  0  # atno 6907 bound_to 6896
  152.4421  134.5567  159.9892 H   0  0  0  0  0  0  0  0  0  0  0  0  # atno 6908 bound_to 6896
  151.5726  133.3350  159.3028 H   0  0  0  0  0  0  0  0  0  0  0  0  # atno 6909 bound_to 6896
  144.7172  140.2092  143.6329 H   0  0  0  0  0  0  0  0  0  0  0  0  # atno 7974 bound_to 7965
  156.0718  140.1373  156.9819 H   0  0  0  0  0  0  0  0  0  0  0  0  # atno 8008 bound_to 7997
  154.4536  140.0970  156.6743 H   0  0  0  0  0  0  0  0  0  0  0  0  # atno 8009 bound_to 7997
  155.5215  140.3456  155.4410 H   0  0  0  0  0  0  0  0  0  0  0  0  # atno 8010 bound_to 7997
  139.9281  144.6170  150.8372 H   0  0  0  0  0  0  0  0  0  0  0  0  # atno 10167 bound_to 10162
  157.1240  130.6562  149.5932 H   0  0  0  0  0  0  0  0  0  0  0  0  # atno 10718 bound_to 10713
  153.2946  135.4132  155.1198 H   0  0  0  0  0  0  0  0  0  0  0  0  # atno 10763 bound_to 10752
  154.8531  135.3526  154.5935 H   0  0  0  0  0  0  0  0  0  0  0  0  # atno 10764 bound_to 10752
  153.6358  135.7059  153.5317 H   0  0  0  0  0  0  0  0  0  0  0  0  # atno 10765 bound_to 10752
  141.0678  133.6688  156.3385 H   0  0  0  0  0  0  0  0  0  0  0  0  # atno 11005 bound_to 11000
  145.8607  139.2221  143.1718 LP  0  0  0  0  0  0  0  0  0  0  0  0  # atno 17320 bound_to 7965
  146.0176  140.8378  142.9939 LP  0  0  0  0  0  0  0  0  0  0  0  0  # atno 17321 bound_to 7965
  140.7645  143.3250  151.2537 LP  0  0  0  0  0  0  0  0  0  0  0  0  # atno 17342 bound_to 10162
  139.6805  143.9862  152.2806 LP  0  0  0  0  0  0  0  0  0  0  0  0  # atno 17343 bound_to 10162
  155.9822  130.4834  150.6870 LP  0  0  0  0  0  0  0  0  0  0  0  0  # atno 17370 bound_to 10713
  157.4452  131.0866  151.0903 LP  0  0  0  0  0  0  0  0  0  0  0  0  # atno 17371 bound_to 10713
  140.5738  134.5814  157.5464 LP  0  0  0  0  0  0  0  0  0  0  0  0  # atno 17394 bound_to 11000
  139.9493  134.7646  156.0487 LP  0  0  0  0  0  0  0  0  0  0  0  0  # atno 17395 bound_to 11000

$$$$
