AV-unprocessed.smi:2426|AV-procd|sdf|9576|dock1
  -GOLD-   2272013203D 1   1.00000     0.00000
 Structure written by MMmdl.
 36 37  0  0  0  0  0  0  0  0  1 V2000
  153.2481  138.3570  154.9248 C   0  0  0  0  0  0  0  0  0  0  0  0
  152.6839  139.4103  155.6976 O   0  0  0  0  0  0  0  0  0  0  0  0
  151.3658  139.7491  155.4728 C   0  0  0  0  0  0  0  0  0  0  0  0
  150.5684  138.9188  154.6587 C   0  0  0  0  0  0  0  0  0  0  0  0
  149.2238  139.3017  154.4539 C   0  0  0  0  0  0  0  0  0  0  0  0
  148.4556  138.4381  153.6292 N   0  0  0  0  0  0  0  0  0  0  0  0
  147.1188  138.2986  153.5924 C   0  0  0  0  0  0  0  0  0  0  0  0
  146.3181  138.9229  154.2892 O   0  0  0  0  0  0  0  0  0  0  0  0
  146.7532  137.3781  152.6880 N   0  0  0  0  0  0  0  0  0  0  0  0
  145.3801  136.9825  152.3870 C   0  0  2  0  0  0  0  0  0  0  0  0
  144.7065  136.4050  153.6423 C   0  0  0  0  0  0  0  0  0  0  0  0
  145.3897  135.9855  151.2296 C   0  0  0  0  0  0  0  0  0  0  0  0
  144.0866  135.2918  150.8027 C   0  0  0  0  0  0  0  0  0  0  0  0
  144.9128  134.0457  150.4718 C   0  0  0  0  0  0  0  0  0  0  0  0
  145.9831  134.5819  151.4265 C   0  0  0  0  0  0  0  0  0  0  0  0
  148.7467  140.4316  155.0324 N   0  0  0  0  0  0  0  0  0  0  0  0
  149.5821  141.1492  155.7854 C   0  0  0  0  0  0  0  0  0  0  0  0
  150.8619  140.8726  156.0379 N   0  0  0  0  0  0  0  0  0  0  0  0
  154.2877  138.2112  155.2175 H   0  0  0  0  0  0  0  0  0  0  0  0
  153.2346  138.5919  153.8596 H   0  0  0  0  0  0  0  0  0  0  0  0
  152.7224  137.4157  155.0908 H   0  0  0  0  0  0  0  0  0  0  0  0
  150.9775  138.0247  154.2114 H   0  0  0  0  0  0  0  0  0  0  0  0
  148.9850  137.8586  152.9950 H   0  0  0  0  0  0  0  0  0  0  0  0
  147.4800  136.9144  152.1630 H   0  0  0  0  0  0  0  0  0  0  0  0
  144.8194  137.8672  152.0789 H   0  0  0  0  0  0  0  0  0  0  0  0
  143.6750  136.1180  153.4376 H   0  0  0  0  0  0  0  0  0  0  0  0
  144.6868  137.1344  154.4525 H   0  0  0  0  0  0  0  0  0  0  0  0
  145.2327  135.5206  154.0030 H   0  0  0  0  0  0  0  0  0  0  0  0
  145.8507  136.4287  150.3438 H   0  0  0  0  0  0  0  0  0  0  0  0
  143.3988  135.1316  151.6345 H   0  0  0  0  0  0  0  0  0  0  0  0
  143.5851  135.7481  149.9487 H   0  0  0  0  0  0  0  0  0  0  0  0
  144.4592  133.1019  150.7758 H   0  0  0  0  0  0  0  0  0  0  0  0
  145.2458  134.0214  149.4329 H   0  0  0  0  0  0  0  0  0  0  0  0
  147.0088  134.4675  151.0746 H   0  0  0  0  0  0  0  0  0  0  0  0
  145.8631  134.2093  152.4452 H   0  0  0  0  0  0  0  0  0  0  0  0
  149.1810  142.0452  156.2353 H   0  0  0  0  0  0  0  0  0  0  0  0
  1  2  1  0  0  0  0
  1 19  1  0  0  0  0
  1 20  1  0  0  0  0
  1 21  1  0  0  0  0
  2  3  1  0  0  0  0
  3 18  1  0  0  0  0
  3  4  2  0  0  0  0
  4  5  1  0  0  0  0
  4 22  1  0  0  0  0
  5  6  1  0  0  0  0
  5 16  2  0  0  0  0
  6  7  1  0  0  0  0
  6 23  1  0  0  0  0
  7  8  2  0  0  0  0
  7  9  1  0  0  0  0
  9 10  1  0  0  0  0
  9 24  1  0  0  0  0
 10 11  1  0  0  0  0
 10 12  1  0  0  0  0
 10 25  1  0  0  0  0
 11 26  1  0  0  0  0
 11 27  1  0  0  0  0
 11 28  1  0  0  0  0
 12 15  1  0  0  0  0
 12 13  1  0  0  0  0
 12 29  1  0  0  0  0
 13 14  1  0  0  0  0
 13 30  1  0  0  0  0
 13 31  1  0  0  0  0
 14 15  1  0  0  0  0
 14 32  1  0  0  0  0
 14 33  1  0  0  0  0
 15 34  1  0  0  0  0
 15 35  1  0  0  0  0
 16 17  1  0  0  0  0
 17 18  2  0  0  0  0
 17 36  1  0  0  0  0
M  END
> <s_m_source_file>
AV-unprocessed.smi

> <i_m_source_file_index>
2426

> <i_lp_mmshare_version>
43012

> <i_f3d_flags>
0

> <s_epik_input>
W0NIM11PYzFbY0hdYyhuW2NIXW4xKVtOSF1DKD1PKVtOSF1bQ0BIXShbQ0gzXSlbQ0hdMltDSDJdW0NIMl1bQ0gyXTI=

> <s_epik_cmdline>
J2VwaWtfcHl0aG9uJywgJy1waCcsICc3LjAnLCAnLXRuJywgJzgnLCAnLW1hJywgJzIwMCcsICctbWV0YWxfYmluZGluZycsICctaW1hZScsICc8aW5maWxlLm1hZT4nLCAnLW9tYWUnLCAnPG91dGZpbGUubWFlPic=

> <r_lp_tautomer_probability>
1

> <r_epik_Ionization_Penalty>
2.84534e-05

> <r_epik_Ionization_Penalty_Charging>
0

> <r_epik_Ionization_Penalty_Neutral>
2.84534e-05

> <r_epik_State_Penalty>
-0

> <r_epik_Charging_Adjusted_Penalty>
0

> <i_epik_Tot_Q>
0

> <i_epik_Tot_abs_Q>
0

> <r_epik_Metal_State_Penalty>
-0

> <b_epik_Metal_Only>
0

> <s_lp_Force_Field>
OPLS_2005

> <r_lp_Energy>
12.1235

> <b_lp_Chiralities_Consistent>
1

> <s_lp_Variant>
AV-unprocessed.smi:2426-1

> <Gold.Version>
5.8.1

> <Gold.Id.Protein>
6NUR|6NUR_protein|mol2

> <Gold.PLP.Fitness>
43.3213

> <Gold.PLP.PLP>
-31.8748

> <Gold.PLP.part.hbond>
-5.1200

> <Gold.PLP.part.metal>
0.0000

> <Gold.PLP.part.buried>
-0.2516

> <Gold.PLP.part.nonpolar>
-27.2831

> <Gold.PLP.part.repulsive>
0.4035

> <Gold.PLP.ligand.clash>
0.0000

> <Gold.PLP.ligand.torsion>
0.2707

> <Gold.PLP.Chemscore.Hbond>
2.9440

> <Gold.PLP.Chemscore.CHOScore>
1.0000

> <Gold.PLP.Chemscore.Metal>
0.0000

> <Gold.Chemscore.Hbonds>
donor molecule, donor type, donor heavy atom, donor atom, acceptor molecule, acceptor atom, score
      L1  H     6    23       P1  7948  0.93
      L1  H     9    24       P1  7948  1.00
      P1  H  7997  8008       L1     2  0.85
      L1  C    17    36       P1  8028  0.45

> <Gold.PLP.Chemscore.Internal.Correction>
0.1560

> <Gold.Rescore>
     Score         DG    S(hbond)    S(metal)    S(lipo)     H(rot)  DE(clash)    DE(int)     intcor
     12.60     -13.95       2.25        0.00      43.16       1.60       0.03       1.32       ----

> <Gold.Chemscore.Fitness>
12.5994

> <Gold.Chemscore.DG>
-13.9514

> <Gold.Chemscore.ZeroCoef>
-5.4800

> <Gold.Chemscore.Hbond>
2.2486

> <Gold.Chemscore.Metal>
0.0000

> <Gold.Chemscore.Lipo>
43.1608

> <Gold.Chemscore.Internal_Hbond>
0.0000

> <Gold.Chemscore.DEClash>
0.0310

> <Gold.Chemscore.DEInternal>
1.3210

> <Gold.Chemscore.Rot>
1.5971

> <Gold.Chemscore.Internal.Correction>
   9.000000E+99

> <Gold.Chemscore.Hbonds>
donor molecule, donor type, donor heavy atom, donor atom, acceptor molecule, acceptor atom, score
      L1  H     6    23       P1  7948  0.90
      L1  H     9    24       P1  7948  0.99
      P1  H  7997  8008       L1     2  0.15

> <Gold.Chemscore.Hbond.Weighted>
-7.5102

> <Gold.Chemscore.Metal.Weighted>
-0.0000

> <Gold.Chemscore.Lipo.Weighted>
-5.0498

> <Gold.Chemscore.Internal_Hbond.Weighted>
0.0000

> <Gold.Chemscore.DEClash.Weighted>
0.0310

> <Gold.Chemscore.DEInternal.Weighted>
1.3210

> <Gold.Chemscore.Rot.Weighted>
4.0886

> <Gold.Chemscore.Internal.Correction.Weighted>
   9.000000E+99

> <Gold.Protein.RotatedTorsions>
[ 6907 6896 6895 6894 ] final -117.80 input  -60.11 | X-H torsion
[ 7974 7965 7964 7962 ] final -164.18 input  175.53 | X-H torsion
[ 8008 7997 7996 7995 ] final  -45.21 input   59.86 | X-H torsion
[ 10167 10162 10161 10158 ] final   85.97 input  -65.29 | X-H torsion
[ 10718 10713 10712 10709 ] final    0.40 input   66.30 | X-H torsion
[ 10763 10752 10751 10750 ] final   -1.98 input  -60.55 | X-H torsion
[ 11005 11000 10999 10996 ] final  111.25 input  -57.11 | X-H torsion

> <Gold.Protein.ActiveResidues>
 VAL166  LYS551  ARG553  GLY616  TRP617  ASP618  TYR619  PRO620  LYS621  CYS622 
 ASP623  PHE694  ASN695  SER759  ASP760  ASP761  ALA762  ILE779  LEU786  VAL792 
 PHE793  MET794  SER795  GLU796  ALA797  LYS798  CYS799  TRP800  GLU811  SER814 

> <Gold.Protein.RotatedAtoms>
  150.8167  133.8325  159.3157 H   0  0  0  0  0  0  0  0  0  0  0  0  # atno 6907 bound_to 6896
  151.6095  135.1039  160.0087 H   0  0  0  0  0  0  0  0  0  0  0  0  # atno 6908 bound_to 6896
  152.4258  133.7152  159.6558 H   0  0  0  0  0  0  0  0  0  0  0  0  # atno 6909 bound_to 6896
  144.7304  140.2999  143.6206 H   0  0  0  0  0  0  0  0  0  0  0  0  # atno 7974 bound_to 7965
  154.4000  140.1402  156.3810 H   0  0  0  0  0  0  0  0  0  0  0  0  # atno 8008 bound_to 7997
  155.8003  140.3476  155.5378 H   0  0  0  0  0  0  0  0  0  0  0  0  # atno 8009 bound_to 7997
  155.8490  140.0938  157.1677 H   0  0  0  0  0  0  0  0  0  0  0  0  # atno 8010 bound_to 7997
  139.8923  144.6378  150.8725 H   0  0  0  0  0  0  0  0  0  0  0  0  # atno 10167 bound_to 10162
  156.8328  130.5494  149.5685 H   0  0  0  0  0  0  0  0  0  0  0  0  # atno 10718 bound_to 10713
  153.3520  135.6986  153.6780 H   0  0  0  0  0  0  0  0  0  0  0  0  # atno 10763 bound_to 10752
  153.5503  135.3555  155.2757 H   0  0  0  0  0  0  0  0  0  0  0  0  # atno 10764 bound_to 10752
  154.8655  135.4225  154.2758 H   0  0  0  0  0  0  0  0  0  0  0  0  # atno 10765 bound_to 10752
  139.8899  134.9503  156.6403 H   0  0  0  0  0  0  0  0  0  0  0  0  # atno 11005 bound_to 11000
  145.7771  139.1878  143.2179 LP  0  0  0  0  0  0  0  0  0  0  0  0  # atno 17320 bound_to 7965
  146.0864  140.7706  142.9616 LP  0  0  0  0  0  0  0  0  0  0  0  0  # atno 17321 bound_to 7965
  140.7724  143.3500  151.2033 LP  0  0  0  0  0  0  0  0  0  0  0  0  # atno 17342 bound_to 10162
  139.7098  143.9395  152.2943 LP  0  0  0  0  0  0  0  0  0  0  0  0  # atno 17343 bound_to 10162
  156.0924  130.5906  150.9756 LP  0  0  0  0  0  0  0  0  0  0  0  0  # atno 17370 bound_to 10713
  157.6397  131.0911  150.8276 LP  0  0  0  0  0  0  0  0  0  0  0  0  # atno 17371 bound_to 10713
  140.7599  133.8826  155.8410 LP  0  0  0  0  0  0  0  0  0  0  0  0  # atno 17394 bound_to 11000
  140.9931  134.1252  157.4389 LP  0  0  0  0  0  0  0  0  0  0  0  0  # atno 17395 bound_to 11000

$$$$
