AV-unprocessed.smi:1723|AV-procd|sdf|6948|dock1
  -GOLD-   22720 8153D 1   1.00000     0.00000
 Structure written by MMmdl.
 37 37  0  0  0  0  0  0  0  0  2 V2000
  147.3646  136.7227  163.1344 C   0  0  0  0  0  0  0  0  0  0  0  0
  146.8495  135.6170  162.2069 C   0  0  0  0  0  0  0  0  0  0  0  0
  146.7997  136.0575  160.7371 C   0  0  0  0  0  0  0  0  0  0  0  0
  148.1917  136.3172  160.1498 C   0  0  0  0  0  0  0  0  0  0  0  0
  148.0357  136.8975  158.8634 O   0  0  0  0  0  0  0  0  0  0  0  0
  149.1677  136.7769  158.0102 C   0  0  1  0  0  0  0  0  0  0  0  0
  148.8474  137.2595  156.5809 C   0  0  0  0  0  0  0  0  0  0  0  0
  150.3028  137.5928  158.6411 C   0  0  0  0  0  0  0  0  0  0  0  0
  150.9951  137.0902  159.5267 O   0  0  0  0  0  0  0  0  0  0  0  0
  150.4446  138.8440  158.1605 N   0  0  0  0  0  0  0  0  0  0  0  0
  151.3775  139.8362  158.5081 C   0  0  0  0  0  0  0  0  0  0  0  0
  151.0736  141.1445  158.7343 C   0  0  0  0  0  0  0  0  0  0  0  0
  152.0847  142.1285  159.1002 C   0  0  0  0  0  0  0  0  0  0  0  0
  151.8005  143.6122  159.2529 C   0  0  0  0  0  0  0  0  0  0  0  0
  152.4778  144.3250  158.3528 F   0  0  0  0  0  0  0  0  0  0  0  0
  150.5010  143.8683  159.1010 F   0  0  0  0  0  0  0  0  0  0  0  0
  152.1656  144.0218  160.4668 F   0  0  0  0  0  0  0  0  0  0  0  0
  153.3482  141.5763  159.1805 C   0  0  0  0  0  0  0  0  0  0  0  0
  153.7282  140.2917  159.0048 N   0  5  0  0  0  0  0  0  0  0  0  0
  152.7748  139.3805  158.6603 C   0  0  0  0  0  0  0  0  0  0  0  0
  153.0534  138.1951  158.4761 O   0  0  0  0  0  0  0  0  0  0  0  0
  147.3889  136.3816  164.1693 H   0  0  0  0  0  0  0  0  0  0  0  0
  146.7247  137.6045  163.0896 H   0  0  0  0  0  0  0  0  0  0  0  0
  148.3749  137.0272  162.8604 H   0  0  0  0  0  0  0  0  0  0  0  0
  147.4895  134.7395  162.3053 H   0  0  0  0  0  0  0  0  0  0  0  0
  145.8545  135.3109  162.5312 H   0  0  0  0  0  0  0  0  0  0  0  0
  146.2965  135.2930  160.1441 H   0  0  0  0  0  0  0  0  0  0  0  0
  146.1977  136.9625  160.6484 H   0  0  0  0  0  0  0  0  0  0  0  0
  148.7506  136.9916  160.8001 H   0  0  0  0  0  0  0  0  0  0  0  0
  148.7462  135.3809  160.0871 H   0  0  0  0  0  0  0  0  0  0  0  0
  149.4858  135.7331  157.9685 H   0  0  0  0  0  0  0  0  0  0  0  0
  149.7507  137.3151  155.9722 H   0  0  0  0  0  0  0  0  0  0  0  0
  148.3882  138.2486  156.5873 H   0  0  0  0  0  0  0  0  0  0  0  0
  148.1646  136.5799  156.0722 H   0  0  0  0  0  0  0  0  0  0  0  0
  149.7607  139.1391  157.4789 H   0  0  0  0  0  0  0  0  0  0  0  0
  150.0574  141.4961  158.6679 H   0  0  0  0  0  0  0  0  0  0  0  0
  154.1808  142.2735  159.4146 H   0  0  0  0  0  0  0  0  0  0  0  0
  1  2  1  0  0  0  0
  1 22  1  0  0  0  0
  1 23  1  0  0  0  0
  1 24  1  0  0  0  0
  2  3  1  0  0  0  0
  2 25  1  0  0  0  0
  2 26  1  0  0  0  0
  3  4  1  0  0  0  0
  3 27  1  0  0  0  0
  3 28  1  0  0  0  0
  4  5  1  0  0  0  0
  4 29  1  0  0  0  0
  4 30  1  0  0  0  0
  5  6  1  0  0  0  0
  6  7  1  0  0  0  0
  6  8  1  0  0  0  0
  6 31  1  0  0  0  0
  7 32  1  0  0  0  0
  7 33  1  0  0  0  0
  7 34  1  0  0  0  0
  8  9  2  0  0  0  0
  8 10  1  0  0  0  0
 10 11  1  0  0  0  0
 10 35  1  0  0  0  0
 11 20  1  0  0  0  0
 11 12  2  0  0  0  0
 12 13  1  0  0  0  0
 12 36  1  0  0  0  0
 13 14  1  0  0  0  0
 13 18  2  0  0  0  0
 14 15  1  0  0  0  0
 14 16  1  0  0  0  0
 14 17  1  0  0  0  0
 18 19  1  0  0  0  0
 18 37  1  0  0  0  0
 19 20  1  0  0  0  0
 20 21  2  0  0  0  0
M  CHG  1  19  -1
M  END
> <s_m_source_file>
AV-unprocessed.smi

> <i_m_source_file_index>
1723

> <i_lp_mmshare_version>
43012

> <i_f3d_flags>
0

> <s_epik_input>
W0NIM11bQ0gyXVtDSDJdW0NIMl1PW0NASF0oW0NIM10pQyg9TylbTkhdYzFbY0hdYyhDKEYpKEYpRilbY0hdW25IXWMxPU8=

> <s_epik_cmdline>
J2VwaWtfcHl0aG9uJywgJy1waCcsICc3LjAnLCAnLXRuJywgJzgnLCAnLW1hJywgJzIwMCcsICctbWV0YWxfYmluZGluZycsICctaW1hZScsICc8aW5maWxlLm1hZT4nLCAnLW9tYWUnLCAnPG91dGZpbGUubWFlPic=

> <r_lp_tautomer_probability>
0.999

> <r_epik_Ionization_Penalty>
2.64397

> <r_epik_Ionization_Penalty_Charging>
0.0618254

> <r_epik_Ionization_Penalty_Neutral>
2.58215

> <r_epik_State_Penalty>
2.58023

> <r_epik_Charging_Adjusted_Penalty>
2.64205

> <i_epik_Tot_Q>
-1

> <i_epik_Tot_abs_Q>
1

> <r_epik_Metal_State_Penalty>
0.429101

> <b_epik_Metal_Only>
1

> <s_lp_Force_Field>
OPLS_2005

> <r_lp_Energy>
21.9007

> <b_lp_Chiralities_Consistent>
1

> <s_lp_Variant>
AV-unprocessed.smi:1723-4

> <Gold.Version>
5.8.1

> <Gold.Id.Protein>
6NUR|6NUR_protein|mol2

> <Gold.PLP.Fitness>
45.1958

> <Gold.PLP.PLP>
-40.7166

> <Gold.PLP.part.hbond>
-2.0000

> <Gold.PLP.part.metal>
0.0000

> <Gold.PLP.part.buried>
-4.4698

> <Gold.PLP.part.nonpolar>
-33.9120

> <Gold.PLP.part.repulsive>
0.1018

> <Gold.PLP.ligand.clash>
0.0380

> <Gold.PLP.ligand.torsion>
1.2382

> <Gold.PLP.Chemscore.Hbond>
2.1981

> <Gold.PLP.Chemscore.CHOScore>
0.0000

> <Gold.PLP.Chemscore.Metal>
0.0000

> <Gold.Chemscore.Hbonds>
donor molecule, donor type, donor heavy atom, donor atom, acceptor molecule, acceptor atom, score
      P1  H  6896  6908       L1     9  1.00
      P1  H  7997  8009       L1    19  0.96

> <Gold.PLP.Chemscore.Internal.Correction>
0.3994

> <Gold.Rescore>
     Score         DG    S(hbond)    S(metal)    S(lipo)     H(rot)  DE(clash)    DE(int)     intcor
      8.61     -13.90       1.32        0.00      77.15       1.95       0.30       5.00       ----

> <Gold.Chemscore.Fitness>
8.6070

> <Gold.Chemscore.DG>
-13.9047

> <Gold.Chemscore.ZeroCoef>
-5.4800

> <Gold.Chemscore.Hbond>
1.3151

> <Gold.Chemscore.Metal>
0.0000

> <Gold.Chemscore.Lipo>
77.1455

> <Gold.Chemscore.Internal_Hbond>
0.0000

> <Gold.Chemscore.DEClash>
0.2963

> <Gold.Chemscore.DEInternal>
5.0014

> <Gold.Chemscore.Rot>
1.9507

> <Gold.Chemscore.Internal.Correction>
   9.000000E+99

> <Gold.Chemscore.Hbonds>
donor molecule, donor type, donor heavy atom, donor atom, acceptor molecule, acceptor atom, score
      P1  H  6896  6908       L1     9  0.95
      P1  H  7997  8009       L1    19  0.10

> <Gold.Chemscore.Hbond.Weighted>
-4.3926

> <Gold.Chemscore.Metal.Weighted>
-0.0000

> <Gold.Chemscore.Lipo.Weighted>
-9.0260

> <Gold.Chemscore.Internal_Hbond.Weighted>
0.0000

> <Gold.Chemscore.DEClash.Weighted>
0.2963

> <Gold.Chemscore.DEInternal.Weighted>
5.0014

> <Gold.Chemscore.Rot.Weighted>
4.9939

> <Gold.Chemscore.Internal.Correction.Weighted>
   9.000000E+99

> <Gold.Protein.RotatedTorsions>
[ 6907 6896 6895 6894 ] final -138.32 input  -60.11 | X-H torsion
[ 7974 7965 7964 7962 ] final   22.68 input  175.53 | X-H torsion
[ 8008 7997 7996 7995 ] final  119.73 input   59.86 | X-H torsion
[ 10167 10162 10161 10158 ] final   98.05 input  -65.29 | X-H torsion
[ 10718 10713 10712 10709 ] final -179.80 input   66.30 | X-H torsion
[ 10763 10752 10751 10750 ] final   89.60 input  -60.55 | X-H torsion
[ 11005 11000 10999 10996 ] final  104.16 input  -57.11 | X-H torsion

> <Gold.Protein.ActiveResidues>
 VAL166  LYS551  ARG553  GLY616  TRP617  ASP618  TYR619  PRO620  LYS621  CYS622 
 ASP623  PHE694  ASN695  SER759  ASP760  ASP761  ALA762  ILE779  LEU786  VAL792 
 PHE793  MET794  SER795  GLU796  ALA797  LYS798  CYS799  TRP800  GLU811  SER814 

> <Gold.Protein.RotatedAtoms>
  151.0335  133.5769  159.2658 H   0  0  0  0  0  0  0  0  0  0  0  0  # atno 6907 bound_to 6896
  151.2842  135.0722  159.9190 H   0  0  0  0  0  0  0  0  0  0  0  0  # atno 6908 bound_to 6896
  152.5350  134.0044  159.7964 H   0  0  0  0  0  0  0  0  0  0  0  0  # atno 6909 bound_to 6896
  146.2018  139.7851  142.8756 H   0  0  0  0  0  0  0  0  0  0  0  0  # atno 7974 bound_to 7965
  156.2609  140.2846  156.1037 H   0  0  0  0  0  0  0  0  0  0  0  0  # atno 8008 bound_to 7997
  155.1332  140.0394  157.2797 H   0  0  0  0  0  0  0  0  0  0  0  0  # atno 8009 bound_to 7997
  154.6584  140.2561  155.7142 H   0  0  0  0  0  0  0  0  0  0  0  0  # atno 8010 bound_to 7997
  139.7744  144.6911  151.0110 H   0  0  0  0  0  0  0  0  0  0  0  0  # atno 10167 bound_to 10162
  156.8645  130.9763  151.3080 H   0  0  0  0  0  0  0  0  0  0  0  0  # atno 10718 bound_to 10713
  153.1888  135.4464  155.0122 H   0  0  0  0  0  0  0  0  0  0  0  0  # atno 10763 bound_to 10752
  154.8077  135.3281  154.7390 H   0  0  0  0  0  0  0  0  0  0  0  0  # atno 10764 bound_to 10752
  153.7847  135.6975  153.4937 H   0  0  0  0  0  0  0  0  0  0  0  0  # atno 10765 bound_to 10752
  139.8789  134.9290  156.5320 H   0  0  0  0  0  0  0  0  0  0  0  0  # atno 11005 bound_to 11000
  145.3457  141.0297  143.3367 LP  0  0  0  0  0  0  0  0  0  0  0  0  # atno 17320 bound_to 7965
  144.8701  139.5051  143.6772 LP  0  0  0  0  0  0  0  0  0  0  0  0  # atno 17321 bound_to 7965
  140.7815  143.4552  151.0355 LP  0  0  0  0  0  0  0  0  0  0  0  0  # atno 17342 bound_to 10162
  139.8235  143.7788  152.3178 LP  0  0  0  0  0  0  0  0  0  0  0  0  # atno 17343 bound_to 10162
  157.6231  130.8670  149.9143 LP  0  0  0  0  0  0  0  0  0  0  0  0  # atno 17370 bound_to 10713
  156.0759  130.3679  150.0679 LP  0  0  0  0  0  0  0  0  0  0  0  0  # atno 17371 bound_to 10713
  140.8374  133.8232  155.9041 LP  0  0  0  0  0  0  0  0  0  0  0  0  # atno 17394 bound_to 11000
  140.9271  134.2069  157.4889 LP  0  0  0  0  0  0  0  0  0  0  0  0  # atno 17395 bound_to 11000

$$$$
