AV-unprocessed.smi:3298|AV-procd|sdf|12646|dock9
  -GOLD-   2272018583D 1   1.00000     0.00000
 Structure written by MMmdl.
 36 37  0  0  0  0  0  0  0  0  2 V2000
  146.2490  143.2008  154.1079 C   0  0  0  0  0  0  0  0  0  0  0  0
  147.1727  142.0011  154.1208 C   0  0  0  0  0  0  0  0  0  0  0  0
  146.8005  140.7575  153.5661 C   0  0  0  0  0  0  0  0  0  0  0  0
  147.7158  139.6738  153.6049 C   0  0  0  0  0  0  0  0  0  0  0  0
  147.4480  138.3750  153.0884 N   0  0  0  0  0  0  0  0  0  0  0  0
  146.2922  137.6875  153.0693 C   0  0  0  0  0  0  0  0  0  0  0  0
  145.2147  138.0879  153.5084 O   0  0  0  0  0  0  0  0  0  0  0  0
  146.4520  136.4885  152.4905 N   0  0  0  0  0  0  0  0  0  0  0  0
  145.3974  135.4947  152.3130 C   0  0  2  0  0  0  0  0  0  0  0  0
  145.8334  134.1373  152.7973 C   0  0  0  0  0  0  0  0  0  0  0  0
  145.8160  133.2188  151.8342 C   0  0  0  0  0  0  0  0  0  0  0  0
  145.3881  133.7749  150.5011 C   0  0  1  0  0  0  0  0  0  0  0  0
  144.2034  132.9957  149.9053 C   0  0  0  0  0  0  0  0  0  0  0  0
  143.7947  133.5822  148.6877 O   0  0  0  0  0  0  0  0  0  0  0  0
  145.0716  135.2613  150.8168 C   0  0  0  0  0  0  0  0  0  0  0  0
  148.9713  139.8766  154.2201 C   0  0  0  0  0  0  0  0  0  0  0  0
  149.2883  141.1398  154.7590 C   0  0  0  0  0  0  0  0  0  0  0  0
  148.3899  142.1446  154.6891 N   0  3  0  0  0  0  0  0  0  0  0  0
  144.4948  135.7931  152.8495 H   0  0  0  0  0  0  0  0  0  0  0  0
  146.2458  133.7109  149.8302 H   0  0  0  0  0  0  0  0  0  0  0  0
  145.3017  142.9632  153.6229 H   0  0  0  0  0  0  0  0  0  0  0  0
  146.7086  144.0286  153.5672 H   0  0  0  0  0  0  0  0  0  0  0  0
  146.0368  143.5284  155.1261 H   0  0  0  0  0  0  0  0  0  0  0  0
  145.8179  140.6611  153.1320 H   0  0  0  0  0  0  0  0  0  0  0  0
  148.2309  137.9233  152.6387 H   0  0  0  0  0  0  0  0  0  0  0  0
  147.3699  136.2388  152.1527 H   0  0  0  0  0  0  0  0  0  0  0  0
  146.1133  133.9549  153.8245 H   0  0  0  0  0  0  0  0  0  0  0  0
  146.0901  132.1820  151.9623 H   0  0  0  0  0  0  0  0  0  0  0  0
  144.4883  131.9612  149.7108 H   0  0  0  0  0  0  0  0  0  0  0  0
  143.3610  132.9741  150.5979 H   0  0  0  0  0  0  0  0  0  0  0  0
  144.5647  133.8466  148.2075 H   0  0  0  0  0  0  0  0  0  0  0  0
  144.0201  135.4859  150.6324 H   0  0  0  0  0  0  0  0  0  0  0  0
  145.6473  135.9204  150.1652 H   0  0  0  0  0  0  0  0  0  0  0  0
  149.6914  139.0730  154.2776 H   0  0  0  0  0  0  0  0  0  0  0  0
  150.2262  141.3746  155.2407 H   0  0  0  0  0  0  0  0  0  0  0  0
  148.6392  143.0513  155.0853 H   0  0  0  0  0  0  0  0  0  0  0  0
  1  2  1  0  0  0  0
  1 21  1  0  0  0  0
  1 22  1  0  0  0  0
  1 23  1  0  0  0  0
  2 18  1  0  0  0  0
  2  3  2  0  0  0  0
  3  4  1  0  0  0  0
  3 24  1  0  0  0  0
  4  5  1  0  0  0  0
  4 16  2  0  0  0  0
  5  6  1  0  0  0  0
  5 25  1  0  0  0  0
  6  7  2  0  0  0  0
  6  8  1  0  0  0  0
  8  9  1  0  0  0  0
  8 26  1  0  0  0  0
  9 19  1  0  0  0  0
  9 15  1  0  0  0  0
  9 10  1  0  0  0  0
 10 11  2  0  0  0  0
 10 27  1  0  0  0  0
 11 12  1  0  0  0  0
 11 28  1  0  0  0  0
 12 20  1  0  0  0  0
 12 13  1  0  0  0  0
 12 15  1  0  0  0  0
 13 14  1  0  0  0  0
 13 29  1  0  0  0  0
 13 30  1  0  0  0  0
 14 31  1  0  0  0  0
 15 32  1  0  0  0  0
 15 33  1  0  0  0  0
 16 17  1  0  0  0  0
 16 34  1  0  0  0  0
 17 18  2  0  0  0  0
 17 35  1  0  0  0  0
 18 36  1  0  0  0  0
M  CHG  1  18   1
M  END
> <s_m_source_file>
AV-unprocessed.smi

> <i_m_source_file_index>
3298

> <i_lp_mmshare_version>
43012

> <i_f3d_flags>
0

> <s_epik_input>
W0NIM11jMVtjSF1jKFtjSF1bY0hdbjEpW05IXUMoPU8pW05IXVtDQEBIXTJbQ0hdPVtDSF1bQ0BASF0oW0NIMl0yKVtDSDJdW09IXQ==

> <s_epik_cmdline>
J2VwaWtfcHl0aG9uJywgJy1waCcsICc3LjAnLCAnLXRuJywgJzgnLCAnLW1hJywgJzIwMCcsICctbWV0YWxfYmluZGluZycsICctaW1hZScsICc8aW5maWxlLm1hZT4nLCAnLW9tYWUnLCAnPG91dGZpbGUubWFlPic=

> <r_epik_Ionization_Penalty>
0.443901

> <r_epik_Ionization_Penalty_Charging>
0.443881

> <r_epik_Ionization_Penalty_Neutral>
1.94967e-05

> <r_epik_State_Penalty>
0.446172

> <r_epik_Charging_Adjusted_Penalty>
0.890053

> <i_epik_Tot_Q>
1

> <i_epik_Tot_abs_Q>
1

> <r_epik_Metal_State_Penalty>
0.675842

> <b_epik_Metal_Only>
0

> <s_lp_Force_Field>
OPLS_2005

> <r_lp_Energy>
27.4169

> <b_lp_Chiralities_Consistent>
1

> <s_lp_Variant>
AV-unprocessed.smi:3298-7

> <Gold.Version>
5.8.1

> <Gold.Id.Protein>
6NUR|6NUR_protein|mol2

> <Gold.PLP.Fitness>
49.8339

> <Gold.PLP.PLP>
-35.5848

> <Gold.PLP.part.hbond>
-5.0118

> <Gold.PLP.part.metal>
0.0000

> <Gold.PLP.part.buried>
-4.3889

> <Gold.PLP.part.nonpolar>
-27.6792

> <Gold.PLP.part.repulsive>
1.2235

> <Gold.PLP.ligand.clash>
0.0000

> <Gold.PLP.ligand.torsion>
0.3222

> <Gold.PLP.Chemscore.Hbond>
4.9600

> <Gold.PLP.Chemscore.CHOScore>
0.0000

> <Gold.PLP.Chemscore.Metal>
0.0000

> <Gold.Chemscore.Hbonds>
donor molecule, donor type, donor heavy atom, donor atom, acceptor molecule, acceptor atom, score
      L1  H     5    25       P1  7948  0.94
      L1  H     8    26       P1  7948  1.00
      L1  H    14    31       P1  7921  1.00
      L1  H    18    36       P1  8028  2.00

> <Gold.PLP.Chemscore.Internal.Correction>
0.0134

> <Gold.Rescore>
     Score         DG    S(hbond)    S(metal)    S(lipo)     H(rot)  DE(clash)    DE(int)     intcor
     22.15     -22.64       3.89        0.00      75.03       1.81       0.18       0.31       ----

> <Gold.Chemscore.Fitness>
22.1514

> <Gold.Chemscore.DG>
-22.6429

> <Gold.Chemscore.ZeroCoef>
-5.4800

> <Gold.Chemscore.Hbond>
3.8946

> <Gold.Chemscore.Metal>
0.0000

> <Gold.Chemscore.Lipo>
75.0310

> <Gold.Chemscore.Internal_Hbond>
0.0000

> <Gold.Chemscore.DEClash>
0.1814

> <Gold.Chemscore.DEInternal>
0.3101

> <Gold.Chemscore.Rot>
1.8061

> <Gold.Chemscore.Internal.Correction>
   9.000000E+99

> <Gold.Chemscore.Hbonds>
donor molecule, donor type, donor heavy atom, donor atom, acceptor molecule, acceptor atom, score
      L1  H     5    25       P1  7948  0.90
      L1  H     8    26       P1  7948  0.98
      L1  H    14    31       P1  7921  0.99
      L1  H    18    36       P1  8028  1.00

> <Gold.Chemscore.Hbond.Weighted>
-13.0079

> <Gold.Chemscore.Metal.Weighted>
-0.0000

> <Gold.Chemscore.Lipo.Weighted>
-8.7786

> <Gold.Chemscore.Internal_Hbond.Weighted>
0.0000

> <Gold.Chemscore.DEClash.Weighted>
0.1814

> <Gold.Chemscore.DEInternal.Weighted>
0.3101

> <Gold.Chemscore.Rot.Weighted>
4.6237

> <Gold.Chemscore.Internal.Correction.Weighted>
   9.000000E+99

> <Gold.Protein.RotatedTorsions>
[ 6907 6896 6895 6894 ] final  149.99 input  -60.11 | X-H torsion
[ 7974 7965 7964 7962 ] final  -23.72 input  175.53 | X-H torsion
[ 8008 7997 7996 7995 ] final   93.61 input   59.86 | X-H torsion
[ 10167 10162 10161 10158 ] final   83.44 input  -65.29 | X-H torsion
[ 10718 10713 10712 10709 ] final   46.18 input   66.30 | X-H torsion
[ 10763 10752 10751 10750 ] final -133.38 input  -60.55 | X-H torsion
[ 11005 11000 10999 10996 ] final -142.83 input  -57.11 | X-H torsion

> <Gold.Protein.ActiveResidues>
 VAL166  LYS551  ARG553  GLY616  TRP617  ASP618  TYR619  PRO620  LYS621  CYS622 
 ASP623  PHE694  ASN695  SER759  ASP760  ASP761  ALA762  ILE779  LEU786  VAL792 
 PHE793  MET794  SER795  GLU796  ALA797  LYS798  CYS799  TRP800  GLU811  SER814 

> <Gold.Protein.RotatedAtoms>
  152.1205  133.4351  159.4673 H   0  0  0  0  0  0  0  0  0  0  0  0  # atno 6907 bound_to 6896
  150.6871  134.2540  159.4531 H   0  0  0  0  0  0  0  0  0  0  0  0  # atno 6908 bound_to 6896
  152.0417  134.9707  160.0624 H   0  0  0  0  0  0  0  0  0  0  0  0  # atno 6909 bound_to 6896
  146.1599  140.4655  142.8576 H   0  0  0  0  0  0  0  0  0  0  0  0  # atno 7974 bound_to 7965
  156.0487  140.3310  155.7325 H   0  0  0  0  0  0  0  0  0  0  0  0  # atno 8008 bound_to 7997
  155.5635  140.0621  157.2841 H   0  0  0  0  0  0  0  0  0  0  0  0  # atno 8009 bound_to 7997
  154.4425  140.1873  156.0795 H   0  0  0  0  0  0  0  0  0  0  0  0  # atno 8010 bound_to 7997
  139.9183  144.6228  150.8466 H   0  0  0  0  0  0  0  0  0  0  0  0  # atno 10167 bound_to 10162
  157.4454  130.8106  149.7735 H   0  0  0  0  0  0  0  0  0  0  0  0  # atno 10718 bound_to 10713
  154.8733  135.3768  154.4563 H   0  0  0  0  0  0  0  0  0  0  0  0  # atno 10763 bound_to 10752
  153.5235  135.7028  153.5724 H   0  0  0  0  0  0  0  0  0  0  0  0  # atno 10764 bound_to 10752
  153.3961  135.3960  155.1921 H   0  0  0  0  0  0  0  0  0  0  0  0  # atno 10765 bound_to 10752
  140.8186  134.2658  157.4910 H   0  0  0  0  0  0  0  0  0  0  0  0  # atno 11005 bound_to 11000
  144.8012  140.6217  143.6477 LP  0  0  0  0  0  0  0  0  0  0  0  0  # atno 17320 bound_to 7965
  145.4616  139.1512  143.3863 LP  0  0  0  0  0  0  0  0  0  0  0  0  # atno 17321 bound_to 7965
  140.7668  143.3315  151.2400 LP  0  0  0  0  0  0  0  0  0  0  0  0  # atno 17342 bound_to 10162
  139.6883  143.9735  152.2846 LP  0  0  0  0  0  0  0  0  0  0  0  0  # atno 17343 bound_to 10162
  155.9965  130.3905  150.2776 LP  0  0  0  0  0  0  0  0  0  0  0  0  # atno 17370 bound_to 10713
  157.0944  131.0178  151.3109 LP  0  0  0  0  0  0  0  0  0  0  0  0  # atno 17371 bound_to 10713
  139.8710  134.9523  156.4110 LP  0  0  0  0  0  0  0  0  0  0  0  0  # atno 17394 bound_to 11000
  140.9123  133.7703  155.9806 LP  0  0  0  0  0  0  0  0  0  0  0  0  # atno 17395 bound_to 11000

$$$$
