AV-unprocessed.smi:3133|AV-procd|sdf|11937|dock2
  -GOLD-   2272017323D 1   1.00000     0.00000
 Structure written by MMmdl.
 32 33  0  0  0  0  0  0  0  0  1 V2000
  150.7386  137.7629  158.5715 C   0  0  0  0  0  0  0  0  0  0  0  0
  152.0851  137.9647  157.8463 C   0  0  2  0  0  0  0  0  0  0  0  0
  152.9397  139.0852  158.4638 C   0  0  0  0  0  0  0  0  0  0  0  0
  154.1241  139.2179  158.1533 O   0  0  0  0  0  0  0  0  0  0  0  0
  152.3165  139.8950  159.3353 N   0  0  0  0  0  0  0  0  0  0  0  0
  152.9294  141.0149  160.0423 C   0  0  0  0  0  0  0  0  0  0  0  0
  152.1522  142.3232  159.8211 C   0  0  2  0  0  0  0  0  0  0  0  0
  152.9071  143.4034  159.0435 C   0  0  0  0  0  0  0  0  0  0  0  0
  152.2378  144.6627  159.5429 C   0  0  0  0  0  0  0  0  0  0  0  0
  152.0287  144.3320  161.0169 C   0  0  0  0  0  0  0  0  0  0  0  0
  151.8317  142.9214  161.0750 O   0  0  0  0  0  0  0  0  0  0  0  0
  151.9045  138.1861  156.4162 N   0  0  0  0  0  0  0  0  0  0  0  0
  151.5654  139.2954  155.7559 C   0  0  0  0  0  0  0  0  0  0  0  0
  151.4480  139.1286  154.4460 N   0  0  0  0  0  0  0  0  0  0  0  0
  151.7402  137.7970  154.3590 C   0  0  0  0  0  0  0  0  0  0  0  0
  152.0129  137.1825  155.5099 N   0  0  0  0  0  0  0  0  0  0  0  0
  150.8896  137.5373  159.6278 H   0  0  0  0  0  0  0  0  0  0  0  0
  150.1852  136.9301  158.1369 H   0  0  0  0  0  0  0  0  0  0  0  0
  150.1040  138.6479  158.5098 H   0  0  0  0  0  0  0  0  0  0  0  0
  152.6518  137.0388  157.9575 H   0  0  0  0  0  0  0  0  0  0  0  0
  151.3422  139.7173  159.5307 H   0  0  0  0  0  0  0  0  0  0  0  0
  152.9326  140.7715  161.1049 H   0  0  0  0  0  0  0  0  0  0  0  0
  153.9756  141.1382  159.7572 H   0  0  0  0  0  0  0  0  0  0  0  0
  151.2088  142.1127  159.3147 H   0  0  0  0  0  0  0  0  0  0  0  0
  153.9627  143.4110  159.3189 H   0  0  0  0  0  0  0  0  0  0  0  0
  152.8366  143.2796  157.9626 H   0  0  0  0  0  0  0  0  0  0  0  0
  152.8368  145.5603  159.3869 H   0  0  0  0  0  0  0  0  0  0  0  0
  151.2762  144.7992  159.0463 H   0  0  0  0  0  0  0  0  0  0  0  0
  152.9221  144.5797  161.5914 H   0  0  0  0  0  0  0  0  0  0  0  0
  151.1864  144.8719  161.4501 H   0  0  0  0  0  0  0  0  0  0  0  0
  151.3962  140.2440  156.2439 H   0  0  0  0  0  0  0  0  0  0  0  0
  151.7468  137.2638  153.4197 H   0  0  0  0  0  0  0  0  0  0  0  0
  1  2  1  0  0  0  0
  1 17  1  0  0  0  0
  1 18  1  0  0  0  0
  1 19  1  0  0  0  0
  2  3  1  0  0  0  0
  2 12  1  0  0  0  0
  2 20  1  0  0  0  0
  3  4  2  0  0  0  0
  3  5  1  0  0  0  0
  5  6  1  0  0  0  0
  5 21  1  0  0  0  0
  6  7  1  0  0  0  0
  6 22  1  0  0  0  0
  6 23  1  0  0  0  0
  7 11  1  0  0  0  0
  7  8  1  0  0  0  0
  7 24  1  0  0  0  0
  8  9  1  0  0  0  0
  8 25  1  0  0  0  0
  8 26  1  0  0  0  0
  9 10  1  0  0  0  0
  9 27  1  0  0  0  0
  9 28  1  0  0  0  0
 10 11  1  0  0  0  0
 10 29  1  0  0  0  0
 10 30  1  0  0  0  0
 12 16  1  0  0  0  0
 12 13  1  0  0  0  0
 13 14  2  0  0  0  0
 13 31  1  0  0  0  0
 14 15  1  0  0  0  0
 15 16  2  0  0  0  0
 15 32  1  0  0  0  0
M  END
> <s_m_source_file>
AV-unprocessed.smi

> <i_m_source_file_index>
3133

> <i_lp_mmshare_version>
43012

> <i_f3d_flags>
0

> <s_epik_input>
bjFbY0hdbltjSF1uMVtDQEhdKFtDSDNdKUMoPU8pW05IXVtDSDJdW0NAQEhdMltDSDJdW0NIMl1bQ0gyXU8y

> <s_epik_cmdline>
J2VwaWtfcHl0aG9uJywgJy1waCcsICc3LjAnLCAnLXRuJywgJzgnLCAnLW1hJywgJzIwMCcsICctbWV0YWxfYmluZGluZycsICctaW1hZScsICc8aW5maWxlLm1hZT4nLCAnLW9tYWUnLCAnPG91dGZpbGUubWFlPic=

> <r_lp_tautomer_probability>
1

> <r_epik_Ionization_Penalty>
1.2027e-05

> <r_epik_Ionization_Penalty_Charging>
0

> <r_epik_Ionization_Penalty_Neutral>
1.2027e-05

> <r_epik_State_Penalty>
-0

> <r_epik_Charging_Adjusted_Penalty>
0

> <i_epik_Tot_Q>
0

> <i_epik_Tot_abs_Q>
0

> <r_epik_Metal_State_Penalty>
-0

> <b_epik_Metal_Only>
0

> <s_lp_Force_Field>
OPLS_2005

> <r_lp_Energy>
23.5717

> <b_lp_Chiralities_Consistent>
1

> <s_lp_Variant>
AV-unprocessed.smi:3133-1

> <Gold.Version>
5.8.1

> <Gold.Id.Protein>
6NUR|6NUR_protein|mol2

> <Gold.PLP.Fitness>
40.9476

> <Gold.PLP.PLP>
-32.1991

> <Gold.PLP.part.hbond>
-3.5465

> <Gold.PLP.part.metal>
0.0000

> <Gold.PLP.part.buried>
-4.5212

> <Gold.PLP.part.nonpolar>
-25.7065

> <Gold.PLP.part.repulsive>
0.3963

> <Gold.PLP.ligand.clash>
0.0000

> <Gold.PLP.ligand.torsion>
1.4221

> <Gold.PLP.Chemscore.Hbond>
2.8251

> <Gold.PLP.Chemscore.CHOScore>
1.0000

> <Gold.PLP.Chemscore.Metal>
0.0000

> <Gold.Chemscore.Hbonds>
donor molecule, donor type, donor heavy atom, donor atom, acceptor molecule, acceptor atom, score
      P1  H  6933  6945       L1    11  0.01
      P1  H  7989  7998       L1    14  1.00
      P1  H  7997  8008       L1     4  0.83
      P1  H 10752 10763       L1    16  0.93
      L1  C    15    32       P1  7949  1.00

> <Gold.PLP.Chemscore.Internal.Correction>
0.1174

> <Gold.Rescore>
     Score         DG    S(hbond)    S(metal)    S(lipo)     H(rot)  DE(clash)    DE(int)     intcor
     15.46     -17.01       2.99        0.00      62.46       2.26       0.00       1.54       ----

> <Gold.Chemscore.Fitness>
15.4637

> <Gold.Chemscore.DG>
-17.0094

> <Gold.Chemscore.ZeroCoef>
-5.4800

> <Gold.Chemscore.Hbond>
2.9928

> <Gold.Chemscore.Metal>
0.0000

> <Gold.Chemscore.Lipo>
62.4627

> <Gold.Chemscore.Internal_Hbond>
0.0000

> <Gold.Chemscore.DEClash>
0.0029

> <Gold.Chemscore.DEInternal>
1.5428

> <Gold.Chemscore.Rot>
2.2558

> <Gold.Chemscore.Internal.Correction>
   9.000000E+99

> <Gold.Chemscore.Hbonds>
donor molecule, donor type, donor heavy atom, donor atom, acceptor molecule, acceptor atom, score
      P1  H  6933  6945       L1    11  0.03
      P1  H  7989  7998       L1    14  0.76
      P1  H  7997  8008       L1     4  0.79
      P1  H 10752 10763       L1    16  0.21

> <Gold.Chemscore.Hbond.Weighted>
-9.9960

> <Gold.Chemscore.Metal.Weighted>
-0.0000

> <Gold.Chemscore.Lipo.Weighted>
-7.3081

> <Gold.Chemscore.Internal_Hbond.Weighted>
0.0000

> <Gold.Chemscore.DEClash.Weighted>
0.0029

> <Gold.Chemscore.DEInternal.Weighted>
1.5428

> <Gold.Chemscore.Rot.Weighted>
5.7747

> <Gold.Chemscore.Internal.Correction.Weighted>
   9.000000E+99

> <Gold.Protein.RotatedTorsions>
[ 6907 6896 6895 6894 ] final  161.18 input  -60.11 | X-H torsion
[ 7974 7965 7964 7962 ] final  150.74 input  175.53 | X-H torsion
[ 8008 7997 7996 7995 ] final -125.43 input   59.86 | X-H torsion
[ 10167 10162 10161 10158 ] final   82.22 input  -65.29 | X-H torsion
[ 10718 10713 10712 10709 ] final -159.09 input   66.30 | X-H torsion
[ 10763 10752 10751 10750 ] final   73.12 input  -60.55 | X-H torsion
[ 11005 11000 10999 10996 ] final   83.76 input  -57.11 | X-H torsion

> <Gold.Protein.ActiveResidues>
 VAL166  LYS551  ARG553  GLY616  TRP617  ASP618  TYR619  PRO620  LYS621  CYS622 
 ASP623  PHE694  ASN695  SER759  ASP760  ASP761  ALA762  ILE779  LEU786  VAL792 
 PHE793  MET794  SER795  GLU796  ALA797  LYS798  CYS799  TRP800  GLU811  SER814 

> <Gold.Protein.RotatedAtoms>
  151.9595  133.3691  159.4029 H   0  0  0  0  0  0  0  0  0  0  0  0  # atno 6907 bound_to 6896
  150.6966  134.4255  159.5234 H   0  0  0  0  0  0  0  0  0  0  0  0  # atno 6908 bound_to 6896
  152.1942  134.8645  160.0565 H   0  0  0  0  0  0  0  0  0  0  0  0  # atno 6909 bound_to 6896
  144.8342  139.6448  143.6045 H   0  0  0  0  0  0  0  0  0  0  0  0  # atno 7974 bound_to 7965
  155.2132  140.0419  157.2936 H   0  0  0  0  0  0  0  0  0  0  0  0  # atno 8008 bound_to 7997
  154.5998  140.2449  155.7779 H   0  0  0  0  0  0  0  0  0  0  0  0  # atno 8009 bound_to 7997
  156.2313  140.2937  156.0206 H   0  0  0  0  0  0  0  0  0  0  0  0  # atno 8010 bound_to 7997
  139.9310  144.6152  150.8345 H   0  0  0  0  0  0  0  0  0  0  0  0  # atno 10167 bound_to 10162
  156.5632  130.8656  151.2816 H   0  0  0  0  0  0  0  0  0  0  0  0  # atno 10718 bound_to 10713
  153.0501  135.5074  154.7846 H   0  0  0  0  0  0  0  0  0  0  0  0  # atno 10763 bound_to 10752
  154.6715  135.2954  154.9738 H   0  0  0  0  0  0  0  0  0  0  0  0  # atno 10764 bound_to 10752
  154.0555  135.6698  153.4858 H   0  0  0  0  0  0  0  0  0  0  0  0  # atno 10765 bound_to 10752
  139.9021  134.8168  156.2353 H   0  0  0  0  0  0  0  0  0  0  0  0  # atno 11005 bound_to 11000
  146.2642  139.6481  142.9341 LP  0  0  0  0  0  0  0  0  0  0  0  0  # atno 17320 bound_to 7965
  145.4830  141.0438  143.2635 LP  0  0  0  0  0  0  0  0  0  0  0  0  # atno 17321 bound_to 7965
  140.7637  143.3230  151.2579 LP  0  0  0  0  0  0  0  0  0  0  0  0  # atno 17342 bound_to 10162
  139.6782  143.9900  152.2793 LP  0  0  0  0  0  0  0  0  0  0  0  0  # atno 17343 bound_to 10162
  157.7364  130.9778  150.2134 LP  0  0  0  0  0  0  0  0  0  0  0  0  # atno 17370 bound_to 10713
  156.2780  130.3730  149.7964 LP  0  0  0  0  0  0  0  0  0  0  0  0  # atno 17371 bound_to 10713
  141.0319  133.6984  156.1445 LP  0  0  0  0  0  0  0  0  0  0  0  0  # atno 17394 bound_to 11000
  140.7084  134.4489  157.5583 LP  0  0  0  0  0  0  0  0  0  0  0  0  # atno 17395 bound_to 11000

$$$$
