AV-unprocessed.smi:2489|AV-procd|sdf|9795|dock2
  -GOLD-   2272013433D 1   1.00000     0.00000
 Structure written by MMmdl.
 33 34  0  0  0  0  0  0  0  0  1 V2000
  146.8167  139.1913  152.6301 C   0  0  0  0  0  0  0  0  0  0  0  0
  147.2096  140.4389  153.1826 O   0  0  0  0  0  0  0  0  0  0  0  0
  148.3096  140.4593  154.0124 C   0  0  0  0  0  0  0  0  0  0  0  0
  149.2697  139.4432  153.8488 C   0  0  0  0  0  0  0  0  0  0  0  0
  150.4032  139.4411  154.6812 C   0  0  0  0  0  0  0  0  0  0  0  0
  150.6200  140.3692  155.6347 N   0  0  0  0  0  0  0  0  0  0  0  0
  149.7089  141.3570  155.8112 C   0  0  0  0  0  0  0  0  0  0  0  0
  149.8400  142.3842  156.7832 N   0  0  0  0  0  0  0  0  0  0  0  0
  150.3279  142.2946  158.0346 C   0  0  0  0  0  0  0  0  0  0  0  0
  150.7321  141.2522  158.5521 O   0  0  0  0  0  0  0  0  0  0  0  0
  150.3370  143.6106  158.8308 C   0  0  2  0  0  0  0  0  0  0  0  0
  151.3773  144.6425  158.3477 C   0  0  0  0  0  0  0  0  0  0  0  0
  152.3103  144.8227  159.5345 C   0  0  0  0  0  0  0  0  0  0  0  0
  152.0830  143.5566  160.3539 C   0  0  1  0  0  0  0  0  0  0  0  0
  152.4278  143.6987  161.8401 C   0  0  0  0  0  0  0  0  0  0  0  0
  150.6919  143.3263  160.1825 O   0  0  0  0  0  0  0  0  0  0  0  0
  148.5417  141.4319  155.0172 C   0  0  0  0  0  0  0  0  0  0  0  0
  145.9359  139.3359  152.0046 H   0  0  0  0  0  0  0  0  0  0  0  0
  146.5530  138.4753  153.4097 H   0  0  0  0  0  0  0  0  0  0  0  0
  147.6019  138.7688  152.0019 H   0  0  0  0  0  0  0  0  0  0  0  0
  149.1401  138.6780  153.0977 H   0  0  0  0  0  0  0  0  0  0  0  0
  151.1566  138.6742  154.5780 H   0  0  0  0  0  0  0  0  0  0  0  0
  149.5269  143.2992  156.4937 H   0  0  0  0  0  0  0  0  0  0  0  0
  149.3382  144.0503  158.8217 H   0  0  0  0  0  0  0  0  0  0  0  0
  151.9347  144.3004  157.4746 H   0  0  0  0  0  0  0  0  0  0  0  0
  150.9076  145.5875  158.0735 H   0  0  0  0  0  0  0  0  0  0  0  0
  153.3520  144.9554  159.2412 H   0  0  0  0  0  0  0  0  0  0  0  0
  152.0062  145.7008  160.1061 H   0  0  0  0  0  0  0  0  0  0  0  0
  152.6405  142.7249  159.9197 H   0  0  0  0  0  0  0  0  0  0  0  0
  153.4881  143.9116  161.9764 H   0  0  0  0  0  0  0  0  0  0  0  0
  152.2001  142.7799  162.3807 H   0  0  0  0  0  0  0  0  0  0  0  0
  151.8604  144.5065  162.3030 H   0  0  0  0  0  0  0  0  0  0  0  0
  147.8421  142.2357  155.1915 H   0  0  0  0  0  0  0  0  0  0  0  0
  1  2  1  0  0  0  0
  1 18  1  0  0  0  0
  1 19  1  0  0  0  0
  1 20  1  0  0  0  0
  2  3  1  0  0  0  0
  3 17  1  0  0  0  0
  3  4  2  0  0  0  0
  4  5  1  0  0  0  0
  4 21  1  0  0  0  0
  5  6  2  0  0  0  0
  5 22  1  0  0  0  0
  6  7  1  0  0  0  0
  7  8  1  0  0  0  0
  7 17  2  0  0  0  0
  8  9  1  0  0  0  0
  8 23  1  0  0  0  0
  9 10  2  0  0  0  0
  9 11  1  0  0  0  0
 11 16  1  0  0  0  0
 11 12  1  0  0  0  0
 11 24  1  0  0  0  0
 12 13  1  0  0  0  0
 12 25  1  0  0  0  0
 12 26  1  0  0  0  0
 13 14  1  0  0  0  0
 13 27  1  0  0  0  0
 13 28  1  0  0  0  0
 14 15  1  0  0  0  0
 14 16  1  0  0  0  0
 14 29  1  0  0  0  0
 15 30  1  0  0  0  0
 15 31  1  0  0  0  0
 15 32  1  0  0  0  0
 17 33  1  0  0  0  0
M  END
> <s_m_source_file>
AV-unprocessed.smi

> <i_m_source_file_index>
2489

> <i_lp_mmshare_version>
43012

> <i_f3d_flags>
0

> <s_epik_input>
W0NIM11PYzFbY0hdW2NIXW5jKFtjSF0xKVtOSF1DKD1PKVtDQEBIXTJbQ0gyXVtDSDJdW0NASF0oTzIpW0NIM10=

> <s_epik_cmdline>
J2VwaWtfcHl0aG9uJywgJy1waCcsICc3LjAnLCAnLXRuJywgJzgnLCAnLW1hJywgJzIwMCcsICctbWV0YWxfYmluZGluZycsICctaW1hZScsICc8aW5maWxlLm1hZT4nLCAnLW9tYWUnLCAnPG91dGZpbGUubWFlPic=

> <r_epik_Ionization_Penalty>
0.0871917

> <r_epik_Ionization_Penalty_Charging>
0

> <r_epik_Ionization_Penalty_Neutral>
0.0871917

> <r_epik_State_Penalty>
0.146479

> <r_epik_Charging_Adjusted_Penalty>
0.146479

> <i_epik_Tot_Q>
0

> <i_epik_Tot_abs_Q>
0

> <r_epik_Metal_State_Penalty>
0.067489

> <b_epik_Metal_Only>
0

> <s_lp_Force_Field>
OPLS_2005

> <r_lp_Energy>
22.5644

> <b_lp_Chiralities_Consistent>
1

> <s_lp_Variant>
AV-unprocessed.smi:2489-1

> <Gold.Version>
5.8.1

> <Gold.Id.Protein>
6NUR|6NUR_protein|mol2

> <Gold.PLP.Fitness>
37.6507

> <Gold.PLP.PLP>
-36.2229

> <Gold.PLP.part.hbond>
-2.0590

> <Gold.PLP.part.metal>
0.0000

> <Gold.PLP.part.buried>
-2.4083

> <Gold.PLP.part.nonpolar>
-31.7944

> <Gold.PLP.part.repulsive>
0.3203

> <Gold.PLP.ligand.clash>
0.0000

> <Gold.PLP.ligand.torsion>
0.7981

> <Gold.PLP.Chemscore.Hbond>
1.0000

> <Gold.PLP.Chemscore.CHOScore>
0.0000

> <Gold.PLP.Chemscore.Metal>
0.0000

> <Gold.Chemscore.Hbonds>
donor molecule, donor type, donor heavy atom, donor atom, acceptor molecule, acceptor atom, score
      L1  H     8    23       P1  8028  1.00

> <Gold.PLP.Chemscore.Internal.Correction>
0.0240

> <Gold.Rescore>
     Score         DG    S(hbond)    S(metal)    S(lipo)     H(rot)  DE(clash)    DE(int)     intcor
     13.77     -16.87       1.00        0.00      95.67       1.23       1.40       1.71       ----

> <Gold.Chemscore.Fitness>
13.7673

> <Gold.Chemscore.DG>
-16.8735

> <Gold.Chemscore.ZeroCoef>
-5.4800

> <Gold.Chemscore.Hbond>
0.9998

> <Gold.Chemscore.Metal>
0.0000

> <Gold.Chemscore.Lipo>
95.6719

> <Gold.Chemscore.Internal_Hbond>
0.0000

> <Gold.Chemscore.DEClash>
1.4008

> <Gold.Chemscore.DEInternal>
1.7055

> <Gold.Chemscore.Rot>
1.2264

> <Gold.Chemscore.Internal.Correction>
   9.000000E+99

> <Gold.Chemscore.Hbonds>
donor molecule, donor type, donor heavy atom, donor atom, acceptor molecule, acceptor atom, score
      L1  H     8    23       P1  8028  1.00

> <Gold.Chemscore.Hbond.Weighted>
-3.3395

> <Gold.Chemscore.Metal.Weighted>
-0.0000

> <Gold.Chemscore.Lipo.Weighted>
-11.1936

> <Gold.Chemscore.Internal_Hbond.Weighted>
0.0000

> <Gold.Chemscore.DEClash.Weighted>
1.4008

> <Gold.Chemscore.DEInternal.Weighted>
1.7055

> <Gold.Chemscore.Rot.Weighted>
3.1396

> <Gold.Chemscore.Internal.Correction.Weighted>
   9.000000E+99

> <Gold.Protein.RotatedTorsions>
[ 6907 6896 6895 6894 ] final  103.45 input  -60.11 | X-H torsion
[ 7974 7965 7964 7962 ] final   48.35 input  175.53 | X-H torsion
[ 8008 7997 7996 7995 ] final   -9.48 input   59.86 | X-H torsion
[ 10167 10162 10161 10158 ] final  155.44 input  -65.29 | X-H torsion
[ 10718 10713 10712 10709 ] final  110.13 input   66.30 | X-H torsion
[ 10763 10752 10751 10750 ] final  -25.94 input  -60.55 | X-H torsion
[ 11005 11000 10999 10996 ] final  156.60 input  -57.11 | X-H torsion

> <Gold.Protein.ActiveResidues>
 VAL166  LYS551  ARG553  GLY616  TRP617  ASP618  TYR619  PRO620  LYS621  CYS622 
 ASP623  PHE694  ASN695  SER759  ASP760  ASP761  ALA762  ILE779  LEU786  VAL792 
 PHE793  MET794  SER795  GLU796  ALA797  LYS798  CYS799  TRP800  GLU811  SER814 

> <Gold.Protein.RotatedAtoms>
  152.5295  133.9824  159.7812 H   0  0  0  0  0  0  0  0  0  0  0  0  # atno 6907 bound_to 6896
  151.0075  133.5989  159.2694 H   0  0  0  0  0  0  0  0  0  0  0  0  # atno 6908 bound_to 6896
  151.3075  135.0792  159.9314 H   0  0  0  0  0  0  0  0  0  0  0  0  # atno 6909 bound_to 6896
  146.0212  139.4654  142.9896 H   0  0  0  0  0  0  0  0  0  0  0  0  # atno 7974 bound_to 7965
  154.5643  140.2354  155.8287 H   0  0  0  0  0  0  0  0  0  0  0  0  # atno 8008 bound_to 7997
  156.2055  140.3041  155.9577 H   0  0  0  0  0  0  0  0  0  0  0  0  # atno 8009 bound_to 7997
  155.2830  140.0423  157.3007 H   0  0  0  0  0  0  0  0  0  0  0  0  # atno 8010 bound_to 7997
  139.4821  144.5098  151.8042 H   0  0  0  0  0  0  0  0  0  0  0  0  # atno 10167 bound_to 10162
  157.6509  131.0927  150.6557 H   0  0  0  0  0  0  0  0  0  0  0  0  # atno 10718 bound_to 10713
  153.7080  135.6952  153.5045 H   0  0  0  0  0  0  0  0  0  0  0  0  # atno 10763 bound_to 10752
  153.2294  135.4343  155.0577 H   0  0  0  0  0  0  0  0  0  0  0  0  # atno 10764 bound_to 10752
  154.8324  135.3480  154.6617 H   0  0  0  0  0  0  0  0  0  0  0  0  # atno 10765 bound_to 10752
  140.1690  134.8556  157.2667 H   0  0  0  0  0  0  0  0  0  0  0  0  # atno 11005 bound_to 11000
  145.7189  141.0081  143.1413 LP  0  0  0  0  0  0  0  0  0  0  0  0  # atno 17320 bound_to 7965
  144.6991  139.8847  143.7449 LP  0  0  0  0  0  0  0  0  0  0  0  0  # atno 17321 bound_to 7965
  140.4600  144.1736  150.5905 LP  0  0  0  0  0  0  0  0  0  0  0  0  # atno 17342 bound_to 10162
  140.4495  143.2492  151.9367 LP  0  0  0  0  0  0  0  0  0  0  0  0  # atno 17343 bound_to 10162
  156.6868  130.4583  149.5611 LP  0  0  0  0  0  0  0  0  0  0  0  0  # atno 17370 bound_to 10713
  156.1890  130.6547  151.1039 LP  0  0  0  0  0  0  0  0  0  0  0  0  # atno 17371 bound_to 10713
  140.2400  134.3807  155.7485 LP  0  0  0  0  0  0  0  0  0  0  0  0  # atno 17394 bound_to 11000
  141.2216  133.7260  156.8774 LP  0  0  0  0  0  0  0  0  0  0  0  0  # atno 17395 bound_to 11000

$$$$
