AV-unprocessed.smi:2747|AV-procd|sdf|10580|dock7
  -GOLD-   2272015 33D 1   1.00000     0.00000
 Structure written by MMmdl.
 23 24  0  0  0  0  0  0  0  0  2 V2000
  153.5546  139.0948  155.2177 O   0  5  0  0  0  0  0  0  0  0  0  0
  152.9302  138.5376  156.2285 C   0  0  1  0  0  0  0  0  0  0  0  0
  152.2908  139.6759  157.0714 C   0  0  0  0  0  0  0  0  0  0  0  0
  153.0231  140.0179  158.2888 N   0  0  0  0  0  0  0  0  0  0  0  0
  154.0569  139.2265  158.7038 N   0  0  0  0  0  0  0  0  0  0  0  0
  154.5328  139.7070  159.8140 N   0  0  0  0  0  0  0  0  0  0  0  0
  153.7954  140.8314  160.1447 C   0  0  0  0  0  0  0  0  0  0  0  0
  153.8772  141.7237  161.2370 C   0  0  0  0  0  0  0  0  0  0  0  0
  152.9817  142.8112  161.3397 C   0  0  0  0  0  0  0  0  0  0  0  0
  153.1127  143.8792  162.6918 Cl  0  0  0  0  0  0  0  0  0  0  0  0
  151.9926  143.0185  160.3481 C   0  0  0  0  0  0  0  0  0  0  0  0
  150.8895  144.3439  160.4581 Cl  0  0  0  0  0  0  0  0  0  0  0  0
  151.8989  142.1357  159.2543 C   0  0  0  0  0  0  0  0  0  0  0  0
  152.7996  141.0602  159.1709 C   0  0  0  0  0  0  0  0  0  0  0  0
  151.8492  137.5919  155.6509 C   0  0  0  0  0  0  0  0  0  0  0  0
  152.4041  136.6984  154.8297 F   0  0  0  0  0  0  0  0  0  0  0  0
  151.2630  136.9221  156.6443 F   0  0  0  0  0  0  0  0  0  0  0  0
  150.9066  138.2676  154.9890 F   0  0  0  0  0  0  0  0  0  0  0  0
  153.4890  137.9300  156.9424 H   0  0  0  0  0  0  0  0  0  0  0  0
  152.1897  140.5831  156.4734 H   0  0  0  0  0  0  0  0  0  0  0  0
  151.2759  139.3976  157.3587 H   0  0  0  0  0  0  0  0  0  0  0  0
  154.6283  141.5700  161.9978 H   0  0  0  0  0  0  0  0  0  0  0  0
  151.1524  142.2824  158.4875 H   0  0  0  0  0  0  0  0  0  0  0  0
  1  2  1  0  0  0  0
  2  3  1  0  0  0  0
  2 15  1  0  0  0  0
  2 19  1  0  0  0  0
  3  4  1  0  0  0  0
  3 20  1  0  0  0  0
  3 21  1  0  0  0  0
  4 14  1  0  0  0  0
  4  5  1  0  0  0  0
  5  6  2  0  0  0  0
  6  7  1  0  0  0  0
  7 14  2  0  0  0  0
  7  8  1  0  0  0  0
  8  9  2  0  0  0  0
  8 22  1  0  0  0  0
  9 10  1  0  0  0  0
  9 11  1  0  0  0  0
 11 12  1  0  0  0  0
 11 13  2  0  0  0  0
 13 14  1  0  0  0  0
 13 23  1  0  0  0  0
 15 16  1  0  0  0  0
 15 17  1  0  0  0  0
 15 18  1  0  0  0  0
M  CHG  1   1  -1
M  END
> <s_m_source_file>
AV-unprocessed.smi

> <i_m_source_file_index>
2747

> <i_lp_mmshare_version>
43012

> <i_f3d_flags>
0

> <s_epik_input>
RkMoRikoRilbQ0BIXShbT0hdKVtDSDJdbihubjEpYyhjMTIpW2NIXWMoQ2wpYyhDbClbY0hdMg==

> <s_epik_cmdline>
J2VwaWtfcHl0aG9uJywgJy1waCcsICc3LjAnLCAnLXRuJywgJzgnLCAnLW1hJywgJzIwMCcsICctbWV0YWxfYmluZGluZycsICctaW1hZScsICc8aW5maWxlLm1hZT4nLCAnLW9tYWUnLCAnPG91dGZpbGUubWFlPic=

> <r_lp_tautomer_probability>
1

> <r_epik_Ionization_Penalty>
1.2724

> <r_epik_Ionization_Penalty_Charging>
1.2724

> <r_epik_Ionization_Penalty_Neutral>
1.57383e-10

> <r_epik_State_Penalty>
1.34397

> <r_epik_Charging_Adjusted_Penalty>
2.61637

> <i_epik_Tot_Q>
-1

> <i_epik_Tot_abs_Q>
1

> <r_epik_Metal_State_Penalty>
1.34397

> <b_epik_Metal_Only>
0

> <s_lp_Force_Field>
OPLS_2005

> <r_lp_Energy>
12.5023

> <b_lp_Chiralities_Consistent>
1

> <s_lp_Variant>
AV-unprocessed.smi:2747-4

> <Gold.Version>
5.8.1

> <Gold.Id.Protein>
6NUR|6NUR_protein|mol2

> <Gold.PLP.Fitness>
48.2910

> <Gold.PLP.PLP>
-40.8462

> <Gold.PLP.part.hbond>
-3.0000

> <Gold.PLP.part.metal>
0.0000

> <Gold.PLP.part.buried>
-0.7548

> <Gold.PLP.part.nonpolar>
-34.9772

> <Gold.PLP.part.repulsive>
0.0298

> <Gold.PLP.ligand.clash>
0.0000

> <Gold.PLP.ligand.torsion>
0.6958

> <Gold.PLP.Chemscore.Hbond>
2.9418

> <Gold.PLP.Chemscore.CHOScore>
0.0000

> <Gold.PLP.Chemscore.Metal>
0.0000

> <Gold.Chemscore.Hbonds>
donor molecule, donor type, donor heavy atom, donor atom, acceptor molecule, acceptor atom, score
      P1  H  7997  8008       L1     5  0.20
      P1  H  7997  8009       L1     1  1.50

> <Gold.PLP.Chemscore.Internal.Correction>
0.0112

> <Gold.Rescore>
     Score         DG    S(hbond)    S(metal)    S(lipo)     H(rot)  DE(clash)    DE(int)     intcor
     14.95     -15.72       0.63        0.00      99.07       1.35       0.04       0.73       ----

> <Gold.Chemscore.Fitness>
14.9505

> <Gold.Chemscore.DG>
-15.7191

> <Gold.Chemscore.ZeroCoef>
-5.4800

> <Gold.Chemscore.Hbond>
0.6281

> <Gold.Chemscore.Metal>
0.0000

> <Gold.Chemscore.Lipo>
99.0664

> <Gold.Chemscore.Internal_Hbond>
0.0000

> <Gold.Chemscore.DEClash>
0.0432

> <Gold.Chemscore.DEInternal>
0.7255

> <Gold.Chemscore.Rot>
1.3474

> <Gold.Chemscore.Internal.Correction>
   9.000000E+99

> <Gold.Chemscore.Hbonds>
donor molecule, donor type, donor heavy atom, donor atom, acceptor molecule, acceptor atom, score
      P1  H  7997  8009       L1     1  0.70

> <Gold.Chemscore.Hbond.Weighted>
-2.0977

> <Gold.Chemscore.Metal.Weighted>
-0.0000

> <Gold.Chemscore.Lipo.Weighted>
-11.5908

> <Gold.Chemscore.Internal_Hbond.Weighted>
0.0000

> <Gold.Chemscore.DEClash.Weighted>
0.0432

> <Gold.Chemscore.DEInternal.Weighted>
0.7255

> <Gold.Chemscore.Rot.Weighted>
3.4494

> <Gold.Chemscore.Internal.Correction.Weighted>
   9.000000E+99

> <Gold.Protein.RotatedTorsions>
[ 6907 6896 6895 6894 ] final  -89.54 input  -60.11 | X-H torsion
[ 7974 7965 7964 7962 ] final   77.86 input  175.53 | X-H torsion
[ 8008 7997 7996 7995 ] final -111.61 input   59.86 | X-H torsion
[ 10167 10162 10161 10158 ] final   80.45 input  -65.29 | X-H torsion
[ 10718 10713 10712 10709 ] final  147.50 input   66.30 | X-H torsion
[ 10763 10752 10751 10750 ] final  -55.76 input  -60.55 | X-H torsion
[ 11005 11000 10999 10996 ] final  151.28 input  -57.11 | X-H torsion

> <Gold.Protein.ActiveResidues>
 VAL166  LYS551  ARG553  GLY616  TRP617  ASP618  TYR619  PRO620  LYS621  CYS622 
 ASP623  PHE694  ASN695  SER759  ASP760  ASP761  ALA762  ILE779  LEU786  VAL792 
 PHE793  MET794  SER795  GLU796  ALA797  LYS798  CYS799  TRP800  GLU811  SER814 

> <Gold.Protein.RotatedAtoms>
  150.6874  134.2571  159.4533 H   0  0  0  0  0  0  0  0  0  0  0  0  # atno 6907 bound_to 6896
  152.0504  134.9655  160.0584 H   0  0  0  0  0  0  0  0  0  0  0  0  # atno 6908 bound_to 6896
  152.1121  133.4272  159.4673 H   0  0  0  0  0  0  0  0  0  0  0  0  # atno 6909 bound_to 6896
  145.6846  139.2534  143.1794 H   0  0  0  0  0  0  0  0  0  0  0  0  # atno 7974 bound_to 7965
  154.9924  140.0395  157.2325 H   0  0  0  0  0  0  0  0  0  0  0  0  # atno 8008 bound_to 7997
  154.7616  140.2785  155.6186 H   0  0  0  0  0  0  0  0  0  0  0  0  # atno 8009 bound_to 7997
  156.2905  140.2627  156.2396 H   0  0  0  0  0  0  0  0  0  0  0  0  # atno 8010 bound_to 7997
  139.9496  144.6035  150.8173 H   0  0  0  0  0  0  0  0  0  0  0  0  # atno 10167 bound_to 10162
  157.3202  131.0903  151.1247 H   0  0  0  0  0  0  0  0  0  0  0  0  # atno 10718 bound_to 10713
  154.1960  135.6419  153.5073 H   0  0  0  0  0  0  0  0  0  0  0  0  # atno 10763 bound_to 10752
  153.0023  135.5440  154.6365 H   0  0  0  0  0  0  0  0  0  0  0  0  # atno 10764 bound_to 10752
  154.5766  135.2921  155.0747 H   0  0  0  0  0  0  0  0  0  0  0  0  # atno 10765 bound_to 10752
  140.1205  134.8867  157.2065 H   0  0  0  0  0  0  0  0  0  0  0  0  # atno 11005 bound_to 11000
  146.0935  140.7628  142.9584 LP  0  0  0  0  0  0  0  0  0  0  0  0  # atno 17320 bound_to 7965
  144.7015  140.3674  143.7152 LP  0  0  0  0  0  0  0  0  0  0  0  0  # atno 17321 bound_to 7965
  140.7587  143.3112  151.2840 LP  0  0  0  0  0  0  0  0  0  0  0  0  # atno 17342 bound_to 10162
  139.6639  144.0140  152.2710 LP  0  0  0  0  0  0  0  0  0  0  0  0  # atno 17343 bound_to 10162
  157.2535  130.6625  149.5942 LP  0  0  0  0  0  0  0  0  0  0  0  0  # atno 17370 bound_to 10713
  155.9685  130.4531  150.5799 LP  0  0  0  0  0  0  0  0  0  0  0  0  # atno 17371 bound_to 10713
  140.2972  134.3173  155.7299 LP  0  0  0  0  0  0  0  0  0  0  0  0  # atno 17394 bound_to 11000
  141.2150  133.7570  156.9588 LP  0  0  0  0  0  0  0  0  0  0  0  0  # atno 17395 bound_to 11000

$$$$
