AV-unprocessed.smi:193|AV-procd|sdf|1515|dock5
  -GOLD-   2262019353D 1   1.00000     0.00000
 Structure written by MMmdl.
 61 65  0  0  0  0  0  0  0  0  1 V2000
  147.0026  143.0590  158.7140 C   0  0  0  0  0  0  0  0  0  0  0  0
  148.3889  142.4482  158.4573 C   0  0  1  0  0  0  0  0  0  0  0  0
  148.4814  141.9914  156.9855 C   0  0  0  0  0  0  0  0  0  0  0  0
  149.5596  141.0410  156.7074 N   0  0  0  0  0  0  0  0  0  0  0  0
  149.3782  140.1320  155.7109 C   0  0  0  0  0  0  0  0  0  0  0  0
  150.2902  139.1345  155.5580 N   0  0  0  0  0  0  0  0  0  0  0  0
  150.1470  138.2216  154.5935 C   0  0  0  0  0  0  0  0  0  0  0  0
  149.1811  138.1185  153.6801 N   0  0  0  0  0  0  0  0  0  0  0  0
  148.2609  139.1144  153.8213 C   0  0  0  0  0  0  0  0  0  0  0  0
  148.2789  140.1500  154.8002 C   0  0  0  0  0  0  0  0  0  0  0  0
  147.1782  140.9811  154.6174 N   0  0  0  0  0  0  0  0  0  0  0  0
  146.5467  140.4648  153.5997 C   0  0  0  0  0  0  0  0  0  0  0  0
  147.1334  139.3472  153.0530 N   0  0  0  0  0  0  0  0  0  0  0  0
  146.6556  138.5847  151.9094 C   0  0  0  0  0  0  0  0  0  0  0  0
  145.9766  137.2458  152.2915 C   0  0  0  0  0  0  0  0  0  0  0  0
  146.8634  136.5438  153.1462 O   0  0  0  0  0  0  0  0  0  0  0  0
  144.6382  137.4481  153.0353 C   0  0  0  0  0  0  0  0  0  0  0  0
  143.8798  136.1237  153.2327 C   0  0  0  0  0  0  0  0  0  0  0  0
  143.6885  135.4764  151.9804 O   0  0  0  0  0  0  0  0  0  0  0  0
  144.9139  135.1201  151.3519 C   0  0  0  0  0  0  0  0  0  0  0  0
  145.7312  136.3857  151.0358 C   0  0  0  0  0  0  0  0  0  0  0  0
  150.7365  140.9430  157.5720 C   0  0  0  0  0  0  0  0  0  0  0  0
  151.3620  142.3115  157.8735 C   0  0  0  0  0  0  0  0  0  0  0  0
  150.7856  142.8869  159.0852 N   0  0  0  0  0  0  0  0  0  0  0  0
  151.6746  143.9395  159.5586 C   0  0  1  0  0  0  0  0  0  0  0  0
  151.8417  144.1017  161.0533 C   0  0  0  0  0  0  0  0  0  0  0  0
  152.9784  143.5453  160.2293 C   0  0  1  0  0  0  0  0  0  0  0  0
  153.4085  142.1010  160.4009 C   0  0  0  0  0  0  0  0  0  0  0  0
  149.4788  143.4835  158.8137 C   0  0  0  0  0  0  0  0  0  0  0  0
  146.8337  143.9356  158.0876 H   0  0  0  0  0  0  0  0  0  0  0  0
  146.8925  143.3664  159.7544 H   0  0  0  0  0  0  0  0  0  0  0  0
  146.2095  142.3411  158.5028 H   0  0  0  0  0  0  0  0  0  0  0  0
  148.4733  141.5832  159.1173 H   0  0  0  0  0  0  0  0  0  0  0  0
  147.5363  141.5158  156.7195 H   0  0  0  0  0  0  0  0  0  0  0  0
  148.5887  142.8572  156.3313 H   0  0  0  0  0  0  0  0  0  0  0  0
  150.9187  137.4674  154.5458 H   0  0  0  0  0  0  0  0  0  0  0  0
  145.6353  140.8938  153.2094 H   0  0  0  0  0  0  0  0  0  0  0  0
  145.9577  139.2115  151.3528 H   0  0  0  0  0  0  0  0  0  0  0  0
  147.4997  138.4057  151.2417 H   0  0  0  0  0  0  0  0  0  0  0  0
  147.7473  136.6850  152.8426 H   0  0  0  0  0  0  0  0  0  0  0  0
  144.7962  137.9261  154.0027 H   0  0  0  0  0  0  0  0  0  0  0  0
  144.0065  138.1256  152.4592 H   0  0  0  0  0  0  0  0  0  0  0  0
  144.4137  135.4639  153.9183 H   0  0  0  0  0  0  0  0  0  0  0  0
  142.9045  136.3173  153.6792 H   0  0  0  0  0  0  0  0  0  0  0  0
  145.4765  134.4356  151.9886 H   0  0  0  0  0  0  0  0  0  0  0  0
  144.6913  134.5809  150.4311 H   0  0  0  0  0  0  0  0  0  0  0  0
  145.1841  136.9733  150.2972 H   0  0  0  0  0  0  0  0  0  0  0  0
  146.6777  136.1130  150.5671 H   0  0  0  0  0  0  0  0  0  0  0  0
  150.4905  140.4050  158.4885 H   0  0  0  0  0  0  0  0  0  0  0  0
  151.5058  140.3530  157.0728 H   0  0  0  0  0  0  0  0  0  0  0  0
  152.4244  142.1433  158.0555 H   0  0  0  0  0  0  0  0  0  0  0  0
  151.3009  142.9922  157.0228 H   0  0  0  0  0  0  0  0  0  0  0  0
  151.7128  144.8688  158.9921 H   0  0  0  0  0  0  0  0  0  0  0  0
  151.9494  145.1134  161.4387 H   0  0  0  0  0  0  0  0  0  0  0  0
  151.3042  143.4134  161.7031 H   0  0  0  0  0  0  0  0  0  0  0  0
  153.8131  144.2212  160.0539 H   0  0  0  0  0  0  0  0  0  0  0  0
  152.5558  141.4607  160.6288 H   0  0  0  0  0  0  0  0  0  0  0  0
  154.1251  142.0212  161.2183 H   0  0  0  0  0  0  0  0  0  0  0  0
  153.8813  141.7398  159.4877 H   0  0  0  0  0  0  0  0  0  0  0  0
  149.5568  144.2449  158.0358 H   0  0  0  0  0  0  0  0  0  0  0  0
  149.1681  144.0056  159.7198 H   0  0  0  0  0  0  0  0  0  0  0  0
  1  2  1  0  0  0  0
  1 30  1  0  0  0  0
  1 31  1  0  0  0  0
  1 32  1  0  0  0  0
  2 29  1  0  0  0  0
  2  3  1  0  0  0  0
  2 33  1  0  0  0  0
  3  4  1  0  0  0  0
  3 34  1  0  0  0  0
  3 35  1  0  0  0  0
  4  5  1  0  0  0  0
  4 22  1  0  0  0  0
  5 10  1  0  0  0  0
  5  6  2  0  0  0  0
  6  7  1  0  0  0  0
  7  8  2  0  0  0  0
  7 36  1  0  0  0  0
  8  9  1  0  0  0  0
  9 13  1  0  0  0  0
  9 10  2  0  0  0  0
 10 11  1  0  0  0  0
 11 12  2  0  0  0  0
 12 13  1  0  0  0  0
 12 37  1  0  0  0  0
 13 14  1  0  0  0  0
 14 15  1  0  0  0  0
 14 38  1  0  0  0  0
 14 39  1  0  0  0  0
 15 21  1  0  0  0  0
 15 16  1  0  0  0  0
 15 17  1  0  0  0  0
 16 40  1  0  0  0  0
 17 18  1  0  0  0  0
 17 41  1  0  0  0  0
 17 42  1  0  0  0  0
 18 19  1  0  0  0  0
 18 43  1  0  0  0  0
 18 44  1  0  0  0  0
 19 20  1  0  0  0  0
 20 21  1  0  0  0  0
 20 45  1  0  0  0  0
 20 46  1  0  0  0  0
 21 47  1  0  0  0  0
 21 48  1  0  0  0  0
 22 23  1  0  0  0  0
 22 49  1  0  0  0  0
 22 50  1  0  0  0  0
 23 24  1  0  0  0  0
 23 51  1  0  0  0  0
 23 52  1  0  0  0  0
 24 25  1  0  0  0  0
 24 29  1  0  0  0  0
 25 27  1  0  0  0  0
 25 26  1  0  0  0  0
 25 53  1  0  0  0  0
 26 27  1  0  0  0  0
 26 54  1  0  0  0  0
 26 55  1  0  0  0  0
 27 28  1  0  0  0  0
 27 56  1  0  0  0  0
 28 57  1  0  0  0  0
 28 58  1  0  0  0  0
 28 59  1  0  0  0  0
 29 60  1  0  0  0  0
 29 61  1  0  0  0  0
M  END
> <s_m_source_file>
AV-unprocessed.smi

> <i_m_source_file_index>
193

> <i_lp_mmshare_version>
43012

> <i_f3d_flags>
0

> <s_epik_input>
W0NIM11bQ0BASF0xW0NIMl1bQ0BIXTFOKFtDSDJdMilbQ0gyXVtDSDJdTihbQ0gyXVtDQEhdMltDSDNdKWMobltjSF1uMyljKGMzNCluW2NIXW40W0NIMl1DNShbT0hdKVtDSDJdW0NIMl1PW0NIMl1bQ0gyXTU=

> <s_epik_cmdline>
J2VwaWtfcHl0aG9uJywgJy1waCcsICc3LjAnLCAnLXRuJywgJzgnLCAnLW1hJywgJzIwMCcsICctbWV0YWxfYmluZGluZycsICctaW1hZScsICc8aW5maWxlLm1hZT4nLCAnLW9tYWUnLCAnPG91dGZpbGUubWFlPic=

> <r_lp_tautomer_probability>
1

> <r_epik_Ionization_Penalty>
1.45227

> <r_epik_Ionization_Penalty_Charging>
0

> <r_epik_Ionization_Penalty_Neutral>
1.45227

> <r_epik_State_Penalty>
2.02377

> <r_epik_Charging_Adjusted_Penalty>
2.02377

> <i_epik_Tot_Q>
0

> <i_epik_Tot_abs_Q>
0

> <r_epik_Metal_State_Penalty>
2.01937

> <b_epik_Metal_Only>
0

> <s_lp_Force_Field>
OPLS_2005

> <r_lp_Energy>
52.058

> <b_lp_Chiralities_Consistent>
1

> <s_lp_Variant>
AV-unprocessed.smi:193-20

> <Gold.Version>
5.8.1

> <Gold.Id.Protein>
6NUR|6NUR_protein|mol2

> <Gold.PLP.Fitness>
46.9227

> <Gold.PLP.PLP>
-41.5041

> <Gold.PLP.part.hbond>
-1.0000

> <Gold.PLP.part.metal>
0.0000

> <Gold.PLP.part.buried>
-0.0735

> <Gold.PLP.part.nonpolar>
-44.8751

> <Gold.PLP.part.repulsive>
4.1986

> <Gold.PLP.ligand.clash>
0.0000

> <Gold.PLP.ligand.torsion>
0.8892

> <Gold.PLP.Chemscore.Hbond>
1.0000

> <Gold.PLP.Chemscore.CHOScore>
1.0000

> <Gold.PLP.Chemscore.Metal>
0.0000

> <Gold.Chemscore.Hbonds>
donor molecule, donor type, donor heavy atom, donor atom, acceptor molecule, acceptor atom, score
      L1  H    16    40       P1  7948  0.96
      L1  C    12    37       P1 10175  1.00

> <Gold.PLP.Chemscore.Internal.Correction>
1.1972

> <Gold.Rescore>
     Score         DG    S(hbond)    S(metal)    S(lipo)     H(rot)  DE(clash)    DE(int)     intcor
     12.28     -16.73       1.00        0.00     109.40       1.91       2.31       2.15       ----

> <Gold.Chemscore.Fitness>
12.2759

> <Gold.Chemscore.DG>
-16.7350

> <Gold.Chemscore.ZeroCoef>
-5.4800

> <Gold.Chemscore.Hbond>
0.9988

> <Gold.Chemscore.Metal>
0.0000

> <Gold.Chemscore.Lipo>
109.4046

> <Gold.Chemscore.Internal_Hbond>
0.0000

> <Gold.Chemscore.DEClash>
2.3051

> <Gold.Chemscore.DEInternal>
2.1540

> <Gold.Chemscore.Rot>
1.9068

> <Gold.Chemscore.Internal.Correction>
   9.000000E+99

> <Gold.Chemscore.Hbonds>
donor molecule, donor type, donor heavy atom, donor atom, acceptor molecule, acceptor atom, score
      L1  H    16    40       P1  7948  0.91

> <Gold.Chemscore.Hbond.Weighted>
-3.3360

> <Gold.Chemscore.Metal.Weighted>
-0.0000

> <Gold.Chemscore.Lipo.Weighted>
-12.8003

> <Gold.Chemscore.Internal_Hbond.Weighted>
0.0000

> <Gold.Chemscore.DEClash.Weighted>
2.3051

> <Gold.Chemscore.DEInternal.Weighted>
2.1540

> <Gold.Chemscore.Rot.Weighted>
4.8814

> <Gold.Chemscore.Internal.Correction.Weighted>
   9.000000E+99

> <Gold.Protein.RotatedTorsions>
[ 6907 6896 6895 6894 ] final  138.38 input  -60.11 | X-H torsion
[ 7974 7965 7964 7962 ] final   55.45 input  175.53 | X-H torsion
[ 8008 7997 7996 7995 ] final  128.33 input   59.86 | X-H torsion
[ 10167 10162 10161 10158 ] final -171.84 input  -65.29 | X-H torsion
[ 10718 10713 10712 10709 ] final  -86.19 input   66.30 | X-H torsion
[ 10763 10752 10751 10750 ] final  145.80 input  -60.55 | X-H torsion
[ 11005 11000 10999 10996 ] final   18.51 input  -57.11 | X-H torsion

> <Gold.Protein.ActiveResidues>
 VAL166  LYS551  ARG553  GLY616  TRP617  ASP618  TYR619  PRO620  LYS621  CYS622 
 ASP623  PHE694  ASN695  SER759  ASP760  ASP761  ALA762  ILE779  LEU786  VAL792 
 PHE793  MET794  SER795  GLU796  ALA797  LYS798  CYS799  TRP800  GLU811  SER814 

> <Gold.Protein.RotatedAtoms>
  152.2672  133.5350  159.5416 H   0  0  0  0  0  0  0  0  0  0  0  0  # atno 6907 bound_to 6896
  150.7146  134.0748  159.3886 H   0  0  0  0  0  0  0  0  0  0  0  0  # atno 6908 bound_to 6896
  151.8664  135.0506  160.0525 H   0  0  0  0  0  0  0  0  0  0  0  0  # atno 6909 bound_to 6896
  145.9503  139.3966  143.0310 H   0  0  0  0  0  0  0  0  0  0  0  0  # atno 7974 bound_to 7965
  156.2912  140.2647  156.2418 H   0  0  0  0  0  0  0  0  0  0  0  0  # atno 8008 bound_to 7997
  154.9970  140.0388  157.2362 H   0  0  0  0  0  0  0  0  0  0  0  0  # atno 8009 bound_to 7997
  154.7635  140.2765  155.6199 H   0  0  0  0  0  0  0  0  0  0  0  0  # atno 8010 bound_to 7997
  139.5779  144.1491  152.1475 H   0  0  0  0  0  0  0  0  0  0  0  0  # atno 10167 bound_to 10162
  155.9991  130.4756  150.4676 H   0  0  0  0  0  0  0  0  0  0  0  0  # atno 10718 bound_to 10713
  154.0114  135.2914  155.3392 H   0  0  0  0  0  0  0  0  0  0  0  0  # atno 10763 bound_to 10752
  154.7101  135.5153  153.8656 H   0  0  0  0  0  0  0  0  0  0  0  0  # atno 10764 bound_to 10752
  153.0721  135.6651  154.0345 H   0  0  0  0  0  0  0  0  0  0  0  0  # atno 10765 bound_to 10752
  140.4240  134.1489  155.7675 H   0  0  0  0  0  0  0  0  0  0  0  0  # atno 11005 bound_to 11000
  145.8180  140.9693  143.0914 LP  0  0  0  0  0  0  0  0  0  0  0  0  # atno 17320 bound_to 7965
  144.6794  140.0005  143.7484 LP  0  0  0  0  0  0  0  0  0  0  0  0  # atno 17321 bound_to 7965
  140.1038  144.5517  150.6971 LP  0  0  0  0  0  0  0  0  0  0  0  0  # atno 17342 bound_to 10162
  140.7060  143.2468  151.4725 LP  0  0  0  0  0  0  0  0  0  0  0  0  # atno 17343 bound_to 10162
  157.2694  131.0584  151.2269 LP  0  0  0  0  0  0  0  0  0  0  0  0  # atno 17370 bound_to 10713
  157.3355  130.7006  149.6350 LP  0  0  0  0  0  0  0  0  0  0  0  0  # atno 17371 bound_to 10713
  141.1772  133.8488  157.1380 LP  0  0  0  0  0  0  0  0  0  0  0  0  # atno 17394 bound_to 11000
  140.0180  134.9958  157.0533 LP  0  0  0  0  0  0  0  0  0  0  0  0  # atno 17395 bound_to 11000

$$$$
