AV-unprocessed.smi:2027|AV-procd|sdf|8211|dock8
  -GOLD-   2272010473D 1   1.00000     0.00000
 Structure written by MMmdl.
 50 52  0  0  0  0  0  0  0  0  2 V2000
  153.6226  142.3215  161.5852 C   0  0  0  0  0  0  0  0  0  0  0  0
  152.8878  142.0849  160.2774 C   0  0  0  0  0  0  0  0  0  0  0  0
  153.1683  140.9164  159.5336 C   0  0  0  0  0  0  0  0  0  0  0  0
  152.5072  140.6589  158.3128 C   0  0  0  0  0  0  0  0  0  0  0  0
  152.6269  139.5982  157.4313 N   0  0  0  0  0  0  0  0  0  0  0  0
  151.7533  139.9337  156.4867 C   0  0  0  0  0  0  0  0  0  0  0  0
  151.0821  141.0901  156.6503 N   0  0  0  0  0  0  0  0  0  0  0  0
  150.0903  141.6592  155.7554 C   0  0  0  0  0  0  0  0  0  0  0  0
  149.4038  140.5925  154.8805 C   0  0  2  0  0  0  0  0  0  0  0  0
  150.2967  140.1657  153.8686 O   0  0  0  0  0  0  0  0  0  0  0  0
  148.1331  141.1415  154.2056 C   0  0  0  0  0  0  0  0  0  0  0  0
  147.4866  142.2044  155.0206 N   0  3  1  0  0  0  0  0  0  0  0  0
  146.3995  142.8998  154.2932 C   0  0  0  0  0  0  0  0  0  0  0  0
  147.0510  141.7427  156.3623 C   0  0  0  0  0  0  0  0  0  0  0  0
  146.2692  140.4587  156.2725 C   0  0  0  0  0  0  0  0  0  0  0  0
  146.5155  139.2382  156.9646 C   0  0  0  0  0  0  0  0  0  0  0  0
  145.6493  138.2877  156.6560 N   0  0  0  0  0  0  0  0  0  0  0  0
  144.8166  138.8666  155.7671 N   0  0  0  0  0  0  0  0  0  0  0  0
  143.7223  138.0999  155.2108 C   0  0  0  0  0  0  0  0  0  0  0  0
  145.1650  140.1764  155.5174 C   0  0  0  0  0  0  0  0  0  0  0  0
  151.5490  141.6091  157.8534 C   0  0  0  0  0  0  0  0  0  0  0  0
  151.2617  142.7756  158.5841 C   0  0  0  0  0  0  0  0  0  0  0  0
  151.9338  143.0192  159.8000 C   0  0  0  0  0  0  0  0  0  0  0  0
  151.6199  144.2848  160.5783 C   0  0  0  0  0  0  0  0  0  0  0  0
  154.2530  141.4712  161.8473 H   0  0  0  0  0  0  0  0  0  0  0  0
  152.9157  142.4753  162.4008 H   0  0  0  0  0  0  0  0  0  0  0  0
  154.2609  143.2020  161.5087 H   0  0  0  0  0  0  0  0  0  0  0  0
  153.8968  140.2059  159.8956 H   0  0  0  0  0  0  0  0  0  0  0  0
  151.5932  139.3035  155.6239 H   0  0  0  0  0  0  0  0  0  0  0  0
  149.3485  142.1852  156.3583 H   0  0  0  0  0  0  0  0  0  0  0  0
  150.5754  142.4131  155.1336 H   0  0  0  0  0  0  0  0  0  0  0  0
  149.1592  139.7325  155.5043 H   0  0  0  0  0  0  0  0  0  0  0  0
  149.8194  140.0976  153.0547 H   0  0  0  0  0  0  0  0  0  0  0  0
  148.3630  141.5344  153.2140 H   0  0  0  0  0  0  0  0  0  0  0  0
  147.4490  140.3088  154.0402 H   0  0  0  0  0  0  0  0  0  0  0  0
  145.5665  142.2235  154.0968 H   0  0  0  0  0  0  0  0  0  0  0  0
  146.7493  143.2950  153.3399 H   0  0  0  0  0  0  0  0  0  0  0  0
  146.0238  143.7421  154.8753 H   0  0  0  0  0  0  0  0  0  0  0  0
  147.9296  141.5882  156.9900 H   0  0  0  0  0  0  0  0  0  0  0  0
  146.4736  142.5330  156.8448 H   0  0  0  0  0  0  0  0  0  0  0  0
  147.2993  139.0144  157.6732 H   0  0  0  0  0  0  0  0  0  0  0  0
  143.1350  138.7219  154.5344 H   0  0  0  0  0  0  0  0  0  0  0  0
  143.0762  137.7417  156.0134 H   0  0  0  0  0  0  0  0  0  0  0  0
  144.1139  137.2457  154.6576 H   0  0  0  0  0  0  0  0  0  0  0  0
  144.6061  140.7924  154.8280 H   0  0  0  0  0  0  0  0  0  0  0  0
  150.5323  143.4789  158.2101 H   0  0  0  0  0  0  0  0  0  0  0  0
  150.9321  144.9289  160.0296 H   0  0  0  0  0  0  0  0  0  0  0  0
  152.5293  144.8553  160.7686 H   0  0  0  0  0  0  0  0  0  0  0  0
  151.1585  144.0383  161.5349 H   0  0  0  0  0  0  0  0  0  0  0  0
  148.2031  142.8958  155.1932 H   0  0  0  0  0  0  0  0  0  0  0  0
  1  2  1  0  0  0  0
  1 25  1  0  0  0  0
  1 26  1  0  0  0  0
  1 27  1  0  0  0  0
  2 23  1  0  0  0  0
  2  3  2  0  0  0  0
  3  4  1  0  0  0  0
  3 28  1  0  0  0  0
  4 21  2  0  0  0  0
  4  5  1  0  0  0  0
  5  6  2  0  0  0  0
  6  7  1  0  0  0  0
  6 29  1  0  0  0  0
  7  8  1  0  0  0  0
  7 21  1  0  0  0  0
  8  9  1  0  0  0  0
  8 30  1  0  0  0  0
  8 31  1  0  0  0  0
  9 10  1  0  0  0  0
  9 11  1  0  0  0  0
  9 32  1  0  0  0  0
 10 33  1  0  0  0  0
 11 12  1  0  0  0  0
 11 34  1  0  0  0  0
 11 35  1  0  0  0  0
 12 13  1  0  0  0  0
 12 14  1  0  0  0  0
 12 50  1  0  0  0  0
 13 36  1  0  0  0  0
 13 37  1  0  0  0  0
 13 38  1  0  0  0  0
 14 15  1  0  0  0  0
 14 39  1  0  0  0  0
 14 40  1  0  0  0  0
 15 20  2  0  0  0  0
 15 16  1  0  0  0  0
 16 17  2  0  0  0  0
 16 41  1  0  0  0  0
 17 18  1  0  0  0  0
 18 19  1  0  0  0  0
 18 20  1  0  0  0  0
 19 42  1  0  0  0  0
 19 43  1  0  0  0  0
 19 44  1  0  0  0  0
 20 45  1  0  0  0  0
 21 22  1  0  0  0  0
 22 23  2  0  0  0  0
 22 46  1  0  0  0  0
 23 24  1  0  0  0  0
 24 47  1  0  0  0  0
 24 48  1  0  0  0  0
 24 49  1  0  0  0  0
M  CHG  1  12   1
M  END
> <s_m_source_file>
AV-unprocessed.smi

> <i_m_source_file_index>
2027

> <i_lp_mmshare_version>
43012

> <i_f3d_flags>
0

> <s_epik_input>
W0NIM11jKFtjSF0xKWMoW0NIM10pW2NIXWMoYzEyKW4oW2NIXW4yKVtDSDJdW0NASF0oW09IXSlbQ0gyXU4oW0NIM10pW0NIMl1jM1tjSF1ubihbQ0gzXSlbY0hdMw==

> <s_epik_cmdline>
J2VwaWtfcHl0aG9uJywgJy1waCcsICc3LjAnLCAnLXRuJywgJzgnLCAnLW1hJywgJzIwMCcsICctbWV0YWxfYmluZGluZycsICctaW1hZScsICc8aW5maWxlLm1hZT4nLCAnLW9tYWUnLCAnPG91dGZpbGUubWFlPic=

> <r_lp_tautomer_probability>
1

> <r_epik_Ionization_Penalty>
0.646578

> <r_epik_Ionization_Penalty_Charging>
0.559419

> <r_epik_Ionization_Penalty_Neutral>
0.087159

> <r_epik_State_Penalty>
0.661677

> <r_epik_Charging_Adjusted_Penalty>
1.2211

> <i_epik_Tot_Q>
1

> <i_epik_Tot_abs_Q>
1

> <r_epik_Metal_State_Penalty>
0.649174

> <b_epik_Metal_Only>
0

> <s_lp_Force_Field>
OPLS_2005

> <r_lp_Energy>
8.87495

> <b_lp_Chiralities_Consistent>
1

> <s_lp_Variant>
AV-unprocessed.smi:2027-3

> <Gold.Version>
5.8.1

> <Gold.Id.Protein>
6NUR|6NUR_protein|mol2

> <Gold.PLP.Fitness>
59.7639

> <Gold.PLP.PLP>
-43.9343

> <Gold.PLP.part.hbond>
-3.6304

> <Gold.PLP.part.metal>
0.0000

> <Gold.PLP.part.buried>
-5.5148

> <Gold.PLP.part.nonpolar>
-35.4857

> <Gold.PLP.part.repulsive>
0.1011

> <Gold.PLP.ligand.clash>
0.0000

> <Gold.PLP.ligand.torsion>
1.0039

> <Gold.PLP.Chemscore.Hbond>
4.8882

> <Gold.PLP.Chemscore.CHOScore>
1.0000

> <Gold.PLP.Chemscore.Metal>
0.0000

> <Gold.Chemscore.Hbonds>
donor molecule, donor type, donor heavy atom, donor atom, acceptor molecule, acceptor atom, score
      L1  H    10    33       P1  7957  1.00
      L1  H    12    50       P1  8028  2.00
      P1  H  7989  7998       L1    10  0.90
      P1  H  7997  8008       L1     5  0.95
      L1  C    20    45       P1 10175  1.00

> <Gold.PLP.Chemscore.Internal.Correction>
0.1730

> <Gold.Rescore>
     Score         DG    S(hbond)    S(metal)    S(lipo)     H(rot)  DE(clash)    DE(int)     intcor
     19.45     -20.62       2.46        0.00     114.05       2.50       0.07       1.10       ----

> <Gold.Chemscore.Fitness>
19.4453

> <Gold.Chemscore.DG>
-20.6167

> <Gold.Chemscore.ZeroCoef>
-5.4800

> <Gold.Chemscore.Hbond>
2.4565

> <Gold.Chemscore.Metal>
0.0000

> <Gold.Chemscore.Lipo>
114.0507

> <Gold.Chemscore.Internal_Hbond>
0.0000

> <Gold.Chemscore.DEClash>
0.0711

> <Gold.Chemscore.DEInternal>
1.1002

> <Gold.Chemscore.Rot>
2.5047

> <Gold.Chemscore.Internal.Correction>
   9.000000E+99

> <Gold.Chemscore.Hbonds>
donor molecule, donor type, donor heavy atom, donor atom, acceptor molecule, acceptor atom, score
      L1  H    10    33       P1  7957  0.98
      L1  H    12    50       P1  8028  0.93
      P1  H  7989  7998       L1    10  0.37
      P1  H  7997  8008       L1     5  0.07

> <Gold.Chemscore.Hbond.Weighted>
-8.2048

> <Gold.Chemscore.Metal.Weighted>
-0.0000

> <Gold.Chemscore.Lipo.Weighted>
-13.3439

> <Gold.Chemscore.Internal_Hbond.Weighted>
0.0000

> <Gold.Chemscore.DEClash.Weighted>
0.0711

> <Gold.Chemscore.DEInternal.Weighted>
1.1002

> <Gold.Chemscore.Rot.Weighted>
6.4120

> <Gold.Chemscore.Internal.Correction.Weighted>
   9.000000E+99

> <Gold.Protein.RotatedTorsions>
[ 6907 6896 6895 6894 ] final  -68.74 input  -60.11 | X-H torsion
[ 7974 7965 7964 7962 ] final  151.17 input  175.53 | X-H torsion
[ 8008 7997 7996 7995 ] final  -56.95 input   59.86 | X-H torsion
[ 10167 10162 10161 10158 ] final  -91.04 input  -65.29 | X-H torsion
[ 10718 10713 10712 10709 ] final -144.51 input   66.30 | X-H torsion
[ 10763 10752 10751 10750 ] final   81.87 input  -60.55 | X-H torsion
[ 11005 11000 10999 10996 ] final  160.21 input  -57.11 | X-H torsion

> <Gold.Protein.ActiveResidues>
 VAL166  LYS551  ARG553  GLY616  TRP617  ASP618  TYR619  PRO620  LYS621  CYS622 
 ASP623  PHE694  ASN695  SER759  ASP760  ASP761  ALA762  ILE779  LEU786  VAL792 
 PHE793  MET794  SER795  GLU796  ALA797  LYS798  CYS799  TRP800  GLU811  SER814 

> <Gold.Protein.RotatedAtoms>
  150.7341  134.5697  159.5883 H   0  0  0  0  0  0  0  0  0  0  0  0  # atno 6907 bound_to 6896
  152.3139  134.7461  160.0339 H   0  0  0  0  0  0  0  0  0  0  0  0  # atno 6908 bound_to 6896
  151.7999  133.3333  159.3560 H   0  0  0  0  0  0  0  0  0  0  0  0  # atno 6909 bound_to 6896
  144.8312  139.6502  143.6058 H   0  0  0  0  0  0  0  0  0  0  0  0  # atno 7974 bound_to 7965
  154.4249  140.1118  156.5719 H   0  0  0  0  0  0  0  0  0  0  0  0  # atno 8008 bound_to 7997
  155.6203  140.3495  155.4631 H   0  0  0  0  0  0  0  0  0  0  0  0  # atno 8009 bound_to 7997
  156.0029  140.1203  157.0519 H   0  0  0  0  0  0  0  0  0  0  0  0  # atno 8010 bound_to 7997
  140.3489  143.2902  151.9749 H   0  0  0  0  0  0  0  0  0  0  0  0  # atno 10167 bound_to 10162
  156.3710  130.7787  151.1968 H   0  0  0  0  0  0  0  0  0  0  0  0  # atno 10718 bound_to 10713
  153.1154  135.4749  154.9106 H   0  0  0  0  0  0  0  0  0  0  0  0  # atno 10763 bound_to 10752
  154.7523  135.3109  154.8537 H   0  0  0  0  0  0  0  0  0  0  0  0  # atno 10764 bound_to 10752
  153.9115  135.6864  153.4804 H   0  0  0  0  0  0  0  0  0  0  0  0  # atno 10765 bound_to 10752
  140.2037  134.8318  157.3046 H   0  0  0  0  0  0  0  0  0  0  0  0  # atno 11005 bound_to 11000
  146.2614  139.6420  142.9359 LP  0  0  0  0  0  0  0  0  0  0  0  0  # atno 17320 bound_to 7965
  145.4892  141.0438  143.2602 LP  0  0  0  0  0  0  0  0  0  0  0  0  # atno 17321 bound_to 7965
  139.4829  144.6093  151.7463 LP  0  0  0  0  0  0  0  0  0  0  0  0  # atno 17342 bound_to 10162
  140.5238  144.0837  150.6031 LP  0  0  0  0  0  0  0  0  0  0  0  0  # atno 17343 bound_to 10162
  157.7484  131.0372  150.4446 LP  0  0  0  0  0  0  0  0  0  0  0  0  # atno 17370 bound_to 10713
  156.4673  130.4045  149.6539 LP  0  0  0  0  0  0  0  0  0  0  0  0  # atno 17371 bound_to 10713
  140.2026  134.4236  155.7655 LP  0  0  0  0  0  0  0  0  0  0  0  0  # atno 17394 bound_to 11000
  141.2227  133.7079  156.8208 LP  0  0  0  0  0  0  0  0  0  0  0  0  # atno 17395 bound_to 11000

$$$$
