AV-unprocessed.smi:1484|AV-procd|sdf|6000|dock3
  -GOLD-   22720 6 93D 1   1.00000     0.00000
 Structure written by MMmdl.
 38 39  0  0  0  0  0  0  0  0  1 V2000
  153.4124  141.6620  160.9909 C   0  0  0  0  0  0  0  0  0  0  0  0
  152.4690  142.6817  160.3382 C   0  0  1  0  0  0  0  0  0  0  0  0
  152.3786  143.9779  161.1662 C   0  0  0  0  0  0  0  0  0  0  0  0
  151.4402  145.0054  160.5126 C   0  0  0  0  0  0  0  0  0  0  0  0
  151.8539  145.3040  159.0600 C   0  0  0  0  0  0  0  0  0  0  0  0
  151.9556  144.0221  158.2108 C   0  0  2  0  0  0  0  0  0  0  0  0
  150.6242  143.4597  157.9973 N   0  0  0  0  0  0  0  0  0  0  0  0
  150.3546  142.2735  157.4324 C   0  0  0  0  0  0  0  0  0  0  0  0
  151.2134  141.5410  156.9422 O   0  0  0  0  0  0  0  0  0  0  0  0
  148.8844  141.8460  157.4381 C   0  0  0  0  0  0  0  0  0  0  0  0
  148.4428  141.4770  156.0871 N   0  0  0  0  0  0  0  0  0  0  0  0
  149.3488  140.6800  155.4021 N   0  0  0  0  0  0  0  0  0  0  0  0
  149.1048  140.3226  154.1871 C   0  0  0  0  0  0  0  0  0  0  0  0
  150.0331  139.5400  153.5459 O   0  0  0  0  0  0  0  0  0  0  0  0
  147.8909  140.7322  153.5165 C   0  0  0  0  0  0  0  0  0  0  0  0
  147.0124  141.5045  154.1922 C   0  0  0  0  0  0  0  0  0  0  0  0
  147.2608  141.9337  155.5699 C   0  0  0  0  0  0  0  0  0  0  0  0
  146.4819  142.6453  156.2032 O   0  0  0  0  0  0  0  0  0  0  0  0
  152.8958  142.9995  158.8896 C   0  0  0  0  0  0  0  0  0  0  0  0
  149.7634  139.5218  152.6405 H   0  0  0  0  0  0  0  0  0  0  0  0
  154.4301  142.0479  161.0582 H   0  0  0  0  0  0  0  0  0  0  0  0
  153.4443  140.7352  160.4174 H   0  0  0  0  0  0  0  0  0  0  0  0
  153.0826  141.4128  161.9998 H   0  0  0  0  0  0  0  0  0  0  0  0
  151.4767  142.2288  160.3104 H   0  0  0  0  0  0  0  0  0  0  0  0
  152.0276  143.7534  162.1740 H   0  0  0  0  0  0  0  0  0  0  0  0
  153.3722  144.4144  161.2763 H   0  0  0  0  0  0  0  0  0  0  0  0
  150.4160  144.6314  160.5369 H   0  0  0  0  0  0  0  0  0  0  0  0
  151.4420  145.9281  161.0937 H   0  0  0  0  0  0  0  0  0  0  0  0
  151.1501  146.0033  158.6067 H   0  0  0  0  0  0  0  0  0  0  0  0
  152.8213  145.8077  159.0630 H   0  0  0  0  0  0  0  0  0  0  0  0
  152.3684  144.2901  157.2365 H   0  0  0  0  0  0  0  0  0  0  0  0
  149.8475  143.9907  158.3635 H   0  0  0  0  0  0  0  0  0  0  0  0
  148.7463  141.0064  158.1224 H   0  0  0  0  0  0  0  0  0  0  0  0
  148.2758  142.6549  157.8457 H   0  0  0  0  0  0  0  0  0  0  0  0
  147.6999  140.4224  152.4995 H   0  0  0  0  0  0  0  0  0  0  0  0
  146.1015  141.8172  153.7033 H   0  0  0  0  0  0  0  0  0  0  0  0
  153.9104  143.4003  158.8931 H   0  0  0  0  0  0  0  0  0  0  0  0
  152.9431  142.0807  158.3042 H   0  0  0  0  0  0  0  0  0  0  0  0
  1  2  1  0  0  0  0
  1 21  1  0  0  0  0
  1 22  1  0  0  0  0
  1 23  1  0  0  0  0
  2 19  1  0  0  0  0
  2  3  1  0  0  0  0
  2 24  1  0  0  0  0
  3  4  1  0  0  0  0
  3 25  1  0  0  0  0
  3 26  1  0  0  0  0
  4  5  1  0  0  0  0
  4 27  1  0  0  0  0
  4 28  1  0  0  0  0
  5  6  1  0  0  0  0
  5 29  1  0  0  0  0
  5 30  1  0  0  0  0
  6  7  1  0  0  0  0
  6 19  1  0  0  0  0
  6 31  1  0  0  0  0
  7  8  1  0  0  0  0
  7 32  1  0  0  0  0
  8  9  2  0  0  0  0
  8 10  1  0  0  0  0
 10 33  1  0  0  0  0
 10 34  1  0  0  0  0
 10 11  1  0  0  0  0
 11 12  1  0  0  0  0
 11 17  1  0  0  0  0
 12 13  2  0  0  0  0
 13 14  1  0  0  0  0
 13 15  1  0  0  0  0
 14 20  1  0  0  0  0
 15 35  1  0  0  0  0
 15 16  2  0  0  0  0
 16 36  1  0  0  0  0
 16 17  1  0  0  0  0
 17 18  2  0  0  0  0
 19 37  1  0  0  0  0
 19 38  1  0  0  0  0
M  END
> <s_m_source_file>
AV-unprocessed.smi

> <i_m_source_file_index>
1484

> <i_lp_mmshare_version>
43012

> <i_f3d_flags>
0

> <s_epik_input>
W0NIM11bQ0BASF0xW0NIMl1bQ0gyXVtDSDJdW0NASF0oW0NIMl0xKVtOSF1DKD1PKVtDSDJdbjJbbkhdYyg9TylbY0hdW2NIXWMyPU8=

> <s_epik_cmdline>
J2VwaWtfcHl0aG9uJywgJy1waCcsICc3LjAnLCAnLXRuJywgJzgnLCAnLW1hJywgJzIwMCcsICctbWV0YWxfYmluZGluZycsICctaW1hZScsICc8aW5maWxlLm1hZT4nLCAnLW9tYWUnLCAnPG91dGZpbGUubWFlPic=

> <r_lp_tautomer_probability>
0.9996

> <r_epik_Ionization_Penalty>
2.10343

> <r_epik_Ionization_Penalty_Charging>
3.97871e-08

> <r_epik_Ionization_Penalty_Neutral>
2.10343

> <r_epik_State_Penalty>
1.67966

> <r_epik_Charging_Adjusted_Penalty>
1.67966

> <i_epik_Tot_Q>
0

> <i_epik_Tot_abs_Q>
0

> <r_epik_Metal_State_Penalty>
1.67966

> <b_epik_Metal_Only>
0

> <s_lp_Force_Field>
OPLS_2005

> <r_lp_Energy>
21.1153

> <b_lp_Chiralities_Consistent>
1

> <s_lp_Variant>
AV-unprocessed.smi:1484-8

> <Gold.Version>
5.8.1

> <Gold.Id.Protein>
6NUR|6NUR_protein|mol2

> <Gold.PLP.Fitness>
47.0416

> <Gold.PLP.PLP>
-42.2362

> <Gold.PLP.part.hbond>
-2.7031

> <Gold.PLP.part.metal>
0.0000

> <Gold.PLP.part.buried>
0.1120

> <Gold.PLP.part.nonpolar>
-39.4450

> <Gold.PLP.part.repulsive>
0.3255

> <Gold.PLP.ligand.clash>
0.0000

> <Gold.PLP.ligand.torsion>
0.3157

> <Gold.PLP.Chemscore.Hbond>
1.8089

> <Gold.PLP.Chemscore.CHOScore>
0.0000

> <Gold.PLP.Chemscore.Metal>
0.0000

> <Gold.Chemscore.Hbonds>
donor molecule, donor type, donor heavy atom, donor atom, acceptor molecule, acceptor atom, score
      L1  H    14    20       P1  7957  1.00
      P1  H  7989  7998       L1    14  0.74

> <Gold.PLP.Chemscore.Internal.Correction>
0.0103

> <Gold.Rescore>
     Score         DG    S(hbond)    S(metal)    S(lipo)     H(rot)  DE(clash)    DE(int)     intcor
     12.04     -15.50       1.08        0.00     103.85       2.24       0.33       3.14       ----

> <Gold.Chemscore.Fitness>
12.0385

> <Gold.Chemscore.DG>
-15.5013

> <Gold.Chemscore.ZeroCoef>
-5.4800

> <Gold.Chemscore.Hbond>
1.0811

> <Gold.Chemscore.Metal>
0.0000

> <Gold.Chemscore.Lipo>
103.8467

> <Gold.Chemscore.Internal_Hbond>
0.0000

> <Gold.Chemscore.DEClash>
0.3257

> <Gold.Chemscore.DEInternal>
3.1371

> <Gold.Chemscore.Rot>
2.2421

> <Gold.Chemscore.Internal.Correction>
   9.000000E+99

> <Gold.Chemscore.Hbonds>
donor molecule, donor type, donor heavy atom, donor atom, acceptor molecule, acceptor atom, score
      L1  H    14    20       P1  7957  0.95
      P1  H  7989  7998       L1    14  0.05

> <Gold.Chemscore.Hbond.Weighted>
-3.6110

> <Gold.Chemscore.Metal.Weighted>
-0.0000

> <Gold.Chemscore.Lipo.Weighted>
-12.1501

> <Gold.Chemscore.Internal_Hbond.Weighted>
0.0000

> <Gold.Chemscore.DEClash.Weighted>
0.3257

> <Gold.Chemscore.DEInternal.Weighted>
3.1371

> <Gold.Chemscore.Rot.Weighted>
5.7398

> <Gold.Chemscore.Internal.Correction.Weighted>
   9.000000E+99

> <Gold.Protein.RotatedTorsions>
[ 6907 6896 6895 6894 ] final   95.74 input  -60.11 | X-H torsion
[ 7974 7965 7964 7962 ] final  162.98 input  175.53 | X-H torsion
[ 8008 7997 7996 7995 ] final   95.79 input   59.86 | X-H torsion
[ 10167 10162 10161 10158 ] final   66.89 input  -65.29 | X-H torsion
[ 10718 10713 10712 10709 ] final  -71.84 input   66.30 | X-H torsion
[ 10763 10752 10751 10750 ] final   11.67 input  -60.55 | X-H torsion
[ 11005 11000 10999 10996 ] final   96.39 input  -57.11 | X-H torsion

> <Gold.Protein.ActiveResidues>
 VAL166  LYS551  ARG553  GLY616  TRP617  ASP618  TYR619  PRO620  LYS621  CYS622 
 ASP623  PHE694  ASN695  SER759  ASP760  ASP761  ALA762  ILE779  LEU786  VAL792 
 PHE793  MET794  SER795  GLU796  ALA797  LYS798  CYS799  TRP800  GLU811  SER814 

> <Gold.Protein.RotatedAtoms>
  152.5441  134.0993  159.8310 H   0  0  0  0  0  0  0  0  0  0  0  0  # atno 6907 bound_to 6896
  151.1073  133.5192  159.2614 H   0  0  0  0  0  0  0  0  0  0  0  0  # atno 6908 bound_to 6896
  151.1924  135.0417  159.8892 H   0  0  0  0  0  0  0  0  0  0  0  0  # atno 6909 bound_to 6896
  144.7611  139.8116  143.6332 H   0  0  0  0  0  0  0  0  0  0  0  0  # atno 7974 bound_to 7965
  156.0727  140.3281  155.7595 H   0  0  0  0  0  0  0  0  0  0  0  0  # atno 8008 bound_to 7997
  155.5280  140.0591  157.2912 H   0  0  0  0  0  0  0  0  0  0  0  0  # atno 8009 bound_to 7997
  154.4539  140.1932  156.0455 H   0  0  0  0  0  0  0  0  0  0  0  0  # atno 8010 bound_to 7997
  140.0955  144.4950  150.7071 H   0  0  0  0  0  0  0  0  0  0  0  0  # atno 10167 bound_to 10162
  156.0345  130.4360  150.2504 H   0  0  0  0  0  0  0  0  0  0  0  0  # atno 10718 bound_to 10713
  153.1902  135.6841  153.8363 H   0  0  0  0  0  0  0  0  0  0  0  0  # atno 10763 bound_to 10752
  153.7665  135.3202  155.3346 H   0  0  0  0  0  0  0  0  0  0  0  0  # atno 10764 bound_to 10752
  154.8112  135.4716  154.0621 H   0  0  0  0  0  0  0  0  0  0  0  0  # atno 10765 bound_to 10752
  139.8782  134.8948  156.4151 H   0  0  0  0  0  0  0  0  0  0  0  0  # atno 11005 bound_to 11000
  146.1675  139.4812  142.9949 LP  0  0  0  0  0  0  0  0  0  0  0  0  # atno 17320 bound_to 7965
  145.6616  141.0239  143.1706 LP  0  0  0  0  0  0  0  0  0  0  0  0  # atno 17321 bound_to 7965
  140.7006  143.2432  151.4876 LP  0  0  0  0  0  0  0  0  0  0  0  0  # atno 17342 bound_to 10162
  139.5700  144.1950  152.1822 LP  0  0  0  0  0  0  0  0  0  0  0  0  # atno 17343 bound_to 10162
  157.0604  131.0088  151.3224 LP  0  0  0  0  0  0  0  0  0  0  0  0  # atno 17370 bound_to 10713
  157.5074  130.7917  149.7669 LP  0  0  0  0  0  0  0  0  0  0  0  0  # atno 17371 bound_to 10713
  140.9173  133.7670  155.9863 LP  0  0  0  0  0  0  0  0  0  0  0  0  # atno 17394 bound_to 11000
  140.8479  134.2988  157.5287 LP  0  0  0  0  0  0  0  0  0  0  0  0  # atno 17395 bound_to 11000

$$$$
