AV-unprocessed.smi:688|AV-procd|sdf|3357|dock10
  -GOLD-   22720 0333D 1   1.00000     0.00000
 Structure written by MMmdl.
 35 36  0  0  0  0  0  0  0  0  2 V2000
  149.7489  132.0198  156.4749 O   0  0  0  0  0  0  0  0  0  0  0  0
  149.8683  133.2356  156.3318 C   0  0  0  0  0  0  0  0  0  0  0  0
  150.1049  134.0803  157.3775 N   0  5  0  0  0  0  0  0  0  0  0  0
  150.2334  135.4359  157.2399 C   0  0  0  0  0  0  0  0  0  0  0  0
  150.4468  136.1760  158.2001 O   0  0  0  0  0  0  0  0  0  0  0  0
  150.1194  135.9862  155.9941 N   0  0  0  0  0  0  0  0  0  0  0  0
  150.2291  137.4370  155.7605 C   0  0  0  0  0  0  0  0  0  0  0  0
  151.4786  137.8136  154.9317 C   0  0  1  0  0  0  0  0  0  0  0  0
  151.1520  137.7041  153.5615 O   0  0  0  0  0  0  0  0  0  0  0  0
  151.9988  139.2382  155.2055 C   0  0  0  0  0  0  0  0  0  0  0  0
  152.7663  139.2277  156.4019 O   0  0  0  0  0  0  0  0  0  0  0  0
  151.9888  139.3725  157.5819 C   0  0  0  0  0  0  0  0  0  0  0  0
  151.9181  140.8135  158.0612 C   0  0  0  0  0  0  0  0  0  0  0  0
  151.1470  141.7566  157.3493 C   0  0  0  0  0  0  0  0  0  0  0  0
  151.0893  143.0954  157.7816 C   0  0  0  0  0  0  0  0  0  0  0  0
  151.8046  143.4975  158.9261 C   0  0  0  0  0  0  0  0  0  0  0  0
  151.7475  145.1411  159.4470 Cl  0  0  0  0  0  0  0  0  0  0  0  0
  152.5705  142.5575  159.6429 C   0  0  0  0  0  0  0  0  0  0  0  0
  152.6241  141.2168  159.2140 C   0  0  0  0  0  0  0  0  0  0  0  0
  149.8837  135.1578  154.8825 C   0  0  0  0  0  0  0  0  0  0  0  0
  149.7498  133.8226  154.9991 C   0  0  0  0  0  0  0  0  0  0  0  0
  149.4349  132.8343  153.6173 Cl  0  0  0  0  0  0  0  0  0  0  0  0
  149.3283  137.7794  155.2476 H   0  0  0  0  0  0  0  0  0  0  0  0
  150.2378  137.9799  156.7068 H   0  0  0  0  0  0  0  0  0  0  0  0
  152.2695  137.0912  155.1361 H   0  0  0  0  0  0  0  0  0  0  0  0
  151.1391  136.7873  153.3327 H   0  0  0  0  0  0  0  0  0  0  0  0
  152.5896  139.6275  154.3749 H   0  0  0  0  0  0  0  0  0  0  0  0
  151.1585  139.9204  155.3181 H   0  0  0  0  0  0  0  0  0  0  0  0
  150.9737  139.0414  157.3623 H   0  0  0  0  0  0  0  0  0  0  0  0
  152.3695  138.7170  158.3671 H   0  0  0  0  0  0  0  0  0  0  0  0
  150.6058  141.4583  156.4630 H   0  0  0  0  0  0  0  0  0  0  0  0
  150.5060  143.8153  157.2264 H   0  0  0  0  0  0  0  0  0  0  0  0
  153.1203  142.8644  160.5205 H   0  0  0  0  0  0  0  0  0  0  0  0
  153.2167  140.5031  159.7673 H   0  0  0  0  0  0  0  0  0  0  0  0
  149.8047  135.6723  153.9361 H   0  0  0  0  0  0  0  0  0  0  0  0
  1  2  2  0  0  0  0
  2 21  1  0  0  0  0
  2  3  1  0  0  0  0
  3  4  1  0  0  0  0
  4  5  2  0  0  0  0
  4  6  1  0  0  0  0
  6  7  1  0  0  0  0
  6 20  1  0  0  0  0
  7  8  1  0  0  0  0
  7 23  1  0  0  0  0
  7 24  1  0  0  0  0
  8  9  1  0  0  0  0
  8 10  1  0  0  0  0
  8 25  1  0  0  0  0
  9 26  1  0  0  0  0
 10 11  1  0  0  0  0
 10 27  1  0  0  0  0
 10 28  1  0  0  0  0
 11 12  1  0  0  0  0
 12 13  1  0  0  0  0
 12 29  1  0  0  0  0
 12 30  1  0  0  0  0
 13 19  1  0  0  0  0
 13 14  2  0  0  0  0
 14 15  1  0  0  0  0
 14 31  1  0  0  0  0
 15 16  2  0  0  0  0
 15 32  1  0  0  0  0
 16 17  1  0  0  0  0
 16 18  1  0  0  0  0
 18 19  2  0  0  0  0
 18 33  1  0  0  0  0
 19 34  1  0  0  0  0
 20 21  2  0  0  0  0
 20 35  1  0  0  0  0
 21 22  1  0  0  0  0
M  CHG  1   3  -1
M  END
> <s_m_source_file>
AV-unprocessed.smi

> <i_m_source_file_index>
688

> <i_lp_mmshare_version>
43012

> <i_f3d_flags>
0

> <s_epik_input>
Tz1jMVtuSF1jKD1PKW4oW2NIXWMxQ2wpW0NIMl1bQ0BIXShbT0hdKVtDSDJdT1tDSDJdYzJbY0hdW2NIXWMoQ2wpW2NIXVtjSF0y

> <s_epik_cmdline>
J2VwaWtfcHl0aG9uJywgJy1waCcsICc3LjAnLCAnLXRuJywgJzgnLCAnLW1hJywgJzIwMCcsICctbWV0YWxfYmluZGluZycsICctaW1hZScsICc8aW5maWxlLm1hZT4nLCAnLW9tYWUnLCAnPG91dGZpbGUubWFlPic=

> <r_epik_Ionization_Penalty>
1.82111

> <r_epik_Ionization_Penalty_Charging>
5.03334e-08

> <r_epik_Ionization_Penalty_Neutral>
1.82111

> <r_epik_State_Penalty>
1.93633

> <r_epik_Charging_Adjusted_Penalty>
1.93633

> <i_epik_Tot_Q>
-1

> <i_epik_Tot_abs_Q>
1

> <r_epik_Metal_State_Penalty>
0.0147818

> <b_epik_Metal_Only>
0

> <s_lp_Force_Field>
OPLS_2005

> <r_lp_Energy>
20.5354

> <b_lp_Chiralities_Consistent>
1

> <s_lp_Variant>
AV-unprocessed.smi:688-4

> <Gold.Version>
5.8.1

> <Gold.Id.Protein>
6NUR|6NUR_protein|mol2

> <Gold.PLP.Fitness>
54.4290

> <Gold.PLP.PLP>
-43.0620

> <Gold.PLP.part.hbond>
-4.6904

> <Gold.PLP.part.metal>
0.0000

> <Gold.PLP.part.buried>
-4.3299

> <Gold.PLP.part.nonpolar>
-35.2232

> <Gold.PLP.part.repulsive>
0.0000

> <Gold.PLP.ligand.clash>
0.0000

> <Gold.PLP.ligand.torsion>
1.0610

> <Gold.PLP.Chemscore.Hbond>
3.4434

> <Gold.PLP.Chemscore.CHOScore>
1.0000

> <Gold.PLP.Chemscore.Metal>
0.0000

> <Gold.Chemscore.Hbonds>
donor molecule, donor type, donor heavy atom, donor atom, acceptor molecule, acceptor atom, score
      L1  H     9    26       P1  7949  0.56
      P1  H  6896  6909       L1     3  1.38
      P1  H  7997  8009       L1    11  1.00
      L1  C    20    35       P1  7948  0.84

> <Gold.PLP.Chemscore.Internal.Correction>
0.1586

> <Gold.Rescore>
     Score         DG    S(hbond)    S(metal)    S(lipo)     H(rot)  DE(clash)    DE(int)     intcor
     15.61     -17.11       1.84        0.00     109.41       2.85       0.09       1.41       ----

> <Gold.Chemscore.Fitness>
15.6088

> <Gold.Chemscore.DG>
-17.1134

> <Gold.Chemscore.ZeroCoef>
-5.4800

> <Gold.Chemscore.Hbond>
1.8379

> <Gold.Chemscore.Metal>
0.0000

> <Gold.Chemscore.Lipo>
109.4135

> <Gold.Chemscore.Internal_Hbond>
0.0000

> <Gold.Chemscore.DEClash>
0.0901

> <Gold.Chemscore.DEInternal>
1.4145

> <Gold.Chemscore.Rot>
2.8542

> <Gold.Chemscore.Internal.Correction>
   9.000000E+99

> <Gold.Chemscore.Hbonds>
donor molecule, donor type, donor heavy atom, donor atom, acceptor molecule, acceptor atom, score
      L1  H     9    26       P1  7949  0.24
      P1  H  6896  6909       L1     3  0.09
      P1  H  7997  8009       L1    11  0.78

> <Gold.Chemscore.Hbond.Weighted>
-6.1387

> <Gold.Chemscore.Metal.Weighted>
-0.0000

> <Gold.Chemscore.Lipo.Weighted>
-12.8014

> <Gold.Chemscore.Internal_Hbond.Weighted>
0.0000

> <Gold.Chemscore.DEClash.Weighted>
0.0901

> <Gold.Chemscore.DEInternal.Weighted>
1.4145

> <Gold.Chemscore.Rot.Weighted>
7.3067

> <Gold.Chemscore.Internal.Correction.Weighted>
   9.000000E+99

> <Gold.Protein.RotatedTorsions>
[ 6907 6896 6895 6894 ] final   14.77 input  -60.11 | X-H torsion
[ 7974 7965 7964 7962 ] final -127.54 input  175.53 | X-H torsion
[ 8008 7997 7996 7995 ] final -177.73 input   59.86 | X-H torsion
[ 10167 10162 10161 10158 ] final -123.93 input  -65.29 | X-H torsion
[ 10718 10713 10712 10709 ] final  -73.48 input   66.30 | X-H torsion
[ 10763 10752 10751 10750 ] final   32.92 input  -60.55 | X-H torsion
[ 11005 11000 10999 10996 ] final  128.74 input  -57.11 | X-H torsion

> <Gold.Protein.ActiveResidues>
 VAL166  LYS551  ARG553  GLY616  TRP617  ASP618  TYR619  PRO620  LYS621  CYS622 
 ASP623  PHE694  ASN695  SER759  ASP760  ASP761  ALA762  ILE779  LEU786  VAL792 
 PHE793  MET794  SER795  GLU796  ALA797  LYS798  CYS799  TRP800  GLU811  SER814 

> <Gold.Protein.RotatedAtoms>
  151.8075  135.0691  160.0408 H   0  0  0  0  0  0  0  0  0  0  0  0  # atno 6907 bound_to 6896
  152.3045  133.5684  159.5648 H   0  0  0  0  0  0  0  0  0  0  0  0  # atno 6908 bound_to 6896
  150.7289  134.0160  159.3727 H   0  0  0  0  0  0  0  0  0  0  0  0  # atno 6909 bound_to 6896
  144.9761  140.7594  143.4641 H   0  0  0  0  0  0  0  0  0  0  0  0  # atno 7974 bound_to 7965
  156.0105  140.1239  157.0459 H   0  0  0  0  0  0  0  0  0  0  0  0  # atno 8008 bound_to 7997
  154.4274  140.1089  156.5892 H   0  0  0  0  0  0  0  0  0  0  0  0  # atno 8009 bound_to 7997
  155.6087  140.3471  155.4618 H   0  0  0  0  0  0  0  0  0  0  0  0  # atno 8010 bound_to 7997
  139.9982  143.5568  152.2314 H   0  0  0  0  0  0  0  0  0  0  0  0  # atno 10167 bound_to 10162
  156.0279  130.4395  150.2749 H   0  0  0  0  0  0  0  0  0  0  0  0  # atno 10718 bound_to 10713
  153.0238  135.6400  154.1431 H   0  0  0  0  0  0  0  0  0  0  0  0  # atno 10763 bound_to 10752
  154.1162  135.2849  155.3221 H   0  0  0  0  0  0  0  0  0  0  0  0  # atno 10764 bound_to 10752
  154.6296  135.5497  153.7728 H   0  0  0  0  0  0  0  0  0  0  0  0  # atno 10765 bound_to 10752
  139.9577  134.9609  156.9047 H   0  0  0  0  0  0  0  0  0  0  0  0  # atno 11005 bound_to 11000
  145.2489  139.2040  143.4953 LP  0  0  0  0  0  0  0  0  0  0  0  0  # atno 17320 bound_to 7965
  146.3395  140.2398  142.8595 LP  0  0  0  0  0  0  0  0  0  0  0  0  # atno 17321 bound_to 7965
  139.6291  144.7641  151.2575 LP  0  0  0  0  0  0  0  0  0  0  0  0  # atno 17342 bound_to 10162
  140.7429  143.6512  150.8247 LP  0  0  0  0  0  0  0  0  0  0  0  0  # atno 17343 bound_to 10162
  157.0852  131.0154  151.3142 LP  0  0  0  0  0  0  0  0  0  0  0  0  # atno 17370 bound_to 10713
  157.4897  130.7814  149.7495 LP  0  0  0  0  0  0  0  0  0  0  0  0  # atno 17371 bound_to 10713
  140.5571  134.0571  155.7387 LP  0  0  0  0  0  0  0  0  0  0  0  0  # atno 17394 bound_to 11000
  141.1251  133.9397  157.2652 LP  0  0  0  0  0  0  0  0  0  0  0  0  # atno 17395 bound_to 11000

$$$$
