AV-unprocessed.smi:283|AV-procd|sdf|2147|dock10
  -GOLD-   2262021483D 1   1.00000     0.00000
 Structure written by MMmdl.
 48 51  0  0  0  0  0  0  0  0  1 V2000
  154.3702  141.3056  160.9861 C   0  0  0  0  0  0  0  0  0  0  0  0
  153.0637  141.3816  160.1851 C   0  0  2  0  0  0  0  0  0  0  0  0
  153.1884  140.5976  158.9566 N   0  0  0  0  0  0  0  0  0  0  0  0
  152.1548  139.8405  158.5274 C   0  0  0  0  0  0  0  0  0  0  0  0
  152.3068  138.5013  158.6595 N   0  0  0  0  0  0  0  0  0  0  0  0
  151.3562  137.6733  158.2175 C   0  0  0  0  0  0  0  0  0  0  0  0
  150.2033  137.9724  157.6164 N   0  0  0  0  0  0  0  0  0  0  0  0
  150.0370  139.3209  157.4906 C   0  0  0  0  0  0  0  0  0  0  0  0
  150.9477  140.3187  157.9396 C   0  0  0  0  0  0  0  0  0  0  0  0
  150.4109  141.5752  157.6893 N   0  0  0  0  0  0  0  0  0  0  0  0
  149.2692  141.3294  157.1093 C   0  0  0  0  0  0  0  0  0  0  0  0
  148.9904  139.9965  156.8957 N   0  0  0  0  0  0  0  0  0  0  0  0
  147.7816  139.3813  156.2540 C   0  0  1  0  0  0  0  0  0  0  0  0
  146.9666  140.4130  155.7743 O   0  0  0  0  0  0  0  0  0  0  0  0
  147.1389  140.5812  154.3696 C   0  0  1  0  0  0  0  0  0  0  0  0
  148.2800  141.5858  154.0855 C   0  0  0  0  0  0  0  0  0  0  0  0
  147.8313  142.9157  154.2452 O   0  0  0  0  0  0  0  0  0  0  0  0
  147.3695  139.1388  153.8995 C   0  0  1  0  0  0  0  0  0  0  0  0
  148.0650  139.0611  152.6704 O   0  0  0  0  0  0  0  0  0  0  0  0
  148.1689  138.5123  155.0371 C   0  0  2  0  0  0  0  0  0  0  0  0
  147.7797  137.1644  155.2117 O   0  0  0  0  0  0  0  0  0  0  0  0
  152.6508  142.8428  159.9756 C   0  0  0  0  0  0  0  0  0  0  0  0
  152.4148  143.3265  158.6673 C   0  0  0  0  0  0  0  0  0  0  0  0
  152.0127  144.6582  158.4546 C   0  0  0  0  0  0  0  0  0  0  0  0
  151.8532  145.5270  159.5488 C   0  0  0  0  0  0  0  0  0  0  0  0
  152.1047  145.0636  160.8530 C   0  0  0  0  0  0  0  0  0  0  0  0
  152.5069  143.7306  161.0721 C   0  0  0  0  0  0  0  0  0  0  0  0
  152.8153  143.2235  162.6963 Cl  0  0  0  0  0  0  0  0  0  0  0  0
  147.2946  138.8391  157.0656 H   0  0  0  0  0  0  0  0  0  0  0  0
  146.2089  140.9771  153.9590 H   0  0  0  0  0  0  0  0  0  0  0  0
  146.4002  138.6475  153.7973 H   0  0  0  0  0  0  0  0  0  0  0  0
  149.2403  138.5819  154.8431 H   0  0  0  0  0  0  0  0  0  0  0  0
  154.2695  141.8114  161.9469 H   0  0  0  0  0  0  0  0  0  0  0  0
  155.1948  141.7746  160.4481 H   0  0  0  0  0  0  0  0  0  0  0  0
  154.6488  140.2708  161.1879 H   0  0  0  0  0  0  0  0  0  0  0  0
  152.3035  140.8797  160.7806 H   0  0  0  0  0  0  0  0  0  0  0  0
  153.8969  140.9310  158.3195 H   0  0  0  0  0  0  0  0  0  0  0  0
  151.5525  136.6201  158.3539 H   0  0  0  0  0  0  0  0  0  0  0  0
  148.6058  142.1266  156.8081 H   0  0  0  0  0  0  0  0  0  0  0  0
  149.0899  141.4389  154.7994 H   0  0  0  0  0  0  0  0  0  0  0  0
  148.7006  141.4534  153.0881 H   0  0  0  0  0  0  0  0  0  0  0  0
  148.3632  143.3346  154.9046 H   0  0  0  0  0  0  0  0  0  0  0  0
  148.3448  138.1677  152.5401 H   0  0  0  0  0  0  0  0  0  0  0  0
  148.5396  136.6143  155.0989 H   0  0  0  0  0  0  0  0  0  0  0  0
  152.5325  142.6725  157.8157 H   0  0  0  0  0  0  0  0  0  0  0  0
  151.8260  145.0122  157.4516 H   0  0  0  0  0  0  0  0  0  0  0  0
  151.5439  146.5492  159.3876 H   0  0  0  0  0  0  0  0  0  0  0  0
  151.9895  145.7361  161.6903 H   0  0  0  0  0  0  0  0  0  0  0  0
  1  2  1  0  0  0  0
  1 33  1  0  0  0  0
  1 34  1  0  0  0  0
  1 35  1  0  0  0  0
  2  3  1  0  0  0  0
  2 22  1  0  0  0  0
  2 36  1  0  0  0  0
  3  4  1  0  0  0  0
  3 37  1  0  0  0  0
  4  9  1  0  0  0  0
  4  5  2  0  0  0  0
  5  6  1  0  0  0  0
  6  7  2  0  0  0  0
  6 38  1  0  0  0  0
  7  8  1  0  0  0  0
  8 12  1  0  0  0  0
  8  9  2  0  0  0  0
  9 10  1  0  0  0  0
 10 11  2  0  0  0  0
 11 12  1  0  0  0  0
 11 39  1  0  0  0  0
 12 13  1  0  0  0  0
 13 29  1  0  0  0  0
 13 20  1  0  0  0  0
 13 14  1  0  0  0  0
 14 15  1  0  0  0  0
 15 30  1  0  0  0  0
 15 16  1  0  0  0  0
 15 18  1  0  0  0  0
 16 17  1  0  0  0  0
 16 40  1  0  0  0  0
 16 41  1  0  0  0  0
 17 42  1  0  0  0  0
 18 31  1  0  0  0  0
 18 19  1  0  0  0  0
 18 20  1  0  0  0  0
 19 43  1  0  0  0  0
 20 32  1  0  0  0  0
 20 21  1  0  0  0  0
 21 44  1  0  0  0  0
 22 27  1  0  0  0  0
 22 23  2  0  0  0  0
 23 24  1  0  0  0  0
 23 45  1  0  0  0  0
 24 25  2  0  0  0  0
 24 46  1  0  0  0  0
 25 26  1  0  0  0  0
 25 47  1  0  0  0  0
 26 27  2  0  0  0  0
 26 48  1  0  0  0  0
 27 28  1  0  0  0  0
M  END
> <s_m_source_file>
AV-unprocessed.smi

> <i_m_source_file_index>
283

> <i_lp_mmshare_version>
43012

> <i_f3d_flags>
0

> <s_epik_input>
Q2xjMVtjSF1bY0hdW2NIXVtjSF1jMVtDQEhdKFtDSDNdKVtOSF1jKG5bY0hdbjIpYyhjMjMpbltjSF1uM1tDQEBIXTRPW0NASF0oW0NIMl1bT0hdKVtDQEBIXShbT0hdKVtDQEhdNFtPSF0=

> <s_epik_cmdline>
J2VwaWtfcHl0aG9uJywgJy1waCcsICc3LjAnLCAnLXRuJywgJzgnLCAnLW1hJywgJzIwMCcsICctbWV0YWxfYmluZGluZycsICctaW1hZScsICc8aW5maWxlLm1hZT4nLCAnLW9tYWUnLCAnPG91dGZpbGUubWFlPic=

> <r_lp_tautomer_probability>
1

> <r_epik_Ionization_Penalty>
0.000266407

> <r_epik_Ionization_Penalty_Charging>
0

> <r_epik_Ionization_Penalty_Neutral>
0.000266407

> <r_epik_State_Penalty>
-0

> <r_epik_Charging_Adjusted_Penalty>
0

> <i_epik_Tot_Q>
0

> <i_epik_Tot_abs_Q>
0

> <r_epik_Metal_State_Penalty>
-0

> <b_epik_Metal_Only>
0

> <s_epik_Chemistry_Notes>
This compound contains an acetal/aminal-like group ( X-CH(R)-Y where X, Y are N, S, or O) that may be acid/base labile, releasing an aldehyde.

> <s_lp_Force_Field>
OPLS_2005

> <r_lp_Energy>
42.7281

> <b_lp_Chiralities_Consistent>
1

> <s_lp_Variant>
AV-unprocessed.smi:283-23

> <Gold.Version>
5.8.1

> <Gold.Id.Protein>
6NUR|6NUR_protein|mol2

> <Gold.PLP.Fitness>
57.8340

> <Gold.PLP.PLP>
-52.9877

> <Gold.PLP.part.hbond>
-4.3617

> <Gold.PLP.part.metal>
0.0000

> <Gold.PLP.part.buried>
-3.7853

> <Gold.PLP.part.nonpolar>
-42.5992

> <Gold.PLP.part.repulsive>
0.1787

> <Gold.PLP.ligand.clash>
0.0000

> <Gold.PLP.ligand.torsion>
1.1833

> <Gold.PLP.Chemscore.Hbond>
1.9920

> <Gold.PLP.Chemscore.CHOScore>
0.3847

> <Gold.PLP.Chemscore.Metal>
0.0000

> <Gold.Chemscore.Hbonds>
donor molecule, donor type, donor heavy atom, donor atom, acceptor molecule, acceptor atom, score
      L1  H    17    42       P1  8028  0.96
      L1  H    19    43       P1  7948  0.80
      L1  C    11    39       P1  8028  0.22

> <Gold.PLP.Chemscore.Internal.Correction>
0.0828

> <Gold.Rescore>
     Score         DG    S(hbond)    S(metal)    S(lipo)     H(rot)  DE(clash)    DE(int)     intcor
     13.33     -17.23       1.91        0.00     135.57       4.10       0.77       3.12       ----

> <Gold.Chemscore.Fitness>
13.3337

> <Gold.Chemscore.DG>
-17.2252

> <Gold.Chemscore.ZeroCoef>
-5.4800

> <Gold.Chemscore.Hbond>
1.9077

> <Gold.Chemscore.Metal>
0.0000

> <Gold.Chemscore.Lipo>
135.5665

> <Gold.Chemscore.Internal_Hbond>
0.0000

> <Gold.Chemscore.DEClash>
0.7707

> <Gold.Chemscore.DEInternal>
3.1208

> <Gold.Chemscore.Rot>
4.0968

> <Gold.Chemscore.Internal.Correction>
   9.000000E+99

> <Gold.Chemscore.Hbonds>
donor molecule, donor type, donor heavy atom, donor atom, acceptor molecule, acceptor atom, score
      L1  H    17    42       P1  8028  0.91
      L1  H    19    43       P1  7948  0.79

> <Gold.Chemscore.Hbond.Weighted>
-6.3718

> <Gold.Chemscore.Metal.Weighted>
-0.0000

> <Gold.Chemscore.Lipo.Weighted>
-15.8613

> <Gold.Chemscore.Internal_Hbond.Weighted>
0.0000

> <Gold.Chemscore.DEClash.Weighted>
0.7707

> <Gold.Chemscore.DEInternal.Weighted>
3.1208

> <Gold.Chemscore.Rot.Weighted>
10.4879

> <Gold.Chemscore.Internal.Correction.Weighted>
   9.000000E+99

> <Gold.Protein.RotatedTorsions>
[ 6907 6896 6895 6894 ] final  110.74 input  -60.11 | X-H torsion
[ 7974 7965 7964 7962 ] final  -61.75 input  175.53 | X-H torsion
[ 8008 7997 7996 7995 ] final  141.49 input   59.86 | X-H torsion
[ 10167 10162 10161 10158 ] final  -96.50 input  -65.29 | X-H torsion
[ 10718 10713 10712 10709 ] final -169.80 input   66.30 | X-H torsion
[ 10763 10752 10751 10750 ] final  -66.09 input  -60.55 | X-H torsion
[ 11005 11000 10999 10996 ] final   91.54 input  -57.11 | X-H torsion

> <Gold.Protein.ActiveResidues>
 VAL166  LYS551  ARG553  GLY616  TRP617  ASP618  TYR619  PRO620  LYS621  CYS622 
 ASP623  PHE694  ASN695  SER759  ASP760  ASP761  ALA762  ILE779  LEU786  VAL792 
 PHE793  MET794  SER795  GLU796  ALA797  LYS798  CYS799  TRP800  GLU811  SER814 

> <Gold.Protein.RotatedAtoms>
  152.5005  133.8757  159.7320 H   0  0  0  0  0  0  0  0  0  0  0  0  # atno 6907 bound_to 6896
  150.9233  133.6846  159.2834 H   0  0  0  0  0  0  0  0  0  0  0  0  # atno 6908 bound_to 6896
  151.4215  135.1003  159.9668 H   0  0  0  0  0  0  0  0  0  0  0  0  # atno 6909 bound_to 6896
  145.7996  140.8663  143.0238 H   0  0  0  0  0  0  0  0  0  0  0  0  # atno 7974 bound_to 7965
  156.2965  140.2314  156.4572 H   0  0  0  0  0  0  0  0  0  0  0  0  # atno 8008 bound_to 7997
  154.8050  140.0446  157.1321 H   0  0  0  0  0  0  0  0  0  0  0  0  # atno 8009 bound_to 7997
  154.9490  140.3039  155.5088 H   0  0  0  0  0  0  0  0  0  0  0  0  # atno 8010 bound_to 7997
  140.2931  143.3209  152.0325 H   0  0  0  0  0  0  0  0  0  0  0  0  # atno 10167 bound_to 10162
  156.7168  130.9254  151.3094 H   0  0  0  0  0  0  0  0  0  0  0  0  # atno 10718 bound_to 10713
  154.3547  135.6129  153.5660 H   0  0  0  0  0  0  0  0  0  0  0  0  # atno 10763 bound_to 10752
  152.9796  135.5801  154.4703 H   0  0  0  0  0  0  0  0  0  0  0  0  # atno 10764 bound_to 10752
  154.4430  135.2850  155.1812 H   0  0  0  0  0  0  0  0  0  0  0  0  # atno 10765 bound_to 10752
  139.8837  134.8680  156.3442 H   0  0  0  0  0  0  0  0  0  0  0  0  # atno 11005 bound_to 11000
  144.6770  140.0240  143.7483 LP  0  0  0  0  0  0  0  0  0  0  0  0  # atno 17320 bound_to 7965
  145.9892  139.3001  143.0995 LP  0  0  0  0  0  0  0  0  0  0  0  0  # atno 17321 bound_to 7965
  139.4933  144.6510  151.6675 LP  0  0  0  0  0  0  0  0  0  0  0  0  # atno 17342 bound_to 10162
  140.5715  144.0101  150.6219 LP  0  0  0  0  0  0  0  0  0  0  0  0  # atno 17343 bound_to 10162
  157.6914  130.9237  150.0524 LP  0  0  0  0  0  0  0  0  0  0  0  0  # atno 17370 bound_to 10713
  156.1622  130.3644  149.9283 LP  0  0  0  0  0  0  0  0  0  0  0  0  # atno 17371 bound_to 10713
  140.9638  133.7371  156.0438 LP  0  0  0  0  0  0  0  0  0  0  0  0  # atno 17394 bound_to 11000
  140.7957  134.3567  157.5453 LP  0  0  0  0  0  0  0  0  0  0  0  0  # atno 17395 bound_to 11000

$$$$
