AV-unprocessed.smi:1665|AV-procd|sdf|6669|dock10
  -GOLD-   22720 7383D 1   1.00000     0.00000
 Structure written by MMmdl.
 37 38  0  0  0  0  0  0  0  0  1 V2000
  146.8065  142.6324  154.0595 C   0  0  0  0  0  0  0  0  0  0  0  0
  148.0358  141.7110  154.1002 C   0  0  2  0  0  0  0  0  0  0  0  0
  147.6261  140.2348  154.2637 C   0  0  0  0  0  0  0  0  0  0  0  0
  146.6618  140.0414  155.3326 N   0  0  0  0  0  0  0  0  0  0  0  0
  145.3534  139.6165  155.2395 C   0  0  0  0  0  0  0  0  0  0  0  0
  144.8447  139.5896  156.5063 C   0  0  0  0  0  0  0  0  0  0  0  0
  145.9324  140.0199  157.3167 C   0  0  0  0  0  0  0  0  0  0  0  0
  147.0193  140.2865  156.6118 N   0  0  0  0  0  0  0  0  0  0  0  0
  148.9276  142.1061  155.1881 N   0  0  0  0  0  0  0  0  0  0  0  0
  150.0008  141.4169  155.6022 C   0  0  0  0  0  0  0  0  0  0  0  0
  150.3985  140.3882  155.0554 O   0  0  0  0  0  0  0  0  0  0  0  0
  150.7291  141.9665  156.8326 C   0  0  0  0  0  0  0  0  0  0  0  0
  151.8829  141.0604  157.3152 C   0  0  0  0  0  0  0  0  0  0  0  0
  152.4230  141.4587  158.6176 N   0  0  0  0  0  0  0  0  0  0  0  0
  151.8595  142.6080  159.3125 C   0  0  0  0  0  0  0  0  0  0  0  0
  152.8325  142.9896  160.4289 C   0  0  0  0  0  0  0  0  0  0  0  0
  153.7593  141.5049  160.8660 S   0  0  0  0  0  0  0  0  0  0  0  0
  153.3815  140.7181  159.2960 C   0  0  0  0  0  0  0  0  0  0  0  0
  153.9233  139.6746  158.9361 O   0  0  0  0  0  0  0  0  0  0  0  0
  146.1440  142.3635  153.2366 H   0  0  0  0  0  0  0  0  0  0  0  0
  147.0950  143.6745  153.9185 H   0  0  0  0  0  0  0  0  0  0  0  0
  146.2318  142.5684  154.9842 H   0  0  0  0  0  0  0  0  0  0  0  0
  148.5679  141.8097  153.1519 H   0  0  0  0  0  0  0  0  0  0  0  0
  147.2116  139.8448  153.3323 H   0  0  0  0  0  0  0  0  0  0  0  0
  148.5024  139.6267  154.4913 H   0  0  0  0  0  0  0  0  0  0  0  0
  144.8997  139.3710  154.2907 H   0  0  0  0  0  0  0  0  0  0  0  0
  143.8486  139.3031  156.8094 H   0  0  0  0  0  0  0  0  0  0  0  0
  145.9660  140.1389  158.3896 H   0  0  0  0  0  0  0  0  0  0  0  0
  148.6748  142.9390  155.7007 H   0  0  0  0  0  0  0  0  0  0  0  0
  151.1227  142.9517  156.5812 H   0  0  0  0  0  0  0  0  0  0  0  0
  150.0165  142.1237  157.6437 H   0  0  0  0  0  0  0  0  0  0  0  0
  151.5443  140.0243  157.3626 H   0  0  0  0  0  0  0  0  0  0  0  0
  152.6883  141.0733  156.5795 H   0  0  0  0  0  0  0  0  0  0  0  0
  151.6888  143.4451  158.6349 H   0  0  0  0  0  0  0  0  0  0  0  0
  150.8952  142.3180  159.7319 H   0  0  0  0  0  0  0  0  0  0  0  0
  153.5427  143.7321  160.0636 H   0  0  0  0  0  0  0  0  0  0  0  0
  152.3248  143.4111  161.2965 H   0  0  0  0  0  0  0  0  0  0  0  0
  1  2  1  0  0  0  0
  1 20  1  0  0  0  0
  1 21  1  0  0  0  0
  1 22  1  0  0  0  0
  2  3  1  0  0  0  0
  2  9  1  0  0  0  0
  2 23  1  0  0  0  0
  3  4  1  0  0  0  0
  3 24  1  0  0  0  0
  3 25  1  0  0  0  0
  4  8  1  0  0  0  0
  4  5  1  0  0  0  0
  5  6  2  0  0  0  0
  5 26  1  0  0  0  0
  6  7  1  0  0  0  0
  6 27  1  0  0  0  0
  7  8  2  0  0  0  0
  7 28  1  0  0  0  0
  9 10  1  0  0  0  0
  9 29  1  0  0  0  0
 10 11  2  0  0  0  0
 10 12  1  0  0  0  0
 12 13  1  0  0  0  0
 12 30  1  0  0  0  0
 12 31  1  0  0  0  0
 13 14  1  0  0  0  0
 13 32  1  0  0  0  0
 13 33  1  0  0  0  0
 14 18  1  0  0  0  0
 14 15  1  0  0  0  0
 15 16  1  0  0  0  0
 15 34  1  0  0  0  0
 15 35  1  0  0  0  0
 16 17  1  0  0  0  0
 16 36  1  0  0  0  0
 16 37  1  0  0  0  0
 17 18  1  0  0  0  0
 18 19  2  0  0  0  0
M  END
> <s_m_source_file>
AV-unprocessed.smi

> <i_m_source_file_index>
1665

> <i_lp_mmshare_version>
43012

> <i_f3d_flags>
0

> <s_epik_input>
bjFbY0hdW2NIXVtjSF1uMVtDSDJdW0NAQEhdKFtDSDNdKVtOSF1DKD1PKVtDSDJdW0NIMl1OMltDSDJdW0NIMl1TQzI9Tw==

> <s_epik_cmdline>
J2VwaWtfcHl0aG9uJywgJy1waCcsICc3LjAnLCAnLXRuJywgJzgnLCAnLW1hJywgJzIwMCcsICctbWV0YWxfYmluZGluZycsICctaW1hZScsICc8aW5maWxlLm1hZT4nLCAnLW9tYWUnLCAnPG91dGZpbGUubWFlPic=

> <r_lp_tautomer_probability>
1

> <r_epik_Ionization_Penalty>
0.000300775

> <r_epik_Ionization_Penalty_Charging>
0

> <r_epik_Ionization_Penalty_Neutral>
0.000300775

> <r_epik_State_Penalty>
-0

> <r_epik_Charging_Adjusted_Penalty>
0

> <i_epik_Tot_Q>
0

> <i_epik_Tot_abs_Q>
0

> <r_epik_Metal_State_Penalty>
-0

> <b_epik_Metal_Only>
0

> <s_lp_Force_Field>
OPLS_2005

> <r_lp_Energy>
0.465271

> <b_lp_Chiralities_Consistent>
1

> <s_lp_Variant>
AV-unprocessed.smi:1665-1

> <Gold.Version>
5.8.1

> <Gold.Id.Protein>
6NUR|6NUR_protein|mol2

> <Gold.PLP.Fitness>
45.3549

> <Gold.PLP.PLP>
-34.4077

> <Gold.PLP.part.hbond>
-3.0000

> <Gold.PLP.part.metal>
0.0000

> <Gold.PLP.part.buried>
-5.5976

> <Gold.PLP.part.nonpolar>
-25.4558

> <Gold.PLP.part.repulsive>
0.2526

> <Gold.PLP.ligand.clash>
0.0000

> <Gold.PLP.ligand.torsion>
0.2697

> <Gold.PLP.Chemscore.Hbond>
2.8000

> <Gold.PLP.Chemscore.CHOScore>
1.0000

> <Gold.PLP.Chemscore.Metal>
0.0000

> <Gold.Chemscore.Hbonds>
donor molecule, donor type, donor heavy atom, donor atom, acceptor molecule, acceptor atom, score
      L1  H     9    29       P1  8028  0.82
      P1  H  7989  7998       L1    11  0.98
      P1  H  7997  8008       L1    19  1.00
      L1  C     5    26       P1 10175  1.00

> <Gold.PLP.Chemscore.Internal.Correction>
0.0866

> <Gold.Rescore>
     Score         DG    S(hbond)    S(metal)    S(lipo)     H(rot)  DE(clash)    DE(int)     intcor
     14.59     -16.15       2.53        0.00      67.31       2.20       0.36       1.20       ----

> <Gold.Chemscore.Fitness>
14.5938

> <Gold.Chemscore.DG>
-16.1536

> <Gold.Chemscore.ZeroCoef>
-5.4800

> <Gold.Chemscore.Hbond>
2.5259

> <Gold.Chemscore.Metal>
0.0000

> <Gold.Chemscore.Lipo>
67.3149

> <Gold.Chemscore.Internal_Hbond>
0.0000

> <Gold.Chemscore.DEClash>
0.3615

> <Gold.Chemscore.DEInternal>
1.1983

> <Gold.Chemscore.Rot>
2.2026

> <Gold.Chemscore.Internal.Correction>
   9.000000E+99

> <Gold.Chemscore.Hbonds>
donor molecule, donor type, donor heavy atom, donor atom, acceptor molecule, acceptor atom, score
      L1  H     9    29       P1  8028  0.81
      P1  H  7989  7998       L1    11  0.62
      P1  H  7997  8008       L1    19  0.68

> <Gold.Chemscore.Hbond.Weighted>
-8.4364

> <Gold.Chemscore.Metal.Weighted>
-0.0000

> <Gold.Chemscore.Lipo.Weighted>
-7.8758

> <Gold.Chemscore.Internal_Hbond.Weighted>
0.0000

> <Gold.Chemscore.DEClash.Weighted>
0.3615

> <Gold.Chemscore.DEInternal.Weighted>
1.1983

> <Gold.Chemscore.Rot.Weighted>
5.6387

> <Gold.Chemscore.Internal.Correction.Weighted>
   9.000000E+99

> <Gold.Protein.RotatedTorsions>
[ 6907 6896 6895 6894 ] final   38.60 input  -60.11 | X-H torsion
[ 7974 7965 7964 7962 ] final -115.74 input  175.53 | X-H torsion
[ 8008 7997 7996 7995 ] final -110.40 input   59.86 | X-H torsion
[ 10167 10162 10161 10158 ] final   61.72 input  -65.29 | X-H torsion
[ 10718 10713 10712 10709 ] final  -10.22 input   66.30 | X-H torsion
[ 10763 10752 10751 10750 ] final   37.66 input  -60.55 | X-H torsion
[ 11005 11000 10999 10996 ] final   72.25 input  -57.11 | X-H torsion

> <Gold.Protein.ActiveResidues>
 VAL166  LYS551  ARG553  GLY616  TRP617  ASP618  TYR619  PRO620  LYS621  CYS622 
 ASP623  PHE694  ASN695  SER759  ASP760  ASP761  ALA762  ILE779  LEU786  VAL792 
 PHE793  MET794  SER795  GLU796  ALA797  LYS798  CYS799  TRP800  GLU811  SER814 

> <Gold.Protein.RotatedAtoms>
  152.1585  134.8931  160.0543 H   0  0  0  0  0  0  0  0  0  0  0  0  # atno 6907 bound_to 6896
  151.9936  133.3795  159.4162 H   0  0  0  0  0  0  0  0  0  0  0  0  # atno 6908 bound_to 6896
  150.6884  134.3833  159.5087 H   0  0  0  0  0  0  0  0  0  0  0  0  # atno 6909 bound_to 6896
  145.1048  140.8575  143.3904 H   0  0  0  0  0  0  0  0  0  0  0  0  # atno 7974 bound_to 7965
  154.9739  140.0397  157.2247 H   0  0  0  0  0  0  0  0  0  0  0  0  # atno 8008 bound_to 7997
  154.7776  140.2813  155.6066 H   0  0  0  0  0  0  0  0  0  0  0  0  # atno 8009 bound_to 7997
  156.2931  140.2598  156.2593 H   0  0  0  0  0  0  0  0  0  0  0  0  # atno 8010 bound_to 7997
  140.1517  144.4456  150.6756 H   0  0  0  0  0  0  0  0  0  0  0  0  # atno 10167 bound_to 10162
  156.6766  130.5025  149.5984 H   0  0  0  0  0  0  0  0  0  0  0  0  # atno 10718 bound_to 10713
  153.0029  135.6271  154.2180 H   0  0  0  0  0  0  0  0  0  0  0  0  # atno 10763 bound_to 10752
  154.1924  135.2808  155.3019 H   0  0  0  0  0  0  0  0  0  0  0  0  # atno 10764 bound_to 10752
  154.5749  135.5665  153.7189 H   0  0  0  0  0  0  0  0  0  0  0  0  # atno 10765 bound_to 10752
  139.9501  134.7243  156.0884 H   0  0  0  0  0  0  0  0  0  0  0  0  # atno 11005 bound_to 11000
  145.0914  139.2888  143.5733 LP  0  0  0  0  0  0  0  0  0  0  0  0  # atno 17320 bound_to 7965
  146.3528  140.0452  142.8640 LP  0  0  0  0  0  0  0  0  0  0  0  0  # atno 17321 bound_to 7965
  140.6698  143.2281  151.5653 LP  0  0  0  0  0  0  0  0  0  0  0  0  # atno 17342 bound_to 10162
  139.5423  144.2615  152.1374 LP  0  0  0  0  0  0  0  0  0  0  0  0  # atno 17343 bound_to 10162
  156.1899  130.6553  151.1049 LP  0  0  0  0  0  0  0  0  0  0  0  0  # atno 17370 bound_to 10713
  157.7058  131.0757  150.6670 LP  0  0  0  0  0  0  0  0  0  0  0  0  # atno 17371 bound_to 10713
  141.1161  133.6627  156.3098 LP  0  0  0  0  0  0  0  0  0  0  0  0  # atno 17394 bound_to 11000
  140.5740  134.5812  157.5464 LP  0  0  0  0  0  0  0  0  0  0  0  0  # atno 17395 bound_to 11000

$$$$
