AV-unprocessed.smi:980|AV-procd|sdf|4312|dock7
  -GOLD-   22720 2223D 1   1.00000     0.00000
 Structure written by MMmdl.
 44 45  0  0  0  0  0  0  0  0  1 V2000
  147.5731  141.8547  154.3524 C   0  0  0  0  0  0  0  0  0  0  0  0
  147.2216  140.3832  154.6594 C   0  0  0  0  0  0  0  0  0  0  0  0
  146.1161  140.3728  155.7337 C   0  0  0  0  0  0  0  0  0  0  0  0
  146.6973  139.7388  153.3608 C   0  0  0  0  0  0  0  0  0  0  0  0
  148.4350  139.6235  155.1582 C   0  0  0  0  0  0  0  0  0  0  0  0
  149.6371  139.4272  154.5167 C   0  0  0  0  0  0  0  0  0  0  0  0
  150.7442  138.4702  155.4614 S   0  0  0  0  0  0  0  0  0  0  0  0
  149.5316  138.3779  156.7288 C   0  0  0  0  0  0  0  0  0  0  0  0
  149.7286  137.6151  157.9953 C   0  0  0  0  0  0  0  0  0  0  0  0
  150.9446  138.1144  158.7925 C   0  0  0  0  0  0  0  0  0  0  0  0
  150.8947  139.5546  159.0149 N   0  0  0  0  0  0  0  0  0  0  0  0
  151.8895  140.4140  158.7449 C   0  0  0  0  0  0  0  0  0  0  0  0
  152.9764  140.0648  158.2834 O   0  0  0  0  0  0  0  0  0  0  0  0
  151.6112  141.8951  159.0351 C   0  0  1  0  0  0  0  0  0  0  0  0
  152.6203  142.4663  160.0573 C   0  0  0  0  0  0  0  0  0  0  0  0
  152.5245  143.9778  160.1715 C   0  0  0  0  0  0  0  0  0  0  0  0
  151.9006  144.7497  159.2650 C   0  0  0  0  0  0  0  0  0  0  0  0
  151.2268  144.1993  158.0204 C   0  0  0  0  0  0  0  0  0  0  0  0
  151.6217  142.7363  157.7425 C   0  0  0  0  0  0  0  0  0  0  0  0
  148.3979  139.0099  156.4177 N   0  0  0  0  0  0  0  0  0  0  0  0
  146.7019  142.4049  153.9950 H   0  0  0  0  0  0  0  0  0  0  0  0
  148.3412  141.9310  153.5817 H   0  0  0  0  0  0  0  0  0  0  0  0
  147.9398  142.3720  155.2399 H   0  0  0  0  0  0  0  0  0  0  0  0
  146.4628  140.8262  156.6631 H   0  0  0  0  0  0  0  0  0  0  0  0
  145.7896  139.3583  155.9656 H   0  0  0  0  0  0  0  0  0  0  0  0
  145.2367  140.9275  155.4048 H   0  0  0  0  0  0  0  0  0  0  0  0
  145.8317  140.2755  152.9713 H   0  0  0  0  0  0  0  0  0  0  0  0
  146.3917  138.7042  153.5201 H   0  0  0  0  0  0  0  0  0  0  0  0
  147.4614  139.7388  152.5825 H   0  0  0  0  0  0  0  0  0  0  0  0
  149.9415  139.7799  153.5427 H   0  0  0  0  0  0  0  0  0  0  0  0
  148.8234  137.7041  158.5969 H   0  0  0  0  0  0  0  0  0  0  0  0
  149.8383  136.5577  157.7506 H   0  0  0  0  0  0  0  0  0  0  0  0
  151.0166  137.5913  159.7477 H   0  0  0  0  0  0  0  0  0  0  0  0
  151.8617  137.8914  158.2466 H   0  0  0  0  0  0  0  0  0  0  0  0
  150.0354  139.9280  159.3911 H   0  0  0  0  0  0  0  0  0  0  0  0
  150.6123  141.9738  159.4689 H   0  0  0  0  0  0  0  0  0  0  0  0
  152.4348  142.0317  161.0403 H   0  0  0  0  0  0  0  0  0  0  0  0
  153.6466  142.2133  159.7873 H   0  0  0  0  0  0  0  0  0  0  0  0
  152.9992  144.4331  161.0283 H   0  0  0  0  0  0  0  0  0  0  0  0
  151.8538  145.8189  159.4114 H   0  0  0  0  0  0  0  0  0  0  0  0
  150.1481  144.2786  158.1577 H   0  0  0  0  0  0  0  0  0  0  0  0
  151.4854  144.8233  157.1646 H   0  0  0  0  0  0  0  0  0  0  0  0
  152.6203  142.7153  157.3026 H   0  0  0  0  0  0  0  0  0  0  0  0
  150.9488  142.3106  156.9966 H   0  0  0  0  0  0  0  0  0  0  0  0
  1  2  1  0  0  0  0
  1 21  1  0  0  0  0
  1 22  1  0  0  0  0
  1 23  1  0  0  0  0
  2  3  1  0  0  0  0
  2  4  1  0  0  0  0
  2  5  1  0  0  0  0
  3 24  1  0  0  0  0
  3 25  1  0  0  0  0
  3 26  1  0  0  0  0
  4 27  1  0  0  0  0
  4 28  1  0  0  0  0
  4 29  1  0  0  0  0
  5 20  1  0  0  0  0
  5  6  2  0  0  0  0
  6  7  1  0  0  0  0
  6 30  1  0  0  0  0
  7  8  1  0  0  0  0
  8  9  1  0  0  0  0
  8 20  2  0  0  0  0
  9 10  1  0  0  0  0
  9 31  1  0  0  0  0
  9 32  1  0  0  0  0
 10 11  1  0  0  0  0
 10 33  1  0  0  0  0
 10 34  1  0  0  0  0
 11 12  1  0  0  0  0
 11 35  1  0  0  0  0
 12 13  2  0  0  0  0
 12 14  1  0  0  0  0
 14 19  1  0  0  0  0
 14 15  1  0  0  0  0
 14 36  1  0  0  0  0
 15 16  1  0  0  0  0
 15 37  1  0  0  0  0
 15 38  1  0  0  0  0
 16 17  2  0  0  0  0
 16 39  1  0  0  0  0
 17 18  1  0  0  0  0
 17 40  1  0  0  0  0
 18 19  1  0  0  0  0
 18 41  1  0  0  0  0
 18 42  1  0  0  0  0
 19 43  1  0  0  0  0
 19 44  1  0  0  0  0
M  END
> <s_m_source_file>
AV-unprocessed.smi

> <i_m_source_file_index>
980

> <i_lp_mmshare_version>
43012

> <i_f3d_flags>
0

> <s_epik_input>
W0NIM11DKFtDSDNdKShbQ0gzXSljMVtjSF1zYyhuMSlbQ0gyXVtDSDJdW05IXUMoPU8pW0NAQEhdMltDSDJdW0NIXT1bQ0hdW0NIMl1bQ0gyXTI=

> <s_epik_cmdline>
J2VwaWtfcHl0aG9uJywgJy1waCcsICc3LjAnLCAnLXRuJywgJzgnLCAnLW1hJywgJzIwMCcsICctbWV0YWxfYmluZGluZycsICctaW1hZScsICc8aW5maWxlLm1hZT4nLCAnLW9tYWUnLCAnPG91dGZpbGUubWFlPic=

> <r_epik_Ionization_Penalty>
0.000809238

> <r_epik_Ionization_Penalty_Charging>
0

> <r_epik_Ionization_Penalty_Neutral>
0.000809238

> <r_epik_State_Penalty>
0.000520038

> <r_epik_Charging_Adjusted_Penalty>
0.000520038

> <i_epik_Tot_Q>
0

> <i_epik_Tot_abs_Q>
0

> <r_epik_Metal_State_Penalty>
-0

> <b_epik_Metal_Only>
0

> <s_lp_Force_Field>
OPLS_2005

> <r_lp_Energy>
-0.741004

> <b_lp_Chiralities_Consistent>
1

> <s_lp_Variant>
AV-unprocessed.smi:980-2

> <Gold.Version>
5.8.1

> <Gold.Id.Protein>
6NUR|6NUR_protein|mol2

> <Gold.PLP.Fitness>
43.1704

> <Gold.PLP.PLP>
-37.3294

> <Gold.PLP.part.hbond>
-1.0000

> <Gold.PLP.part.metal>
0.0000

> <Gold.PLP.part.buried>
-3.2118

> <Gold.PLP.part.nonpolar>
-32.2182

> <Gold.PLP.part.repulsive>
0.1886

> <Gold.PLP.ligand.clash>
0.0000

> <Gold.PLP.ligand.torsion>
0.0837

> <Gold.PLP.Chemscore.Hbond>
0.9920

> <Gold.PLP.Chemscore.CHOScore>
1.0000

> <Gold.PLP.Chemscore.Metal>
0.0000

> <Gold.Chemscore.Hbonds>
donor molecule, donor type, donor heavy atom, donor atom, acceptor molecule, acceptor atom, score
      P1  H  7997  8008       L1    13  0.93
      L1  C     6    30       P1  7957  1.00

> <Gold.PLP.Chemscore.Internal.Correction>
0.0324

> <Gold.Rescore>
     Score         DG    S(hbond)    S(metal)    S(lipo)     H(rot)  DE(clash)    DE(int)     intcor
     18.00     -18.42       0.92        0.00     115.10       1.41       0.06       0.36       ----

> <Gold.Chemscore.Fitness>
17.9965

> <Gold.Chemscore.DG>
-18.4173

> <Gold.Chemscore.ZeroCoef>
-5.4800

> <Gold.Chemscore.Hbond>
0.9218

> <Gold.Chemscore.Metal>
0.0000

> <Gold.Chemscore.Lipo>
115.1042

> <Gold.Chemscore.Internal_Hbond>
0.0000

> <Gold.Chemscore.DEClash>
0.0629

> <Gold.Chemscore.DEInternal>
0.3580

> <Gold.Chemscore.Rot>
1.4097

> <Gold.Chemscore.Internal.Correction>
   9.000000E+99

> <Gold.Chemscore.Hbonds>
donor molecule, donor type, donor heavy atom, donor atom, acceptor molecule, acceptor atom, score
      P1  H  7997  8008       L1    13  0.85

> <Gold.Chemscore.Hbond.Weighted>
-3.0788

> <Gold.Chemscore.Metal.Weighted>
-0.0000

> <Gold.Chemscore.Lipo.Weighted>
-13.4672

> <Gold.Chemscore.Internal_Hbond.Weighted>
0.0000

> <Gold.Chemscore.DEClash.Weighted>
0.0629

> <Gold.Chemscore.DEInternal.Weighted>
0.3580

> <Gold.Chemscore.Rot.Weighted>
3.6087

> <Gold.Chemscore.Internal.Correction.Weighted>
   9.000000E+99

> <Gold.Protein.RotatedTorsions>
[ 6907 6896 6895 6894 ] final  176.64 input  -60.11 | X-H torsion
[ 7974 7965 7964 7962 ] final  102.85 input  175.53 | X-H torsion
[ 8008 7997 7996 7995 ] final  -91.32 input   59.86 | X-H torsion
[ 10167 10162 10161 10158 ] final  -78.48 input  -65.29 | X-H torsion
[ 10718 10713 10712 10709 ] final  -95.34 input   66.30 | X-H torsion
[ 10763 10752 10751 10750 ] final   85.02 input  -60.55 | X-H torsion
[ 11005 11000 10999 10996 ] final  124.45 input  -57.11 | X-H torsion

> <Gold.Protein.ActiveResidues>
 VAL166  LYS551  ARG553  GLY616  TRP617  ASP618  TYR619  PRO620  LYS621  CYS622 
 ASP623  PHE694  ASN695  SER759  ASP760  ASP761  ALA762  ILE779  LEU786  VAL792 
 PHE793  MET794  SER795  GLU796  ALA797  LYS798  CYS799  TRP800  GLU811  SER814 

> <Gold.Protein.RotatedAtoms>
  151.7168  133.3313  159.3304 H   0  0  0  0  0  0  0  0  0  0  0  0  # atno 6907 bound_to 6896
  150.7670  134.6483  159.6284 H   0  0  0  0  0  0  0  0  0  0  0  0  # atno 6908 bound_to 6896
  152.3677  134.6783  160.0238 H   0  0  0  0  0  0  0  0  0  0  0  0  # atno 6909 bound_to 6896
  145.3536  139.2433  143.3545 H   0  0  0  0  0  0  0  0  0  0  0  0  # atno 7974 bound_to 7965
  154.7093  140.0521  157.0535 H   0  0  0  0  0  0  0  0  0  0  0  0  # atno 8008 bound_to 7997
  155.0576  140.3186  155.4652 H   0  0  0  0  0  0  0  0  0  0  0  0  # atno 8009 bound_to 7997
  156.2784  140.2104  156.5703 H   0  0  0  0  0  0  0  0  0  0  0  0  # atno 8010 bound_to 7997
  140.4679  143.2435  151.8250 H   0  0  0  0  0  0  0  0  0  0  0  0  # atno 10167 bound_to 10162
  156.0042  130.5105  150.6061 H   0  0  0  0  0  0  0  0  0  0  0  0  # atno 10718 bound_to 10713
  153.1436  135.4632  154.9533 H   0  0  0  0  0  0  0  0  0  0  0  0  # atno 10763 bound_to 10752
  154.7768  135.3175  154.8078 H   0  0  0  0  0  0  0  0  0  0  0  0  # atno 10764 bound_to 10752
  153.8596  135.6914  153.4838 H   0  0  0  0  0  0  0  0  0  0  0  0  # atno 10765 bound_to 10752
  139.9359  134.9639  156.8410 H   0  0  0  0  0  0  0  0  0  0  0  0  # atno 11005 bound_to 11000
  146.2957  140.4157  142.8722 LP  0  0  0  0  0  0  0  0  0  0  0  0  # atno 17320 bound_to 7965
  144.8699  140.7258  143.6053 LP  0  0  0  0  0  0  0  0  0  0  0  0  # atno 17321 bound_to 7965
  139.4814  144.4928  151.9162 LP  0  0  0  0  0  0  0  0  0  0  0  0  # atno 17342 bound_to 10162
  140.4014  144.2488  150.5893 LP  0  0  0  0  0  0  0  0  0  0  0  0  # atno 17343 bound_to 10162
  157.3902  131.0794  151.1400 LP  0  0  0  0  0  0  0  0  0  0  0  0  # atno 17370 bound_to 10713
  157.2095  130.6431  149.5768 LP  0  0  0  0  0  0  0  0  0  0  0  0  # atno 17371 bound_to 10713
  140.6077  134.0112  155.7563 LP  0  0  0  0  0  0  0  0  0  0  0  0  # atno 17394 bound_to 11000
  141.0972  133.9824  157.3140 LP  0  0  0  0  0  0  0  0  0  0  0  0  # atno 17395 bound_to 11000

$$$$
