AV-unprocessed.smi:517|AV-procd|sdf|2790|dock8
  -GOLD-   2262023263D 1   1.00000     0.00000
 Structure written by MMmdl.
 36 37  0  0  0  0  0  0  0  0  2 V2000
  154.8954  140.5008  162.2517 C   0  0  0  0  0  0  0  0  0  0  0  0
  154.7107  140.7453  160.7524 C   0  0  0  0  0  0  0  0  0  0  0  0
  153.4358  140.2620  160.3686 O   0  0  0  0  0  0  0  0  0  0  0  0
  153.2302  140.2919  158.9653 C   0  0  0  0  0  0  0  0  0  0  0  0
  151.7241  140.3595  158.6755 C   0  0  0  0  0  0  0  0  0  0  0  0
  151.2899  141.7207  158.3298 N   0  0  0  0  0  0  0  0  0  0  0  0
  150.5703  142.1772  157.2633 C   0  0  0  0  0  0  0  0  0  0  0  0
  150.0374  141.3694  156.1203 C   0  0  2  0  0  0  0  0  0  0  0  0
  151.1323  140.4730  155.5279 C   0  0  0  0  0  0  0  0  0  0  0  0
  149.5107  142.1845  155.0944 O   0  0  0  0  0  0  0  0  0  0  0  0
  150.4367  143.5258  157.4183 N   0  3  0  0  0  0  0  0  0  0  0  0
  151.0626  143.9325  158.5968 C   0  0  0  0  0  0  0  0  0  0  0  0
  151.1880  145.1920  159.1752 C   0  0  0  0  0  0  0  0  0  0  0  0
  151.8928  145.2607  160.3950 C   0  0  0  0  0  0  0  0  0  0  0  0
  152.4378  144.1064  160.9942 C   0  0  0  0  0  0  0  0  0  0  0  0
  152.3038  142.8349  160.3983 C   0  0  0  0  0  0  0  0  0  0  0  0
  151.6094  142.7766  159.1901 C   0  0  0  0  0  0  0  0  0  0  0  0
  155.8681  140.8598  162.5886 H   0  0  0  0  0  0  0  0  0  0  0  0
  154.8318  139.4377  162.4851 H   0  0  0  0  0  0  0  0  0  0  0  0
  154.1287  141.0177  162.8293 H   0  0  0  0  0  0  0  0  0  0  0  0
  154.7909  141.8116  160.5363 H   0  0  0  0  0  0  0  0  0  0  0  0
  155.4931  140.2329  160.1907 H   0  0  0  0  0  0  0  0  0  0  0  0
  153.7334  141.1585  158.5337 H   0  0  0  0  0  0  0  0  0  0  0  0
  153.6578  139.4013  158.5029 H   0  0  0  0  0  0  0  0  0  0  0  0
  151.4473  139.6796  157.8694 H   0  0  0  0  0  0  0  0  0  0  0  0
  151.1581  140.0404  159.5510 H   0  0  0  0  0  0  0  0  0  0  0  0
  149.2213  140.7419  156.4781 H   0  0  0  0  0  0  0  0  0  0  0  0
  151.5322  139.7946  156.2823 H   0  0  0  0  0  0  0  0  0  0  0  0
  151.9625  141.0618  155.1363 H   0  0  0  0  0  0  0  0  0  0  0  0
  150.7422  139.8635  154.7120 H   0  0  0  0  0  0  0  0  0  0  0  0
  149.4196  143.0641  155.4282 H   0  0  0  0  0  0  0  0  0  0  0  0
  150.7690  146.0771  158.7192 H   0  0  0  0  0  0  0  0  0  0  0  0
  152.0168  146.2173  160.8816 H   0  0  0  0  0  0  0  0  0  0  0  0
  152.9697  144.1977  161.9302 H   0  0  0  0  0  0  0  0  0  0  0  0
  152.7233  141.9570  160.8667 H   0  0  0  0  0  0  0  0  0  0  0  0
  149.9457  144.1193  156.7618 H   0  0  0  0  0  0  0  0  0  0  0  0
  1  2  1  0  0  0  0
  1 18  1  0  0  0  0
  1 19  1  0  0  0  0
  1 20  1  0  0  0  0
  2  3  1  0  0  0  0
  2 21  1  0  0  0  0
  2 22  1  0  0  0  0
  3  4  1  0  0  0  0
  4  5  1  0  0  0  0
  4 23  1  0  0  0  0
  4 24  1  0  0  0  0
  5  6  1  0  0  0  0
  5 25  1  0  0  0  0
  5 26  1  0  0  0  0
  6 17  1  0  0  0  0
  6  7  1  0  0  0  0
  7  8  1  0  0  0  0
  7 11  2  0  0  0  0
  8  9  1  0  0  0  0
  8 10  1  0  0  0  0
  8 27  1  0  0  0  0
  9 28  1  0  0  0  0
  9 29  1  0  0  0  0
  9 30  1  0  0  0  0
 10 31  1  0  0  0  0
 11 12  1  0  0  0  0
 11 36  1  0  0  0  0
 12 17  2  0  0  0  0
 12 13  1  0  0  0  0
 13 14  2  0  0  0  0
 13 32  1  0  0  0  0
 14 15  1  0  0  0  0
 14 33  1  0  0  0  0
 15 16  2  0  0  0  0
 15 34  1  0  0  0  0
 16 17  1  0  0  0  0
 16 35  1  0  0  0  0
M  CHG  1  11   1
M  END
> <s_m_source_file>
AV-unprocessed.smi

> <i_m_source_file_index>
517

> <i_lp_mmshare_version>
43012

> <i_f3d_flags>
0

> <s_epik_input>
W0NIM11bQ0gyXU9bQ0gyXVtDSDJdbihjKG4xKVtDQEhdKFtDSDNdKVtPSF0pYyhjMTIpW2NIXVtjSF1bY0hdW2NIXTI=

> <s_epik_cmdline>
J2VwaWtfcHl0aG9uJywgJy1waCcsICc3LjAnLCAnLXRuJywgJzgnLCAnLW1hJywgJzIwMCcsICctbWV0YWxfYmluZGluZycsICctaW1hZScsICc8aW5maWxlLm1hZT4nLCAnLW9tYWUnLCAnPG91dGZpbGUubWFlPic=

> <r_epik_Ionization_Penalty>
1.46962

> <r_epik_Ionization_Penalty_Charging>
1.46959

> <r_epik_Ionization_Penalty_Neutral>
2.92192e-05

> <r_epik_State_Penalty>
1.55729

> <r_epik_Charging_Adjusted_Penalty>
3.02688

> <i_epik_Tot_Q>
1

> <i_epik_Tot_abs_Q>
1

> <r_epik_Metal_State_Penalty>
5.60569

> <b_epik_Metal_Only>
0

> <s_lp_Force_Field>
OPLS_2005

> <r_lp_Energy>
10.0589

> <b_lp_Chiralities_Consistent>
1

> <s_lp_Variant>
AV-unprocessed.smi:517-3

> <Gold.Version>
5.8.1

> <Gold.Id.Protein>
6NUR|6NUR_protein|mol2

> <Gold.PLP.Fitness>
48.0807

> <Gold.PLP.PLP>
-40.3837

> <Gold.PLP.part.hbond>
-2.2492

> <Gold.PLP.part.metal>
0.0000

> <Gold.PLP.part.buried>
-2.9703

> <Gold.PLP.part.nonpolar>
-33.4583

> <Gold.PLP.part.repulsive>
0.0009

> <Gold.PLP.ligand.clash>
0.0000

> <Gold.PLP.ligand.torsion>
0.6588

> <Gold.PLP.Chemscore.Hbond>
3.0000

> <Gold.PLP.Chemscore.CHOScore>
0.0000

> <Gold.PLP.Chemscore.Metal>
0.0000

> <Gold.Chemscore.Hbonds>
donor molecule, donor type, donor heavy atom, donor atom, acceptor molecule, acceptor atom, score
      L1  H    10    31       P1  8028  1.00
      L1  H    11    36       P1  8028  2.00

> <Gold.PLP.Chemscore.Internal.Correction>
0.0145

> <Gold.Rescore>
     Score         DG    S(hbond)    S(metal)    S(lipo)     H(rot)  DE(clash)    DE(int)     intcor
     18.48     -19.09       1.97        0.00     107.69       2.18       0.02       0.59       ----

> <Gold.Chemscore.Fitness>
18.4751

> <Gold.Chemscore.DG>
-19.0852

> <Gold.Chemscore.ZeroCoef>
-5.4800

> <Gold.Chemscore.Hbond>
1.9719

> <Gold.Chemscore.Metal>
0.0000

> <Gold.Chemscore.Lipo>
107.6860

> <Gold.Chemscore.Internal_Hbond>
0.0000

> <Gold.Chemscore.DEClash>
0.0243

> <Gold.Chemscore.DEInternal>
0.5858

> <Gold.Chemscore.Rot>
2.1797

> <Gold.Chemscore.Internal.Correction>
   9.000000E+99

> <Gold.Chemscore.Hbonds>
donor molecule, donor type, donor heavy atom, donor atom, acceptor molecule, acceptor atom, score
      L1  H    10    31       P1  8028  1.00
      L1  H    11    36       P1  8028  0.96

> <Gold.Chemscore.Hbond.Weighted>
-6.5861

> <Gold.Chemscore.Metal.Weighted>
-0.0000

> <Gold.Chemscore.Lipo.Weighted>
-12.5993

> <Gold.Chemscore.Internal_Hbond.Weighted>
0.0000

> <Gold.Chemscore.DEClash.Weighted>
0.0243

> <Gold.Chemscore.DEInternal.Weighted>
0.5858

> <Gold.Chemscore.Rot.Weighted>
5.5801

> <Gold.Chemscore.Internal.Correction.Weighted>
   9.000000E+99

> <Gold.Protein.RotatedTorsions>
[ 6907 6896 6895 6894 ] final -148.05 input  -60.11 | X-H torsion
[ 7974 7965 7964 7962 ] final  107.11 input  175.53 | X-H torsion
[ 8008 7997 7996 7995 ] final   61.87 input   59.86 | X-H torsion
[ 10167 10162 10161 10158 ] final  117.99 input  -65.29 | X-H torsion
[ 10718 10713 10712 10709 ] final -158.10 input   66.30 | X-H torsion
[ 10763 10752 10751 10750 ] final  143.39 input  -60.55 | X-H torsion
[ 11005 11000 10999 10996 ] final  -41.65 input  -57.11 | X-H torsion

> <Gold.Protein.ActiveResidues>
 VAL166  LYS551  ARG553  GLY616  TRP617  ASP618  TYR619  PRO620  LYS621  CYS622 
 ASP623  PHE694  ASN695  SER759  ASP760  ASP761  ALA762  ILE779  LEU786  VAL792 
 PHE793  MET794  SER795  GLU796  ALA797  LYS798  CYS799  TRP800  GLU811  SER814 

> <Gold.Protein.RotatedAtoms>
  151.1643  133.4824  159.2593 H   0  0  0  0  0  0  0  0  0  0  0  0  # atno 6907 bound_to 6896
  151.1421  135.0184  159.8640 H   0  0  0  0  0  0  0  0  0  0  0  0  # atno 6908 bound_to 6896
  152.5462  134.1536  159.8582 H   0  0  0  0  0  0  0  0  0  0  0  0  # atno 6909 bound_to 6896
  145.2979  139.2579  143.3830 H   0  0  0  0  0  0  0  0  0  0  0  0  # atno 7974 bound_to 7965
  155.6053  140.3494  155.4606 H   0  0  0  0  0  0  0  0  0  0  0  0  # atno 8008 bound_to 7997
  156.0197  140.1251  157.0395 H   0  0  0  0  0  0  0  0  0  0  0  0  # atno 8009 bound_to 7997
  154.4310  140.1065  156.5932 H   0  0  0  0  0  0  0  0  0  0  0  0  # atno 8010 bound_to 7997
  139.6141  144.7088  151.2778 H   0  0  0  0  0  0  0  0  0  0  0  0  # atno 10167 bound_to 10162
  156.5495  130.8599  151.2775 H   0  0  0  0  0  0  0  0  0  0  0  0  # atno 10718 bound_to 10713
  153.9716  135.2950  155.3427 H   0  0  0  0  0  0  0  0  0  0  0  0  # atno 10763 bound_to 10752
  154.7319  135.5064  153.8981 H   0  0  0  0  0  0  0  0  0  0  0  0  # atno 10764 bound_to 10752
  153.0897  135.6704  153.9990 H   0  0  0  0  0  0  0  0  0  0  0  0  # atno 10765 bound_to 10752
  141.0261  133.6841  156.2487 H   0  0  0  0  0  0  0  0  0  0  0  0  # atno 11005 bound_to 11000
  146.3162  140.3486  142.8654 LP  0  0  0  0  0  0  0  0  0  0  0  0  # atno 17320 bound_to 7965
  144.9118  140.7766  143.5802 LP  0  0  0  0  0  0  0  0  0  0  0  0  # atno 17321 bound_to 7965
  140.7339  143.6781  150.8024 LP  0  0  0  0  0  0  0  0  0  0  0  0  # atno 17342 bound_to 10162
  140.0381  143.5374  152.2730 LP  0  0  0  0  0  0  0  0  0  0  0  0  # atno 17343 bound_to 10162
  157.7390  130.9824  150.2287 LP  0  0  0  0  0  0  0  0  0  0  0  0  # atno 17370 bound_to 10713
  156.2897  130.3744  149.7853 LP  0  0  0  0  0  0  0  0  0  0  0  0  # atno 17371 bound_to 10713
  140.6489  134.5088  157.5576 LP  0  0  0  0  0  0  0  0  0  0  0  0  # atno 17394 bound_to 11000
  139.9177  134.8213  156.1313 LP  0  0  0  0  0  0  0  0  0  0  0  0  # atno 17395 bound_to 11000

$$$$
