AV-unprocessed.smi:1762|AV-procd|sdf|7125|dock1
  -GOLD-   22720 8363D 1   1.00000     0.00000
 Structure written by MMmdl.
 52 53  0  0  0  0  0  0  0  0  3 V2000
  148.7332  140.6237  154.4000 C   0  0  0  0  0  0  0  0  0  0  0  0
  149.3991  139.2636  154.1625 C   0  0  2  0  0  0  0  0  0  0  0  0
  148.7090  138.1347  154.9473 C   0  0  0  0  0  0  0  0  0  0  0  0
  149.4060  136.8304  154.7477 N   0  3  2  0  0  0  0  0  0  0  0  0
  148.7208  135.6841  155.4368 C   0  0  1  0  0  0  0  0  0  0  0  0
  147.1889  135.9052  155.4810 C   0  0  0  0  0  0  0  0  0  0  0  0
  146.5773  136.0150  154.4126 O   0  0  0  0  0  0  0  0  0  0  0  0
  146.7366  135.9874  156.7631 N   0  5  0  0  0  0  0  0  0  0  0  0
  147.5416  135.6522  157.9363 C   0  0  0  0  0  0  0  0  0  0  0  0
  147.5118  136.8151  158.9555 C   0  0  0  0  0  0  0  0  0  0  0  0
  146.9808  136.4290  160.3321 C   0  0  0  0  0  0  0  0  0  0  0  0
  146.7315  135.0749  160.6521 C   0  0  0  0  0  0  0  0  0  0  0  0
  146.2515  134.7626  161.9385 C   0  0  0  0  0  0  0  0  0  0  0  0
  146.0427  135.8084  162.8576 C   0  0  0  0  0  0  0  0  0  0  0  0
  146.3276  137.1261  162.4486 C   0  0  0  0  0  0  0  0  0  0  0  0
  146.7896  137.4368  161.2184 N   0  0  0  0  0  0  0  0  0  0  0  0
  149.0732  134.2707  154.8585 C   0  0  0  0  0  0  0  0  0  0  0  0
  148.1697  133.8102  153.6954 C   0  0  0  0  0  0  0  0  0  0  0  0
  149.1386  133.1763  155.9418 C   0  0  0  0  0  0  0  0  0  0  0  0
  150.8466  136.9929  155.0893 C   0  0  0  0  0  0  0  0  0  0  0  0
  151.4778  138.1648  154.3130 C   0  0  2  0  0  0  0  0  0  0  0  0
  152.9387  138.4014  154.7116 C   0  0  0  0  0  0  0  0  0  0  0  0
  150.7523  139.3559  154.5840 O   0  0  0  0  0  0  0  0  0  0  0  0
  147.6910  140.6115  154.0798 H   0  0  0  0  0  0  0  0  0  0  0  0
  149.2426  141.4095  153.8417 H   0  0  0  0  0  0  0  0  0  0  0  0
  148.7557  140.8967  155.4554 H   0  0  0  0  0  0  0  0  0  0  0  0
  149.3655  139.0444  153.0937 H   0  0  0  0  0  0  0  0  0  0  0  0
  148.6894  138.3744  156.0119 H   0  0  0  0  0  0  0  0  0  0  0  0
  147.6713  138.0852  154.6185 H   0  0  0  0  0  0  0  0  0  0  0  0
  149.1103  135.6925  156.4582 H   0  0  0  0  0  0  0  0  0  0  0  0
  147.2011  134.7355  158.4198 H   0  0  0  0  0  0  0  0  0  0  0  0
  148.5764  135.4625  157.6503 H   0  0  0  0  0  0  0  0  0  0  0  0
  148.5160  137.2248  159.0754 H   0  0  0  0  0  0  0  0  0  0  0  0
  146.9002  137.6319  158.5685 H   0  0  0  0  0  0  0  0  0  0  0  0
  146.9008  134.2935  159.9258 H   0  0  0  0  0  0  0  0  0  0  0  0
  146.0469  133.7388  162.2149 H   0  0  0  0  0  0  0  0  0  0  0  0
  145.6741  135.6060  163.8520 H   0  0  0  0  0  0  0  0  0  0  0  0
  146.1823  137.9528  163.1281 H   0  0  0  0  0  0  0  0  0  0  0  0
  150.0912  134.3188  154.4743 H   0  0  0  0  0  0  0  0  0  0  0  0
  147.1579  133.5860  154.0333 H   0  0  0  0  0  0  0  0  0  0  0  0
  148.5625  132.9010  153.2397 H   0  0  0  0  0  0  0  0  0  0  0  0
  148.0965  134.5607  152.9091 H   0  0  0  0  0  0  0  0  0  0  0  0
  148.1568  132.9582  156.3635 H   0  0  0  0  0  0  0  0  0  0  0  0
  149.7943  133.4724  156.7611 H   0  0  0  0  0  0  0  0  0  0  0  0
  149.5288  132.2444  155.5317 H   0  0  0  0  0  0  0  0  0  0  0  0
  150.9476  137.1500  156.1643 H   0  0  0  0  0  0  0  0  0  0  0  0
  151.4139  136.0987  154.8388 H   0  0  0  0  0  0  0  0  0  0  0  0
  151.4416  137.9572  153.2419 H   0  0  0  0  0  0  0  0  0  0  0  0
  153.5499  137.5221  154.5072 H   0  0  0  0  0  0  0  0  0  0  0  0
  153.0260  138.6304  155.7740 H   0  0  0  0  0  0  0  0  0  0  0  0
  153.3630  139.2373  154.1553 H   0  0  0  0  0  0  0  0  0  0  0  0
  149.3619  136.6257  153.7597 H   0  0  0  0  0  0  0  0  0  0  0  0
  1  2  1  0  0  0  0
  1 24  1  0  0  0  0
  1 25  1  0  0  0  0
  1 26  1  0  0  0  0
  2 23  1  0  0  0  0
  2  3  1  0  0  0  0
  2 27  1  0  0  0  0
  3  4  1  0  0  0  0
  3 28  1  0  0  0  0
  3 29  1  0  0  0  0
  4  5  1  0  0  0  0
  4 20  1  0  0  0  0
  4 52  1  0  0  0  0
  5  6  1  0  0  0  0
  5 17  1  0  0  0  0
  5 30  1  0  0  0  0
  6  7  2  0  0  0  0
  6  8  1  0  0  0  0
  8  9  1  0  0  0  0
  9 10  1  0  0  0  0
  9 31  1  0  0  0  0
  9 32  1  0  0  0  0
 10 11  1  0  0  0  0
 10 33  1  0  0  0  0
 10 34  1  0  0  0  0
 11 16  1  0  0  0  0
 11 12  2  0  0  0  0
 12 13  1  0  0  0  0
 12 35  1  0  0  0  0
 13 14  2  0  0  0  0
 13 36  1  0  0  0  0
 14 15  1  0  0  0  0
 14 37  1  0  0  0  0
 15 16  2  0  0  0  0
 15 38  1  0  0  0  0
 17 18  1  0  0  0  0
 17 19  1  0  0  0  0
 17 39  1  0  0  0  0
 18 40  1  0  0  0  0
 18 41  1  0  0  0  0
 18 42  1  0  0  0  0
 19 43  1  0  0  0  0
 19 44  1  0  0  0  0
 19 45  1  0  0  0  0
 20 21  1  0  0  0  0
 20 46  1  0  0  0  0
 20 47  1  0  0  0  0
 21 22  1  0  0  0  0
 21 23  1  0  0  0  0
 21 48  1  0  0  0  0
 22 49  1  0  0  0  0
 22 50  1  0  0  0  0
 22 51  1  0  0  0  0
M  CHG  1   4   1
M  CHG  1   8  -1
M  END
> <s_m_source_file>
AV-unprocessed.smi

> <i_m_source_file_index>
1762

> <i_lp_mmshare_version>
43012

> <i_f3d_flags>
0

> <s_epik_input>
W0NIM11bQ0BASF0xW0NIMl1OKFtDSDJdW0NASF0oTzEpW0NIM10pW0NAQEhdKFtDSF0oW0NIM10pW0NIM10pQyg9TylbTkhdW0NIMl1bQ0gyXWMyW2NIXVtjSF1bY0hdW2NIXW4y

> <s_epik_cmdline>
J2VwaWtfcHl0aG9uJywgJy1waCcsICc3LjAnLCAnLXRuJywgJzgnLCAnLW1hJywgJzIwMCcsICctbWV0YWxfYmluZGluZycsICctaW1hZScsICc8aW5maWxlLm1hZT4nLCAnLW9tYWUnLCAnPG91dGZpbGUubWFlPic=

> <r_epik_Ionization_Penalty>
7.82966

> <r_epik_Ionization_Penalty_Charging>
7.7461

> <r_epik_Ionization_Penalty_Neutral>
0.0835571

> <r_epik_State_Penalty>
8.52273

> <r_epik_Charging_Adjusted_Penalty>
16.2688

> <i_epik_Tot_Q>
0

> <i_epik_Tot_abs_Q>
2

> <r_epik_Metal_State_Penalty>
4.47451

> <b_epik_Metal_Only>
1

> <s_lp_Force_Field>
OPLS_2005

> <r_lp_Energy>
21.2393

> <b_lp_Chiralities_Consistent>
1

> <s_lp_Variant>
AV-unprocessed.smi:1762-27

> <Gold.Version>
5.8.1

> <Gold.Id.Protein>
6NUR|6NUR_protein|mol2

> <Gold.PLP.Fitness>
53.2072

> <Gold.PLP.PLP>
-42.0646

> <Gold.PLP.part.hbond>
-4.0000

> <Gold.PLP.part.metal>
0.0000

> <Gold.PLP.part.buried>
-5.3271

> <Gold.PLP.part.nonpolar>
-34.1414

> <Gold.PLP.part.repulsive>
0.2241

> <Gold.PLP.ligand.clash>
0.0000

> <Gold.PLP.ligand.torsion>
1.6846

> <Gold.PLP.Chemscore.Hbond>
4.6980

> <Gold.PLP.Chemscore.CHOScore>
0.0000

> <Gold.PLP.Chemscore.Metal>
0.0000

> <Gold.Chemscore.Hbonds>
donor molecule, donor type, donor heavy atom, donor atom, acceptor molecule, acceptor atom, score
      L1  H     4    52       P1  7948  2.00
      P1  H  6934  6947       L1    16  1.00
      P1  H  7989  7998       L1    23  0.94

> <Gold.PLP.Chemscore.Internal.Correction>
0.4177

> <Gold.Rescore>
     Score         DG    S(hbond)    S(metal)    S(lipo)     H(rot)  DE(clash)    DE(int)     intcor
     17.38     -20.42       2.14        0.00     101.60       1.60       0.24       2.80       ----

> <Gold.Chemscore.Fitness>
17.3761

> <Gold.Chemscore.DG>
-20.4163

> <Gold.Chemscore.ZeroCoef>
-5.4800

> <Gold.Chemscore.Hbond>
2.1402

> <Gold.Chemscore.Metal>
0.0000

> <Gold.Chemscore.Lipo>
101.5982

> <Gold.Chemscore.Internal_Hbond>
0.0000

> <Gold.Chemscore.DEClash>
0.2353

> <Gold.Chemscore.DEInternal>
2.8048

> <Gold.Chemscore.Rot>
1.6012

> <Gold.Chemscore.Internal.Correction>
   9.000000E+99

> <Gold.Chemscore.Hbonds>
donor molecule, donor type, donor heavy atom, donor atom, acceptor molecule, acceptor atom, score
      L1  H     4    52       P1  7948  0.91
      P1  H  6934  6947       L1    16  0.94
      P1  H  7989  7998       L1    23  0.33

> <Gold.Chemscore.Hbond.Weighted>
-7.1482

> <Gold.Chemscore.Metal.Weighted>
-0.0000

> <Gold.Chemscore.Lipo.Weighted>
-11.8870

> <Gold.Chemscore.Internal_Hbond.Weighted>
0.0000

> <Gold.Chemscore.DEClash.Weighted>
0.2353

> <Gold.Chemscore.DEInternal.Weighted>
2.8048

> <Gold.Chemscore.Rot.Weighted>
4.0990

> <Gold.Chemscore.Internal.Correction.Weighted>
   9.000000E+99

> <Gold.Protein.RotatedTorsions>
[ 6907 6896 6895 6894 ] final   31.62 input  -60.11 | X-H torsion
[ 7974 7965 7964 7962 ] final   86.72 input  175.53 | X-H torsion
[ 8008 7997 7996 7995 ] final   91.90 input   59.86 | X-H torsion
[ 10167 10162 10161 10158 ] final  -96.69 input  -65.29 | X-H torsion
[ 10718 10713 10712 10709 ] final -157.17 input   66.30 | X-H torsion
[ 10763 10752 10751 10750 ] final  156.39 input  -60.55 | X-H torsion
[ 11005 11000 10999 10996 ] final   83.55 input  -57.11 | X-H torsion

> <Gold.Protein.ActiveResidues>
 VAL166  LYS551  ARG553  GLY616  TRP617  ASP618  TYR619  PRO620  LYS621  CYS622 
 ASP623  PHE694  ASN695  SER759  ASP760  ASP761  ALA762  ILE779  LEU786  VAL792 
 PHE793  MET794  SER795  GLU796  ALA797  LYS798  CYS799  TRP800  GLU811  SER814 

> <Gold.Protein.RotatedAtoms>
  152.0629  134.9582  160.0574 H   0  0  0  0  0  0  0  0  0  0  0  0  # atno 6907 bound_to 6896
  152.0939  133.4209  159.4564 H   0  0  0  0  0  0  0  0  0  0  0  0  # atno 6908 bound_to 6896
  150.6837  134.2759  159.4651 H   0  0  0  0  0  0  0  0  0  0  0  0  # atno 6909 bound_to 6896
  145.5685  139.2311  143.2419 H   0  0  0  0  0  0  0  0  0  0  0  0  # atno 7974 bound_to 7965
  156.0292  140.3332  155.7121 H   0  0  0  0  0  0  0  0  0  0  0  0  # atno 8008 bound_to 7997
  155.5910  140.0646  157.2776 H   0  0  0  0  0  0  0  0  0  0  0  0  # atno 8009 bound_to 7997
  154.4346  140.1827  156.1062 H   0  0  0  0  0  0  0  0  0  0  0  0  # atno 8010 bound_to 7997
  140.2912  143.3220  152.0343 H   0  0  0  0  0  0  0  0  0  0  0  0  # atno 10167 bound_to 10162
  156.5366  130.8544  151.2734 H   0  0  0  0  0  0  0  0  0  0  0  0  # atno 10718 bound_to 10713
  154.1835  135.2798  155.3044 H   0  0  0  0  0  0  0  0  0  0  0  0  # atno 10763 bound_to 10752
  154.5984  135.5537  153.7352 H   0  0  0  0  0  0  0  0  0  0  0  0  # atno 10764 bound_to 10752
  153.0131  135.6385  154.1974 H   0  0  0  0  0  0  0  0  0  0  0  0  # atno 10765 bound_to 10752
  139.9028  134.8152  156.2324 H   0  0  0  0  0  0  0  0  0  0  0  0  # atno 11005 bound_to 11000
  146.1801  140.6511  142.9193 LP  0  0  0  0  0  0  0  0  0  0  0  0  # atno 17320 bound_to 7965
  144.7449  140.5041  143.6843 LP  0  0  0  0  0  0  0  0  0  0  0  0  # atno 17321 bound_to 7965
  139.4937  144.6523  151.6648 LP  0  0  0  0  0  0  0  0  0  0  0  0  # atno 17342 bound_to 10162
  140.5730  144.0076  150.6227 LP  0  0  0  0  0  0  0  0  0  0  0  0  # atno 17343 bound_to 10162
  157.7412  130.9866  150.2433 LP  0  0  0  0  0  0  0  0  0  0  0  0  # atno 17370 bound_to 10713
  156.3010  130.3758  149.7750 LP  0  0  0  0  0  0  0  0  0  0  0  0  # atno 17371 bound_to 10713
  141.0337  133.6975  156.1475 LP  0  0  0  0  0  0  0  0  0  0  0  0  # atno 17394 bound_to 11000
  140.7059  134.4514  157.5584 LP  0  0  0  0  0  0  0  0  0  0  0  0  # atno 17395 bound_to 11000

$$$$
