AV-unprocessed.smi:2736|AV-procd|sdf|10546|dock1
  -GOLD-   2272014593D 1   1.00000     0.00000
 Structure written by MMmdl.
 38 40  0  0  0  0  0  0  0  0  1 V2000
  145.2017  138.7756  158.6244 C   0  0  0  0  0  0  0  0  0  0  0  0
  146.5320  138.1711  158.8243 N   0  0  0  0  0  0  0  0  0  0  0  0
  147.6380  138.9281  158.5389 C   0  0  0  0  0  0  0  0  0  0  0  0
  147.6077  140.0866  158.1225 O   0  0  0  0  0  0  0  0  0  0  0  0
  148.9097  138.2331  158.7697 C   0  0  0  0  0  0  0  0  0  0  0  0
  148.9818  136.9556  159.2189 C   0  0  0  0  0  0  0  0  0  0  0  0
  150.3024  136.5377  159.3418 N   0  0  0  0  0  0  0  0  0  0  0  0
  150.9755  137.6183  158.9465 C   0  0  0  0  0  0  0  0  0  0  0  0
  150.2199  138.6754  158.5867 N   0  0  0  0  0  0  0  0  0  0  0  0
  150.7195  139.9589  158.1166 C   0  0  0  0  0  0  0  0  0  0  0  0
  151.7737  140.5684  159.0628 C   0  0  1  0  0  0  0  0  0  0  0  0
  153.0761  140.2364  158.6184 O   0  0  0  0  0  0  0  0  0  0  0  0
  151.5678  142.0734  159.2199 C   0  0  0  0  0  0  0  0  0  0  0  0
  150.7415  142.7711  158.3081 C   0  0  0  0  0  0  0  0  0  0  0  0
  150.5383  144.1579  158.4400 C   0  0  0  0  0  0  0  0  0  0  0  0
  151.1542  144.8620  159.4898 C   0  0  0  0  0  0  0  0  0  0  0  0
  151.9678  144.1764  160.4103 C   0  0  0  0  0  0  0  0  0  0  0  0
  152.1743  142.7879  160.2842 C   0  0  0  0  0  0  0  0  0  0  0  0
  153.1656  141.9942  161.4583 Cl  0  0  0  0  0  0  0  0  0  0  0  0
  147.7721  136.2614  159.4800 N   0  0  0  0  0  0  0  0  0  0  0  0
  147.8323  134.8779  159.9601 C   0  0  0  0  0  0  0  0  0  0  0  0
  146.5555  136.8639  159.2788 C   0  0  0  0  0  0  0  0  0  0  0  0
  145.5102  136.2452  159.4989 O   0  0  0  0  0  0  0  0  0  0  0  0
  145.2141  139.8344  158.3639 H   0  0  0  0  0  0  0  0  0  0  0  0
  144.6001  138.6946  159.5313 H   0  0  0  0  0  0  0  0  0  0  0  0
  144.6711  138.2591  157.8229 H   0  0  0  0  0  0  0  0  0  0  0  0
  152.0549  137.6416  158.9142 H   0  0  0  0  0  0  0  0  0  0  0  0
  151.1122  139.8543  157.1060 H   0  0  0  0  0  0  0  0  0  0  0  0
  149.8672  140.6346  158.0335 H   0  0  0  0  0  0  0  0  0  0  0  0
  151.6822  140.0981  160.0414 H   0  0  0  0  0  0  0  0  0  0  0  0
  153.6326  140.1297  159.3748 H   0  0  0  0  0  0  0  0  0  0  0  0
  150.2532  142.2468  157.4998 H   0  0  0  0  0  0  0  0  0  0  0  0
  149.9079  144.6808  157.7358 H   0  0  0  0  0  0  0  0  0  0  0  0
  150.9988  145.9259  159.5926 H   0  0  0  0  0  0  0  0  0  0  0  0
  152.4330  144.7194  161.2199 H   0  0  0  0  0  0  0  0  0  0  0  0
  147.3077  134.7771  160.9112 H   0  0  0  0  0  0  0  0  0  0  0  0
  148.8528  134.5291  160.1174 H   0  0  0  0  0  0  0  0  0  0  0  0
  147.3661  134.2042  159.2398 H   0  0  0  0  0  0  0  0  0  0  0  0
  1  2  1  0  0  0  0
  1 24  1  0  0  0  0
  1 25  1  0  0  0  0
  1 26  1  0  0  0  0
  2 22  1  0  0  0  0
  2  3  1  0  0  0  0
  3  4  2  0  0  0  0
  3  5  1  0  0  0  0
  5  9  1  0  0  0  0
  5  6  2  0  0  0  0
  6  7  1  0  0  0  0
  6 20  1  0  0  0  0
  7  8  2  0  0  0  0
  8  9  1  0  0  0  0
  8 27  1  0  0  0  0
  9 10  1  0  0  0  0
 10 11  1  0  0  0  0
 10 28  1  0  0  0  0
 10 29  1  0  0  0  0
 11 12  1  0  0  0  0
 11 13  1  0  0  0  0
 11 30  1  0  0  0  0
 12 31  1  0  0  0  0
 13 18  1  0  0  0  0
 13 14  2  0  0  0  0
 14 15  1  0  0  0  0
 14 32  1  0  0  0  0
 15 16  2  0  0  0  0
 15 33  1  0  0  0  0
 16 17  1  0  0  0  0
 16 34  1  0  0  0  0
 17 18  2  0  0  0  0
 17 35  1  0  0  0  0
 18 19  1  0  0  0  0
 20 21  1  0  0  0  0
 20 22  1  0  0  0  0
 21 36  1  0  0  0  0
 21 37  1  0  0  0  0
 21 38  1  0  0  0  0
 22 23  2  0  0  0  0
M  END
> <s_m_source_file>
AV-unprocessed.smi

> <i_m_source_file_index>
2736

> <i_lp_mmshare_version>
43012

> <i_f3d_flags>
0

> <s_epik_input>
Tz1jMW4oW0NIM10pYyg9TyluKFtDSDNdKWMoYzEyKW5bY0hdbjJbQ0gyXVtDQEhdKFtPSF0pYzNbY0hdW2NIXVtjSF1bY0hdYzNDbA==

> <s_epik_cmdline>
J2VwaWtfcHl0aG9uJywgJy1waCcsICc3LjAnLCAnLXRuJywgJzgnLCAnLW1hJywgJzIwMCcsICctbWV0YWxfYmluZGluZycsICctaW1hZScsICc8aW5maWxlLm1hZT4nLCAnLW9tYWUnLCAnPG91dGZpbGUubWFlPic=

> <r_lp_tautomer_probability>
1

> <r_epik_Ionization_Penalty>
1.63404e-06

> <r_epik_Ionization_Penalty_Charging>
3.74189e-09

> <r_epik_Ionization_Penalty_Neutral>
1.63029e-06

> <r_epik_State_Penalty>
-0

> <r_epik_Charging_Adjusted_Penalty>
3.74189e-09

> <i_epik_Tot_Q>
0

> <i_epik_Tot_abs_Q>
0

> <r_epik_Metal_State_Penalty>
-0

> <b_epik_Metal_Only>
0

> <s_lp_Force_Field>
OPLS_2005

> <r_lp_Energy>
36.7388

> <b_lp_Chiralities_Consistent>
1

> <s_lp_Variant>
AV-unprocessed.smi:2736-2

> <Gold.Version>
5.8.1

> <Gold.Id.Protein>
6NUR|6NUR_protein|mol2

> <Gold.PLP.Fitness>
44.8864

> <Gold.PLP.PLP>
-40.8599

> <Gold.PLP.part.hbond>
-2.0000

> <Gold.PLP.part.metal>
0.0000

> <Gold.PLP.part.buried>
-5.6191

> <Gold.PLP.part.nonpolar>
-32.5325

> <Gold.PLP.part.repulsive>
0.0075

> <Gold.PLP.ligand.clash>
0.0000

> <Gold.PLP.ligand.torsion>
0.9219

> <Gold.PLP.Chemscore.Hbond>
1.9440

> <Gold.PLP.Chemscore.CHOScore>
0.0000

> <Gold.PLP.Chemscore.Metal>
0.0000

> <Gold.Chemscore.Hbonds>
donor molecule, donor type, donor heavy atom, donor atom, acceptor molecule, acceptor atom, score
      P1  H  6896  6909       L1     7  1.00
      P1  H  7997  8010       L1    12  0.27

> <Gold.PLP.Chemscore.Internal.Correction>
0.0383

> <Gold.Rescore>
     Score         DG    S(hbond)    S(metal)    S(lipo)     H(rot)  DE(clash)    DE(int)     intcor
     17.30     -18.13       1.95        0.00      99.34       2.15       0.11       0.73       ----

> <Gold.Chemscore.Fitness>
17.2963

> <Gold.Chemscore.DG>
-18.1292

> <Gold.Chemscore.ZeroCoef>
-5.4800

> <Gold.Chemscore.Hbond>
1.9531

> <Gold.Chemscore.Metal>
0.0000

> <Gold.Chemscore.Lipo>
99.3439

> <Gold.Chemscore.Internal_Hbond>
0.0000

> <Gold.Chemscore.DEClash>
0.1058

> <Gold.Chemscore.DEInternal>
0.7271

> <Gold.Chemscore.Rot>
2.1474

> <Gold.Chemscore.Internal.Correction>
   9.000000E+99

> <Gold.Chemscore.Hbonds>
donor molecule, donor type, donor heavy atom, donor atom, acceptor molecule, acceptor atom, score
      P1  H  6896  6909       L1     7  1.00
      P1  H  7997  8010       L1    12  0.02

> <Gold.Chemscore.Hbond.Weighted>
-6.5233

> <Gold.Chemscore.Metal.Weighted>
-0.0000

> <Gold.Chemscore.Lipo.Weighted>
-11.6232

> <Gold.Chemscore.Internal_Hbond.Weighted>
0.0000

> <Gold.Chemscore.DEClash.Weighted>
0.1058

> <Gold.Chemscore.DEInternal.Weighted>
0.7271

> <Gold.Chemscore.Rot.Weighted>
5.4974

> <Gold.Chemscore.Internal.Correction.Weighted>
   9.000000E+99

> <Gold.Protein.RotatedTorsions>
[ 6907 6896 6895 6894 ] final   77.84 input  -60.11 | X-H torsion
[ 7974 7965 7964 7962 ] final  -40.41 input  175.53 | X-H torsion
[ 8008 7997 7996 7995 ] final   18.94 input   59.86 | X-H torsion
[ 10167 10162 10161 10158 ] final  -41.80 input  -65.29 | X-H torsion
[ 10718 10713 10712 10709 ] final -113.19 input   66.30 | X-H torsion
[ 10763 10752 10751 10750 ] final    5.72 input  -60.55 | X-H torsion
[ 11005 11000 10999 10996 ] final   45.78 input  -57.11 | X-H torsion

> <Gold.Protein.ActiveResidues>
 VAL166  LYS551  ARG553  GLY616  TRP617  ASP618  TYR619  PRO620  LYS621  CYS622 
 ASP623  PHE694  ASN695  SER759  ASP760  ASP761  ALA762  ILE779  LEU786  VAL792 
 PHE793  MET794  SER795  GLU796  ALA797  LYS798  CYS799  TRP800  GLU811  SER814 

> <Gold.Protein.RotatedAtoms>
  152.5135  134.3755  159.9332 H   0  0  0  0  0  0  0  0  0  0  0  0  # atno 6907 bound_to 6896
  151.3711  133.3848  159.2707 H   0  0  0  0  0  0  0  0  0  0  0  0  # atno 6908 bound_to 6896
  150.9577  134.8989  159.7770 H   0  0  0  0  0  0  0  0  0  0  0  0  # atno 6909 bound_to 6896
  146.0307  140.6735  142.9134 H   0  0  0  0  0  0  0  0  0  0  0  0  # atno 7974 bound_to 7965
  154.9134  140.3017  155.5254 H   0  0  0  0  0  0  0  0  0  0  0  0  # atno 8008 bound_to 7997
  156.3013  140.2385  156.4112 H   0  0  0  0  0  0  0  0  0  0  0  0  # atno 8009 bound_to 7997
  154.8402  140.0414  157.1525 H   0  0  0  0  0  0  0  0  0  0  0  0  # atno 8010 bound_to 7997
  140.6990  143.3074  151.3118 H   0  0  0  0  0  0  0  0  0  0  0  0  # atno 10167 bound_to 10162
  156.0751  130.5960  150.8608 H   0  0  0  0  0  0  0  0  0  0  0  0  # atno 10718 bound_to 10713
  153.2561  135.6918  153.7628 H   0  0  0  0  0  0  0  0  0  0  0  0  # atno 10763 bound_to 10752
  153.6704  135.3345  155.3152 H   0  0  0  0  0  0  0  0  0  0  0  0  # atno 10764 bound_to 10752
  154.8413  135.4498  154.1535 H   0  0  0  0  0  0  0  0  0  0  0  0  # atno 10765 bound_to 10752
  140.1429  134.4560  155.8437 H   0  0  0  0  0  0  0  0  0  0  0  0  # atno 11005 bound_to 11000
  144.7029  140.3731  143.7141 LP  0  0  0  0  0  0  0  0  0  0  0  0  # atno 17320 bound_to 7965
  145.7045  139.1669  143.2574 LP  0  0  0  0  0  0  0  0  0  0  0  0  # atno 17321 bound_to 7965
  139.6484  144.0408  152.2608 LP  0  0  0  0  0  0  0  0  0  0  0  0  # atno 17342 bound_to 10162
  139.9936  144.6344  150.7792 LP  0  0  0  0  0  0  0  0  0  0  0  0  # atno 17343 bound_to 10162
  157.5842  131.0946  150.9222 LP  0  0  0  0  0  0  0  0  0  0  0  0  # atno 17370 bound_to 10713
  156.9412  130.5385  149.5280 LP  0  0  0  0  0  0  0  0  0  0  0  0  # atno 17371 bound_to 10713
  141.2188  133.6840  156.7280 LP  0  0  0  0  0  0  0  0  0  0  0  0  # atno 17394 bound_to 11000
  140.2700  134.8400  157.3838 LP  0  0  0  0  0  0  0  0  0  0  0  0  # atno 17395 bound_to 11000

$$$$
