AV-unprocessed.smi:573|AV-procd|sdf|2973|dock3
  -GOLD-   2262023483D 1   1.00000     0.00000
 Structure written by MMmdl.
 44 46  0  0  0  0  0  0  0  0  1 V2000
  151.8350  137.5288  158.0505 C   0  0  0  0  0  0  0  0  0  0  0  0
  151.9018  137.0497  156.5950 C   0  0  2  0  0  0  0  0  0  0  0  0
  152.6939  135.8804  156.5658 O   0  0  0  0  0  0  0  0  0  0  0  0
  152.5399  138.1045  155.6747 C   0  0  0  0  0  0  0  0  0  0  0  0
  151.9778  139.4276  155.8808 N   0  0  0  0  0  0  0  0  0  0  0  0
  152.0948  140.3378  156.9250 C   0  0  0  0  0  0  0  0  0  0  0  0
  152.8190  140.1211  158.0215 N   0  0  0  0  0  0  0  0  0  0  0  0
  152.6275  141.2896  158.7350 C   0  0  0  0  0  0  0  0  0  0  0  0
  153.1313  141.6890  159.9935 C   0  0  0  0  0  0  0  0  0  0  0  0
  152.7979  142.9504  160.5288 C   0  0  0  0  0  0  0  0  0  0  0  0
  151.9589  143.8302  159.8147 C   0  0  0  0  0  0  0  0  0  0  0  0
  151.4439  143.4520  158.5597 C   0  0  0  0  0  0  0  0  0  0  0  0
  151.7768  142.1906  158.0304 C   0  0  0  0  0  0  0  0  0  0  0  0
  151.4473  141.5247  156.8532 N   0  0  0  0  0  0  0  0  0  0  0  0
  150.5925  142.0229  155.7846 C   0  0  0  0  0  0  0  0  0  0  0  0
  149.4745  141.0290  155.4287 C   0  0  1  0  0  0  0  0  0  0  0  0
  148.2462  141.7356  154.8240 C   0  0  0  0  0  0  0  0  0  0  0  0
  147.1824  140.7118  154.4106 C   0  0  0  0  0  0  0  0  0  0  0  0
  147.8119  139.6500  153.5023 C   0  0  0  0  0  0  0  0  0  0  0  0
  149.0592  139.0482  154.1687 C   0  0  0  0  0  0  0  0  0  0  0  0
  149.9832  140.0826  154.4899 O   0  0  0  0  0  0  0  0  0  0  0  0
  151.2254  138.4288  158.1370 H   0  0  0  0  0  0  0  0  0  0  0  0
  152.8271  137.7608  158.4397 H   0  0  0  0  0  0  0  0  0  0  0  0
  151.3922  136.7690  158.6954 H   0  0  0  0  0  0  0  0  0  0  0  0
  150.8927  136.8069  156.2596 H   0  0  0  0  0  0  0  0  0  0  0  0
  152.4965  135.3683  157.3353 H   0  0  0  0  0  0  0  0  0  0  0  0
  153.6085  138.1723  155.8816 H   0  0  0  0  0  0  0  0  0  0  0  0
  152.4426  137.8211  154.6261 H   0  0  0  0  0  0  0  0  0  0  0  0
  151.3871  139.7356  155.1224 H   0  0  0  0  0  0  0  0  0  0  0  0
  153.7764  141.0234  160.5475 H   0  0  0  0  0  0  0  0  0  0  0  0
  153.1892  143.2449  161.4916 H   0  0  0  0  0  0  0  0  0  0  0  0
  151.7110  144.7959  160.2307 H   0  0  0  0  0  0  0  0  0  0  0  0
  150.8032  144.1245  158.0089 H   0  0  0  0  0  0  0  0  0  0  0  0
  150.1721  142.9843  156.0817 H   0  0  0  0  0  0  0  0  0  0  0  0
  151.2128  142.2189  154.9095 H   0  0  0  0  0  0  0  0  0  0  0  0
  149.1764  140.4996  156.3357 H   0  0  0  0  0  0  0  0  0  0  0  0
  147.8247  142.4423  155.5394 H   0  0  0  0  0  0  0  0  0  0  0  0
  148.5491  142.3166  153.9519 H   0  0  0  0  0  0  0  0  0  0  0  0
  146.7660  140.2354  155.2991 H   0  0  0  0  0  0  0  0  0  0  0  0
  146.3549  141.2064  153.9014 H   0  0  0  0  0  0  0  0  0  0  0  0
  147.0874  138.8666  153.2781 H   0  0  0  0  0  0  0  0  0  0  0  0
  148.0909  140.1010  152.5493 H   0  0  0  0  0  0  0  0  0  0  0  0
  148.7917  138.4926  155.0687 H   0  0  0  0  0  0  0  0  0  0  0  0
  149.5421  138.3433  153.4920 H   0  0  0  0  0  0  0  0  0  0  0  0
  1  2  1  0  0  0  0
  1 22  1  0  0  0  0
  1 23  1  0  0  0  0
  1 24  1  0  0  0  0
  2  3  1  0  0  0  0
  2  4  1  0  0  0  0
  2 25  1  0  0  0  0
  3 26  1  0  0  0  0
  4  5  1  0  0  0  0
  4 27  1  0  0  0  0
  4 28  1  0  0  0  0
  5  6  1  0  0  0  0
  5 29  1  0  0  0  0
  6 14  1  0  0  0  0
  6  7  2  0  0  0  0
  7  8  1  0  0  0  0
  8 13  2  0  0  0  0
  8  9  1  0  0  0  0
  9 10  2  0  0  0  0
  9 30  1  0  0  0  0
 10 11  1  0  0  0  0
 10 31  1  0  0  0  0
 11 12  2  0  0  0  0
 11 32  1  0  0  0  0
 12 13  1  0  0  0  0
 12 33  1  0  0  0  0
 13 14  1  0  0  0  0
 14 15  1  0  0  0  0
 15 16  1  0  0  0  0
 15 34  1  0  0  0  0
 15 35  1  0  0  0  0
 16 21  1  0  0  0  0
 16 17  1  0  0  0  0
 16 36  1  0  0  0  0
 17 18  1  0  0  0  0
 17 37  1  0  0  0  0
 17 38  1  0  0  0  0
 18 19  1  0  0  0  0
 18 39  1  0  0  0  0
 18 40  1  0  0  0  0
 19 20  1  0  0  0  0
 19 41  1  0  0  0  0
 19 42  1  0  0  0  0
 20 21  1  0  0  0  0
 20 43  1  0  0  0  0
 20 44  1  0  0  0  0
M  END
> <s_m_source_file>
AV-unprocessed.smi

> <i_m_source_file_index>
573

> <i_lp_mmshare_version>
43012

> <i_f3d_flags>
0

> <s_epik_input>
W0NIM11bQ0BIXShbT0hdKVtDSDJdW05IXWMobjEpbihjKGMxMilbY0hdW2NIXVtjSF1bY0hdMilbQ0gyXVtDQEBIXTNbQ0gyXVtDSDJdW0NIMl1bQ0gyXU8z

> <s_epik_cmdline>
J2VwaWtfcHl0aG9uJywgJy1waCcsICc3LjAnLCAnLXRuJywgJzgnLCAnLW1hJywgJzIwMCcsICctbWV0YWxfYmluZGluZycsICctaW1hZScsICc8aW5maWxlLm1hZT4nLCAnLW9tYWUnLCAnPG91dGZpbGUubWFlPic=

> <r_epik_Ionization_Penalty>
1.30635

> <r_epik_Ionization_Penalty_Charging>
0

> <r_epik_Ionization_Penalty_Neutral>
1.30635

> <r_epik_State_Penalty>
1.38073

> <r_epik_Charging_Adjusted_Penalty>
1.38073

> <i_epik_Tot_Q>
0

> <i_epik_Tot_abs_Q>
0

> <r_epik_Metal_State_Penalty>
0.00547412

> <b_epik_Metal_Only>
0

> <s_lp_Force_Field>
OPLS_2005

> <r_lp_Energy>
9.89465

> <b_lp_Chiralities_Consistent>
1

> <s_lp_Variant>
AV-unprocessed.smi:573-7

> <Gold.Version>
5.8.1

> <Gold.Id.Protein>
6NUR|6NUR_protein|mol2

> <Gold.PLP.Fitness>
44.0474

> <Gold.PLP.PLP>
-36.8386

> <Gold.PLP.part.hbond>
-2.9851

> <Gold.PLP.part.metal>
0.0000

> <Gold.PLP.part.buried>
-0.7515

> <Gold.PLP.part.nonpolar>
-30.7178

> <Gold.PLP.part.repulsive>
0.2591

> <Gold.PLP.ligand.clash>
0.0000

> <Gold.PLP.ligand.torsion>
0.4839

> <Gold.PLP.Chemscore.Hbond>
2.7232

> <Gold.PLP.Chemscore.CHOScore>
0.0000

> <Gold.PLP.Chemscore.Metal>
0.0000

> <Gold.Chemscore.Hbonds>
donor molecule, donor type, donor heavy atom, donor atom, acceptor molecule, acceptor atom, score
      P1  H  7989  7998       L1    21  0.89
      P1  H  7997  8008       L1     7  0.73
      P1  H 10752 10765       L1     3  1.00

> <Gold.PLP.Chemscore.Internal.Correction>
0.0070

> <Gold.Rescore>
     Score         DG    S(hbond)    S(metal)    S(lipo)     H(rot)  DE(clash)    DE(int)     intcor
     14.56     -19.10       1.67        0.00     113.00       2.02       0.39       4.15       ----

> <Gold.Chemscore.Fitness>
14.5649

> <Gold.Chemscore.DG>
-19.1027

> <Gold.Chemscore.ZeroCoef>
-5.4800

> <Gold.Chemscore.Hbond>
1.6704

> <Gold.Chemscore.Metal>
0.0000

> <Gold.Chemscore.Lipo>
112.9998

> <Gold.Chemscore.Internal_Hbond>
0.0000

> <Gold.Chemscore.DEClash>
0.3925

> <Gold.Chemscore.DEInternal>
4.1452

> <Gold.Chemscore.Rot>
2.0224

> <Gold.Chemscore.Internal.Correction>
   9.000000E+99

> <Gold.Chemscore.Hbonds>
donor molecule, donor type, donor heavy atom, donor atom, acceptor molecule, acceptor atom, score
      P1  H  7989  7998       L1    21  0.62
      P1  H  7997  8008       L1     7  0.10
      P1  H 10752 10765       L1     3  0.97

> <Gold.Chemscore.Hbond.Weighted>
-5.5791

> <Gold.Chemscore.Metal.Weighted>
-0.0000

> <Gold.Chemscore.Lipo.Weighted>
-13.2210

> <Gold.Chemscore.Internal_Hbond.Weighted>
0.0000

> <Gold.Chemscore.DEClash.Weighted>
0.3925

> <Gold.Chemscore.DEInternal.Weighted>
4.1452

> <Gold.Chemscore.Rot.Weighted>
5.1773

> <Gold.Chemscore.Internal.Correction.Weighted>
   9.000000E+99

> <Gold.Protein.RotatedTorsions>
[ 6907 6896 6895 6894 ] final  172.47 input  -60.11 | X-H torsion
[ 7974 7965 7964 7962 ] final  101.86 input  175.53 | X-H torsion
[ 8008 7997 7996 7995 ] final  -91.32 input   59.86 | X-H torsion
[ 10167 10162 10161 10158 ] final   16.86 input  -65.29 | X-H torsion
[ 10718 10713 10712 10709 ] final   47.95 input   66.30 | X-H torsion
[ 10763 10752 10751 10750 ] final -118.16 input  -60.55 | X-H torsion
[ 11005 11000 10999 10996 ] final  -66.48 input  -57.11 | X-H torsion

> <Gold.Protein.ActiveResidues>
 VAL166  LYS551  ARG553  GLY616  TRP617  ASP618  TYR619  PRO620  LYS621  CYS622 
 ASP623  PHE694  ASN695  SER759  ASP760  ASP761  ALA762  ILE779  LEU786  VAL792 
 PHE793  MET794  SER795  GLU796  ALA797  LYS798  CYS799  TRP800  GLU811  SER814 

> <Gold.Protein.RotatedAtoms>
  151.7837  133.3352  159.3478 H   0  0  0  0  0  0  0  0  0  0  0  0  # atno 6907 bound_to 6896
  150.7417  134.5907  159.5995 H   0  0  0  0  0  0  0  0  0  0  0  0  # atno 6908 bound_to 6896
  152.3258  134.7324  160.0353 H   0  0  0  0  0  0  0  0  0  0  0  0  # atno 6909 bound_to 6896
  145.3668  139.2406  143.3477 H   0  0  0  0  0  0  0  0  0  0  0  0  # atno 7974 bound_to 7965
  154.7093  140.0521  157.0535 H   0  0  0  0  0  0  0  0  0  0  0  0  # atno 8008 bound_to 7997
  155.0576  140.3186  155.4652 H   0  0  0  0  0  0  0  0  0  0  0  0  # atno 8009 bound_to 7997
  156.2784  140.2104  156.5703 H   0  0  0  0  0  0  0  0  0  0  0  0  # atno 8010 bound_to 7997
  140.5767  143.9059  150.6756 H   0  0  0  0  0  0  0  0  0  0  0  0  # atno 10167 bound_to 10162
  157.4637  130.8212  149.7913 H   0  0  0  0  0  0  0  0  0  0  0  0  # atno 10718 bound_to 10713
  154.8578  135.4284  154.2095 H   0  0  0  0  0  0  0  0  0  0  0  0  # atno 10763 bound_to 10752
  153.3124  135.6976  153.7110 H   0  0  0  0  0  0  0  0  0  0  0  0  # atno 10764 bound_to 10752
  153.6197  135.3504  155.2980 H   0  0  0  0  0  0  0  0  0  0  0  0  # atno 10765 bound_to 10752
  141.1483  133.6700  156.6145 H   0  0  0  0  0  0  0  0  0  0  0  0  # atno 11005 bound_to 11000
  146.2903  140.4312  142.8742 LP  0  0  0  0  0  0  0  0  0  0  0  0  # atno 17320 bound_to 7965
  144.8606  140.7133  143.6110 LP  0  0  0  0  0  0  0  0  0  0  0  0  # atno 17321 bound_to 7965
  140.2548  143.3567  152.1374 LP  0  0  0  0  0  0  0  0  0  0  0  0  # atno 17342 bound_to 10162
  139.5147  144.6951  151.5652 LP  0  0  0  0  0  0  0  0  0  0  0  0  # atno 17343 bound_to 10162
  156.0040  130.3865  150.2498 LP  0  0  0  0  0  0  0  0  0  0  0  0  # atno 17370 bound_to 10713
  157.0677  131.0108  151.3201 LP  0  0  0  0  0  0  0  0  0  0  0  0  # atno 17371 bound_to 10713
  140.3588  134.7705  157.4519 LP  0  0  0  0  0  0  0  0  0  0  0  0  # atno 17394 bound_to 11000
  140.0801  134.5742  155.8549 LP  0  0  0  0  0  0  0  0  0  0  0  0  # atno 17395 bound_to 11000

$$$$
