AV-unprocessed.smi:276|AV-procd|sdf|2080|dock1
  -GOLD-   2262021343D 1   1.00000     0.00000
 Structure written by MMmdl.
 57 61  0  0  0  0  0  0  0  0  1 V2000
  151.3707  145.2270  159.4771 C   0  0  0  0  0  0  0  0  0  0  0  0
  151.1421  144.2378  158.4891 O   0  0  0  0  0  0  0  0  0  0  0  0
  151.1131  142.9254  159.0266 C   0  0  2  0  0  0  0  0  0  0  0  0
  152.4936  142.3443  159.3530 C   0  0  0  0  0  0  0  0  0  0  0  0
  151.9589  140.9999  158.8419 C   0  0  2  0  0  0  0  0  0  0  0  0
  152.9717  140.2104  158.1370 N   0  0  0  0  0  0  0  0  0  0  0  0
  153.9796  139.5691  158.9720 C   0  0  0  0  0  0  0  0  0  0  0  0
  152.5114  139.3372  157.2125 C   0  0  0  0  0  0  0  0  0  0  0  0
  152.8043  139.6066  155.9155 N   0  0  0  0  0  0  0  0  0  0  0  0
  152.3737  138.7920  154.9478 C   0  0  0  0  0  0  0  0  0  0  0  0
  151.6576  137.6710  155.0570 N   0  0  0  0  0  0  0  0  0  0  0  0
  151.3813  137.3850  156.3618 C   0  0  0  0  0  0  0  0  0  0  0  0
  151.7705  138.1534  157.4953 C   0  0  0  0  0  0  0  0  0  0  0  0
  151.3220  137.5370  158.6583 N   0  0  0  0  0  0  0  0  0  0  0  0
  150.6936  136.4742  158.2359 C   0  0  0  0  0  0  0  0  0  0  0  0
  150.6815  136.3056  156.8706 N   0  0  0  0  0  0  0  0  0  0  0  0
  150.0649  135.2136  156.1380 C   0  0  0  0  0  0  0  0  0  0  0  0
  150.5389  133.8320  156.6310 C   0  0  2  0  0  0  0  0  0  0  0  0
  151.9277  133.7010  156.3916 O   0  0  0  0  0  0  0  0  0  0  0  0
  149.8002  132.6772  155.9291 C   0  0  1  0  0  0  0  0  0  0  0  0
  149.7682  132.7807  154.4035 C   0  0  0  0  0  0  0  0  0  0  0  0
  149.5461  131.3402  154.0043 C   0  0  0  0  0  0  0  0  0  0  0  0
  150.3937  130.5947  155.0311 C   0  0  0  0  0  0  0  0  0  0  0  0
  150.4602  131.4381  156.1788 O   0  0  0  0  0  0  0  0  0  0  0  0
  150.9747  141.8184  157.9631 C   0  0  0  0  0  0  0  0  0  0  0  0
  149.5911  141.2780  157.5790 C   0  0  0  0  0  0  0  0  0  0  0  0
  150.0490  141.2063  156.1187 C   0  0  0  0  0  0  0  0  0  0  0  0
  151.2258  142.1222  156.4716 C   0  0  0  0  0  0  0  0  0  0  0  0
  151.3787  146.2128  159.0123 H   0  0  0  0  0  0  0  0  0  0  0  0
  152.3320  145.0810  159.9710 H   0  0  0  0  0  0  0  0  0  0  0  0
  150.5839  145.2172  160.2324 H   0  0  0  0  0  0  0  0  0  0  0  0
  150.3954  142.8020  159.8409 H   0  0  0  0  0  0  0  0  0  0  0  0
  153.2872  142.7634  158.7309 H   0  0  0  0  0  0  0  0  0  0  0  0
  152.7566  142.3594  160.4107 H   0  0  0  0  0  0  0  0  0  0  0  0
  151.4483  140.4625  159.6421 H   0  0  0  0  0  0  0  0  0  0  0  0
  153.5289  138.7987  159.5988 H   0  0  0  0  0  0  0  0  0  0  0  0
  154.4631  140.2969  159.6237 H   0  0  0  0  0  0  0  0  0  0  0  0
  154.7574  139.1059  158.3635 H   0  0  0  0  0  0  0  0  0  0  0  0
  152.6400  139.0806  153.9418 H   0  0  0  0  0  0  0  0  0  0  0  0
  150.2226  135.7765  158.9130 H   0  0  0  0  0  0  0  0  0  0  0  0
  148.9836  135.3036  156.2459 H   0  0  0  0  0  0  0  0  0  0  0  0
  150.2812  135.3366  155.0760 H   0  0  0  0  0  0  0  0  0  0  0  0
  150.3773  133.7601  157.7075 H   0  0  0  0  0  0  0  0  0  0  0  0
  152.3134  134.5638  156.3815 H   0  0  0  0  0  0  0  0  0  0  0  0
  148.7789  132.5939  156.3051 H   0  0  0  0  0  0  0  0  0  0  0  0
  148.9881  133.4486  154.0376 H   0  0  0  0  0  0  0  0  0  0  0  0
  150.7275  133.1311  154.0196 H   0  0  0  0  0  0  0  0  0  0  0  0
  148.4939  131.0782  154.1233 H   0  0  0  0  0  0  0  0  0  0  0  0
  149.8376  131.1292  152.9751 H   0  0  0  0  0  0  0  0  0  0  0  0
  149.9755  129.6188  155.2793 H   0  0  0  0  0  0  0  0  0  0  0  0
  151.4058  130.4434  154.6546 H   0  0  0  0  0  0  0  0  0  0  0  0
  149.3369  140.3142  158.0195 H   0  0  0  0  0  0  0  0  0  0  0  0
  148.7979  142.0109  157.7329 H   0  0  0  0  0  0  0  0  0  0  0  0
  150.3592  140.2052  155.8195 H   0  0  0  0  0  0  0  0  0  0  0  0
  149.3441  141.6344  155.4056 H   0  0  0  0  0  0  0  0  0  0  0  0
  151.0248  143.1592  156.2015 H   0  0  0  0  0  0  0  0  0  0  0  0
  152.1884  141.7972  156.0782 H   0  0  0  0  0  0  0  0  0  0  0  0
  1  2  1  0  0  0  0
  1 29  1  0  0  0  0
  1 30  1  0  0  0  0
  1 31  1  0  0  0  0
  2  3  1  0  0  0  0
  3 25  1  0  0  0  0
  3  4  1  0  0  0  0
  3 32  1  0  0  0  0
  4  5  1  0  0  0  0
  4 33  1  0  0  0  0
  4 34  1  0  0  0  0
  5  6  1  0  0  0  0
  5 25  1  0  0  0  0
  5 35  1  0  0  0  0
  6  7  1  0  0  0  0
  6  8  1  0  0  0  0
  7 36  1  0  0  0  0
  7 37  1  0  0  0  0
  7 38  1  0  0  0  0
  8 13  1  0  0  0  0
  8  9  2  0  0  0  0
  9 10  1  0  0  0  0
 10 11  2  0  0  0  0
 10 39  1  0  0  0  0
 11 12  1  0  0  0  0
 12 16  1  0  0  0  0
 12 13  2  0  0  0  0
 13 14  1  0  0  0  0
 14 15  2  0  0  0  0
 15 16  1  0  0  0  0
 15 40  1  0  0  0  0
 16 17  1  0  0  0  0
 17 18  1  0  0  0  0
 17 41  1  0  0  0  0
 17 42  1  0  0  0  0
 18 19  1  0  0  0  0
 18 20  1  0  0  0  0
 18 43  1  0  0  0  0
 19 44  1  0  0  0  0
 20 24  1  0  0  0  0
 20 21  1  0  0  0  0
 20 45  1  0  0  0  0
 21 22  1  0  0  0  0
 21 46  1  0  0  0  0
 21 47  1  0  0  0  0
 22 23  1  0  0  0  0
 22 48  1  0  0  0  0
 22 49  1  0  0  0  0
 23 24  1  0  0  0  0
 23 50  1  0  0  0  0
 23 51  1  0  0  0  0
 25 28  1  0  0  0  0
 25 26  1  0  0  0  0
 26 27  1  0  0  0  0
 26 52  1  0  0  0  0
 26 53  1  0  0  0  0
 27 28  1  0  0  0  0
 27 54  1  0  0  0  0
 27 55  1  0  0  0  0
 28 56  1  0  0  0  0
 28 57  1  0  0  0  0
M  END
> <s_m_source_file>
AV-unprocessed.smi

> <i_m_source_file_index>
276

> <i_lp_mmshare_version>
43012

> <i_f3d_flags>
0

> <s_epik_input>
W0NIMl0xW0NIMl1bQ0gyXUMxMltDQEhdKE9bQ0gzXSlbQ0gyXVtDQEhdMk4oW0NIM10pYyhuW2NIXW4zKWMoYzM0KW5bY0hdbjRbQ0gyXVtDQEhdKFtPSF0pW0NAQEhdNVtDSDJdW0NIMl1bQ0gyXU81

> <s_epik_cmdline>
J2VwaWtfcHl0aG9uJywgJy1waCcsICc3LjAnLCAnLXRuJywgJzgnLCAnLW1hJywgJzIwMCcsICctbWV0YWxfYmluZGluZycsICctaW1hZScsICc8aW5maWxlLm1hZT4nLCAnLW9tYWUnLCAnPG91dGZpbGUubWFlPic=

> <r_lp_tautomer_probability>
1

> <r_epik_Ionization_Penalty>
0.00204117

> <r_epik_Ionization_Penalty_Charging>
0

> <r_epik_Ionization_Penalty_Neutral>
0.00204117

> <r_epik_State_Penalty>
0.00127401

> <r_epik_Charging_Adjusted_Penalty>
0.00127401

> <i_epik_Tot_Q>
0

> <i_epik_Tot_abs_Q>
0

> <r_epik_Metal_State_Penalty>
-0

> <b_epik_Metal_Only>
0

> <s_lp_Force_Field>
OPLS_2005

> <r_lp_Energy>
54.5778

> <b_lp_Chiralities_Consistent>
1

> <s_lp_Variant>
AV-unprocessed.smi:276-11

> <Gold.Version>
5.8.1

> <Gold.Id.Protein>
6NUR|6NUR_protein|mol2

> <Gold.PLP.Fitness>
43.9028

> <Gold.PLP.PLP>
-41.2639

> <Gold.PLP.part.hbond>
-1.9776

> <Gold.PLP.part.metal>
0.0000

> <Gold.PLP.part.buried>
-7.4347

> <Gold.PLP.part.nonpolar>
-32.0443

> <Gold.PLP.part.repulsive>
0.1893

> <Gold.PLP.ligand.clash>
0.0000

> <Gold.PLP.ligand.torsion>
0.6000

> <Gold.PLP.Chemscore.Hbond>
1.0000

> <Gold.PLP.Chemscore.CHOScore>
0.0000

> <Gold.PLP.Chemscore.Metal>
0.0000

> <Gold.Chemscore.Hbonds>
donor molecule, donor type, donor heavy atom, donor atom, acceptor molecule, acceptor atom, score
      P1  H  7997  8010       L1     9  0.65

> <Gold.PLP.Chemscore.Internal.Correction>
0.8388

> <Gold.Rescore>
     Score         DG    S(hbond)    S(metal)    S(lipo)     H(rot)  DE(clash)    DE(int)     intcor
     11.10     -14.28       1.11        0.00     103.10       2.72       1.64       1.55       ----

> <Gold.Chemscore.Fitness>
11.1033

> <Gold.Chemscore.DG>
-14.2846

> <Gold.Chemscore.ZeroCoef>
-5.4800

> <Gold.Chemscore.Hbond>
1.1072

> <Gold.Chemscore.Metal>
0.0000

> <Gold.Chemscore.Lipo>
103.0998

> <Gold.Chemscore.Internal_Hbond>
0.0000

> <Gold.Chemscore.DEClash>
1.6361

> <Gold.Chemscore.DEInternal>
1.5451

> <Gold.Chemscore.Rot>
2.7172

> <Gold.Chemscore.Internal.Correction>
   9.000000E+99

> <Gold.Chemscore.Hbonds>
donor molecule, donor type, donor heavy atom, donor atom, acceptor molecule, acceptor atom, score
      P1  H  7997  8010       L1     9  0.06

> <Gold.Chemscore.Hbond.Weighted>
-3.6979

> <Gold.Chemscore.Metal.Weighted>
-0.0000

> <Gold.Chemscore.Lipo.Weighted>
-12.0627

> <Gold.Chemscore.Internal_Hbond.Weighted>
0.0000

> <Gold.Chemscore.DEClash.Weighted>
1.6361

> <Gold.Chemscore.DEInternal.Weighted>
1.5451

> <Gold.Chemscore.Rot.Weighted>
6.9560

> <Gold.Chemscore.Internal.Correction.Weighted>
   9.000000E+99

> <Gold.Protein.RotatedTorsions>
[ 6907 6896 6895 6894 ] final  171.29 input  -60.11 | X-H torsion
[ 7974 7965 7964 7962 ] final  -77.27 input  175.53 | X-H torsion
[ 8008 7997 7996 7995 ] final   79.59 input   59.86 | X-H torsion
[ 10167 10162 10161 10158 ] final  -39.85 input  -65.29 | X-H torsion
[ 10718 10713 10712 10709 ] final  177.46 input   66.30 | X-H torsion
[ 10763 10752 10751 10750 ] final  -91.46 input  -60.55 | X-H torsion
[ 11005 11000 10999 10996 ] final -110.96 input  -57.11 | X-H torsion

> <Gold.Protein.ActiveResidues>
 VAL166  LYS551  ARG553  GLY616  TRP617  ASP618  TYR619  PRO620  LYS621  CYS622 
 ASP623  PHE694  ASN695  SER759  ASP760  ASP761  ALA762  ILE779  LEU786  VAL792 
 PHE793  MET794  SER795  GLU796  ALA797  LYS798  CYS799  TRP800  GLU811  SER814 

> <Gold.Protein.RotatedAtoms>
  151.8025  133.3371  159.3530 H   0  0  0  0  0  0  0  0  0  0  0  0  # atno 6907 bound_to 6896
  150.7353  134.5740  159.5914 H   0  0  0  0  0  0  0  0  0  0  0  0  # atno 6908 bound_to 6896
  152.3133  134.7472  160.0382 H   0  0  0  0  0  0  0  0  0  0  0  0  # atno 6909 bound_to 6896
  145.6019  140.9407  143.1236 H   0  0  0  0  0  0  0  0  0  0  0  0  # atno 7974 bound_to 7965
  155.8718  140.3448  155.5827 H   0  0  0  0  0  0  0  0  0  0  0  0  # atno 8008 bound_to 7997
  155.7818  140.0859  157.2074 H   0  0  0  0  0  0  0  0  0  0  0  0  # atno 8009 bound_to 7997
  154.4018  140.1499  156.3048 H   0  0  0  0  0  0  0  0  0  0  0  0  # atno 8010 bound_to 7997
  140.7052  143.3189  151.2840 H   0  0  0  0  0  0  0  0  0  0  0  0  # atno 10167 bound_to 10162
  156.9050  130.9891  151.3030 H   0  0  0  0  0  0  0  0  0  0  0  0  # atno 10718 bound_to 10713
  154.6763  135.5267  153.8203 H   0  0  0  0  0  0  0  0  0  0  0  0  # atno 10763 bound_to 10752
  153.0534  135.6541  154.0646 H   0  0  0  0  0  0  0  0  0  0  0  0  # atno 10764 bound_to 10752
  154.0539  135.2967  155.3316 H   0  0  0  0  0  0  0  0  0  0  0  0  # atno 10765 bound_to 10752
  141.0761  133.9298  157.2385 H   0  0  0  0  0  0  0  0  0  0  0  0  # atno 11005 bound_to 11000
  144.7306  139.7737  143.7348 LP  0  0  0  0  0  0  0  0  0  0  0  0  # atno 17320 bound_to 7965
  146.1570  139.4671  143.0012 LP  0  0  0  0  0  0  0  0  0  0  0  0  # atno 17321 bound_to 7965
  139.6637  144.0144  152.2709 LP  0  0  0  0  0  0  0  0  0  0  0  0  # atno 17342 bound_to 10162
  139.9719  144.6487  150.7981 LP  0  0  0  0  0  0  0  0  0  0  0  0  # atno 17343 bound_to 10162
  157.6003  130.8507  149.8791 LP  0  0  0  0  0  0  0  0  0  0  0  0  # atno 17370 bound_to 10713
  156.0563  130.3708  150.1083 LP  0  0  0  0  0  0  0  0  0  0  0  0  # atno 17371 bound_to 10713
  139.9574  135.0162  156.9166 LP  0  0  0  0  0  0  0  0  0  0  0  0  # atno 17394 bound_to 11000
  140.5569  134.0573  155.7386 LP  0  0  0  0  0  0  0  0  0  0  0  0  # atno 17395 bound_to 11000

$$$$
