AV-unprocessed.smi:21|AV-procd|sdf|142|dock2
  -GOLD-   2262015343D 1   1.00000     0.00000
 Structure written by MMmdl.
 62 65  0  0  0  0  0  0  0  0  2 V2000
  146.4834  129.0831  151.8569 C   0  0  0  0  0  0  0  0  0  0  0  0
  145.4261  130.0251  151.9488 O   0  0  0  0  0  0  0  0  0  0  0  0
  145.6742  131.2374  151.2484 C   0  0  2  0  0  0  0  0  0  0  0  0
  146.6638  132.0736  152.0487 C   0  0  0  0  0  0  0  0  0  0  0  0
  145.7957  132.7510  153.1161 C   0  0  1  0  0  0  0  0  0  0  0  0
  146.4234  134.0278  153.7274 C   0  0  0  0  0  0  0  0  0  0  0  0
  147.2570  133.7382  154.8959 N   0  0  0  0  0  0  0  0  0  0  0  0
  148.6511  134.1625  154.8717 C   0  0  0  0  0  0  0  0  0  0  0  0
  146.6688  133.4177  156.0820 C   0  0  0  0  0  0  0  0  0  0  0  0
  145.3464  133.1022  156.0746 N   0  0  0  0  0  0  0  0  0  0  0  0
  144.7145  132.7777  157.2052 C   0  0  0  0  0  0  0  0  0  0  0  0
  145.2043  132.7109  158.4427 N   0  0  0  0  0  0  0  0  0  0  0  0
  146.5287  133.0314  158.4675 C   0  0  0  0  0  0  0  0  0  0  0  0
  147.3330  133.3928  157.3471 C   0  0  0  0  0  0  0  0  0  0  0  0
  148.6280  133.6645  157.7779 N   0  0  0  0  0  0  0  0  0  0  0  0
  148.5934  133.4660  159.0664 C   0  0  0  0  0  0  0  0  0  0  0  0
  147.3729  133.0750  159.5634 N   0  0  0  0  0  0  0  0  0  0  0  0
  147.0588  132.7879  160.9527 C   0  0  0  0  0  0  0  0  0  0  0  0
  146.0341  133.7756  161.5627 C   0  0  1  0  0  0  0  0  0  0  0  0
  145.0157  133.0200  162.4481 C   0  0  0  0  0  0  0  0  0  0  0  0
  144.3168  132.0561  161.6879 O   0  0  0  0  0  0  0  0  0  0  0  0
  146.7167  134.9731  162.2821 C   0  0  2  0  0  0  0  0  0  0  0  0
  145.7822  136.0176  162.8802 C   0  0  0  0  0  0  0  0  0  0  0  0
  146.6637  137.2577  162.8977 C   0  0  0  0  0  0  0  0  0  0  0  0
  147.3485  137.1708  161.6588 O   0  0  0  0  0  0  0  0  0  0  0  0
  147.6809  135.8069  161.4196 C   0  0  0  0  0  0  0  0  0  0  0  0
  144.4531  132.9209  152.4886 N   0  3  1  0  0  0  0  0  0  0  0  0
  143.9494  134.3040  152.3119 C   0  0  0  0  0  0  0  0  0  0  0  0
  144.4301  132.1327  151.2326 C   0  0  0  0  0  0  0  0  0  0  0  0
  146.0568  131.0336  150.2468 H   0  0  0  0  0  0  0  0  0  0  0  0
  145.6402  132.0299  153.9200 H   0  0  0  0  0  0  0  0  0  0  0  0
  146.2226  128.1885  152.4220 H   0  0  0  0  0  0  0  0  0  0  0  0
  147.4062  129.4850  152.2772 H   0  0  0  0  0  0  0  0  0  0  0  0
  146.6719  128.7827  150.8264 H   0  0  0  0  0  0  0  0  0  0  0  0
  147.4749  131.4797  152.4716 H   0  0  0  0  0  0  0  0  0  0  0  0
  147.1086  132.8277  151.3978 H   0  0  0  0  0  0  0  0  0  0  0  0
  146.9766  134.5840  152.9711 H   0  0  0  0  0  0  0  0  0  0  0  0
  145.6314  134.6977  154.0629 H   0  0  0  0  0  0  0  0  0  0  0  0
  149.2681  133.5130  155.4936 H   0  0  0  0  0  0  0  0  0  0  0  0
  148.7482  135.1886  155.2273 H   0  0  0  0  0  0  0  0  0  0  0  0
  149.0485  134.1200  153.8576 H   0  0  0  0  0  0  0  0  0  0  0  0
  143.6666  132.5362  157.1037 H   0  0  0  0  0  0  0  0  0  0  0  0
  149.4631  133.5969  159.6942 H   0  0  0  0  0  0  0  0  0  0  0  0
  146.6786  131.7668  160.9979 H   0  0  0  0  0  0  0  0  0  0  0  0
  147.9820  132.7957  161.5329 H   0  0  0  0  0  0  0  0  0  0  0  0
  145.4730  134.2095  160.7332 H   0  0  0  0  0  0  0  0  0  0  0  0
  145.5120  132.5172  163.2782 H   0  0  0  0  0  0  0  0  0  0  0  0
  144.2786  133.6951  162.8807 H   0  0  0  0  0  0  0  0  0  0  0  0
  143.3897  132.1808  161.8231 H   0  0  0  0  0  0  0  0  0  0  0  0
  147.3248  134.5869  163.1007 H   0  0  0  0  0  0  0  0  0  0  0  0
  144.9204  136.2017  162.2400 H   0  0  0  0  0  0  0  0  0  0  0  0
  145.4161  135.7469  163.8704 H   0  0  0  0  0  0  0  0  0  0  0  0
  146.0923  138.1825  162.9796 H   0  0  0  0  0  0  0  0  0  0  0  0
  147.3811  137.2173  163.7192 H   0  0  0  0  0  0  0  0  0  0  0  0
  148.7139  135.6264  161.7199 H   0  0  0  0  0  0  0  0  0  0  0  0
  147.6118  135.5917  160.3538 H   0  0  0  0  0  0  0  0  0  0  0  0
  144.6133  134.8915  151.6765 H   0  0  0  0  0  0  0  0  0  0  0  0
  143.8385  134.8109  153.2702 H   0  0  0  0  0  0  0  0  0  0  0  0
  142.9651  134.2859  151.8427 H   0  0  0  0  0  0  0  0  0  0  0  0
  144.5023  132.8082  150.3784 H   0  0  0  0  0  0  0  0  0  0  0  0
  143.4961  131.5814  151.1297 H   0  0  0  0  0  0  0  0  0  0  0  0
  143.8061  132.4682  153.1187 H   0  0  0  0  0  0  0  0  0  0  0  0
  1  2  1  0  0  0  0
  1 32  1  0  0  0  0
  1 33  1  0  0  0  0
  1 34  1  0  0  0  0
  2  3  1  0  0  0  0
  3 30  1  0  0  0  0
  3 29  1  0  0  0  0
  3  4  1  0  0  0  0
  4  5  1  0  0  0  0
  4 35  1  0  0  0  0
  4 36  1  0  0  0  0
  5 31  1  0  0  0  0
  5  6  1  0  0  0  0
  5 27  1  0  0  0  0
  6  7  1  0  0  0  0
  6 37  1  0  0  0  0
  6 38  1  0  0  0  0
  7  8  1  0  0  0  0
  7  9  1  0  0  0  0
  8 39  1  0  0  0  0
  8 40  1  0  0  0  0
  8 41  1  0  0  0  0
  9 14  1  0  0  0  0
  9 10  2  0  0  0  0
 10 11  1  0  0  0  0
 11 12  2  0  0  0  0
 11 42  1  0  0  0  0
 12 13  1  0  0  0  0
 13 17  1  0  0  0  0
 13 14  2  0  0  0  0
 14 15  1  0  0  0  0
 15 16  2  0  0  0  0
 16 17  1  0  0  0  0
 16 43  1  0  0  0  0
 17 18  1  0  0  0  0
 18 19  1  0  0  0  0
 18 44  1  0  0  0  0
 18 45  1  0  0  0  0
 19 20  1  0  0  0  0
 19 22  1  0  0  0  0
 19 46  1  0  0  0  0
 20 21  1  0  0  0  0
 20 47  1  0  0  0  0
 20 48  1  0  0  0  0
 21 49  1  0  0  0  0
 22 26  1  0  0  0  0
 22 23  1  0  0  0  0
 22 50  1  0  0  0  0
 23 24  1  0  0  0  0
 23 51  1  0  0  0  0
 23 52  1  0  0  0  0
 24 25  1  0  0  0  0
 24 53  1  0  0  0  0
 24 54  1  0  0  0  0
 25 26  1  0  0  0  0
 26 55  1  0  0  0  0
 26 56  1  0  0  0  0
 27 28  1  0  0  0  0
 27 29  1  0  0  0  0
 27 62  1  0  0  0  0
 28 57  1  0  0  0  0
 28 58  1  0  0  0  0
 28 59  1  0  0  0  0
 29 60  1  0  0  0  0
 29 61  1  0  0  0  0
M  CHG  1  27   1
M  END
> <s_m_source_file>
AV-unprocessed.smi

> <i_m_source_file_index>
21

> <i_lp_mmshare_version>
43012

> <i_f3d_flags>
0

> <s_epik_input>
W0NIM11PW0NASF0xW0NIMl1bQ0BIXShOKFtDSDNdKVtDSDJdMSlbQ0gyXU4oW0NIM10pYyhuW2NIXW4yKWMoYzIzKW5bY0hdbjNbQ0gyXVtDQEhdKFtDSDJdW09IXSlbQ0BASF00W0NIMl1bQ0gyXU9bQ0gyXTQ=

> <s_epik_cmdline>
J2VwaWtfcHl0aG9uJywgJy1waCcsICc3LjAnLCAnLXRuJywgJzgnLCAnLW1hJywgJzIwMCcsICctbWV0YWxfYmluZGluZycsICctaW1hZScsICc8aW5maWxlLm1hZT4nLCAnLW9tYWUnLCAnPG91dGZpbGUubWFlPic=

> <r_lp_tautomer_probability>
1

> <r_epik_Ionization_Penalty>
0.0157465

> <r_epik_Ionization_Penalty_Charging>
0.015354

> <r_epik_Ionization_Penalty_Neutral>
0.000392529

> <r_epik_State_Penalty>
0.0120612

> <r_epik_Charging_Adjusted_Penalty>
0.0274152

> <i_epik_Tot_Q>
1

> <i_epik_Tot_abs_Q>
1

> <r_epik_Metal_State_Penalty>
0.0121253

> <b_epik_Metal_Only>
0

> <s_lp_Force_Field>
OPLS_2005

> <r_lp_Energy>
62.7223

> <b_lp_Chiralities_Consistent>
1

> <s_lp_Variant>
AV-unprocessed.smi:21-22

> <Gold.Version>
5.8.1

> <Gold.Id.Protein>
6NUR|6NUR_protein|mol2

> <Gold.PLP.Fitness>
48.4772

> <Gold.PLP.PLP>
-37.6438

> <Gold.PLP.part.hbond>
-3.8157

> <Gold.PLP.part.metal>
0.0000

> <Gold.PLP.part.buried>
-3.2490

> <Gold.PLP.part.nonpolar>
-31.4712

> <Gold.PLP.part.repulsive>
0.3059

> <Gold.PLP.ligand.clash>
0.0000

> <Gold.PLP.ligand.torsion>
1.1529

> <Gold.PLP.Chemscore.Hbond>
3.7345

> <Gold.PLP.Chemscore.CHOScore>
0.3822

> <Gold.PLP.Chemscore.Metal>
0.0000

> <Gold.Chemscore.Hbonds>
donor molecule, donor type, donor heavy atom, donor atom, acceptor molecule, acceptor atom, score
      L1  H    27    62       P1 10957  1.17
      P1  H  6931  6943       L1    25  0.91
      P1  H  6934  6947       L1    25  0.86
      L1  C    11    42       P1 10957  0.72

> <Gold.PLP.Chemscore.Internal.Correction>
0.7894

> <Gold.Rescore>
     Score         DG    S(hbond)    S(metal)    S(lipo)     H(rot)  DE(clash)    DE(int)     intcor
      8.94     -13.27       1.03        0.00     104.37       3.08       1.07       3.26       ----

> <Gold.Chemscore.Fitness>
8.9381

> <Gold.Chemscore.DG>
-13.2710

> <Gold.Chemscore.ZeroCoef>
-5.4800

> <Gold.Chemscore.Hbond>
1.0339

> <Gold.Chemscore.Metal>
0.0000

> <Gold.Chemscore.Lipo>
104.3739

> <Gold.Chemscore.Internal_Hbond>
0.0000

> <Gold.Chemscore.DEClash>
1.0729

> <Gold.Chemscore.DEInternal>
3.2599

> <Gold.Chemscore.Rot>
3.0758

> <Gold.Chemscore.Internal.Correction>
   9.000000E+99

> <Gold.Chemscore.Hbonds>
donor molecule, donor type, donor heavy atom, donor atom, acceptor molecule, acceptor atom, score
      L1  H    27    62       P1 10957  0.07
      P1  H  6931  6943       L1    25  0.32
      P1  H  6934  6947       L1    25  0.28

> <Gold.Chemscore.Hbond.Weighted>
-3.4534

> <Gold.Chemscore.Metal.Weighted>
-0.0000

> <Gold.Chemscore.Lipo.Weighted>
-12.2117

> <Gold.Chemscore.Internal_Hbond.Weighted>
0.0000

> <Gold.Chemscore.DEClash.Weighted>
1.0729

> <Gold.Chemscore.DEInternal.Weighted>
3.2599

> <Gold.Chemscore.Rot.Weighted>
7.8741

> <Gold.Chemscore.Internal.Correction.Weighted>
   9.000000E+99

> <Gold.Protein.RotatedTorsions>
[ 6907 6896 6895 6894 ] final -131.70 input  -60.11 | X-H torsion
[ 7974 7965 7964 7962 ] final -136.32 input  175.53 | X-H torsion
[ 8008 7997 7996 7995 ] final   66.79 input   59.86 | X-H torsion
[ 10167 10162 10161 10158 ] final -123.72 input  -65.29 | X-H torsion
[ 10718 10713 10712 10709 ] final -144.31 input   66.30 | X-H torsion
[ 10763 10752 10751 10750 ] final   91.11 input  -60.55 | X-H torsion
[ 11005 11000 10999 10996 ] final   94.40 input  -57.11 | X-H torsion

> <Gold.Protein.ActiveResidues>
 VAL166  LYS551  ARG553  GLY616  TRP617  ASP618  TYR619  PRO620  LYS621  CYS622 
 ASP623  PHE694  ASN695  SER759  ASP760  ASP761  ALA762  ILE779  LEU786  VAL792 
 PHE793  MET794  SER795  GLU796  ALA797  LYS798  CYS799  TRP800  GLU811  SER814 

> <Gold.Protein.RotatedAtoms>
  150.9540  133.6518  159.2766 H   0  0  0  0  0  0  0  0  0  0  0  0  # atno 6907 bound_to 6896
  151.3864  135.0947  159.9522 H   0  0  0  0  0  0  0  0  0  0  0  0  # atno 6908 bound_to 6896
  152.5121  133.9063  159.7521 H   0  0  0  0  0  0  0  0  0  0  0  0  # atno 6909 bound_to 6896
  144.8937  140.6677  143.5129 H   0  0  0  0  0  0  0  0  0  0  0  0  # atno 7974 bound_to 7965
  155.6828  140.3496  155.4862 H   0  0  0  0  0  0  0  0  0  0  0  0  # atno 8008 bound_to 7997
  155.9592  140.1134  157.0933 H   0  0  0  0  0  0  0  0  0  0  0  0  # atno 8009 bound_to 7997
  154.4139  140.1179  156.5142 H   0  0  0  0  0  0  0  0  0  0  0  0  # atno 8010 bound_to 7997
  140.0005  143.5546  152.2305 H   0  0  0  0  0  0  0  0  0  0  0  0  # atno 10167 bound_to 10162
  156.3686  130.7776  151.1954 H   0  0  0  0  0  0  0  0  0  0  0  0  # atno 10718 bound_to 10713
  153.2047  135.4409  155.0309 H   0  0  0  0  0  0  0  0  0  0  0  0  # atno 10763 bound_to 10752
  154.8167  135.3318  154.7158 H   0  0  0  0  0  0  0  0  0  0  0  0  # atno 10764 bound_to 10752
  153.7601  135.6992  153.4983 H   0  0  0  0  0  0  0  0  0  0  0  0  # atno 10765 bound_to 10752
  139.8799  134.8843  156.3859 H   0  0  0  0  0  0  0  0  0  0  0  0  # atno 11005 bound_to 11000
  145.3737  139.1652  143.4318 LP  0  0  0  0  0  0  0  0  0  0  0  0  # atno 17320 bound_to 7965
  146.3069  140.3812  142.8684 LP  0  0  0  0  0  0  0  0  0  0  0  0  # atno 17321 bound_to 7965
  139.6275  144.7639  151.2607 LP  0  0  0  0  0  0  0  0  0  0  0  0  # atno 17342 bound_to 10162
  140.7420  143.6538  150.8225 LP  0  0  0  0  0  0  0  0  0  0  0  0  # atno 17343 bound_to 10162
  157.7481  131.0379  150.4477 LP  0  0  0  0  0  0  0  0  0  0  0  0  # atno 17370 bound_to 10713
  156.4700  130.4050  149.6524 LP  0  0  0  0  0  0  0  0  0  0  0  0  # atno 17371 bound_to 10713
  140.9367  133.7542  156.0093 LP  0  0  0  0  0  0  0  0  0  0  0  0  # atno 17394 bound_to 11000
  140.8268  134.3225  157.5363 LP  0  0  0  0  0  0  0  0  0  0  0  0  # atno 17395 bound_to 11000

$$$$
