AV-unprocessed.smi:2400|AV-procd|sdf|9501|dock7
  -GOLD-   2272013133D 1   1.00000     0.00000
 Structure written by MMmdl.
 44 45  0  0  0  0  0  0  0  0  1 V2000
  147.4974  140.8478  154.4726 C   0  0  0  0  0  0  0  0  0  0  0  0
  148.0302  139.8252  155.2967 O   0  0  0  0  0  0  0  0  0  0  0  0
  149.3494  139.6104  155.1057 C   0  0  0  0  0  0  0  0  0  0  0  0
  150.0486  138.5050  154.7063 C   0  0  0  0  0  0  0  0  0  0  0  0
  149.5832  137.2090  154.3673 N   0  0  0  0  0  0  0  0  0  0  0  0
  149.4634  136.1519  155.1858 C   0  0  0  0  0  0  0  0  0  0  0  0
  149.7125  136.1619  156.3910 O   0  0  0  0  0  0  0  0  0  0  0  0
  149.0113  135.0756  154.5273 N   0  0  0  0  0  0  0  0  0  0  0  0
  148.7472  133.7667  155.1258 C   0  0  2  0  0  0  0  0  0  0  0  0
  150.0405  133.1808  155.7278 C   0  0  0  0  0  0  0  0  0  0  0  0
  150.2853  131.8483  155.0221 C   0  0  0  0  0  0  0  0  0  0  0  0
  148.9029  131.4123  154.5472 C   0  0  0  0  0  0  0  0  0  0  0  0
  148.1942  132.7100  154.1203 C   0  0  0  0  0  0  0  0  0  0  0  0
  146.6655  132.5664  154.2417 C   0  0  0  0  0  0  0  0  0  0  0  0
  148.5465  133.0182  152.6445 C   0  0  0  0  0  0  0  0  0  0  0  0
  151.4155  138.8957  154.7548 C   0  0  0  0  0  0  0  0  0  0  0  0
  152.6467  138.0917  154.4498 C   0  0  0  0  0  0  0  0  0  0  0  0
  151.5375  140.1691  155.1132 N   0  0  0  0  0  0  0  0  0  0  0  0
  150.2731  140.6117  155.3201 N   0  0  0  0  0  0  0  0  0  0  0  0
  150.0526  141.9799  155.7413 C   0  0  0  0  0  0  0  0  0  0  0  0
  146.4295  140.9509  154.6630 H   0  0  0  0  0  0  0  0  0  0  0  0
  147.6297  140.6079  153.4168 H   0  0  0  0  0  0  0  0  0  0  0  0
  147.9673  141.8114  154.6716 H   0  0  0  0  0  0  0  0  0  0  0  0
  149.2382  137.0962  153.4255 H   0  0  0  0  0  0  0  0  0  0  0  0
  148.8274  135.1661  153.5390 H   0  0  0  0  0  0  0  0  0  0  0  0
  148.0442  133.8882  155.9526 H   0  0  0  0  0  0  0  0  0  0  0  0
  150.9011  133.8434  155.6265 H   0  0  0  0  0  0  0  0  0  0  0  0
  149.8972  133.0087  156.7954 H   0  0  0  0  0  0  0  0  0  0  0  0
  150.9424  131.9982  154.1648 H   0  0  0  0  0  0  0  0  0  0  0  0
  150.7557  131.1114  155.6734 H   0  0  0  0  0  0  0  0  0  0  0  0
  148.9527  130.6674  153.7520 H   0  0  0  0  0  0  0  0  0  0  0  0
  148.3739  130.9532  155.3839 H   0  0  0  0  0  0  0  0  0  0  0  0
  146.2895  131.7772  153.5899 H   0  0  0  0  0  0  0  0  0  0  0  0
  146.1597  133.4918  153.9651 H   0  0  0  0  0  0  0  0  0  0  0  0
  146.3643  132.3207  155.2606 H   0  0  0  0  0  0  0  0  0  0  0  0
  148.2437  132.2006  151.9893 H   0  0  0  0  0  0  0  0  0  0  0  0
  149.6173  133.1677  152.5038 H   0  0  0  0  0  0  0  0  0  0  0  0
  148.0381  133.9143  152.2867 H   0  0  0  0  0  0  0  0  0  0  0  0
  152.3958  137.0737  154.1519 H   0  0  0  0  0  0  0  0  0  0  0  0
  153.2995  138.0295  155.3204 H   0  0  0  0  0  0  0  0  0  0  0  0
  153.2164  138.5415  153.6366 H   0  0  0  0  0  0  0  0  0  0  0  0
  149.0541  142.3046  155.4475 H   0  0  0  0  0  0  0  0  0  0  0  0
  150.7864  142.6397  155.2770 H   0  0  0  0  0  0  0  0  0  0  0  0
  150.1445  142.0472  156.8254 H   0  0  0  0  0  0  0  0  0  0  0  0
  1  2  1  0  0  0  0
  1 21  1  0  0  0  0
  1 22  1  0  0  0  0
  1 23  1  0  0  0  0
  2  3  1  0  0  0  0
  3 19  1  0  0  0  0
  3  4  2  0  0  0  0
  4  5  1  0  0  0  0
  4 16  1  0  0  0  0
  5  6  1  0  0  0  0
  5 24  1  0  0  0  0
  6  7  2  0  0  0  0
  6  8  1  0  0  0  0
  8  9  1  0  0  0  0
  8 25  1  0  0  0  0
  9 13  1  0  0  0  0
  9 10  1  0  0  0  0
  9 26  1  0  0  0  0
 10 11  1  0  0  0  0
 10 27  1  0  0  0  0
 10 28  1  0  0  0  0
 11 12  1  0  0  0  0
 11 29  1  0  0  0  0
 11 30  1  0  0  0  0
 12 13  1  0  0  0  0
 12 31  1  0  0  0  0
 12 32  1  0  0  0  0
 13 14  1  0  0  0  0
 13 15  1  0  0  0  0
 14 33  1  0  0  0  0
 14 34  1  0  0  0  0
 14 35  1  0  0  0  0
 15 36  1  0  0  0  0
 15 37  1  0  0  0  0
 15 38  1  0  0  0  0
 16 17  1  0  0  0  0
 16 18  2  0  0  0  0
 17 39  1  0  0  0  0
 17 40  1  0  0  0  0
 17 41  1  0  0  0  0
 18 19  1  0  0  0  0
 19 20  1  0  0  0  0
 20 42  1  0  0  0  0
 20 43  1  0  0  0  0
 20 44  1  0  0  0  0
M  END
> <s_m_source_file>
AV-unprocessed.smi

> <i_m_source_file_index>
2400

> <i_lp_mmshare_version>
43012

> <i_f3d_flags>
0

> <s_epik_input>
W0NIM11uMW5jKFtDSDNdKWMoYzFPW0NIM10pW05IXUMoPU8pW05IXVtDQEBIXShDMihbQ0gzXSlbQ0gzXSlbQ0gyXVtDSDJdW0NIMl0y

> <s_epik_cmdline>
J2VwaWtfcHl0aG9uJywgJy1waCcsICc3LjAnLCAnLXRuJywgJzgnLCAnLW1hJywgJzIwMCcsICctbWV0YWxfYmluZGluZycsICctaW1hZScsICc8aW5maWxlLm1hZT4nLCAnLW9tYWUnLCAnPG91dGZpbGUubWFlPic=

> <r_lp_tautomer_probability>
1

> <r_epik_Ionization_Penalty>
0.000423583

> <r_epik_Ionization_Penalty_Charging>
0

> <r_epik_Ionization_Penalty_Neutral>
0.000423583

> <r_epik_State_Penalty>
-0

> <r_epik_Charging_Adjusted_Penalty>
0

> <i_epik_Tot_Q>
0

> <i_epik_Tot_abs_Q>
0

> <r_epik_Metal_State_Penalty>
-0

> <b_epik_Metal_Only>
0

> <s_lp_Force_Field>
OPLS_2005

> <r_lp_Energy>
29.9339

> <b_lp_Chiralities_Consistent>
1

> <s_lp_Variant>
AV-unprocessed.smi:2400-1

> <Gold.Version>
5.8.1

> <Gold.Id.Protein>
6NUR|6NUR_protein|mol2

> <Gold.PLP.Fitness>
37.5300

> <Gold.PLP.PLP>
-30.8633

> <Gold.PLP.part.hbond>
-3.0000

> <Gold.PLP.part.metal>
0.0000

> <Gold.PLP.part.buried>
-0.5608

> <Gold.PLP.part.nonpolar>
-26.6287

> <Gold.PLP.part.repulsive>
0.1083

> <Gold.PLP.ligand.clash>
0.0000

> <Gold.PLP.ligand.torsion>
0.7473

> <Gold.PLP.Chemscore.Hbond>
2.7200

> <Gold.PLP.Chemscore.CHOScore>
0.0000

> <Gold.PLP.Chemscore.Metal>
0.0000

> <Gold.Chemscore.Hbonds>
donor molecule, donor type, donor heavy atom, donor atom, acceptor molecule, acceptor atom, score
      L1  H     5    24       P1  7948  1.00
      L1  H     8    25       P1  7948  0.99
      P1  H  7989  7998       L1    18  0.63

> <Gold.PLP.Chemscore.Internal.Correction>
0.0014

> <Gold.Rescore>
     Score         DG    S(hbond)    S(metal)    S(lipo)     H(rot)  DE(clash)    DE(int)     intcor
     14.24     -16.27       1.63        0.00      72.38       1.21       1.28       0.76       ----

> <Gold.Chemscore.Fitness>
14.2378

> <Gold.Chemscore.DG>
-16.2740

> <Gold.Chemscore.ZeroCoef>
-5.4800

> <Gold.Chemscore.Hbond>
1.6252

> <Gold.Chemscore.Metal>
0.0000

> <Gold.Chemscore.Lipo>
72.3771

> <Gold.Chemscore.Internal_Hbond>
0.0000

> <Gold.Chemscore.DEClash>
1.2788

> <Gold.Chemscore.DEInternal>
0.7574

> <Gold.Chemscore.Rot>
1.2119

> <Gold.Chemscore.Internal.Correction>
   9.000000E+99

> <Gold.Chemscore.Hbonds>
donor molecule, donor type, donor heavy atom, donor atom, acceptor molecule, acceptor atom, score
      L1  H     5    24       P1  7948  0.97
      L1  H     8    25       P1  7948  0.65
      P1  H  7989  7998       L1    18  0.01

> <Gold.Chemscore.Hbond.Weighted>
-5.4282

> <Gold.Chemscore.Metal.Weighted>
-0.0000

> <Gold.Chemscore.Lipo.Weighted>
-8.4681

> <Gold.Chemscore.Internal_Hbond.Weighted>
0.0000

> <Gold.Chemscore.DEClash.Weighted>
1.2788

> <Gold.Chemscore.DEInternal.Weighted>
0.7574

> <Gold.Chemscore.Rot.Weighted>
3.1024

> <Gold.Chemscore.Internal.Correction.Weighted>
   9.000000E+99

> <Gold.Protein.RotatedTorsions>
[ 6907 6896 6895 6894 ] final   22.16 input  -60.11 | X-H torsion
[ 7974 7965 7964 7962 ] final  -11.32 input  175.53 | X-H torsion
[ 8008 7997 7996 7995 ] final  -16.68 input   59.86 | X-H torsion
[ 10167 10162 10161 10158 ] final   13.52 input  -65.29 | X-H torsion
[ 10718 10713 10712 10709 ] final  -80.47 input   66.30 | X-H torsion
[ 10763 10752 10751 10750 ] final  158.22 input  -60.55 | X-H torsion
[ 11005 11000 10999 10996 ] final   72.80 input  -57.11 | X-H torsion

> <Gold.Protein.ActiveResidues>
 VAL166  LYS551  ARG553  GLY616  TRP617  ASP618  TYR619  PRO620  LYS621  CYS622 
 ASP623  PHE694  ASN695  SER759  ASP760  ASP761  ALA762  ILE779  LEU786  VAL792 
 PHE793  MET794  SER795  GLU796  ALA797  LYS798  CYS799  TRP800  GLU811  SER814 

> <Gold.Protein.RotatedAtoms>
  151.9229  135.0290  160.0523 H   0  0  0  0  0  0  0  0  0  0  0  0  # atno 6907 bound_to 6896
  152.2184  133.4960  159.5157 H   0  0  0  0  0  0  0  0  0  0  0  0  # atno 6908 bound_to 6896
  150.6993  134.1291  159.4106 H   0  0  0  0  0  0  0  0  0  0  0  0  # atno 6909 bound_to 6896
  146.2191  140.2894  142.8367 H   0  0  0  0  0  0  0  0  0  0  0  0  # atno 7974 bound_to 7965
  154.5035  140.2163  155.9298 H   0  0  0  0  0  0  0  0  0  0  0  0  # atno 8008 bound_to 7997
  156.1464  140.3170  155.8544 H   0  0  0  0  0  0  0  0  0  0  0  0  # atno 8009 bound_to 7997
  155.4023  140.0485  157.3027 H   0  0  0  0  0  0  0  0  0  0  0  0  # atno 8010 bound_to 7997
  140.5997  143.8630  150.6953 H   0  0  0  0  0  0  0  0  0  0  0  0  # atno 10167 bound_to 10162
  156.0069  130.4575  150.3805 H   0  0  0  0  0  0  0  0  0  0  0  0  # atno 10718 bound_to 10713
  154.2126  135.2785  155.2953 H   0  0  0  0  0  0  0  0  0  0  0  0  # atno 10763 bound_to 10752
  154.5766  135.5602  153.7149 H   0  0  0  0  0  0  0  0  0  0  0  0  # atno 10764 bound_to 10752
  153.0060  135.6334  154.2265 H   0  0  0  0  0  0  0  0  0  0  0  0  # atno 10765 bound_to 10752
  139.9472  134.7292  156.0950 H   0  0  0  0  0  0  0  0  0  0  0  0  # atno 11005 bound_to 11000
  144.9138  140.7789  143.5791 LP  0  0  0  0  0  0  0  0  0  0  0  0  # atno 17320 bound_to 7965
  145.2826  139.1913  143.4783 LP  0  0  0  0  0  0  0  0  0  0  0  0  # atno 17321 bound_to 7965
  140.2173  143.3836  152.1671 LP  0  0  0  0  0  0  0  0  0  0  0  0  # atno 17342 bound_to 10162
  139.5282  144.7128  151.5151 LP  0  0  0  0  0  0  0  0  0  0  0  0  # atno 17343 bound_to 10162
  157.1885  131.0409  151.2712 LP  0  0  0  0  0  0  0  0  0  0  0  0  # atno 17370 bound_to 10713
  157.4082  130.7371  149.6819 LP  0  0  0  0  0  0  0  0  0  0  0  0  # atno 17371 bound_to 10713
  141.1126  133.6638  156.3015 LP  0  0  0  0  0  0  0  0  0  0  0  0  # atno 17394 bound_to 11000
  140.5806  134.5749  157.5478 LP  0  0  0  0  0  0  0  0  0  0  0  0  # atno 17395 bound_to 11000

$$$$
