AV-unprocessed.smi:32|AV-procd|sdf|197|dock6
  -GOLD-   2262015463D 1   1.00000     0.00000
 Structure written by MMmdl.
 49 51  0  0  0  0  0  0  0  0  1 V2000
  152.3830  140.0063  155.9787 O   0  0  0  0  0  0  0  0  0  0  0  0
  151.8581  139.4765  156.9594 C   0  0  0  0  0  0  0  0  0  0  0  0
  151.2968  138.0483  156.8840 C   0  0  0  0  0  0  0  0  0  0  0  0
  149.9060  137.9339  157.3751 N   0  0  0  0  0  0  0  0  0  0  0  0
  148.8667  138.5147  156.6068 C   0  0  0  0  0  0  0  0  0  0  0  0
  149.1063  139.1106  155.5555 O   0  0  0  0  0  0  0  0  0  0  0  0
  147.5201  138.3506  157.1427 C   0  0  0  0  0  0  0  0  0  0  0  0
  146.4740  138.8788  156.4853 F   0  0  0  0  0  0  0  0  0  0  0  0
  147.3060  137.6762  158.2912 C   0  0  0  0  0  0  0  0  0  0  0  0
  148.3295  137.1018  159.0238 N   0  0  0  0  0  0  0  0  0  0  0  0
  148.0721  136.3426  160.3083 C   0  0  2  0  0  0  0  0  0  0  0  0
  147.2278  135.0836  160.0344 C   0  0  0  0  0  0  0  0  0  0  0  0
  146.1090  135.2043  161.0499 C   0  0  0  0  0  0  0  0  0  0  0  0
  145.9859  136.7129  161.2029 C   0  0  0  0  0  0  0  0  0  0  0  0
  147.3416  137.1415  161.1956 O   0  0  0  0  0  0  0  0  0  0  0  0
  149.6622  137.2233  158.5744 C   0  0  0  0  0  0  0  0  0  0  0  0
  150.5874  136.7143  159.2110 O   0  0  0  0  0  0  0  0  0  0  0  0
  151.7387  140.0863  158.1488 N   0  0  0  0  0  0  0  0  0  0  0  0
  152.1918  141.4398  158.4615 C   0  0  0  0  0  0  0  0  0  0  0  0
  152.1455  141.6357  159.9913 C   0  0  0  0  0  0  0  0  0  0  0  0
  152.9081  142.8836  160.4674 C   0  0  0  0  0  0  0  0  0  0  0  0
  152.0981  144.1917  160.4820 C   0  0  0  0  0  0  0  0  0  0  0  0
  151.1524  144.4279  159.2915 C   0  0  0  0  0  0  0  0  0  0  0  0
  151.6705  143.9349  157.9308 C   0  0  0  0  0  0  0  0  0  0  0  0
  151.3420  142.4548  157.6687 C   0  0  0  0  0  0  0  0  0  0  0  0
  151.3821  137.7012  155.8534 H   0  0  0  0  0  0  0  0  0  0  0  0
  151.9578  137.3825  157.4414 H   0  0  0  0  0  0  0  0  0  0  0  0
  146.2861  137.5934  158.6337 H   0  0  0  0  0  0  0  0  0  0  0  0
  149.0560  136.1379  160.7339 H   0  0  0  0  0  0  0  0  0  0  0  0
  146.8256  135.1120  159.0203 H   0  0  0  0  0  0  0  0  0  0  0  0
  147.8236  134.1784  160.1548 H   0  0  0  0  0  0  0  0  0  0  0  0
  145.1827  134.7303  160.7246 H   0  0  0  0  0  0  0  0  0  0  0  0
  146.4108  134.7557  161.9973 H   0  0  0  0  0  0  0  0  0  0  0  0
  145.4486  137.1454  160.3578 H   0  0  0  0  0  0  0  0  0  0  0  0
  145.4772  137.0055  162.1216 H   0  0  0  0  0  0  0  0  0  0  0  0
  151.2944  139.5742  158.8972 H   0  0  0  0  0  0  0  0  0  0  0  0
  153.2321  141.5332  158.1442 H   0  0  0  0  0  0  0  0  0  0  0  0
  151.1179  141.6459  160.3572 H   0  0  0  0  0  0  0  0  0  0  0  0
  152.6179  140.7696  160.4573 H   0  0  0  0  0  0  0  0  0  0  0  0
  153.2725  142.7083  161.4802 H   0  0  0  0  0  0  0  0  0  0  0  0
  153.8058  143.0147  159.8619 H   0  0  0  0  0  0  0  0  0  0  0  0
  151.5084  144.2373  161.3983 H   0  0  0  0  0  0  0  0  0  0  0  0
  152.8020  145.0223  160.5476 H   0  0  0  0  0  0  0  0  0  0  0  0
  150.1846  143.9689  159.4978 H   0  0  0  0  0  0  0  0  0  0  0  0
  150.9526  145.4983  159.2295 H   0  0  0  0  0  0  0  0  0  0  0  0
  151.1796  144.5221  157.1538 H   0  0  0  0  0  0  0  0  0  0  0  0
  152.7379  144.1292  157.8200 H   0  0  0  0  0  0  0  0  0  0  0  0
  151.4829  142.2645  156.6040 H   0  0  0  0  0  0  0  0  0  0  0  0
  150.2819  142.2793  157.8575 H   0  0  0  0  0  0  0  0  0  0  0  0
  1  2  2  0  0  0  0
  2  3  1  0  0  0  0
  2 18  1  0  0  0  0
  3  4  1  0  0  0  0
  3 26  1  0  0  0  0
  3 27  1  0  0  0  0
  4 16  1  0  0  0  0
  4  5  1  0  0  0  0
  5  6  2  0  0  0  0
  5  7  1  0  0  0  0
  7  8  1  0  0  0  0
  7  9  2  0  0  0  0
  9 10  1  0  0  0  0
  9 28  1  0  0  0  0
 10 11  1  0  0  0  0
 10 16  1  0  0  0  0
 11 15  1  0  0  0  0
 11 12  1  0  0  0  0
 11 29  1  0  0  0  0
 12 13  1  0  0  0  0
 12 30  1  0  0  0  0
 12 31  1  0  0  0  0
 13 14  1  0  0  0  0
 13 32  1  0  0  0  0
 13 33  1  0  0  0  0
 14 15  1  0  0  0  0
 14 34  1  0  0  0  0
 14 35  1  0  0  0  0
 16 17  2  0  0  0  0
 18 19  1  0  0  0  0
 18 36  1  0  0  0  0
 19 25  1  0  0  0  0
 19 20  1  0  0  0  0
 19 37  1  0  0  0  0
 20 21  1  0  0  0  0
 20 38  1  0  0  0  0
 20 39  1  0  0  0  0
 21 22  1  0  0  0  0
 21 40  1  0  0  0  0
 21 41  1  0  0  0  0
 22 23  1  0  0  0  0
 22 42  1  0  0  0  0
 22 43  1  0  0  0  0
 23 24  1  0  0  0  0
 23 44  1  0  0  0  0
 23 45  1  0  0  0  0
 24 25  1  0  0  0  0
 24 46  1  0  0  0  0
 24 47  1  0  0  0  0
 25 48  1  0  0  0  0
 25 49  1  0  0  0  0
M  END
> <s_m_source_file>
AV-unprocessed.smi

> <i_m_source_file_index>
32

> <i_lp_mmshare_version>
43012

> <i_f3d_flags>
0

> <s_epik_input>
W0NIMl0xW0NIMl1bQ0gyXVtDSDJdW0NIMl1bQ0gyXVtDSF0xW05IXUMoPU8pW0NIMl1uMmMoPU8pYyhGKVtjSF1uKGMyPU8pW0NAQEhdM1tDSDJdW0NIMl1bQ0gyXU8z

> <s_epik_cmdline>
J2VwaWtfcHl0aG9uJywgJy1waCcsICc3LjAnLCAnLXRuJywgJzgnLCAnLW1hJywgJzIwMCcsICctbWV0YWxfYmluZGluZycsICctaW1hZScsICc8aW5maWxlLm1hZT4nLCAnLW9tYWUnLCAnPG91dGZpbGUubWFlPic=

> <r_lp_tautomer_probability>
1

> <r_epik_Ionization_Penalty>
2.43741e-08

> <r_epik_Ionization_Penalty_Charging>
4.15308e-09

> <r_epik_Ionization_Penalty_Neutral>
2.0221e-08

> <r_epik_State_Penalty>
-0

> <r_epik_Charging_Adjusted_Penalty>
4.15308e-09

> <i_epik_Tot_Q>
0

> <i_epik_Tot_abs_Q>
0

> <r_epik_Metal_State_Penalty>
-0

> <b_epik_Metal_Only>
0

> <s_epik_Chemistry_Notes>
This compound contains an acetal/aminal-like group ( X-CH(R)-Y where X, Y are N, S, or O) that may be acid/base labile, releasing an aldehyde.

> <s_lp_Force_Field>
OPLS_2005

> <r_lp_Energy>
35.2261

> <b_lp_Chiralities_Consistent>
1

> <s_lp_Variant>
AV-unprocessed.smi:32-1

> <Gold.Version>
5.8.1

> <Gold.Id.Protein>
6NUR|6NUR_protein|mol2

> <Gold.PLP.Fitness>
49.8461

> <Gold.PLP.PLP>
-39.6798

> <Gold.PLP.part.hbond>
-4.0000

> <Gold.PLP.part.metal>
0.0000

> <Gold.PLP.part.buried>
-5.4506

> <Gold.PLP.part.nonpolar>
-30.7898

> <Gold.PLP.part.repulsive>
0.1179

> <Gold.PLP.ligand.clash>
0.0000

> <Gold.PLP.ligand.torsion>
0.2908

> <Gold.PLP.Chemscore.Hbond>
3.5740

> <Gold.PLP.Chemscore.CHOScore>
0.0000

> <Gold.PLP.Chemscore.Metal>
0.0000

> <Gold.Chemscore.Hbonds>
donor molecule, donor type, donor heavy atom, donor atom, acceptor molecule, acceptor atom, score
      P1  H  6896  6908       L1    17  1.00
      P1  H  6931  6943       L1    15  0.51
      P1  H  6934  6947       L1    15  1.00
      P1  H  7997  8010       L1     1  1.00

> <Gold.PLP.Chemscore.Internal.Correction>
0.0259

> <Gold.Rescore>
     Score         DG    S(hbond)    S(metal)    S(lipo)     H(rot)  DE(clash)    DE(int)     intcor
     20.81     -21.46       2.85        0.00      95.17       1.82       0.01       0.64       ----

> <Gold.Chemscore.Fitness>
20.8061

> <Gold.Chemscore.DG>
-21.4560

> <Gold.Chemscore.ZeroCoef>
-5.4800

> <Gold.Chemscore.Hbond>
2.8479

> <Gold.Chemscore.Metal>
0.0000

> <Gold.Chemscore.Lipo>
95.1737

> <Gold.Chemscore.Internal_Hbond>
0.0000

> <Gold.Chemscore.DEClash>
0.0075

> <Gold.Chemscore.DEInternal>
0.6424

> <Gold.Chemscore.Rot>
1.8248

> <Gold.Chemscore.Internal.Correction>
   9.000000E+99

> <Gold.Chemscore.Hbonds>
donor molecule, donor type, donor heavy atom, donor atom, acceptor molecule, acceptor atom, score
      P1  H  6896  6908       L1    17  0.99
      P1  H  6931  6943       L1    15  0.07
      P1  H  6934  6947       L1    15  0.37
      P1  H  7997  8010       L1     1  0.85

> <Gold.Chemscore.Hbond.Weighted>
-9.5121

> <Gold.Chemscore.Metal.Weighted>
-0.0000

> <Gold.Chemscore.Lipo.Weighted>
-11.1353

> <Gold.Chemscore.Internal_Hbond.Weighted>
0.0000

> <Gold.Chemscore.DEClash.Weighted>
0.0075

> <Gold.Chemscore.DEInternal.Weighted>
0.6424

> <Gold.Chemscore.Rot.Weighted>
4.6714

> <Gold.Chemscore.Internal.Correction.Weighted>
   9.000000E+99

> <Gold.Protein.RotatedTorsions>
[ 6907 6896 6895 6894 ] final -158.37 input  -60.11 | X-H torsion
[ 7974 7965 7964 7962 ] final    7.25 input  175.53 | X-H torsion
[ 8008 7997 7996 7995 ] final   96.71 input   59.86 | X-H torsion
[ 10167 10162 10161 10158 ] final -136.88 input  -65.29 | X-H torsion
[ 10718 10713 10712 10709 ] final  144.71 input   66.30 | X-H torsion
[ 10763 10752 10751 10750 ] final   66.10 input  -60.55 | X-H torsion
[ 11005 11000 10999 10996 ] final  -62.40 input  -57.11 | X-H torsion

> <Gold.Protein.ActiveResidues>
 VAL166  LYS551  ARG553  GLY616  TRP617  ASP618  TYR619  PRO620  LYS621  CYS622 
 ASP623  PHE694  ASN695  SER759  ASP760  ASP761  ALA762  ILE779  LEU786  VAL792 
 PHE793  MET794  SER795  GLU796  ALA797  LYS798  CYS799  TRP800  GLU811  SER814 

> <Gold.Protein.RotatedAtoms>
  151.3171  133.4056  159.2651 H   0  0  0  0  0  0  0  0  0  0  0  0  # atno 6907 bound_to 6896
  151.0066  134.9364  159.7994 H   0  0  0  0  0  0  0  0  0  0  0  0  # atno 6908 bound_to 6896
  152.5289  134.3135  159.9175 H   0  0  0  0  0  0  0  0  0  0  0  0  # atno 6909 bound_to 6896
  146.2428  140.0111  142.8406 H   0  0  0  0  0  0  0  0  0  0  0  0  # atno 7974 bound_to 7965
  156.0825  140.3268  155.7712 H   0  0  0  0  0  0  0  0  0  0  0  0  # atno 8008 bound_to 7997
  155.5129  140.0578  157.2937 H   0  0  0  0  0  0  0  0  0  0  0  0  # atno 8009 bound_to 7997
  154.4590  140.1957  156.0314 H   0  0  0  0  0  0  0  0  0  0  0  0  # atno 8010 bound_to 7997
  139.8633  143.7049  152.2648 H   0  0  0  0  0  0  0  0  0  0  0  0  # atno 10167 bound_to 10162
  157.3540  131.0955  151.0975 H   0  0  0  0  0  0  0  0  0  0  0  0  # atno 10718 bound_to 10713
  153.0125  135.5333  154.6771 H   0  0  0  0  0  0  0  0  0  0  0  0  # atno 10763 bound_to 10752
  154.5940  135.2861  155.0607 H   0  0  0  0  0  0  0  0  0  0  0  0  # atno 10764 bound_to 10752
  154.1690  135.6535  153.5057 H   0  0  0  0  0  0  0  0  0  0  0  0  # atno 10765 bound_to 10752
  141.1358  133.6640  156.5522 H   0  0  0  0  0  0  0  0  0  0  0  0  # atno 11005 bound_to 11000
  145.1327  140.9527  143.4535 LP  0  0  0  0  0  0  0  0  0  0  0  0  # atno 17320 bound_to 7965
  145.0372  139.3290  143.5995 LP  0  0  0  0  0  0  0  0  0  0  0  0  # atno 17321 bound_to 7965
  139.7352  144.7573  151.0738 LP  0  0  0  0  0  0  0  0  0  0  0  0  # atno 17342 bound_to 10162
  140.7772  143.5039  150.9737 LP  0  0  0  0  0  0  0  0  0  0  0  0  # atno 17343 bound_to 10162
  157.2140  130.6451  149.5785 LP  0  0  0  0  0  0  0  0  0  0  0  0  # atno 17370 bound_to 10713
  155.9726  130.4651  150.6240 LP  0  0  0  0  0  0  0  0  0  0  0  0  # atno 17371 bound_to 10713
  140.4054  134.7319  157.4805 LP  0  0  0  0  0  0  0  0  0  0  0  0  # atno 17394 bound_to 11000
  140.0465  134.6192  155.8914 LP  0  0  0  0  0  0  0  0  0  0  0  0  # atno 17395 bound_to 11000

$$$$
