AV-unprocessed.smi:2426|AV-procd|sdf|9577|dock3
  -GOLD-   2272013213D 1   1.00000     0.00000
 Structure written by MMmdl.
 36 37  0  0  0  0  0  0  0  0  1 V2000
  152.1802  135.8802  157.0688 C   0  0  0  0  0  0  0  0  0  0  0  0
  151.6202  136.0941  155.7781 O   0  0  0  0  0  0  0  0  0  0  0  0
  151.2754  137.3816  155.4232 C   0  0  0  0  0  0  0  0  0  0  0  0
  151.6218  138.4496  156.2764 C   0  0  0  0  0  0  0  0  0  0  0  0
  151.2529  139.7528  155.8740 C   0  0  0  0  0  0  0  0  0  0  0  0
  151.6219  140.7996  156.7598 N   0  0  0  0  0  0  0  0  0  0  0  0
  151.9301  140.7101  158.0655 C   0  0  0  0  0  0  0  0  0  0  0  0
  151.9524  139.6677  158.7207 O   0  0  0  0  0  0  0  0  0  0  0  0
  152.2078  141.9171  158.5813 N   0  0  0  0  0  0  0  0  0  0  0  0
  152.5501  142.1905  159.9750 C   0  0  1  0  0  0  0  0  0  0  0  0
  153.9075  141.5495  160.2961 C   0  0  0  0  0  0  0  0  0  0  0  0
  152.5535  143.6998  160.2265 C   0  0  0  0  0  0  0  0  0  0  0  0
  151.2483  144.4210  160.5973 C   0  0  0  0  0  0  0  0  0  0  0  0
  151.7534  145.6384  159.8179 C   0  0  0  0  0  0  0  0  0  0  0  0
  152.6693  144.6820  159.0498 C   0  0  0  0  0  0  0  0  0  0  0  0
  150.5890  139.9377  154.7061 N   0  0  0  0  0  0  0  0  0  0  0  0
  150.3067  138.8615  153.9698 C   0  0  0  0  0  0  0  0  0  0  0  0
  150.6118  137.5966  154.2614 N   0  0  0  0  0  0  0  0  0  0  0  0
  152.3904  134.8189  157.1998 H   0  0  0  0  0  0  0  0  0  0  0  0
  151.4897  136.1803  157.8585 H   0  0  0  0  0  0  0  0  0  0  0  0
  153.1198  136.4214  157.1901 H   0  0  0  0  0  0  0  0  0  0  0  0
  152.1510  138.2700  157.2008 H   0  0  0  0  0  0  0  0  0  0  0  0
  151.6404  141.7243  156.3560 H   0  0  0  0  0  0  0  0  0  0  0  0
  152.1644  142.7153  157.9650 H   0  0  0  0  0  0  0  0  0  0  0  0
  151.8117  141.7197  160.6265 H   0  0  0  0  0  0  0  0  0  0  0  0
  154.1777  141.7050  161.3409 H   0  0  0  0  0  0  0  0  0  0  0  0
  154.7026  141.9719  159.6807 H   0  0  0  0  0  0  0  0  0  0  0  0
  153.8855  140.4733  160.1211 H   0  0  0  0  0  0  0  0  0  0  0  0
  153.3100  143.9625  160.9697 H   0  0  0  0  0  0  0  0  0  0  0  0
  150.3678  143.9653  160.1414 H   0  0  0  0  0  0  0  0  0  0  0  0
  151.1068  144.5877  161.6655 H   0  0  0  0  0  0  0  0  0  0  0  0
  150.9990  146.1373  159.2090 H   0  0  0  0  0  0  0  0  0  0  0  0
  152.3048  146.3434  160.4421 H   0  0  0  0  0  0  0  0  0  0  0  0
  153.6764  145.0573  158.8669 H   0  0  0  0  0  0  0  0  0  0  0  0
  152.2092  144.3049  158.1349 H   0  0  0  0  0  0  0  0  0  0  0  0
  149.7778  139.0320  153.0439 H   0  0  0  0  0  0  0  0  0  0  0  0
  1  2  1  0  0  0  0
  1 19  1  0  0  0  0
  1 20  1  0  0  0  0
  1 21  1  0  0  0  0
  2  3  1  0  0  0  0
  3 18  1  0  0  0  0
  3  4  2  0  0  0  0
  4  5  1  0  0  0  0
  4 22  1  0  0  0  0
  5  6  1  0  0  0  0
  5 16  2  0  0  0  0
  6  7  1  0  0  0  0
  6 23  1  0  0  0  0
  7  8  2  0  0  0  0
  7  9  1  0  0  0  0
  9 10  1  0  0  0  0
  9 24  1  0  0  0  0
 10 11  1  0  0  0  0
 10 12  1  0  0  0  0
 10 25  1  0  0  0  0
 11 26  1  0  0  0  0
 11 27  1  0  0  0  0
 11 28  1  0  0  0  0
 12 15  1  0  0  0  0
 12 13  1  0  0  0  0
 12 29  1  0  0  0  0
 13 14  1  0  0  0  0
 13 30  1  0  0  0  0
 13 31  1  0  0  0  0
 14 15  1  0  0  0  0
 14 32  1  0  0  0  0
 14 33  1  0  0  0  0
 15 34  1  0  0  0  0
 15 35  1  0  0  0  0
 16 17  1  0  0  0  0
 17 18  2  0  0  0  0
 17 36  1  0  0  0  0
M  END
> <s_m_source_file>
AV-unprocessed.smi

> <i_m_source_file_index>
2426

> <i_lp_mmshare_version>
43012

> <i_f3d_flags>
0

> <s_epik_input>
W0NIM11PYzFbY0hdYyhuW2NIXW4xKVtOSF1DKD1PKVtOSF1bQ0BIXShbQ0gzXSlbQ0hdMltDSDJdW0NIMl1bQ0gyXTI=

> <s_epik_cmdline>
J2VwaWtfcHl0aG9uJywgJy1waCcsICc3LjAnLCAnLXRuJywgJzgnLCAnLW1hJywgJzIwMCcsICctbWV0YWxfYmluZGluZycsICctaW1hZScsICc8aW5maWxlLm1hZT4nLCAnLW9tYWUnLCAnPG91dGZpbGUubWFlPic=

> <r_lp_tautomer_probability>
1

> <r_epik_Ionization_Penalty>
2.84534e-05

> <r_epik_Ionization_Penalty_Charging>
0

> <r_epik_Ionization_Penalty_Neutral>
2.84534e-05

> <r_epik_State_Penalty>
-0

> <r_epik_Charging_Adjusted_Penalty>
0

> <i_epik_Tot_Q>
0

> <i_epik_Tot_abs_Q>
0

> <r_epik_Metal_State_Penalty>
-0

> <b_epik_Metal_Only>
0

> <s_lp_Force_Field>
OPLS_2005

> <r_lp_Energy>
11.0753

> <b_lp_Chiralities_Consistent>
1

> <s_lp_Variant>
AV-unprocessed.smi:2426-2

> <Gold.Version>
5.8.1

> <Gold.Id.Protein>
6NUR|6NUR_protein|mol2

> <Gold.PLP.Fitness>
42.8653

> <Gold.PLP.PLP>
-36.1076

> <Gold.PLP.part.hbond>
-2.0000

> <Gold.PLP.part.metal>
0.0000

> <Gold.PLP.part.buried>
-4.6870

> <Gold.PLP.part.nonpolar>
-30.5319

> <Gold.PLP.part.repulsive>
0.5239

> <Gold.PLP.ligand.clash>
0.1374

> <Gold.PLP.ligand.torsion>
1.1105

> <Gold.PLP.Chemscore.Hbond>
2.0000

> <Gold.PLP.Chemscore.CHOScore>
1.0000

> <Gold.PLP.Chemscore.Metal>
0.0000

> <Gold.Chemscore.Hbonds>
donor molecule, donor type, donor heavy atom, donor atom, acceptor molecule, acceptor atom, score
      P1  H  7989  7998       L1    16  0.95
      P1  H 10752 10764       L1     2  0.90
      L1  C    17    36       P1  7957  1.00

> <Gold.PLP.Chemscore.Internal.Correction>
0.1160

> <Gold.Rescore>
     Score         DG    S(hbond)    S(metal)    S(lipo)     H(rot)  DE(clash)    DE(int)     intcor
     10.64     -12.92       0.80        0.00      75.70       1.60       0.05       2.23       ----

> <Gold.Chemscore.Fitness>
10.6377

> <Gold.Chemscore.DG>
-12.9196

> <Gold.Chemscore.ZeroCoef>
-5.4800

> <Gold.Chemscore.Hbond>
0.7998

> <Gold.Chemscore.Metal>
0.0000

> <Gold.Chemscore.Lipo>
75.6984

> <Gold.Chemscore.Internal_Hbond>
0.0000

> <Gold.Chemscore.DEClash>
0.0494

> <Gold.Chemscore.DEInternal>
2.2326

> <Gold.Chemscore.Rot>
1.5971

> <Gold.Chemscore.Internal.Correction>
   9.000000E+99

> <Gold.Chemscore.Hbonds>
donor molecule, donor type, donor heavy atom, donor atom, acceptor molecule, acceptor atom, score
      P1  H  7989  7998       L1    16  0.17
      P1  H 10752 10764       L1     2  0.13

> <Gold.Chemscore.Hbond.Weighted>
-2.6715

> <Gold.Chemscore.Metal.Weighted>
-0.0000

> <Gold.Chemscore.Lipo.Weighted>
-8.8567

> <Gold.Chemscore.Internal_Hbond.Weighted>
0.0000

> <Gold.Chemscore.DEClash.Weighted>
0.0494

> <Gold.Chemscore.DEInternal.Weighted>
2.2326

> <Gold.Chemscore.Rot.Weighted>
4.0886

> <Gold.Chemscore.Internal.Correction.Weighted>
   9.000000E+99

> <Gold.Protein.RotatedTorsions>
[ 6907 6896 6895 6894 ] final -157.68 input  -60.11 | X-H torsion
[ 7974 7965 7964 7962 ] final  152.62 input  175.53 | X-H torsion
[ 8008 7997 7996 7995 ] final  100.43 input   59.86 | X-H torsion
[ 10167 10162 10161 10158 ] final   20.44 input  -65.29 | X-H torsion
[ 10718 10713 10712 10709 ] final  -85.17 input   66.30 | X-H torsion
[ 10763 10752 10751 10750 ] final  -46.82 input  -60.55 | X-H torsion
[ 11005 11000 10999 10996 ] final -163.72 input  -57.11 | X-H torsion

> <Gold.Protein.ActiveResidues>
 VAL166  LYS551  ARG553  GLY616  TRP617  ASP618  TYR619  PRO620  LYS621  CYS622 
 ASP623  PHE694  ASN695  SER759  ASP760  ASP761  ALA762  ILE779  LEU786  VAL792 
 PHE793  MET794  SER795  GLU796  ALA797  LYS798  CYS799  TRP800  GLU811  SER814 

> <Gold.Protein.RotatedAtoms>
  151.3066  133.4099  159.2643 H   0  0  0  0  0  0  0  0  0  0  0  0  # atno 6907 bound_to 6896
  151.0150  134.9426  159.8038 H   0  0  0  0  0  0  0  0  0  0  0  0  # atno 6908 bound_to 6896
  152.5310  134.3030  159.9138 H   0  0  0  0  0  0  0  0  0  0  0  0  # atno 6909 bound_to 6896
  144.8210  139.6692  143.6100 H   0  0  0  0  0  0  0  0  0  0  0  0  # atno 7974 bound_to 7965
  156.1203  140.3213  155.8198 H   0  0  0  0  0  0  0  0  0  0  0  0  # atno 8008 bound_to 7997
  155.4517  140.0533  157.3017 H   0  0  0  0  0  0  0  0  0  0  0  0  # atno 8009 bound_to 7997
  154.4822  140.2058  155.9750 H   0  0  0  0  0  0  0  0  0  0  0  0  # atno 8010 bound_to 7997
  140.5504  143.9520  150.6574 H   0  0  0  0  0  0  0  0  0  0  0  0  # atno 10167 bound_to 10162
  155.9999  130.4722  150.4522 H   0  0  0  0  0  0  0  0  0  0  0  0  # atno 10718 bound_to 10713
  154.0513  135.6630  153.4801 H   0  0  0  0  0  0  0  0  0  0  0  0  # atno 10763 bound_to 10752
  153.0462  135.5113  154.7748 H   0  0  0  0  0  0  0  0  0  0  0  0  # atno 10764 bound_to 10752
  154.6755  135.3036  154.9651 H   0  0  0  0  0  0  0  0  0  0  0  0  # atno 10765 bound_to 10752
  140.5950  134.5006  157.5198 H   0  0  0  0  0  0  0  0  0  0  0  0  # atno 11005 bound_to 11000
  146.2515  139.6211  142.9423 LP  0  0  0  0  0  0  0  0  0  0  0  0  # atno 17320 bound_to 7965
  145.5105  141.0435  143.2490 LP  0  0  0  0  0  0  0  0  0  0  0  0  # atno 17321 bound_to 7965
  140.2944  143.3302  152.1032 LP  0  0  0  0  0  0  0  0  0  0  0  0  # atno 17342 bound_to 10162
  139.5025  144.6735  151.6184 LP  0  0  0  0  0  0  0  0  0  0  0  0  # atno 17343 bound_to 10162
  157.2554  131.0555  151.2353 LP  0  0  0  0  0  0  0  0  0  0  0  0  # atno 17370 bound_to 10713
  157.3487  130.7071  149.6427 LP  0  0  0  0  0  0  0  0  0  0  0  0  # atno 17371 bound_to 10713
  139.9257  134.8060  156.1075 LP  0  0  0  0  0  0  0  0  0  0  0  0  # atno 17394 bound_to 11000
  141.0910  133.6714  156.2540 LP  0  0  0  0  0  0  0  0  0  0  0  0  # atno 17395 bound_to 11000

$$$$
