AV-unprocessed.smi:3068|AV-procd|sdf|11705|dock7
  -GOLD-   2272017113D 1   1.00000     0.00000
 Structure written by MMmdl.
 40 42  0  0  0  0  0  0  0  0  2 V2000
  148.1993  144.1901  161.6027 N   0  0  0  0  0  0  0  0  0  0  0  0
  147.5013  144.9158  161.0322 C   0  0  0  0  0  0  0  0  0  0  0  0
  146.6218  145.8304  160.3154 C   0  0  0  0  0  0  0  0  0  0  0  0
  146.8766  147.1522  160.4537 N   0  0  0  0  0  0  0  0  0  0  0  0
  146.0671  148.0102  159.7975 C   0  0  0  0  0  0  0  0  0  0  0  0
  144.9985  147.5535  159.0019 C   0  0  0  0  0  0  0  0  0  0  0  0
  144.7361  146.2370  158.8592 N   0  0  0  0  0  0  0  0  0  0  0  0
  145.5429  145.3633  159.5123 C   0  0  0  0  0  0  0  0  0  0  0  0
  145.2847  143.9869  159.3711 N   0  0  0  0  0  0  0  0  0  0  0  0
  144.9150  143.3965  158.0902 C   0  0  0  0  0  0  0  0  0  0  0  0
  146.1314  143.1632  157.1781 C   0  0  1  0  0  0  0  0  0  0  0  0
  147.4053  142.8790  157.9941 C   0  0  0  0  0  0  0  0  0  0  0  0
  148.5452  142.5864  157.0951 N   0  3  1  0  0  0  0  0  0  0  0  0
  149.8071  142.3483  157.8402 C   0  0  0  0  0  0  0  0  0  0  0  0
  150.9871  142.1422  156.8775 C   0  0  0  0  0  0  0  0  0  0  0  0
  150.6988  140.9964  155.8988 C   0  0  0  0  0  0  0  0  0  0  0  0
  149.3771  141.2538  155.1625 C   0  0  0  0  0  0  0  0  0  0  0  0
  148.2189  141.4801  156.1544 C   0  0  2  0  0  0  0  0  0  0  0  0
  146.9015  141.7897  155.4166 C   0  0  0  0  0  0  0  0  0  0  0  0
  145.8643  142.0299  156.3590 O   0  0  0  0  0  0  0  0  0  0  0  0
  146.2719  149.0647  159.9084 H   0  0  0  0  0  0  0  0  0  0  0  0
  144.3538  148.2449  158.4798 H   0  0  0  0  0  0  0  0  0  0  0  0
  145.2547  143.4022  160.1947 H   0  0  0  0  0  0  0  0  0  0  0  0
  144.3833  142.4601  158.2627 H   0  0  0  0  0  0  0  0  0  0  0  0
  144.2047  144.0606  157.5973 H   0  0  0  0  0  0  0  0  0  0  0  0
  146.2953  144.0410  156.5505 H   0  0  0  0  0  0  0  0  0  0  0  0
  147.6463  143.7416  158.6167 H   0  0  0  0  0  0  0  0  0  0  0  0
  147.2427  142.0339  158.6651 H   0  0  0  0  0  0  0  0  0  0  0  0
  150.0124  143.1993  158.4909 H   0  0  0  0  0  0  0  0  0  0  0  0
  149.6925  141.4754  158.4852 H   0  0  0  0  0  0  0  0  0  0  0  0
  151.1723  143.0626  156.3221 H   0  0  0  0  0  0  0  0  0  0  0  0
  151.8966  141.9319  157.4411 H   0  0  0  0  0  0  0  0  0  0  0  0
  151.5158  140.8974  155.1835 H   0  0  0  0  0  0  0  0  0  0  0  0
  150.6418  140.0520  156.4417 H   0  0  0  0  0  0  0  0  0  0  0  0
  149.4863  142.1257  154.5157 H   0  0  0  0  0  0  0  0  0  0  0  0
  149.1511  140.4110  154.5080 H   0  0  0  0  0  0  0  0  0  0  0  0
  148.0776  140.5695  156.7397 H   0  0  0  0  0  0  0  0  0  0  0  0
  147.0116  142.6511  154.7555 H   0  0  0  0  0  0  0  0  0  0  0  0
  146.6129  140.9450  154.7905 H   0  0  0  0  0  0  0  0  0  0  0  0
  148.6910  143.4123  156.5323 H   0  0  0  0  0  0  0  0  0  0  0  0
  1  2  3  0  0  0  0
  2  3  1  0  0  0  0
  3  8  1  0  0  0  0
  3  4  2  0  0  0  0
  4  5  1  0  0  0  0
  5  6  2  0  0  0  0
  5 21  1  0  0  0  0
  6  7  1  0  0  0  0
  6 22  1  0  0  0  0
  7  8  2  0  0  0  0
  8  9  1  0  0  0  0
  9 10  1  0  0  0  0
  9 23  1  0  0  0  0
 10 11  1  0  0  0  0
 10 24  1  0  0  0  0
 10 25  1  0  0  0  0
 11 20  1  0  0  0  0
 11 12  1  0  0  0  0
 11 26  1  0  0  0  0
 12 13  1  0  0  0  0
 12 27  1  0  0  0  0
 12 28  1  0  0  0  0
 13 18  1  0  0  0  0
 13 14  1  0  0  0  0
 13 40  1  0  0  0  0
 14 15  1  0  0  0  0
 14 29  1  0  0  0  0
 14 30  1  0  0  0  0
 15 16  1  0  0  0  0
 15 31  1  0  0  0  0
 15 32  1  0  0  0  0
 16 17  1  0  0  0  0
 16 33  1  0  0  0  0
 16 34  1  0  0  0  0
 17 18  1  0  0  0  0
 17 35  1  0  0  0  0
 17 36  1  0  0  0  0
 18 19  1  0  0  0  0
 18 37  1  0  0  0  0
 19 20  1  0  0  0  0
 19 38  1  0  0  0  0
 19 39  1  0  0  0  0
M  CHG  1  13   1
M  END
> <s_m_source_file>
AV-unprocessed.smi

> <i_m_source_file_index>
3068

> <i_lp_mmshare_version>
43012

> <i_f3d_flags>
0

> <s_epik_input>
TiNDYzFuW2NIXVtjSF1uYzFbTkhdW0NIMl1bQ0BIXShbQ0gyXTIpT1tDSDJdW0NAQEhdKE4yMylbQ0gyXVtDSDJdW0NIMl1bQ0gyXTM=

> <s_epik_cmdline>
J2VwaWtfcHl0aG9uJywgJy1waCcsICc3LjAnLCAnLXRuJywgJzgnLCAnLW1hJywgJzIwMCcsICctbWV0YWxfYmluZGluZycsICctaW1hZScsICc8aW5maWxlLm1hZT4nLCAnLW9tYWUnLCAnPG91dGZpbGUubWFlPic=

> <r_epik_Ionization_Penalty>
0.0804321

> <r_epik_Ionization_Penalty_Charging>
0.0803403

> <r_epik_Ionization_Penalty_Neutral>
9.17277e-05

> <r_epik_State_Penalty>
0.0711481

> <r_epik_Charging_Adjusted_Penalty>
0.151488

> <i_epik_Tot_Q>
1

> <i_epik_Tot_abs_Q>
1

> <r_epik_Metal_State_Penalty>
0.0711481

> <b_epik_Metal_Only>
0

> <s_lp_Force_Field>
OPLS_2005

> <r_lp_Energy>
36.4506

> <b_lp_Chiralities_Consistent>
1

> <s_lp_Variant>
AV-unprocessed.smi:3068-8

> <Gold.Version>
5.8.1

> <Gold.Id.Protein>
6NUR|6NUR_protein|mol2

> <Gold.PLP.Fitness>
39.2601

> <Gold.PLP.PLP>
-32.1495

> <Gold.PLP.part.hbond>
-4.0000

> <Gold.PLP.part.metal>
0.0000

> <Gold.PLP.part.buried>
-4.8230

> <Gold.PLP.part.nonpolar>
-22.3234

> <Gold.PLP.part.repulsive>
0.6106

> <Gold.PLP.ligand.clash>
0.0000

> <Gold.PLP.ligand.torsion>
0.8387

> <Gold.PLP.Chemscore.Hbond>
2.9280

> <Gold.PLP.Chemscore.CHOScore>
0.0000

> <Gold.PLP.Chemscore.Metal>
0.0000

> <Gold.Chemscore.Hbonds>
donor molecule, donor type, donor heavy atom, donor atom, acceptor molecule, acceptor atom, score
      L1  H    13    40       P1  8028  2.00
      P1  H  6933  6944       L1     1  0.93

> <Gold.PLP.Chemscore.Internal.Correction>
0.0040

> <Gold.Rescore>
     Score         DG    S(hbond)    S(metal)    S(lipo)     H(rot)  DE(clash)    DE(int)     intcor
     14.60     -15.48       1.95        0.00      58.66       1.32       0.01       0.86       ----

> <Gold.Chemscore.Fitness>
14.6031

> <Gold.Chemscore.DG>
-15.4759

> <Gold.Chemscore.ZeroCoef>
-5.4800

> <Gold.Chemscore.Hbond>
1.9491

> <Gold.Chemscore.Metal>
0.0000

> <Gold.Chemscore.Lipo>
58.6596

> <Gold.Chemscore.Internal_Hbond>
0.0000

> <Gold.Chemscore.DEClash>
0.0134

> <Gold.Chemscore.DEInternal>
0.8594

> <Gold.Chemscore.Rot>
1.3193

> <Gold.Chemscore.Internal.Correction>
   9.000000E+99

> <Gold.Chemscore.Hbonds>
donor molecule, donor type, donor heavy atom, donor atom, acceptor molecule, acceptor atom, score
      L1  H    13    40       P1  8028  0.72
      P1  H  6933  6944       L1     1  0.90

> <Gold.Chemscore.Hbond.Weighted>
-6.5101

> <Gold.Chemscore.Metal.Weighted>
-0.0000

> <Gold.Chemscore.Lipo.Weighted>
-6.8632

> <Gold.Chemscore.Internal_Hbond.Weighted>
0.0000

> <Gold.Chemscore.DEClash.Weighted>
0.0134

> <Gold.Chemscore.DEInternal.Weighted>
0.8594

> <Gold.Chemscore.Rot.Weighted>
3.3774

> <Gold.Chemscore.Internal.Correction.Weighted>
   9.000000E+99

> <Gold.Protein.RotatedTorsions>
[ 6907 6896 6895 6894 ] final -109.96 input  -60.11 | X-H torsion
[ 7974 7965 7964 7962 ] final  -91.87 input  175.53 | X-H torsion
[ 8008 7997 7996 7995 ] final  172.57 input   59.86 | X-H torsion
[ 10167 10162 10161 10158 ] final   50.60 input  -65.29 | X-H torsion
[ 10718 10713 10712 10709 ] final  -39.29 input   66.30 | X-H torsion
[ 10763 10752 10751 10750 ] final  -37.47 input  -60.55 | X-H torsion
[ 11005 11000 10999 10996 ] final -171.42 input  -57.11 | X-H torsion

> <Gold.Protein.ActiveResidues>
 VAL166  LYS551  ARG553  GLY616  TRP617  ASP618  TYR619  PRO620  LYS621  CYS622 
 ASP623  PHE694  ASN695  SER759  ASP760  ASP761  ALA762  ILE779  LEU786  VAL792 
 PHE793  MET794  SER795  GLU796  ALA797  LYS798  CYS799  TRP800  GLU811  SER814 

> <Gold.Protein.RotatedAtoms>
  150.7595  133.9451  159.3468 H   0  0  0  0  0  0  0  0  0  0  0  0  # atno 6907 bound_to 6896
  151.7363  135.0862  160.0318 H   0  0  0  0  0  0  0  0  0  0  0  0  # atno 6908 bound_to 6896
  152.3557  133.6197  159.6013 H   0  0  0  0  0  0  0  0  0  0  0  0  # atno 6909 bound_to 6896
  145.4074  140.9542  143.2253 H   0  0  0  0  0  0  0  0  0  0  0  0  # atno 7974 bound_to 7965
  156.1162  140.1482  156.9270 H   0  0  0  0  0  0  0  0  0  0  0  0  # atno 8008 bound_to 7997
  154.4802  140.0882  156.7401 H   0  0  0  0  0  0  0  0  0  0  0  0  # atno 8009 bound_to 7997
  155.4510  140.3435  155.4303 H   0  0  0  0  0  0  0  0  0  0  0  0  # atno 8010 bound_to 7997
  140.2707  144.3268  150.6291 H   0  0  0  0  0  0  0  0  0  0  0  0  # atno 10167 bound_to 10162
  156.2941  130.4232  149.8209 H   0  0  0  0  0  0  0  0  0  0  0  0  # atno 10718 bound_to 10713
  153.8967  135.6806  153.4757 H   0  0  0  0  0  0  0  0  0  0  0  0  # atno 10763 bound_to 10752
  153.1151  135.4765  154.9099 H   0  0  0  0  0  0  0  0  0  0  0  0  # atno 10764 bound_to 10752
  154.7595  135.3207  154.8359 H   0  0  0  0  0  0  0  0  0  0  0  0  # atno 10765 bound_to 10752
  140.5084  134.5825  157.5011 H   0  0  0  0  0  0  0  0  0  0  0  0  # atno 11005 bound_to 11000
  144.8332  139.5593  143.6934 LP  0  0  0  0  0  0  0  0  0  0  0  0  # atno 17320 bound_to 7965
  146.2722  139.6663  142.9288 LP  0  0  0  0  0  0  0  0  0  0  0  0  # atno 17321 bound_to 7965
  140.5892  143.2168  151.7285 LP  0  0  0  0  0  0  0  0  0  0  0  0  # atno 17342 bound_to 10162
  139.4989  144.3965  152.0225 LP  0  0  0  0  0  0  0  0  0  0  0  0  # atno 17343 bound_to 10162
  156.5611  130.8384  151.3329 LP  0  0  0  0  0  0  0  0  0  0  0  0  # atno 17370 bound_to 10713
  157.7350  130.9756  150.2061 LP  0  0  0  0  0  0  0  0  0  0  0  0  # atno 17371 bound_to 10713
  139.9673  134.7352  156.0113 LP  0  0  0  0  0  0  0  0  0  0  0  0  # atno 17394 bound_to 11000
  141.1398  133.6567  156.3698 LP  0  0  0  0  0  0  0  0  0  0  0  0  # atno 17395 bound_to 11000

$$$$
