AV-unprocessed.smi:2675|AV-procd|sdf|10363|dock3
  -GOLD-   2272014393D 1   1.00000     0.00000
 Structure written by MMmdl.
 36 37  0  0  0  0  0  0  0  0  1 V2000
  153.3989  142.5720  162.5036 C   0  0  0  0  0  0  0  0  0  0  0  0
  152.6403  143.1774  161.3624 C   0  0  0  0  0  0  0  0  0  0  0  0
  151.7910  144.2609  161.5741 N   0  0  0  0  0  0  0  0  0  0  0  0
  151.3030  144.5221  160.3704 C   0  0  0  0  0  0  0  0  0  0  0  0
  151.7524  143.7142  159.4001 N   0  0  0  0  0  0  0  0  0  0  0  0
  151.3816  143.7638  157.9957 C   0  0  0  0  0  0  0  0  0  0  0  0
  150.7936  142.4293  157.5370 C   0  0  0  0  0  0  0  0  0  0  0  0
  150.8063  141.4627  158.2975 O   0  0  0  0  0  0  0  0  0  0  0  0
  150.2863  142.4018  156.2922 N   0  0  0  0  0  0  0  0  0  0  0  0
  149.6259  141.2889  155.5979 C   0  0  2  0  0  0  0  0  0  0  0  0
  148.6663  140.6617  156.6232 C   0  0  0  0  0  0  0  0  0  0  0  0
  150.5912  140.2477  155.1935 C   0  0  0  0  0  0  0  0  0  0  0  0
  151.3479  139.4323  154.8735 N   0  0  0  0  0  0  0  0  0  0  0  0
  148.8208  141.6793  154.3561 C   0  0  0  0  0  0  0  0  0  0  0  0
  147.3703  142.1093  154.3846 C   0  0  0  0  0  0  0  0  0  0  0  0
  147.7546  140.7830  153.7670 C   0  0  0  0  0  0  0  0  0  0  0  0
  152.6269  142.8273  160.0271 C   0  0  0  0  0  0  0  0  0  0  0  0
  153.3546  141.7441  159.2952 C   0  0  0  0  0  0  0  0  0  0  0  0
  154.0179  141.7341  162.1853 H   0  0  0  0  0  0  0  0  0  0  0  0
  152.7198  142.2032  163.2725 H   0  0  0  0  0  0  0  0  0  0  0  0
  154.0572  143.3059  162.9689 H   0  0  0  0  0  0  0  0  0  0  0  0
  150.5967  145.3192  160.1902 H   0  0  0  0  0  0  0  0  0  0  0  0
  150.6558  144.5648  157.8469 H   0  0  0  0  0  0  0  0  0  0  0  0
  152.2578  144.0156  157.3974 H   0  0  0  0  0  0  0  0  0  0  0  0
  150.3436  143.2621  155.7669 H   0  0  0  0  0  0  0  0  0  0  0  0
  148.1509  139.7955  156.2062 H   0  0  0  0  0  0  0  0  0  0  0  0
  147.9047  141.3737  156.9440 H   0  0  0  0  0  0  0  0  0  0  0  0
  149.2005  140.3247  157.5128 H   0  0  0  0  0  0  0  0  0  0  0  0
  149.4262  142.2132  153.6254 H   0  0  0  0  0  0  0  0  0  0  0  0
  146.8231  142.0774  155.3223 H   0  0  0  0  0  0  0  0  0  0  0  0
  147.0751  142.9091  153.7088 H   0  0  0  0  0  0  0  0  0  0  0  0
  147.7114  140.7023  152.6828 H   0  0  0  0  0  0  0  0  0  0  0  0
  147.4777  139.8819  154.3100 H   0  0  0  0  0  0  0  0  0  0  0  0
  153.9541  141.1352  159.9706 H   0  0  0  0  0  0  0  0  0  0  0  0
  154.0253  142.1662  158.5470 H   0  0  0  0  0  0  0  0  0  0  0  0
  152.6547  141.0810  158.7865 H   0  0  0  0  0  0  0  0  0  0  0  0
  1  2  1  0  0  0  0
  1 19  1  0  0  0  0
  1 20  1  0  0  0  0
  1 21  1  0  0  0  0
  2 17  2  0  0  0  0
  2  3  1  0  0  0  0
  3  4  2  0  0  0  0
  4  5  1  0  0  0  0
  4 22  1  0  0  0  0
  5  6  1  0  0  0  0
  5 17  1  0  0  0  0
  6  7  1  0  0  0  0
  6 23  1  0  0  0  0
  6 24  1  0  0  0  0
  7  8  2  0  0  0  0
  7  9  1  0  0  0  0
  9 10  1  0  0  0  0
  9 25  1  0  0  0  0
 10 11  1  0  0  0  0
 10 12  1  0  0  0  0
 10 14  1  0  0  0  0
 11 26  1  0  0  0  0
 11 27  1  0  0  0  0
 11 28  1  0  0  0  0
 12 13  3  0  0  0  0
 14 16  1  0  0  0  0
 14 15  1  0  0  0  0
 14 29  1  0  0  0  0
 15 16  1  0  0  0  0
 15 30  1  0  0  0  0
 15 31  1  0  0  0  0
 16 32  1  0  0  0  0
 16 33  1  0  0  0  0
 17 18  1  0  0  0  0
 18 34  1  0  0  0  0
 18 35  1  0  0  0  0
 18 36  1  0  0  0  0
M  END
> <s_m_source_file>
AV-unprocessed.smi

> <i_m_source_file_index>
2675

> <i_lp_mmshare_version>
43012

> <i_f3d_flags>
0

> <s_epik_input>
W0NIM11jMW5bY0hdbihjMVtDSDNdKVtDSDJdQyg9TylbTkhdW0NAQF0oW0NIM10pKEMjTilbQ0hdMltDSDJdW0NIMl0y

> <s_epik_cmdline>
J2VwaWtfcHl0aG9uJywgJy1waCcsICc3LjAnLCAnLXRuJywgJzgnLCAnLW1hJywgJzIwMCcsICctbWV0YWxfYmluZGluZycsICctaW1hZScsICc8aW5maWxlLm1hZT4nLCAnLW9tYWUnLCAnPG91dGZpbGUubWFlPic=

> <r_lp_tautomer_probability>
1

> <r_epik_Ionization_Penalty>
0.876174

> <r_epik_Ionization_Penalty_Charging>
0.876172

> <r_epik_Ionization_Penalty_Neutral>
2.64295e-06

> <r_epik_State_Penalty>
0.913958

> <r_epik_Charging_Adjusted_Penalty>
1.79013

> <i_epik_Tot_Q>
0

> <i_epik_Tot_abs_Q>
0

> <r_epik_Metal_State_Penalty>
0.359336

> <b_epik_Metal_Only>
0

> <s_lp_Force_Field>
OPLS_2005

> <r_lp_Energy>
15.5339

> <b_lp_Chiralities_Consistent>
1

> <s_lp_Variant>
AV-unprocessed.smi:2675-4

> <Gold.Version>
5.8.1

> <Gold.Id.Protein>
6NUR|6NUR_protein|mol2

> <Gold.PLP.Fitness>
45.0580

> <Gold.PLP.PLP>
-44.0394

> <Gold.PLP.part.hbond>
-2.0000

> <Gold.PLP.part.metal>
0.0000

> <Gold.PLP.part.buried>
-4.3419

> <Gold.PLP.part.nonpolar>
-38.7685

> <Gold.PLP.part.repulsive>
0.8108

> <Gold.PLP.ligand.clash>
0.0000

> <Gold.PLP.ligand.torsion>
1.1066

> <Gold.PLP.Chemscore.Hbond>
0.5760

> <Gold.PLP.Chemscore.CHOScore>
0.0000

> <Gold.PLP.Chemscore.Metal>
0.0000

> <Gold.Chemscore.Hbonds>
donor molecule, donor type, donor heavy atom, donor atom, acceptor molecule, acceptor atom, score
      L1  H     9    25       P1  8028  0.50

> <Gold.PLP.Chemscore.Internal.Correction>
1.5038

> <Gold.Rescore>
     Score         DG    S(hbond)    S(metal)    S(lipo)     H(rot)  DE(clash)    DE(int)     intcor
      9.27     -14.01       0.81        0.00      87.93       1.74       0.22       4.51       ----

> <Gold.Chemscore.Fitness>
9.2703

> <Gold.Chemscore.DG>
-14.0072

> <Gold.Chemscore.ZeroCoef>
-5.4800

> <Gold.Chemscore.Hbond>
0.8086

> <Gold.Chemscore.Metal>
0.0000

> <Gold.Chemscore.Lipo>
87.9328

> <Gold.Chemscore.Internal_Hbond>
0.0000

> <Gold.Chemscore.DEClash>
0.2232

> <Gold.Chemscore.DEInternal>
4.5137

> <Gold.Chemscore.Rot>
1.7429

> <Gold.Chemscore.Internal.Correction>
   9.000000E+99

> <Gold.Chemscore.Hbonds>
donor molecule, donor type, donor heavy atom, donor atom, acceptor molecule, acceptor atom, score
      L1  H     9    25       P1  8028  0.48

> <Gold.Chemscore.Hbond.Weighted>
-2.7008

> <Gold.Chemscore.Metal.Weighted>
-0.0000

> <Gold.Chemscore.Lipo.Weighted>
-10.2881

> <Gold.Chemscore.Internal_Hbond.Weighted>
0.0000

> <Gold.Chemscore.DEClash.Weighted>
0.2232

> <Gold.Chemscore.DEInternal.Weighted>
4.5137

> <Gold.Chemscore.Rot.Weighted>
4.4617

> <Gold.Chemscore.Internal.Correction.Weighted>
   9.000000E+99

> <Gold.Protein.RotatedTorsions>
[ 6907 6896 6895 6894 ] final  -54.46 input  -60.11 | X-H torsion
[ 7974 7965 7964 7962 ] final  -37.40 input  175.53 | X-H torsion
[ 8008 7997 7996 7995 ] final  -16.95 input   59.86 | X-H torsion
[ 10167 10162 10161 10158 ] final -178.23 input  -65.29 | X-H torsion
[ 10718 10713 10712 10709 ] final -164.85 input   66.30 | X-H torsion
[ 10763 10752 10751 10750 ] final  122.28 input  -60.55 | X-H torsion
[ 11005 11000 10999 10996 ] final  -22.41 input  -57.11 | X-H torsion

> <Gold.Protein.ActiveResidues>
 VAL166  LYS551  ARG553  GLY616  TRP617  ASP618  TYR619  PRO620  LYS621  CYS622 
 ASP623  PHE694  ASN695  SER759  ASP760  ASP761  ALA762  ILE779  LEU786  VAL792 
 PHE793  MET794  SER795  GLU796  ALA797  LYS798  CYS799  TRP800  GLU811  SER814 

> <Gold.Protein.RotatedAtoms>
  150.8336  134.7599  159.6873 H   0  0  0  0  0  0  0  0  0  0  0  0  # atno 6907 bound_to 6896
  152.4436  134.5537  159.9884 H   0  0  0  0  0  0  0  0  0  0  0  0  # atno 6908 bound_to 6896
  151.5692  133.3354  159.3022 H   0  0  0  0  0  0  0  0  0  0  0  0  # atno 6909 bound_to 6896
  146.0578  140.6392  142.9011 H   0  0  0  0  0  0  0  0  0  0  0  0  # atno 7974 bound_to 7965
  154.5015  140.2156  155.9338 H   0  0  0  0  0  0  0  0  0  0  0  0  # atno 8008 bound_to 7997
  156.1439  140.3174  155.8507 H   0  0  0  0  0  0  0  0  0  0  0  0  # atno 8009 bound_to 7997
  155.4067  140.0488  157.3024 H   0  0  0  0  0  0  0  0  0  0  0  0  # atno 8010 bound_to 7997
  139.5442  144.2280  152.0956 H   0  0  0  0  0  0  0  0  0  0  0  0  # atno 10167 bound_to 10162
  156.6450  130.8984  151.3003 H   0  0  0  0  0  0  0  0  0  0  0  0  # atno 10718 bound_to 10713
  153.6272  135.3402  155.3030 H   0  0  0  0  0  0  0  0  0  0  0  0  # atno 10763 bound_to 10752
  154.8588  135.4287  154.2144 H   0  0  0  0  0  0  0  0  0  0  0  0  # atno 10764 bound_to 10752
  153.3031  135.7026  153.7258 H   0  0  0  0  0  0  0  0  0  0  0  0  # atno 10765 bound_to 10752
  140.8654  133.7758  156.0123 H   0  0  0  0  0  0  0  0  0  0  0  0  # atno 11005 bound_to 11000
  144.7157  140.4202  143.7046 LP  0  0  0  0  0  0  0  0  0  0  0  0  # atno 17320 bound_to 7965
  145.6613  139.1582  143.2806 LP  0  0  0  0  0  0  0  0  0  0  0  0  # atno 17321 bound_to 7965
  140.1763  144.4887  150.6552 LP  0  0  0  0  0  0  0  0  0  0  0  0  # atno 17342 bound_to 10162
  140.6684  143.2276  151.5685 LP  0  0  0  0  0  0  0  0  0  0  0  0  # atno 17343 bound_to 10162
  157.7159  130.9496  150.1254 LP  0  0  0  0  0  0  0  0  0  0  0  0  # atno 17370 bound_to 10713
  156.2129  130.3668  149.8649 LP  0  0  0  0  0  0  0  0  0  0  0  0  # atno 17371 bound_to 10713
  140.8635  134.2812  157.5224 LP  0  0  0  0  0  0  0  0  0  0  0  0  # atno 17394 bound_to 11000
  139.8709  134.9530  156.4133 LP  0  0  0  0  0  0  0  0  0  0  0  0  # atno 17395 bound_to 11000

$$$$
