AV-unprocessed.smi:1971|AV-procd|sdf|7967|dock4
  -GOLD-   2272010143D 1   1.00000     0.00000
 Structure written by MMmdl.
 43 44  0  0  0  0  0  0  0  0  1 V2000
  142.7620  145.2682  154.0013 C   0  0  0  0  0  0  0  0  0  0  0  0
  143.4093  144.5181  155.1740 C   0  0  0  0  0  0  0  0  0  0  0  0
  144.2364  143.3743  154.7935 N   0  0  0  0  0  0  0  0  0  0  0  0
  145.4733  143.8171  154.1545 C   0  0  0  0  0  0  0  0  0  0  0  0
  146.3570  142.6290  153.7338 C   0  0  0  0  0  0  0  0  0  0  0  0
  146.7262  141.7848  154.8776 N   0  0  0  0  0  0  0  0  0  0  0  0
  147.5954  140.6519  154.4933 C   0  0  1  0  0  0  0  0  0  0  0  0
  147.0917  139.8867  153.2487 C   0  0  0  0  0  0  0  0  0  0  0  0
  149.0713  141.0507  154.2446 C   0  0  0  0  0  0  0  0  0  0  0  0
  149.5001  142.1121  155.1483 N   0  0  0  0  0  0  0  0  0  0  0  0
  150.3825  141.9534  156.1423 C   0  0  0  0  0  0  0  0  0  0  0  0
  150.9485  140.8864  156.3819 O   0  0  0  0  0  0  0  0  0  0  0  0
  150.5518  143.0971  156.8283 N   0  0  0  0  0  0  0  0  0  0  0  0
  151.3913  143.3338  157.9480 C   0  0  0  0  0  0  0  0  0  0  0  0
  151.5454  144.5251  158.5377 N   0  0  0  0  0  0  0  0  0  0  0  0
  152.4302  144.4649  159.6175 C   0  0  0  0  0  0  0  0  0  0  0  0
  152.9448  143.2113  159.8364 C   0  0  0  0  0  0  0  0  0  0  0  0
  152.3320  142.0487  158.6908 S   0  0  0  0  0  0  0  0  0  0  0  0
  145.4790  141.3483  155.5205 C   0  0  0  0  0  0  0  0  0  0  0  0
  144.5950  142.5376  155.9390 C   0  0  0  0  0  0  0  0  0  0  0  0
  142.2452  146.1598  154.3565 H   0  0  0  0  0  0  0  0  0  0  0  0
  142.0268  144.6554  153.4802 H   0  0  0  0  0  0  0  0  0  0  0  0
  143.5115  145.5876  153.2769 H   0  0  0  0  0  0  0  0  0  0  0  0
  144.0278  145.2336  155.7174 H   0  0  0  0  0  0  0  0  0  0  0  0
  142.6351  144.2001  155.8740 H   0  0  0  0  0  0  0  0  0  0  0  0
  145.2381  144.4151  153.2735 H   0  0  0  0  0  0  0  0  0  0  0  0
  146.0326  144.4661  154.8303 H   0  0  0  0  0  0  0  0  0  0  0  0
  145.8417  142.0335  152.9784 H   0  0  0  0  0  0  0  0  0  0  0  0
  147.2465  143.0394  153.2590 H   0  0  0  0  0  0  0  0  0  0  0  0
  147.6025  139.9369  155.3175 H   0  0  0  0  0  0  0  0  0  0  0  0
  147.8104  139.1304  152.9321 H   0  0  0  0  0  0  0  0  0  0  0  0
  146.9279  140.5577  152.4048 H   0  0  0  0  0  0  0  0  0  0  0  0
  146.1607  139.3550  153.4425 H   0  0  0  0  0  0  0  0  0  0  0  0
  149.7340  140.1916  154.3514 H   0  0  0  0  0  0  0  0  0  0  0  0
  149.1990  141.3850  153.2137 H   0  0  0  0  0  0  0  0  0  0  0  0
  149.0753  143.0188  155.0184 H   0  0  0  0  0  0  0  0  0  0  0  0
  150.0088  143.8896  156.5189 H   0  0  0  0  0  0  0  0  0  0  0  0
  152.6371  145.3649  160.1772 H   0  0  0  0  0  0  0  0  0  0  0  0
  153.6434  142.9023  160.5995 H   0  0  0  0  0  0  0  0  0  0  0  0
  144.9219  140.6914  154.8507 H   0  0  0  0  0  0  0  0  0  0  0  0
  145.6931  140.7722  156.4191 H   0  0  0  0  0  0  0  0  0  0  0  0
  145.1147  143.1330  156.6912 H   0  0  0  0  0  0  0  0  0  0  0  0
  143.6961  142.1477  156.4157 H   0  0  0  0  0  0  0  0  0  0  0  0
  1  2  1  0  0  0  0
  1 21  1  0  0  0  0
  1 22  1  0  0  0  0
  1 23  1  0  0  0  0
  2  3  1  0  0  0  0
  2 24  1  0  0  0  0
  2 25  1  0  0  0  0
  3 20  1  0  0  0  0
  3  4  1  0  0  0  0
  4  5  1  0  0  0  0
  4 26  1  0  0  0  0
  4 27  1  0  0  0  0
  5  6  1  0  0  0  0
  5 28  1  0  0  0  0
  5 29  1  0  0  0  0
  6  7  1  0  0  0  0
  6 19  1  0  0  0  0
  7  8  1  0  0  0  0
  7  9  1  0  0  0  0
  7 30  1  0  0  0  0
  8 31  1  0  0  0  0
  8 32  1  0  0  0  0
  8 33  1  0  0  0  0
  9 10  1  0  0  0  0
  9 34  1  0  0  0  0
  9 35  1  0  0  0  0
 10 11  1  0  0  0  0
 10 36  1  0  0  0  0
 11 12  2  0  0  0  0
 11 13  1  0  0  0  0
 13 14  1  0  0  0  0
 13 37  1  0  0  0  0
 14 18  1  0  0  0  0
 14 15  2  0  0  0  0
 15 16  1  0  0  0  0
 16 17  2  0  0  0  0
 16 38  1  0  0  0  0
 17 18  1  0  0  0  0
 17 39  1  0  0  0  0
 19 20  1  0  0  0  0
 19 40  1  0  0  0  0
 19 41  1  0  0  0  0
 20 42  1  0  0  0  0
 20 43  1  0  0  0  0
M  END
> <s_m_source_file>
AV-unprocessed.smi

> <i_m_source_file_index>
1971

> <i_lp_mmshare_version>
43012

> <i_f3d_flags>
0

> <s_epik_input>
W0NIM11bQ0gyXU4xW0NIMl1bQ0gyXU4oW0NIMl1bQ0gyXTEpW0NASF0oW0NIM10pW0NIMl1bTkhdQyg9TylbTkhdYzJuW2NIXVtjSF1zMg==

> <s_epik_cmdline>
J2VwaWtfcHl0aG9uJywgJy1waCcsICc3LjAnLCAnLXRuJywgJzgnLCAnLW1hJywgJzIwMCcsICctbWV0YWxfYmluZGluZycsICctaW1hZScsICc8aW5maWxlLm1hZT4nLCAnLW9tYWUnLCAnPG91dGZpbGUubWFlPic=

> <r_lp_tautomer_probability>
0.999

> <r_epik_Ionization_Penalty>
2.43994

> <r_epik_Ionization_Penalty_Charging>
0

> <r_epik_Ionization_Penalty_Neutral>
2.43994

> <r_epik_State_Penalty>
1.7682

> <r_epik_Charging_Adjusted_Penalty>
1.7682

> <i_epik_Tot_Q>
0

> <i_epik_Tot_abs_Q>
0

> <r_epik_Metal_State_Penalty>
1.80147

> <b_epik_Metal_Only>
0

> <s_lp_Force_Field>
OPLS_2005

> <r_lp_Energy>
42.8393

> <b_lp_Chiralities_Consistent>
1

> <s_lp_Variant>
AV-unprocessed.smi:1971-6

> <Gold.Version>
5.8.1

> <Gold.Id.Protein>
6NUR|6NUR_protein|mol2

> <Gold.PLP.Fitness>
42.4990

> <Gold.PLP.PLP>
-37.5932

> <Gold.PLP.part.hbond>
-2.0000

> <Gold.PLP.part.metal>
0.0000

> <Gold.PLP.part.buried>
-7.3275

> <Gold.PLP.part.nonpolar>
-29.1568

> <Gold.PLP.part.repulsive>
0.6323

> <Gold.PLP.ligand.clash>
0.0000

> <Gold.PLP.ligand.torsion>
0.5740

> <Gold.PLP.Chemscore.Hbond>
2.0000

> <Gold.PLP.Chemscore.CHOScore>
0.0000

> <Gold.PLP.Chemscore.Metal>
0.0000

> <Gold.Chemscore.Hbonds>
donor molecule, donor type, donor heavy atom, donor atom, acceptor molecule, acceptor atom, score
      L1  H    10    36       P1  8028  0.96
      L1  H    13    37       P1  8028  1.00

> <Gold.PLP.Chemscore.Internal.Correction>
0.0537

> <Gold.Rescore>
     Score         DG    S(hbond)    S(metal)    S(lipo)     H(rot)  DE(clash)    DE(int)     intcor
     15.62     -17.20       1.94        0.00      82.97       1.75       0.01       1.57       ----

> <Gold.Chemscore.Fitness>
15.6180

> <Gold.Chemscore.DG>
-17.2014

> <Gold.Chemscore.ZeroCoef>
-5.4800

> <Gold.Chemscore.Hbond>
1.9422

> <Gold.Chemscore.Metal>
0.0000

> <Gold.Chemscore.Lipo>
82.9691

> <Gold.Chemscore.Internal_Hbond>
0.0000

> <Gold.Chemscore.DEClash>
0.0126

> <Gold.Chemscore.DEInternal>
1.5708

> <Gold.Chemscore.Rot>
1.7473

> <Gold.Chemscore.Internal.Correction>
   9.000000E+99

> <Gold.Chemscore.Hbonds>
donor molecule, donor type, donor heavy atom, donor atom, acceptor molecule, acceptor atom, score
      L1  H    10    36       P1  8028  0.92
      L1  H    13    37       P1  8028  0.99

> <Gold.Chemscore.Hbond.Weighted>
-6.4871

> <Gold.Chemscore.Metal.Weighted>
-0.0000

> <Gold.Chemscore.Lipo.Weighted>
-9.7074

> <Gold.Chemscore.Internal_Hbond.Weighted>
0.0000

> <Gold.Chemscore.DEClash.Weighted>
0.0126

> <Gold.Chemscore.DEInternal.Weighted>
1.5708

> <Gold.Chemscore.Rot.Weighted>
4.4731

> <Gold.Chemscore.Internal.Correction.Weighted>
   9.000000E+99

> <Gold.Protein.RotatedTorsions>
[ 6907 6896 6895 6894 ] final   57.31 input  -60.11 | X-H torsion
[ 7974 7965 7964 7962 ] final   22.75 input  175.53 | X-H torsion
[ 8008 7997 7996 7995 ] final  147.71 input   59.86 | X-H torsion
[ 10167 10162 10161 10158 ] final   51.27 input  -65.29 | X-H torsion
[ 10718 10713 10712 10709 ] final  -52.33 input   66.30 | X-H torsion
[ 10763 10752 10751 10750 ] final   44.65 input  -60.55 | X-H torsion
[ 11005 11000 10999 10996 ] final   34.28 input  -57.11 | X-H torsion

> <Gold.Protein.ActiveResidues>
 VAL166  LYS551  ARG553  GLY616  TRP617  ASP618  TYR619  PRO620  LYS621  CYS622 
 ASP623  PHE694  ASN695  SER759  ASP760  ASP761  ALA762  ILE779  LEU786  VAL792 
 PHE793  MET794  SER795  GLU796  ALA797  LYS798  CYS799  TRP800  GLU811  SER814 

> <Gold.Protein.RotatedAtoms>
  152.3719  134.6720  160.0172 H   0  0  0  0  0  0  0  0  0  0  0  0  # atno 6907 bound_to 6896
  151.7010  133.3306  159.3275 H   0  0  0  0  0  0  0  0  0  0  0  0  # atno 6908 bound_to 6896
  150.7680  134.6550  159.6353 H   0  0  0  0  0  0  0  0  0  0  0  0  # atno 6909 bound_to 6896
  146.2015  139.7842  142.8758 H   0  0  0  0  0  0  0  0  0  0  0  0  # atno 7974 bound_to 7965
  156.2816  140.2148  156.5582 H   0  0  0  0  0  0  0  0  0  0  0  0  # atno 8008 bound_to 7997
  154.7235  140.0501  157.0684 H   0  0  0  0  0  0  0  0  0  0  0  0  # atno 8009 bound_to 7997
  155.0447  140.3149  155.4715 H   0  0  0  0  0  0  0  0  0  0  0  0  # atno 8010 bound_to 7997
  140.2637  144.3344  150.6310 H   0  0  0  0  0  0  0  0  0  0  0  0  # atno 10167 bound_to 10162
  156.1631  130.4149  149.9762 H   0  0  0  0  0  0  0  0  0  0  0  0  # atno 10718 bound_to 10713
  152.9837  135.6064  154.3309 H   0  0  0  0  0  0  0  0  0  0  0  0  # atno 10763 bound_to 10752
  154.3013  135.2773  155.2611 H   0  0  0  0  0  0  0  0  0  0  0  0  # atno 10764 bound_to 10752
  154.4863  135.5904  153.6482 H   0  0  0  0  0  0  0  0  0  0  0  0  # atno 10765 bound_to 10752
  140.2544  134.3265  155.7879 H   0  0  0  0  0  0  0  0  0  0  0  0  # atno 11005 bound_to 11000
  145.3467  141.0299  143.3362 LP  0  0  0  0  0  0  0  0  0  0  0  0  # atno 17320 bound_to 7965
  144.8695  139.5059  143.6774 LP  0  0  0  0  0  0  0  0  0  0  0  0  # atno 17321 bound_to 7965
  140.5945  143.2167  151.7190 LP  0  0  0  0  0  0  0  0  0  0  0  0  # atno 17342 bound_to 10162
  139.5009  144.3888  152.0301 LP  0  0  0  0  0  0  0  0  0  0  0  0  # atno 17343 bound_to 10162
  156.7585  130.9142  151.3640 LP  0  0  0  0  0  0  0  0  0  0  0  0  # atno 17370 bound_to 10713
  157.6747  130.9084  150.0123 LP  0  0  0  0  0  0  0  0  0  0  0  0  # atno 17371 bound_to 10713
  141.2198  133.7372  156.9088 LP  0  0  0  0  0  0  0  0  0  0  0  0  # atno 17394 bound_to 11000
  140.1526  134.9220  157.2612 LP  0  0  0  0  0  0  0  0  0  0  0  0  # atno 17395 bound_to 11000

$$$$
