AV-unprocessed.smi:3337|AV-procd|sdf|12861|dock2
  -GOLD-   2272019253D 1   1.00000     0.00000
 Structure written by MMmdl.
 46 47  0  0  0  0  0  0  0  0  2 V2000
  150.3009  141.8943  156.7407 C   0  0  0  0  0  0  0  0  0  0  0  0
  150.9109  142.6370  157.9379 C   0  0  2  0  0  0  0  0  0  0  0  0
  151.7351  143.8538  157.4804 C   0  0  0  0  0  0  0  0  0  0  0  0
  152.4020  144.5690  158.6694 C   0  0  1  0  0  0  0  0  0  0  0  0
  151.4078  145.3874  159.5119 C   0  0  0  0  0  0  0  0  0  0  0  0
  153.2036  143.5665  159.5233 C   0  0  0  0  0  0  0  0  0  0  0  0
  152.3660  142.4191  159.9612 N   0  3  2  0  0  0  0  0  0  0  0  0
  153.0924  141.5236  160.8964 C   0  0  0  0  0  0  0  0  0  0  0  0
  154.2546  140.7747  160.2147 C   0  0  0  0  0  0  0  0  0  0  0  0
  154.9311  139.8780  161.1443 N   0  0  0  0  0  0  0  0  0  0  0  0
  155.3562  140.2218  162.3704 C   0  0  0  0  0  0  0  0  0  0  0  0
  155.2072  141.3515  162.8377 O   0  0  0  0  0  0  0  0  0  0  0  0
  156.0531  139.1232  163.1872 C   0  0  2  0  0  0  0  0  0  0  0  0
  157.2809  138.5427  162.4569 C   0  0  0  0  0  0  0  0  0  0  0  0
  155.0943  138.0922  163.5649 N   0  0  0  0  0  0  0  0  0  0  0  0
  154.6979  137.6920  164.7753 C   0  0  0  0  0  0  0  0  0  0  0  0
  153.7662  136.7494  164.7533 N   0  0  0  0  0  0  0  0  0  0  0  0
  153.6135  136.6111  163.4031 C   0  0  0  0  0  0  0  0  0  0  0  0
  154.3756  137.4001  162.6458 N   0  0  0  0  0  0  0  0  0  0  0  0
  151.7775  141.6991  158.8003 C   0  0  0  0  0  0  0  0  0  0  0  0
  151.0750  141.5025  156.0798 H   0  0  0  0  0  0  0  0  0  0  0  0
  149.6644  142.5553  156.1520 H   0  0  0  0  0  0  0  0  0  0  0  0
  149.6877  141.0547  157.0690 H   0  0  0  0  0  0  0  0  0  0  0  0
  150.0822  142.9922  158.5517 H   0  0  0  0  0  0  0  0  0  0  0  0
  152.5090  143.5220  156.7866 H   0  0  0  0  0  0  0  0  0  0  0  0
  151.1080  144.5514  156.9237 H   0  0  0  0  0  0  0  0  0  0  0  0
  153.1129  145.2860  158.2563 H   0  0  0  0  0  0  0  0  0  0  0  0
  150.6677  144.7546  160.0015 H   0  0  0  0  0  0  0  0  0  0  0  0
  150.8717  146.1081  158.8939 H   0  0  0  0  0  0  0  0  0  0  0  0
  151.9263  145.9476  160.2903 H   0  0  0  0  0  0  0  0  0  0  0  0
  154.0526  143.1880  158.9514 H   0  0  0  0  0  0  0  0  0  0  0  0
  153.6181  144.0811  160.3914 H   0  0  0  0  0  0  0  0  0  0  0  0
  153.4415  142.1010  161.7538 H   0  0  0  0  0  0  0  0  0  0  0  0
  152.4013  140.7773  161.2914 H   0  0  0  0  0  0  0  0  0  0  0  0
  153.8752  140.1780  159.3847 H   0  0  0  0  0  0  0  0  0  0  0  0
  154.9858  141.4641  159.7920 H   0  0  0  0  0  0  0  0  0  0  0  0
  155.0942  138.9313  160.8327 H   0  0  0  0  0  0  0  0  0  0  0  0
  156.4152  139.5752  164.1124 H   0  0  0  0  0  0  0  0  0  0  0  0
  158.0081  139.3235  162.2316 H   0  0  0  0  0  0  0  0  0  0  0  0
  157.0121  138.0617  161.5154 H   0  0  0  0  0  0  0  0  0  0  0  0
  157.7834  137.7985  163.0755 H   0  0  0  0  0  0  0  0  0  0  0  0
  155.0968  138.1004  165.6923 H   0  0  0  0  0  0  0  0  0  0  0  0
  152.9154  135.9131  162.9650 H   0  0  0  0  0  0  0  0  0  0  0  0
  151.1616  140.8698  159.1457 H   0  0  0  0  0  0  0  0  0  0  0  0
  152.5783  141.2646  158.1991 H   0  0  0  0  0  0  0  0  0  0  0  0
  151.5982  142.8162  160.4835 H   0  0  0  0  0  0  0  0  0  0  0  0
  1  2  1  0  0  0  0
  1 21  1  0  0  0  0
  1 22  1  0  0  0  0
  1 23  1  0  0  0  0
  2 20  1  0  0  0  0
  2  3  1  0  0  0  0
  2 24  1  0  0  0  0
  3  4  1  0  0  0  0
  3 25  1  0  0  0  0
  3 26  1  0  0  0  0
  4  5  1  0  0  0  0
  4  6  1  0  0  0  0
  4 27  1  0  0  0  0
  5 28  1  0  0  0  0
  5 29  1  0  0  0  0
  5 30  1  0  0  0  0
  6  7  1  0  0  0  0
  6 31  1  0  0  0  0
  6 32  1  0  0  0  0
  7  8  1  0  0  0  0
  7 20  1  0  0  0  0
  7 46  1  0  0  0  0
  8  9  1  0  0  0  0
  8 33  1  0  0  0  0
  8 34  1  0  0  0  0
  9 10  1  0  0  0  0
  9 35  1  0  0  0  0
  9 36  1  0  0  0  0
 10 11  1  0  0  0  0
 10 37  1  0  0  0  0
 11 12  2  0  0  0  0
 11 13  1  0  0  0  0
 13 14  1  0  0  0  0
 13 15  1  0  0  0  0
 13 38  1  0  0  0  0
 14 39  1  0  0  0  0
 14 40  1  0  0  0  0
 14 41  1  0  0  0  0
 15 19  1  0  0  0  0
 15 16  1  0  0  0  0
 16 17  2  0  0  0  0
 16 42  1  0  0  0  0
 17 18  1  0  0  0  0
 18 19  2  0  0  0  0
 18 43  1  0  0  0  0
 20 44  1  0  0  0  0
 20 45  1  0  0  0  0
M  CHG  1   7   1
M  END
> <s_m_source_file>
AV-unprocessed.smi

> <i_m_source_file_index>
3337

> <i_lp_mmshare_version>
43012

> <i_f3d_flags>
0

> <s_epik_input>
W0NIM11bQ0BASF0xW0NIMl1bQ0BASF0oW0NIM10pW0NIMl1OKFtDSDJdMSlbQ0gyXVtDSDJdW05IXUMoPU8pW0NASF0oW0NIM10pbjJbY0hdbltjSF1uMg==

> <s_epik_cmdline>
J2VwaWtfcHl0aG9uJywgJy1waCcsICc3LjAnLCAnLXRuJywgJzgnLCAnLW1hJywgJzIwMCcsICctbWV0YWxfYmluZGluZycsICctaW1hZScsICc8aW5maWxlLm1hZT4nLCAnLW9tYWUnLCAnPG91dGZpbGUubWFlPic=

> <r_lp_tautomer_probability>
1

> <r_epik_Ionization_Penalty>
0.00175613

> <r_epik_Ionization_Penalty_Charging>
0.00174812

> <r_epik_Ionization_Penalty_Neutral>
8.01354e-06

> <r_epik_State_Penalty>
0.00118332

> <r_epik_Charging_Adjusted_Penalty>
0.00293143

> <i_epik_Tot_Q>
1

> <i_epik_Tot_abs_Q>
1

> <r_epik_Metal_State_Penalty>
-0

> <b_epik_Metal_Only>
0

> <s_lp_Force_Field>
OPLS_2005

> <r_lp_Energy>
24.9418

> <b_lp_Chiralities_Consistent>
1

> <s_lp_Variant>
AV-unprocessed.smi:3337-1

> <Gold.Version>
5.8.1

> <Gold.Id.Protein>
6NUR|6NUR_protein|mol2

> <Gold.PLP.Fitness>
44.0002

> <Gold.PLP.PLP>
-44.2286

> <Gold.PLP.part.hbond>
-1.0000

> <Gold.PLP.part.metal>
0.0000

> <Gold.PLP.part.buried>
-6.5424

> <Gold.PLP.part.nonpolar>
-37.0997

> <Gold.PLP.part.repulsive>
0.1671

> <Gold.PLP.ligand.clash>
0.0000

> <Gold.PLP.ligand.torsion>
0.1903

> <Gold.PLP.Chemscore.Hbond>
0.0000

> <Gold.PLP.Chemscore.CHOScore>
0.0000

> <Gold.PLP.Chemscore.Metal>
0.0000

> <Gold.PLP.Chemscore.Internal.Correction>
0.1523

> <Gold.Rescore>
     Score         DG    S(hbond)    S(metal)    S(lipo)     H(rot)  DE(clash)    DE(int)     intcor
      9.19     -11.39       0.00        0.00     105.47       2.51       0.37       1.83       ----

> <Gold.Chemscore.Fitness>
9.1872

> <Gold.Chemscore.DG>
-11.3869

> <Gold.Chemscore.ZeroCoef>
-5.4800

> <Gold.Chemscore.Hbond>
0.0000

> <Gold.Chemscore.Metal>
0.0000

> <Gold.Chemscore.Lipo>
105.4702

> <Gold.Chemscore.Internal_Hbond>
0.0000

> <Gold.Chemscore.DEClash>
0.3680

> <Gold.Chemscore.DEInternal>
1.8317

> <Gold.Chemscore.Rot>
2.5129

> <Gold.Chemscore.Internal.Correction>
   9.000000E+99

> <Gold.Chemscore.Hbond.Weighted>
-0.0000

> <Gold.Chemscore.Metal.Weighted>
-0.0000

> <Gold.Chemscore.Lipo.Weighted>
-12.3400

> <Gold.Chemscore.Internal_Hbond.Weighted>
0.0000

> <Gold.Chemscore.DEClash.Weighted>
0.3680

> <Gold.Chemscore.DEInternal.Weighted>
1.8317

> <Gold.Chemscore.Rot.Weighted>
6.4331

> <Gold.Chemscore.Internal.Correction.Weighted>
   9.000000E+99

> <Gold.Protein.RotatedTorsions>
[ 6907 6896 6895 6894 ] final   19.10 input  -60.11 | X-H torsion
[ 7974 7965 7964 7962 ] final -124.92 input  175.53 | X-H torsion
[ 8008 7997 7996 7995 ] final  157.63 input   59.86 | X-H torsion
[ 10167 10162 10161 10158 ] final  -85.38 input  -65.29 | X-H torsion
[ 10718 10713 10712 10709 ] final   89.43 input   66.30 | X-H torsion
[ 10763 10752 10751 10750 ] final  -44.77 input  -60.55 | X-H torsion
[ 11005 11000 10999 10996 ] final -119.05 input  -57.11 | X-H torsion

> <Gold.Protein.ActiveResidues>
 VAL166  LYS551  ARG553  GLY616  TRP617  ASP618  TYR619  PRO620  LYS621  CYS622 
 ASP623  PHE694  ASN695  SER759  ASP760  ASP761  ALA762  ILE779  LEU786  VAL792 
 PHE793  MET794  SER795  GLU796  ALA797  LYS798  CYS799  TRP800  GLU811  SER814 

> <Gold.Protein.RotatedAtoms>
  151.8756  135.0473  160.0483 H   0  0  0  0  0  0  0  0  0  0  0  0  # atno 6907 bound_to 6896
  152.2553  133.5246  159.5358 H   0  0  0  0  0  0  0  0  0  0  0  0  # atno 6908 bound_to 6896
  150.7097  134.0820  159.3944 H   0  0  0  0  0  0  0  0  0  0  0  0  # atno 6909 bound_to 6896
  145.0030  140.7838  143.4484 H   0  0  0  0  0  0  0  0  0  0  0  0  # atno 7974 bound_to 7965
  156.2352  140.1880  156.7138 H   0  0  0  0  0  0  0  0  0  0  0  0  # atno 8008 bound_to 7997
  154.6094  140.0624  156.9501 H   0  0  0  0  0  0  0  0  0  0  0  0  # atno 8009 bound_to 7997
  155.2042  140.3294  155.4341 H   0  0  0  0  0  0  0  0  0  0  0  0  # atno 8010 bound_to 7997
  140.4043  143.2649  151.9101 H   0  0  0  0  0  0  0  0  0  0  0  0  # atno 10167 bound_to 10162
  157.6955  131.0333  150.3425 H   0  0  0  0  0  0  0  0  0  0  0  0  # atno 10718 bound_to 10713
  154.0175  135.6673  153.4770 H   0  0  0  0  0  0  0  0  0  0  0  0  # atno 10763 bound_to 10752
  153.0594  135.5036  154.8054 H   0  0  0  0  0  0  0  0  0  0  0  0  # atno 10764 bound_to 10752
  154.6958  135.3069  154.9378 H   0  0  0  0  0  0  0  0  0  0  0  0  # atno 10765 bound_to 10752
  141.0243  134.0077  157.3237 H   0  0  0  0  0  0  0  0  0  0  0  0  # atno 11005 bound_to 11000
  145.2127  139.2197  143.5135 LP  0  0  0  0  0  0  0  0  0  0  0  0  # atno 17320 bound_to 7965
  146.3456  140.1968  142.8589 LP  0  0  0  0  0  0  0  0  0  0  0  0  # atno 17321 bound_to 7965
  139.4784  144.5602  151.8251 LP  0  0  0  0  0  0  0  0  0  0  0  0  # atno 17342 bound_to 10162
  140.4706  144.1592  150.5917 LP  0  0  0  0  0  0  0  0  0  0  0  0  # atno 17343 bound_to 10162
  156.3884  130.3893  149.7048 LP  0  0  0  0  0  0  0  0  0  0  0  0  # atno 17370 bound_to 10713
  156.4407  130.7859  151.2881 LP  0  0  0  0  0  0  0  0  0  0  0  0  # atno 17371 bound_to 10713
  139.9166  135.0197  156.7903 LP  0  0  0  0  0  0  0  0  0  0  0  0  # atno 17394 bound_to 11000
  140.6519  133.9724  155.7759 LP  0  0  0  0  0  0  0  0  0  0  0  0  # atno 17395 bound_to 11000

$$$$
