AV-unprocessed.smi:3161|AV-procd|sdf|12061|dock6
  -GOLD-   2272017493D 1   1.00000     0.00000
 Structure written by MMmdl.
 40 41  0  0  0  0  0  0  0  0  1 V2000
  147.2905  140.5336  153.3730 C   0  0  0  0  0  0  0  0  0  0  0  0
  148.5243  140.4891  154.2275 C   0  0  0  0  0  0  0  0  0  0  0  0
  149.2402  141.5832  154.7912 C   0  0  0  0  0  0  0  0  0  0  0  0
  150.2913  141.2013  155.4978 N   0  0  0  0  0  0  0  0  0  0  0  0
  150.2884  139.8540  155.4067 N   0  0  0  0  0  0  0  0  0  0  0  0
  151.3239  139.0761  156.0697 C   0  0  0  0  0  0  0  0  0  0  0  0
  151.3668  139.2755  157.6015 C   0  0  2  0  0  0  0  0  0  0  0  0
  150.0215  138.9337  158.2732 C   0  0  0  0  0  0  0  0  0  0  0  0
  151.8062  140.6402  157.9133 N   0  0  0  0  0  0  0  0  0  0  0  0
  151.3329  141.1889  159.1836 C   0  0  0  0  0  0  0  0  0  0  0  0
  151.9998  142.5400  159.4827 C   0  0  1  0  0  0  0  0  0  0  0  0
  151.8460  143.5480  158.3242 C   0  0  0  0  0  0  0  0  0  0  0  0
  152.4469  144.9049  158.7077 C   0  0  0  0  0  0  0  0  0  0  0  0
  151.8457  145.3796  160.0345 C   0  0  0  0  0  0  0  0  0  0  0  0
  151.9830  144.2856  161.1052 C   0  0  0  0  0  0  0  0  0  0  0  0
  151.3794  143.0789  160.6481 O   0  0  0  0  0  0  0  0  0  0  0  0
  149.2285  139.3981  154.6514 C   0  0  0  0  0  0  0  0  0  0  0  0
  146.9395  141.5543  153.2191 H   0  0  0  0  0  0  0  0  0  0  0  0
  146.4694  139.9760  153.8239 H   0  0  0  0  0  0  0  0  0  0  0  0
  147.4690  140.1035  152.3874 H   0  0  0  0  0  0  0  0  0  0  0  0
  149.0273  142.6387  154.7081 H   0  0  0  0  0  0  0  0  0  0  0  0
  151.1648  138.0211  155.8402 H   0  0  0  0  0  0  0  0  0  0  0  0
  152.2860  139.3385  155.6276 H   0  0  0  0  0  0  0  0  0  0  0  0
  152.1119  138.5792  157.9885 H   0  0  0  0  0  0  0  0  0  0  0  0
  149.6577  137.9625  157.9371 H   0  0  0  0  0  0  0  0  0  0  0  0
  149.2539  139.6726  158.0407 H   0  0  0  0  0  0  0  0  0  0  0  0
  150.1130  138.8775  159.3575 H   0  0  0  0  0  0  0  0  0  0  0  0
  151.5353  141.2624  157.1585 H   0  0  0  0  0  0  0  0  0  0  0  0
  150.2509  141.3179  159.1774 H   0  0  0  0  0  0  0  0  0  0  0  0
  151.5614  140.4886  159.9879 H   0  0  0  0  0  0  0  0  0  0  0  0
  153.0575  142.3745  159.6978 H   0  0  0  0  0  0  0  0  0  0  0  0
  152.3303  143.1722  157.4223 H   0  0  0  0  0  0  0  0  0  0  0  0
  150.7894  143.6725  158.0824 H   0  0  0  0  0  0  0  0  0  0  0  0
  153.5290  144.8121  158.8066 H   0  0  0  0  0  0  0  0  0  0  0  0
  152.2647  145.6387  157.9222 H   0  0  0  0  0  0  0  0  0  0  0  0
  152.3353  146.2962  160.3645 H   0  0  0  0  0  0  0  0  0  0  0  0
  150.7913  145.6204  159.8940 H   0  0  0  0  0  0  0  0  0  0  0  0
  153.0314  144.1100  161.3508 H   0  0  0  0  0  0  0  0  0  0  0  0
  151.4903  144.5992  162.0256 H   0  0  0  0  0  0  0  0  0  0  0  0
  149.0675  138.3444  154.4763 H   0  0  0  0  0  0  0  0  0  0  0  0
  1  2  1  0  0  0  0
  1 18  1  0  0  0  0
  1 19  1  0  0  0  0
  1 20  1  0  0  0  0
  2 17  2  0  0  0  0
  2  3  1  0  0  0  0
  3  4  2  0  0  0  0
  3 21  1  0  0  0  0
  4  5  1  0  0  0  0
  5  6  1  0  0  0  0
  5 17  1  0  0  0  0
  6  7  1  0  0  0  0
  6 22  1  0  0  0  0
  6 23  1  0  0  0  0
  7  8  1  0  0  0  0
  7  9  1  0  0  0  0
  7 24  1  0  0  0  0
  8 25  1  0  0  0  0
  8 26  1  0  0  0  0
  8 27  1  0  0  0  0
  9 10  1  0  0  0  0
  9 28  1  0  0  0  0
 10 11  1  0  0  0  0
 10 29  1  0  0  0  0
 10 30  1  0  0  0  0
 11 16  1  0  0  0  0
 11 12  1  0  0  0  0
 11 31  1  0  0  0  0
 12 13  1  0  0  0  0
 12 32  1  0  0  0  0
 12 33  1  0  0  0  0
 13 14  1  0  0  0  0
 13 34  1  0  0  0  0
 13 35  1  0  0  0  0
 14 15  1  0  0  0  0
 14 36  1  0  0  0  0
 14 37  1  0  0  0  0
 15 16  1  0  0  0  0
 15 38  1  0  0  0  0
 15 39  1  0  0  0  0
 17 40  1  0  0  0  0
M  END
> <s_m_source_file>
AV-unprocessed.smi

> <i_m_source_file_index>
3161

> <i_lp_mmshare_version>
43012

> <i_f3d_flags>
0

> <s_epik_input>
W0NIM11jMVtjSF1ubihbY0hdMSlbQ0gyXVtDQEhdKFtDSDNdKVtOSF1bQ0gyXVtDQEBIXTJbQ0gyXVtDSDJdW0NIMl1bQ0gyXU8y

> <s_epik_cmdline>
J2VwaWtfcHl0aG9uJywgJy1waCcsICc3LjAnLCAnLXRuJywgJzgnLCAnLW1hJywgJzIwMCcsICctbWV0YWxfYmluZGluZycsICctaW1hZScsICc8aW5maWxlLm1hZT4nLCAnLW9tYWUnLCAnPG91dGZpbGUubWFlPic=

> <r_lp_tautomer_probability>
1

> <r_epik_Ionization_Penalty>
2.51986

> <r_epik_Ionization_Penalty_Charging>
0

> <r_epik_Ionization_Penalty_Neutral>
2.51986

> <r_epik_State_Penalty>
2.68614

> <r_epik_Charging_Adjusted_Penalty>
2.68614

> <i_epik_Tot_Q>
0

> <i_epik_Tot_abs_Q>
0

> <r_epik_Metal_State_Penalty>
2.68606

> <b_epik_Metal_Only>
0

> <s_lp_Force_Field>
OPLS_2005

> <r_lp_Energy>
14.508

> <b_lp_Chiralities_Consistent>
1

> <s_lp_Variant>
AV-unprocessed.smi:3161-7

> <Gold.Version>
5.8.1

> <Gold.Id.Protein>
6NUR|6NUR_protein|mol2

> <Gold.PLP.Fitness>
44.0833

> <Gold.PLP.PLP>
-41.9009

> <Gold.PLP.part.hbond>
-1.8328

> <Gold.PLP.part.metal>
0.0000

> <Gold.PLP.part.buried>
-0.5963

> <Gold.PLP.part.nonpolar>
-37.9601

> <Gold.PLP.part.repulsive>
0.1509

> <Gold.PLP.ligand.clash>
0.0000

> <Gold.PLP.ligand.torsion>
0.4273

> <Gold.PLP.Chemscore.Hbond>
0.0000

> <Gold.PLP.Chemscore.CHOScore>
1.0000

> <Gold.PLP.Chemscore.Metal>
0.0000

> <Gold.Chemscore.Hbonds>
donor molecule, donor type, donor heavy atom, donor atom, acceptor molecule, acceptor atom, score
      L1  C     3    21       P1  8028  1.00

> <Gold.PLP.Chemscore.Internal.Correction>
0.0369

> <Gold.Rescore>
     Score         DG    S(hbond)    S(metal)    S(lipo)     H(rot)  DE(clash)    DE(int)     intcor
     14.50     -15.11       0.00        0.00     115.20       1.50       0.09       0.52       ----

> <Gold.Chemscore.Fitness>
14.5028

> <Gold.Chemscore.DG>
-15.1105

> <Gold.Chemscore.ZeroCoef>
-5.4800

> <Gold.Chemscore.Hbond>
0.0000

> <Gold.Chemscore.Metal>
0.0000

> <Gold.Chemscore.Lipo>
115.1981

> <Gold.Chemscore.Internal_Hbond>
0.0000

> <Gold.Chemscore.DEClash>
0.0858

> <Gold.Chemscore.DEInternal>
0.5219

> <Gold.Chemscore.Rot>
1.5030

> <Gold.Chemscore.Internal.Correction>
   9.000000E+99

> <Gold.Chemscore.Hbonds>
donor molecule, donor type, donor heavy atom, donor atom, acceptor molecule, acceptor atom, score
      P1  H  6933  6945       L1    16  0.01

> <Gold.Chemscore.Hbond.Weighted>
-0.0000

> <Gold.Chemscore.Metal.Weighted>
-0.0000

> <Gold.Chemscore.Lipo.Weighted>
-13.4782

> <Gold.Chemscore.Internal_Hbond.Weighted>
0.0000

> <Gold.Chemscore.DEClash.Weighted>
0.0858

> <Gold.Chemscore.DEInternal.Weighted>
0.5219

> <Gold.Chemscore.Rot.Weighted>
3.8477

> <Gold.Chemscore.Internal.Correction.Weighted>
   9.000000E+99

> <Gold.Protein.RotatedTorsions>
[ 6907 6896 6895 6894 ] final    3.89 input  -60.11 | X-H torsion
[ 7974 7965 7964 7962 ] final  -44.87 input  175.53 | X-H torsion
[ 8008 7997 7996 7995 ] final -156.84 input   59.86 | X-H torsion
[ 10167 10162 10161 10158 ] final -154.13 input  -65.29 | X-H torsion
[ 10718 10713 10712 10709 ] final    5.26 input   66.30 | X-H torsion
[ 10763 10752 10751 10750 ] final -174.23 input  -60.55 | X-H torsion
[ 11005 11000 10999 10996 ] final  -89.60 input  -57.11 | X-H torsion

> <Gold.Protein.ActiveResidues>
 VAL166  LYS551  ARG553  GLY616  TRP617  ASP618  TYR619  PRO620  LYS621  CYS622 
 ASP623  PHE694  ASN695  SER759  ASP760  ASP761  ALA762  ILE779  LEU786  VAL792 
 PHE793  MET794  SER795  GLU796  ALA797  LYS798  CYS799  TRP800  GLU811  SER814 

> <Gold.Protein.RotatedAtoms>
  151.6324  135.1021  160.0124 H   0  0  0  0  0  0  0  0  0  0  0  0  # atno 6907 bound_to 6896
  152.4099  133.6943  159.6397 H   0  0  0  0  0  0  0  0  0  0  0  0  # atno 6908 bound_to 6896
  150.7990  133.8560  159.3259 H   0  0  0  0  0  0  0  0  0  0  0  0  # atno 6909 bound_to 6896
  145.9878  140.7214  142.9332 H   0  0  0  0  0  0  0  0  0  0  0  0  # atno 7974 bound_to 7965
  155.7234  140.0793  157.2321 H   0  0  0  0  0  0  0  0  0  0  0  0  # atno 8008 bound_to 7997
  154.4042  140.1608  156.2482 H   0  0  0  0  0  0  0  0  0  0  0  0  # atno 8009 bound_to 7997
  155.9176  140.3400  155.6150 H   0  0  0  0  0  0  0  0  0  0  0  0  # atno 8010 bound_to 7997
  139.7039  143.9218  152.2440 H   0  0  0  0  0  0  0  0  0  0  0  0  # atno 10167 bound_to 10162
  156.9047  130.5734  149.5647 H   0  0  0  0  0  0  0  0  0  0  0  0  # atno 10718 bound_to 10713
  154.5986  135.2852  155.0560 H   0  0  0  0  0  0  0  0  0  0  0  0  # atno 10763 bound_to 10752
  154.1833  135.6453  153.5044 H   0  0  0  0  0  0  0  0  0  0  0  0  # atno 10764 bound_to 10752
  153.0148  135.5429  154.6697 H   0  0  0  0  0  0  0  0  0  0  0  0  # atno 10765 bound_to 10752
  141.1582  133.7640  156.9617 H   0  0  0  0  0  0  0  0  0  0  0  0  # atno 11005 bound_to 11000
  144.6880  140.3017  143.7262 LP  0  0  0  0  0  0  0  0  0  0  0  0  # atno 17320 bound_to 7965
  145.7675  139.1846  143.2231 LP  0  0  0  0  0  0  0  0  0  0  0  0  # atno 17321 bound_to 7965
  139.9068  144.6880  150.8605 LP  0  0  0  0  0  0  0  0  0  0  0  0  # atno 17342 bound_to 10162
  140.7717  143.3473  151.2086 LP  0  0  0  0  0  0  0  0  0  0  0  0  # atno 17343 bound_to 10162
  156.0564  130.5625  150.9101 LP  0  0  0  0  0  0  0  0  0  0  0  0  # atno 17370 bound_to 10713
  157.6004  131.0941  150.8969 LP  0  0  0  0  0  0  0  0  0  0  0  0  # atno 17371 bound_to 10713
  140.1188  134.9430  157.2173 LP  0  0  0  0  0  0  0  0  0  0  0  0  # atno 17394 bound_to 11000
  140.3098  134.3036  155.7269 LP  0  0  0  0  0  0  0  0  0  0  0  0  # atno 17395 bound_to 11000

$$$$
