AV-unprocessed.smi:869|AV-procd|sdf|4003|dock7
  -GOLD-   22720 1483D 1   1.00000     0.00000
 Structure written by MMmdl.
 46 48  0  0  0  0  0  0  0  0  1 V2000
  148.7085  140.2884  153.6637 C   0  0  0  0  0  0  0  0  0  0  0  0
  149.7772  140.7066  154.4939 O   0  0  0  0  0  0  0  0  0  0  0  0
  150.0291  139.7934  155.5517 C   0  0  0  0  0  0  0  0  0  0  0  0
  150.7252  140.5289  156.6618 C   0  0  0  0  0  0  0  0  0  0  0  0
  150.9014  141.8527  156.6624 N   0  0  0  0  0  0  0  0  0  0  0  0
  151.5670  142.0738  157.8517 C   0  0  0  0  0  0  0  0  0  0  0  0
  152.0389  143.2732  158.4317 C   0  0  0  0  0  0  0  0  0  0  0  0
  152.7002  143.2517  159.6773 C   0  0  0  0  0  0  0  0  0  0  0  0
  152.8978  142.0336  160.3595 C   0  0  0  0  0  0  0  0  0  0  0  0
  152.4348  140.8275  159.7994 C   0  0  0  0  0  0  0  0  0  0  0  0
  151.7767  140.8547  158.5552 C   0  0  0  0  0  0  0  0  0  0  0  0
  151.2146  139.8734  157.7451 N   0  0  0  0  0  0  0  0  0  0  0  0
  151.1747  138.4456  158.0357 C   0  0  0  0  0  0  0  0  0  0  0  0
  150.4245  138.1280  159.3449 C   0  0  2  0  0  0  0  0  0  0  0  0
  151.0541  137.0370  159.9876 O   0  0  0  0  0  0  0  0  0  0  0  0
  148.9548  137.7594  159.0888 C   0  0  0  0  0  0  0  0  0  0  0  0
  148.2161  137.9614  160.2866 O   0  0  0  0  0  0  0  0  0  0  0  0
  147.2841  137.0121  160.6476 C   0  0  0  0  0  0  0  0  0  0  0  0
  146.5675  137.2405  161.8404 C   0  0  0  0  0  0  0  0  0  0  0  0
  145.5972  136.3230  162.2869 C   0  0  0  0  0  0  0  0  0  0  0  0
  145.3315  135.1574  161.5418 C   0  0  0  0  0  0  0  0  0  0  0  0
  144.2887  134.1671  162.0175 C   0  0  0  0  0  0  0  0  0  0  0  0
  146.0390  134.9200  160.3470 C   0  0  0  0  0  0  0  0  0  0  0  0
  147.0085  135.8391  159.9003 C   0  0  0  0  0  0  0  0  0  0  0  0
  148.5537  141.0194  152.8701 H   0  0  0  0  0  0  0  0  0  0  0  0
  147.7797  140.2030  154.2296 H   0  0  0  0  0  0  0  0  0  0  0  0
  148.9249  139.3259  153.1978 H   0  0  0  0  0  0  0  0  0  0  0  0
  149.0937  139.3757  155.9271 H   0  0  0  0  0  0  0  0  0  0  0  0
  150.6598  138.9754  155.2014 H   0  0  0  0  0  0  0  0  0  0  0  0
  151.8918  144.2109  157.9165 H   0  0  0  0  0  0  0  0  0  0  0  0
  153.0572  144.1740  160.1113 H   0  0  0  0  0  0  0  0  0  0  0  0
  153.4054  142.0256  161.3129 H   0  0  0  0  0  0  0  0  0  0  0  0
  152.5850  139.8929  160.3188 H   0  0  0  0  0  0  0  0  0  0  0  0
  150.6834  137.9496  157.1979 H   0  0  0  0  0  0  0  0  0  0  0  0
  152.1883  138.0462  158.0680 H   0  0  0  0  0  0  0  0  0  0  0  0
  150.4724  138.9980  160.0012 H   0  0  0  0  0  0  0  0  0  0  0  0
  151.5817  137.3725  160.6964 H   0  0  0  0  0  0  0  0  0  0  0  0
  148.5458  138.4174  158.3202 H   0  0  0  0  0  0  0  0  0  0  0  0
  148.8710  136.7324  158.7286 H   0  0  0  0  0  0  0  0  0  0  0  0
  146.7637  138.1302  162.4206 H   0  0  0  0  0  0  0  0  0  0  0  0
  145.0592  136.5177  163.2031 H   0  0  0  0  0  0  0  0  0  0  0  0
  143.3326  134.3664  161.5334 H   0  0  0  0  0  0  0  0  0  0  0  0
  144.1484  134.2346  163.0968 H   0  0  0  0  0  0  0  0  0  0  0  0
  144.5889  133.1463  161.7795 H   0  0  0  0  0  0  0  0  0  0  0  0
  145.8402  134.0305  159.7674 H   0  0  0  0  0  0  0  0  0  0  0  0
  147.5275  135.6194  158.9800 H   0  0  0  0  0  0  0  0  0  0  0  0
  1  2  1  0  0  0  0
  1 25  1  0  0  0  0
  1 26  1  0  0  0  0
  1 27  1  0  0  0  0
  2  3  1  0  0  0  0
  3  4  1  0  0  0  0
  3 28  1  0  0  0  0
  3 29  1  0  0  0  0
  4 12  1  0  0  0  0
  4  5  2  0  0  0  0
  5  6  1  0  0  0  0
  6 11  2  0  0  0  0
  6  7  1  0  0  0  0
  7  8  2  0  0  0  0
  7 30  1  0  0  0  0
  8  9  1  0  0  0  0
  8 31  1  0  0  0  0
  9 10  2  0  0  0  0
  9 32  1  0  0  0  0
 10 11  1  0  0  0  0
 10 33  1  0  0  0  0
 11 12  1  0  0  0  0
 12 13  1  0  0  0  0
 13 14  1  0  0  0  0
 13 34  1  0  0  0  0
 13 35  1  0  0  0  0
 14 15  1  0  0  0  0
 14 16  1  0  0  0  0
 14 36  1  0  0  0  0
 15 37  1  0  0  0  0
 16 17  1  0  0  0  0
 16 38  1  0  0  0  0
 16 39  1  0  0  0  0
 17 18  1  0  0  0  0
 18 24  1  0  0  0  0
 18 19  2  0  0  0  0
 19 20  1  0  0  0  0
 19 40  1  0  0  0  0
 20 21  2  0  0  0  0
 20 41  1  0  0  0  0
 21 22  1  0  0  0  0
 21 23  1  0  0  0  0
 22 42  1  0  0  0  0
 22 43  1  0  0  0  0
 22 44  1  0  0  0  0
 23 24  2  0  0  0  0
 23 45  1  0  0  0  0
 24 46  1  0  0  0  0
M  END
> <s_m_source_file>
AV-unprocessed.smi

> <i_m_source_file_index>
869

> <i_lp_mmshare_version>
43012

> <i_f3d_flags>
0

> <s_epik_input>
W2NIXTFbY0hdW2NIXVtjSF1jKGMxMiluKGMobjIpW0NIMl1PW0NIM10pW0NIMl1bQ0BIXShbT0hdKVtDSDJdT2MzW2NIXVtjSF1jKFtDSDNdKVtjSF1bY0hdMw==

> <s_epik_cmdline>
J2VwaWtfcHl0aG9uJywgJy1waCcsICc3LjAnLCAnLXRuJywgJzgnLCAnLW1hJywgJzIwMCcsICctbWV0YWxfYmluZGluZycsICctaW1hZScsICc8aW5maWxlLm1hZT4nLCAnLW9tYWUnLCAnPG91dGZpbGUubWFlPic=

> <r_lp_tautomer_probability>
1

> <r_epik_Ionization_Penalty>
0.0446698

> <r_epik_Ionization_Penalty_Charging>
0

> <r_epik_Ionization_Penalty_Neutral>
0.0446698

> <r_epik_State_Penalty>
0.0378721

> <r_epik_Charging_Adjusted_Penalty>
0.0378721

> <i_epik_Tot_Q>
0

> <i_epik_Tot_abs_Q>
0

> <r_epik_Metal_State_Penalty>
3.91074e-05

> <b_epik_Metal_Only>
0

> <s_lp_Force_Field>
OPLS_2005

> <r_lp_Energy>
18.3229

> <b_lp_Chiralities_Consistent>
1

> <s_lp_Variant>
AV-unprocessed.smi:869-1

> <Gold.Version>
5.8.1

> <Gold.Id.Protein>
6NUR|6NUR_protein|mol2

> <Gold.PLP.Fitness>
52.6218

> <Gold.PLP.PLP>
-48.2998

> <Gold.PLP.part.hbond>
-3.5391

> <Gold.PLP.part.metal>
0.0000

> <Gold.PLP.part.buried>
-3.1163

> <Gold.PLP.part.nonpolar>
-42.7534

> <Gold.PLP.part.repulsive>
0.1856

> <Gold.PLP.ligand.clash>
0.0000

> <Gold.PLP.ligand.torsion>
1.1642

> <Gold.PLP.Chemscore.Hbond>
2.1792

> <Gold.PLP.Chemscore.CHOScore>
0.0000

> <Gold.PLP.Chemscore.Metal>
0.0000

> <Gold.Chemscore.Hbonds>
donor molecule, donor type, donor heavy atom, donor atom, acceptor molecule, acceptor atom, score
      P1  H  6896  6907       L1    15  1.00
      P1  H  6931  6943       L1    17  0.30
      P1  H  6934  6947       L1    17  0.13
      P1  H  7989  7998       L1     2  0.60

> <Gold.PLP.Chemscore.Internal.Correction>
0.1130

> <Gold.Rescore>
     Score         DG    S(hbond)    S(metal)    S(lipo)     H(rot)  DE(clash)    DE(int)     intcor
     19.13     -20.16       1.57        0.00     132.39       2.36       0.12       0.91       ----

> <Gold.Chemscore.Fitness>
19.1342

> <Gold.Chemscore.DG>
-20.1614

> <Gold.Chemscore.ZeroCoef>
-5.4800

> <Gold.Chemscore.Hbond>
1.5658

> <Gold.Chemscore.Metal>
0.0000

> <Gold.Chemscore.Lipo>
132.3871

> <Gold.Chemscore.Internal_Hbond>
0.0000

> <Gold.Chemscore.DEClash>
0.1166

> <Gold.Chemscore.DEInternal>
0.9106

> <Gold.Chemscore.Rot>
2.3585

> <Gold.Chemscore.Internal.Correction>
   9.000000E+99

> <Gold.Chemscore.Hbonds>
donor molecule, donor type, donor heavy atom, donor atom, acceptor molecule, acceptor atom, score
      P1  H  6896  6907       L1    15  0.45
      P1  H  6931  6943       L1    17  0.10
      P1  H  7989  7998       L1     2  0.26

> <Gold.Chemscore.Hbond.Weighted>
-5.2299

> <Gold.Chemscore.Metal.Weighted>
-0.0000

> <Gold.Chemscore.Lipo.Weighted>
-15.4893

> <Gold.Chemscore.Internal_Hbond.Weighted>
0.0000

> <Gold.Chemscore.DEClash.Weighted>
0.1166

> <Gold.Chemscore.DEInternal.Weighted>
0.9106

> <Gold.Chemscore.Rot.Weighted>
6.0378

> <Gold.Chemscore.Internal.Correction.Weighted>
   9.000000E+99

> <Gold.Protein.RotatedTorsions>
[ 6907 6896 6895 6894 ] final   -8.49 input  -60.11 | X-H torsion
[ 7974 7965 7964 7962 ] final   33.00 input  175.53 | X-H torsion
[ 8008 7997 7996 7995 ] final  -51.87 input   59.86 | X-H torsion
[ 10167 10162 10161 10158 ] final  112.94 input  -65.29 | X-H torsion
[ 10718 10713 10712 10709 ] final -159.19 input   66.30 | X-H torsion
[ 10763 10752 10751 10750 ] final  -42.48 input  -60.55 | X-H torsion
[ 11005 11000 10999 10996 ] final  -58.15 input  -57.11 | X-H torsion

> <Gold.Protein.ActiveResidues>
 VAL166  LYS551  ARG553  GLY616  TRP617  ASP618  TYR619  PRO620  LYS621  CYS622 
 ASP623  PHE694  ASN695  SER759  ASP760  ASP761  ALA762  ILE779  LEU786  VAL792 
 PHE793  MET794  SER795  GLU796  ALA797  LYS798  CYS799  TRP800  GLU811  SER814 

> <Gold.Protein.RotatedAtoms>
  151.4328  135.1011  159.9647 H   0  0  0  0  0  0  0  0  0  0  0  0  # atno 6907 bound_to 6896
  152.4950  133.8601  159.7256 H   0  0  0  0  0  0  0  0  0  0  0  0  # atno 6908 bound_to 6896
  150.9143  133.6900  159.2875 H   0  0  0  0  0  0  0  0  0  0  0  0  # atno 6909 bound_to 6896
  146.1450  139.6454  142.9137 H   0  0  0  0  0  0  0  0  0  0  0  0  # atno 7974 bound_to 7965
  154.4093  140.1237  156.4899 H   0  0  0  0  0  0  0  0  0  0  0  0  # atno 8008 bound_to 7997
  155.7000  140.3495  155.4909 H   0  0  0  0  0  0  0  0  0  0  0  0  # atno 8009 bound_to 7997
  155.9393  140.1084  157.1058 H   0  0  0  0  0  0  0  0  0  0  0  0  # atno 8010 bound_to 7997
  139.6498  144.7128  151.2070 H   0  0  0  0  0  0  0  0  0  0  0  0  # atno 10167 bound_to 10162
  156.5646  130.8662  151.2820 H   0  0  0  0  0  0  0  0  0  0  0  0  # atno 10718 bound_to 10713
  153.9798  135.6718  153.4749 H   0  0  0  0  0  0  0  0  0  0  0  0  # atno 10763 bound_to 10752
  153.0754  135.4952  154.8389 H   0  0  0  0  0  0  0  0  0  0  0  0  # atno 10764 bound_to 10752
  154.7171  135.3109  154.9068 H   0  0  0  0  0  0  0  0  0  0  0  0  # atno 10765 bound_to 10752
  141.1195  133.6611  156.4877 H   0  0  0  0  0  0  0  0  0  0  0  0  # atno 11005 bound_to 11000
  145.4959  141.0438  143.2567 LP  0  0  0  0  0  0  0  0  0  0  0  0  # atno 17320 bound_to 7965
  144.7835  139.6475  143.7144 LP  0  0  0  0  0  0  0  0  0  0  0  0  # atno 17321 bound_to 7965
  140.7532  143.6169  150.8551 LP  0  0  0  0  0  0  0  0  0  0  0  0  # atno 17342 bound_to 10162
  139.9816  143.5945  152.2941 LP  0  0  0  0  0  0  0  0  0  0  0  0  # atno 17343 bound_to 10162
  157.7361  130.9773  150.2118 LP  0  0  0  0  0  0  0  0  0  0  0  0  # atno 17370 bound_to 10713
  156.2768  130.3728  149.7975 LP  0  0  0  0  0  0  0  0  0  0  0  0  # atno 17371 bound_to 10713
  140.4549  134.6895  157.5057 LP  0  0  0  0  0  0  0  0  0  0  0  0  # atno 17394 bound_to 11000
  140.0142  134.6645  155.9335 LP  0  0  0  0  0  0  0  0  0  0  0  0  # atno 17395 bound_to 11000

$$$$
