AV-unprocessed.smi:290|AV-procd|sdf|2216|dock8
  -GOLD-   2262022 53D 1   1.00000     0.00000
 Structure written by MMmdl.
 59 62  0  0  0  0  0  0  0  0  2 V2000
  150.1229  138.6974  153.8022 C   0  0  0  0  0  0  0  0  0  0  0  0
  150.0094  139.6250  155.0229 C   0  0  1  0  0  0  0  0  0  0  0  0
  151.2804  140.1560  155.3686 O   0  0  0  0  0  0  0  0  0  0  0  0
  151.0483  141.2680  156.2139 C   0  0  0  0  0  0  0  0  0  0  0  0
  149.9046  141.9900  155.5119 C   0  0  0  0  0  0  0  0  0  0  0  0
  149.0789  140.8599  154.8891 C   0  0  1  0  0  0  0  0  0  0  0  0
  148.8342  141.1905  153.5316 O   0  0  0  0  0  0  0  0  0  0  0  0
  147.7141  140.6763  155.5981 C   0  0  0  0  0  0  0  0  0  0  0  0
  147.1842  139.3245  155.4972 N   0  0  0  0  0  0  0  0  0  0  0  0
  146.1218  138.9117  154.7240 C   0  0  0  0  0  0  0  0  0  0  0  0
  145.8397  137.6396  154.7963 N   0  0  0  0  0  0  0  0  0  0  0  0
  146.7733  137.1384  155.6951 C   0  0  0  0  0  0  0  0  0  0  0  0
  147.0452  135.8479  156.2296 C   0  0  0  0  0  0  0  0  0  0  0  0
  146.3578  134.7273  155.9231 N   0  0  0  0  0  0  0  0  0  0  0  0
  147.1787  133.6009  155.4826 C   0  0  0  0  0  0  0  0  0  0  0  0
  146.3330  132.8258  154.4697 C   0  0  0  0  0  0  0  0  0  0  0  0
  145.5146  133.9570  153.8432 C   0  0  1  0  0  0  0  0  0  0  0  0
  144.3554  133.5863  152.9727 N   0  3  1  0  0  0  0  0  0  0  0  0
  143.4886  134.7582  152.6930 C   0  0  0  0  0  0  0  0  0  0  0  0
  144.6954  132.8247  151.7376 C   0  0  0  0  0  0  0  0  0  0  0  0
  143.4659  132.5143  150.8648 C   0  0  0  0  0  0  0  0  0  0  0  0
  143.4579  133.3419  149.7212 O   0  0  0  0  0  0  0  0  0  0  0  0
  145.2129  134.8961  155.0285 C   0  0  1  0  0  0  0  0  0  0  0  0
  143.9147  134.6261  155.8066 C   0  0  0  0  0  0  0  0  0  0  0  0
  148.0682  135.7236  157.1088 N   0  0  0  0  0  0  0  0  0  0  0  0
  148.7837  136.7984  157.4548 C   0  0  0  0  0  0  0  0  0  0  0  0
  148.6460  138.0612  157.0436 N   0  0  0  0  0  0  0  0  0  0  0  0
  147.6212  138.1857  156.1519 C   0  0  0  0  0  0  0  0  0  0  0  0
  146.2131  134.5179  153.2198 H   0  0  0  0  0  0  0  0  0  0  0  0
  145.1576  135.9198  154.6546 H   0  0  0  0  0  0  0  0  0  0  0  0
  149.1482  138.3008  153.5169 H   0  0  0  0  0  0  0  0  0  0  0  0
  150.7722  137.8499  154.0221 H   0  0  0  0  0  0  0  0  0  0  0  0
  150.5430  139.2169  152.9406 H   0  0  0  0  0  0  0  0  0  0  0  0
  149.6949  139.0290  155.8801 H   0  0  0  0  0  0  0  0  0  0  0  0
  150.7463  140.9238  157.2045 H   0  0  0  0  0  0  0  0  0  0  0  0
  151.9382  141.8887  156.3193 H   0  0  0  0  0  0  0  0  0  0  0  0
  149.3347  142.6213  156.1945 H   0  0  0  0  0  0  0  0  0  0  0  0
  150.3230  142.6407  154.7419 H   0  0  0  0  0  0  0  0  0  0  0  0
  149.1280  140.4738  152.9905 H   0  0  0  0  0  0  0  0  0  0  0  0
  147.8045  140.9308  156.6550 H   0  0  0  0  0  0  0  0  0  0  0  0
  146.9750  141.3630  155.1832 H   0  0  0  0  0  0  0  0  0  0  0  0
  145.5634  139.5883  154.0936 H   0  0  0  0  0  0  0  0  0  0  0  0
  148.0975  133.9541  155.0115 H   0  0  0  0  0  0  0  0  0  0  0  0
  147.4610  132.9730  156.3282 H   0  0  0  0  0  0  0  0  0  0  0  0
  146.9378  132.2805  153.7446 H   0  0  0  0  0  0  0  0  0  0  0  0
  145.7108  132.1090  155.0045 H   0  0  0  0  0  0  0  0  0  0  0  0
  144.0235  135.5039  152.1037 H   0  0  0  0  0  0  0  0  0  0  0  0
  143.1605  135.2294  153.6204 H   0  0  0  0  0  0  0  0  0  0  0  0
  142.5865  134.4791  152.1514 H   0  0  0  0  0  0  0  0  0  0  0  0
  145.4310  133.3851  151.1588 H   0  0  0  0  0  0  0  0  0  0  0  0
  145.1659  131.8755  151.9859 H   0  0  0  0  0  0  0  0  0  0  0  0
  143.4204  131.4693  150.5627 H   0  0  0  0  0  0  0  0  0  0  0  0
  142.5560  132.7122  151.4317 H   0  0  0  0  0  0  0  0  0  0  0  0
  142.5781  133.6597  149.5837 H   0  0  0  0  0  0  0  0  0  0  0  0
  143.0371  134.7289  155.1697 H   0  0  0  0  0  0  0  0  0  0  0  0
  143.8027  135.3410  156.6221 H   0  0  0  0  0  0  0  0  0  0  0  0
  143.9066  133.6301  156.2496 H   0  0  0  0  0  0  0  0  0  0  0  0
  149.5806  136.6215  158.1617 H   0  0  0  0  0  0  0  0  0  0  0  0
  143.7937  132.9620  153.5347 H   0  0  0  0  0  0  0  0  0  0  0  0
  1  2  1  0  0  0  0
  1 31  1  0  0  0  0
  1 32  1  0  0  0  0
  1 33  1  0  0  0  0
  2  6  1  0  0  0  0
  2  3  1  0  0  0  0
  2 34  1  0  0  0  0
  3  4  1  0  0  0  0
  4  5  1  0  0  0  0
  4 35  1  0  0  0  0
  4 36  1  0  0  0  0
  5  6  1  0  0  0  0
  5 37  1  0  0  0  0
  5 38  1  0  0  0  0
  6  7  1  0  0  0  0
  6  8  1  0  0  0  0
  7 39  1  0  0  0  0
  8  9  1  0  0  0  0
  8 40  1  0  0  0  0
  8 41  1  0  0  0  0
  9 28  1  0  0  0  0
  9 10  1  0  0  0  0
 10 11  2  0  0  0  0
 10 42  1  0  0  0  0
 11 12  1  0  0  0  0
 12 28  2  0  0  0  0
 12 13  1  0  0  0  0
 13 14  1  0  0  0  0
 13 25  2  0  0  0  0
 14 23  1  0  0  0  0
 14 15  1  0  0  0  0
 15 16  1  0  0  0  0
 15 43  1  0  0  0  0
 15 44  1  0  0  0  0
 16 17  1  0  0  0  0
 16 45  1  0  0  0  0
 16 46  1  0  0  0  0
 17 29  1  0  0  0  0
 17 18  1  0  0  0  0
 17 23  1  0  0  0  0
 18 19  1  0  0  0  0
 18 20  1  0  0  0  0
 18 59  1  0  0  0  0
 19 47  1  0  0  0  0
 19 48  1  0  0  0  0
 19 49  1  0  0  0  0
 20 21  1  0  0  0  0
 20 50  1  0  0  0  0
 20 51  1  0  0  0  0
 21 22  1  0  0  0  0
 21 52  1  0  0  0  0
 21 53  1  0  0  0  0
 22 54  1  0  0  0  0
 23 30  1  0  0  0  0
 23 24  1  0  0  0  0
 24 55  1  0  0  0  0
 24 56  1  0  0  0  0
 24 57  1  0  0  0  0
 25 26  1  0  0  0  0
 26 27  2  0  0  0  0
 26 58  1  0  0  0  0
 27 28  1  0  0  0  0
M  CHG  1  18   1
M  END
> <s_m_source_file>
AV-unprocessed.smi

> <i_m_source_file_index>
290

> <i_lp_mmshare_version>
43012

> <i_f3d_flags>
0

> <s_epik_input>
W0NIMl0xW0NIMl1PW0NAQEhdKFtDSDNdKVtDQEBdMShbT0hdKVtDSDJdbihbY0hdbjIpYyhjMjMpbltjSF1uYzNONFtDSDJdW0NIMl1bQ0BIXShbQ0BIXTRbQ0gzXSlOKFtDSDNdKVtDSDJdW0NIMl1bT0hd

> <s_epik_cmdline>
J2VwaWtfcHl0aG9uJywgJy1waCcsICc3LjAnLCAnLXRuJywgJzgnLCAnLW1hJywgJzIwMCcsICctbWV0YWxfYmluZGluZycsICctaW1hZScsICc8aW5maWxlLm1hZT4nLCAnLW9tYWUnLCAnPG91dGZpbGUubWFlPic=

> <r_lp_tautomer_probability>
1

> <r_epik_Ionization_Penalty>
0.0036983

> <r_epik_Ionization_Penalty_Charging>
0.0032725

> <r_epik_Ionization_Penalty_Neutral>
0.000425798

> <r_epik_State_Penalty>
-0

> <r_epik_Charging_Adjusted_Penalty>
0.0032725

> <i_epik_Tot_Q>
1

> <i_epik_Tot_abs_Q>
1

> <r_epik_Metal_State_Penalty>
-0

> <b_epik_Metal_Only>
0

> <s_lp_Force_Field>
OPLS_2005

> <r_lp_Energy>
65.8888

> <b_lp_Chiralities_Consistent>
1

> <s_lp_Variant>
AV-unprocessed.smi:290-2

> <Gold.Version>
5.8.1

> <Gold.Id.Protein>
6NUR|6NUR_protein|mol2

> <Gold.PLP.Fitness>
45.0461

> <Gold.PLP.PLP>
-28.1293

> <Gold.PLP.part.hbond>
-5.5740

> <Gold.PLP.part.metal>
0.0000

> <Gold.PLP.part.buried>
-3.1717

> <Gold.PLP.part.nonpolar>
-19.5820

> <Gold.PLP.part.repulsive>
0.1018

> <Gold.PLP.ligand.clash>
0.0000

> <Gold.PLP.ligand.torsion>
1.1411

> <Gold.PLP.Chemscore.Hbond>
5.3060

> <Gold.PLP.Chemscore.CHOScore>
1.0000

> <Gold.PLP.Chemscore.Metal>
0.0000

> <Gold.Chemscore.Hbonds>
donor molecule, donor type, donor heavy atom, donor atom, acceptor molecule, acceptor atom, score
      L1  H     7    39       P1  7957  0.83
      L1  H    18    59       P1 10957  1.85
      L1  H    22    54       P1 10186  1.00
      P1  H  7989  7998       L1     3  0.70
      P1  H  8011  8017       L1     7  0.38
      L1  C    10    42       P1 10175  0.74

> <Gold.PLP.Chemscore.Internal.Correction>
0.2809

> <Gold.Rescore>
     Score         DG    S(hbond)    S(metal)    S(lipo)     H(rot)  DE(clash)    DE(int)     intcor
      9.66     -15.09       3.24        0.00      69.82       3.67       0.77       4.66       ----

> <Gold.Chemscore.Fitness>
9.6602

> <Gold.Chemscore.DG>
-15.0865

> <Gold.Chemscore.ZeroCoef>
-5.4800

> <Gold.Chemscore.Hbond>
3.2400

> <Gold.Chemscore.Metal>
0.0000

> <Gold.Chemscore.Lipo>
69.8232

> <Gold.Chemscore.Internal_Hbond>
0.0000

> <Gold.Chemscore.DEClash>
0.7651

> <Gold.Chemscore.DEInternal>
4.6612

> <Gold.Chemscore.Rot>
3.6658

> <Gold.Chemscore.Internal.Correction>
   9.000000E+99

> <Gold.Chemscore.Hbonds>
donor molecule, donor type, donor heavy atom, donor atom, acceptor molecule, acceptor atom, score
      L1  H     7    39       P1  7957  0.81
      L1  H    18    59       P1 10957  0.73
      L1  H    22    54       P1 10186  1.00
      P1  H  7989  7998       L1     3  0.04
      P1  H  8011  8017       L1     7  0.01

> <Gold.Chemscore.Hbond.Weighted>
-10.8216

> <Gold.Chemscore.Metal.Weighted>
-0.0000

> <Gold.Chemscore.Lipo.Weighted>
-8.1693

> <Gold.Chemscore.Internal_Hbond.Weighted>
0.0000

> <Gold.Chemscore.DEClash.Weighted>
0.7651

> <Gold.Chemscore.DEInternal.Weighted>
4.6612

> <Gold.Chemscore.Rot.Weighted>
9.3844

> <Gold.Chemscore.Internal.Correction.Weighted>
   9.000000E+99

> <Gold.Protein.RotatedTorsions>
[ 6907 6896 6895 6894 ] final  108.26 input  -60.11 | X-H torsion
[ 7974 7965 7964 7962 ] final  -96.10 input  175.53 | X-H torsion
[ 8008 7997 7996 7995 ] final   92.18 input   59.86 | X-H torsion
[ 10167 10162 10161 10158 ] final -172.07 input  -65.29 | X-H torsion
[ 10718 10713 10712 10709 ] final  166.38 input   66.30 | X-H torsion
[ 10763 10752 10751 10750 ] final    1.58 input  -60.55 | X-H torsion
[ 11005 11000 10999 10996 ] final  125.24 input  -57.11 | X-H torsion

> <Gold.Protein.ActiveResidues>
 VAL166  LYS551  ARG553  GLY616  TRP617  ASP618  TYR619  PRO620  LYS621  CYS622 
 ASP623  PHE694  ASN695  SER759  ASP760  ASP761  ALA762  ILE779  LEU786  VAL792 
 PHE793  MET794  SER795  GLU796  ALA797  LYS798  CYS799  TRP800  GLU811  SER814 

> <Gold.Protein.RotatedAtoms>
  152.5119  133.9114  159.7489 H   0  0  0  0  0  0  0  0  0  0  0  0  # atno 6907 bound_to 6896
  150.9507  133.6544  159.2779 H   0  0  0  0  0  0  0  0  0  0  0  0  # atno 6908 bound_to 6896
  151.3824  135.0947  159.9553 H   0  0  0  0  0  0  0  0  0  0  0  0  # atno 6909 bound_to 6896
  145.3514  140.9477  143.2552 H   0  0  0  0  0  0  0  0  0  0  0  0  # atno 7974 bound_to 7965
  156.0324  140.3328  155.7154 H   0  0  0  0  0  0  0  0  0  0  0  0  # atno 8008 bound_to 7997
  155.5865  140.0642  157.2787 H   0  0  0  0  0  0  0  0  0  0  0  0  # atno 8009 bound_to 7997
  154.4359  140.1835  156.1018 H   0  0  0  0  0  0  0  0  0  0  0  0  # atno 8010 bound_to 7997
  139.5766  144.1519  152.1458 H   0  0  0  0  0  0  0  0  0  0  0  0  # atno 10167 bound_to 10162
  157.0667  131.0355  151.2627 H   0  0  0  0  0  0  0  0  0  0  0  0  # atno 10718 bound_to 10713
  153.3062  135.6959  153.7157 H   0  0  0  0  0  0  0  0  0  0  0  0  # atno 10763 bound_to 10752
  153.6052  135.3454  155.2960 H   0  0  0  0  0  0  0  0  0  0  0  0  # atno 10764 bound_to 10752
  154.8564  135.4350  154.2188 H   0  0  0  0  0  0  0  0  0  0  0  0  # atno 10765 bound_to 10752
  139.9397  134.9636  156.8528 H   0  0  0  0  0  0  0  0  0  0  0  0  # atno 11005 bound_to 11000
  144.8715  139.5031  143.6765 LP  0  0  0  0  0  0  0  0  0  0  0  0  # atno 17320 bound_to 7965
  146.2966  139.7298  142.9122 LP  0  0  0  0  0  0  0  0  0  0  0  0  # atno 17321 bound_to 7965
  140.1063  144.5496  150.6955 LP  0  0  0  0  0  0  0  0  0  0  0  0  # atno 17342 bound_to 10162
  140.7048  143.2460  151.4759 LP  0  0  0  0  0  0  0  0  0  0  0  0  # atno 17343 bound_to 10162
  157.4911  130.7823  149.7509 LP  0  0  0  0  0  0  0  0  0  0  0  0  # atno 17370 bound_to 10713
  155.9962  130.3907  150.2787 LP  0  0  0  0  0  0  0  0  0  0  0  0  # atno 17371 bound_to 10713
  140.5984  134.0195  155.7527 LP  0  0  0  0  0  0  0  0  0  0  0  0  # atno 17394 bound_to 11000
  141.1026  133.9744  157.3053 LP  0  0  0  0  0  0  0  0  0  0  0  0  # atno 17395 bound_to 11000

$$$$
