AV-unprocessed.smi:286|AV-procd|sdf|2173|dock3
  -GOLD-   2262021533D 1   1.00000     0.00000
 Structure written by MMmdl.
 46 48  0  0  0  0  0  0  0  0  1 V2000
  149.0314  138.6468  156.1229 O   0  0  0  0  0  0  0  0  0  0  0  0
  148.8217  138.1098  157.2120 C   0  0  0  0  0  0  0  0  0  0  0  0
  147.4860  137.7811  157.6980 C   0  0  0  0  0  0  0  0  0  0  0  0
  146.4152  138.0574  156.9345 F   0  0  0  0  0  0  0  0  0  0  0  0
  147.3034  137.2048  158.9061 C   0  0  0  0  0  0  0  0  0  0  0  0
  148.3494  136.8877  159.7578 N   0  0  0  0  0  0  0  0  0  0  0  0
  148.1204  136.2536  161.1139 C   0  0  2  0  0  0  0  0  0  0  0  0
  147.4064  134.8967  160.9645 C   0  0  0  0  0  0  0  0  0  0  0  0
  146.2372  135.0249  161.9209 C   0  0  0  0  0  0  0  0  0  0  0  0
  145.9765  136.5235  161.9013 C   0  0  0  0  0  0  0  0  0  0  0  0
  147.2885  137.0707  161.8876 O   0  0  0  0  0  0  0  0  0  0  0  0
  149.6760  137.1797  159.3728 C   0  0  0  0  0  0  0  0  0  0  0  0
  150.6207  136.9317  160.1265 O   0  0  0  0  0  0  0  0  0  0  0  0
  149.8702  137.7697  158.1015 N   0  0  0  0  0  0  0  0  0  0  0  0
  151.2321  138.0903  157.7068 C   0  0  0  0  0  0  0  0  0  0  0  0
  151.4965  139.6102  157.5990 C   0  0  2  0  0  0  0  0  0  0  0  0
  152.4608  139.8400  156.5894 O   0  0  0  0  0  0  0  0  0  0  0  0
  151.9917  140.2270  158.9303 C   0  0  0  0  0  0  0  0  0  0  0  0
  152.0270  141.7700  158.8757 C   0  0  0  0  0  0  0  0  0  0  0  0
  152.4485  142.3772  160.2235 C   0  0  0  0  0  0  0  0  0  0  0  0
  153.8032  141.8193  160.6855 C   0  0  0  0  0  0  0  0  0  0  0  0
  153.7734  140.2850  160.7545 C   0  0  0  0  0  0  0  0  0  0  0  0
  153.3548  139.6724  159.4079 C   0  0  0  0  0  0  0  0  0  0  0  0
  146.2873  136.9939  159.2020 H   0  0  0  0  0  0  0  0  0  0  0  0
  149.1044  136.1926  161.5822 H   0  0  0  0  0  0  0  0  0  0  0  0
  147.0490  134.7675  159.9417 H   0  0  0  0  0  0  0  0  0  0  0  0
  148.0763  134.0730  161.2124 H   0  0  0  0  0  0  0  0  0  0  0  0
  145.3703  134.4369  161.6185 H   0  0  0  0  0  0  0  0  0  0  0  0
  146.5340  134.7101  162.9220 H   0  0  0  0  0  0  0  0  0  0  0  0
  145.4372  136.8113  160.9979 H   0  0  0  0  0  0  0  0  0  0  0  0
  145.4082  136.8654  162.7666 H   0  0  0  0  0  0  0  0  0  0  0  0
  151.8807  137.6294  158.4539 H   0  0  0  0  0  0  0  0  0  0  0  0
  151.4688  137.5561  156.7851 H   0  0  0  0  0  0  0  0  0  0  0  0
  150.5778  140.1219  157.3096 H   0  0  0  0  0  0  0  0  0  0  0  0
  152.0988  139.5669  155.7604 H   0  0  0  0  0  0  0  0  0  0  0  0
  151.2534  139.9609  159.6885 H   0  0  0  0  0  0  0  0  0  0  0  0
  152.7204  142.1009  158.1020 H   0  0  0  0  0  0  0  0  0  0  0  0
  151.0465  142.1563  158.5954 H   0  0  0  0  0  0  0  0  0  0  0  0
  152.5034  143.4627  160.1400 H   0  0  0  0  0  0  0  0  0  0  0  0
  151.6879  142.1632  160.9751 H   0  0  0  0  0  0  0  0  0  0  0  0
  154.5854  142.1399  159.9962 H   0  0  0  0  0  0  0  0  0  0  0  0
  154.0623  142.2311  161.6613 H   0  0  0  0  0  0  0  0  0  0  0  0
  154.7538  139.9072  161.0458 H   0  0  0  0  0  0  0  0  0  0  0  0
  153.0776  139.9682  161.5322 H   0  0  0  0  0  0  0  0  0  0  0  0
  153.3102  138.5882  159.5105 H   0  0  0  0  0  0  0  0  0  0  0  0
  154.1264  139.8805  158.6659 H   0  0  0  0  0  0  0  0  0  0  0  0
  1  2  2  0  0  0  0
  2 14  1  0  0  0  0
  2  3  1  0  0  0  0
  3  4  1  0  0  0  0
  3  5  2  0  0  0  0
  5  6  1  0  0  0  0
  5 24  1  0  0  0  0
  6  7  1  0  0  0  0
  6 12  1  0  0  0  0
  7 11  1  0  0  0  0
  7  8  1  0  0  0  0
  7 25  1  0  0  0  0
  8  9  1  0  0  0  0
  8 26  1  0  0  0  0
  8 27  1  0  0  0  0
  9 10  1  0  0  0  0
  9 28  1  0  0  0  0
  9 29  1  0  0  0  0
 10 11  1  0  0  0  0
 10 30  1  0  0  0  0
 10 31  1  0  0  0  0
 12 13  2  0  0  0  0
 12 14  1  0  0  0  0
 14 15  1  0  0  0  0
 15 16  1  0  0  0  0
 15 32  1  0  0  0  0
 15 33  1  0  0  0  0
 16 17  1  0  0  0  0
 16 18  1  0  0  0  0
 16 34  1  0  0  0  0
 17 35  1  0  0  0  0
 18 23  1  0  0  0  0
 18 19  1  0  0  0  0
 18 36  1  0  0  0  0
 19 20  1  0  0  0  0
 19 37  1  0  0  0  0
 19 38  1  0  0  0  0
 20 21  1  0  0  0  0
 20 39  1  0  0  0  0
 20 40  1  0  0  0  0
 21 22  1  0  0  0  0
 21 41  1  0  0  0  0
 21 42  1  0  0  0  0
 22 23  1  0  0  0  0
 22 43  1  0  0  0  0
 22 44  1  0  0  0  0
 23 45  1  0  0  0  0
 23 46  1  0  0  0  0
M  END
> <s_m_source_file>
AV-unprocessed.smi

> <i_m_source_file_index>
286

> <i_lp_mmshare_version>
43012

> <i_f3d_flags>
0

> <s_epik_input>
TzFbQ0gyXVtDSDJdW0NIMl1bQ0BIXTFuKFtjSF1jKEYpYzI9TyljKD1PKW4yW0NIMl1bQ0BIXShbT0hdKVtDSF0zW0NIMl1bQ0gyXVtDSDJdW0NIMl1bQ0gyXTM=

> <s_epik_cmdline>
J2VwaWtfcHl0aG9uJywgJy1waCcsICc3LjAnLCAnLXRuJywgJzgnLCAnLW1hJywgJzIwMCcsICctbWV0YWxfYmluZGluZycsICctaW1hZScsICc8aW5maWxlLm1hZT4nLCAnLW9tYWUnLCAnPG91dGZpbGUubWFlPic=

> <r_lp_tautomer_probability>
1

> <r_epik_Ionization_Penalty>
3.15564e-07

> <r_epik_Ionization_Penalty_Charging>
2.06416e-08

> <r_epik_Ionization_Penalty_Neutral>
2.94923e-07

> <r_epik_State_Penalty>
-0

> <r_epik_Charging_Adjusted_Penalty>
2.06416e-08

> <i_epik_Tot_Q>
0

> <i_epik_Tot_abs_Q>
0

> <r_epik_Metal_State_Penalty>
-0

> <b_epik_Metal_Only>
0

> <s_epik_Chemistry_Notes>
This compound contains an acetal/aminal-like group ( X-CH(R)-Y where X, Y are N, S, or O) that may be acid/base labile, releasing an aldehyde.

> <s_lp_Force_Field>
OPLS_2005

> <r_lp_Energy>
41.5856

> <b_lp_Chiralities_Consistent>
1

> <s_lp_Variant>
AV-unprocessed.smi:286-1

> <Gold.Version>
5.8.1

> <Gold.Id.Protein>
6NUR|6NUR_protein|mol2

> <Gold.PLP.Fitness>
42.8227

> <Gold.PLP.PLP>
-35.3126

> <Gold.PLP.part.hbond>
-4.8688

> <Gold.PLP.part.metal>
0.0000

> <Gold.PLP.part.buried>
-3.6987

> <Gold.PLP.part.nonpolar>
-27.7474

> <Gold.PLP.part.repulsive>
0.0170

> <Gold.PLP.ligand.clash>
0.0000

> <Gold.PLP.ligand.torsion>
0.4750

> <Gold.PLP.Chemscore.Hbond>
2.8080

> <Gold.PLP.Chemscore.CHOScore>
0.0000

> <Gold.PLP.Chemscore.Metal>
0.0000

> <Gold.Chemscore.Hbonds>
donor molecule, donor type, donor heavy atom, donor atom, acceptor molecule, acceptor atom, score
      P1  H  6896  6909       L1    13  1.00
      P1  H  6931  6943       L1    11  0.04
      P1  H  6934  6947       L1    11  0.53
      P1  H  7997  8010       L1    17  1.00

> <Gold.PLP.Chemscore.Internal.Correction>
0.0361

> <Gold.Rescore>
     Score         DG    S(hbond)    S(metal)    S(lipo)     H(rot)  DE(clash)    DE(int)     intcor
     17.26     -17.81       2.86        0.00      73.65       2.28       0.00       0.55       ----

> <Gold.Chemscore.Fitness>
17.2588

> <Gold.Chemscore.DG>
-17.8130

> <Gold.Chemscore.ZeroCoef>
-5.4800

> <Gold.Chemscore.Hbond>
2.8569

> <Gold.Chemscore.Metal>
0.0000

> <Gold.Chemscore.Lipo>
73.6459

> <Gold.Chemscore.Internal_Hbond>
0.0000

> <Gold.Chemscore.DEClash>
0.0000

> <Gold.Chemscore.DEInternal>
0.5542

> <Gold.Chemscore.Rot>
2.2756

> <Gold.Chemscore.Internal.Correction>
   9.000000E+99

> <Gold.Chemscore.Hbonds>
donor molecule, donor type, donor heavy atom, donor atom, acceptor molecule, acceptor atom, score
      P1  H  6896  6909       L1    13  0.85
      P1  H  6934  6947       L1    11  0.24
      P1  H  7997  8010       L1    17  0.89

> <Gold.Chemscore.Hbond.Weighted>
-9.5419

> <Gold.Chemscore.Metal.Weighted>
-0.0000

> <Gold.Chemscore.Lipo.Weighted>
-8.6166

> <Gold.Chemscore.Internal_Hbond.Weighted>
0.0000

> <Gold.Chemscore.DEClash.Weighted>
0.0000

> <Gold.Chemscore.DEInternal.Weighted>
0.5542

> <Gold.Chemscore.Rot.Weighted>
5.8254

> <Gold.Chemscore.Internal.Correction.Weighted>
   9.000000E+99

> <Gold.Protein.RotatedTorsions>
[ 6907 6896 6895 6894 ] final  103.34 input  -60.11 | X-H torsion
[ 7974 7965 7964 7962 ] final  103.74 input  175.53 | X-H torsion
[ 8008 7997 7996 7995 ] final   53.02 input   59.86 | X-H torsion
[ 10167 10162 10161 10158 ] final   12.47 input  -65.29 | X-H torsion
[ 10718 10713 10712 10709 ] final    8.68 input   66.30 | X-H torsion
[ 10763 10752 10751 10750 ] final   62.50 input  -60.55 | X-H torsion
[ 11005 11000 10999 10996 ] final -141.86 input  -57.11 | X-H torsion

> <Gold.Protein.ActiveResidues>
 VAL166  LYS551  ARG553  GLY616  TRP617  ASP618  TYR619  PRO620  LYS621  CYS622 
 ASP623  PHE694  ASN695  SER759  ASP760  ASP761  ALA762  ILE779  LEU786  VAL792 
 PHE793  MET794  SER795  GLU796  ALA797  LYS798  CYS799  TRP800  GLU811  SER814 

> <Gold.Protein.RotatedAtoms>
  152.5298  133.9841  159.7819 H   0  0  0  0  0  0  0  0  0  0  0  0  # atno 6907 bound_to 6896
  151.0089  133.5976  159.2692 H   0  0  0  0  0  0  0  0  0  0  0  0  # atno 6908 bound_to 6896
  151.3058  135.0787  159.9308 H   0  0  0  0  0  0  0  0  0  0  0  0  # atno 6909 bound_to 6896
  145.3420  139.2460  143.3604 H   0  0  0  0  0  0  0  0  0  0  0  0  # atno 7974 bound_to 7965
  155.4614  140.3462  155.4313 H   0  0  0  0  0  0  0  0  0  0  0  0  # atno 8008 bound_to 7997
  156.1158  140.1473  156.9303 H   0  0  0  0  0  0  0  0  0  0  0  0  # atno 8009 bound_to 7997
  154.4788  140.0876  156.7307 H   0  0  0  0  0  0  0  0  0  0  0  0  # atno 8010 bound_to 7997
  140.6065  143.8496  150.7020 H   0  0  0  0  0  0  0  0  0  0  0  0  # atno 10167 bound_to 10162
  156.9552  130.5912  149.5659 H   0  0  0  0  0  0  0  0  0  0  0  0  # atno 10718 bound_to 10713
  152.9985  135.5463  154.6203 H   0  0  0  0  0  0  0  0  0  0  0  0  # atno 10763 bound_to 10752
  154.5504  135.2826  155.1016 H   0  0  0  0  0  0  0  0  0  0  0  0  # atno 10764 bound_to 10752
  154.2258  135.6442  153.5212 H   0  0  0  0  0  0  0  0  0  0  0  0  # atno 10765 bound_to 10752
  140.8282  134.2549  157.4869 H   0  0  0  0  0  0  0  0  0  0  0  0  # atno 11005 bound_to 11000
  146.3003  140.4019  142.8706 LP  0  0  0  0  0  0  0  0  0  0  0  0  # atno 17320 bound_to 7965
  144.8783  140.7366  143.6003 LP  0  0  0  0  0  0  0  0  0  0  0  0  # atno 17321 bound_to 7965
  140.2054  143.3925  152.1759 LP  0  0  0  0  0  0  0  0  0  0  0  0  # atno 17342 bound_to 10162
  139.5329  144.7179  151.4993 LP  0  0  0  0  0  0  0  0  0  0  0  0  # atno 17343 bound_to 10162
  156.0345  130.5434  150.8620 LP  0  0  0  0  0  0  0  0  0  0  0  0  # atno 17370 bound_to 10713
  157.5695  131.0946  150.9439 LP  0  0  0  0  0  0  0  0  0  0  0  0  # atno 17371 bound_to 10713
  139.8706  134.9572  156.4261 LP  0  0  0  0  0  0  0  0  0  0  0  0  # atno 17394 bound_to 11000
  140.9026  133.7768  155.9698 LP  0  0  0  0  0  0  0  0  0  0  0  0  # atno 17395 bound_to 11000

$$$$
