AV-unprocessed.smi:1726|AV-procd|sdf|6962|dock1
  -GOLD-   22720 8173D 1   1.00000     0.00000
 Structure written by MMmdl.
 42 43  0  0  0  0  0  0  0  0  3 V2000
  143.3839  137.1261  153.0833 C   0  0  0  0  0  0  0  0  0  0  0  0
  144.8784  137.3430  152.8038 C   0  0  0  0  0  0  0  0  0  0  0  0
  145.3654  138.6434  153.3273 N   0  3  2  0  0  0  0  0  0  0  0  0
  146.7249  138.9840  152.8331 C   0  0  0  0  0  0  0  0  0  0  0  0
  147.1333  140.4042  153.2627 C   0  0  0  0  0  0  0  0  0  0  0  0
  147.0176  140.5877  154.7857 C   0  0  0  0  0  0  0  0  0  0  0  0
  145.6214  140.1765  155.2869 C   0  0  1  0  0  0  0  0  0  0  0  0
  144.6223  141.1412  154.8256 N   0  0  0  0  0  0  0  0  0  0  0  0
  144.3653  142.3271  155.3964 C   0  0  0  0  0  0  0  0  0  0  0  0
  144.9657  142.7372  156.3889 O   0  0  0  0  0  0  0  0  0  0  0  0
  143.3864  142.9722  154.7372 N   0  0  0  0  0  0  0  0  0  0  0  0
  142.7742  144.2057  155.0200 C   0  0  0  0  0  0  0  0  0  0  0  0
  141.4390  144.4584  154.9207 C   0  0  0  0  0  0  0  0  0  0  0  0
  140.8704  145.7677  155.2170 C   0  0  0  0  0  0  0  0  0  0  0  0
  139.3912  146.0986  155.1349 C   0  0  0  0  0  0  0  0  0  0  0  0
  138.9365  145.8727  153.9027 F   0  0  0  0  0  0  0  0  0  0  0  0
  138.7000  145.3306  155.9765 F   0  0  0  0  0  0  0  0  0  0  0  0
  139.1587  147.3748  155.4422 F   0  0  0  0  0  0  0  0  0  0  0  0
  141.8310  146.6872  155.5871 C   0  0  0  0  0  0  0  0  0  0  0  0
  143.1671  146.5225  155.6998 N   0  5  0  0  0  0  0  0  0  0  0  0
  143.6886  145.2939  155.4252 C   0  0  0  0  0  0  0  0  0  0  0  0
  144.8980  145.0751  155.5054 O   0  0  0  0  0  0  0  0  0  0  0  0
  145.2967  138.7435  154.8093 C   0  0  0  0  0  0  0  0  0  0  0  0
  143.0383  136.2005  152.6225 H   0  0  0  0  0  0  0  0  0  0  0  0
  142.7849  137.9408  152.6750 H   0  0  0  0  0  0  0  0  0  0  0  0
  143.1698  137.0547  154.1492 H   0  0  0  0  0  0  0  0  0  0  0  0
  145.4724  136.5256  153.2147 H   0  0  0  0  0  0  0  0  0  0  0  0
  145.0195  137.3137  151.7227 H   0  0  0  0  0  0  0  0  0  0  0  0
  147.4434  138.2544  153.2105 H   0  0  0  0  0  0  0  0  0  0  0  0
  146.7508  138.9203  151.7445 H   0  0  0  0  0  0  0  0  0  0  0  0
  148.1548  140.6098  152.9414 H   0  0  0  0  0  0  0  0  0  0  0  0
  146.5014  141.1335  152.7545 H   0  0  0  0  0  0  0  0  0  0  0  0
  147.7728  139.9747  155.2795 H   0  0  0  0  0  0  0  0  0  0  0  0
  147.2350  141.6207  155.0605 H   0  0  0  0  0  0  0  0  0  0  0  0
  145.6292  140.1950  156.3781 H   0  0  0  0  0  0  0  0  0  0  0  0
  144.0932  140.8904  154.0029 H   0  0  0  0  0  0  0  0  0  0  0  0
  143.0385  142.5254  153.9013 H   0  0  0  0  0  0  0  0  0  0  0  0
  140.7524  143.6931  154.6015 H   0  0  0  0  0  0  0  0  0  0  0  0
  141.4682  147.7091  155.8290 H   0  0  0  0  0  0  0  0  0  0  0  0
  144.3104  138.4507  155.1662 H   0  0  0  0  0  0  0  0  0  0  0  0
  145.9994  138.0356  155.2522 H   0  0  0  0  0  0  0  0  0  0  0  0
  144.7447  139.3486  152.9563 H   0  0  0  0  0  0  0  0  0  0  0  0
  1  2  1  0  0  0  0
  1 24  1  0  0  0  0
  1 25  1  0  0  0  0
  1 26  1  0  0  0  0
  2  3  1  0  0  0  0
  2 27  1  0  0  0  0
  2 28  1  0  0  0  0
  3 23  1  0  0  0  0
  3  4  1  0  0  0  0
  3 42  1  0  0  0  0
  4  5  1  0  0  0  0
  4 29  1  0  0  0  0
  4 30  1  0  0  0  0
  5  6  1  0  0  0  0
  5 31  1  0  0  0  0
  5 32  1  0  0  0  0
  6  7  1  0  0  0  0
  6 33  1  0  0  0  0
  6 34  1  0  0  0  0
  7  8  1  0  0  0  0
  7 23  1  0  0  0  0
  7 35  1  0  0  0  0
  8  9  1  0  0  0  0
  8 36  1  0  0  0  0
  9 10  2  0  0  0  0
  9 11  1  0  0  0  0
 11 12  1  0  0  0  0
 11 37  1  0  0  0  0
 12 21  1  0  0  0  0
 12 13  2  0  0  0  0
 13 14  1  0  0  0  0
 13 38  1  0  0  0  0
 14 15  1  0  0  0  0
 14 19  2  0  0  0  0
 15 16  1  0  0  0  0
 15 17  1  0  0  0  0
 15 18  1  0  0  0  0
 19 20  1  0  0  0  0
 19 39  1  0  0  0  0
 20 21  1  0  0  0  0
 21 22  2  0  0  0  0
 23 40  1  0  0  0  0
 23 41  1  0  0  0  0
M  CHG  1   3   1
M  CHG  1  20  -1
M  END
> <s_m_source_file>
AV-unprocessed.smi

> <i_m_source_file_index>
1726

> <i_lp_mmshare_version>
43012

> <i_f3d_flags>
0

> <s_epik_input>
W0NIM11bQ0gyXU4xW0NIMl1bQ0gyXVtDSDJdW0NASF0oW0NIMl0xKVtOSF1DKD1PKVtOSF1jMltjSF1jKEMoRikoRilGKVtjSF1bbkhdYzI9Tw==

> <s_epik_cmdline>
J2VwaWtfcHl0aG9uJywgJy1waCcsICc3LjAnLCAnLXRuJywgJzgnLCAnLW1hJywgJzIwMCcsICctbWV0YWxfYmluZGluZycsICctaW1hZScsICc8aW5maWxlLm1hZT4nLCAnLW9tYWUnLCAnPG91dGZpbGUubWFlPic=

> <r_lp_tautomer_probability>
1

> <r_epik_Ionization_Penalty>
3.01007

> <r_epik_Ionization_Penalty_Charging>
0.14897

> <r_epik_Ionization_Penalty_Neutral>
2.8611

> <r_epik_State_Penalty>
2.85632

> <r_epik_Charging_Adjusted_Penalty>
3.00529

> <i_epik_Tot_Q>
0

> <i_epik_Tot_abs_Q>
2

> <r_epik_Metal_State_Penalty>
0.443826

> <b_epik_Metal_Only>
1

> <s_lp_Force_Field>
OPLS_2005

> <r_lp_Energy>
34.8935

> <b_lp_Chiralities_Consistent>
1

> <s_lp_Variant>
AV-unprocessed.smi:1726-6

> <Gold.Version>
5.8.1

> <Gold.Id.Protein>
6NUR|6NUR_protein|mol2

> <Gold.PLP.Fitness>
37.7498

> <Gold.PLP.PLP>
-27.0610

> <Gold.PLP.part.hbond>
-3.0445

> <Gold.PLP.part.metal>
0.0000

> <Gold.PLP.part.buried>
0.8136

> <Gold.PLP.part.nonpolar>
-24.8529

> <Gold.PLP.part.repulsive>
0.2245

> <Gold.PLP.ligand.clash>
0.0000

> <Gold.PLP.ligand.torsion>
0.6892

> <Gold.PLP.Chemscore.Hbond>
4.0000

> <Gold.PLP.Chemscore.CHOScore>
0.0000

> <Gold.PLP.Chemscore.Metal>
0.0000

> <Gold.Chemscore.Hbonds>
donor molecule, donor type, donor heavy atom, donor atom, acceptor molecule, acceptor atom, score
      L1  H     3    42       P1 10175  2.00
      L1  H     8    36       P1 10175  1.00
      L1  H    11    37       P1 10174  1.00

> <Gold.PLP.Chemscore.Internal.Correction>
0.0672

> <Gold.Rescore>
     Score         DG    S(hbond)    S(metal)    S(lipo)     H(rot)  DE(clash)    DE(int)     intcor
     10.54     -16.25       2.19        0.00      57.56       1.28       1.53       4.17       ----

> <Gold.Chemscore.Fitness>
10.5446

> <Gold.Chemscore.DG>
-16.2506

> <Gold.Chemscore.ZeroCoef>
-5.4800

> <Gold.Chemscore.Hbond>
2.1892

> <Gold.Chemscore.Metal>
0.0000

> <Gold.Chemscore.Lipo>
57.5588

> <Gold.Chemscore.Internal_Hbond>
0.0000

> <Gold.Chemscore.DEClash>
1.5311

> <Gold.Chemscore.DEInternal>
4.1750

> <Gold.Chemscore.Rot>
1.2796

> <Gold.Chemscore.Internal.Correction>
   9.000000E+99

> <Gold.Chemscore.Hbonds>
donor molecule, donor type, donor heavy atom, donor atom, acceptor molecule, acceptor atom, score
      L1  H     3    42       P1 10175  0.99
      L1  H     8    36       P1 10175  0.89
      L1  H    11    37       P1 10174  0.29

> <Gold.Chemscore.Hbond.Weighted>
-7.3121

> <Gold.Chemscore.Metal.Weighted>
-0.0000

> <Gold.Chemscore.Lipo.Weighted>
-6.7344

> <Gold.Chemscore.Internal_Hbond.Weighted>
0.0000

> <Gold.Chemscore.DEClash.Weighted>
1.5311

> <Gold.Chemscore.DEInternal.Weighted>
4.1750

> <Gold.Chemscore.Rot.Weighted>
3.2759

> <Gold.Chemscore.Internal.Correction.Weighted>
   9.000000E+99

> <Gold.Protein.RotatedTorsions>
[ 6907 6896 6895 6894 ] final   57.58 input  -60.11 | X-H torsion
[ 7974 7965 7964 7962 ] final -144.23 input  175.53 | X-H torsion
[ 8008 7997 7996 7995 ] final   32.41 input   59.86 | X-H torsion
[ 10167 10162 10161 10158 ] final   25.99 input  -65.29 | X-H torsion
[ 10718 10713 10712 10709 ] final  -45.96 input   66.30 | X-H torsion
[ 10763 10752 10751 10750 ] final -146.12 input  -60.55 | X-H torsion
[ 11005 11000 10999 10996 ] final  168.03 input  -57.11 | X-H torsion

> <Gold.Protein.ActiveResidues>
 VAL166  LYS551  ARG553  GLY616  TRP617  ASP618  TYR619  PRO620  LYS621  CYS622 
 ASP623  PHE694  ASN695  SER759  ASP760  ASP761  ALA762  ILE779  LEU786  VAL792 
 PHE793  MET794  SER795  GLU796  ALA797  LYS798  CYS799  TRP800  GLU811  SER814 

> <Gold.Protein.RotatedAtoms>
  152.3745  134.6684  160.0164 H   0  0  0  0  0  0  0  0  0  0  0  0  # atno 6907 bound_to 6896
  151.6967  133.3305  159.3264 H   0  0  0  0  0  0  0  0  0  0  0  0  # atno 6908 bound_to 6896
  150.7699  134.6587  159.6372 H   0  0  0  0  0  0  0  0  0  0  0  0  # atno 6909 bound_to 6896
  144.8312  140.5736  143.5513 H   0  0  0  0  0  0  0  0  0  0  0  0  # atno 7974 bound_to 7965
  155.1221  140.3249  155.4495 H   0  0  0  0  0  0  0  0  0  0  0  0  # atno 8008 bound_to 7997
  156.2660  140.2025  156.6291 H   0  0  0  0  0  0  0  0  0  0  0  0  # atno 8009 bound_to 7997
  154.6676  140.0540  157.0117 H   0  0  0  0  0  0  0  0  0  0  0  0  # atno 8010 bound_to 7997
  140.5060  144.0238  150.6352 H   0  0  0  0  0  0  0  0  0  0  0  0  # atno 10167 bound_to 10162
  156.2231  130.4167  149.8968 H   0  0  0  0  0  0  0  0  0  0  0  0  # atno 10718 bound_to 10713
  154.8351  135.3395  154.6611 H   0  0  0  0  0  0  0  0  0  0  0  0  # atno 10763 bound_to 10752
  153.7227  135.6957  153.5013 H   0  0  0  0  0  0  0  0  0  0  0  0  # atno 10764 bound_to 10752
  153.2370  135.4397  155.0609 H   0  0  0  0  0  0  0  0  0  0  0  0  # atno 10765 bound_to 10752
  140.2830  134.7735  157.3774 H   0  0  0  0  0  0  0  0  0  0  0  0  # atno 11005 bound_to 11000
  145.4891  139.1490  143.3720 LP  0  0  0  0  0  0  0  0  0  0  0  0  # atno 17320 bound_to 7965
  146.2615  140.5028  142.8851 LP  0  0  0  0  0  0  0  0  0  0  0  0  # atno 17321 bound_to 7965
  140.3547  143.2942  152.0449 LP  0  0  0  0  0  0  0  0  0  0  0  0  # atno 17342 bound_to 10162
  139.4884  144.6348  151.6998 LP  0  0  0  0  0  0  0  0  0  0  0  0  # atno 17343 bound_to 10162
  156.6608  130.8781  151.3547 LP  0  0  0  0  0  0  0  0  0  0  0  0  # atno 17370 bound_to 10713
  157.7097  130.9426  150.1048 LP  0  0  0  0  0  0  0  0  0  0  0  0  # atno 17371 bound_to 10713
  140.1265  134.5150  155.8140 LP  0  0  0  0  0  0  0  0  0  0  0  0  # atno 17394 bound_to 11000
  141.2159  133.6775  156.6962 LP  0  0  0  0  0  0  0  0  0  0  0  0  # atno 17395 bound_to 11000

$$$$
