AV-unprocessed.smi:160|AV-procd|sdf|1360|dock7
  -GOLD-   2262019 73D 1   1.00000     0.00000
 Structure written by MMmdl.
 28 29  0  0  0  0  0  0  0  0  2 V2000
  152.3041  137.4006  153.9055 N   0  5  0  0  0  0  0  0  0  0  0  0
  152.9846  138.1907  154.7640 C   0  0  0  0  0  0  0  0  0  0  0  0
  154.1736  138.0853  155.0631 O   0  0  0  0  0  0  0  0  0  0  0  0
  152.1620  139.2922  155.3894 C   0  0  0  0  0  0  0  0  0  0  0  0
  152.4555  139.7541  156.6432 N   0  0  0  0  0  0  0  0  0  0  0  0
  151.5057  140.6720  156.7592 C   0  0  0  0  0  0  0  0  0  0  0  0
  150.7022  140.7678  155.6963 N   0  0  0  0  0  0  0  0  0  0  0  0
  149.5316  141.6753  155.4612 C   0  0  1  0  0  0  0  0  0  0  0  0
  149.0903  141.4969  154.1478 O   0  0  0  0  0  0  0  0  0  0  0  0
  147.8999  140.7152  154.1408 C   0  0  2  0  0  0  0  0  0  0  0  0
  147.1204  140.9641  152.8402 C   0  0  0  0  0  0  0  0  0  0  0  0
  147.0142  139.7672  152.0996 O   0  0  0  0  0  0  0  0  0  0  0  0
  147.1894  141.2392  155.3902 C   0  0  1  0  0  0  0  0  0  0  0  0
  146.1509  140.3859  155.8350 O   0  0  0  0  0  0  0  0  0  0  0  0
  148.3296  141.3937  156.3953 C   0  0  1  0  0  0  0  0  0  0  0  0
  148.4851  140.2533  157.2267 O   0  0  0  0  0  0  0  0  0  0  0  0
  151.1236  139.8666  154.7741 N   0  0  0  0  0  0  0  0  0  0  0  0
  149.9409  142.6793  155.5778 H   0  0  0  0  0  0  0  0  0  0  0  0
  148.1397  139.6571  154.2641 H   0  0  0  0  0  0  0  0  0  0  0  0
  146.7687  142.2238  155.1798 H   0  0  0  0  0  0  0  0  0  0  0  0
  148.1655  142.2592  157.0377 H   0  0  0  0  0  0  0  0  0  0  0  0
  151.3277  137.6380  153.6926 H   0  0  0  0  0  0  0  0  0  0  0  0
  151.3909  141.2855  157.6405 H   0  0  0  0  0  0  0  0  0  0  0  0
  146.1075  141.2967  153.0682 H   0  0  0  0  0  0  0  0  0  0  0  0
  147.5894  141.7430  152.2386 H   0  0  0  0  0  0  0  0  0  0  0  0
  147.8201  139.6338  151.6254 H   0  0  0  0  0  0  0  0  0  0  0  0
  145.4668  140.9178  156.2111 H   0  0  0  0  0  0  0  0  0  0  0  0
  149.2972  139.8246  157.0050 H   0  0  0  0  0  0  0  0  0  0  0  0
  1  2  1  0  0  0  0
  1 22  1  0  0  0  0
  2  3  2  0  0  0  0
  2  4  1  0  0  0  0
  4 17  2  0  0  0  0
  4  5  1  0  0  0  0
  5  6  2  0  0  0  0
  6  7  1  0  0  0  0
  6 23  1  0  0  0  0
  7  8  1  0  0  0  0
  7 17  1  0  0  0  0
  8 18  1  0  0  0  0
  8 15  1  0  0  0  0
  8  9  1  0  0  0  0
  9 10  1  0  0  0  0
 10 19  1  0  0  0  0
 10 11  1  0  0  0  0
 10 13  1  0  0  0  0
 11 12  1  0  0  0  0
 11 24  1  0  0  0  0
 11 25  1  0  0  0  0
 12 26  1  0  0  0  0
 13 20  1  0  0  0  0
 13 14  1  0  0  0  0
 13 15  1  0  0  0  0
 14 27  1  0  0  0  0
 15 21  1  0  0  0  0
 15 16  1  0  0  0  0
 16 28  1  0  0  0  0
M  CHG  1   1  -1
M  END
> <s_m_source_file>
AV-unprocessed.smi

> <i_m_source_file_index>
160

> <i_lp_mmshare_version>
43012

> <i_f3d_flags>
0

> <s_epik_input>
W05IMl1DKD1PKWMxbltjSF1uKG4xKVtDQEBIXTJPW0NASF0oW0NIMl1bT0hdKVtDQEBIXShbT0hdKVtDQEhdMltPSF0=

> <s_epik_cmdline>
J2VwaWtfcHl0aG9uJywgJy1waCcsICc3LjAnLCAnLXRuJywgJzgnLCAnLW1hJywgJzIwMCcsICctbWV0YWxfYmluZGluZycsICctaW1hZScsICc8aW5maWxlLm1hZT4nLCAnLW9tYWUnLCAnPG91dGZpbGUubWFlPic=

> <r_lp_tautomer_probability>
1

> <r_epik_Ionization_Penalty>
6.6993

> <r_epik_Ionization_Penalty_Charging>
6.6993

> <r_epik_Ionization_Penalty_Neutral>
6.01698e-06

> <r_epik_State_Penalty>
6.69929

> <r_epik_Charging_Adjusted_Penalty>
13.3986

> <i_epik_Tot_Q>
-1

> <i_epik_Tot_abs_Q>
1

> <r_epik_Metal_State_Penalty>
2.62798

> <b_epik_Metal_Only>
1

> <s_epik_Chemistry_Notes>
This compound contains an acetal/aminal-like group ( X-CH(R)-Y where X, Y are N, S, or O) that may be acid/base labile, releasing an aldehyde.

> <s_lp_Force_Field>
OPLS_2005

> <r_lp_Energy>
50.1609

> <b_lp_Chiralities_Consistent>
1

> <s_lp_Variant>
AV-unprocessed.smi:160-18

> <Gold.Version>
5.8.1

> <Gold.Id.Protein>
6NUR|6NUR_protein|mol2

> <Gold.PLP.Fitness>
43.4874

> <Gold.PLP.PLP>
-29.8306

> <Gold.PLP.part.hbond>
-8.5252

> <Gold.PLP.part.metal>
0.0000

> <Gold.PLP.part.buried>
-1.7437

> <Gold.PLP.part.nonpolar>
-18.2951

> <Gold.PLP.part.repulsive>
0.2563

> <Gold.PLP.ligand.clash>
0.0000

> <Gold.PLP.ligand.torsion>
1.1711

> <Gold.PLP.Chemscore.Hbond>
5.3278

> <Gold.PLP.Chemscore.CHOScore>
0.0000

> <Gold.PLP.Chemscore.Metal>
0.0000

> <Gold.Chemscore.Hbonds>
donor molecule, donor type, donor heavy atom, donor atom, acceptor molecule, acceptor atom, score
      L1  H    12    26       P1  7957  1.00
      P1  H  7989  7998       L1    17  1.00
      P1  H  7997  8009       L1     5  0.95
      P1  H  8011  8017       L1     9  0.46
      P1  H 10752 10764       L1     1  1.70

> <Gold.PLP.Chemscore.Internal.Correction>
0.0155

> <Gold.Rescore>
     Score         DG    S(hbond)    S(metal)    S(lipo)     H(rot)  DE(clash)    DE(int)     intcor
      6.15      -8.01       3.03        0.00      23.61       4.04       0.62       1.24       ----

> <Gold.Chemscore.Fitness>
6.1488

> <Gold.Chemscore.DG>
-8.0113

> <Gold.Chemscore.ZeroCoef>
-5.4800

> <Gold.Chemscore.Hbond>
3.0275

> <Gold.Chemscore.Metal>
0.0000

> <Gold.Chemscore.Lipo>
23.6114

> <Gold.Chemscore.Internal_Hbond>
0.0000

> <Gold.Chemscore.DEClash>
0.6184

> <Gold.Chemscore.DEInternal>
1.2440

> <Gold.Chemscore.Rot>
4.0403

> <Gold.Chemscore.Internal.Correction>
   9.000000E+99

> <Gold.Chemscore.Hbonds>
donor molecule, donor type, donor heavy atom, donor atom, acceptor molecule, acceptor atom, score
      L1  H    12    26       P1  7957  0.98
      P1  H  7989  7998       L1    17  0.27
      P1  H  7997  8009       L1     5  0.21
      P1  H  8011  8017       L1     9  0.46
      P1  H 10752 10764       L1     1  0.54

> <Gold.Chemscore.Hbond.Weighted>
-10.1118

> <Gold.Chemscore.Metal.Weighted>
-0.0000

> <Gold.Chemscore.Lipo.Weighted>
-2.7625

> <Gold.Chemscore.Internal_Hbond.Weighted>
0.0000

> <Gold.Chemscore.DEClash.Weighted>
0.6184

> <Gold.Chemscore.DEInternal.Weighted>
1.2440

> <Gold.Chemscore.Rot.Weighted>
10.3431

> <Gold.Chemscore.Internal.Correction.Weighted>
   9.000000E+99

> <Gold.Protein.RotatedTorsions>
[ 6907 6896 6895 6894 ] final  -97.30 input  -60.11 | X-H torsion
[ 7974 7965 7964 7962 ] final   22.41 input  175.53 | X-H torsion
[ 8008 7997 7996 7995 ] final -164.68 input   59.86 | X-H torsion
[ 10167 10162 10161 10158 ] final   24.46 input  -65.29 | X-H torsion
[ 10718 10713 10712 10709 ] final  150.02 input   66.30 | X-H torsion
[ 10763 10752 10751 10750 ] final  -99.24 input  -60.55 | X-H torsion
[ 11005 11000 10999 10996 ] final -100.50 input  -57.11 | X-H torsion

> <Gold.Protein.ActiveResidues>
 VAL166  LYS551  ARG553  GLY616  TRP617  ASP618  TYR619  PRO620  LYS621  CYS622 
 ASP623  PHE694  ASN695  SER759  ASP760  ASP761  ALA762  ILE779  LEU786  VAL792 
 PHE793  MET794  SER795  GLU796  ALA797  LYS798  CYS799  TRP800  GLU811  SER814 

> <Gold.Protein.RotatedAtoms>
  150.7012  134.1370  159.4090 H   0  0  0  0  0  0  0  0  0  0  0  0  # atno 6907 bound_to 6896
  151.9355  135.0235  160.0541 H   0  0  0  0  0  0  0  0  0  0  0  0  # atno 6908 bound_to 6896
  152.2139  133.4896  159.5162 H   0  0  0  0  0  0  0  0  0  0  0  0  # atno 6909 bound_to 6896
  146.2030  139.7889  142.8747 H   0  0  0  0  0  0  0  0  0  0  0  0  # atno 7974 bound_to 7965
  155.8390  140.0945  157.1746 H   0  0  0  0  0  0  0  0  0  0  0  0  # atno 8008 bound_to 7997
  154.3981  140.1404  156.3767 H   0  0  0  0  0  0  0  0  0  0  0  0  # atno 8009 bound_to 7997
  155.8084  140.3450  155.5446 H   0  0  0  0  0  0  0  0  0  0  0  0  # atno 8010 bound_to 7997
  140.5186  144.0040  150.6406 H   0  0  0  0  0  0  0  0  0  0  0  0  # atno 10167 bound_to 10162
  157.2888  131.0849  151.1477 H   0  0  0  0  0  0  0  0  0  0  0  0  # atno 10718 bound_to 10713
  154.7482  135.4979  153.9241 H   0  0  0  0  0  0  0  0  0  0  0  0  # atno 10763 bound_to 10752
  153.1114  135.6710  153.9501 H   0  0  0  0  0  0  0  0  0  0  0  0  # atno 10764 bound_to 10752
  153.9259  135.3083  155.3426 H   0  0  0  0  0  0  0  0  0  0  0  0  # atno 10765 bound_to 10752
  141.1268  133.8404  157.1110 H   0  0  0  0  0  0  0  0  0  0  0  0  # atno 11005 bound_to 11000
  145.3419  141.0289  143.3388 LP  0  0  0  0  0  0  0  0  0  0  0  0  # atno 17320 bound_to 7965
  144.8726  139.5016  143.6760 LP  0  0  0  0  0  0  0  0  0  0  0  0  # atno 17321 bound_to 7965
  140.3383  143.3035  152.0615 LP  0  0  0  0  0  0  0  0  0  0  0  0  # atno 17342 bound_to 10162
  139.4917  144.6461  151.6776 LP  0  0  0  0  0  0  0  0  0  0  0  0  # atno 17343 bound_to 10162
  157.2882  130.6783  149.6100 LP  0  0  0  0  0  0  0  0  0  0  0  0  # atno 17370 bound_to 10713
  155.9666  130.4429  150.5399 LP  0  0  0  0  0  0  0  0  0  0  0  0  # atno 17371 bound_to 10713
  140.0275  134.9917  157.0714 LP  0  0  0  0  0  0  0  0  0  0  0  0  # atno 17394 bound_to 11000
  140.4339  134.1751  155.7169 LP  0  0  0  0  0  0  0  0  0  0  0  0  # atno 17395 bound_to 11000

$$$$
