AV-unprocessed.smi:2849|AV-procd|sdf|10962|dock6
  -GOLD-   2272015413D 1   1.00000     0.00000
 Structure written by MMmdl.
 56 59  0  0  0  0  0  0  0  0  3 V2000
  147.6819  133.2315  152.0982 C   0  0  0  0  0  0  0  0  0  0  0  0
  147.8432  132.7639  153.4956 N   0  3  2  0  0  0  0  0  0  0  0  0
  146.9646  133.4351  154.4845 C   0  0  1  0  0  0  0  0  0  0  0  0
  146.9128  132.5783  155.7714 C   0  0  0  0  0  0  0  0  0  0  0  0
  148.3012  132.2260  156.3446 C   0  0  0  0  0  0  0  0  0  0  0  0
  149.3137  131.8435  155.2454 C   0  0  0  0  0  0  0  0  0  0  0  0
  149.2420  132.7415  153.9880 C   0  0  2  0  0  0  0  0  0  0  0  0
  149.7949  134.1768  154.1797 C   0  0  0  0  0  0  0  0  0  0  0  0
  148.8875  135.1111  155.0136 C   0  0  1  0  0  0  0  0  0  0  0  0
  149.2524  136.5027  154.7496 N   0  0  0  0  0  0  0  0  0  0  0  0
  149.4265  137.4599  155.6733 C   0  0  0  0  0  0  0  0  0  0  0  0
  149.2964  137.2739  156.8829 O   0  0  0  0  0  0  0  0  0  0  0  0
  149.7346  138.6365  155.1010 N   0  0  0  0  0  0  0  0  0  0  0  0
  150.0554  139.8674  155.7348 C   0  0  0  0  0  0  0  0  0  0  0  0
  150.8027  139.8189  156.9314 C   0  0  0  0  0  0  0  0  0  0  0  0
  151.1225  141.0150  157.6056 C   0  0  0  0  0  0  0  0  0  0  0  0
  150.6769  142.2494  157.0785 C   0  0  0  0  0  0  0  0  0  0  0  0
  150.9414  143.4929  157.6697 N   0  0  0  0  0  0  0  0  0  0  0  0
  150.5330  143.6254  159.0586 C   0  0  0  0  0  0  0  0  0  0  0  0
  151.2820  144.8500  159.5892 C   0  0  0  0  0  0  0  0  0  0  0  0
  152.4893  145.0074  158.6573 C   0  0  0  0  0  0  0  0  0  0  0  0
  152.3377  143.8915  157.6194 C   0  0  0  0  0  0  0  0  0  0  0  0
  149.9576  142.2535  155.9352 N   0  3  0  0  0  0  0  0  0  0  0  0
  149.6325  141.1318  155.2566 C   0  0  0  0  0  0  0  0  0  0  0  0
  147.3863  134.9097  154.7029 C   0  0  0  0  0  0  0  0  0  0  0  0
  147.9807  134.2718  151.9725 H   0  0  0  0  0  0  0  0  0  0  0  0
  146.6420  133.1386  151.7841 H   0  0  0  0  0  0  0  0  0  0  0  0
  148.2848  132.6234  151.4231 H   0  0  0  0  0  0  0  0  0  0  0  0
  145.9517  133.4441  154.0787 H   0  0  0  0  0  0  0  0  0  0  0  0
  146.3077  133.0706  156.5335 H   0  0  0  0  0  0  0  0  0  0  0  0
  146.3956  131.6467  155.5383 H   0  0  0  0  0  0  0  0  0  0  0  0
  148.6842  133.0468  156.9448 H   0  0  0  0  0  0  0  0  0  0  0  0
  148.2025  131.3997  157.0493 H   0  0  0  0  0  0  0  0  0  0  0  0
  150.3250  131.8373  155.6536 H   0  0  0  0  0  0  0  0  0  0  0  0
  149.1109  130.8160  154.9406 H   0  0  0  0  0  0  0  0  0  0  0  0
  149.8557  132.2564  153.2275 H   0  0  0  0  0  0  0  0  0  0  0  0
  150.7897  134.1360  154.6249 H   0  0  0  0  0  0  0  0  0  0  0  0
  149.9420  134.6155  153.1921 H   0  0  0  0  0  0  0  0  0  0  0  0
  149.0559  134.8977  156.0657 H   0  0  0  0  0  0  0  0  0  0  0  0
  149.3764  136.7591  153.7809 H   0  0  0  0  0  0  0  0  0  0  0  0
  149.7087  138.6616  154.0922 H   0  0  0  0  0  0  0  0  0  0  0  0
  151.1362  138.8723  157.3313 H   0  0  0  0  0  0  0  0  0  0  0  0
  151.7048  140.9775  158.5148 H   0  0  0  0  0  0  0  0  0  0  0  0
  149.4530  143.7529  159.1386 H   0  0  0  0  0  0  0  0  0  0  0  0
  150.8102  142.7410  159.6331 H   0  0  0  0  0  0  0  0  0  0  0  0
  150.6495  145.7365  159.5276 H   0  0  0  0  0  0  0  0  0  0  0  0
  151.5744  144.7232  160.6320 H   0  0  0  0  0  0  0  0  0  0  0  0
  152.4617  145.9848  158.1742 H   0  0  0  0  0  0  0  0  0  0  0  0
  153.4368  144.9278  159.1910 H   0  0  0  0  0  0  0  0  0  0  0  0
  152.9840  143.0501  157.8737 H   0  0  0  0  0  0  0  0  0  0  0  0
  152.6101  144.2347  156.6208 H   0  0  0  0  0  0  0  0  0  0  0  0
  149.0370  141.2948  154.3710 H   0  0  0  0  0  0  0  0  0  0  0  0
  147.1343  135.4684  153.8005 H   0  0  0  0  0  0  0  0  0  0  0  0
  146.7828  135.3569  155.4938 H   0  0  0  0  0  0  0  0  0  0  0  0
  147.5452  131.7988  153.4786 H   0  0  0  0  0  0  0  0  0  0  0  0
  149.6387  143.1499  155.5667 H   0  0  0  0  0  0  0  0  0  0  0  0
  1  2  1  0  0  0  0
  1 26  1  0  0  0  0
  1 27  1  0  0  0  0
  1 28  1  0  0  0  0
  2  7  1  0  0  0  0
  2  3  1  0  0  0  0
  2 55  1  0  0  0  0
  3 25  1  0  0  0  0
  3  4  1  0  0  0  0
  3 29  1  0  0  0  0
  4  5  1  0  0  0  0
  4 30  1  0  0  0  0
  4 31  1  0  0  0  0
  5  6  1  0  0  0  0
  5 32  1  0  0  0  0
  5 33  1  0  0  0  0
  6  7  1  0  0  0  0
  6 34  1  0  0  0  0
  6 35  1  0  0  0  0
  7  8  1  0  0  0  0
  7 36  1  0  0  0  0
  8  9  1  0  0  0  0
  8 37  1  0  0  0  0
  8 38  1  0  0  0  0
  9 10  1  0  0  0  0
  9 25  1  0  0  0  0
  9 39  1  0  0  0  0
 10 11  1  0  0  0  0
 10 40  1  0  0  0  0
 11 12  2  0  0  0  0
 11 13  1  0  0  0  0
 13 14  1  0  0  0  0
 13 41  1  0  0  0  0
 14 24  1  0  0  0  0
 14 15  2  0  0  0  0
 15 16  1  0  0  0  0
 15 42  1  0  0  0  0
 16 17  2  0  0  0  0
 16 43  1  0  0  0  0
 17 18  1  0  0  0  0
 17 23  1  0  0  0  0
 18 22  1  0  0  0  0
 18 19  1  0  0  0  0
 19 20  1  0  0  0  0
 19 44  1  0  0  0  0
 19 45  1  0  0  0  0
 20 21  1  0  0  0  0
 20 46  1  0  0  0  0
 20 47  1  0  0  0  0
 21 22  1  0  0  0  0
 21 48  1  0  0  0  0
 21 49  1  0  0  0  0
 22 50  1  0  0  0  0
 22 51  1  0  0  0  0
 23 24  2  0  0  0  0
 23 56  1  0  0  0  0
 24 52  1  0  0  0  0
 25 53  1  0  0  0  0
 25 54  1  0  0  0  0
M  CHG  1   2   1
M  CHG  1  23   1
M  END
> <s_m_source_file>
AV-unprocessed.smi

> <i_m_source_file_index>
2849

> <i_lp_mmshare_version>
43012

> <i_f3d_flags>
0

> <s_epik_input>
W0NIMl0xW0NIMl1bQ0gyXVtDQEhdKE4oW0NIM10pW0NIXTEyKVtDSDJdW0NASF0oW0NIMl0yKVtOSF1DKD1PKVtOSF1jM1tjSF1bY0hdYyhuW2NIXTMpTjRbQ0gyXVtDSDJdW0NIMl1bQ0gyXTQ=

> <s_epik_cmdline>
J2VwaWtfcHl0aG9uJywgJy1waCcsICc3LjAnLCAnLXRuJywgJzgnLCAnLW1hJywgJzIwMCcsICctbWV0YWxfYmluZGluZycsICctaW1hZScsICc8aW5maWxlLm1hZT4nLCAnLW9tYWUnLCAnPG91dGZpbGUubWFlPic=

> <r_lp_tautomer_probability>
0.999994

> <r_epik_Ionization_Penalty>
1.2404

> <r_epik_Ionization_Penalty_Charging>
1.24038

> <r_epik_Ionization_Penalty_Neutral>
1.86921e-05

> <r_epik_State_Penalty>
1.30821

> <r_epik_Charging_Adjusted_Penalty>
2.54859

> <i_epik_Tot_Q>
2

> <i_epik_Tot_abs_Q>
2

> <r_epik_Metal_State_Penalty>
1.37823

> <b_epik_Metal_Only>
0

> <s_lp_Force_Field>
OPLS_2005

> <r_lp_Energy>
73.3774

> <b_lp_Chiralities_Consistent>
1

> <s_lp_Variant>
AV-unprocessed.smi:2849-6

> <Gold.Version>
5.8.1

> <Gold.Id.Protein>
6NUR|6NUR_protein|mol2

> <Gold.PLP.Fitness>
44.3833

> <Gold.PLP.PLP>
-36.7697

> <Gold.PLP.part.hbond>
-2.0000

> <Gold.PLP.part.metal>
0.0000

> <Gold.PLP.part.buried>
-5.4637

> <Gold.PLP.part.nonpolar>
-29.4577

> <Gold.PLP.part.repulsive>
0.4497

> <Gold.PLP.ligand.clash>
0.0000

> <Gold.PLP.ligand.torsion>
0.5710

> <Gold.PLP.Chemscore.Hbond>
2.9120

> <Gold.PLP.Chemscore.CHOScore>
0.0000

> <Gold.PLP.Chemscore.Metal>
0.0000

> <Gold.Chemscore.Hbonds>
donor molecule, donor type, donor heavy atom, donor atom, acceptor molecule, acceptor atom, score
      L1  H    10    40       P1  7948  0.90
      L1  H    23    56       P1  8028  2.00

> <Gold.PLP.Chemscore.Internal.Correction>
0.0197

> <Gold.Rescore>
     Score         DG    S(hbond)    S(metal)    S(lipo)     H(rot)  DE(clash)    DE(int)     intcor
     18.48     -20.87       1.90        0.00     103.30       1.19       0.67       1.73       ----

> <Gold.Chemscore.Fitness>
18.4763

> <Gold.Chemscore.DG>
-20.8729

> <Gold.Chemscore.ZeroCoef>
-5.4800

> <Gold.Chemscore.Hbond>
1.9005

> <Gold.Chemscore.Metal>
0.0000

> <Gold.Chemscore.Lipo>
103.3031

> <Gold.Chemscore.Internal_Hbond>
0.0000

> <Gold.Chemscore.DEClash>
0.6663

> <Gold.Chemscore.DEInternal>
1.7303

> <Gold.Chemscore.Rot>
1.1879

> <Gold.Chemscore.Internal.Correction>
   9.000000E+99

> <Gold.Chemscore.Hbonds>
donor molecule, donor type, donor heavy atom, donor atom, acceptor molecule, acceptor atom, score
      L1  H    10    40       P1  7948  0.78
      L1  H    23    56       P1  8028  0.99

> <Gold.Chemscore.Hbond.Weighted>
-6.3475

> <Gold.Chemscore.Metal.Weighted>
-0.0000

> <Gold.Chemscore.Lipo.Weighted>
-12.0865

> <Gold.Chemscore.Internal_Hbond.Weighted>
0.0000

> <Gold.Chemscore.DEClash.Weighted>
0.6663

> <Gold.Chemscore.DEInternal.Weighted>
1.7303

> <Gold.Chemscore.Rot.Weighted>
3.0410

> <Gold.Chemscore.Internal.Correction.Weighted>
   9.000000E+99

> <Gold.Protein.RotatedTorsions>
[ 6907 6896 6895 6894 ] final  -83.00 input  -60.11 | X-H torsion
[ 7974 7965 7964 7962 ] final   -2.23 input  175.53 | X-H torsion
[ 8008 7997 7996 7995 ] final  128.93 input   59.86 | X-H torsion
[ 10167 10162 10161 10158 ] final  -11.22 input  -65.29 | X-H torsion
[ 10718 10713 10712 10709 ] final -105.38 input   66.30 | X-H torsion
[ 10763 10752 10751 10750 ] final   61.26 input  -60.55 | X-H torsion
[ 11005 11000 10999 10996 ] final  -79.36 input  -57.11 | X-H torsion

> <Gold.Protein.ActiveResidues>
 VAL166  LYS551  ARG553  GLY616  TRP617  ASP618  TYR619  PRO620  LYS621  CYS622 
 ASP623  PHE694  ASN695  SER759  ASP760  ASP761  ALA762  ILE779  LEU786  VAL792 
 PHE793  MET794  SER795  GLU796  ALA797  LYS798  CYS799  TRP800  GLU811  SER814 

> <Gold.Protein.RotatedAtoms>
  150.6890  134.3579  159.4937 H   0  0  0  0  0  0  0  0  0  0  0  0  # atno 6907 bound_to 6896
  152.1411  134.9059  160.0563 H   0  0  0  0  0  0  0  0  0  0  0  0  # atno 6908 bound_to 6896
  152.0192  133.3857  159.4288 H   0  0  0  0  0  0  0  0  0  0  0  0  # atno 6909 bound_to 6896
  146.2407  140.1540  142.8333 H   0  0  0  0  0  0  0  0  0  0  0  0  # atno 7974 bound_to 7965
  156.2925  140.2633  156.2515 H   0  0  0  0  0  0  0  0  0  0  0  0  # atno 8008 bound_to 7997
  154.9878  140.0389  157.2324 H   0  0  0  0  0  0  0  0  0  0  0  0  # atno 8009 bound_to 7997
  154.7714  140.2778  155.6140 H   0  0  0  0  0  0  0  0  0  0  0  0  # atno 8010 bound_to 7997
  140.7133  143.5663  150.9140 H   0  0  0  0  0  0  0  0  0  0  0  0  # atno 10167 bound_to 10162
  156.0344  130.5561  150.7531 H   0  0  0  0  0  0  0  0  0  0  0  0  # atno 10718 bound_to 10713
  152.9945  135.5507  154.6005 H   0  0  0  0  0  0  0  0  0  0  0  0  # atno 10763 bound_to 10752
  154.5347  135.2816  155.1151 H   0  0  0  0  0  0  0  0  0  0  0  0  # atno 10764 bound_to 10752
  154.2452  135.6409  153.5273 H   0  0  0  0  0  0  0  0  0  0  0  0  # atno 10765 bound_to 10752
  141.1667  133.7102  156.8111 H   0  0  0  0  0  0  0  0  0  0  0  0  # atno 11005 bound_to 11000
  145.0144  140.8741  143.5205 LP  0  0  0  0  0  0  0  0  0  0  0  0  # atno 17320 bound_to 7965
  145.1579  139.2476  143.5407 LP  0  0  0  0  0  0  0  0  0  0  0  0  # atno 17321 bound_to 7965
  139.9389  143.6405  152.3058 LP  0  0  0  0  0  0  0  0  0  0  0  0  # atno 17342 bound_to 10162
  139.6883  144.7649  151.1485 LP  0  0  0  0  0  0  0  0  0  0  0  0  # atno 17343 bound_to 10162
  157.5070  131.0923  151.0245 LP  0  0  0  0  0  0  0  0  0  0  0  0  # atno 17370 bound_to 10713
  157.0610  130.5825  149.5386 LP  0  0  0  0  0  0  0  0  0  0  0  0  # atno 17371 bound_to 10713
  140.2187  134.8773  157.3353 LP  0  0  0  0  0  0  0  0  0  0  0  0  # atno 17394 bound_to 11000
  140.2011  134.4254  155.7662 LP  0  0  0  0  0  0  0  0  0  0  0  0  # atno 17395 bound_to 11000

$$$$
