AV-unprocessed.smi:839|AV-procd|sdf|3910|dock4
  -GOLD-   22720 1373D 1   1.00000     0.00000
 Structure written by MMmdl.
 47 49  0  0  0  0  0  0  0  0  1 V2000
  146.4206  137.2737  155.2501 O   0  0  0  0  0  0  0  0  0  0  0  0
  147.1939  137.0472  154.3198 C   0  0  0  0  0  0  0  0  0  0  0  0
  146.9037  136.2217  153.3035 N   0  0  0  0  0  0  0  0  0  0  0  0
  145.6404  135.5057  153.1336 C   0  0  0  0  0  0  0  0  0  0  0  0
  145.8093  133.9782  153.0318 C   0  0  0  0  0  0  0  0  0  0  0  0
  146.4015  133.3623  153.9200 O   0  0  0  0  0  0  0  0  0  0  0  0
  145.2838  133.3526  151.9579 N   0  0  0  0  0  0  0  0  0  0  0  0
  145.3418  131.9152  151.6938 C   0  0  0  0  0  0  0  0  0  0  0  0
  144.4473  131.6798  150.4761 C   0  0  0  0  0  0  0  0  0  0  0  0
  144.4319  133.0209  149.7560 C   0  0  0  0  0  0  0  0  0  0  0  0
  144.5897  134.0489  150.8764 C   0  0  0  0  0  0  0  0  0  0  0  0
  148.4267  137.5662  154.1864 N   0  0  0  0  0  0  0  0  0  0  0  0
  149.0987  138.4903  155.0319 C   0  0  0  0  0  0  0  0  0  0  0  0
  148.8356  138.6510  156.4120 C   0  0  0  0  0  0  0  0  0  0  0  0
  149.5592  139.6177  157.1365 C   0  0  0  0  0  0  0  0  0  0  0  0
  150.5217  140.4097  156.4673 C   0  0  0  0  0  0  0  0  0  0  0  0
  151.2554  141.3867  157.1755 N   0  0  0  0  0  0  0  0  0  0  0  0
  150.7077  142.7405  157.2435 C   0  0  0  0  0  0  0  0  0  0  0  0
  151.7602  143.7188  157.7922 C   0  0  0  0  0  0  0  0  0  0  0  0
  152.2351  143.2548  159.0513 O   0  0  0  0  0  0  0  0  0  0  0  0
  152.8659  141.9833  158.9419 C   0  0  0  0  0  0  0  0  0  0  0  0
  151.8556  140.9416  158.4309 C   0  0  0  0  0  0  0  0  0  0  0  0
  150.7671  140.2557  155.1430 N   0  0  0  0  0  0  0  0  0  0  0  0
  150.0709  139.3291  154.4522 C   0  0  0  0  0  0  0  0  0  0  0  0
  147.5979  136.0922  152.5822 H   0  0  0  0  0  0  0  0  0  0  0  0
  145.0096  135.7344  153.9930 H   0  0  0  0  0  0  0  0  0  0  0  0
  145.1204  135.8810  152.2509 H   0  0  0  0  0  0  0  0  0  0  0  0
  146.3719  131.6342  151.4704 H   0  0  0  0  0  0  0  0  0  0  0  0
  145.0019  131.3226  152.5437 H   0  0  0  0  0  0  0  0  0  0  0  0
  144.8000  130.8643  149.8441 H   0  0  0  0  0  0  0  0  0  0  0  0
  143.4374  131.4329  150.8067 H   0  0  0  0  0  0  0  0  0  0  0  0
  145.2866  133.0822  149.0809 H   0  0  0  0  0  0  0  0  0  0  0  0
  143.5282  133.1746  149.1654 H   0  0  0  0  0  0  0  0  0  0  0  0
  143.6137  134.3788  151.2355 H   0  0  0  0  0  0  0  0  0  0  0  0
  145.1392  134.9266  150.5323 H   0  0  0  0  0  0  0  0  0  0  0  0
  148.9684  137.2245  153.4060 H   0  0  0  0  0  0  0  0  0  0  0  0
  148.0914  138.0656  156.9284 H   0  0  0  0  0  0  0  0  0  0  0  0
  149.3741  139.7314  158.1940 H   0  0  0  0  0  0  0  0  0  0  0  0
  150.3908  143.0700  156.2532 H   0  0  0  0  0  0  0  0  0  0  0  0
  149.8263  142.7420  157.8863 H   0  0  0  0  0  0  0  0  0  0  0  0
  152.5922  143.8273  157.0945 H   0  0  0  0  0  0  0  0  0  0  0  0
  151.3218  144.7086  157.9204 H   0  0  0  0  0  0  0  0  0  0  0  0
  153.7275  142.0489  158.2754 H   0  0  0  0  0  0  0  0  0  0  0  0
  153.2433  141.6895  159.9213 H   0  0  0  0  0  0  0  0  0  0  0  0
  151.0635  140.7981  159.1670 H   0  0  0  0  0  0  0  0  0  0  0  0
  152.3617  139.9836  158.3206 H   0  0  0  0  0  0  0  0  0  0  0  0
  150.3031  139.2536  153.3998 H   0  0  0  0  0  0  0  0  0  0  0  0
  1  2  2  0  0  0  0
  2  3  1  0  0  0  0
  2 12  1  0  0  0  0
  3  4  1  0  0  0  0
  3 25  1  0  0  0  0
  4  5  1  0  0  0  0
  4 26  1  0  0  0  0
  4 27  1  0  0  0  0
  5  6  2  0  0  0  0
  5  7  1  0  0  0  0
  7 11  1  0  0  0  0
  7  8  1  0  0  0  0
  8  9  1  0  0  0  0
  8 28  1  0  0  0  0
  8 29  1  0  0  0  0
  9 10  1  0  0  0  0
  9 30  1  0  0  0  0
  9 31  1  0  0  0  0
 10 11  1  0  0  0  0
 10 32  1  0  0  0  0
 10 33  1  0  0  0  0
 11 34  1  0  0  0  0
 11 35  1  0  0  0  0
 12 13  1  0  0  0  0
 12 36  1  0  0  0  0
 13 24  1  0  0  0  0
 13 14  2  0  0  0  0
 14 15  1  0  0  0  0
 14 37  1  0  0  0  0
 15 16  2  0  0  0  0
 15 38  1  0  0  0  0
 16 17  1  0  0  0  0
 16 23  1  0  0  0  0
 17 22  1  0  0  0  0
 17 18  1  0  0  0  0
 18 19  1  0  0  0  0
 18 39  1  0  0  0  0
 18 40  1  0  0  0  0
 19 20  1  0  0  0  0
 19 41  1  0  0  0  0
 19 42  1  0  0  0  0
 20 21  1  0  0  0  0
 21 22  1  0  0  0  0
 21 43  1  0  0  0  0
 21 44  1  0  0  0  0
 22 45  1  0  0  0  0
 22 46  1  0  0  0  0
 23 24  2  0  0  0  0
 24 47  1  0  0  0  0
M  END
> <s_m_source_file>
AV-unprocessed.smi

> <i_m_source_file_index>
839

> <i_lp_mmshare_version>
43012

> <i_f3d_flags>
0

> <s_epik_input>
W0NIMl0xW0NIMl1bQ0gyXVtDSDJdTjFDKD1PKVtDSDJdW05IXUMoPU8pW05IXWMyW2NIXVtjSF1jKG5bY0hdMilOM1tDSDJdW0NIMl1PW0NIMl1bQ0gyXTM=

> <s_epik_cmdline>
J2VwaWtfcHl0aG9uJywgJy1waCcsICc3LjAnLCAnLXRuJywgJzgnLCAnLW1hJywgJzIwMCcsICctbWV0YWxfYmluZGluZycsICctaW1hZScsICc8aW5maWxlLm1hZT4nLCAnLW9tYWUnLCAnPG91dGZpbGUubWFlPic=

> <r_lp_tautomer_probability>
1

> <r_epik_Ionization_Penalty>
0.00586185

> <r_epik_Ionization_Penalty_Charging>
0

> <r_epik_Ionization_Penalty_Neutral>
0.00586185

> <r_epik_State_Penalty>
0.00428328

> <r_epik_Charging_Adjusted_Penalty>
0.00428328

> <i_epik_Tot_Q>
0

> <i_epik_Tot_abs_Q>
0

> <r_epik_Metal_State_Penalty>
-0

> <b_epik_Metal_Only>
0

> <s_lp_Force_Field>
OPLS_2005

> <r_lp_Energy>
41.3163

> <b_lp_Chiralities_Consistent>
1

> <s_lp_Variant>
AV-unprocessed.smi:839-1

> <Gold.Version>
5.8.1

> <Gold.Id.Protein>
6NUR|6NUR_protein|mol2

> <Gold.PLP.Fitness>
43.9680

> <Gold.PLP.PLP>
-34.0335

> <Gold.PLP.part.hbond>
-3.0000

> <Gold.PLP.part.metal>
0.0000

> <Gold.PLP.part.buried>
-6.0403

> <Gold.PLP.part.nonpolar>
-25.3019

> <Gold.PLP.part.repulsive>
0.1881

> <Gold.PLP.ligand.clash>
0.0000

> <Gold.PLP.ligand.torsion>
0.6788

> <Gold.PLP.Chemscore.Hbond>
2.6500

> <Gold.PLP.Chemscore.CHOScore>
1.0000

> <Gold.PLP.Chemscore.Metal>
0.0000

> <Gold.Chemscore.Hbonds>
donor molecule, donor type, donor heavy atom, donor atom, acceptor molecule, acceptor atom, score
      L1  H     3    25       P1  7948  1.00
      L1  H    12    36       P1  7948  0.94
      P1  H  7989  7998       L1    23  0.55
      L1  C    24    47       P1  7957  1.00

> <Gold.PLP.Chemscore.Internal.Correction>
0.3422

> <Gold.Rescore>
     Score         DG    S(hbond)    S(metal)    S(lipo)     H(rot)  DE(clash)    DE(int)     intcor
     16.74     -18.31       1.98        0.00      86.10       1.50       0.01       1.56       ----

> <Gold.Chemscore.Fitness>
16.7368

> <Gold.Chemscore.DG>
-18.3108

> <Gold.Chemscore.ZeroCoef>
-5.4800

> <Gold.Chemscore.Hbond>
1.9751

> <Gold.Chemscore.Metal>
0.0000

> <Gold.Chemscore.Lipo>
86.1049

> <Gold.Chemscore.Internal_Hbond>
0.0000

> <Gold.Chemscore.DEClash>
0.0143

> <Gold.Chemscore.DEInternal>
1.5598

> <Gold.Chemscore.Rot>
1.5001

> <Gold.Chemscore.Internal.Correction>
   9.000000E+99

> <Gold.Chemscore.Hbonds>
donor molecule, donor type, donor heavy atom, donor atom, acceptor molecule, acceptor atom, score
      L1  H     3    25       P1  7948  0.93
      L1  H    12    36       P1  7948  0.91
      P1  H  7989  7998       L1    23  0.03

> <Gold.Chemscore.Hbond.Weighted>
-6.5967

> <Gold.Chemscore.Metal.Weighted>
-0.0000

> <Gold.Chemscore.Lipo.Weighted>
-10.0743

> <Gold.Chemscore.Internal_Hbond.Weighted>
0.0000

> <Gold.Chemscore.DEClash.Weighted>
0.0143

> <Gold.Chemscore.DEInternal.Weighted>
1.5598

> <Gold.Chemscore.Rot.Weighted>
3.8402

> <Gold.Chemscore.Internal.Correction.Weighted>
   9.000000E+99

> <Gold.Protein.RotatedTorsions>
[ 6907 6896 6895 6894 ] final   22.53 input  -60.11 | X-H torsion
[ 7974 7965 7964 7962 ] final   43.56 input  175.53 | X-H torsion
[ 8008 7997 7996 7995 ] final  136.67 input   59.86 | X-H torsion
[ 10167 10162 10161 10158 ] final   17.08 input  -65.29 | X-H torsion
[ 10718 10713 10712 10709 ] final  -98.75 input   66.30 | X-H torsion
[ 10763 10752 10751 10750 ] final -135.63 input  -60.55 | X-H torsion
[ 11005 11000 10999 10996 ] final   96.36 input  -57.11 | X-H torsion

> <Gold.Protein.ActiveResidues>
 VAL166  LYS551  ARG553  GLY616  TRP617  ASP618  TYR619  PRO620  LYS621  CYS622 
 ASP623  PHE694  ASN695  SER759  ASP760  ASP761  ALA762  ILE779  LEU786  VAL792 
 PHE793  MET794  SER795  GLU796  ALA797  LYS798  CYS799  TRP800  GLU811  SER814 

> <Gold.Protein.RotatedAtoms>
  151.9285  135.0267  160.0527 H   0  0  0  0  0  0  0  0  0  0  0  0  # atno 6907 bound_to 6896
  152.2139  133.4927  159.5133 H   0  0  0  0  0  0  0  0  0  0  0  0  # atno 6908 bound_to 6896
  150.6983  134.1348  159.4126 H   0  0  0  0  0  0  0  0  0  0  0  0  # atno 6909 bound_to 6896
  146.0645  139.5173  142.9637 H   0  0  0  0  0  0  0  0  0  0  0  0  # atno 7974 bound_to 7965
  156.3004  140.2439  156.3783 H   0  0  0  0  0  0  0  0  0  0  0  0  # atno 8008 bound_to 7997
  154.8725  140.0415  157.1753 H   0  0  0  0  0  0  0  0  0  0  0  0  # atno 8009 bound_to 7997
  154.8781  140.2945  155.5445 H   0  0  0  0  0  0  0  0  0  0  0  0  # atno 8010 bound_to 7997
  140.5751  143.9087  150.6744 H   0  0  0  0  0  0  0  0  0  0  0  0  # atno 10167 bound_to 10162
  156.0116  130.5252  150.6569 H   0  0  0  0  0  0  0  0  0  0  0  0  # atno 10718 bound_to 10713
  154.8699  135.3697  154.4929 H   0  0  0  0  0  0  0  0  0  0  0  0  # atno 10763 bound_to 10752
  153.5574  135.7023  153.5568 H   0  0  0  0  0  0  0  0  0  0  0  0  # atno 10764 bound_to 10752
  153.3659  135.4034  155.1716 H   0  0  0  0  0  0  0  0  0  0  0  0  # atno 10765 bound_to 10752
  139.8782  134.8947  156.4148 H   0  0  0  0  0  0  0  0  0  0  0  0  # atno 11005 bound_to 11000
  145.6502  141.0265  143.1764 LP  0  0  0  0  0  0  0  0  0  0  0  0  # atno 17320 bound_to 7965
  144.7194  139.8082  143.7387 LP  0  0  0  0  0  0  0  0  0  0  0  0  # atno 17321 bound_to 7965
  140.2573  143.3550  152.1354 LP  0  0  0  0  0  0  0  0  0  0  0  0  # atno 17342 bound_to 10162
  139.5138  144.6939  151.5685 LP  0  0  0  0  0  0  0  0  0  0  0  0  # atno 17343 bound_to 10162
  157.4319  131.0850  151.1030 LP  0  0  0  0  0  0  0  0  0  0  0  0  # atno 17370 bound_to 10713
  157.1600  130.6221  149.5608 LP  0  0  0  0  0  0  0  0  0  0  0  0  # atno 17371 bound_to 10713
  140.9175  133.7668  155.9866 LP  0  0  0  0  0  0  0  0  0  0  0  0  # atno 17394 bound_to 11000
  140.8477  134.2991  157.5288 LP  0  0  0  0  0  0  0  0  0  0  0  0  # atno 17395 bound_to 11000

$$$$
