AV-unprocessed.smi:183|AV-procd|sdf|1457|dock6
  -GOLD-   2262019263D 1   1.00000     0.00000
 Structure written by MMmdl.
 55 57  0  0  0  0  0  0  0  0  1 V2000
  150.5004  145.1190  159.5308 C   0  0  0  0  0  0  0  0  0  0  0  0
  151.2304  143.7840  159.4317 C   0  0  0  0  0  0  0  0  0  0  0  0
  152.3441  143.6497  159.9381 O   0  0  0  0  0  0  0  0  0  0  0  0
  150.5893  142.8043  158.7769 N   0  0  0  0  0  0  0  0  0  0  0  0
  151.1125  141.4608  158.5665 C   0  0  0  0  0  0  0  0  0  0  0  0
  150.9209  141.0095  157.1051 C   0  0  0  0  0  0  0  0  0  0  0  0
  149.7775  140.1124  156.9140 N   0  0  0  0  0  0  0  0  0  0  0  0
  149.8622  139.0230  157.7165 C   0  0  0  0  0  0  0  0  0  0  0  0
  151.1028  138.6403  158.1107 N   0  0  0  0  0  0  0  0  0  0  0  0
  151.2567  137.5697  158.8955 C   0  0  0  0  0  0  0  0  0  0  0  0
  150.3222  136.7534  159.3868 N   0  0  0  0  0  0  0  0  0  0  0  0
  149.0742  137.1288  158.9848 C   0  0  0  0  0  0  0  0  0  0  0  0
  148.7550  138.2392  158.1533 C   0  0  0  0  0  0  0  0  0  0  0  0
  147.3814  138.2941  157.9465 N   0  0  0  0  0  0  0  0  0  0  0  0
  146.9159  137.2793  158.6209 C   0  0  0  0  0  0  0  0  0  0  0  0
  147.8622  136.5308  159.2833 N   0  0  0  0  0  0  0  0  0  0  0  0
  147.6247  135.3548  160.1062 C   0  0  0  0  0  0  0  0  0  0  0  0
  146.6326  135.6064  161.2720 C   0  0  1  0  0  0  0  0  0  0  0  0
  146.9968  136.8211  161.9060 O   0  0  0  0  0  0  0  0  0  0  0  0
  145.1800  135.7360  160.8202 C   0  0  0  0  0  0  0  0  0  0  0  0
  144.3984  135.2435  162.0286 C   0  0  0  0  0  0  0  0  0  0  0  0
  145.1853  134.1541  162.4754 O   0  0  0  0  0  0  0  0  0  0  0  0
  146.5628  134.5046  162.3675 C   0  0  1  0  0  0  0  0  0  0  0  0
  147.3523  133.2127  162.1033 C   0  0  0  0  0  0  0  0  0  0  0  0
  149.1914  139.9342  155.5740 C   0  0  0  0  0  0  0  0  0  0  0  0
  149.9856  138.9176  154.7322 C   0  0  0  0  0  0  0  0  0  0  0  0
  149.0994  141.2613  154.7885 C   0  0  0  0  0  0  0  0  0  0  0  0
  149.6234  145.0249  160.1715 H   0  0  0  0  0  0  0  0  0  0  0  0
  150.1751  145.4523  158.5448 H   0  0  0  0  0  0  0  0  0  0  0  0
  151.1512  145.8862  159.9515 H   0  0  0  0  0  0  0  0  0  0  0  0
  149.6758  143.0045  158.3962 H   0  0  0  0  0  0  0  0  0  0  0  0
  152.1706  141.4697  158.8268 H   0  0  0  0  0  0  0  0  0  0  0  0
  150.6286  140.7690  159.2570 H   0  0  0  0  0  0  0  0  0  0  0  0
  150.8028  141.8868  156.4668 H   0  0  0  0  0  0  0  0  0  0  0  0
  151.8249  140.5187  156.7452 H   0  0  0  0  0  0  0  0  0  0  0  0
  152.2745  137.3329  159.1683 H   0  0  0  0  0  0  0  0  0  0  0  0
  145.8609  137.0494  158.6558 H   0  0  0  0  0  0  0  0  0  0  0  0
  147.2519  134.5675  159.4508 H   0  0  0  0  0  0  0  0  0  0  0  0
  148.5849  135.0082  160.4907 H   0  0  0  0  0  0  0  0  0  0  0  0
  146.5513  136.8706  162.7380 H   0  0  0  0  0  0  0  0  0  0  0  0
  144.9013  136.7439  160.5090 H   0  0  0  0  0  0  0  0  0  0  0  0
  144.9863  135.0646  159.9828 H   0  0  0  0  0  0  0  0  0  0  0  0
  144.3480  136.0080  162.8055 H   0  0  0  0  0  0  0  0  0  0  0  0
  143.3838  134.9331  161.7789 H   0  0  0  0  0  0  0  0  0  0  0  0
  146.8770  134.9073  163.3324 H   0  0  0  0  0  0  0  0  0  0  0  0
  148.4217  133.4082  162.0228 H   0  0  0  0  0  0  0  0  0  0  0  0
  147.0234  132.7222  161.1868 H   0  0  0  0  0  0  0  0  0  0  0  0
  147.2121  132.5038  162.9194 H   0  0  0  0  0  0  0  0  0  0  0  0
  148.1819  139.5408  155.6916 H   0  0  0  0  0  0  0  0  0  0  0  0
  149.5749  138.8368  153.7254 H   0  0  0  0  0  0  0  0  0  0  0  0
  149.9514  137.9174  155.1635 H   0  0  0  0  0  0  0  0  0  0  0  0
  151.0319  139.2105  154.6396 H   0  0  0  0  0  0  0  0  0  0  0  0
  148.6980  141.0951  153.7886 H   0  0  0  0  0  0  0  0  0  0  0  0
  150.0817  141.7214  154.6770 H   0  0  0  0  0  0  0  0  0  0  0  0
  148.4449  141.9882  155.2685 H   0  0  0  0  0  0  0  0  0  0  0  0
  1  2  1  0  0  0  0
  1 28  1  0  0  0  0
  1 29  1  0  0  0  0
  1 30  1  0  0  0  0
  2  3  2  0  0  0  0
  2  4  1  0  0  0  0
  4  5  1  0  0  0  0
  4 31  1  0  0  0  0
  5  6  1  0  0  0  0
  5 32  1  0  0  0  0
  5 33  1  0  0  0  0
  6  7  1  0  0  0  0
  6 34  1  0  0  0  0
  6 35  1  0  0  0  0
  7  8  1  0  0  0  0
  7 25  1  0  0  0  0
  8 13  1  0  0  0  0
  8  9  2  0  0  0  0
  9 10  1  0  0  0  0
 10 11  2  0  0  0  0
 10 36  1  0  0  0  0
 11 12  1  0  0  0  0
 12 16  1  0  0  0  0
 12 13  2  0  0  0  0
 13 14  1  0  0  0  0
 14 15  2  0  0  0  0
 15 16  1  0  0  0  0
 15 37  1  0  0  0  0
 16 17  1  0  0  0  0
 17 18  1  0  0  0  0
 17 38  1  0  0  0  0
 17 39  1  0  0  0  0
 18 23  1  0  0  0  0
 18 19  1  0  0  0  0
 18 20  1  0  0  0  0
 19 40  1  0  0  0  0
 20 21  1  0  0  0  0
 20 41  1  0  0  0  0
 20 42  1  0  0  0  0
 21 22  1  0  0  0  0
 21 43  1  0  0  0  0
 21 44  1  0  0  0  0
 22 23  1  0  0  0  0
 23 24  1  0  0  0  0
 23 45  1  0  0  0  0
 24 46  1  0  0  0  0
 24 47  1  0  0  0  0
 24 48  1  0  0  0  0
 25 26  1  0  0  0  0
 25 27  1  0  0  0  0
 25 49  1  0  0  0  0
 26 50  1  0  0  0  0
 26 51  1  0  0  0  0
 26 52  1  0  0  0  0
 27 53  1  0  0  0  0
 27 54  1  0  0  0  0
 27 55  1  0  0  0  0
M  END
> <s_m_source_file>
AV-unprocessed.smi

> <i_m_source_file_index>
183

> <i_lp_mmshare_version>
43012

> <i_f3d_flags>
0

> <s_epik_input>
W0NIM11DKD1PKVtOSF1bQ0gyXVtDSDJdTihbQ0hdKFtDSDNdKVtDSDNdKWMobltjSF1uMSljKGMxMiluW2NIXW4yW0NIMl1bQ0BAXTMoW09IXSlbQ0gyXVtDSDJdT1tDQEhdM1tDSDNd

> <s_epik_cmdline>
J2VwaWtfcHl0aG9uJywgJy1waCcsICc3LjAnLCAnLXRuJywgJzgnLCAnLW1hJywgJzIwMCcsICctbWV0YWxfYmluZGluZycsICctaW1hZScsICc8aW5maWxlLm1hZT4nLCAnLW9tYWUnLCAnPG91dGZpbGUubWFlPic=

> <r_lp_tautomer_probability>
1

> <r_epik_Ionization_Penalty>
0.00156158

> <r_epik_Ionization_Penalty_Charging>
0

> <r_epik_Ionization_Penalty_Neutral>
0.00156158

> <r_epik_State_Penalty>
0.000865808

> <r_epik_Charging_Adjusted_Penalty>
0.000865808

> <i_epik_Tot_Q>
0

> <i_epik_Tot_abs_Q>
0

> <r_epik_Metal_State_Penalty>
-0

> <b_epik_Metal_Only>
0

> <s_lp_Force_Field>
OPLS_2005

> <r_lp_Energy>
29.4164

> <b_lp_Chiralities_Consistent>
1

> <s_lp_Variant>
AV-unprocessed.smi:183-1

> <Gold.Version>
5.8.1

> <Gold.Id.Protein>
6NUR|6NUR_protein|mol2

> <Gold.PLP.Fitness>
53.1513

> <Gold.PLP.PLP>
-47.0674

> <Gold.PLP.part.hbond>
-3.0295

> <Gold.PLP.part.metal>
0.0000

> <Gold.PLP.part.buried>
-7.6837

> <Gold.PLP.part.nonpolar>
-35.6333

> <Gold.PLP.part.repulsive>
0.0566

> <Gold.PLP.ligand.clash>
0.0000

> <Gold.PLP.ligand.torsion>
1.1607

> <Gold.PLP.Chemscore.Hbond>
2.4280

> <Gold.PLP.Chemscore.CHOScore>
0.0000

> <Gold.PLP.Chemscore.Metal>
0.0000

> <Gold.Chemscore.Hbonds>
donor molecule, donor type, donor heavy atom, donor atom, acceptor molecule, acceptor atom, score
      P1  H  6896  6908       L1    11  1.00
      P1  H  6934  6947       L1    19  0.06

> <Gold.PLP.Chemscore.Internal.Correction>
1.1212

> <Gold.Rescore>
     Score         DG    S(hbond)    S(metal)    S(lipo)     H(rot)  DE(clash)    DE(int)     intcor
     11.23     -13.45       2.17        0.00      81.60       3.45       0.08       2.14       ----

> <Gold.Chemscore.Fitness>
11.2260

> <Gold.Chemscore.DG>
-13.4474

> <Gold.Chemscore.ZeroCoef>
-5.4800

> <Gold.Chemscore.Hbond>
2.1674

> <Gold.Chemscore.Metal>
0.0000

> <Gold.Chemscore.Lipo>
81.6034

> <Gold.Chemscore.Internal_Hbond>
0.0000

> <Gold.Chemscore.DEClash>
0.0820

> <Gold.Chemscore.DEInternal>
2.1394

> <Gold.Chemscore.Rot>
3.4451

> <Gold.Chemscore.Internal.Correction>
   9.000000E+99

> <Gold.Chemscore.Hbonds>
donor molecule, donor type, donor heavy atom, donor atom, acceptor molecule, acceptor atom, score
      P1  H  6896  6908       L1    11  0.88
      P1  H  6931  6943       L1    19  0.02
      P1  H  6934  6947       L1    19  0.06

> <Gold.Chemscore.Hbond.Weighted>
-7.2393

> <Gold.Chemscore.Metal.Weighted>
-0.0000

> <Gold.Chemscore.Lipo.Weighted>
-9.5476

> <Gold.Chemscore.Internal_Hbond.Weighted>
0.0000

> <Gold.Chemscore.DEClash.Weighted>
0.0820

> <Gold.Chemscore.DEInternal.Weighted>
2.1394

> <Gold.Chemscore.Rot.Weighted>
8.8194

> <Gold.Chemscore.Internal.Correction.Weighted>
   9.000000E+99

> <Gold.Protein.RotatedTorsions>
[ 6907 6896 6895 6894 ] final -161.11 input  -60.11 | X-H torsion
[ 7974 7965 7964 7962 ] final  -62.25 input  175.53 | X-H torsion
[ 8008 7997 7996 7995 ] final -172.14 input   59.86 | X-H torsion
[ 10167 10162 10161 10158 ] final  -96.41 input  -65.29 | X-H torsion
[ 10718 10713 10712 10709 ] final   19.07 input   66.30 | X-H torsion
[ 10763 10752 10751 10750 ] final -143.50 input  -60.55 | X-H torsion
[ 11005 11000 10999 10996 ] final  -78.50 input  -57.11 | X-H torsion

> <Gold.Protein.ActiveResidues>
 VAL166  LYS551  ARG553  GLY616  TRP617  ASP618  TYR619  PRO620  LYS621  CYS622 
 ASP623  PHE694  ASN695  SER759  ASP760  ASP761  ALA762  ILE779  LEU786  VAL792 
 PHE793  MET794  SER795  GLU796  ALA797  LYS798  CYS799  TRP800  GLU811  SER814 

> <Gold.Protein.RotatedAtoms>
  151.3595  133.3895  159.2688 H   0  0  0  0  0  0  0  0  0  0  0  0  # atno 6907 bound_to 6896
  150.9736  134.9106  159.7813 H   0  0  0  0  0  0  0  0  0  0  0  0  # atno 6908 bound_to 6896
  152.5193  134.3558  159.9319 H   0  0  0  0  0  0  0  0  0  0  0  0  # atno 6909 bound_to 6896
  145.7936  140.8695  143.0268 H   0  0  0  0  0  0  0  0  0  0  0  0  # atno 7974 bound_to 7965
  155.9407  140.1108  157.1057 H   0  0  0  0  0  0  0  0  0  0  0  0  # atno 8008 bound_to 7997
  154.4089  140.1219  156.4990 H   0  0  0  0  0  0  0  0  0  0  0  0  # atno 8009 bound_to 7997
  155.6965  140.3472  155.4917 H   0  0  0  0  0  0  0  0  0  0  0  0  # atno 8010 bound_to 7997
  140.2941  143.3203  152.0315 H   0  0  0  0  0  0  0  0  0  0  0  0  # atno 10167 bound_to 10162
  157.1053  130.6485  149.5883 H   0  0  0  0  0  0  0  0  0  0  0  0  # atno 10718 bound_to 10713
  154.8467  135.3466  154.6196 H   0  0  0  0  0  0  0  0  0  0  0  0  # atno 10763 bound_to 10752
  153.6805  135.6980  153.5124 H   0  0  0  0  0  0  0  0  0  0  0  0  # atno 10764 bound_to 10752
  153.2672  135.4304  155.0908 H   0  0  0  0  0  0  0  0  0  0  0  0  # atno 10765 bound_to 10752
  141.1665  133.7066  156.7981 H   0  0  0  0  0  0  0  0  0  0  0  0  # atno 11005 bound_to 11000
  144.6778  140.0159  143.7484 LP  0  0  0  0  0  0  0  0  0  0  0  0  # atno 17320 bound_to 7965
  145.9951  139.3046  143.0961 LP  0  0  0  0  0  0  0  0  0  0  0  0  # atno 17321 bound_to 7965
  139.4930  144.6503  151.6689 LP  0  0  0  0  0  0  0  0  0  0  0  0  # atno 17342 bound_to 10162
  140.5707  144.0114  150.6215 LP  0  0  0  0  0  0  0  0  0  0  0  0  # atno 17343 bound_to 10162
  155.9863  130.4898  150.7074 LP  0  0  0  0  0  0  0  0  0  0  0  0  # atno 17370 bound_to 10713
  157.4606  131.0882  151.0750 LP  0  0  0  0  0  0  0  0  0  0  0  0  # atno 17371 bound_to 10713
  140.2276  134.8710  157.3443 LP  0  0  0  0  0  0  0  0  0  0  0  0  # atno 17394 bound_to 11000
  140.1923  134.4356  155.7708 LP  0  0  0  0  0  0  0  0  0  0  0  0  # atno 17395 bound_to 11000

$$$$
