AV-unprocessed.smi:1555|AV-procd|sdf|6264|dock2
  -GOLD-   22720 6453D 1   1.00000     0.00000
 Structure written by MMmdl.
 42 43  0  0  0  0  0  0  0  0  2 V2000
  146.4935  129.0412  152.3364 C   0  0  0  0  0  0  0  0  0  0  0  0
  146.2367  130.5463  152.1574 C   0  0  2  0  0  0  0  0  0  0  0  0
  145.7968  130.9185  150.7246 C   0  0  0  0  0  0  0  0  0  0  0  0
  144.9436  132.1095  150.6819 N   0  0  0  0  0  0  0  0  0  0  0  0
  145.3057  133.3979  150.9810 C   0  0  0  0  0  0  0  0  0  0  0  0
  144.1884  134.1707  150.7947 C   0  0  0  0  0  0  0  0  0  0  0  0
  143.1940  133.3226  150.3862 N   0  3  0  0  0  0  0  0  0  0  0  0
  143.6561  132.0700  150.3149 C   0  0  0  0  0  0  0  0  0  0  0  0
  147.4421  131.2844  152.5225 N   0  0  0  0  0  0  0  0  0  0  0  0
  148.0366  131.2639  153.7283 C   0  0  0  0  0  0  0  0  0  0  0  0
  147.5980  130.5872  154.6597 O   0  0  0  0  0  0  0  0  0  0  0  0
  149.1501  132.0335  153.8267 N   0  0  0  0  0  0  0  0  0  0  0  0
  149.4301  133.2658  153.0703 C   0  0  0  0  0  0  0  0  0  0  0  0
  149.2771  134.4721  154.0143 C   0  0  0  0  0  0  0  0  0  0  0  0
  150.2073  134.3442  155.2436 C   0  0  0  0  0  0  0  0  0  0  0  0
  149.9944  135.4814  156.2592 C   0  0  0  0  0  0  0  0  0  0  0  0
  150.1802  136.7408  155.6474 O   0  0  0  0  0  0  0  0  0  0  0  0
  150.0358  132.9613  155.9104 C   0  0  0  0  0  0  0  0  0  0  0  0
  150.1502  131.8224  154.8804 C   0  0  0  0  0  0  0  0  0  0  0  0
  145.5896  128.4572  152.1618 H   0  0  0  0  0  0  0  0  0  0  0  0
  146.8300  128.8186  153.3496 H   0  0  0  0  0  0  0  0  0  0  0  0
  147.2593  128.6852  151.6463 H   0  0  0  0  0  0  0  0  0  0  0  0
  145.4415  130.8253  152.8516 H   0  0  0  0  0  0  0  0  0  0  0  0
  146.6626  131.1223  150.0931 H   0  0  0  0  0  0  0  0  0  0  0  0
  145.2579  130.0901  150.2614 H   0  0  0  0  0  0  0  0  0  0  0  0
  146.3051  133.6609  151.2972 H   0  0  0  0  0  0  0  0  0  0  0  0
  144.0312  135.2325  150.9177 H   0  0  0  0  0  0  0  0  0  0  0  0
  143.0975  131.1989  150.0220 H   0  0  0  0  0  0  0  0  0  0  0  0
  147.8604  131.8576  151.8042 H   0  0  0  0  0  0  0  0  0  0  0  0
  150.4500  133.2241  152.6851 H   0  0  0  0  0  0  0  0  0  0  0  0
  148.7987  133.4014  152.1925 H   0  0  0  0  0  0  0  0  0  0  0  0
  149.4964  135.3910  153.4697 H   0  0  0  0  0  0  0  0  0  0  0  0
  148.2388  134.5469  154.3406 H   0  0  0  0  0  0  0  0  0  0  0  0
  151.2372  134.4020  154.8875 H   0  0  0  0  0  0  0  0  0  0  0  0
  148.9959  135.4334  156.6947 H   0  0  0  0  0  0  0  0  0  0  0  0
  150.7077  135.3953  157.0796 H   0  0  0  0  0  0  0  0  0  0  0  0
  149.5249  137.3360  155.9787 H   0  0  0  0  0  0  0  0  0  0  0  0
  150.7854  132.8278  156.6912 H   0  0  0  0  0  0  0  0  0  0  0  0
  149.0640  132.9056  156.4030 H   0  0  0  0  0  0  0  0  0  0  0  0
  150.0415  130.8584  155.3796 H   0  0  0  0  0  0  0  0  0  0  0  0
  151.1475  131.8135  154.4380 H   0  0  0  0  0  0  0  0  0  0  0  0
  142.2456  133.6010  150.1670 H   0  0  0  0  0  0  0  0  0  0  0  0
  1  2  1  0  0  0  0
  1 20  1  0  0  0  0
  1 21  1  0  0  0  0
  1 22  1  0  0  0  0
  2  3  1  0  0  0  0
  2  9  1  0  0  0  0
  2 23  1  0  0  0  0
  3  4  1  0  0  0  0
  3 24  1  0  0  0  0
  3 25  1  0  0  0  0
  4  8  1  0  0  0  0
  4  5  1  0  0  0  0
  5  6  2  0  0  0  0
  5 26  1  0  0  0  0
  6  7  1  0  0  0  0
  6 27  1  0  0  0  0
  7  8  2  0  0  0  0
  7 42  1  0  0  0  0
  8 28  1  0  0  0  0
  9 10  1  0  0  0  0
  9 29  1  0  0  0  0
 10 11  2  0  0  0  0
 10 12  1  0  0  0  0
 12 19  1  0  0  0  0
 12 13  1  0  0  0  0
 13 14  1  0  0  0  0
 13 30  1  0  0  0  0
 13 31  1  0  0  0  0
 14 15  1  0  0  0  0
 14 32  1  0  0  0  0
 14 33  1  0  0  0  0
 15 16  1  0  0  0  0
 15 18  1  0  0  0  0
 15 34  1  0  0  0  0
 16 17  1  0  0  0  0
 16 35  1  0  0  0  0
 16 36  1  0  0  0  0
 17 37  1  0  0  0  0
 18 19  1  0  0  0  0
 18 38  1  0  0  0  0
 18 39  1  0  0  0  0
 19 40  1  0  0  0  0
 19 41  1  0  0  0  0
M  CHG  1   7   1
M  END
> <s_m_source_file>
AV-unprocessed.smi

> <i_m_source_file_index>
1555

> <i_lp_mmshare_version>
43012

> <i_f3d_flags>
0

> <s_epik_input>
W2NIXTFuW2NIXVtjSF1uMVtDSDJdW0NAQEhdKFtDSDNdKVtOSF1DKD1PKU4yW0NIMl1bQ0gyXVtDSF0oW0NIMl1bT0hdKVtDSDJdW0NIMl0y

> <s_epik_cmdline>
J2VwaWtfcHl0aG9uJywgJy1waCcsICc3LjAnLCAnLXRuJywgJzgnLCAnLW1hJywgJzIwMCcsICctbWV0YWxfYmluZGluZycsICctaW1hZScsICc8aW5maWxlLm1hZT4nLCAnLW9tYWUnLCAnPG91dGZpbGUubWFlPic=

> <r_lp_tautomer_probability>
1

> <r_epik_Ionization_Penalty>
0.253261

> <r_epik_Ionization_Penalty_Charging>
0

> <r_epik_Ionization_Penalty_Neutral>
0.253261

> <r_epik_State_Penalty>
0.244619

> <r_epik_Charging_Adjusted_Penalty>
0.244619

> <i_epik_Tot_Q>
1

> <i_epik_Tot_abs_Q>
1

> <r_epik_Metal_State_Penalty>
0.535039

> <b_epik_Metal_Only>
0

> <s_lp_Force_Field>
OPLS_2005

> <r_lp_Energy>
34.4969

> <b_lp_Chiralities_Consistent>
1

> <s_lp_Variant>
AV-unprocessed.smi:1555-1

> <Gold.Version>
5.8.1

> <Gold.Id.Protein>
6NUR|6NUR_protein|mol2

> <Gold.PLP.Fitness>
44.0616

> <Gold.PLP.PLP>
-35.7081

> <Gold.PLP.part.hbond>
-2.0000

> <Gold.PLP.part.metal>
0.0000

> <Gold.PLP.part.buried>
-5.8584

> <Gold.PLP.part.nonpolar>
-28.1090

> <Gold.PLP.part.repulsive>
0.0576

> <Gold.PLP.ligand.clash>
0.0000

> <Gold.PLP.ligand.torsion>
0.6431

> <Gold.PLP.Chemscore.Hbond>
2.1716

> <Gold.PLP.Chemscore.CHOScore>
1.0000

> <Gold.PLP.Chemscore.Metal>
0.0000

> <Gold.Chemscore.Hbonds>
donor molecule, donor type, donor heavy atom, donor atom, acceptor molecule, acceptor atom, score
      L1  H     7    42       P1 10186  2.00
      L1  H     9    29       P1 10747  0.26
      L1  C     8    28       P1 10952  1.00

> <Gold.PLP.Chemscore.Internal.Correction>
0.1249

> <Gold.Rescore>
     Score         DG    S(hbond)    S(metal)    S(lipo)     H(rot)  DE(clash)    DE(int)     intcor
     11.44     -12.39       1.52        0.00      71.66       2.56       0.31       0.65       ----

> <Gold.Chemscore.Fitness>
11.4370

> <Gold.Chemscore.DG>
-12.3912

> <Gold.Chemscore.ZeroCoef>
-5.4800

> <Gold.Chemscore.Hbond>
1.5233

> <Gold.Chemscore.Metal>
0.0000

> <Gold.Chemscore.Lipo>
71.6628

> <Gold.Chemscore.Internal_Hbond>
0.0000

> <Gold.Chemscore.DEClash>
0.3066

> <Gold.Chemscore.DEInternal>
0.6475

> <Gold.Chemscore.Rot>
2.5630

> <Gold.Chemscore.Internal.Correction>
   9.000000E+99

> <Gold.Chemscore.Hbonds>
donor molecule, donor type, donor heavy atom, donor atom, acceptor molecule, acceptor atom, score
      L1  H     7    42       P1 10186  0.99
      L1  H     9    29       P1 10747  0.25

> <Gold.Chemscore.Hbond.Weighted>
-5.0878

> <Gold.Chemscore.Metal.Weighted>
-0.0000

> <Gold.Chemscore.Lipo.Weighted>
-8.3846

> <Gold.Chemscore.Internal_Hbond.Weighted>
0.0000

> <Gold.Chemscore.DEClash.Weighted>
0.3066

> <Gold.Chemscore.DEInternal.Weighted>
0.6475

> <Gold.Chemscore.Rot.Weighted>
6.5612

> <Gold.Chemscore.Internal.Correction.Weighted>
   9.000000E+99

> <Gold.Protein.RotatedTorsions>
[ 6907 6896 6895 6894 ] final -138.06 input  -60.11 | X-H torsion
[ 7974 7965 7964 7962 ] final  -54.97 input  175.53 | X-H torsion
[ 8008 7997 7996 7995 ] final -143.92 input   59.86 | X-H torsion
[ 10167 10162 10161 10158 ] final  -82.30 input  -65.29 | X-H torsion
[ 10718 10713 10712 10709 ] final  -82.84 input   66.30 | X-H torsion
[ 10763 10752 10751 10750 ] final  160.26 input  -60.55 | X-H torsion
[ 11005 11000 10999 10996 ] final -171.71 input  -57.11 | X-H torsion

> <Gold.Protein.ActiveResidues>
 VAL166  LYS551  ARG553  GLY616  TRP617  ASP618  TYR619  PRO620  LYS621  CYS622 
 ASP623  PHE694  ASN695  SER759  ASP760  ASP761  ALA762  ILE779  LEU786  VAL792 
 PHE793  MET794  SER795  GLU796  ALA797  LYS798  CYS799  TRP800  GLU811  SER814 

> <Gold.Protein.RotatedAtoms>
  151.0303  133.5796  159.2661 H   0  0  0  0  0  0  0  0  0  0  0  0  # atno 6907 bound_to 6896
  151.2881  135.0733  159.9204 H   0  0  0  0  0  0  0  0  0  0  0  0  # atno 6908 bound_to 6896
  152.5343  134.0006  159.7947 H   0  0  0  0  0  0  0  0  0  0  0  0  # atno 6909 bound_to 6896
  145.8795  140.8155  142.9847 H   0  0  0  0  0  0  0  0  0  0  0  0  # atno 7974 bound_to 7965
  155.5185  140.0589  157.2911 H   0  0  0  0  0  0  0  0  0  0  0  0  # atno 8008 bound_to 7997
  154.4526  140.1956  156.0420 H   0  0  0  0  0  0  0  0  0  0  0  0  # atno 8009 bound_to 7997
  156.0735  140.3257  155.7609 H   0  0  0  0  0  0  0  0  0  0  0  0  # atno 8010 bound_to 7997
  140.4332  143.2541  151.8730 H   0  0  0  0  0  0  0  0  0  0  0  0  # atno 10167 bound_to 10162
  156.0027  130.4647  150.4166 H   0  0  0  0  0  0  0  0  0  0  0  0  # atno 10718 bound_to 10713
  154.2446  135.2773  155.2840 H   0  0  0  0  0  0  0  0  0  0  0  0  # atno 10763 bound_to 10752
  154.5516  135.5673  153.6930 H   0  0  0  0  0  0  0  0  0  0  0  0  # atno 10764 bound_to 10752
  152.9992  135.6276  154.2592 H   0  0  0  0  0  0  0  0  0  0  0  0  # atno 10765 bound_to 10752
  140.5051  134.5856  157.5001 H   0  0  0  0  0  0  0  0  0  0  0  0  # atno 11005 bound_to 11000
  144.6727  140.1362  143.7440 LP  0  0  0  0  0  0  0  0  0  0  0  0  # atno 17320 bound_to 7965
  145.9041  139.2448  143.1476 LP  0  0  0  0  0  0  0  0  0  0  0  0  # atno 17321 bound_to 7965
  139.4786  144.5311  151.8665 LP  0  0  0  0  0  0  0  0  0  0  0  0  # atno 17342 bound_to 10162
  140.4403  144.1995  150.5891 LP  0  0  0  0  0  0  0  0  0  0  0  0  # atno 17343 bound_to 10162
  157.2225  131.0485  151.2538 LP  0  0  0  0  0  0  0  0  0  0  0  0  # atno 17370 bound_to 10713
  157.3787  130.7220  149.6615 LP  0  0  0  0  0  0  0  0  0  0  0  0  # atno 17371 bound_to 10713
  139.9691  134.7323  156.0078 LP  0  0  0  0  0  0  0  0  0  0  0  0  # atno 17394 bound_to 11000
  141.1415  133.6564  156.3743 LP  0  0  0  0  0  0  0  0  0  0  0  0  # atno 17395 bound_to 11000

$$$$
