AV-unprocessed.smi:3056|AV-procd|sdf|11658|dock10
  -GOLD-   2272017 63D 1   1.00000     0.00000
 Structure written by MMmdl.
 47 48  0  0  0  0  0  0  0  0  1 V2000
  144.9314  144.8175  152.9256 C   0  0  0  0  0  0  0  0  0  0  0  0
  145.3958  143.8657  153.9898 C   0  0  0  0  0  0  0  0  0  0  0  0
  144.9381  143.7648  155.3337 C   0  0  0  0  0  0  0  0  0  0  0  0
  145.5532  142.8129  156.0152 N   0  0  0  0  0  0  0  0  0  0  0  0
  146.4318  142.2753  155.1386 N   0  0  0  0  0  0  0  0  0  0  0  0
  147.2885  141.1568  155.5273 C   0  0  1  0  0  0  0  0  0  0  0  0
  146.8520  139.8322  154.8703 C   0  0  0  0  0  0  0  0  0  0  0  0
  148.8042  141.4522  155.3598 C   0  0  2  0  0  0  0  0  0  0  0  0
  149.4830  140.4911  154.3623 C   0  0  0  0  0  0  0  0  0  0  0  0
  149.4732  141.3783  156.6566 N   0  0  0  0  0  0  0  0  0  0  0  0
  150.6890  142.1987  156.7268 C   0  0  0  0  0  0  0  0  0  0  0  0
  151.6013  141.7529  157.8751 C   0  0  0  0  0  0  0  0  0  0  0  0
  151.7341  140.5435  158.0639 O   0  0  0  0  0  0  0  0  0  0  0  0
  152.2244  142.6813  158.6418 N   0  0  0  0  0  0  0  0  0  0  0  0
  152.0966  144.1372  158.5217 C   0  0  0  0  0  0  0  0  0  0  0  0
  151.4503  144.6741  159.8102 C   0  0  0  0  0  0  0  0  0  0  0  0
  152.2398  144.2983  160.9364 O   0  0  0  0  0  0  0  0  0  0  0  0
  152.4047  142.8871  161.0671 C   0  0  2  0  0  0  0  0  0  0  0  0
  153.2447  142.6168  162.3199 C   0  0  0  0  0  0  0  0  0  0  0  0
  153.0681  142.3355  159.7891 C   0  0  0  0  0  0  0  0  0  0  0  0
  146.3500  142.8918  153.9066 C   0  0  0  0  0  0  0  0  0  0  0  0
  143.9148  145.1655  153.1100 H   0  0  0  0  0  0  0  0  0  0  0  0
  144.9369  144.3541  151.9389 H   0  0  0  0  0  0  0  0  0  0  0  0
  145.5691  145.6996  152.8708 H   0  0  0  0  0  0  0  0  0  0  0  0
  144.1785  144.3502  155.8303 H   0  0  0  0  0  0  0  0  0  0  0  0
  147.1228  141.0183  156.5968 H   0  0  0  0  0  0  0  0  0  0  0  0
  147.4390  138.9964  155.2516 H   0  0  0  0  0  0  0  0  0  0  0  0
  146.9727  139.8516  153.7868 H   0  0  0  0  0  0  0  0  0  0  0  0
  145.8038  139.6198  155.0815 H   0  0  0  0  0  0  0  0  0  0  0  0
  148.8913  142.4704  154.9767 H   0  0  0  0  0  0  0  0  0  0  0  0
  148.9310  140.4559  153.4227 H   0  0  0  0  0  0  0  0  0  0  0  0
  149.5349  139.4740  154.7527 H   0  0  0  0  0  0  0  0  0  0  0  0
  150.4984  140.8026  154.1199 H   0  0  0  0  0  0  0  0  0  0  0  0
  148.8156  141.6506  157.3737 H   0  0  0  0  0  0  0  0  0  0  0  0
  151.2460  142.1692  155.7912 H   0  0  0  0  0  0  0  0  0  0  0  0
  150.4089  143.2415  156.8846 H   0  0  0  0  0  0  0  0  0  0  0  0
  153.0875  144.5735  158.3898 H   0  0  0  0  0  0  0  0  0  0  0  0
  151.5152  144.4621  157.6613 H   0  0  0  0  0  0  0  0  0  0  0  0
  151.3836  145.7615  159.7737 H   0  0  0  0  0  0  0  0  0  0  0  0
  150.4335  144.2944  159.9224 H   0  0  0  0  0  0  0  0  0  0  0  0
  151.4241  142.4262  161.1990 H   0  0  0  0  0  0  0  0  0  0  0  0
  153.3873  141.5468  162.4733 H   0  0  0  0  0  0  0  0  0  0  0  0
  152.7575  143.0172  163.2093 H   0  0  0  0  0  0  0  0  0  0  0  0
  154.2293  143.0785  162.2425 H   0  0  0  0  0  0  0  0  0  0  0  0
  153.2254  141.2607  159.8891 H   0  0  0  0  0  0  0  0  0  0  0  0
  154.0582  142.7735  159.6536 H   0  0  0  0  0  0  0  0  0  0  0  0
  146.9710  142.5865  153.0774 H   0  0  0  0  0  0  0  0  0  0  0  0
  1  2  1  0  0  0  0
  1 22  1  0  0  0  0
  1 23  1  0  0  0  0
  1 24  1  0  0  0  0
  2 21  2  0  0  0  0
  2  3  1  0  0  0  0
  3  4  2  0  0  0  0
  3 25  1  0  0  0  0
  4  5  1  0  0  0  0
  5  6  1  0  0  0  0
  5 21  1  0  0  0  0
  6  7  1  0  0  0  0
  6  8  1  0  0  0  0
  6 26  1  0  0  0  0
  7 27  1  0  0  0  0
  7 28  1  0  0  0  0
  7 29  1  0  0  0  0
  8  9  1  0  0  0  0
  8 10  1  0  0  0  0
  8 30  1  0  0  0  0
  9 31  1  0  0  0  0
  9 32  1  0  0  0  0
  9 33  1  0  0  0  0
 10 11  1  0  0  0  0
 10 34  1  0  0  0  0
 11 12  1  0  0  0  0
 11 35  1  0  0  0  0
 11 36  1  0  0  0  0
 12 13  2  0  0  0  0
 12 14  1  0  0  0  0
 14 20  1  0  0  0  0
 14 15  1  0  0  0  0
 15 16  1  0  0  0  0
 15 37  1  0  0  0  0
 15 38  1  0  0  0  0
 16 17  1  0  0  0  0
 16 39  1  0  0  0  0
 16 40  1  0  0  0  0
 17 18  1  0  0  0  0
 18 19  1  0  0  0  0
 18 20  1  0  0  0  0
 18 41  1  0  0  0  0
 19 42  1  0  0  0  0
 19 43  1  0  0  0  0
 19 44  1  0  0  0  0
 20 45  1  0  0  0  0
 20 46  1  0  0  0  0
 21 47  1  0  0  0  0
M  END
> <s_m_source_file>
AV-unprocessed.smi

> <i_m_source_file_index>
3056

> <i_lp_mmshare_version>
43012

> <i_f3d_flags>
0

> <s_epik_input>
W0NIM11jMVtjSF1ubihbY0hdMSlbQ0BIXShbQ0gzXSlbQ0BIXShbQ0gzXSlbTkhdW0NIMl1DKD1PKU4yW0NIMl1bQ0gyXU9bQ0BASF0oW0NIM10pW0NIMl0y

> <s_epik_cmdline>
J2VwaWtfcHl0aG9uJywgJy1waCcsICc3LjAnLCAnLXRuJywgJzgnLCAnLW1hJywgJzIwMCcsICctbWV0YWxfYmluZGluZycsICctaW1hZScsICc8aW5maWxlLm1hZT4nLCAnLW9tYWUnLCAnPG91dGZpbGUubWFlPic=

> <r_lp_tautomer_probability>
1

> <r_epik_Ionization_Penalty>
0.667689

> <r_epik_Ionization_Penalty_Charging>
0

> <r_epik_Ionization_Penalty_Neutral>
0.667689

> <r_epik_State_Penalty>
0.684601

> <r_epik_Charging_Adjusted_Penalty>
0.684601

> <i_epik_Tot_Q>
0

> <i_epik_Tot_abs_Q>
0

> <r_epik_Metal_State_Penalty>
0.681448

> <b_epik_Metal_Only>
0

> <s_lp_Force_Field>
OPLS_2005

> <r_lp_Energy>
30.4655

> <b_lp_Chiralities_Consistent>
1

> <s_lp_Variant>
AV-unprocessed.smi:3056-14

> <Gold.Version>
5.8.1

> <Gold.Id.Protein>
6NUR|6NUR_protein|mol2

> <Gold.PLP.Fitness>
46.8465

> <Gold.PLP.PLP>
-51.0559

> <Gold.PLP.part.hbond>
0.0000

> <Gold.PLP.part.metal>
0.0000

> <Gold.PLP.part.buried>
-6.4992

> <Gold.PLP.part.nonpolar>
-44.6578

> <Gold.PLP.part.repulsive>
0.2802

> <Gold.PLP.ligand.clash>
0.0000

> <Gold.PLP.ligand.torsion>
2.1941

> <Gold.PLP.Chemscore.Hbond>
0.0000

> <Gold.PLP.Chemscore.CHOScore>
0.0000

> <Gold.PLP.Chemscore.Metal>
0.0000

> <Gold.PLP.Chemscore.Internal.Correction>
0.1787

> <Gold.Rescore>
     Score         DG    S(hbond)    S(metal)    S(lipo)     H(rot)  DE(clash)    DE(int)     intcor
     12.77     -14.94       0.00        0.00     117.60       1.68       0.08       2.09       ----

> <Gold.Chemscore.Fitness>
12.7736

> <Gold.Chemscore.DG>
-14.9399

> <Gold.Chemscore.ZeroCoef>
-5.4800

> <Gold.Chemscore.Hbond>
0.0000

> <Gold.Chemscore.Metal>
0.0000

> <Gold.Chemscore.Lipo>
117.5978

> <Gold.Chemscore.Internal_Hbond>
0.0000

> <Gold.Chemscore.DEClash>
0.0771

> <Gold.Chemscore.DEInternal>
2.0892

> <Gold.Chemscore.Rot>
1.6793

> <Gold.Chemscore.Internal.Correction>
   9.000000E+99

> <Gold.Chemscore.Hbond.Weighted>
-0.0000

> <Gold.Chemscore.Metal.Weighted>
-0.0000

> <Gold.Chemscore.Lipo.Weighted>
-13.7589

> <Gold.Chemscore.Internal_Hbond.Weighted>
0.0000

> <Gold.Chemscore.DEClash.Weighted>
0.0771

> <Gold.Chemscore.DEInternal.Weighted>
2.0892

> <Gold.Chemscore.Rot.Weighted>
4.2990

> <Gold.Chemscore.Internal.Correction.Weighted>
   9.000000E+99

> <Gold.Protein.RotatedTorsions>
[ 6907 6896 6895 6894 ] final -108.08 input  -60.11 | X-H torsion
[ 7974 7965 7964 7962 ] final  115.67 input  175.53 | X-H torsion
[ 8008 7997 7996 7995 ] final    5.02 input   59.86 | X-H torsion
[ 10167 10162 10161 10158 ] final   34.19 input  -65.29 | X-H torsion
[ 10718 10713 10712 10709 ] final   91.47 input   66.30 | X-H torsion
[ 10763 10752 10751 10750 ] final   88.76 input  -60.55 | X-H torsion
[ 11005 11000 10999 10996 ] final   65.98 input  -57.11 | X-H torsion

> <Gold.Protein.ActiveResidues>
 VAL166  LYS551  ARG553  GLY616  TRP617  ASP618  TYR619  PRO620  LYS621  CYS622 
 ASP623  PHE694  ASN695  SER759  ASP760  ASP761  ALA762  ILE779  LEU786  VAL792 
 PHE793  MET794  SER795  GLU796  ALA797  LYS798  CYS799  TRP800  GLU811  SER814 

> <Gold.Protein.RotatedAtoms>
  150.7481  133.9731  159.3551 H   0  0  0  0  0  0  0  0  0  0  0  0  # atno 6907 bound_to 6896
  151.7666  135.0795  160.0363 H   0  0  0  0  0  0  0  0  0  0  0  0  # atno 6908 bound_to 6896
  152.3367  133.5983  159.5883 H   0  0  0  0  0  0  0  0  0  0  0  0  # atno 6909 bound_to 6896
  145.1891  139.3010  143.4378 H   0  0  0  0  0  0  0  0  0  0  0  0  # atno 7974 bound_to 7965
  154.7232  140.2716  155.6522 H   0  0  0  0  0  0  0  0  0  0  0  0  # atno 8008 bound_to 7997
  156.2829  140.2730  156.1835 H   0  0  0  0  0  0  0  0  0  0  0  0  # atno 8009 bound_to 7997
  155.0479  140.0371  157.2523 H   0  0  0  0  0  0  0  0  0  0  0  0  # atno 8010 bound_to 7997
  140.4337  144.1287  150.6163 H   0  0  0  0  0  0  0  0  0  0  0  0  # atno 10167 bound_to 10162
  157.6960  131.0408  150.3735 H   0  0  0  0  0  0  0  0  0  0  0  0  # atno 10718 bound_to 10713
  153.1801  135.4495  155.0017 H   0  0  0  0  0  0  0  0  0  0  0  0  # atno 10763 bound_to 10752
  154.8024  135.3261  154.7518 H   0  0  0  0  0  0  0  0  0  0  0  0  # atno 10764 bound_to 10752
  153.7983  135.6964  153.4915 H   0  0  0  0  0  0  0  0  0  0  0  0  # atno 10765 bound_to 10752
  139.9860  134.6667  156.0175 H   0  0  0  0  0  0  0  0  0  0  0  0  # atno 11005 bound_to 11000
  146.3439  140.2097  142.8590 LP  0  0  0  0  0  0  0  0  0  0  0  0  # atno 17320 bound_to 7965
  145.0060  140.8673  143.5253 LP  0  0  0  0  0  0  0  0  0  0  0  0  # atno 17321 bound_to 7965
  140.4397  143.2532  151.9488 LP  0  0  0  0  0  0  0  0  0  0  0  0  # atno 17342 bound_to 10162
  139.4786  144.5666  151.8156 LP  0  0  0  0  0  0  0  0  0  0  0  0  # atno 17343 bound_to 10162
  156.4157  130.3943  149.6860 LP  0  0  0  0  0  0  0  0  0  0  0  0  # atno 17370 bound_to 10713
  156.4129  130.7731  151.2744 LP  0  0  0  0  0  0  0  0  0  0  0  0  # atno 17371 bound_to 10713
  141.1525  133.6546  156.4057 LP  0  0  0  0  0  0  0  0  0  0  0  0  # atno 17394 bound_to 11000
  140.5001  134.6493  157.5245 LP  0  0  0  0  0  0  0  0  0  0  0  0  # atno 17395 bound_to 11000

$$$$
