AV-unprocessed.smi:1904|AV-procd|sdf|7723|dock3
  -GOLD-   22720 9463D 1   1.00000     0.00000
 Structure written by MMmdl.
 50 51  0  0  0  0  0  0  0  0  2 V2000
  152.5775  138.3045  154.7101 C   0  0  0  0  0  0  0  0  0  0  0  0
  151.8911  139.3426  155.5509 C   0  0  0  0  0  0  0  0  0  0  0  0
  152.4833  139.7808  156.6489 N   0  0  0  0  0  0  0  0  0  0  0  0
  151.6232  140.6788  157.1692 N   0  0  0  0  0  0  0  0  0  0  0  0
  151.9693  141.3649  158.3990 C   0  0  0  0  0  0  0  0  0  0  0  0
  150.4807  140.8020  156.4025 C   0  0  0  0  0  0  0  0  0  0  0  0
  149.3665  141.7255  156.7774 C   0  0  0  0  0  0  0  0  0  0  0  0
  150.6196  139.9529  155.3371 C   0  0  0  0  0  0  0  0  0  0  0  0
  149.6602  139.7008  154.2017 C   0  0  0  0  0  0  0  0  0  0  0  0
  148.4191  138.9877  154.7370 C   0  0  0  0  0  0  0  0  0  0  0  0
  147.7814  139.4758  155.6701 O   0  0  0  0  0  0  0  0  0  0  0  0
  148.0986  137.8223  154.1542 N   0  0  0  0  0  0  0  0  0  0  0  0
  146.9959  136.9616  154.5624 C   0  0  0  0  0  0  0  0  0  0  0  0
  145.8660  136.9760  153.5149 C   0  0  0  0  0  0  0  0  0  0  0  0
  145.9682  135.8546  152.5470 N   0  3  2  0  0  0  0  0  0  0  0  0
  144.8231  135.8294  151.6004 C   0  0  0  0  0  0  0  0  0  0  0  0
  145.0171  134.7544  150.5180 C   0  0  0  0  0  0  0  0  0  0  0  0
  145.2247  133.3642  151.1411 C   0  0  1  0  0  0  0  0  0  0  0  0
  145.4554  132.2901  150.0687 C   0  0  0  0  0  0  0  0  0  0  0  0
  146.3895  133.4287  152.1428 C   0  0  0  0  0  0  0  0  0  0  0  0
  146.1650  134.5294  153.1933 C   0  0  0  0  0  0  0  0  0  0  0  0
  152.5134  138.5532  153.6509 H   0  0  0  0  0  0  0  0  0  0  0  0
  152.1175  137.3264  154.8509 H   0  0  0  0  0  0  0  0  0  0  0  0
  153.6344  138.2142  154.9633 H   0  0  0  0  0  0  0  0  0  0  0  0
  151.7993  142.4356  158.2838 H   0  0  0  0  0  0  0  0  0  0  0  0
  153.0189  141.2025  158.6481 H   0  0  0  0  0  0  0  0  0  0  0  0
  151.3492  140.9907  159.2137 H   0  0  0  0  0  0  0  0  0  0  0  0
  148.4851  141.5556  156.1598 H   0  0  0  0  0  0  0  0  0  0  0  0
  149.6694  142.7652  156.6533 H   0  0  0  0  0  0  0  0  0  0  0  0
  149.0734  141.5797  157.8173 H   0  0  0  0  0  0  0  0  0  0  0  0
  149.3503  140.6292  153.7215 H   0  0  0  0  0  0  0  0  0  0  0  0
  150.1235  139.1009  153.4173 H   0  0  0  0  0  0  0  0  0  0  0  0
  148.6766  137.4982  153.3920 H   0  0  0  0  0  0  0  0  0  0  0  0
  147.3527  135.9437  154.7297 H   0  0  0  0  0  0  0  0  0  0  0  0
  146.6413  137.3294  155.5244 H   0  0  0  0  0  0  0  0  0  0  0  0
  144.8885  136.9585  153.9997 H   0  0  0  0  0  0  0  0  0  0  0  0
  145.9203  137.9185  152.9676 H   0  0  0  0  0  0  0  0  0  0  0  0
  143.8984  135.6482  152.1508 H   0  0  0  0  0  0  0  0  0  0  0  0
  144.7197  136.8027  151.1192 H   0  0  0  0  0  0  0  0  0  0  0  0
  144.1505  134.7406  149.8560 H   0  0  0  0  0  0  0  0  0  0  0  0
  145.8751  135.0144  149.8964 H   0  0  0  0  0  0  0  0  0  0  0  0
  144.3191  133.0977  151.6884 H   0  0  0  0  0  0  0  0  0  0  0  0
  146.3508  132.4997  149.4827 H   0  0  0  0  0  0  0  0  0  0  0  0
  144.6120  132.2357  149.3798 H   0  0  0  0  0  0  0  0  0  0  0  0
  145.5762  131.3047  150.5194 H   0  0  0  0  0  0  0  0  0  0  0  0
  146.5074  132.4656  152.6406 H   0  0  0  0  0  0  0  0  0  0  0  0
  147.3242  133.6178  151.6127 H   0  0  0  0  0  0  0  0  0  0  0  0
  147.0253  134.5530  153.8605 H   0  0  0  0  0  0  0  0  0  0  0  0
  145.2958  134.2901  153.8080 H   0  0  0  0  0  0  0  0  0  0  0  0
  146.7897  136.0354  151.9877 H   0  0  0  0  0  0  0  0  0  0  0  0
  1  2  1  0  0  0  0
  1 22  1  0  0  0  0
  1 23  1  0  0  0  0
  1 24  1  0  0  0  0
  2  8  1  0  0  0  0
  2  3  2  0  0  0  0
  3  4  1  0  0  0  0
  4  5  1  0  0  0  0
  4  6  1  0  0  0  0
  5 25  1  0  0  0  0
  5 26  1  0  0  0  0
  5 27  1  0  0  0  0
  6  7  1  0  0  0  0
  6  8  2  0  0  0  0
  7 28  1  0  0  0  0
  7 29  1  0  0  0  0
  7 30  1  0  0  0  0
  8  9  1  0  0  0  0
  9 10  1  0  0  0  0
  9 31  1  0  0  0  0
  9 32  1  0  0  0  0
 10 11  2  0  0  0  0
 10 12  1  0  0  0  0
 12 13  1  0  0  0  0
 12 33  1  0  0  0  0
 13 14  1  0  0  0  0
 13 34  1  0  0  0  0
 13 35  1  0  0  0  0
 14 15  1  0  0  0  0
 14 36  1  0  0  0  0
 14 37  1  0  0  0  0
 15 21  1  0  0  0  0
 15 16  1  0  0  0  0
 15 50  1  0  0  0  0
 16 17  1  0  0  0  0
 16 38  1  0  0  0  0
 16 39  1  0  0  0  0
 17 18  1  0  0  0  0
 17 40  1  0  0  0  0
 17 41  1  0  0  0  0
 18 19  1  0  0  0  0
 18 20  1  0  0  0  0
 18 42  1  0  0  0  0
 19 43  1  0  0  0  0
 19 44  1  0  0  0  0
 19 45  1  0  0  0  0
 20 21  1  0  0  0  0
 20 46  1  0  0  0  0
 20 47  1  0  0  0  0
 21 48  1  0  0  0  0
 21 49  1  0  0  0  0
M  CHG  1  15   1
M  END
> <s_m_source_file>
AV-unprocessed.smi

> <i_m_source_file_index>
1904

> <i_lp_mmshare_version>
43012

> <i_f3d_flags>
0

> <s_epik_input>
W0NIM11jMW5uKFtDSDNdKWMoW0NIM10pYzFbQ0gyXUMoPU8pW05IXVtDSDJdW0NIMl1OMltDSDJdW0NIMl1bQ0hdKFtDSDNdKVtDSDJdW0NIMl0y

> <s_epik_cmdline>
J2VwaWtfcHl0aG9uJywgJy1waCcsICc3LjAnLCAnLXRuJywgJzgnLCAnLW1hJywgJzIwMCcsICctbWV0YWxfYmluZGluZycsICctaW1hZScsICc8aW5maWxlLm1hZT4nLCAnLW9tYWUnLCAnPG91dGZpbGUubWFlPic=

> <r_lp_tautomer_probability>
1

> <r_epik_Ionization_Penalty>
0.00374255

> <r_epik_Ionization_Penalty_Charging>
0.00158211

> <r_epik_Ionization_Penalty_Neutral>
0.00216044

> <r_epik_State_Penalty>
-0

> <r_epik_Charging_Adjusted_Penalty>
0.00158211

> <i_epik_Tot_Q>
1

> <i_epik_Tot_abs_Q>
1

> <r_epik_Metal_State_Penalty>
-0

> <b_epik_Metal_Only>
0

> <s_lp_Force_Field>
OPLS_2005

> <r_lp_Energy>
10.069

> <b_lp_Chiralities_Consistent>
1

> <s_lp_Variant>
AV-unprocessed.smi:1904-1

> <Gold.Version>
5.8.1

> <Gold.Id.Protein>
6NUR|6NUR_protein|mol2

> <Gold.PLP.Fitness>
47.3562

> <Gold.PLP.PLP>
-36.4044

> <Gold.PLP.part.hbond>
-3.0000

> <Gold.PLP.part.metal>
0.0000

> <Gold.PLP.part.buried>
-0.9177

> <Gold.PLP.part.nonpolar>
-31.8044

> <Gold.PLP.part.repulsive>
0.0066

> <Gold.PLP.ligand.clash>
0.0000

> <Gold.PLP.ligand.torsion>
0.4130

> <Gold.PLP.Chemscore.Hbond>
3.8960

> <Gold.PLP.Chemscore.CHOScore>
0.0000

> <Gold.PLP.Chemscore.Metal>
0.0000

> <Gold.Chemscore.Hbonds>
donor molecule, donor type, donor heavy atom, donor atom, acceptor molecule, acceptor atom, score
      L1  H    12    33       P1  7948  1.00
      L1  H    15    50       P1  7948  1.40
      P1  H  7997  8008       L1     3  1.00

> <Gold.PLP.Chemscore.Internal.Correction>
0.0897

> <Gold.Rescore>
     Score         DG    S(hbond)    S(metal)    S(lipo)     H(rot)  DE(clash)    DE(int)     intcor
     20.32     -21.38       2.79        0.00      91.59       1.61       0.55       0.51       ----

> <Gold.Chemscore.Fitness>
20.3195

> <Gold.Chemscore.DG>
-21.3817

> <Gold.Chemscore.ZeroCoef>
-5.4800

> <Gold.Chemscore.Hbond>
2.7899

> <Gold.Chemscore.Metal>
0.0000

> <Gold.Chemscore.Lipo>
91.5893

> <Gold.Chemscore.Internal_Hbond>
0.0000

> <Gold.Chemscore.DEClash>
0.5506

> <Gold.Chemscore.DEInternal>
0.5116

> <Gold.Chemscore.Rot>
1.6142

> <Gold.Chemscore.Internal.Correction>
   9.000000E+99

> <Gold.Chemscore.Hbonds>
donor molecule, donor type, donor heavy atom, donor atom, acceptor molecule, acceptor atom, score
      L1  H    12    33       P1  7948  0.91
      L1  H    15    50       P1  7948  0.65
      P1  H  7997  8008       L1     3  0.68

> <Gold.Chemscore.Hbond.Weighted>
-9.3182

> <Gold.Chemscore.Metal.Weighted>
-0.0000

> <Gold.Chemscore.Lipo.Weighted>
-10.7159

> <Gold.Chemscore.Internal_Hbond.Weighted>
0.0000

> <Gold.Chemscore.DEClash.Weighted>
0.5506

> <Gold.Chemscore.DEInternal.Weighted>
0.5116

> <Gold.Chemscore.Rot.Weighted>
4.1324

> <Gold.Chemscore.Internal.Correction.Weighted>
   9.000000E+99

> <Gold.Protein.RotatedTorsions>
[ 6907 6896 6895 6894 ] final  -14.47 input  -60.11 | X-H torsion
[ 7974 7965 7964 7962 ] final  121.29 input  175.53 | X-H torsion
[ 8008 7997 7996 7995 ] final  -36.05 input   59.86 | X-H torsion
[ 10167 10162 10161 10158 ] final -134.29 input  -65.29 | X-H torsion
[ 10718 10713 10712 10709 ] final  -62.08 input   66.30 | X-H torsion
[ 10763 10752 10751 10750 ] final   16.87 input  -60.55 | X-H torsion
[ 11005 11000 10999 10996 ] final -152.30 input  -57.11 | X-H torsion

> <Gold.Protein.ActiveResidues>
 VAL166  LYS551  ARG553  GLY616  TRP617  ASP618  TYR619  PRO620  LYS621  CYS622 
 ASP623  PHE694  ASN695  SER759  ASP760  ASP761  ALA762  ILE779  LEU786  VAL792 
 PHE793  MET794  SER795  GLU796  ALA797  LYS798  CYS799  TRP800  GLU811  SER814 

> <Gold.Protein.RotatedAtoms>
  151.3389  135.0859  159.9363 H   0  0  0  0  0  0  0  0  0  0  0  0  # atno 6907 bound_to 6896
  152.5216  133.9467  159.7663 H   0  0  0  0  0  0  0  0  0  0  0  0  # atno 6908 bound_to 6896
  150.9820  133.6182  159.2751 H   0  0  0  0  0  0  0  0  0  0  0  0  # atno 6909 bound_to 6896
  145.1211  139.3388  143.4714 H   0  0  0  0  0  0  0  0  0  0  0  0  # atno 7974 bound_to 7965
  154.4081  140.1641  156.2311 H   0  0  0  0  0  0  0  0  0  0  0  0  # atno 8008 bound_to 7997
  155.9281  140.3416  155.6204 H   0  0  0  0  0  0  0  0  0  0  0  0  # atno 8009 bound_to 7997
  155.7139  140.0760  157.2350 H   0  0  0  0  0  0  0  0  0  0  0  0  # atno 8010 bound_to 7997
  139.8895  143.6740  152.2614 H   0  0  0  0  0  0  0  0  0  0  0  0  # atno 10167 bound_to 10162
  156.0879  130.4205  150.1084 H   0  0  0  0  0  0  0  0  0  0  0  0  # atno 10718 bound_to 10713
  153.1391  135.6756  153.9055 H   0  0  0  0  0  0  0  0  0  0  0  0  # atno 10763 bound_to 10752
  153.8518  135.3092  155.3434 H   0  0  0  0  0  0  0  0  0  0  0  0  # atno 10764 bound_to 10752
  154.7772  135.4908  153.9853 H   0  0  0  0  0  0  0  0  0  0  0  0  # atno 10765 bound_to 10752
  140.7203  134.3734  157.5184 H   0  0  0  0  0  0  0  0  0  0  0  0  # atno 11005 bound_to 11000
  146.3521  140.1170  142.8601 LP  0  0  0  0  0  0  0  0  0  0  0  0  # atno 17320 bound_to 7965
  145.0739  140.9175  143.4865 LP  0  0  0  0  0  0  0  0  0  0  0  0  # atno 17321 bound_to 7965
  139.7122  144.7618  151.1092 LP  0  0  0  0  0  0  0  0  0  0  0  0  # atno 17342 bound_to 10162
  140.7729  143.5315  150.9417 LP  0  0  0  0  0  0  0  0  0  0  0  0  # atno 17343 bound_to 10162
  156.9101  130.9649  151.3564 LP  0  0  0  0  0  0  0  0  0  0  0  0  # atno 17370 bound_to 10713
  157.6019  130.8519  149.8815 LP  0  0  0  0  0  0  0  0  0  0  0  0  # atno 17371 bound_to 10713
  139.8850  134.8950  156.2672 LP  0  0  0  0  0  0  0  0  0  0  0  0  # atno 17394 bound_to 11000
  141.0009  133.7152  156.0958 LP  0  0  0  0  0  0  0  0  0  0  0  0  # atno 17395 bound_to 11000

$$$$
