AV-unprocessed.smi:2638|AV-procd|sdf|10262|dock4
  -GOLD-   2272014273D 1   1.00000     0.00000
 Structure written by MMmdl.
 43 44  0  0  0  0  0  0  0  0  1 V2000
  145.1203  136.8800  153.6477 O   0  0  0  0  0  0  0  0  0  0  0  0
  146.2259  136.6762  153.1450 C   0  0  0  0  0  0  0  0  0  0  0  0
  146.5360  135.6422  152.3436 N   0  0  0  0  0  0  0  0  0  0  0  0
  145.6889  134.5954  151.8927 C   0  0  0  0  0  0  0  0  0  0  0  0
  146.3596  133.4420  151.4270 C   0  0  0  0  0  0  0  0  0  0  0  0
  145.6095  132.3476  150.9546 C   0  0  0  0  0  0  0  0  0  0  0  0
  144.2060  132.4344  150.9611 C   0  0  0  0  0  0  0  0  0  0  0  0
  143.6172  133.6181  151.4429 C   0  0  0  0  0  0  0  0  0  0  0  0
  144.3342  134.6682  151.8952 N   0  0  0  0  0  0  0  0  0  0  0  0
  147.2875  137.4758  153.3304 N   0  0  0  0  0  0  0  0  0  0  0  0
  147.3111  138.7134  154.1143 C   0  0  2  0  0  0  0  0  0  0  0  0
  147.1252  139.9263  153.1659 C   0  0  0  0  0  0  0  0  0  0  0  0
  146.3920  139.6257  151.8431 C   0  0  0  0  0  0  0  0  0  0  0  0
  147.0828  138.6673  151.0680 O   0  0  0  0  0  0  0  0  0  0  0  0
  148.6169  138.7803  154.9600 C   0  0  0  0  0  0  0  0  0  0  0  0
  148.6792  140.0530  155.8443 C   0  0  0  0  0  0  0  0  0  0  0  0
  149.9649  140.1231  156.6829 C   0  0  0  0  0  0  0  0  0  0  0  0
  151.2121  140.0469  155.7944 C   0  0  0  0  0  0  0  0  0  0  0  0
  151.1823  138.7809  154.9295 C   0  0  0  0  0  0  0  0  0  0  0  0
  149.8965  138.7045  154.0900 C   0  0  0  0  0  0  0  0  0  0  0  0
  147.4864  135.6077  152.0056 H   0  0  0  0  0  0  0  0  0  0  0  0
  147.4389  133.3924  151.4286 H   0  0  0  0  0  0  0  0  0  0  0  0
  146.1037  131.4578  150.5938 H   0  0  0  0  0  0  0  0  0  0  0  0
  143.5967  131.6164  150.6064 H   0  0  0  0  0  0  0  0  0  0  0  0
  142.5429  133.7258  151.4654 H   0  0  0  0  0  0  0  0  0  0  0  0
  148.1506  137.2215  152.8727 H   0  0  0  0  0  0  0  0  0  0  0  0
  146.4715  138.7183  154.8117 H   0  0  0  0  0  0  0  0  0  0  0  0
  146.5277  140.6788  153.6773 H   0  0  0  0  0  0  0  0  0  0  0  0
  148.0858  140.4005  152.9590 H   0  0  0  0  0  0  0  0  0  0  0  0
  145.3730  139.2860  152.0302 H   0  0  0  0  0  0  0  0  0  0  0  0
  146.3188  140.5362  151.2482 H   0  0  0  0  0  0  0  0  0  0  0  0
  148.0065  138.8651  151.0995 H   0  0  0  0  0  0  0  0  0  0  0  0
  148.6217  137.9176  155.6284 H   0  0  0  0  0  0  0  0  0  0  0  0
  148.6082  140.9398  155.2130 H   0  0  0  0  0  0  0  0  0  0  0  0
  147.8307  140.0953  156.5264 H   0  0  0  0  0  0  0  0  0  0  0  0
  149.9790  141.0457  157.2638 H   0  0  0  0  0  0  0  0  0  0  0  0
  149.9768  139.3045  157.4037 H   0  0  0  0  0  0  0  0  0  0  0  0
  151.2629  140.9290  155.1548 H   0  0  0  0  0  0  0  0  0  0  0  0
  152.1113  140.0572  156.4110 H   0  0  0  0  0  0  0  0  0  0  0  0
  152.0543  138.7595  154.2753 H   0  0  0  0  0  0  0  0  0  0  0  0
  151.2542  137.8996  155.5681 H   0  0  0  0  0  0  0  0  0  0  0  0
  149.9273  137.7756  153.5230 H   0  0  0  0  0  0  0  0  0  0  0  0
  149.8915  139.5138  153.3585 H   0  0  0  0  0  0  0  0  0  0  0  0
  1  2  2  0  0  0  0
  2  3  1  0  0  0  0
  2 10  1  0  0  0  0
  3  4  1  0  0  0  0
  3 21  1  0  0  0  0
  4  9  1  0  0  0  0
  4  5  2  0  0  0  0
  5  6  1  0  0  0  0
  5 22  1  0  0  0  0
  6  7  2  0  0  0  0
  6 23  1  0  0  0  0
  7  8  1  0  0  0  0
  7 24  1  0  0  0  0
  8  9  2  0  0  0  0
  8 25  1  0  0  0  0
 10 11  1  0  0  0  0
 10 26  1  0  0  0  0
 11 12  1  0  0  0  0
 11 15  1  0  0  0  0
 11 27  1  0  0  0  0
 12 13  1  0  0  0  0
 12 28  1  0  0  0  0
 12 29  1  0  0  0  0
 13 14  1  0  0  0  0
 13 30  1  0  0  0  0
 13 31  1  0  0  0  0
 14 32  1  0  0  0  0
 15 20  1  0  0  0  0
 15 16  1  0  0  0  0
 15 33  1  0  0  0  0
 16 17  1  0  0  0  0
 16 34  1  0  0  0  0
 16 35  1  0  0  0  0
 17 18  1  0  0  0  0
 17 36  1  0  0  0  0
 17 37  1  0  0  0  0
 18 19  1  0  0  0  0
 18 38  1  0  0  0  0
 18 39  1  0  0  0  0
 19 20  1  0  0  0  0
 19 40  1  0  0  0  0
 19 41  1  0  0  0  0
 20 42  1  0  0  0  0
 20 43  1  0  0  0  0
M  END
> <s_m_source_file>
AV-unprocessed.smi

> <i_m_source_file_index>
2638

> <i_lp_mmshare_version>
43012

> <i_f3d_flags>
0

> <s_epik_input>
bjFbY0hdW2NIXVtjSF1bY0hdYzFbTkhdQyg9TylbTkhdW0NASF0oW0NIMl1bQ0gyXVtPSF0pW0NIXTJbQ0gyXVtDSDJdW0NIMl1bQ0gyXVtDSDJdMg==

> <s_epik_cmdline>
J2VwaWtfcHl0aG9uJywgJy1waCcsICc3LjAnLCAnLXRuJywgJzgnLCAnLW1hJywgJzIwMCcsICctbWV0YWxfYmluZGluZycsICctaW1hZScsICc8aW5maWxlLm1hZT4nLCAnLW9tYWUnLCAnPG91dGZpbGUubWFlPic=

> <r_lp_tautomer_probability>
1

> <r_epik_Ionization_Penalty>
5.22449e-05

> <r_epik_Ionization_Penalty_Charging>
0

> <r_epik_Ionization_Penalty_Neutral>
5.22449e-05

> <r_epik_State_Penalty>
-0

> <r_epik_Charging_Adjusted_Penalty>
0

> <i_epik_Tot_Q>
0

> <i_epik_Tot_abs_Q>
0

> <r_epik_Metal_State_Penalty>
-0

> <b_epik_Metal_Only>
0

> <s_lp_Force_Field>
OPLS_2005

> <r_lp_Energy>
19.3621

> <b_lp_Chiralities_Consistent>
1

> <s_lp_Variant>
AV-unprocessed.smi:2638-1

> <Gold.Version>
5.8.1

> <Gold.Id.Protein>
6NUR|6NUR_protein|mol2

> <Gold.PLP.Fitness>
41.9566

> <Gold.PLP.PLP>
-31.6381

> <Gold.PLP.part.hbond>
-4.6700

> <Gold.PLP.part.metal>
0.0000

> <Gold.PLP.part.buried>
-0.0923

> <Gold.PLP.part.nonpolar>
-27.1225

> <Gold.PLP.part.repulsive>
0.2895

> <Gold.PLP.ligand.clash>
0.0000

> <Gold.PLP.ligand.torsion>
0.8242

> <Gold.PLP.Chemscore.Hbond>
2.9920

> <Gold.PLP.Chemscore.CHOScore>
0.9818

> <Gold.PLP.Chemscore.Metal>
0.0000

> <Gold.Chemscore.Hbonds>
donor molecule, donor type, donor heavy atom, donor atom, acceptor molecule, acceptor atom, score
      L1  H     3    21       P1  7948  1.00
      L1  H    10    26       P1  7948  0.99
      L1  H    14    32       P1  7957  1.00
      L1  C     8    25       P1 10186  0.95

> <Gold.PLP.Chemscore.Internal.Correction>
0.0456

> <Gold.Rescore>
     Score         DG    S(hbond)    S(metal)    S(lipo)     H(rot)  DE(clash)    DE(int)     intcor
     13.22     -17.57       2.73        0.00      75.64       2.30       0.80       3.54       ----

> <Gold.Chemscore.Fitness>
13.2238

> <Gold.Chemscore.DG>
-17.5651

> <Gold.Chemscore.ZeroCoef>
-5.4800

> <Gold.Chemscore.Hbond>
2.7292

> <Gold.Chemscore.Metal>
0.0000

> <Gold.Chemscore.Lipo>
75.6441

> <Gold.Chemscore.Internal_Hbond>
0.0000

> <Gold.Chemscore.DEClash>
0.7978

> <Gold.Chemscore.DEInternal>
3.5435

> <Gold.Chemscore.Rot>
2.2972

> <Gold.Chemscore.Internal.Correction>
   9.000000E+99

> <Gold.Chemscore.Hbonds>
donor molecule, donor type, donor heavy atom, donor atom, acceptor molecule, acceptor atom, score
      L1  H     3    21       P1  7948  0.94
      L1  H    10    26       P1  7948  0.94
      L1  H    14    32       P1  7957  0.25

> <Gold.Chemscore.Hbond.Weighted>
-9.1155

> <Gold.Chemscore.Metal.Weighted>
-0.0000

> <Gold.Chemscore.Lipo.Weighted>
-8.8504

> <Gold.Chemscore.Internal_Hbond.Weighted>
0.0000

> <Gold.Chemscore.DEClash.Weighted>
0.7978

> <Gold.Chemscore.DEInternal.Weighted>
3.5435

> <Gold.Chemscore.Rot.Weighted>
5.8807

> <Gold.Chemscore.Internal.Correction.Weighted>
   9.000000E+99

> <Gold.Protein.RotatedTorsions>
[ 6907 6896 6895 6894 ] final  -59.27 input  -60.11 | X-H torsion
[ 7974 7965 7964 7962 ] final  145.47 input  175.53 | X-H torsion
[ 8008 7997 7996 7995 ] final  -59.71 input   59.86 | X-H torsion
[ 10167 10162 10161 10158 ] final  -71.70 input  -65.29 | X-H torsion
[ 10718 10713 10712 10709 ] final  -85.32 input   66.30 | X-H torsion
[ 10763 10752 10751 10750 ] final -128.07 input  -60.55 | X-H torsion
[ 11005 11000 10999 10996 ] final -132.35 input  -57.11 | X-H torsion

> <Gold.Protein.ActiveResidues>
 VAL166  LYS551  ARG553  GLY616  TRP617  ASP618  TYR619  PRO620  LYS621  CYS622 
 ASP623  PHE694  ASN695  SER759  ASP760  ASP761  ALA762  ILE779  LEU786  VAL792 
 PHE793  MET794  SER795  GLU796  ALA797  LYS798  CYS799  TRP800  GLU811  SER814 

> <Gold.Protein.RotatedAtoms>
  150.7943  134.6990  159.6539 H   0  0  0  0  0  0  0  0  0  0  0  0  # atno 6907 bound_to 6896
  152.4053  134.6214  160.0061 H   0  0  0  0  0  0  0  0  0  0  0  0  # atno 6908 bound_to 6896
  151.6473  133.3286  159.3180 H   0  0  0  0  0  0  0  0  0  0  0  0  # atno 6909 bound_to 6896
  144.8750  139.5787  143.5869 H   0  0  0  0  0  0  0  0  0  0  0  0  # atno 7974 bound_to 7965
  154.4365  140.1055  156.6159 H   0  0  0  0  0  0  0  0  0  0  0  0  # atno 8008 bound_to 7997
  155.5759  140.3490  155.4509 H   0  0  0  0  0  0  0  0  0  0  0  0  # atno 8009 bound_to 7997
  156.0355  140.1270  157.0202 H   0  0  0  0  0  0  0  0  0  0  0  0  # atno 8010 bound_to 7997
  140.5252  143.2327  151.7360 H   0  0  0  0  0  0  0  0  0  0  0  0  # atno 10167 bound_to 10162
  155.9998  130.4727  150.4545 H   0  0  0  0  0  0  0  0  0  0  0  0  # atno 10718 bound_to 10713
  154.8755  135.3940  154.3697 H   0  0  0  0  0  0  0  0  0  0  0  0  # atno 10763 bound_to 10752
  153.4459  135.7027  153.6145 H   0  0  0  0  0  0  0  0  0  0  0  0  # atno 10764 bound_to 10752
  153.4706  135.3791  155.2357 H   0  0  0  0  0  0  0  0  0  0  0  0  # atno 10765 bound_to 10752
  140.9178  134.1484  157.4339 H   0  0  0  0  0  0  0  0  0  0  0  0  # atno 11005 bound_to 11000
  146.2956  139.7269  142.9129 LP  0  0  0  0  0  0  0  0  0  0  0  0  # atno 17320 bound_to 7965
  145.4060  141.0391  143.3044 LP  0  0  0  0  0  0  0  0  0  0  0  0  # atno 17321 bound_to 7965
  139.4936  144.4196  151.9992 LP  0  0  0  0  0  0  0  0  0  0  0  0  # atno 17342 bound_to 10162
  140.3295  144.3333  150.5990 LP  0  0  0  0  0  0  0  0  0  0  0  0  # atno 17343 bound_to 10162
  157.2574  131.0559  151.2341 LP  0  0  0  0  0  0  0  0  0  0  0  0  # atno 17370 bound_to 10713
  157.3468  130.7061  149.6416 LP  0  0  0  0  0  0  0  0  0  0  0  0  # atno 17371 bound_to 10713
  139.8769  134.9960  156.5772 LP  0  0  0  0  0  0  0  0  0  0  0  0  # atno 17394 bound_to 11000
  140.8027  133.8492  155.8741 LP  0  0  0  0  0  0  0  0  0  0  0  0  # atno 17395 bound_to 11000

$$$$
