AV-unprocessed.smi:2052|AV-procd|sdf|8328|dock6
  -GOLD-   2272010593D 1   1.00000     0.00000
 Structure written by MMmdl.
 41 42  0  0  0  0  0  0  0  0  1 V2000
  143.8724  144.3847  155.7663 C   0  0  0  0  0  0  0  0  0  0  0  0
  144.5073  142.6891  155.8682 S   0  0  0  0  0  0  0  0  0  0  0  0
  146.0879  142.8623  154.9879 C   0  0  2  0  0  0  0  0  0  0  0  0
  145.8633  143.5001  153.6077 C   0  0  0  0  0  0  0  0  0  0  0  0
  146.8239  141.5230  154.8619 C   0  0  0  0  0  0  0  0  0  0  0  0
  146.2828  140.4780  155.2247 O   0  0  0  0  0  0  0  0  0  0  0  0
  148.0593  141.5660  154.3390 N   0  0  0  0  0  0  0  0  0  0  0  0
  148.8997  140.3998  154.0860 C   0  0  0  0  0  0  0  0  0  0  0  0
  150.1068  140.2796  155.0077 C   0  0  0  0  0  0  0  0  0  0  0  0
  150.9382  139.1457  154.9273 C   0  0  0  0  0  0  0  0  0  0  0  0
  152.0424  139.0598  155.7950 C   0  0  0  0  0  0  0  0  0  0  0  0
  152.3475  140.0115  156.7016 N   0  0  0  0  0  0  0  0  0  0  0  0
  151.5570  141.1097  156.7893 C   0  0  0  0  0  0  0  0  0  0  0  0
  151.8917  142.1047  157.7329 N   0  0  0  0  0  0  0  0  0  0  0  0
  151.2934  143.4289  157.5746 C   0  0  0  0  0  0  0  0  0  0  0  0
  151.9830  144.4418  158.5041 C   0  0  0  0  0  0  0  0  0  0  0  0
  151.9306  143.9728  159.8473 O   0  0  0  0  0  0  0  0  0  0  0  0
  152.6129  142.7329  160.0024 C   0  0  0  0  0  0  0  0  0  0  0  0
  151.9492  141.6591  159.1232 C   0  0  0  0  0  0  0  0  0  0  0  0
  150.4183  141.2711  155.9652 C   0  0  0  0  0  0  0  0  0  0  0  0
  142.8847  144.4417  156.2238 H   0  0  0  0  0  0  0  0  0  0  0  0
  143.7891  144.6990  154.7260 H   0  0  0  0  0  0  0  0  0  0  0  0
  144.5321  145.0770  156.2892 H   0  0  0  0  0  0  0  0  0  0  0  0
  146.7068  143.5484  155.5682 H   0  0  0  0  0  0  0  0  0  0  0  0
  146.8010  143.6002  153.0592 H   0  0  0  0  0  0  0  0  0  0  0  0
  145.4348  144.4977  153.7062 H   0  0  0  0  0  0  0  0  0  0  0  0
  145.1806  142.9077  152.9971 H   0  0  0  0  0  0  0  0  0  0  0  0
  148.4324  142.4650  154.0709 H   0  0  0  0  0  0  0  0  0  0  0  0
  148.2868  139.5067  154.2091 H   0  0  0  0  0  0  0  0  0  0  0  0
  149.2306  140.4066  153.0459 H   0  0  0  0  0  0  0  0  0  0  0  0
  150.7373  138.3574  154.2166 H   0  0  0  0  0  0  0  0  0  0  0  0
  152.6998  138.2038  155.7601 H   0  0  0  0  0  0  0  0  0  0  0  0
  151.3868  143.7646  156.5409 H   0  0  0  0  0  0  0  0  0  0  0  0
  150.2288  143.3749  157.8062 H   0  0  0  0  0  0  0  0  0  0  0  0
  153.0196  144.6031  158.2038 H   0  0  0  0  0  0  0  0  0  0  0  0
  151.4808  145.4074  158.4448 H   0  0  0  0  0  0  0  0  0  0  0  0
  153.6666  142.8497  159.7439 H   0  0  0  0  0  0  0  0  0  0  0  0
  152.5740  142.4356  161.0503 H   0  0  0  0  0  0  0  0  0  0  0  0
  150.9338  141.4674  159.4725 H   0  0  0  0  0  0  0  0  0  0  0  0
  152.5003  140.7256  159.2281 H   0  0  0  0  0  0  0  0  0  0  0  0
  149.7857  142.1394  156.0714 H   0  0  0  0  0  0  0  0  0  0  0  0
  1  2  1  0  0  0  0
  1 21  1  0  0  0  0
  1 22  1  0  0  0  0
  1 23  1  0  0  0  0
  2  3  1  0  0  0  0
  3  4  1  0  0  0  0
  3  5  1  0  0  0  0
  3 24  1  0  0  0  0
  4 25  1  0  0  0  0
  4 26  1  0  0  0  0
  4 27  1  0  0  0  0
  5  6  2  0  0  0  0
  5  7  1  0  0  0  0
  7  8  1  0  0  0  0
  7 28  1  0  0  0  0
  8  9  1  0  0  0  0
  8 29  1  0  0  0  0
  8 30  1  0  0  0  0
  9 20  1  0  0  0  0
  9 10  2  0  0  0  0
 10 11  1  0  0  0  0
 10 31  1  0  0  0  0
 11 12  2  0  0  0  0
 11 32  1  0  0  0  0
 12 13  1  0  0  0  0
 13 14  1  0  0  0  0
 13 20  2  0  0  0  0
 14 19  1  0  0  0  0
 14 15  1  0  0  0  0
 15 16  1  0  0  0  0
 15 33  1  0  0  0  0
 15 34  1  0  0  0  0
 16 17  1  0  0  0  0
 16 35  1  0  0  0  0
 16 36  1  0  0  0  0
 17 18  1  0  0  0  0
 18 19  1  0  0  0  0
 18 37  1  0  0  0  0
 18 38  1  0  0  0  0
 19 39  1  0  0  0  0
 19 40  1  0  0  0  0
 20 41  1  0  0  0  0
M  END
> <s_m_source_file>
AV-unprocessed.smi

> <i_m_source_file_index>
2052

> <i_lp_mmshare_version>
43012

> <i_f3d_flags>
0

> <s_epik_input>
W0NIM11TW0NASF0oW0NIM10pQyg9TylbTkhdW0NIMl1jMVtjSF1bY0hdbmMoW2NIXTEpTjJbQ0gyXVtDSDJdT1tDSDJdW0NIMl0y

> <s_epik_cmdline>
J2VwaWtfcHl0aG9uJywgJy1waCcsICc3LjAnLCAnLXRuJywgJzgnLCAnLW1hJywgJzIwMCcsICctbWV0YWxfYmluZGluZycsICctaW1hZScsICc8aW5maWxlLm1hZT4nLCAnLW9tYWUnLCAnPG91dGZpbGUubWFlPic=

> <r_lp_tautomer_probability>
1

> <r_epik_Ionization_Penalty>
0.00463955

> <r_epik_Ionization_Penalty_Charging>
0

> <r_epik_Ionization_Penalty_Neutral>
0.00463955

> <r_epik_State_Penalty>
0.00335544

> <r_epik_Charging_Adjusted_Penalty>
0.00335544

> <i_epik_Tot_Q>
0

> <i_epik_Tot_abs_Q>
0

> <r_epik_Metal_State_Penalty>
-0

> <b_epik_Metal_Only>
0

> <s_lp_Force_Field>
OPLS_2005

> <r_lp_Energy>
14.3355

> <b_lp_Chiralities_Consistent>
1

> <s_lp_Variant>
AV-unprocessed.smi:2052-1

> <Gold.Version>
5.8.1

> <Gold.Id.Protein>
6NUR|6NUR_protein|mol2

> <Gold.PLP.Fitness>
42.8811

> <Gold.PLP.PLP>
-40.2195

> <Gold.PLP.part.hbond>
-1.0000

> <Gold.PLP.part.metal>
0.0000

> <Gold.PLP.part.buried>
-2.6094

> <Gold.PLP.part.nonpolar>
-36.2942

> <Gold.PLP.part.repulsive>
0.2774

> <Gold.PLP.ligand.clash>
0.0000

> <Gold.PLP.ligand.torsion>
0.3594

> <Gold.PLP.Chemscore.Hbond>
1.0000

> <Gold.PLP.Chemscore.CHOScore>
0.0000

> <Gold.PLP.Chemscore.Metal>
0.0000

> <Gold.Chemscore.Hbonds>
donor molecule, donor type, donor heavy atom, donor atom, acceptor molecule, acceptor atom, score
      P1  H  7997  8010       L1    12  1.00

> <Gold.PLP.Chemscore.Internal.Correction>
0.3804

> <Gold.Rescore>
     Score         DG    S(hbond)    S(metal)    S(lipo)     H(rot)  DE(clash)    DE(int)     intcor
     13.95     -15.66       0.85        0.00      99.13       1.67       1.48       0.23       ----

> <Gold.Chemscore.Fitness>
13.9482

> <Gold.Chemscore.DG>
-15.6605

> <Gold.Chemscore.ZeroCoef>
-5.4800

> <Gold.Chemscore.Hbond>
0.8541

> <Gold.Chemscore.Metal>
0.0000

> <Gold.Chemscore.Lipo>
99.1324

> <Gold.Chemscore.Internal_Hbond>
0.0000

> <Gold.Chemscore.DEClash>
1.4825

> <Gold.Chemscore.DEInternal>
0.2297

> <Gold.Chemscore.Rot>
1.6682

> <Gold.Chemscore.Internal.Correction>
   9.000000E+99

> <Gold.Chemscore.Hbonds>
donor molecule, donor type, donor heavy atom, donor atom, acceptor molecule, acceptor atom, score
      P1  H  7997  8010       L1    12  0.24

> <Gold.Chemscore.Hbond.Weighted>
-2.8527

> <Gold.Chemscore.Metal.Weighted>
-0.0000

> <Gold.Chemscore.Lipo.Weighted>
-11.5985

> <Gold.Chemscore.Internal_Hbond.Weighted>
0.0000

> <Gold.Chemscore.DEClash.Weighted>
1.4825

> <Gold.Chemscore.DEInternal.Weighted>
0.2297

> <Gold.Chemscore.Rot.Weighted>
4.2707

> <Gold.Chemscore.Internal.Correction.Weighted>
   9.000000E+99

> <Gold.Protein.RotatedTorsions>
[ 6907 6896 6895 6894 ] final  153.53 input  -60.11 | X-H torsion
[ 7974 7965 7964 7962 ] final -114.17 input  175.53 | X-H torsion
[ 8008 7997 7996 7995 ] final   74.23 input   59.86 | X-H torsion
[ 10167 10162 10161 10158 ] final  142.88 input  -65.29 | X-H torsion
[ 10718 10713 10712 10709 ] final  -68.98 input   66.30 | X-H torsion
[ 10763 10752 10751 10750 ] final  134.18 input  -60.55 | X-H torsion
[ 11005 11000 10999 10996 ] final  117.73 input  -57.11 | X-H torsion

> <Gold.Protein.ActiveResidues>
 VAL166  LYS551  ARG553  GLY616  TRP617  ASP618  TYR619  PRO620  LYS621  CYS622 
 ASP623  PHE694  ASN695  SER759  ASP760  ASP761  ALA762  ILE779  LEU786  VAL792 
 PHE793  MET794  SER795  GLU796  ALA797  LYS798  CYS799  TRP800  GLU811  SER814 

> <Gold.Protein.RotatedAtoms>
  152.0714  133.4108  159.4460 H   0  0  0  0  0  0  0  0  0  0  0  0  # atno 6907 bound_to 6896
  150.6863  134.3087  159.4746 H   0  0  0  0  0  0  0  0  0  0  0  0  # atno 6908 bound_to 6896
  152.0919  134.9400  160.0622 H   0  0  0  0  0  0  0  0  0  0  0  0  # atno 6909 bound_to 6896
  145.1233  140.8682  143.3801 H   0  0  0  0  0  0  0  0  0  0  0  0  # atno 7974 bound_to 7965
  155.7953  140.3478  155.5372 H   0  0  0  0  0  0  0  0  0  0  0  0  # atno 8008 bound_to 7997
  155.8592  140.0968  157.1645 H   0  0  0  0  0  0  0  0  0  0  0  0  # atno 8009 bound_to 7997
  154.4011  140.1361  156.3927 H   0  0  0  0  0  0  0  0  0  0  0  0  # atno 8010 bound_to 7997
  139.4983  144.6078  151.6340 H   0  0  0  0  0  0  0  0  0  0  0  0  # atno 10167 bound_to 10162
  156.0478  130.4304  150.2080 H   0  0  0  0  0  0  0  0  0  0  0  0  # atno 10718 bound_to 10713
  153.8194  135.3118  155.3409 H   0  0  0  0  0  0  0  0  0  0  0  0  # atno 10763 bound_to 10752
  154.8019  135.4721  154.0299 H   0  0  0  0  0  0  0  0  0  0  0  0  # atno 10764 bound_to 10752
  153.1703  135.6876  153.8706 H   0  0  0  0  0  0  0  0  0  0  0  0  # atno 10765 bound_to 10752
  139.9084  134.9613  156.7395 H   0  0  0  0  0  0  0  0  0  0  0  0  # atno 11005 bound_to 11000
  145.0716  139.3027  143.5829 LP  0  0  0  0  0  0  0  0  0  0  0  0  # atno 17320 bound_to 7965
  146.3519  140.0192  142.8660 LP  0  0  0  0  0  0  0  0  0  0  0  0  # atno 17321 bound_to 7965
  140.5744  144.0054  150.6234 LP  0  0  0  0  0  0  0  0  0  0  0  0  # atno 17342 bound_to 10162
  140.3182  143.3154  152.0811 LP  0  0  0  0  0  0  0  0  0  0  0  0  # atno 17343 bound_to 10162
  157.0167  130.9967  151.3351 LP  0  0  0  0  0  0  0  0  0  0  0  0  # atno 17370 bound_to 10713
  157.5373  130.8097  149.7986 LP  0  0  0  0  0  0  0  0  0  0  0  0  # atno 17371 bound_to 10713
  140.6861  133.9431  155.7939 LP  0  0  0  0  0  0  0  0  0  0  0  0  # atno 17394 bound_to 11000
  141.0475  134.0532  157.3825 LP  0  0  0  0  0  0  0  0  0  0  0  0  # atno 17395 bound_to 11000

$$$$
