AV-unprocessed.smi:240|AV-procd|sdf|1829|dock3
  -GOLD-   2262020433D 1   1.00000     0.00000
 Structure written by MMmdl.
 55 59  0  0  0  0  0  0  0  0  1 V2000
  148.4709  142.8820  154.1527 O   0  0  0  0  0  0  0  0  0  0  0  0
  147.7225  141.9452  154.9075 C   0  0  1  0  0  0  0  0  0  0  0  0
  146.7040  141.2768  153.9825 C   0  0  0  0  0  0  0  0  0  0  0  0
  147.4587  140.1265  153.3095 C   0  0  0  0  0  0  0  0  0  0  0  0
  148.7395  139.9144  154.1295 C   0  0  0  0  0  0  0  0  0  0  0  0
  148.6075  140.7807  155.3997 C   0  0  1  0  0  0  0  0  0  0  0  0
  149.9331  141.1950  156.1236 C   0  0  1  0  0  0  0  0  0  0  0  0
  149.6400  142.2743  157.2006 C   0  0  0  0  0  0  0  0  0  0  0  0
  150.8192  142.6398  157.9056 O   0  0  0  0  0  0  0  0  0  0  0  0
  151.3705  141.5383  158.6090 C   0  0  0  0  0  0  0  0  0  0  0  0
  151.7745  140.4702  157.5893 C   0  0  0  0  0  0  0  0  0  0  0  0
  150.6252  140.0717  156.7812 N   0  0  0  0  0  0  0  0  0  0  0  0
  150.9650  139.0099  156.0188 C   0  0  0  0  0  0  0  0  0  0  0  0
  151.8181  139.2391  154.9903 N   0  0  0  0  0  0  0  0  0  0  0  0
  152.1876  138.2318  154.1935 C   0  0  0  0  0  0  0  0  0  0  0  0
  151.8216  136.9490  154.2442 N   0  0  0  0  0  0  0  0  0  0  0  0
  150.9511  136.7201  155.2693 C   0  0  0  0  0  0  0  0  0  0  0  0
  150.4717  137.6861  156.1976 C   0  0  0  0  0  0  0  0  0  0  0  0
  149.6012  137.0866  157.0995 N   0  0  0  0  0  0  0  0  0  0  0  0
  149.5702  135.8361  156.7271 C   0  0  0  0  0  0  0  0  0  0  0  0
  150.3448  135.5299  155.6306 N   0  0  0  0  0  0  0  0  0  0  0  0
  150.4884  134.2257  155.0017 C   0  0  0  0  0  0  0  0  0  0  0  0
  149.1438  133.6168  154.5404 C   0  0  1  0  0  0  0  0  0  0  0  0
  148.3510  134.6406  153.9640 O   0  0  0  0  0  0  0  0  0  0  0  0
  149.2835  132.4842  153.5273 C   0  0  0  0  0  0  0  0  0  0  0  0
  148.0865  131.5985  153.8419 C   0  0  0  0  0  0  0  0  0  0  0  0
  148.0350  131.6408  155.2577 O   0  0  0  0  0  0  0  0  0  0  0  0
  148.3403  132.9652  155.6838 C   0  0  0  0  0  0  0  0  0  0  0  0
  149.2928  142.4849  153.9083 H   0  0  0  0  0  0  0  0  0  0  0  0
  147.2245  142.4643  155.7271 H   0  0  0  0  0  0  0  0  0  0  0  0
  145.8916  140.8659  154.5833 H   0  0  0  0  0  0  0  0  0  0  0  0
  146.2572  141.9667  153.2653 H   0  0  0  0  0  0  0  0  0  0  0  0
  146.8455  139.2252  153.2856 H   0  0  0  0  0  0  0  0  0  0  0  0
  147.7105  140.3781  152.2788 H   0  0  0  0  0  0  0  0  0  0  0  0
  148.8769  138.8579  154.3561 H   0  0  0  0  0  0  0  0  0  0  0  0
  149.5980  140.2404  153.5413 H   0  0  0  0  0  0  0  0  0  0  0  0
  148.0068  140.2161  156.1150 H   0  0  0  0  0  0  0  0  0  0  0  0
  150.6121  141.6337  155.3920 H   0  0  0  0  0  0  0  0  0  0  0  0
  149.2515  143.1856  156.7482 H   0  0  0  0  0  0  0  0  0  0  0  0
  148.8829  141.9252  157.9049 H   0  0  0  0  0  0  0  0  0  0  0  0
  152.2423  141.8727  159.1712 H   0  0  0  0  0  0  0  0  0  0  0  0
  150.6524  141.1449  159.3304 H   0  0  0  0  0  0  0  0  0  0  0  0
  152.5635  140.8609  156.9451 H   0  0  0  0  0  0  0  0  0  0  0  0
  152.1850  139.6042  158.1111 H   0  0  0  0  0  0  0  0  0  0  0  0
  152.8742  138.4910  153.4011 H   0  0  0  0  0  0  0  0  0  0  0  0
  148.9712  135.0982  157.2408 H   0  0  0  0  0  0  0  0  0  0  0  0
  151.1622  134.3310  154.1505 H   0  0  0  0  0  0  0  0  0  0  0  0
  150.9875  133.5573  155.7044 H   0  0  0  0  0  0  0  0  0  0  0  0
  148.7578  134.9142  153.1560 H   0  0  0  0  0  0  0  0  0  0  0  0
  149.3130  132.8199  152.4896 H   0  0  0  0  0  0  0  0  0  0  0  0
  150.1949  131.9172  153.7192 H   0  0  0  0  0  0  0  0  0  0  0  0
  147.1679  132.0148  153.4254 H   0  0  0  0  0  0  0  0  0  0  0  0
  148.2054  130.5797  153.4729 H   0  0  0  0  0  0  0  0  0  0  0  0
  148.9076  132.9151  156.6136 H   0  0  0  0  0  0  0  0  0  0  0  0
  147.4152  133.5036  155.8963 H   0  0  0  0  0  0  0  0  0  0  0  0
  1  2  1  0  0  0  0
  1 29  1  0  0  0  0
  2  6  1  0  0  0  0
  2  3  1  0  0  0  0
  2 30  1  0  0  0  0
  3  4  1  0  0  0  0
  3 31  1  0  0  0  0
  3 32  1  0  0  0  0
  4  5  1  0  0  0  0
  4 33  1  0  0  0  0
  4 34  1  0  0  0  0
  5  6  1  0  0  0  0
  5 35  1  0  0  0  0
  5 36  1  0  0  0  0
  6  7  1  0  0  0  0
  6 37  1  0  0  0  0
  7 12  1  0  0  0  0
  7  8  1  0  0  0  0
  7 38  1  0  0  0  0
  8  9  1  0  0  0  0
  8 39  1  0  0  0  0
  8 40  1  0  0  0  0
  9 10  1  0  0  0  0
 10 11  1  0  0  0  0
 10 41  1  0  0  0  0
 10 42  1  0  0  0  0
 11 12  1  0  0  0  0
 11 43  1  0  0  0  0
 11 44  1  0  0  0  0
 12 13  1  0  0  0  0
 13 18  1  0  0  0  0
 13 14  2  0  0  0  0
 14 15  1  0  0  0  0
 15 16  2  0  0  0  0
 15 45  1  0  0  0  0
 16 17  1  0  0  0  0
 17 21  1  0  0  0  0
 17 18  2  0  0  0  0
 18 19  1  0  0  0  0
 19 20  2  0  0  0  0
 20 21  1  0  0  0  0
 20 46  1  0  0  0  0
 21 22  1  0  0  0  0
 22 23  1  0  0  0  0
 22 47  1  0  0  0  0
 22 48  1  0  0  0  0
 23 28  1  0  0  0  0
 23 24  1  0  0  0  0
 23 25  1  0  0  0  0
 24 49  1  0  0  0  0
 25 26  1  0  0  0  0
 25 50  1  0  0  0  0
 25 51  1  0  0  0  0
 26 27  1  0  0  0  0
 26 52  1  0  0  0  0
 26 53  1  0  0  0  0
 27 28  1  0  0  0  0
 28 54  1  0  0  0  0
 28 55  1  0  0  0  0
M  END
> <s_m_source_file>
AV-unprocessed.smi

> <i_m_source_file_index>
240

> <i_lp_mmshare_version>
43012

> <i_f3d_flags>
0

> <s_epik_input>
W09IXVtDQEBIXTFbQ0gyXVtDSDJdW0NIMl1bQ0BIXTFbQ0BASF0yW0NIMl1PW0NIMl1bQ0gyXU4yYyhuW2NIXW4zKWMoYzM0KW5bY0hdbjRbQ0gyXVtDQEBdNShbT0hdKVtDSDJdW0NIMl1PW0NIMl01

> <s_epik_cmdline>
J2VwaWtfcHl0aG9uJywgJy1waCcsICc3LjAnLCAnLXRuJywgJzgnLCAnLW1hJywgJzIwMCcsICctbWV0YWxfYmluZGluZycsICctaW1hZScsICc8aW5maWxlLm1hZT4nLCAnLW9tYWUnLCAnPG91dGZpbGUubWFlPic=

> <r_lp_tautomer_probability>
1

> <r_epik_Ionization_Penalty>
0.000130618

> <r_epik_Ionization_Penalty_Charging>
0

> <r_epik_Ionization_Penalty_Neutral>
0.000130618

> <r_epik_State_Penalty>
-0

> <r_epik_Charging_Adjusted_Penalty>
0

> <i_epik_Tot_Q>
0

> <i_epik_Tot_abs_Q>
0

> <r_epik_Metal_State_Penalty>
-0

> <b_epik_Metal_Only>
0

> <s_lp_Force_Field>
OPLS_2005

> <r_lp_Energy>
62.2831

> <b_lp_Chiralities_Consistent>
1

> <s_lp_Variant>
AV-unprocessed.smi:240-6

> <Gold.Version>
5.8.1

> <Gold.Id.Protein>
6NUR|6NUR_protein|mol2

> <Gold.PLP.Fitness>
46.5624

> <Gold.PLP.PLP>
-36.9735

> <Gold.PLP.part.hbond>
-4.9298

> <Gold.PLP.part.metal>
0.0000

> <Gold.PLP.part.buried>
0.2738

> <Gold.PLP.part.nonpolar>
-30.6491

> <Gold.PLP.part.repulsive>
0.9004

> <Gold.PLP.ligand.clash>
0.0000

> <Gold.PLP.ligand.torsion>
0.4774

> <Gold.PLP.Chemscore.Hbond>
3.4145

> <Gold.PLP.Chemscore.CHOScore>
0.0000

> <Gold.PLP.Chemscore.Metal>
0.0000

> <Gold.Chemscore.Hbonds>
donor molecule, donor type, donor heavy atom, donor atom, acceptor molecule, acceptor atom, score
      L1  H    24    49       P1  7948  0.99
      P1  H  7989  7998       L1    14  0.57
      P1  H  8022  8030       L1     1  1.00
      P1  H 10752 10763       L1    16  0.91

> <Gold.PLP.Chemscore.Internal.Correction>
0.3002

> <Gold.Rescore>
     Score         DG    S(hbond)    S(metal)    S(lipo)     H(rot)  DE(clash)    DE(int)     intcor
     12.10     -14.25       2.08        0.00      81.30       3.00       0.93       1.22       ----

> <Gold.Chemscore.Fitness>
12.0972

> <Gold.Chemscore.DG>
-14.2535

> <Gold.Chemscore.ZeroCoef>
-5.4800

> <Gold.Chemscore.Hbond>
2.0811

> <Gold.Chemscore.Metal>
0.0000

> <Gold.Chemscore.Lipo>
81.3036

> <Gold.Chemscore.Internal_Hbond>
0.0000

> <Gold.Chemscore.DEClash>
0.9326

> <Gold.Chemscore.DEInternal>
1.2236

> <Gold.Chemscore.Rot>
3.0039

> <Gold.Chemscore.Internal.Correction>
   9.000000E+99

> <Gold.Chemscore.Hbonds>
donor molecule, donor type, donor heavy atom, donor atom, acceptor molecule, acceptor atom, score
      L1  H    24    49       P1  7948  0.37
      P1  H  7989  7998       L1    14  0.14
      P1  H  8022  8030       L1     1  0.54
      P1  H 10752 10763       L1    16  0.20

> <Gold.Chemscore.Hbond.Weighted>
-6.9509

> <Gold.Chemscore.Metal.Weighted>
-0.0000

> <Gold.Chemscore.Lipo.Weighted>
-9.5125

> <Gold.Chemscore.Internal_Hbond.Weighted>
0.0000

> <Gold.Chemscore.DEClash.Weighted>
0.9326

> <Gold.Chemscore.DEInternal.Weighted>
1.2236

> <Gold.Chemscore.Rot.Weighted>
7.6899

> <Gold.Chemscore.Internal.Correction.Weighted>
   9.000000E+99

> <Gold.Protein.RotatedTorsions>
[ 6907 6896 6895 6894 ] final   97.66 input  -60.11 | X-H torsion
[ 7974 7965 7964 7962 ] final   86.80 input  175.53 | X-H torsion
[ 8008 7997 7996 7995 ] final -138.16 input   59.86 | X-H torsion
[ 10167 10162 10161 10158 ] final  -27.61 input  -65.29 | X-H torsion
[ 10718 10713 10712 10709 ] final -139.82 input   66.30 | X-H torsion
[ 10763 10752 10751 10750 ] final   56.35 input  -60.55 | X-H torsion
[ 11005 11000 10999 10996 ] final  -69.00 input  -57.11 | X-H torsion

> <Gold.Protein.ActiveResidues>
 VAL166  LYS551  ARG553  GLY616  TRP617  ASP618  TYR619  PRO620  LYS621  CYS622 
 ASP623  PHE694  ASN695  SER759  ASP760  ASP761  ALA762  ILE779  LEU786  VAL792 
 PHE793  MET794  SER795  GLU796  ALA797  LYS798  CYS799  TRP800  GLU811  SER814 

> <Gold.Protein.RotatedAtoms>
  152.5420  134.0699  159.8188 H   0  0  0  0  0  0  0  0  0  0  0  0  # atno 6907 bound_to 6896
  151.0815  133.5379  159.2627 H   0  0  0  0  0  0  0  0  0  0  0  0  # atno 6908 bound_to 6896
  151.2204  135.0525  159.9001 H   0  0  0  0  0  0  0  0  0  0  0  0  # atno 6909 bound_to 6896
  145.5674  139.2310  143.2425 H   0  0  0  0  0  0  0  0  0  0  0  0  # atno 7974 bound_to 7965
  155.4237  140.0520  157.3024 H   0  0  0  0  0  0  0  0  0  0  0  0  # atno 8008 bound_to 7997
  154.4891  140.2113  155.9547 H   0  0  0  0  0  0  0  0  0  0  0  0  # atno 8009 bound_to 7997
  156.1317  140.3170  155.8363 H   0  0  0  0  0  0  0  0  0  0  0  0  # atno 8010 bound_to 7997
  140.7276  143.4079  151.1155 H   0  0  0  0  0  0  0  0  0  0  0  0  # atno 10167 bound_to 10162
  156.3151  130.7503  151.1588 H   0  0  0  0  0  0  0  0  0  0  0  0  # atno 10718 bound_to 10713
  152.9830  135.5679  154.5215 H   0  0  0  0  0  0  0  0  0  0  0  0  # atno 10763 bound_to 10752
  154.4702  135.2784  155.1650 H   0  0  0  0  0  0  0  0  0  0  0  0  # atno 10764 bound_to 10752
  154.3202  135.6270  153.5557 H   0  0  0  0  0  0  0  0  0  0  0  0  # atno 10765 bound_to 10752
  141.1544  133.6754  156.6532 H   0  0  0  0  0  0  0  0  0  0  0  0  # atno 11005 bound_to 11000
  146.1808  140.6500  142.9190 LP  0  0  0  0  0  0  0  0  0  0  0  0  # atno 17320 bound_to 7965
  144.7454  140.5053  143.6839 LP  0  0  0  0  0  0  0  0  0  0  0  0  # atno 17321 bound_to 7965
  139.7708  143.8497  152.3120 LP  0  0  0  0  0  0  0  0  0  0  0  0  # atno 17342 bound_to 10162
  139.8415  144.7208  150.9325 LP  0  0  0  0  0  0  0  0  0  0  0  0  # atno 17343 bound_to 10162
  157.7400  131.0523  150.5197 LP  0  0  0  0  0  0  0  0  0  0  0  0  # atno 17370 bound_to 10713
  156.5342  130.4192  149.6186 LP  0  0  0  0  0  0  0  0  0  0  0  0  # atno 17371 bound_to 10713
  140.3304  134.7933  157.4322 LP  0  0  0  0  0  0  0  0  0  0  0  0  # atno 17394 bound_to 11000
  140.1021  134.5458  155.8343 LP  0  0  0  0  0  0  0  0  0  0  0  0  # atno 17395 bound_to 11000

$$$$
