AV-unprocessed.smi:2784|AV-procd|sdf|10727|dock6
  -GOLD-   2272015163D 1   1.00000     0.00000
 Structure written by MMmdl.
 31 32  0  0  0  0  0  0  0  0  1 V2000
  149.8059  144.3993  159.7808 C   0  0  0  0  0  0  0  0  0  0  0  0
  150.4300  143.1603  159.4847 O   0  0  0  0  0  0  0  0  0  0  0  0
  151.8187  143.2728  159.1847 C   0  0  1  0  0  0  0  0  0  0  0  0
  152.5366  143.9235  160.3722 C   0  0  0  0  0  0  0  0  0  0  0  0
  152.7438  142.7759  161.3568 C   0  0  0  0  0  0  0  0  0  0  0  0
  153.0311  141.5530  160.4808 C   0  0  0  0  0  0  0  0  0  0  0  0
  152.4546  141.8672  159.0861 C   0  0  1  0  0  0  0  0  0  0  0  0
  151.5097  140.8378  158.6577 N   0  0  0  0  0  0  0  0  0  0  0  0
  151.7259  139.9692  157.6597 C   0  0  0  0  0  0  0  0  0  0  0  0
  152.7627  139.9424  156.9956 O   0  0  0  0  0  0  0  0  0  0  0  0
  150.6738  139.1518  157.4874 N   0  0  0  0  0  0  0  0  0  0  0  0
  150.5324  138.1179  156.5280 C   0  0  0  0  0  0  0  0  0  0  0  0
  149.8517  136.9805  156.6793 N   0  0  0  0  0  0  0  0  0  0  0  0
  150.0158  136.3122  155.4747 C   0  0  0  0  0  0  0  0  0  0  0  0
  150.7933  137.0903  154.6562 C   0  0  0  0  0  0  0  0  0  0  0  0
  151.1299  138.2432  155.3136 O   0  0  0  0  0  0  0  0  0  0  0  0
  148.7543  144.2307  160.0120 H   0  0  0  0  0  0  0  0  0  0  0  0
  149.8554  145.0758  158.9269 H   0  0  0  0  0  0  0  0  0  0  0  0
  150.2634  144.8889  160.6406 H   0  0  0  0  0  0  0  0  0  0  0  0
  151.9694  143.8261  158.2560 H   0  0  0  0  0  0  0  0  0  0  0  0
  153.5065  144.3020  160.0470 H   0  0  0  0  0  0  0  0  0  0  0  0
  151.9907  144.7582  160.8117 H   0  0  0  0  0  0  0  0  0  0  0  0
  153.5418  142.9763  162.0719 H   0  0  0  0  0  0  0  0  0  0  0  0
  151.8256  142.6131  161.9227 H   0  0  0  0  0  0  0  0  0  0  0  0
  154.1074  141.3931  160.4037 H   0  0  0  0  0  0  0  0  0  0  0  0
  152.6060  140.6509  160.9235 H   0  0  0  0  0  0  0  0  0  0  0  0
  153.2870  141.9037  158.3806 H   0  0  0  0  0  0  0  0  0  0  0  0
  150.6278  140.7970  159.1471 H   0  0  0  0  0  0  0  0  0  0  0  0
  149.8880  139.2850  158.1062 H   0  0  0  0  0  0  0  0  0  0  0  0
  149.5706  135.3446  155.2958 H   0  0  0  0  0  0  0  0  0  0  0  0
  151.1703  136.9770  153.6505 H   0  0  0  0  0  0  0  0  0  0  0  0
  1  2  1  0  0  0  0
  1 17  1  0  0  0  0
  1 18  1  0  0  0  0
  1 19  1  0  0  0  0
  2  3  1  0  0  0  0
  3  7  1  0  0  0  0
  3  4  1  0  0  0  0
  3 20  1  0  0  0  0
  4  5  1  0  0  0  0
  4 21  1  0  0  0  0
  4 22  1  0  0  0  0
  5  6  1  0  0  0  0
  5 23  1  0  0  0  0
  5 24  1  0  0  0  0
  6  7  1  0  0  0  0
  6 25  1  0  0  0  0
  6 26  1  0  0  0  0
  7  8  1  0  0  0  0
  7 27  1  0  0  0  0
  8  9  1  0  0  0  0
  8 28  1  0  0  0  0
  9 10  2  0  0  0  0
  9 11  1  0  0  0  0
 11 12  1  0  0  0  0
 11 29  1  0  0  0  0
 12 16  1  0  0  0  0
 12 13  2  0  0  0  0
 13 14  1  0  0  0  0
 14 15  2  0  0  0  0
 14 30  1  0  0  0  0
 15 16  1  0  0  0  0
 15 31  1  0  0  0  0
M  END
> <s_m_source_file>
AV-unprocessed.smi

> <i_m_source_file_index>
2784

> <i_lp_mmshare_version>
43012

> <i_f3d_flags>
0

> <s_epik_input>
W0NIM11PW0NAQEhdMVtDSDJdW0NIMl1bQ0gyXVtDQEhdMVtOSF1DKD1PKVtOSF1jMm5bY0hdW2NIXW8y

> <s_epik_cmdline>
J2VwaWtfcHl0aG9uJywgJy1waCcsICc3LjAnLCAnLXRuJywgJzgnLCAnLW1hJywgJzIwMCcsICctbWV0YWxfYmluZGluZycsICctaW1hZScsICc8aW5maWxlLm1hZT4nLCAnLW9tYWUnLCAnPG91dGZpbGUubWFlPic=

> <r_lp_tautomer_probability>
0.785861

> <r_epik_Ionization_Penalty>
4.58897e-05

> <r_epik_Ionization_Penalty_Charging>
0

> <r_epik_Ionization_Penalty_Neutral>
4.58897e-05

> <r_epik_State_Penalty>
0.0380021

> <r_epik_Charging_Adjusted_Penalty>
0.0380021

> <i_epik_Tot_Q>
0

> <i_epik_Tot_abs_Q>
0

> <r_epik_Metal_State_Penalty>
0.0585611

> <b_epik_Metal_Only>
0

> <s_lp_Force_Field>
OPLS_2005

> <r_lp_Energy>
20.0634

> <b_lp_Chiralities_Consistent>
1

> <s_lp_Variant>
AV-unprocessed.smi:2784-2

> <Gold.Version>
5.8.1

> <Gold.Id.Protein>
6NUR|6NUR_protein|mol2

> <Gold.PLP.Fitness>
32.0481

> <Gold.PLP.PLP>
-26.6519

> <Gold.PLP.part.hbond>
-1.9649

> <Gold.PLP.part.metal>
0.0000

> <Gold.PLP.part.buried>
-3.5907

> <Gold.PLP.part.nonpolar>
-21.1445

> <Gold.PLP.part.repulsive>
0.2875

> <Gold.PLP.ligand.clash>
0.0000

> <Gold.PLP.ligand.torsion>
0.3080

> <Gold.PLP.Chemscore.Hbond>
1.0000

> <Gold.PLP.Chemscore.CHOScore>
1.0000

> <Gold.PLP.Chemscore.Metal>
0.0000

> <Gold.Chemscore.Hbonds>
donor molecule, donor type, donor heavy atom, donor atom, acceptor molecule, acceptor atom, score
      P1  H  7997  8010       L1    10  1.00
      L1  C    15    31       P1  7949  1.00

> <Gold.PLP.Chemscore.Internal.Correction>
0.0123

> <Gold.Rescore>
     Score         DG    S(hbond)    S(metal)    S(lipo)     H(rot)  DE(clash)    DE(int)     intcor
     12.49     -14.03       0.99        0.00      73.72       1.32       0.06       1.49       ----

> <Gold.Chemscore.Fitness>
12.4861

> <Gold.Chemscore.DG>
-14.0290

> <Gold.Chemscore.ZeroCoef>
-5.4800

> <Gold.Chemscore.Hbond>
0.9915

> <Gold.Chemscore.Metal>
0.0000

> <Gold.Chemscore.Lipo>
73.7234

> <Gold.Chemscore.Internal_Hbond>
0.0000

> <Gold.Chemscore.DEClash>
0.0556

> <Gold.Chemscore.DEInternal>
1.4872

> <Gold.Chemscore.Rot>
1.3235

> <Gold.Chemscore.Internal.Correction>
   9.000000E+99

> <Gold.Chemscore.Hbonds>
donor molecule, donor type, donor heavy atom, donor atom, acceptor molecule, acceptor atom, score
      P1  H  7997  8010       L1    10  0.99

> <Gold.Chemscore.Hbond.Weighted>
-3.3115

> <Gold.Chemscore.Metal.Weighted>
-0.0000

> <Gold.Chemscore.Lipo.Weighted>
-8.6256

> <Gold.Chemscore.Internal_Hbond.Weighted>
0.0000

> <Gold.Chemscore.DEClash.Weighted>
0.0556

> <Gold.Chemscore.DEInternal.Weighted>
1.4872

> <Gold.Chemscore.Rot.Weighted>
3.3882

> <Gold.Chemscore.Internal.Correction.Weighted>
   9.000000E+99

> <Gold.Protein.RotatedTorsions>
[ 6907 6896 6895 6894 ] final  -61.46 input  -60.11 | X-H torsion
[ 7974 7965 7964 7962 ] final -157.24 input  175.53 | X-H torsion
[ 8008 7997 7996 7995 ] final   62.72 input   59.86 | X-H torsion
[ 10167 10162 10161 10158 ] final    6.70 input  -65.29 | X-H torsion
[ 10718 10713 10712 10709 ] final   48.40 input   66.30 | X-H torsion
[ 10763 10752 10751 10750 ] final  138.90 input  -60.55 | X-H torsion
[ 11005 11000 10999 10996 ] final -162.46 input  -57.11 | X-H torsion

> <Gold.Protein.ActiveResidues>
 VAL166  LYS551  ARG553  GLY616  TRP617  ASP618  TYR619  PRO620  LYS621  CYS622 
 ASP623  PHE694  ASN695  SER759  ASP760  ASP761  ALA762  ILE779  LEU786  VAL792 
 PHE793  MET794  SER795  GLU796  ALA797  LYS798  CYS799  TRP800  GLU811  SER814 

> <Gold.Protein.RotatedAtoms>
  150.7783  134.6702  159.6386 H   0  0  0  0  0  0  0  0  0  0  0  0  # atno 6907 bound_to 6896
  152.3860  134.6513  160.0134 H   0  0  0  0  0  0  0  0  0  0  0  0  # atno 6908 bound_to 6896
  151.6828  133.3275  159.3260 H   0  0  0  0  0  0  0  0  0  0  0  0  # atno 6909 bound_to 6896
  144.7557  140.3997  143.6014 H   0  0  0  0  0  0  0  0  0  0  0  0  # atno 7974 bound_to 7965
  155.6188  140.3495  155.4645 H   0  0  0  0  0  0  0  0  0  0  0  0  # atno 8008 bound_to 7997
  156.0096  140.1230  157.0491 H   0  0  0  0  0  0  0  0  0  0  0  0  # atno 8009 bound_to 7997
  154.4276  140.1084  156.5797 H   0  0  0  0  0  0  0  0  0  0  0  0  # atno 8010 bound_to 7997
  140.6413  143.7767  150.7432 H   0  0  0  0  0  0  0  0  0  0  0  0  # atno 10167 bound_to 10162
  157.4683  130.8239  149.7960 H   0  0  0  0  0  0  0  0  0  0  0  0  # atno 10718 bound_to 10713
  153.8973  135.3026  155.3448 H   0  0  0  0  0  0  0  0  0  0  0  0  # atno 10763 bound_to 10752
  154.7687  135.4897  153.9609 H   0  0  0  0  0  0  0  0  0  0  0  0  # atno 10764 bound_to 10752
  153.1264  135.6794  153.9349 H   0  0  0  0  0  0  0  0  0  0  0  0  # atno 10765 bound_to 10752
  140.6090  134.4868  157.5213 H   0  0  0  0  0  0  0  0  0  0  0  0  # atno 11005 bound_to 11000
  145.6788  139.1614  143.2712 LP  0  0  0  0  0  0  0  0  0  0  0  0  # atno 17320 bound_to 7965
  146.1564  140.6852  142.9298 LP  0  0  0  0  0  0  0  0  0  0  0  0  # atno 17321 bound_to 7965
  140.1399  143.4450  152.2200 LP  0  0  0  0  0  0  0  0  0  0  0  0  # atno 17342 bound_to 10162
  139.5622  144.7413  151.4122 LP  0  0  0  0  0  0  0  0  0  0  0  0  # atno 17343 bound_to 10162
  156.0061  130.3855  150.2427 LP  0  0  0  0  0  0  0  0  0  0  0  0  # atno 17370 bound_to 10713
  157.0608  131.0089  151.3223 LP  0  0  0  0  0  0  0  0  0  0  0  0  # atno 17371 bound_to 10713
  139.9200  134.8168  156.1242 LP  0  0  0  0  0  0  0  0  0  0  0  0  # atno 17394 bound_to 11000
  141.0821  133.6750  156.2357 LP  0  0  0  0  0  0  0  0  0  0  0  0  # atno 17395 bound_to 11000

$$$$
