AV-unprocessed.smi:1640|AV-procd|sdf|6554|dock4
  -GOLD-   22720 7233D 1   1.00000     0.00000
 Structure written by MMmdl.
 47 48  0  0  0  0  0  0  0  0  1 V2000
  147.2715  134.4969  162.8049 C   0  0  0  0  0  0  0  0  0  0  0  0
  147.2139  135.4531  161.6020 C   0  0  0  0  0  0  0  0  0  0  0  0
  146.3011  136.6492  161.9118 C   0  0  0  0  0  0  0  0  0  0  0  0
  146.7634  134.7445  160.3088 C   0  0  0  0  0  0  0  0  0  0  0  0
  146.8249  135.6310  159.0556 C   0  0  0  0  0  0  0  0  0  0  0  0
  148.4811  136.4171  158.8932 S   0  0  0  0  0  0  0  0  0  0  0  0
  148.6871  137.3163  160.0390 O   0  0  0  0  0  0  0  0  0  0  0  0
  149.4774  135.3792  158.5892 O   0  0  0  0  0  0  0  0  0  0  0  0
  148.3005  137.3954  157.4875 N   0  0  0  0  0  0  0  0  0  0  0  0
  148.1422  138.8386  157.6582 C   0  0  0  0  0  0  0  0  0  0  0  0
  148.4552  139.6139  156.3874 C   0  0  0  0  0  0  0  0  0  0  0  0
  147.4013  140.1858  155.6436 C   0  0  0  0  0  0  0  0  0  0  0  0
  147.6981  140.8917  154.4635 C   0  0  0  0  0  0  0  0  0  0  0  0
  149.0447  140.9956  154.0695 C   0  0  0  0  0  0  0  0  0  0  0  0
  150.0631  140.4536  154.7689 N   0  0  0  0  0  0  0  0  0  0  0  0
  149.7820  139.7742  155.9077 C   0  0  0  0  0  0  0  0  0  0  0  0
  150.8649  139.2414  156.6282 N   0  0  0  0  0  0  0  0  0  0  0  0
  151.8217  138.4606  155.8523 C   0  0  0  0  0  0  0  0  0  0  0  0
  152.8501  137.8111  156.7935 C   0  0  0  0  0  0  0  0  0  0  0  0
  153.4858  138.8215  157.5714 O   0  0  0  0  0  0  0  0  0  0  0  0
  152.5583  139.5380  158.3822 C   0  0  0  0  0  0  0  0  0  0  0  0
  151.5085  140.2239  157.4905 C   0  0  0  0  0  0  0  0  0  0  0  0
  146.3015  134.0347  162.9908 H   0  0  0  0  0  0  0  0  0  0  0  0
  147.5655  135.0265  163.7115 H   0  0  0  0  0  0  0  0  0  0  0  0
  147.9977  133.6994  162.6515 H   0  0  0  0  0  0  0  0  0  0  0  0
  148.2179  135.8472  161.4399 H   0  0  0  0  0  0  0  0  0  0  0  0
  145.2722  136.3295  162.0806 H   0  0  0  0  0  0  0  0  0  0  0  0
  146.2964  137.3652  161.0895 H   0  0  0  0  0  0  0  0  0  0  0  0
  146.6351  137.1789  162.8042 H   0  0  0  0  0  0  0  0  0  0  0  0
  147.3610  133.8456  160.1518 H   0  0  0  0  0  0  0  0  0  0  0  0
  145.7349  134.4031  160.4344 H   0  0  0  0  0  0  0  0  0  0  0  0
  146.6397  135.0441  158.1559 H   0  0  0  0  0  0  0  0  0  0  0  0
  146.0820  136.4269  159.0958 H   0  0  0  0  0  0  0  0  0  0  0  0
  148.9870  137.1698  156.7680 H   0  0  0  0  0  0  0  0  0  0  0  0
  147.1248  139.0434  157.9928 H   0  0  0  0  0  0  0  0  0  0  0  0
  148.8026  139.1835  158.4544 H   0  0  0  0  0  0  0  0  0  0  0  0
  146.3764  140.0851  155.9695 H   0  0  0  0  0  0  0  0  0  0  0  0
  146.9127  141.3409  153.8739 H   0  0  0  0  0  0  0  0  0  0  0  0
  149.3116  141.5294  153.1694 H   0  0  0  0  0  0  0  0  0  0  0  0
  151.2963  137.6935  155.2822 H   0  0  0  0  0  0  0  0  0  0  0  0
  152.3357  139.1039  155.1370 H   0  0  0  0  0  0  0  0  0  0  0  0
  152.3738  137.0778  157.4459 H   0  0  0  0  0  0  0  0  0  0  0  0
  153.6061  137.2801  156.2152 H   0  0  0  0  0  0  0  0  0  0  0  0
  152.0830  138.8615  159.0935 H   0  0  0  0  0  0  0  0  0  0  0  0
  153.0992  140.2828  158.9661 H   0  0  0  0  0  0  0  0  0  0  0  0
  151.9848  140.9879  156.8742 H   0  0  0  0  0  0  0  0  0  0  0  0
  150.7650  140.7279  158.1089 H   0  0  0  0  0  0  0  0  0  0  0  0
  1  2  1  0  0  0  0
  1 23  1  0  0  0  0
  1 24  1  0  0  0  0
  1 25  1  0  0  0  0
  2  3  1  0  0  0  0
  2  4  1  0  0  0  0
  2 26  1  0  0  0  0
  3 27  1  0  0  0  0
  3 28  1  0  0  0  0
  3 29  1  0  0  0  0
  4  5  1  0  0  0  0
  4 30  1  0  0  0  0
  4 31  1  0  0  0  0
  5  6  1  0  0  0  0
  5 32  1  0  0  0  0
  5 33  1  0  0  0  0
  6  7  2  0  0  0  0
  6  8  2  0  0  0  0
  6  9  1  0  0  0  0
  9 10  1  0  0  0  0
  9 34  1  0  0  0  0
 10 11  1  0  0  0  0
 10 35  1  0  0  0  0
 10 36  1  0  0  0  0
 11 16  1  0  0  0  0
 11 12  2  0  0  0  0
 12 13  1  0  0  0  0
 12 37  1  0  0  0  0
 13 14  2  0  0  0  0
 13 38  1  0  0  0  0
 14 15  1  0  0  0  0
 14 39  1  0  0  0  0
 15 16  2  0  0  0  0
 16 17  1  0  0  0  0
 17 22  1  0  0  0  0
 17 18  1  0  0  0  0
 18 19  1  0  0  0  0
 18 40  1  0  0  0  0
 18 41  1  0  0  0  0
 19 20  1  0  0  0  0
 19 42  1  0  0  0  0
 19 43  1  0  0  0  0
 20 21  1  0  0  0  0
 21 22  1  0  0  0  0
 21 44  1  0  0  0  0
 21 45  1  0  0  0  0
 22 46  1  0  0  0  0
 22 47  1  0  0  0  0
M  END
> <s_m_source_file>
AV-unprocessed.smi

> <i_m_source_file_index>
1640

> <i_lp_mmshare_version>
43012

> <i_f3d_flags>
0

> <s_epik_input>
W0NIM11bQ0hdKFtDSDNdKVtDSDJdW0NIMl1TKD1PKSg9TylbTkhdW0NIMl1jMVtjSF1bY0hdW2NIXW5jMU4yW0NIMl1bQ0gyXU9bQ0gyXVtDSDJdMg==

> <s_epik_cmdline>
J2VwaWtfcHl0aG9uJywgJy1waCcsICc3LjAnLCAnLXRuJywgJzgnLCAnLW1hJywgJzIwMCcsICctbWV0YWxfYmluZGluZycsICctaW1hZScsICc8aW5maWxlLm1hZT4nLCAnLW9tYWUnLCAnPG91dGZpbGUubWFlPic=

> <r_lp_tautomer_probability>
1

> <r_epik_Ionization_Penalty>
0.00729723

> <r_epik_Ionization_Penalty_Charging>
0

> <r_epik_Ionization_Penalty_Neutral>
0.00729723

> <r_epik_State_Penalty>
0.00542751

> <r_epik_Charging_Adjusted_Penalty>
0.00542751

> <i_epik_Tot_Q>
0

> <i_epik_Tot_abs_Q>
0

> <r_epik_Metal_State_Penalty>
0.0195039

> <b_epik_Metal_Only>
0

> <s_lp_Force_Field>
OPLS_2005

> <r_lp_Energy>
17.806

> <b_lp_Chiralities_Consistent>
1

> <s_lp_Variant>
AV-unprocessed.smi:1640-1

> <Gold.Version>
5.8.1

> <Gold.Id.Protein>
6NUR|6NUR_protein|mol2

> <Gold.PLP.Fitness>
39.2592

> <Gold.PLP.PLP>
-28.8246

> <Gold.PLP.part.hbond>
-4.8260

> <Gold.PLP.part.metal>
0.0000

> <Gold.PLP.part.buried>
-3.2234

> <Gold.PLP.part.nonpolar>
-21.4912

> <Gold.PLP.part.repulsive>
0.0948

> <Gold.PLP.ligand.clash>
0.0000

> <Gold.PLP.ligand.torsion>
1.0313

> <Gold.PLP.Chemscore.Hbond>
3.3725

> <Gold.PLP.Chemscore.CHOScore>
0.6881

> <Gold.PLP.Chemscore.Metal>
0.0000

> <Gold.Chemscore.Hbonds>
donor molecule, donor type, donor heavy atom, donor atom, acceptor molecule, acceptor atom, score
      P1  H  6896  6909       L1     8  1.00
      P1  H  6931  6943       L1     7  0.42
      P1  H  6934  6947       L1     7  0.01
      P1  H  7989  7998       L1    15  0.85
      P1  H  7997  8008       L1    20  1.00
      L1  C    14    39       P1  7957  0.69

> <Gold.PLP.Chemscore.Internal.Correction>
0.3154

> <Gold.Rescore>
     Score         DG    S(hbond)    S(metal)    S(lipo)     H(rot)  DE(clash)    DE(int)     intcor
     15.53     -17.81       2.75        0.00      70.23       1.99       0.15       2.13       ----

> <Gold.Chemscore.Fitness>
15.5314

> <Gold.Chemscore.DG>
-17.8105

> <Gold.Chemscore.ZeroCoef>
-5.4800

> <Gold.Chemscore.Hbond>
2.7535

> <Gold.Chemscore.Metal>
0.0000

> <Gold.Chemscore.Lipo>
70.2302

> <Gold.Chemscore.Internal_Hbond>
0.0000

> <Gold.Chemscore.DEClash>
0.1461

> <Gold.Chemscore.DEInternal>
2.1330

> <Gold.Chemscore.Rot>
1.9856

> <Gold.Chemscore.Internal.Correction>
   9.000000E+99

> <Gold.Chemscore.Hbonds>
donor molecule, donor type, donor heavy atom, donor atom, acceptor molecule, acceptor atom, score
      P1  H  6896  6909       L1     8  0.98
      P1  H  6931  6943       L1     7  0.41
      P1  H  6934  6947       L1     7  0.03
      P1  H  7989  7998       L1    15  0.18
      P1  H  7997  8008       L1    20  0.49

> <Gold.Chemscore.Hbond.Weighted>
-9.1966

> <Gold.Chemscore.Metal.Weighted>
-0.0000

> <Gold.Chemscore.Lipo.Weighted>
-8.2169

> <Gold.Chemscore.Internal_Hbond.Weighted>
0.0000

> <Gold.Chemscore.DEClash.Weighted>
0.1461

> <Gold.Chemscore.DEInternal.Weighted>
2.1330

> <Gold.Chemscore.Rot.Weighted>
5.0830

> <Gold.Chemscore.Internal.Correction.Weighted>
   9.000000E+99

> <Gold.Protein.RotatedTorsions>
[ 6907 6896 6895 6894 ] final   33.33 input  -60.11 | X-H torsion
[ 7974 7965 7964 7962 ] final -103.41 input  175.53 | X-H torsion
[ 8008 7997 7996 7995 ] final  -93.84 input   59.86 | X-H torsion
[ 10167 10162 10161 10158 ] final  -75.74 input  -65.29 | X-H torsion
[ 10718 10713 10712 10709 ] final  108.32 input   66.30 | X-H torsion
[ 10763 10752 10751 10750 ] final   90.22 input  -60.55 | X-H torsion
[ 11005 11000 10999 10996 ] final   41.98 input  -57.11 | X-H torsion

> <Gold.Protein.ActiveResidues>
 VAL166  LYS551  ARG553  GLY616  TRP617  ASP618  TYR619  PRO620  LYS621  CYS622 
 ASP623  PHE694  ASN695  SER759  ASP760  ASP761  ALA762  ILE779  LEU786  VAL792 
 PHE793  MET794  SER795  GLU796  ALA797  LYS798  CYS799  TRP800  GLU811  SER814 

> <Gold.Protein.RotatedAtoms>
  152.0869  134.9433  160.0572 H   0  0  0  0  0  0  0  0  0  0  0  0  # atno 6907 bound_to 6896
  152.0700  133.4097  159.4463 H   0  0  0  0  0  0  0  0  0  0  0  0  # atno 6908 bound_to 6896
  150.6836  134.3023  159.4755 H   0  0  0  0  0  0  0  0  0  0  0  0  # atno 6909 bound_to 6896
  145.2562  140.9254  143.3067 H   0  0  0  0  0  0  0  0  0  0  0  0  # atno 7974 bound_to 7965
  154.7408  140.0495  157.0809 H   0  0  0  0  0  0  0  0  0  0  0  0  # atno 8008 bound_to 7997
  155.0181  140.3144  155.4785 H   0  0  0  0  0  0  0  0  0  0  0  0  # atno 8009 bound_to 7997
  156.2864  140.2172  156.5298 H   0  0  0  0  0  0  0  0  0  0  0  0  # atno 8010 bound_to 7997
  140.4917  143.2379  151.7896 H   0  0  0  0  0  0  0  0  0  0  0  0  # atno 10167 bound_to 10162
  157.6591  131.0891  150.6288 H   0  0  0  0  0  0  0  0  0  0  0  0  # atno 10718 bound_to 10713
  153.1953  135.4442  155.0200 H   0  0  0  0  0  0  0  0  0  0  0  0  # atno 10763 bound_to 10752
  154.8115  135.3296  154.7295 H   0  0  0  0  0  0  0  0  0  0  0  0  # atno 10764 bound_to 10752
  153.7745  135.6982  153.4955 H   0  0  0  0  0  0  0  0  0  0  0  0  # atno 10765 bound_to 10752
  140.1782  134.4136  155.8215 H   0  0  0  0  0  0  0  0  0  0  0  0  # atno 11005 bound_to 11000
  144.9459  139.4137  143.6426 LP  0  0  0  0  0  0  0  0  0  0  0  0  # atno 17320 bound_to 7965
  146.3288  139.8442  142.8885 LP  0  0  0  0  0  0  0  0  0  0  0  0  # atno 17321 bound_to 7965
  139.4852  144.4640  151.9506 LP  0  0  0  0  0  0  0  0  0  0  0  0  # atno 17342 bound_to 10162
  140.3727  144.2835  150.5918 LP  0  0  0  0  0  0  0  0  0  0  0  0  # atno 17343 bound_to 10162
  156.6592  130.4507  149.5693 LP  0  0  0  0  0  0  0  0  0  0  0  0  # atno 17370 bound_to 10713
  156.2079  130.6661  151.1238 LP  0  0  0  0  0  0  0  0  0  0  0  0  # atno 17371 bound_to 10713
  141.2221  133.6988  156.7884 LP  0  0  0  0  0  0  0  0  0  0  0  0  # atno 17394 bound_to 11000
  140.2297  134.8695  157.3464 LP  0  0  0  0  0  0  0  0  0  0  0  0  # atno 17395 bound_to 11000

$$$$
