AV-unprocessed.smi:2948|AV-procd|sdf|11283|dock4
  -GOLD-   2272016173D 1   1.00000     0.00000
 Structure written by MMmdl.
 32 33  0  0  0  0  0  0  0  0  1 V2000
  148.0667  141.5094  154.3073 C   0  0  0  0  0  0  0  0  0  0  0  0
  148.7978  140.1679  154.3940 C   0  0  0  0  0  0  0  0  0  0  0  0
  150.1260  140.4031  154.8258 O   0  0  0  0  0  0  0  0  0  0  0  0
  150.2063  140.8103  156.1817 C   0  0  0  0  0  0  0  0  0  0  0  0
  151.5241  141.5613  156.4227 C   0  0  0  0  0  0  0  0  0  0  0  0
  151.7888  141.7604  157.8412 N   0  0  0  0  0  0  0  0  0  0  0  0
  152.0510  140.8329  158.8000 C   0  0  0  0  0  0  0  0  0  0  0  0
  152.1113  139.3583  158.5173 C   0  0  0  0  0  0  0  0  0  0  0  0
  153.1882  139.0012  157.6760 O   0  0  0  0  0  0  0  0  0  0  0  0
  152.2447  141.3157  160.0292 N   0  0  0  0  0  0  0  0  0  0  0  0
  152.1148  142.6779  159.8497 C   0  0  0  0  0  0  0  0  0  0  0  0
  152.2190  143.7403  160.7759 C   0  0  0  0  0  0  0  0  0  0  0  0
  152.0462  145.0747  160.3535 C   0  0  0  0  0  0  0  0  0  0  0  0
  151.7669  145.3649  159.0024 C   0  0  0  0  0  0  0  0  0  0  0  0
  151.6586  144.3208  158.0637 C   0  0  0  0  0  0  0  0  0  0  0  0
  151.8312  142.9903  158.4908 C   0  0  0  0  0  0  0  0  0  0  0  0
  147.0362  141.3716  153.9797 H   0  0  0  0  0  0  0  0  0  0  0  0
  148.5574  142.1775  153.5990 H   0  0  0  0  0  0  0  0  0  0  0  0
  148.0466  142.0065  155.2776 H   0  0  0  0  0  0  0  0  0  0  0  0
  148.2833  139.5087  155.0948 H   0  0  0  0  0  0  0  0  0  0  0  0
  148.8002  139.6796  153.4185 H   0  0  0  0  0  0  0  0  0  0  0  0
  149.3622  141.4574  156.4256 H   0  0  0  0  0  0  0  0  0  0  0  0
  150.1507  139.9407  156.8379 H   0  0  0  0  0  0  0  0  0  0  0  0
  152.3522  140.9976  155.9918 H   0  0  0  0  0  0  0  0  0  0  0  0
  151.5242  142.5225  155.9101 H   0  0  0  0  0  0  0  0  0  0  0  0
  152.2078  138.8247  159.4631 H   0  0  0  0  0  0  0  0  0  0  0  0
  151.1980  139.0062  158.0426 H   0  0  0  0  0  0  0  0  0  0  0  0
  152.9435  138.2311  157.1864 H   0  0  0  0  0  0  0  0  0  0  0  0
  152.4338  143.5282  161.8127 H   0  0  0  0  0  0  0  0  0  0  0  0
  152.1292  145.8789  161.0697 H   0  0  0  0  0  0  0  0  0  0  0  0
  151.6369  146.3897  158.6870 H   0  0  0  0  0  0  0  0  0  0  0  0
  151.4465  144.5403  157.0280 H   0  0  0  0  0  0  0  0  0  0  0  0
  1  2  1  0  0  0  0
  1 17  1  0  0  0  0
  1 18  1  0  0  0  0
  1 19  1  0  0  0  0
  2  3  1  0  0  0  0
  2 20  1  0  0  0  0
  2 21  1  0  0  0  0
  3  4  1  0  0  0  0
  4  5  1  0  0  0  0
  4 22  1  0  0  0  0
  4 23  1  0  0  0  0
  5  6  1  0  0  0  0
  5 24  1  0  0  0  0
  5 25  1  0  0  0  0
  6 16  1  0  0  0  0
  6  7  1  0  0  0  0
  7  8  1  0  0  0  0
  7 10  2  0  0  0  0
  8  9  1  0  0  0  0
  8 26  1  0  0  0  0
  8 27  1  0  0  0  0
  9 28  1  0  0  0  0
 10 11  1  0  0  0  0
 11 16  2  0  0  0  0
 11 12  1  0  0  0  0
 12 13  2  0  0  0  0
 12 29  1  0  0  0  0
 13 14  1  0  0  0  0
 13 30  1  0  0  0  0
 14 15  2  0  0  0  0
 14 31  1  0  0  0  0
 15 16  1  0  0  0  0
 15 32  1  0  0  0  0
M  END
> <s_m_source_file>
AV-unprocessed.smi

> <i_m_source_file_index>
2948

> <i_lp_mmshare_version>
43012

> <i_f3d_flags>
0

> <s_epik_input>
W0NIM11bQ0gyXU9bQ0gyXVtDSDJdbihjKG4xKVtDSDJdW09IXSljKGMxMilbY0hdW2NIXVtjSF1bY0hdMg==

> <s_epik_cmdline>
J2VwaWtfcHl0aG9uJywgJy1waCcsICc3LjAnLCAnLXRuJywgJzgnLCAnLW1hJywgJzIwMCcsICctbWV0YWxfYmluZGluZycsICctaW1hZScsICc8aW5maWxlLm1hZT4nLCAnLW9tYWUnLCAnPG91dGZpbGUubWFlPic=

> <r_epik_Ionization_Penalty>
0.0599051

> <r_epik_Ionization_Penalty_Charging>
0

> <r_epik_Ionization_Penalty_Neutral>
0.0599051

> <r_epik_State_Penalty>
0.0518308

> <r_epik_Charging_Adjusted_Penalty>
0.0518308

> <i_epik_Tot_Q>
0

> <i_epik_Tot_abs_Q>
0

> <r_epik_Metal_State_Penalty>
5.4163e-05

> <b_epik_Metal_Only>
0

> <s_lp_Force_Field>
OPLS_2005

> <r_lp_Energy>
7.3767

> <b_lp_Chiralities_Consistent>
1

> <s_lp_Variant>
AV-unprocessed.smi:2948-1

> <Gold.Version>
5.8.1

> <Gold.Id.Protein>
6NUR|6NUR_protein|mol2

> <Gold.PLP.Fitness>
43.5893

> <Gold.PLP.PLP>
-38.4035

> <Gold.PLP.part.hbond>
-2.0000

> <Gold.PLP.part.metal>
0.0000

> <Gold.PLP.part.buried>
-5.0615

> <Gold.PLP.part.nonpolar>
-30.6993

> <Gold.PLP.part.repulsive>
0.1057

> <Gold.PLP.ligand.clash>
0.0000

> <Gold.PLP.ligand.torsion>
0.2415

> <Gold.PLP.Chemscore.Hbond>
1.8800

> <Gold.PLP.Chemscore.CHOScore>
0.0000

> <Gold.PLP.Chemscore.Metal>
0.0000

> <Gold.Chemscore.Hbonds>
donor molecule, donor type, donor heavy atom, donor atom, acceptor molecule, acceptor atom, score
      P1  H  7989  7998       L1     3  0.93
      P1  H  7997  8008       L1     9  1.00

> <Gold.PLP.Chemscore.Internal.Correction>
0.0287

> <Gold.Rescore>
     Score         DG    S(hbond)    S(metal)    S(lipo)     H(rot)  DE(clash)    DE(int)     intcor
     17.11     -18.03       1.96        0.00     100.10       2.22       0.83       0.10       ----

> <Gold.Chemscore.Fitness>
17.1064

> <Gold.Chemscore.DG>
-18.0333

> <Gold.Chemscore.ZeroCoef>
-5.4800

> <Gold.Chemscore.Hbond>
1.9552

> <Gold.Chemscore.Metal>
0.0000

> <Gold.Chemscore.Lipo>
100.0990

> <Gold.Chemscore.Internal_Hbond>
0.0000

> <Gold.Chemscore.DEClash>
0.8253

> <Gold.Chemscore.DEInternal>
0.1016

> <Gold.Chemscore.Rot>
2.2221

> <Gold.Chemscore.Internal.Correction>
   9.000000E+99

> <Gold.Chemscore.Hbonds>
donor molecule, donor type, donor heavy atom, donor atom, acceptor molecule, acceptor atom, score
      P1  H  7989  7998       L1     3  0.81
      P1  H  7997  8008       L1     9  0.94

> <Gold.Chemscore.Hbond.Weighted>
-6.5303

> <Gold.Chemscore.Metal.Weighted>
-0.0000

> <Gold.Chemscore.Lipo.Weighted>
-11.7116

> <Gold.Chemscore.Internal_Hbond.Weighted>
0.0000

> <Gold.Chemscore.DEClash.Weighted>
0.8253

> <Gold.Chemscore.DEInternal.Weighted>
0.1016

> <Gold.Chemscore.Rot.Weighted>
5.6886

> <Gold.Chemscore.Internal.Correction.Weighted>
   9.000000E+99

> <Gold.Protein.RotatedTorsions>
[ 6907 6896 6895 6894 ] final   11.98 input  -60.11 | X-H torsion
[ 7974 7965 7964 7962 ] final -111.28 input  175.53 | X-H torsion
[ 8008 7997 7996 7995 ] final  -83.44 input   59.86 | X-H torsion
[ 10167 10162 10161 10158 ] final   43.05 input  -65.29 | X-H torsion
[ 10718 10713 10712 10709 ] final  145.37 input   66.30 | X-H torsion
[ 10763 10752 10751 10750 ] final  -26.56 input  -60.55 | X-H torsion
[ 11005 11000 10999 10996 ] final -102.68 input  -57.11 | X-H torsion

> <Gold.Protein.ActiveResidues>
 VAL166  LYS551  ARG553  GLY616  TRP617  ASP618  TYR619  PRO620  LYS621  CYS622 
 ASP623  PHE694  ASN695  SER759  ASP760  ASP761  ALA762  ILE779  LEU786  VAL792 
 PHE793  MET794  SER795  GLU796  ALA797  LYS798  CYS799  TRP800  GLU811  SER814 

> <Gold.Protein.RotatedAtoms>
  151.7630  135.0805  160.0348 H   0  0  0  0  0  0  0  0  0  0  0  0  # atno 6907 bound_to 6896
  152.3340  133.5986  159.5838 H   0  0  0  0  0  0  0  0  0  0  0  0  # atno 6908 bound_to 6896
  150.7439  133.9740  159.3596 H   0  0  0  0  0  0  0  0  0  0  0  0  # atno 6909 bound_to 6896
  145.1580  140.8864  143.3607 H   0  0  0  0  0  0  0  0  0  0  0  0  # atno 7974 bound_to 7965
  154.6191  140.0619  156.9592 H   0  0  0  0  0  0  0  0  0  0  0  0  # atno 8008 bound_to 7997
  155.1847  140.3302  155.4350 H   0  0  0  0  0  0  0  0  0  0  0  0  # atno 8009 bound_to 7997
  156.2421  140.1891  156.6941 H   0  0  0  0  0  0  0  0  0  0  0  0  # atno 8010 bound_to 7997
  140.3482  144.2384  150.6148 H   0  0  0  0  0  0  0  0  0  0  0  0  # atno 10167 bound_to 10162
  157.3461  131.0943  151.1041 H   0  0  0  0  0  0  0  0  0  0  0  0  # atno 10718 bound_to 10713
  153.7180  135.6946  153.5020 H   0  0  0  0  0  0  0  0  0  0  0  0  # atno 10763 bound_to 10752
  153.2224  135.4365  155.0503 H   0  0  0  0  0  0  0  0  0  0  0  0  # atno 10764 bound_to 10752
  154.8293  135.3464  154.6714 H   0  0  0  0  0  0  0  0  0  0  0  0  # atno 10765 bound_to 10752
  141.1179  133.8578  157.1390 H   0  0  0  0  0  0  0  0  0  0  0  0  # atno 11005 bound_to 11000
  145.0361  139.3299  143.6000 LP  0  0  0  0  0  0  0  0  0  0  0  0  # atno 17320 bound_to 7965
  146.3486  139.9717  142.8705 LP  0  0  0  0  0  0  0  0  0  0  0  0  # atno 17321 bound_to 7965
  140.5244  143.2258  151.8338 LP  0  0  0  0  0  0  0  0  0  0  0  0  # atno 17342 bound_to 10162
  139.4830  144.4797  151.9322 LP  0  0  0  0  0  0  0  0  0  0  0  0  # atno 17343 bound_to 10162
  157.2234  130.6492  149.5820 LP  0  0  0  0  0  0  0  0  0  0  0  0  # atno 17370 bound_to 10713
  155.9714  130.4622  150.6136 LP  0  0  0  0  0  0  0  0  0  0  0  0  # atno 17371 bound_to 10713
  140.0114  134.9986  157.0402 LP  0  0  0  0  0  0  0  0  0  0  0  0  # atno 17394 bound_to 11000
  140.4593  134.1500  155.7189 LP  0  0  0  0  0  0  0  0  0  0  0  0  # atno 17395 bound_to 11000

$$$$
