AV-unprocessed.smi:3284|AV-procd|sdf|12573|dock5
  -GOLD-   2272018493D 1   1.00000     0.00000
 Structure written by MMmdl.
 44 45  0  0  0  0  0  0  0  0  2 V2000
  151.4410  144.3591  157.9071 C   0  0  0  0  0  0  0  0  0  0  0  0
  151.9442  143.5885  159.1164 C   0  0  0  0  0  0  0  0  0  0  0  0
  151.9087  144.1608  160.3350 C   0  0  0  0  0  0  0  0  0  0  0  0
  152.4507  143.5225  161.5929 C   0  0  0  0  0  0  0  0  0  0  0  0
  153.4642  142.4255  161.2590 C   0  0  0  0  0  0  0  0  0  0  0  0
  152.9117  141.4506  160.2065 C   0  0  2  0  0  0  0  0  0  0  0  0
  153.9312  140.3186  159.9731 C   0  0  0  0  0  0  0  0  0  0  0  0
  152.5055  142.1707  158.8829 C   0  0  1  0  0  0  0  0  0  0  0  0
  151.5426  141.2703  158.0642 C   0  0  0  0  0  0  0  0  0  0  0  0
  151.9611  141.1033  156.6571 N   0  3  0  0  0  0  0  0  0  0  0  0
  151.0114  140.3273  155.8369 C   0  0  0  0  0  0  0  0  0  0  0  0
  149.7945  141.1755  155.4461 C   0  0  0  0  0  0  0  0  0  0  0  0
  148.8263  140.4172  154.5925 C   0  0  0  0  0  0  0  0  0  0  0  0
  149.0315  139.1693  154.1829 N   0  0  0  0  0  0  0  0  0  0  0  0
  147.9186  138.8625  153.4069 C   0  0  0  0  0  0  0  0  0  0  0  0
  147.0771  139.9480  153.3686 C   0  0  0  0  0  0  0  0  0  0  0  0
  147.6755  140.9435  154.1297 N   0  0  0  0  0  0  0  0  0  0  0  0
  147.1437  142.2726  154.3611 C   0  0  0  0  0  0  0  0  0  0  0  0
  152.1847  144.3483  157.1101 H   0  0  0  0  0  0  0  0  0  0  0  0
  151.2421  145.4020  158.1571 H   0  0  0  0  0  0  0  0  0  0  0  0
  150.5104  143.9330  157.5323 H   0  0  0  0  0  0  0  0  0  0  0  0
  151.4848  145.1474  160.4554 H   0  0  0  0  0  0  0  0  0  0  0  0
  152.9263  144.2883  162.2060 H   0  0  0  0  0  0  0  0  0  0  0  0
  151.6171  143.1207  162.1696 H   0  0  0  0  0  0  0  0  0  0  0  0
  154.3839  142.8804  160.8879 H   0  0  0  0  0  0  0  0  0  0  0  0
  153.7310  141.8914  162.1717 H   0  0  0  0  0  0  0  0  0  0  0  0
  152.0136  141.0027  160.6357 H   0  0  0  0  0  0  0  0  0  0  0  0
  154.8517  140.7012  159.5308 H   0  0  0  0  0  0  0  0  0  0  0  0
  153.5477  139.5399  159.3155 H   0  0  0  0  0  0  0  0  0  0  0  0
  154.1969  139.8339  160.9130 H   0  0  0  0  0  0  0  0  0  0  0  0
  153.4177  142.3128  158.3014 H   0  0  0  0  0  0  0  0  0  0  0  0
  151.4788  140.2726  158.4952 H   0  0  0  0  0  0  0  0  0  0  0  0
  150.5332  141.6829  158.0993 H   0  0  0  0  0  0  0  0  0  0  0  0
  152.0641  142.0203  156.2460 H   0  0  0  0  0  0  0  0  0  0  0  0
  151.5200  139.9682  154.9413 H   0  0  0  0  0  0  0  0  0  0  0  0
  150.6872  139.4498  156.3982 H   0  0  0  0  0  0  0  0  0  0  0  0
  149.2718  141.5072  156.3442 H   0  0  0  0  0  0  0  0  0  0  0  0
  150.1108  142.0810  154.9274 H   0  0  0  0  0  0  0  0  0  0  0  0
  147.8117  137.8949  152.9391 H   0  0  0  0  0  0  0  0  0  0  0  0
  146.1283  140.0905  152.8722 H   0  0  0  0  0  0  0  0  0  0  0  0
  146.2693  142.4420  153.7319 H   0  0  0  0  0  0  0  0  0  0  0  0
  147.8974  143.0230  154.1220 H   0  0  0  0  0  0  0  0  0  0  0  0
  146.8513  142.3749  155.4064 H   0  0  0  0  0  0  0  0  0  0  0  0
  152.8581  140.6394  156.6411 H   0  0  0  0  0  0  0  0  0  0  0  0
  1  2  1  0  0  0  0
  1 19  1  0  0  0  0
  1 20  1  0  0  0  0
  1 21  1  0  0  0  0
  2  8  1  0  0  0  0
  2  3  2  0  0  0  0
  3  4  1  0  0  0  0
  3 22  1  0  0  0  0
  4  5  1  0  0  0  0
  4 23  1  0  0  0  0
  4 24  1  0  0  0  0
  5  6  1  0  0  0  0
  5 25  1  0  0  0  0
  5 26  1  0  0  0  0
  6  7  1  0  0  0  0
  6  8  1  0  0  0  0
  6 27  1  0  0  0  0
  7 28  1  0  0  0  0
  7 29  1  0  0  0  0
  7 30  1  0  0  0  0
  8  9  1  0  0  0  0
  8 31  1  0  0  0  0
  9 10  1  0  0  0  0
  9 32  1  0  0  0  0
  9 33  1  0  0  0  0
 10 11  1  0  0  0  0
 10 34  1  0  0  0  0
 10 44  1  0  0  0  0
 11 12  1  0  0  0  0
 11 35  1  0  0  0  0
 11 36  1  0  0  0  0
 12 13  1  0  0  0  0
 12 37  1  0  0  0  0
 12 38  1  0  0  0  0
 13 17  1  0  0  0  0
 13 14  2  0  0  0  0
 14 15  1  0  0  0  0
 15 16  2  0  0  0  0
 15 39  1  0  0  0  0
 16 17  1  0  0  0  0
 16 40  1  0  0  0  0
 17 18  1  0  0  0  0
 18 41  1  0  0  0  0
 18 42  1  0  0  0  0
 18 43  1  0  0  0  0
M  CHG  1  10   1
M  END
> <s_m_source_file>
AV-unprocessed.smi

> <i_m_source_file_index>
3284

> <i_lp_mmshare_version>
43012

> <i_f3d_flags>
0

> <s_epik_input>
W0NIM11DMT1bQ0hdW0NIMl1bQ0gyXVtDQEBIXShbQ0gzXSlbQ0BIXTFbQ0gyXVtOSF1bQ0gyXVtDSDJdYzJuW2NIXVtjSF1uMltDSDNd

> <s_epik_cmdline>
J2VwaWtfcHl0aG9uJywgJy1waCcsICc3LjAnLCAnLXRuJywgJzgnLCAnLW1hJywgJzIwMCcsICctbWV0YWxfYmluZGluZycsICctaW1hZScsICc8aW5maWxlLm1hZT4nLCAnLW9tYWUnLCAnPG91dGZpbGUubWFlPic=

> <r_lp_tautomer_probability>
1

> <r_epik_Ionization_Penalty>
0.150779

> <r_epik_Ionization_Penalty_Charging>
0.150779

> <r_epik_Ionization_Penalty_Neutral>
1.39452e-13

> <r_epik_State_Penalty>
0.349447

> <r_epik_Charging_Adjusted_Penalty>
0.500226

> <i_epik_Tot_Q>
1

> <i_epik_Tot_abs_Q>
1

> <r_epik_Metal_State_Penalty>
0.000470967

> <b_epik_Metal_Only>
0

> <s_lp_Force_Field>
OPLS_2005

> <r_lp_Energy>
12.7039

> <b_lp_Chiralities_Consistent>
1

> <s_lp_Variant>
AV-unprocessed.smi:3284-2

> <Gold.Version>
5.8.1

> <Gold.Id.Protein>
6NUR|6NUR_protein|mol2

> <Gold.PLP.Fitness>
49.9585

> <Gold.PLP.PLP>
-45.3828

> <Gold.PLP.part.hbond>
0.0000

> <Gold.PLP.part.metal>
0.0000

> <Gold.PLP.part.buried>
-0.4793

> <Gold.PLP.part.nonpolar>
-43.7435

> <Gold.PLP.part.repulsive>
0.3070

> <Gold.PLP.ligand.clash>
0.0000

> <Gold.PLP.ligand.torsion>
0.7400

> <Gold.PLP.Chemscore.Hbond>
0.0000

> <Gold.PLP.Chemscore.CHOScore>
2.0000

> <Gold.PLP.Chemscore.Metal>
0.0000

> <Gold.Chemscore.Hbonds>
donor molecule, donor type, donor heavy atom, donor atom, acceptor molecule, acceptor atom, score
      L1  C    15    39       P1  7948  1.00
      L1  C    16    40       P1 10175  1.00

> <Gold.PLP.Chemscore.Internal.Correction>
0.0557

> <Gold.Rescore>
     Score         DG    S(hbond)    S(metal)    S(lipo)     H(rot)  DE(clash)    DE(int)     intcor
     15.40     -16.13       0.00        0.00     126.24       1.61       0.10       0.63       ----

> <Gold.Chemscore.Fitness>
15.4009

> <Gold.Chemscore.DG>
-16.1269

> <Gold.Chemscore.ZeroCoef>
-5.4800

> <Gold.Chemscore.Hbond>
0.0000

> <Gold.Chemscore.Metal>
0.0000

> <Gold.Chemscore.Lipo>
126.2387

> <Gold.Chemscore.Internal_Hbond>
0.0000

> <Gold.Chemscore.DEClash>
0.0990

> <Gold.Chemscore.DEInternal>
0.6270

> <Gold.Chemscore.Rot>
1.6105

> <Gold.Chemscore.Internal.Correction>
   9.000000E+99

> <Gold.Chemscore.Hbond.Weighted>
-0.0000

> <Gold.Chemscore.Metal.Weighted>
-0.0000

> <Gold.Chemscore.Lipo.Weighted>
-14.7699

> <Gold.Chemscore.Internal_Hbond.Weighted>
0.0000

> <Gold.Chemscore.DEClash.Weighted>
0.0990

> <Gold.Chemscore.DEInternal.Weighted>
0.6270

> <Gold.Chemscore.Rot.Weighted>
4.1230

> <Gold.Chemscore.Internal.Correction.Weighted>
   9.000000E+99

> <Gold.Protein.RotatedTorsions>
[ 6907 6896 6895 6894 ] final   83.03 input  -60.11 | X-H torsion
[ 7974 7965 7964 7962 ] final  -38.48 input  175.53 | X-H torsion
[ 8008 7997 7996 7995 ] final  130.83 input   59.86 | X-H torsion
[ 10167 10162 10161 10158 ] final -106.98 input  -65.29 | X-H torsion
[ 10718 10713 10712 10709 ] final -175.41 input   66.30 | X-H torsion
[ 10763 10752 10751 10750 ] final   52.40 input  -60.55 | X-H torsion
[ 11005 11000 10999 10996 ] final  -49.81 input  -57.11 | X-H torsion

> <Gold.Protein.ActiveResidues>
 VAL166  LYS551  ARG553  GLY616  TRP617  ASP618  TYR619  PRO620  LYS621  CYS622 
 ASP623  PHE694  ASN695  SER759  ASP760  ASP761  ALA762  ILE779  LEU786  VAL792 
 PHE793  MET794  SER795  GLU796  ALA797  LYS798  CYS799  TRP800  GLU811  SER814 

> <Gold.Protein.RotatedAtoms>
  152.5316  134.2959  159.9060 H   0  0  0  0  0  0  0  0  0  0  0  0  # atno 6907 bound_to 6896
  151.2910  133.4159  159.2641 H   0  0  0  0  0  0  0  0  0  0  0  0  # atno 6908 bound_to 6896
  151.0201  134.9478  159.8111 H   0  0  0  0  0  0  0  0  0  0  0  0  # atno 6909 bound_to 6896
  146.0482  140.6517  142.9054 H   0  0  0  0  0  0  0  0  0  0  0  0  # atno 7974 bound_to 7965
  156.2961  140.2586  156.2825 H   0  0  0  0  0  0  0  0  0  0  0  0  # atno 8008 bound_to 7997
  154.9588  140.0393  157.2198 H   0  0  0  0  0  0  0  0  0  0  0  0  # atno 8009 bound_to 7997
  154.7967  140.2821  155.5956 H   0  0  0  0  0  0  0  0  0  0  0  0  # atno 8010 bound_to 7997
  140.1820  143.3959  152.1274 H   0  0  0  0  0  0  0  0  0  0  0  0  # atno 10167 bound_to 10162
  156.7995  130.9547  151.3119 H   0  0  0  0  0  0  0  0  0  0  0  0  # atno 10718 bound_to 10713
  152.9789  135.5814  154.4572 H   0  0  0  0  0  0  0  0  0  0  0  0  # atno 10763 bound_to 10752
  154.4153  135.2770  155.2012 H   0  0  0  0  0  0  0  0  0  0  0  0  # atno 10764 bound_to 10752
  154.3784  135.6152  153.5832 H   0  0  0  0  0  0  0  0  0  0  0  0  # atno 10765 bound_to 10752
  141.0780  133.6660  156.3640 H   0  0  0  0  0  0  0  0  0  0  0  0  # atno 11005 bound_to 11000
  144.7109  140.4034  143.7081 LP  0  0  0  0  0  0  0  0  0  0  0  0  # atno 17320 bound_to 7965
  145.6769  139.1610  143.2723 LP  0  0  0  0  0  0  0  0  0  0  0  0  # atno 17321 bound_to 7965
  139.5292  144.7139  151.5117 LP  0  0  0  0  0  0  0  0  0  0  0  0  # atno 17342 bound_to 10162
  140.6513  143.8690  150.6789 LP  0  0  0  0  0  0  0  0  0  0  0  0  # atno 17343 bound_to 10162
  157.6561  130.8925  149.9731 LP  0  0  0  0  0  0  0  0  0  0  0  0  # atno 17370 bound_to 10713
  156.1110  130.3650  150.0050 LP  0  0  0  0  0  0  0  0  0  0  0  0  # atno 17371 bound_to 10713
  140.5530  134.6009  157.5413 LP  0  0  0  0  0  0  0  0  0  0  0  0  # atno 17394 bound_to 11000
  139.9593  134.7480  156.0272 LP  0  0  0  0  0  0  0  0  0  0  0  0  # atno 17395 bound_to 11000

$$$$
