AV-unprocessed.smi:548|AV-procd|sdf|2890|dock1
  -GOLD-   2262023383D 1   1.00000     0.00000
 Structure written by MMmdl.
 25 25  0  0  0  0  0  0  0  0  3 V2000
  150.3559  138.8514  157.6312 C   0  0  0  0  0  0  0  0  0  0  0  0
  151.6146  139.7170  157.3762 C   0  0  0  0  0  0  0  0  0  0  0  0
  152.7620  139.2075  158.2829 C   0  0  0  0  0  0  0  0  0  0  0  0
  152.0403  139.5583  155.8898 C   0  0  0  0  0  0  0  0  0  0  0  0
  153.1697  139.0739  155.6524 O   0  0  0  0  0  0  0  0  0  0  0  0
  151.2518  139.9677  155.0080 O   0  5  0  0  0  0  0  0  0  0  0  0
  151.3097  141.1990  157.6935 C   0  0  0  0  0  0  0  0  0  0  0  0
  152.1055  141.8723  158.6532 C   0  0  0  0  0  0  0  0  0  0  0  0
  151.8565  143.2235  158.9677 C   0  0  0  0  0  0  0  0  0  0  0  0
  150.8062  143.8962  158.3149 C   0  0  0  0  0  0  0  0  0  0  0  0
  150.5034  145.2307  158.5766 N   0  0  0  0  0  0  0  0  0  0  0  0
  150.0605  143.2381  157.4044 N   0  3  0  0  0  0  0  0  0  0  0  0
  150.2681  141.9440  157.0763 C   0  0  0  0  0  0  0  0  0  0  0  0
  149.4918  139.2192  157.0760 H   0  0  0  0  0  0  0  0  0  0  0  0
  150.0777  138.8419  158.6850 H   0  0  0  0  0  0  0  0  0  0  0  0
  150.5200  137.8134  157.3385 H   0  0  0  0  0  0  0  0  0  0  0  0
  153.6517  139.8339  158.2016 H   0  0  0  0  0  0  0  0  0  0  0  0
  153.0506  138.1872  158.0256 H   0  0  0  0  0  0  0  0  0  0  0  0
  152.4736  139.1983  159.3340 H   0  0  0  0  0  0  0  0  0  0  0  0
  152.9116  141.3582  159.1543 H   0  0  0  0  0  0  0  0  0  0  0  0
  152.4675  143.7301  159.7006 H   0  0  0  0  0  0  0  0  0  0  0  0
  151.0301  145.7693  159.2494 H   0  0  0  0  0  0  0  0  0  0  0  0
  149.7470  145.7035  158.1033 H   0  0  0  0  0  0  0  0  0  0  0  0
  149.5857  141.5641  156.3302 H   0  0  0  0  0  0  0  0  0  0  0  0
  149.3025  143.7371  156.9387 H   0  0  0  0  0  0  0  0  0  0  0  0
  1  2  1  0  0  0  0
  1 14  1  0  0  0  0
  1 15  1  0  0  0  0
  1 16  1  0  0  0  0
  2  3  1  0  0  0  0
  2  4  1  0  0  0  0
  2  7  1  0  0  0  0
  3 17  1  0  0  0  0
  3 18  1  0  0  0  0
  3 19  1  0  0  0  0
  4  5  2  0  0  0  0
  4  6  1  0  0  0  0
  7 13  1  0  0  0  0
  7  8  2  0  0  0  0
  8  9  1  0  0  0  0
  8 20  1  0  0  0  0
  9 10  2  0  0  0  0
  9 21  1  0  0  0  0
 10 11  1  0  0  0  0
 10 12  1  0  0  0  0
 11 22  1  0  0  0  0
 11 23  1  0  0  0  0
 12 13  2  0  0  0  0
 12 25  1  0  0  0  0
 13 24  1  0  0  0  0
M  CHG  1   6  -1
M  CHG  1  12   1
M  END
> <s_m_source_file>
AV-unprocessed.smi

> <i_m_source_file_index>
548

> <i_lp_mmshare_version>
43012

> <i_f3d_flags>
0

> <s_epik_input>
Tz1DKFtPSF0pQyhbQ0gzXSkoW0NIM10pYzFbY0hdW2NIXWMoW05IMl0pbltjSF0x

> <s_epik_cmdline>
J2VwaWtfcHl0aG9uJywgJy1waCcsICc3LjAnLCAnLXRuJywgJzgnLCAnLW1hJywgJzIwMCcsICctbWV0YWxfYmluZGluZycsICctaW1hZScsICc8aW5maWxlLm1hZT4nLCAnLW9tYWUnLCAnPG91dGZpbGUubWFlPic=

> <r_lp_tautomer_probability>
0.999994

> <r_epik_Ionization_Penalty>
0.0472787

> <r_epik_Ionization_Penalty_Charging>
0.0472785

> <r_epik_Ionization_Penalty_Neutral>
2.36651e-07

> <r_epik_State_Penalty>
0.0398874

> <r_epik_Charging_Adjusted_Penalty>
0.0871658

> <i_epik_Tot_Q>
0

> <i_epik_Tot_abs_Q>
2

> <r_epik_Metal_State_Penalty>
2.52256

> <b_epik_Metal_Only>
0

> <s_lp_Force_Field>
OPLS_2005

> <r_lp_Energy>
11.9737

> <b_lp_Chiralities_Consistent>
1

> <s_lp_Variant>
AV-unprocessed.smi:548-1

> <Gold.Version>
5.8.1

> <Gold.Id.Protein>
6NUR|6NUR_protein|mol2

> <Gold.PLP.Fitness>
44.2278

> <Gold.PLP.PLP>
-23.3018

> <Gold.PLP.part.hbond>
-4.0330

> <Gold.PLP.part.metal>
0.0000

> <Gold.PLP.part.buried>
-4.8324

> <Gold.PLP.part.nonpolar>
-15.8443

> <Gold.PLP.part.repulsive>
0.2734

> <Gold.PLP.ligand.clash>
0.0000

> <Gold.PLP.ligand.torsion>
0.0435

> <Gold.PLP.Chemscore.Hbond>
7.0000

> <Gold.PLP.Chemscore.CHOScore>
0.0000

> <Gold.PLP.Chemscore.Metal>
0.0000

> <Gold.Chemscore.Hbonds>
donor molecule, donor type, donor heavy atom, donor atom, acceptor molecule, acceptor atom, score
      L1  H    11    23       P1  8029  2.00
      L1  H    12    25       P1  8028  1.86
      P1  H  7989  7998       L1     6  1.00
      P1  H  7997  8009       L1     5  2.00

> <Gold.PLP.Chemscore.Internal.Correction>
0.0131

> <Gold.Rescore>
     Score         DG    S(hbond)    S(metal)    S(lipo)     H(rot)  DE(clash)    DE(int)     intcor
     16.37     -16.66       2.95        0.00      43.93       1.50       0.00       0.29       ----

> <Gold.Chemscore.Fitness>
16.3687

> <Gold.Chemscore.DG>
-16.6560

> <Gold.Chemscore.ZeroCoef>
-5.4800

> <Gold.Chemscore.Hbond>
2.9538

> <Gold.Chemscore.Metal>
0.0000

> <Gold.Chemscore.Lipo>
43.9324

> <Gold.Chemscore.Internal_Hbond>
0.0000

> <Gold.Chemscore.DEClash>
0.0004

> <Gold.Chemscore.DEInternal>
0.2869

> <Gold.Chemscore.Rot>
1.4961

> <Gold.Chemscore.Internal.Correction>
   9.000000E+99

> <Gold.Chemscore.Hbonds>
donor molecule, donor type, donor heavy atom, donor atom, acceptor molecule, acceptor atom, score
      L1  H    11    23       P1  8029  0.42
      L1  H    12    25       P1  8028  0.70
      P1  H  7989  7998       L1     6  1.00
      P1  H  7997  8009       L1     5  0.69

> <Gold.Chemscore.Hbond.Weighted>
-9.8658

> <Gold.Chemscore.Metal.Weighted>
-0.0000

> <Gold.Chemscore.Lipo.Weighted>
-5.1401

> <Gold.Chemscore.Internal_Hbond.Weighted>
0.0000

> <Gold.Chemscore.DEClash.Weighted>
0.0004

> <Gold.Chemscore.DEInternal.Weighted>
0.2869

> <Gold.Chemscore.Rot.Weighted>
3.8299

> <Gold.Chemscore.Internal.Correction.Weighted>
   9.000000E+99

> <Gold.Protein.RotatedTorsions>
[ 6907 6896 6895 6894 ] final   10.06 input  -60.11 | X-H torsion
[ 7974 7965 7964 7962 ] final  -98.73 input  175.53 | X-H torsion
[ 8008 7997 7996 7995 ] final -159.14 input   59.86 | X-H torsion
[ 10167 10162 10161 10158 ] final  -50.65 input  -65.29 | X-H torsion
[ 10718 10713 10712 10709 ] final   -8.89 input   66.30 | X-H torsion
[ 10763 10752 10751 10750 ] final  102.67 input  -60.55 | X-H torsion
[ 11005 11000 10999 10996 ] final -123.88 input  -57.11 | X-H torsion

> <Gold.Protein.ActiveResidues>
 VAL166  LYS551  ARG553  GLY616  TRP617  ASP618  TYR619  PRO620  LYS621  CYS622 
 ASP623  PHE694  ASN695  SER759  ASP760  ASP761  ALA762  ILE779  LEU786  VAL792 
 PHE793  MET794  SER795  GLU796  ALA797  LYS798  CYS799  TRP800  GLU811  SER814 

> <Gold.Protein.RotatedAtoms>
  151.7321  135.0872  160.0301 H   0  0  0  0  0  0  0  0  0  0  0  0  # atno 6907 bound_to 6896
  152.3534  133.6203  159.5970 H   0  0  0  0  0  0  0  0  0  0  0  0  # atno 6908 bound_to 6896
  150.7555  133.9454  159.3511 H   0  0  0  0  0  0  0  0  0  0  0  0  # atno 6909 bound_to 6896
  145.3168  140.9413  143.2738 H   0  0  0  0  0  0  0  0  0  0  0  0  # atno 7974 bound_to 7965
  155.7581  140.0835  157.2169 H   0  0  0  0  0  0  0  0  0  0  0  0  # atno 8008 bound_to 7997
  154.4006  140.1548  156.2857 H   0  0  0  0  0  0  0  0  0  0  0  0  # atno 8009 bound_to 7997
  155.8866  140.3417  155.5928 H   0  0  0  0  0  0  0  0  0  0  0  0  # atno 8010 bound_to 7997
  140.6627  143.2649  151.4390 H   0  0  0  0  0  0  0  0  0  0  0  0  # atno 10167 bound_to 10162
  156.6959  130.5079  149.5930 H   0  0  0  0  0  0  0  0  0  0  0  0  # atno 10718 bound_to 10713
  153.3426  135.4002  155.1584 H   0  0  0  0  0  0  0  0  0  0  0  0  # atno 10763 bound_to 10752
  154.8646  135.3637  154.5326 H   0  0  0  0  0  0  0  0  0  0  0  0  # atno 10764 bound_to 10752
  153.5772  135.7077  153.5538 H   0  0  0  0  0  0  0  0  0  0  0  0  # atno 10765 bound_to 10752
  140.9885  134.0573  157.3683 H   0  0  0  0  0  0  0  0  0  0  0  0  # atno 11005 bound_to 11000
  144.8971  139.4697  143.6650 LP  0  0  0  0  0  0  0  0  0  0  0  0  # atno 17320 bound_to 7965
  146.3097  139.7704  142.9029 LP  0  0  0  0  0  0  0  0  0  0  0  0  # atno 17321 bound_to 7965
  139.5866  144.1591  152.2036 LP  0  0  0  0  0  0  0  0  0  0  0  0  # atno 17342 bound_to 10162
  140.0933  144.5602  150.7039 LP  0  0  0  0  0  0  0  0  0  0  0  0  # atno 17343 bound_to 10162
  156.1763  130.6470  151.0898 LP  0  0  0  0  0  0  0  0  0  0  0  0  # atno 17370 bound_to 10713
  157.6991  131.0783  150.6876 LP  0  0  0  0  0  0  0  0  0  0  0  0  # atno 17371 bound_to 10713
  139.8981  135.0153  156.7133 LP  0  0  0  0  0  0  0  0  0  0  0  0  # atno 17394 bound_to 11000
  140.7077  133.9250  155.8065 LP  0  0  0  0  0  0  0  0  0  0  0  0  # atno 17395 bound_to 11000

$$$$
