AV-unprocessed.smi:1971|AV-procd|sdf|7965|dock8
  -GOLD-   2272010133D 1   1.00000     0.00000
 Structure written by MMmdl.
 44 45  0  0  0  0  0  0  0  0  2 V2000
  150.4466  141.6804  156.0378 C   0  0  0  0  0  0  0  0  0  0  0  0
  151.1104  140.2989  155.9469 C   0  0  0  0  0  0  0  0  0  0  0  0
  150.9726  139.7112  154.6120 N   0  0  0  0  0  0  0  0  0  0  0  0
  151.8646  138.5783  154.3388 C   0  0  0  0  0  0  0  0  0  0  0  0
  151.4778  137.3211  155.1459 C   0  0  0  0  0  0  0  0  0  0  0  0
  150.0727  136.9408  154.8608 N   0  3  0  0  0  0  0  0  0  0  0  0
  149.6647  135.6323  155.4510 C   0  0  1  0  0  0  0  0  0  0  0  0
  150.0898  135.4605  156.9224 C   0  0  0  0  0  0  0  0  0  0  0  0
  148.1535  135.3560  155.2642 C   0  0  0  0  0  0  0  0  0  0  0  0
  147.7789  135.0635  153.8820 N   0  0  0  0  0  0  0  0  0  0  0  0
  146.7884  134.2406  153.5081 C   0  0  0  0  0  0  0  0  0  0  0  0
  146.0965  133.6094  154.3069 O   0  0  0  0  0  0  0  0  0  0  0  0
  146.6662  134.2000  152.1700 N   0  0  0  0  0  0  0  0  0  0  0  0
  145.7470  133.4438  151.3961 C   0  0  0  0  0  0  0  0  0  0  0  0
  145.8327  132.1226  151.2011 N   0  0  0  0  0  0  0  0  0  0  0  0
  144.7937  131.6429  150.3994 C   0  0  0  0  0  0  0  0  0  0  0  0
  143.9217  132.6201  149.9882 C   0  0  0  0  0  0  0  0  0  0  0  0
  144.3730  134.1910  150.5948 S   0  0  0  0  0  0  0  0  0  0  0  0
  149.1590  138.0789  155.1324 C   0  0  0  0  0  0  0  0  0  0  0  0
  149.5932  139.3140  154.3161 C   0  0  0  0  0  0  0  0  0  0  0  0
  150.4521  142.0377  157.0677 H   0  0  0  0  0  0  0  0  0  0  0  0
  149.4074  141.6426  155.7092 H   0  0  0  0  0  0  0  0  0  0  0  0
  150.9663  142.4263  155.4370 H   0  0  0  0  0  0  0  0  0  0  0  0
  152.1532  140.3614  156.2555 H   0  0  0  0  0  0  0  0  0  0  0  0
  150.6162  139.6426  156.6646 H   0  0  0  0  0  0  0  0  0  0  0  0
  151.8121  138.3510  153.2732 H   0  0  0  0  0  0  0  0  0  0  0  0
  152.9014  138.8499  154.5333 H   0  0  0  0  0  0  0  0  0  0  0  0
  152.1396  136.5024  154.8609 H   0  0  0  0  0  0  0  0  0  0  0  0
  151.6252  137.4821  156.2135 H   0  0  0  0  0  0  0  0  0  0  0  0
  150.1893  134.8629  154.8834 H   0  0  0  0  0  0  0  0  0  0  0  0
  149.8708  134.4498  157.2680 H   0  0  0  0  0  0  0  0  0  0  0  0
  149.5596  136.1466  157.5829 H   0  0  0  0  0  0  0  0  0  0  0  0
  151.1591  135.6208  157.0589 H   0  0  0  0  0  0  0  0  0  0  0  0
  147.8404  134.5313  155.9068 H   0  0  0  0  0  0  0  0  0  0  0  0
  147.5716  136.2207  155.5834 H   0  0  0  0  0  0  0  0  0  0  0  0
  148.2903  135.5494  153.1593 H   0  0  0  0  0  0  0  0  0  0  0  0
  147.3005  134.7802  151.6407 H   0  0  0  0  0  0  0  0  0  0  0  0
  144.7512  130.5883  150.1704 H   0  0  0  0  0  0  0  0  0  0  0  0
  143.0443  132.5109  149.3682 H   0  0  0  0  0  0  0  0  0  0  0  0
  148.1409  137.8104  154.8512 H   0  0  0  0  0  0  0  0  0  0  0  0
  149.1385  138.3131  156.1967 H   0  0  0  0  0  0  0  0  0  0  0  0
  148.9199  140.1509  154.5054 H   0  0  0  0  0  0  0  0  0  0  0  0
  149.5142  139.0940  153.2505 H   0  0  0  0  0  0  0  0  0  0  0  0
  150.0409  136.7964  153.8617 H   0  0  0  0  0  0  0  0  0  0  0  0
  1  2  1  0  0  0  0
  1 21  1  0  0  0  0
  1 22  1  0  0  0  0
  1 23  1  0  0  0  0
  2  3  1  0  0  0  0
  2 24  1  0  0  0  0
  2 25  1  0  0  0  0
  3 20  1  0  0  0  0
  3  4  1  0  0  0  0
  4  5  1  0  0  0  0
  4 26  1  0  0  0  0
  4 27  1  0  0  0  0
  5  6  1  0  0  0  0
  5 28  1  0  0  0  0
  5 29  1  0  0  0  0
  6  7  1  0  0  0  0
  6 19  1  0  0  0  0
  6 44  1  0  0  0  0
  7  8  1  0  0  0  0
  7  9  1  0  0  0  0
  7 30  1  0  0  0  0
  8 31  1  0  0  0  0
  8 32  1  0  0  0  0
  8 33  1  0  0  0  0
  9 10  1  0  0  0  0
  9 34  1  0  0  0  0
  9 35  1  0  0  0  0
 10 11  1  0  0  0  0
 10 36  1  0  0  0  0
 11 12  2  0  0  0  0
 11 13  1  0  0  0  0
 13 14  1  0  0  0  0
 13 37  1  0  0  0  0
 14 18  1  0  0  0  0
 14 15  2  0  0  0  0
 15 16  1  0  0  0  0
 16 17  2  0  0  0  0
 16 38  1  0  0  0  0
 17 18  1  0  0  0  0
 17 39  1  0  0  0  0
 19 20  1  0  0  0  0
 19 40  1  0  0  0  0
 19 41  1  0  0  0  0
 20 42  1  0  0  0  0
 20 43  1  0  0  0  0
M  CHG  1   6   1
M  END
> <s_m_source_file>
AV-unprocessed.smi

> <i_m_source_file_index>
1971

> <i_lp_mmshare_version>
43012

> <i_f3d_flags>
0

> <s_epik_input>
W0NIM11bQ0gyXU4xW0NIMl1bQ0gyXU4oW0NIMl1bQ0gyXTEpW0NASF0oW0NIM10pW0NIMl1bTkhdQyg9TylbTkhdYzJuW2NIXVtjSF1zMg==

> <s_epik_cmdline>
J2VwaWtfcHl0aG9uJywgJy1waCcsICc3LjAnLCAnLXRuJywgJzgnLCAnLW1hJywgJzIwMCcsICctbWV0YWxfYmluZGluZycsICctaW1hZScsICc8aW5maWxlLm1hZT4nLCAnLW9tYWUnLCAnPG91dGZpbGUubWFlPic=

> <r_epik_Ionization_Penalty>
0.150098

> <r_epik_Ionization_Penalty_Charging>
0.148467

> <r_epik_Ionization_Penalty_Neutral>
0.00163072

> <r_epik_State_Penalty>
0.974087

> <r_epik_Charging_Adjusted_Penalty>
1.12255

> <i_epik_Tot_Q>
1

> <i_epik_Tot_abs_Q>
1

> <r_epik_Metal_State_Penalty>
1.00741

> <b_epik_Metal_Only>
0

> <s_lp_Force_Field>
OPLS_2005

> <r_lp_Energy>
24.0056

> <b_lp_Chiralities_Consistent>
1

> <s_lp_Variant>
AV-unprocessed.smi:1971-4

> <Gold.Version>
5.8.1

> <Gold.Id.Protein>
6NUR|6NUR_protein|mol2

> <Gold.PLP.Fitness>
42.3893

> <Gold.PLP.PLP>
-32.0803

> <Gold.PLP.part.hbond>
-3.3654

> <Gold.PLP.part.metal>
0.0000

> <Gold.PLP.part.buried>
-5.0822

> <Gold.PLP.part.nonpolar>
-25.1426

> <Gold.PLP.part.repulsive>
0.3485

> <Gold.PLP.ligand.clash>
0.0000

> <Gold.PLP.ligand.torsion>
1.3226

> <Gold.PLP.Chemscore.Hbond>
3.4089

> <Gold.PLP.Chemscore.CHOScore>
0.8682

> <Gold.PLP.Chemscore.Metal>
0.0000

> <Gold.Chemscore.Hbonds>
donor molecule, donor type, donor heavy atom, donor atom, acceptor molecule, acceptor atom, score
      L1  H     6    44       P1  7948  0.62
      L1  H    10    36       P1  7948  1.00
      L1  H    13    37       P1  7948  0.60
      P1  H  7989  7998       L1     3  0.95
      L1  C    17    39       P1 10186  0.27

> <Gold.PLP.Chemscore.Internal.Correction>
0.1228

> <Gold.Rescore>
     Score         DG    S(hbond)    S(metal)    S(lipo)     H(rot)  DE(clash)    DE(int)     intcor
     14.58     -15.93       1.89        0.00      74.66       1.79       0.00       1.35       ----

> <Gold.Chemscore.Fitness>
14.5826

> <Gold.Chemscore.DG>
-15.9294

> <Gold.Chemscore.ZeroCoef>
-5.4800

> <Gold.Chemscore.Hbond>
1.8881

> <Gold.Chemscore.Metal>
0.0000

> <Gold.Chemscore.Lipo>
74.6589

> <Gold.Chemscore.Internal_Hbond>
0.0000

> <Gold.Chemscore.DEClash>
0.0000

> <Gold.Chemscore.DEInternal>
1.3468

> <Gold.Chemscore.Rot>
1.7937

> <Gold.Chemscore.Internal.Correction>
   9.000000E+99

> <Gold.Chemscore.Hbonds>
donor molecule, donor type, donor heavy atom, donor atom, acceptor molecule, acceptor atom, score
      L1  H     6    44       P1  7948  0.09
      L1  H    10    36       P1  7948  0.98
      L1  H    13    37       P1  7948  0.39
      P1  H  7989  7998       L1     3  0.11

> <Gold.Chemscore.Hbond.Weighted>
-6.3062

> <Gold.Chemscore.Metal.Weighted>
-0.0000

> <Gold.Chemscore.Lipo.Weighted>
-8.7351

> <Gold.Chemscore.Internal_Hbond.Weighted>
0.0000

> <Gold.Chemscore.DEClash.Weighted>
0.0000

> <Gold.Chemscore.DEInternal.Weighted>
1.3468

> <Gold.Chemscore.Rot.Weighted>
4.5919

> <Gold.Chemscore.Internal.Correction.Weighted>
   9.000000E+99

> <Gold.Protein.RotatedTorsions>
[ 6907 6896 6895 6894 ] final  115.87 input  -60.11 | X-H torsion
[ 7974 7965 7964 7962 ] final   43.68 input  175.53 | X-H torsion
[ 8008 7997 7996 7995 ] final -127.76 input   59.86 | X-H torsion
[ 10167 10162 10161 10158 ] final -125.94 input  -65.29 | X-H torsion
[ 10718 10713 10712 10709 ] final  -43.95 input   66.30 | X-H torsion
[ 10763 10752 10751 10750 ] final   76.02 input  -60.55 | X-H torsion
[ 11005 11000 10999 10996 ] final  -25.80 input  -57.11 | X-H torsion

> <Gold.Protein.ActiveResidues>
 VAL166  LYS551  ARG553  GLY616  TRP617  ASP618  TYR619  PRO620  LYS621  CYS622 
 ASP623  PHE694  ASN695  SER759  ASP760  ASP761  ALA762  ILE779  LEU786  VAL792 
 PHE793  MET794  SER795  GLU796  ALA797  LYS798  CYS799  TRP800  GLU811  SER814 

> <Gold.Protein.RotatedAtoms>
  152.4714  133.8039  159.6967 H   0  0  0  0  0  0  0  0  0  0  0  0  # atno 6907 bound_to 6896
  150.8706  133.7502  159.2969 H   0  0  0  0  0  0  0  0  0  0  0  0  # atno 6908 bound_to 6896
  151.5038  135.1066  159.9888 H   0  0  0  0  0  0  0  0  0  0  0  0  # atno 6909 bound_to 6896
  146.0634  139.5159  142.9644 H   0  0  0  0  0  0  0  0  0  0  0  0  # atno 7974 bound_to 7965
  155.2515  140.0432  157.2987 H   0  0  0  0  0  0  0  0  0  0  0  0  # atno 8008 bound_to 7997
  154.5766  140.2389  155.8084 H   0  0  0  0  0  0  0  0  0  0  0  0  # atno 8009 bound_to 7997
  156.2162  140.2984  155.9853 H   0  0  0  0  0  0  0  0  0  0  0  0  # atno 8010 bound_to 7997
  139.9768  143.5786  152.2393 H   0  0  0  0  0  0  0  0  0  0  0  0  # atno 10167 bound_to 10162
  156.2437  130.4182  149.8731 H   0  0  0  0  0  0  0  0  0  0  0  0  # atno 10718 bound_to 10713
  153.0696  135.4967  154.8275 H   0  0  0  0  0  0  0  0  0  0  0  0  # atno 10763 bound_to 10752
  154.7003  135.3000  154.9353 H   0  0  0  0  0  0  0  0  0  0  0  0  # atno 10764 bound_to 10752
  154.0079  135.6758  153.4816 H   0  0  0  0  0  0  0  0  0  0  0  0  # atno 10765 bound_to 10752
  140.8971  133.7549  156.0496 H   0  0  0  0  0  0  0  0  0  0  0  0  # atno 11005 bound_to 11000
  145.6520  141.0261  143.1755 LP  0  0  0  0  0  0  0  0  0  0  0  0  # atno 17320 bound_to 7965
  144.7188  139.8102  143.7389 LP  0  0  0  0  0  0  0  0  0  0  0  0  # atno 17321 bound_to 7965
  139.6440  144.7657  151.2282 LP  0  0  0  0  0  0  0  0  0  0  0  0  # atno 17342 bound_to 10162
  140.7503  143.6270  150.8459 LP  0  0  0  0  0  0  0  0  0  0  0  0  # atno 17343 bound_to 10162
  156.6303  130.8663  151.3494 LP  0  0  0  0  0  0  0  0  0  0  0  0  # atno 17370 bound_to 10713
  157.7186  130.9529  150.1349 LP  0  0  0  0  0  0  0  0  0  0  0  0  # atno 17371 bound_to 10713
  140.8275  134.3217  157.5360 LP  0  0  0  0  0  0  0  0  0  0  0  0  # atno 17394 bound_to 11000
  139.8737  134.9344  156.3607 LP  0  0  0  0  0  0  0  0  0  0  0  0  # atno 17395 bound_to 11000

$$$$
