AV-unprocessed.smi:1680|AV-procd|sdf|6737|dock10
  -GOLD-   22720 7483D 1   1.00000     0.00000
 Structure written by MMmdl.
 38 39  0  0  0  0  0  0  0  0  1 V2000
  151.9636  140.6351  157.9262 C   0  0  0  0  0  0  0  0  0  0  0  0
  151.7970  140.1601  156.4812 C   0  0  0  0  0  0  0  0  0  0  0  0
  152.7323  139.5518  155.9609 O   0  0  0  0  0  0  0  0  0  0  0  0
  150.6402  140.4229  155.8280 N   0  0  0  0  0  0  0  0  0  0  0  0
  149.4601  141.0810  156.3979 C   0  0  0  0  0  0  0  0  0  0  0  0
  148.2899  140.0785  156.4141 C   0  0  0  0  0  0  0  0  0  0  0  0
  148.0036  139.6145  155.0537 N   0  0  0  0  0  0  0  0  0  0  0  0
  146.8651  138.6961  155.0800 C   0  0  0  0  0  0  0  0  0  0  0  0
  146.4108  138.2537  153.6732 C   0  0  0  0  0  0  0  0  0  0  0  0
  144.9771  138.4514  153.4808 N   0  0  0  0  0  0  0  0  0  0  0  0
  144.0174  137.6013  153.8751 C   0  0  0  0  0  0  0  0  0  0  0  0
  144.2425  136.5575  154.4883 O   0  0  0  0  0  0  0  0  0  0  0  0
  142.8003  138.0399  153.5083 N   0  0  0  0  0  0  0  0  0  0  0  0
  141.5431  137.4080  153.6992 C   0  0  0  0  0  0  0  0  0  0  0  0
  141.3925  136.2108  154.2872 N   0  0  0  0  0  0  0  0  0  0  0  0
  140.0602  135.8227  154.3422 N   0  0  0  0  0  0  0  0  0  0  0  0
  139.2595  136.7405  153.7932 C   0  0  0  0  0  0  0  0  0  0  0  0
  140.0544  138.1710  153.1592 S   0  0  0  0  0  0  0  0  0  0  0  0
  149.1959  138.9783  154.4802 C   0  0  0  0  0  0  0  0  0  0  0  0
  150.3695  139.9763  154.4587 C   0  0  0  0  0  0  0  0  0  0  0  0
  151.2126  140.1789  158.5717 H   0  0  0  0  0  0  0  0  0  0  0  0
  151.8762  141.7202  157.9890 H   0  0  0  0  0  0  0  0  0  0  0  0
  152.9456  140.3578  158.3111 H   0  0  0  0  0  0  0  0  0  0  0  0
  149.6183  141.4656  157.4042 H   0  0  0  0  0  0  0  0  0  0  0  0
  149.2037  141.9488  155.7877 H   0  0  0  0  0  0  0  0  0  0  0  0
  148.5250  139.2308  157.0602 H   0  0  0  0  0  0  0  0  0  0  0  0
  147.4051  140.5635  156.8281 H   0  0  0  0  0  0  0  0  0  0  0  0
  147.1090  137.8252  155.6901 H   0  0  0  0  0  0  0  0  0  0  0  0
  146.0209  139.1858  155.5676 H   0  0  0  0  0  0  0  0  0  0  0  0
  146.9899  138.7341  152.8842 H   0  0  0  0  0  0  0  0  0  0  0  0
  146.6038  137.1864  153.5647 H   0  0  0  0  0  0  0  0  0  0  0  0
  144.6985  139.2856  152.9854 H   0  0  0  0  0  0  0  0  0  0  0  0
  142.7713  138.9194  153.0143 H   0  0  0  0  0  0  0  0  0  0  0  0
  138.1929  136.5742  153.7623 H   0  0  0  0  0  0  0  0  0  0  0  0
  149.4645  138.0926  155.0580 H   0  0  0  0  0  0  0  0  0  0  0  0
  148.9990  138.6480  153.4612 H   0  0  0  0  0  0  0  0  0  0  0  0
  150.1214  140.8382  153.8371 H   0  0  0  0  0  0  0  0  0  0  0  0
  151.2358  139.5081  153.9893 H   0  0  0  0  0  0  0  0  0  0  0  0
  1  2  1  0  0  0  0
  1 21  1  0  0  0  0
  1 22  1  0  0  0  0
  1 23  1  0  0  0  0
  2  3  2  0  0  0  0
  2  4  1  0  0  0  0
  4 20  1  0  0  0  0
  4  5  1  0  0  0  0
  5  6  1  0  0  0  0
  5 24  1  0  0  0  0
  5 25  1  0  0  0  0
  6  7  1  0  0  0  0
  6 26  1  0  0  0  0
  6 27  1  0  0  0  0
  7  8  1  0  0  0  0
  7 19  1  0  0  0  0
  8  9  1  0  0  0  0
  8 28  1  0  0  0  0
  8 29  1  0  0  0  0
  9 10  1  0  0  0  0
  9 30  1  0  0  0  0
  9 31  1  0  0  0  0
 10 11  1  0  0  0  0
 10 32  1  0  0  0  0
 11 12  2  0  0  0  0
 11 13  1  0  0  0  0
 13 14  1  0  0  0  0
 13 33  1  0  0  0  0
 14 18  1  0  0  0  0
 14 15  2  0  0  0  0
 15 16  1  0  0  0  0
 16 17  2  0  0  0  0
 17 18  1  0  0  0  0
 17 34  1  0  0  0  0
 19 20  1  0  0  0  0
 19 35  1  0  0  0  0
 19 36  1  0  0  0  0
 20 37  1  0  0  0  0
 20 38  1  0  0  0  0
M  END
> <s_m_source_file>
AV-unprocessed.smi

> <i_m_source_file_index>
1680

> <i_lp_mmshare_version>
43012

> <i_f3d_flags>
0

> <s_epik_input>
W0NIM11DKD1PKU4xW0NIMl1bQ0gyXU4oW0NIMl1bQ0gyXTEpW0NIMl1bQ0gyXVtOSF1DKD1PKVtOSF1jMm5uW2NIXXMy

> <s_epik_cmdline>
J2VwaWtfcHl0aG9uJywgJy1waCcsICc3LjAnLCAnLXRuJywgJzgnLCAnLW1hJywgJzIwMCcsICctbWV0YWxfYmluZGluZycsICctaW1hZScsICc8aW5maWxlLm1hZT4nLCAnLW9tYWUnLCAnPG91dGZpbGUubWFlPic=

> <r_lp_tautomer_probability>
1

> <r_epik_Ionization_Penalty>
0.229992

> <r_epik_Ionization_Penalty_Charging>
0

> <r_epik_Ionization_Penalty_Neutral>
0.229992

> <r_epik_State_Penalty>
0.219013

> <r_epik_Charging_Adjusted_Penalty>
0.219013

> <i_epik_Tot_Q>
0

> <i_epik_Tot_abs_Q>
0

> <r_epik_Metal_State_Penalty>
0.556868

> <b_epik_Metal_Only>
0

> <s_lp_Force_Field>
OPLS_2005

> <r_lp_Energy>
36.5244

> <b_lp_Chiralities_Consistent>
1

> <s_lp_Variant>
AV-unprocessed.smi:1680-1

> <Gold.Version>
5.8.1

> <Gold.Id.Protein>
6NUR|6NUR_protein|mol2

> <Gold.PLP.Fitness>
39.3689

> <Gold.PLP.PLP>
-28.4444

> <Gold.PLP.part.hbond>
-4.7614

> <Gold.PLP.part.metal>
0.0000

> <Gold.PLP.part.buried>
-2.9373

> <Gold.PLP.part.nonpolar>
-20.7606

> <Gold.PLP.part.repulsive>
0.2586

> <Gold.PLP.ligand.clash>
0.0000

> <Gold.PLP.ligand.torsion>
0.5347

> <Gold.PLP.Chemscore.Hbond>
3.9920

> <Gold.PLP.Chemscore.CHOScore>
0.0000

> <Gold.PLP.Chemscore.Metal>
0.0000

> <Gold.Chemscore.Hbonds>
donor molecule, donor type, donor heavy atom, donor atom, acceptor molecule, acceptor atom, score
      L1  H    10    32       P1 10175  1.00
      L1  H    13    33       P1 10175  1.00
      P1  H  7997  8009       L1     3  1.00
      P1  H 11000 11005       L1    16  1.00

> <Gold.PLP.Chemscore.Internal.Correction>
0.0179

> <Gold.Rescore>
     Score         DG    S(hbond)    S(metal)    S(lipo)     H(rot)  DE(clash)    DE(int)     intcor
     15.89     -19.07       3.75        0.00      48.25       1.79       1.40       1.78       ----

> <Gold.Chemscore.Fitness>
15.8894

> <Gold.Chemscore.DG>
-19.0675

> <Gold.Chemscore.ZeroCoef>
-5.4800

> <Gold.Chemscore.Hbond>
3.7519

> <Gold.Chemscore.Metal>
0.0000

> <Gold.Chemscore.Lipo>
48.2498

> <Gold.Chemscore.Internal_Hbond>
0.0000

> <Gold.Chemscore.DEClash>
1.3951

> <Gold.Chemscore.DEInternal>
1.7830

> <Gold.Chemscore.Rot>
1.7926

> <Gold.Chemscore.Internal.Correction>
   9.000000E+99

> <Gold.Chemscore.Hbonds>
donor molecule, donor type, donor heavy atom, donor atom, acceptor molecule, acceptor atom, score
      L1  H    10    32       P1 10175  0.98
      L1  H    13    33       P1 10175  0.94
      P1  H  7997  8009       L1     3  0.96
      P1  H 11000 11005       L1    16  0.30

> <Gold.Chemscore.Hbond.Weighted>
-12.5313

> <Gold.Chemscore.Metal.Weighted>
-0.0000

> <Gold.Chemscore.Lipo.Weighted>
-5.6452

> <Gold.Chemscore.Internal_Hbond.Weighted>
0.0000

> <Gold.Chemscore.DEClash.Weighted>
1.3951

> <Gold.Chemscore.DEInternal.Weighted>
1.7830

> <Gold.Chemscore.Rot.Weighted>
4.5890

> <Gold.Chemscore.Internal.Correction.Weighted>
   9.000000E+99

> <Gold.Protein.RotatedTorsions>
[ 6907 6896 6895 6894 ] final  -56.96 input  -60.11 | X-H torsion
[ 7974 7965 7964 7962 ] final   27.07 input  175.53 | X-H torsion
[ 8008 7997 7996 7995 ] final -156.45 input   59.86 | X-H torsion
[ 10167 10162 10161 10158 ] final   93.86 input  -65.29 | X-H torsion
[ 10718 10713 10712 10709 ] final   -6.70 input   66.30 | X-H torsion
[ 10763 10752 10751 10750 ] final  164.96 input  -60.55 | X-H torsion
[ 11005 11000 10999 10996 ] final   52.72 input  -57.11 | X-H torsion

> <Gold.Protein.ActiveResidues>
 VAL166  LYS551  ARG553  GLY616  TRP617  ASP618  TYR619  PRO620  LYS621  CYS622 
 ASP623  PHE694  ASN695  SER759  ASP760  ASP761  ALA762  ILE779  LEU786  VAL792 
 PHE793  MET794  SER795  GLU796  ALA797  LYS798  CYS799  TRP800  GLU811  SER814 

> <Gold.Protein.RotatedAtoms>
  150.8125  134.7288  159.6700 H   0  0  0  0  0  0  0  0  0  0  0  0  # atno 6907 bound_to 6896
  152.4245  134.5891  159.9979 H   0  0  0  0  0  0  0  0  0  0  0  0  # atno 6908 bound_to 6896
  151.6097  133.3311  159.3101 H   0  0  0  0  0  0  0  0  0  0  0  0  # atno 6909 bound_to 6896
  146.1804  139.7242  142.8904 H   0  0  0  0  0  0  0  0  0  0  0  0  # atno 7974 bound_to 7965
  155.7173  140.0785  157.2345 H   0  0  0  0  0  0  0  0  0  0  0  0  # atno 8008 bound_to 7997
  154.4050  140.1619  156.2417 H   0  0  0  0  0  0  0  0  0  0  0  0  # atno 8009 bound_to 7997
  155.9228  140.3396  155.6189 H   0  0  0  0  0  0  0  0  0  0  0  0  # atno 8010 bound_to 7997
  139.8139  144.6761  150.9605 H   0  0  0  0  0  0  0  0  0  0  0  0  # atno 10167 bound_to 10162
  156.7280  130.5171  149.5852 H   0  0  0  0  0  0  0  0  0  0  0  0  # atno 10718 bound_to 10713
  154.3169  135.2756  155.2539 H   0  0  0  0  0  0  0  0  0  0  0  0  # atno 10763 bound_to 10752
  154.4909  135.5833  153.6462 H   0  0  0  0  0  0  0  0  0  0  0  0  # atno 10764 bound_to 10752
  152.9881  135.6134  154.3350 H   0  0  0  0  0  0  0  0  0  0  0  0  # atno 10765 bound_to 10752
  140.0826  134.5318  155.8931 H   0  0  0  0  0  0  0  0  0  0  0  0  # atno 11005 bound_to 11000
  145.4092  141.0394  143.3026 LP  0  0  0  0  0  0  0  0  0  0  0  0  # atno 17320 bound_to 7965
  144.8306  139.5636  143.6945 LP  0  0  0  0  0  0  0  0  0  0  0  0  # atno 17321 bound_to 7965
  140.7816  143.4158  151.0920 LP  0  0  0  0  0  0  0  0  0  0  0  0  # atno 17342 bound_to 10162
  139.7823  143.8338  152.3139 LP  0  0  0  0  0  0  0  0  0  0  0  0  # atno 17343 bound_to 10162
  156.1548  130.6334  151.0643 LP  0  0  0  0  0  0  0  0  0  0  0  0  # atno 17370 bound_to 10713
  157.6870  131.0821  150.7214 LP  0  0  0  0  0  0  0  0  0  0  0  0  # atno 17371 bound_to 10713
  141.2052  133.6645  156.6164 LP  0  0  0  0  0  0  0  0  0  0  0  0  # atno 17394 bound_to 11000
  140.3466  134.7804  157.4437 LP  0  0  0  0  0  0  0  0  0  0  0  0  # atno 17395 bound_to 11000

$$$$
