AV-unprocessed.smi:11|AV-procd|sdf|58|dock6
  -GOLD-   2262015173D 1   1.00000     0.00000
 Structure written by MMmdl.
 34 36  0  0  0  0  0  0  0  0  2 V2000
  153.1425  141.4432  159.3606 C   0  0  0  0  0  0  0  0  0  0  0  0
  151.6333  141.4231  159.0635 C   0  0  0  0  0  0  0  0  0  0  0  0
  151.1403  142.5002  158.0653 C   0  0  2  0  0  0  0  0  0  0  0  0
  151.8975  143.6784  158.2608 O   0  0  0  0  0  0  0  0  0  0  0  0
  149.6484  142.8064  158.2598 C   0  0  0  0  0  0  0  0  0  0  0  0
  148.9579  141.7659  157.3805 C   0  0  0  0  0  0  0  0  0  0  0  0
  149.8663  141.5676  156.2603 N   0  0  0  0  0  0  0  0  0  0  0  0
  149.6837  140.5092  155.3475 C   0  0  0  0  0  0  0  0  0  0  0  0
  148.4811  140.4133  154.7160 N   0  0  0  0  0  0  0  0  0  0  0  0
  148.2041  139.4420  153.8346 C   0  0  0  0  0  0  0  0  0  0  0  0
  149.0867  138.4955  153.5016 N   0  3  0  0  0  0  0  0  0  0  0  0
  150.3049  138.5599  154.0960 C   0  0  0  0  0  0  0  0  0  0  0  0
  151.3896  137.7254  153.9261 N   0  0  0  0  0  0  0  0  0  0  0  0
  152.4436  138.1537  154.7142 C   0  0  0  0  0  0  0  0  0  0  0  0
  152.0566  139.2724  155.4086 C   0  0  0  0  0  0  0  0  0  0  0  0
  150.6903  139.5483  155.0385 C   0  0  0  0  0  0  0  0  0  0  0  0
  151.2015  142.0450  156.5942 C   0  0  0  0  0  0  0  0  0  0  0  0
  151.4424  136.9180  153.3212 H   0  0  0  0  0  0  0  0  0  0  0  0
  153.3961  140.6764  160.0927 H   0  0  0  0  0  0  0  0  0  0  0  0
  153.4576  142.4020  159.7727 H   0  0  0  0  0  0  0  0  0  0  0  0
  153.7383  141.2484  158.4697 H   0  0  0  0  0  0  0  0  0  0  0  0
  151.3659  140.4324  158.6948 H   0  0  0  0  0  0  0  0  0  0  0  0
  151.0992  141.5415  160.0073 H   0  0  0  0  0  0  0  0  0  0  0  0
  151.3962  144.4143  157.9447 H   0  0  0  0  0  0  0  0  0  0  0  0
  149.3248  142.7668  159.3004 H   0  0  0  0  0  0  0  0  0  0  0  0
  149.4138  143.8023  157.8795 H   0  0  0  0  0  0  0  0  0  0  0  0
  148.8307  140.8307  157.9277 H   0  0  0  0  0  0  0  0  0  0  0  0
  147.9771  142.1063  157.0467 H   0  0  0  0  0  0  0  0  0  0  0  0
  147.2359  139.3965  153.3579 H   0  0  0  0  0  0  0  0  0  0  0  0
  153.3878  137.6280  154.7151 H   0  0  0  0  0  0  0  0  0  0  0  0
  152.6608  139.8396  156.1008 H   0  0  0  0  0  0  0  0  0  0  0  0
  151.4306  142.8853  155.9375 H   0  0  0  0  0  0  0  0  0  0  0  0
  151.9597  141.2799  156.4340 H   0  0  0  0  0  0  0  0  0  0  0  0
  148.8655  137.7610  152.8293 H   0  0  0  0  0  0  0  0  0  0  0  0
  1  2  1  0  0  0  0
  1 19  1  0  0  0  0
  1 20  1  0  0  0  0
  1 21  1  0  0  0  0
  2  3  1  0  0  0  0
  2 22  1  0  0  0  0
  2 23  1  0  0  0  0
  3 17  1  0  0  0  0
  3  4  1  0  0  0  0
  3  5  1  0  0  0  0
  4 24  1  0  0  0  0
  5  6  1  0  0  0  0
  5 25  1  0  0  0  0
  5 26  1  0  0  0  0
  6  7  1  0  0  0  0
  6 27  1  0  0  0  0
  6 28  1  0  0  0  0
  7  8  1  0  0  0  0
  7 17  1  0  0  0  0
  8 16  1  0  0  0  0
  8  9  2  0  0  0  0
  9 10  1  0  0  0  0
 10 11  2  0  0  0  0
 10 29  1  0  0  0  0
 11 12  1  0  0  0  0
 11 34  1  0  0  0  0
 12 16  2  0  0  0  0
 12 13  1  0  0  0  0
 13 18  1  0  0  0  0
 13 14  1  0  0  0  0
 14 15  2  0  0  0  0
 14 30  1  0  0  0  0
 15 16  1  0  0  0  0
 15 31  1  0  0  0  0
 17 32  1  0  0  0  0
 17 33  1  0  0  0  0
M  CHG  1  11   1
M  END
> <s_m_source_file>
AV-unprocessed.smi

> <i_m_source_file_index>
11

> <i_lp_mmshare_version>
43012

> <i_f3d_flags>
0

> <s_epik_input>
W0NIM11bQ0gyXVtDQEBdMShbT0hdKVtDSDJdW0NIMl1OKFtDSDJdMSljKG5bY0hdbjIpYyhjMjMpW2NIXVtjSF1bbkhdMw==

> <s_epik_cmdline>
J2VwaWtfcHl0aG9uJywgJy1waCcsICc3LjAnLCAnLXRuJywgJzgnLCAnLW1hJywgJzIwMCcsICctbWV0YWxfYmluZGluZycsICctaW1hZScsICc8aW5maWxlLm1hZT4nLCAnLW9tYWUnLCAnPG91dGZpbGUubWFlPic=

> <r_lp_tautomer_probability>
1.75997e-05

> <r_epik_Ionization_Penalty>
1.53257

> <r_epik_Ionization_Penalty_Charging>
1.53255

> <r_epik_Ionization_Penalty_Neutral>
1.78556e-05

> <r_epik_State_Penalty>
1.6253

> <r_epik_Charging_Adjusted_Penalty>
3.15785

> <i_epik_Tot_Q>
1

> <i_epik_Tot_abs_Q>
1

> <r_epik_Metal_State_Penalty>
1.66891

> <b_epik_Metal_Only>
0

> <s_lp_Force_Field>
OPLS_2005

> <r_lp_Energy>
33.3454

> <b_lp_Chiralities_Consistent>
1

> <s_lp_Variant>
AV-unprocessed.smi:11-4

> <Gold.Version>
5.8.1

> <Gold.Id.Protein>
6NUR|6NUR_protein|mol2

> <Gold.PLP.Fitness>
42.5851

> <Gold.PLP.PLP>
-32.4487

> <Gold.PLP.part.hbond>
-3.0000

> <Gold.PLP.part.metal>
0.0000

> <Gold.PLP.part.buried>
-3.7002

> <Gold.PLP.part.nonpolar>
-25.7407

> <Gold.PLP.part.repulsive>
0.2848

> <Gold.PLP.ligand.clash>
0.0000

> <Gold.PLP.ligand.torsion>
1.0534

> <Gold.PLP.Chemscore.Hbond>
4.0000

> <Gold.PLP.Chemscore.CHOScore>
0.0000

> <Gold.PLP.Chemscore.Metal>
0.0000

> <Gold.Chemscore.Hbonds>
donor molecule, donor type, donor heavy atom, donor atom, acceptor molecule, acceptor atom, score
      L1  H    11    34       P1  7948  2.00
      L1  H    13    18       P1  7949  1.79

> <Gold.PLP.Chemscore.Internal.Correction>
0.2432

> <Gold.Rescore>
     Score         DG    S(hbond)    S(metal)    S(lipo)     H(rot)  DE(clash)    DE(int)     intcor
     14.38     -15.69       1.88        0.00      65.09       1.44       0.20       1.11       ----

> <Gold.Chemscore.Fitness>
14.3754

> <Gold.Chemscore.DG>
-15.6919

> <Gold.Chemscore.ZeroCoef>
-5.4800

> <Gold.Chemscore.Hbond>
1.8806

> <Gold.Chemscore.Metal>
0.0000

> <Gold.Chemscore.Lipo>
65.0862

> <Gold.Chemscore.Internal_Hbond>
0.0000

> <Gold.Chemscore.DEClash>
0.2023

> <Gold.Chemscore.DEInternal>
1.1143

> <Gold.Chemscore.Rot>
1.4392

> <Gold.Chemscore.Internal.Correction>
   9.000000E+99

> <Gold.Chemscore.Hbonds>
donor molecule, donor type, donor heavy atom, donor atom, acceptor molecule, acceptor atom, score
      L1  H    11    34       P1  7948  1.00
      L1  H    13    18       P1  7949  0.72

> <Gold.Chemscore.Hbond.Weighted>
-6.2813

> <Gold.Chemscore.Metal.Weighted>
-0.0000

> <Gold.Chemscore.Lipo.Weighted>
-7.6151

> <Gold.Chemscore.Internal_Hbond.Weighted>
0.0000

> <Gold.Chemscore.DEClash.Weighted>
0.2023

> <Gold.Chemscore.DEInternal.Weighted>
1.1143

> <Gold.Chemscore.Rot.Weighted>
3.6844

> <Gold.Chemscore.Internal.Correction.Weighted>
   9.000000E+99

> <Gold.Protein.RotatedTorsions>
[ 6907 6896 6895 6894 ] final  101.17 input  -60.11 | X-H torsion
[ 7974 7965 7964 7962 ] final  -49.15 input  175.53 | X-H torsion
[ 8008 7997 7996 7995 ] final   20.97 input   59.86 | X-H torsion
[ 10167 10162 10161 10158 ] final  -84.98 input  -65.29 | X-H torsion
[ 10718 10713 10712 10709 ] final   21.82 input   66.30 | X-H torsion
[ 10763 10752 10751 10750 ] final  -66.69 input  -60.55 | X-H torsion
[ 11005 11000 10999 10996 ] final -159.36 input  -57.11 | X-H torsion

> <Gold.Protein.ActiveResidues>
 VAL166  LYS551  ARG553  GLY616  TRP617  ASP618  TYR619  PRO620  LYS621  CYS622 
 ASP623  PHE694  ASN695  SER759  ASP760  ASP761  ALA762  ILE779  LEU786  VAL792 
 PHE793  MET794  SER795  GLU796  ALA797  LYS798  CYS799  TRP800  GLU811  SER814 

> <Gold.Protein.RotatedAtoms>
  152.5356  134.0167  159.7962 H   0  0  0  0  0  0  0  0  0  0  0  0  # atno 6907 bound_to 6896
  151.0360  133.5740  159.2663 H   0  0  0  0  0  0  0  0  0  0  0  0  # atno 6908 bound_to 6896
  151.2727  135.0697  159.9194 H   0  0  0  0  0  0  0  0  0  0  0  0  # atno 6909 bound_to 6896
  145.9436  140.7639  142.9540 H   0  0  0  0  0  0  0  0  0  0  0  0  # atno 7974 bound_to 7965
  154.9436  140.3056  155.5109 H   0  0  0  0  0  0  0  0  0  0  0  0  # atno 8008 bound_to 7997
  156.2994  140.2332  156.4444 H   0  0  0  0  0  0  0  0  0  0  0  0  # atno 8009 bound_to 7997
  154.8122  140.0428  157.1339 H   0  0  0  0  0  0  0  0  0  0  0  0  # atno 8010 bound_to 7997
  140.4081  143.2634  151.9054 H   0  0  0  0  0  0  0  0  0  0  0  0  # atno 10167 bound_to 10162
  157.1438  130.6644  149.5989 H   0  0  0  0  0  0  0  0  0  0  0  0  # atno 10718 bound_to 10713
  154.3635  135.6111  153.5703 H   0  0  0  0  0  0  0  0  0  0  0  0  # atno 10763 bound_to 10752
  152.9792  135.5821  154.4606 H   0  0  0  0  0  0  0  0  0  0  0  0  # atno 10764 bound_to 10752
  154.4347  135.2848  155.1866 H   0  0  0  0  0  0  0  0  0  0  0  0  # atno 10765 bound_to 10752
  140.6434  134.4527  157.5234 H   0  0  0  0  0  0  0  0  0  0  0  0  # atno 11005 bound_to 11000
  144.6783  140.2320  143.7354 LP  0  0  0  0  0  0  0  0  0  0  0  0  # atno 17320 bound_to 7965
  145.8266  139.2067  143.1907 LP  0  0  0  0  0  0  0  0  0  0  0  0  # atno 17321 bound_to 7965
  139.4783  144.5565  151.8305 LP  0  0  0  0  0  0  0  0  0  0  0  0  # atno 17342 bound_to 10162
  140.4668  144.1644  150.5913 LP  0  0  0  0  0  0  0  0  0  0  0  0  # atno 17343 bound_to 10162
  155.9783  130.4768  150.6649 LP  0  0  0  0  0  0  0  0  0  0  0  0  # atno 17370 bound_to 10713
  157.4283  131.0846  151.1064 LP  0  0  0  0  0  0  0  0  0  0  0  0  # atno 17371 bound_to 10713
  139.9072  134.8424  156.1662 LP  0  0  0  0  0  0  0  0  0  0  0  0  # atno 17394 bound_to 11000
  141.0590  133.6851  156.1916 LP  0  0  0  0  0  0  0  0  0  0  0  0  # atno 17395 bound_to 11000

$$$$
