AV-unprocessed.smi:3141|AV-procd|sdf|11967|dock5
  -GOLD-   2272017363D 1   1.00000     0.00000
 Structure written by MMmdl.
 35 37  0  0  0  0  0  0  0  0  1 V2000
  149.6403  141.6894  158.8197 O   0  0  0  0  0  0  0  0  0  0  0  0
  149.5540  142.5659  157.9592 C   0  0  0  0  0  0  0  0  0  0  0  0
  150.4621  143.5326  157.7742 N   0  0  0  0  0  0  0  0  0  0  0  0
  151.6699  143.6848  158.5184 C   0  0  0  0  0  0  0  0  0  0  0  0
  151.8823  144.9879  159.2579 C   0  0  0  0  0  0  0  0  0  0  0  0
  152.6782  144.6953  158.0162 C   0  0  0  0  0  0  0  0  0  0  0  0
  148.5493  142.6558  157.0757 N   0  0  0  0  0  0  0  0  0  0  0  0
  147.4250  141.7229  156.9702 C   0  0  1  0  0  0  0  0  0  0  0  0
  146.1395  142.4883  156.5886 C   0  0  0  0  0  0  0  0  0  0  0  0
  145.6628  141.9193  155.2450 C   0  0  0  0  0  0  0  0  0  0  0  0
  146.8927  141.2536  154.6330 C   0  0  0  0  0  0  0  0  0  0  0  0
  147.6120  140.6690  155.8521 C   0  0  1  0  0  0  0  0  0  0  0  0
  148.9853  140.2359  155.6130 N   0  0  0  0  0  0  0  0  0  0  0  0
  149.9204  139.7645  156.5307 C   0  0  0  0  0  0  0  0  0  0  0  0
  151.0512  139.4441  155.8147 C   0  0  0  0  0  0  0  0  0  0  0  0
  150.8358  139.6925  154.4623 N   0  0  0  0  0  0  0  0  0  0  0  0
  149.5918  140.1513  154.4202 C   0  0  0  0  0  0  0  0  0  0  0  0
  150.2978  144.2023  157.0370 H   0  0  0  0  0  0  0  0  0  0  0  0
  152.0826  142.7939  158.9898 H   0  0  0  0  0  0  0  0  0  0  0  0
  151.1043  145.7459  159.1889 H   0  0  0  0  0  0  0  0  0  0  0  0
  152.4051  144.9434  160.2112 H   0  0  0  0  0  0  0  0  0  0  0  0
  153.7322  144.4558  158.1403 H   0  0  0  0  0  0  0  0  0  0  0  0
  152.4319  145.2575  157.1173 H   0  0  0  0  0  0  0  0  0  0  0  0
  148.5734  143.4117  156.4071 H   0  0  0  0  0  0  0  0  0  0  0  0
  147.2760  141.2171  157.9261 H   0  0  0  0  0  0  0  0  0  0  0  0
  145.3681  142.3778  157.3514 H   0  0  0  0  0  0  0  0  0  0  0  0
  146.3318  143.5579  156.4884 H   0  0  0  0  0  0  0  0  0  0  0  0
  144.8929  141.1665  155.4206 H   0  0  0  0  0  0  0  0  0  0  0  0
  145.2345  142.6827  154.5950 H   0  0  0  0  0  0  0  0  0  0  0  0
  146.6354  140.4959  153.8923 H   0  0  0  0  0  0  0  0  0  0  0  0
  147.4998  142.0143  154.1423 H   0  0  0  0  0  0  0  0  0  0  0  0
  147.0514  139.7803  156.1488 H   0  0  0  0  0  0  0  0  0  0  0  0
  149.7168  139.6887  157.5880 H   0  0  0  0  0  0  0  0  0  0  0  0
  151.9926  139.0477  156.1656 H   0  0  0  0  0  0  0  0  0  0  0  0
  149.1059  140.4272  153.4958 H   0  0  0  0  0  0  0  0  0  0  0  0
  1  2  2  0  0  0  0
  2  3  1  0  0  0  0
  2  7  1  0  0  0  0
  3  4  1  0  0  0  0
  3 18  1  0  0  0  0
  4  6  1  0  0  0  0
  4  5  1  0  0  0  0
  4 19  1  0  0  0  0
  5  6  1  0  0  0  0
  5 20  1  0  0  0  0
  5 21  1  0  0  0  0
  6 22  1  0  0  0  0
  6 23  1  0  0  0  0
  7  8  1  0  0  0  0
  7 24  1  0  0  0  0
  8 12  1  0  0  0  0
  8  9  1  0  0  0  0
  8 25  1  0  0  0  0
  9 10  1  0  0  0  0
  9 26  1  0  0  0  0
  9 27  1  0  0  0  0
 10 11  1  0  0  0  0
 10 28  1  0  0  0  0
 10 29  1  0  0  0  0
 11 12  1  0  0  0  0
 11 30  1  0  0  0  0
 11 31  1  0  0  0  0
 12 13  1  0  0  0  0
 12 32  1  0  0  0  0
 13 17  1  0  0  0  0
 13 14  1  0  0  0  0
 14 15  2  0  0  0  0
 14 33  1  0  0  0  0
 15 16  1  0  0  0  0
 15 34  1  0  0  0  0
 16 17  2  0  0  0  0
 17 35  1  0  0  0  0
M  END
> <s_m_source_file>
AV-unprocessed.smi

> <i_m_source_file_index>
3141

> <i_lp_mmshare_version>
43012

> <i_f3d_flags>
0

> <s_epik_input>
W0NIMl0xW0NIMl1bQ0hdMVtOSF1DKD1PKVtOSF1bQ0BASF0yW0NIMl1bQ0gyXVtDSDJdW0NASF0ybjNbY0hdW2NIXW5bY0hdMw==

> <s_epik_cmdline>
J2VwaWtfcHl0aG9uJywgJy1waCcsICc3LjAnLCAnLXRuJywgJzgnLCAnLW1hJywgJzIwMCcsICctbWV0YWxfYmluZGluZycsICctaW1hZScsICc8aW5maWxlLm1hZT4nLCAnLW9tYWUnLCAnPG91dGZpbGUubWFlPic=

> <r_lp_tautomer_probability>
1

> <r_epik_Ionization_Penalty>
0.728419

> <r_epik_Ionization_Penalty_Charging>
0.728357

> <r_epik_Ionization_Penalty_Neutral>
6.27871e-05

> <r_epik_State_Penalty>
0.753408

> <r_epik_Charging_Adjusted_Penalty>
1.48176

> <i_epik_Tot_Q>
0

> <i_epik_Tot_abs_Q>
0

> <r_epik_Metal_State_Penalty>
0.332413

> <b_epik_Metal_Only>
0

> <s_lp_Force_Field>
OPLS_2005

> <r_lp_Energy>
36.0261

> <b_lp_Chiralities_Consistent>
1

> <s_lp_Variant>
AV-unprocessed.smi:3141-6

> <Gold.Version>
5.8.1

> <Gold.Id.Protein>
6NUR|6NUR_protein|mol2

> <Gold.PLP.Fitness>
40.1653

> <Gold.PLP.PLP>
-29.6190

> <Gold.PLP.part.hbond>
-4.0000

> <Gold.PLP.part.metal>
0.0000

> <Gold.PLP.part.buried>
-2.1614

> <Gold.PLP.part.nonpolar>
-23.7288

> <Gold.PLP.part.repulsive>
0.1808

> <Gold.PLP.ligand.clash>
0.0000

> <Gold.PLP.ligand.torsion>
0.5199

> <Gold.PLP.Chemscore.Hbond>
2.8406

> <Gold.PLP.Chemscore.CHOScore>
1.0000

> <Gold.PLP.Chemscore.Metal>
0.0000

> <Gold.Chemscore.Hbonds>
donor molecule, donor type, donor heavy atom, donor atom, acceptor molecule, acceptor atom, score
      L1  H     3    18       P1  8028  0.83
      L1  H     7    24       P1  8028  0.99
      P1  H  7989  7998       L1    16  1.00
      L1  C    17    35       P1  7957  1.00

> <Gold.PLP.Chemscore.Internal.Correction>
0.0645

> <Gold.Rescore>
     Score         DG    S(hbond)    S(metal)    S(lipo)     H(rot)  DE(clash)    DE(int)     intcor
     17.03     -17.34       2.55        0.00      63.00       1.57       0.17       0.14       ----

> <Gold.Chemscore.Fitness>
17.0294

> <Gold.Chemscore.DG>
-17.3367

> <Gold.Chemscore.ZeroCoef>
-5.4800

> <Gold.Chemscore.Hbond>
2.5468

> <Gold.Chemscore.Metal>
0.0000

> <Gold.Chemscore.Lipo>
63.0007

> <Gold.Chemscore.Internal_Hbond>
0.0000

> <Gold.Chemscore.DEClash>
0.1699

> <Gold.Chemscore.DEInternal>
0.1373

> <Gold.Chemscore.Rot>
1.5705

> <Gold.Chemscore.Internal.Correction>
   9.000000E+99

> <Gold.Chemscore.Hbonds>
donor molecule, donor type, donor heavy atom, donor atom, acceptor molecule, acceptor atom, score
      L1  H     3    18       P1  8028  0.73
      L1  H     7    24       P1  8028  0.69
      P1  H  7989  7998       L1    16  0.30

> <Gold.Chemscore.Hbond.Weighted>
-8.5062

> <Gold.Chemscore.Metal.Weighted>
-0.0000

> <Gold.Chemscore.Lipo.Weighted>
-7.3711

> <Gold.Chemscore.Internal_Hbond.Weighted>
0.0000

> <Gold.Chemscore.DEClash.Weighted>
0.1699

> <Gold.Chemscore.DEInternal.Weighted>
0.1373

> <Gold.Chemscore.Rot.Weighted>
4.0206

> <Gold.Chemscore.Internal.Correction.Weighted>
   9.000000E+99

> <Gold.Protein.RotatedTorsions>
[ 6907 6896 6895 6894 ] final  -50.99 input  -60.11 | X-H torsion
[ 7974 7965 7964 7962 ] final -135.75 input  175.53 | X-H torsion
[ 8008 7997 7996 7995 ] final  -21.70 input   59.86 | X-H torsion
[ 10167 10162 10161 10158 ] final  147.10 input  -65.29 | X-H torsion
[ 10718 10713 10712 10709 ] final  -84.50 input   66.30 | X-H torsion
[ 10763 10752 10751 10750 ] final  -82.48 input  -60.55 | X-H torsion
[ 11005 11000 10999 10996 ] final   37.78 input  -57.11 | X-H torsion

> <Gold.Protein.ActiveResidues>
 VAL166  LYS551  ARG553  GLY616  TRP617  ASP618  TYR619  PRO620  LYS621  CYS622 
 ASP623  PHE694  ASN695  SER759  ASP760  ASP761  ALA762  ILE779  LEU786  VAL792 
 PHE793  MET794  SER795  GLU796  ALA797  LYS798  CYS799  TRP800  GLU811  SER814 

> <Gold.Protein.RotatedAtoms>
  150.8654  134.8016  159.7114 H   0  0  0  0  0  0  0  0  0  0  0  0  # atno 6907 bound_to 6896
  152.4677  134.5032  159.9741 H   0  0  0  0  0  0  0  0  0  0  0  0  # atno 6908 bound_to 6896
  151.5129  133.3443  159.2923 H   0  0  0  0  0  0  0  0  0  0  0  0  # atno 6909 bound_to 6896
  144.8987  140.6742  143.5099 H   0  0  0  0  0  0  0  0  0  0  0  0  # atno 7974 bound_to 7965
  154.4689  140.2028  156.0045 H   0  0  0  0  0  0  0  0  0  0  0  0  # atno 8008 bound_to 7997
  156.0977  140.3248  155.7870 H   0  0  0  0  0  0  0  0  0  0  0  0  # atno 8009 bound_to 7997
  155.4850  140.0541  157.2952 H   0  0  0  0  0  0  0  0  0  0  0  0  # atno 8010 bound_to 7997
  139.4896  144.5781  151.6926 H   0  0  0  0  0  0  0  0  0  0  0  0  # atno 10167 bound_to 10162
  156.0005  130.4700  150.4420 H   0  0  0  0  0  0  0  0  0  0  0  0  # atno 10718 bound_to 10713
  154.5762  135.5590  153.7142 H   0  0  0  0  0  0  0  0  0  0  0  0  # atno 10763 bound_to 10752
  153.0065  135.6309  154.2045 H   0  0  0  0  0  0  0  0  0  0  0  0  # atno 10764 bound_to 10752
  154.1986  135.2879  155.2978 H   0  0  0  0  0  0  0  0  0  0  0  0  # atno 10765 bound_to 10752
  140.2191  134.3662  155.8013 H   0  0  0  0  0  0  0  0  0  0  0  0  # atno 11005 bound_to 11000
  145.3655  139.1671  143.4360 LP  0  0  0  0  0  0  0  0  0  0  0  0  # atno 17320 bound_to 7965
  146.3096  140.3721  142.8675 LP  0  0  0  0  0  0  0  0  0  0  0  0  # atno 17321 bound_to 7965
  140.5381  144.0623  150.6078 LP  0  0  0  0  0  0  0  0  0  0  0  0  # atno 17342 bound_to 10162
  140.3636  143.2894  152.0356 LP  0  0  0  0  0  0  0  0  0  0  0  0  # atno 17343 bound_to 10162
  157.2460  131.0536  151.2408 LP  0  0  0  0  0  0  0  0  0  0  0  0  # atno 17370 bound_to 10713
  157.3574  130.7113  149.6479 LP  0  0  0  0  0  0  0  0  0  0  0  0  # atno 17371 bound_to 10713
  141.2224  133.7184  156.8546 LP  0  0  0  0  0  0  0  0  0  0  0  0  # atno 17394 bound_to 11000
  140.1869  134.8994  157.3014 LP  0  0  0  0  0  0  0  0  0  0  0  0  # atno 17395 bound_to 11000

$$$$
