AV-unprocessed.smi:196|AV-procd|sdf|1530|dock1
  -GOLD-   2262019383D 1   1.00000     0.00000
 Structure written by MMmdl.
 47 50  0  0  0  0  0  0  0  0  1 V2000
  150.4525  141.0397  156.5488 C   0  0  0  0  0  0  0  0  0  0  0  0
  150.9916  139.6406  156.2080 C   0  0  2  0  0  0  0  0  0  0  0  0
  152.1671  139.7391  155.4166 O   0  0  0  0  0  0  0  0  0  0  0  0
  152.3638  138.4779  154.8038 C   0  0  0  0  0  0  0  0  0  0  0  0
  150.9611  138.1151  154.3335 C   0  0  0  0  0  0  0  0  0  0  0  0
  150.0481  138.6938  155.4184 C   0  0  2  0  0  0  0  0  0  0  0  0
  149.0015  139.4066  154.7801 O   0  0  0  0  0  0  0  0  0  0  0  0
  149.4195  137.5851  156.2998 C   0  0  0  0  0  0  0  0  0  0  0  0
  148.4479  136.7617  155.5953 N   0  0  0  0  0  0  0  0  0  0  0  0
  148.6351  135.4805  155.1284 C   0  0  0  0  0  0  0  0  0  0  0  0
  147.6004  134.9464  154.5400 N   0  0  0  0  0  0  0  0  0  0  0  0
  146.6294  135.9409  154.5842 C   0  0  0  0  0  0  0  0  0  0  0  0
  145.2790  136.0335  154.1372 C   0  0  0  0  0  0  0  0  0  0  0  0
  144.6316  135.0196  153.5006 N   0  0  0  0  0  0  0  0  0  0  0  0
  145.4048  134.1333  152.6365 C   0  0  0  0  0  0  0  0  0  0  0  0
  144.4927  133.8026  151.4559 C   0  0  2  0  0  0  0  0  0  0  0  0
  144.6857  134.6937  150.4819 F   0  0  0  0  0  0  0  0  0  0  0  0
  143.0936  133.9778  152.0357 C   0  0  0  0  0  0  0  0  0  0  0  0
  143.2475  135.1469  153.0223 C   0  0  1  0  0  0  0  0  0  0  0  0
  142.1674  135.0845  154.1209 C   0  0  0  0  0  0  0  0  0  0  0  0
  142.0341  133.9606  154.8332 N   0  0  0  0  0  0  0  0  0  0  0  0
  141.4523  136.0631  154.3253 O   0  0  0  0  0  0  0  0  0  0  0  0
  144.6222  137.1975  154.3856 N   0  0  0  0  0  0  0  0  0  0  0  0
  145.2374  138.2051  155.0106 C   0  0  0  0  0  0  0  0  0  0  0  0
  146.4865  138.2595  155.4747 N   0  0  0  0  0  0  0  0  0  0  0  0
  147.1503  137.0911  155.2432 C   0  0  0  0  0  0  0  0  0  0  0  0
  144.6703  132.8122  151.0362 H   0  0  0  0  0  0  0  0  0  0  0  0
  143.1397  136.0834  152.4721 H   0  0  0  0  0  0  0  0  0  0  0  0
  149.5411  140.9761  157.1436 H   0  0  0  0  0  0  0  0  0  0  0  0
  150.2298  141.6140  155.6492 H   0  0  0  0  0  0  0  0  0  0  0  0
  151.1845  141.6056  157.1251 H   0  0  0  0  0  0  0  0  0  0  0  0
  151.2980  139.1536  157.1347 H   0  0  0  0  0  0  0  0  0  0  0  0
  153.0825  138.5328  153.9861 H   0  0  0  0  0  0  0  0  0  0  0  0
  152.7296  137.7609  155.5405 H   0  0  0  0  0  0  0  0  0  0  0  0
  150.7813  138.5989  153.3716 H   0  0  0  0  0  0  0  0  0  0  0  0
  150.8378  137.0418  154.1850 H   0  0  0  0  0  0  0  0  0  0  0  0
  149.2164  139.5021  153.8649 H   0  0  0  0  0  0  0  0  0  0  0  0
  150.1962  136.9315  156.6995 H   0  0  0  0  0  0  0  0  0  0  0  0
  148.9236  138.0298  157.1638 H   0  0  0  0  0  0  0  0  0  0  0  0
  149.5656  134.9450  155.2467 H   0  0  0  0  0  0  0  0  0  0  0  0
  146.3424  134.5756  152.2951 H   0  0  0  0  0  0  0  0  0  0  0  0
  145.6429  133.2288  153.1974 H   0  0  0  0  0  0  0  0  0  0  0  0
  142.3423  134.1691  151.2687 H   0  0  0  0  0  0  0  0  0  0  0  0
  142.8070  133.0638  152.5595 H   0  0  0  0  0  0  0  0  0  0  0  0
  141.3273  133.9017  155.5517 H   0  0  0  0  0  0  0  0  0  0  0  0
  142.6367  133.1729  154.6452 H   0  0  0  0  0  0  0  0  0  0  0  0
  144.6428  139.0941  155.1609 H   0  0  0  0  0  0  0  0  0  0  0  0
  1  2  1  0  0  0  0
  1 29  1  0  0  0  0
  1 30  1  0  0  0  0
  1 31  1  0  0  0  0
  2  6  1  0  0  0  0
  2  3  1  0  0  0  0
  2 32  1  0  0  0  0
  3  4  1  0  0  0  0
  4  5  1  0  0  0  0
  4 33  1  0  0  0  0
  4 34  1  0  0  0  0
  5  6  1  0  0  0  0
  5 35  1  0  0  0  0
  5 36  1  0  0  0  0
  6  7  1  0  0  0  0
  6  8  1  0  0  0  0
  7 37  1  0  0  0  0
  8  9  1  0  0  0  0
  8 38  1  0  0  0  0
  8 39  1  0  0  0  0
  9 26  1  0  0  0  0
  9 10  1  0  0  0  0
 10 11  2  0  0  0  0
 10 40  1  0  0  0  0
 11 12  1  0  0  0  0
 12 26  2  0  0  0  0
 12 13  1  0  0  0  0
 13 14  1  0  0  0  0
 13 23  2  0  0  0  0
 14 19  1  0  0  0  0
 14 15  1  0  0  0  0
 15 16  1  0  0  0  0
 15 41  1  0  0  0  0
 15 42  1  0  0  0  0
 16 27  1  0  0  0  0
 16 17  1  0  0  0  0
 16 18  1  0  0  0  0
 18 19  1  0  0  0  0
 18 43  1  0  0  0  0
 18 44  1  0  0  0  0
 19 28  1  0  0  0  0
 19 20  1  0  0  0  0
 20 21  1  0  0  0  0
 20 22  2  0  0  0  0
 21 45  1  0  0  0  0
 21 46  1  0  0  0  0
 23 24  1  0  0  0  0
 24 25  2  0  0  0  0
 24 47  1  0  0  0  0
 25 26  1  0  0  0  0
M  END
> <s_m_source_file>
AV-unprocessed.smi

> <i_m_source_file_index>
196

> <i_lp_mmshare_version>
43012

> <i_f3d_flags>
0

> <s_epik_input>
W0NIMl0xW0NIMl1PW0NAQEhdKFtDSDNdKVtDQEBdMShbT0hdKVtDSDJdbihbY0hdbjIpYyhjMjMpbltjSF1uYzNONFtDSDJdW0NASF0oRilbQ0gyXVtDQEhdNEMoPU8pW05IMl0=

> <s_epik_cmdline>
J2VwaWtfcHl0aG9uJywgJy1waCcsICc3LjAnLCAnLXRuJywgJzgnLCAnLW1hJywgJzIwMCcsICctbWV0YWxfYmluZGluZycsICctaW1hZScsICc8aW5maWxlLm1hZT4nLCAnLW9tYWUnLCAnPG91dGZpbGUubWFlPic=

> <r_lp_tautomer_probability>
1

> <r_epik_Ionization_Penalty>
0.000857933

> <r_epik_Ionization_Penalty_Charging>
0

> <r_epik_Ionization_Penalty_Neutral>
0.000857933

> <r_epik_State_Penalty>
0.000462053

> <r_epik_Charging_Adjusted_Penalty>
0.000462053

> <i_epik_Tot_Q>
0

> <i_epik_Tot_abs_Q>
0

> <r_epik_Metal_State_Penalty>
-0

> <b_epik_Metal_Only>
0

> <s_lp_Force_Field>
OPLS_2005

> <r_lp_Energy>
46.3924

> <b_lp_Chiralities_Consistent>
1

> <s_lp_Variant>
AV-unprocessed.smi:196-3

> <Gold.Version>
5.8.1

> <Gold.Id.Protein>
6NUR|6NUR_protein|mol2

> <Gold.PLP.Fitness>
45.6206

> <Gold.PLP.PLP>
-33.0139

> <Gold.PLP.part.hbond>
-4.5102

> <Gold.PLP.part.metal>
0.0000

> <Gold.PLP.part.buried>
-4.3908

> <Gold.PLP.part.nonpolar>
-24.0259

> <Gold.PLP.part.repulsive>
0.4631

> <Gold.PLP.ligand.clash>
0.0000

> <Gold.PLP.ligand.torsion>
0.5106

> <Gold.PLP.Chemscore.Hbond>
3.4376

> <Gold.PLP.Chemscore.CHOScore>
0.9767

> <Gold.PLP.Chemscore.Metal>
0.0000

> <Gold.Chemscore.Hbonds>
donor molecule, donor type, donor heavy atom, donor atom, acceptor molecule, acceptor atom, score
      L1  H    21    45       P1 11000  0.88
      L1  H    21    46       P1 10957  0.55
      P1  H  7989  7998       L1     3  0.25
      P1  H  7997  8008       L1     3  0.16

> <Gold.PLP.Chemscore.Internal.Correction>
0.3848

> <Gold.Rescore>
     Score         DG    S(hbond)    S(metal)    S(lipo)     H(rot)  DE(clash)    DE(int)     intcor
     11.62     -15.22       2.76        0.00      61.39       2.60       1.02       2.58       ----

> <Gold.Chemscore.Fitness>
11.6195

> <Gold.Chemscore.DG>
-15.2187

> <Gold.Chemscore.ZeroCoef>
-5.4800

> <Gold.Chemscore.Hbond>
2.7557

> <Gold.Chemscore.Metal>
0.0000

> <Gold.Chemscore.Lipo>
61.3866

> <Gold.Chemscore.Internal_Hbond>
0.0000

> <Gold.Chemscore.DEClash>
1.0223

> <Gold.Chemscore.DEInternal>
2.5769

> <Gold.Chemscore.Rot>
2.5968

> <Gold.Chemscore.Internal.Correction>
   9.000000E+99

> <Gold.Chemscore.Hbonds>
donor molecule, donor type, donor heavy atom, donor atom, acceptor molecule, acceptor atom, score
      L1  H    21    45       P1 11000  0.84
      L1  H    21    46       P1 10957  0.53
      P1  H  7989  7998       L1     3  0.03
      P1  H  7997  8008       L1     3  0.03

> <Gold.Chemscore.Hbond.Weighted>
-9.2042

> <Gold.Chemscore.Metal.Weighted>
-0.0000

> <Gold.Chemscore.Lipo.Weighted>
-7.1822

> <Gold.Chemscore.Internal_Hbond.Weighted>
0.0000

> <Gold.Chemscore.DEClash.Weighted>
1.0223

> <Gold.Chemscore.DEInternal.Weighted>
2.5769

> <Gold.Chemscore.Rot.Weighted>
6.6477

> <Gold.Chemscore.Internal.Correction.Weighted>
   9.000000E+99

> <Gold.Protein.RotatedTorsions>
[ 6907 6896 6895 6894 ] final  -86.19 input  -60.11 | X-H torsion
[ 7974 7965 7964 7962 ] final  160.60 input  175.53 | X-H torsion
[ 8008 7997 7996 7995 ] final  -19.24 input   59.86 | X-H torsion
[ 10167 10162 10161 10158 ] final  177.15 input  -65.29 | X-H torsion
[ 10718 10713 10712 10709 ] final    8.78 input   66.30 | X-H torsion
[ 10763 10752 10751 10750 ] final  -39.16 input  -60.55 | X-H torsion
[ 11005 11000 10999 10996 ] final  137.35 input  -57.11 | X-H torsion

> <Gold.Protein.ActiveResidues>
 VAL166  LYS551  ARG553  GLY616  TRP617  ASP618  TYR619  PRO620  LYS621  CYS622 
 ASP623  PHE694  ASN695  SER759  ASP760  ASP761  ALA762  ILE779  LEU786  VAL792 
 PHE793  MET794  SER795  GLU796  ALA797  LYS798  CYS799  TRP800  GLU811  SER814 

> <Gold.Protein.RotatedAtoms>
  150.6867  134.3088  159.4737 H   0  0  0  0  0  0  0  0  0  0  0  0  # atno 6907 bound_to 6896
  152.0976  134.9361  160.0579 H   0  0  0  0  0  0  0  0  0  0  0  0  # atno 6908 bound_to 6896
  152.0653  133.4046  159.4472 H   0  0  0  0  0  0  0  0  0  0  0  0  # atno 6909 bound_to 6896
  144.7728  139.7780  143.6290 H   0  0  0  0  0  0  0  0  0  0  0  0  # atno 7974 bound_to 7965
  154.4850  140.2094  155.9676 H   0  0  0  0  0  0  0  0  0  0  0  0  # atno 8008 bound_to 7997
  156.1223  140.3211  155.8195 H   0  0  0  0  0  0  0  0  0  0  0  0  # atno 8009 bound_to 7997
  155.4446  140.0512  157.2998 H   0  0  0  0  0  0  0  0  0  0  0  0  # atno 8010 bound_to 7997
  139.5242  144.2832  152.0528 H   0  0  0  0  0  0  0  0  0  0  0  0  # atno 10167 bound_to 10162
  156.9566  130.5917  149.5659 H   0  0  0  0  0  0  0  0  0  0  0  0  # atno 10718 bound_to 10713
  153.9248  135.6778  153.4747 H   0  0  0  0  0  0  0  0  0  0  0  0  # atno 10763 bound_to 10752
  153.1010  135.4828  154.8863 H   0  0  0  0  0  0  0  0  0  0  0  0  # atno 10764 bound_to 10752
  154.7459  135.3172  154.8602 H   0  0  0  0  0  0  0  0  0  0  0  0  # atno 10765 bound_to 10752
  140.0108  134.9440  157.0273 H   0  0  0  0  0  0  0  0  0  0  0  0  # atno 11005 bound_to 11000
  146.1888  139.5117  142.9819 LP  0  0  0  0  0  0  0  0  0  0  0  0  # atno 17320 bound_to 7965
  145.6272  141.0311  143.1883 LP  0  0  0  0  0  0  0  0  0  0  0  0  # atno 17321 bound_to 7965
  140.2286  144.4391  150.6310 LP  0  0  0  0  0  0  0  0  0  0  0  0  # atno 17342 bound_to 10162
  140.6370  143.2196  151.6373 LP  0  0  0  0  0  0  0  0  0  0  0  0  # atno 17343 bound_to 10162
  156.0340  130.5429  150.8606 LP  0  0  0  0  0  0  0  0  0  0  0  0  # atno 17370 bound_to 10713
  157.5686  131.0946  150.9452 LP  0  0  0  0  0  0  0  0  0  0  0  0  # atno 17371 bound_to 10713
  140.4558  134.1535  155.7186 LP  0  0  0  0  0  0  0  0  0  0  0  0  # atno 17394 bound_to 11000
  141.1709  133.8610  157.1572 LP  0  0  0  0  0  0  0  0  0  0  0  0  # atno 17395 bound_to 11000

$$$$
