AV-unprocessed.smi:3057|AV-procd|sdf|11668|dock6
  -GOLD-   2272017 73D 1   1.00000     0.00000
 Structure written by MMmdl.
 41 43  0  0  0  0  0  0  0  0  2 V2000
  147.6618  137.7715  156.6457 C   0  0  0  0  0  0  0  0  0  0  0  0
  148.0966  137.1428  155.3079 C   0  0  2  0  0  0  0  0  0  0  0  0
  147.9266  135.6128  155.3206 C   0  0  0  0  0  0  0  0  0  0  0  0
  149.3109  135.0758  155.7140 C   0  0  0  0  0  0  0  0  0  0  0  0
  150.2309  136.2155  155.3069 C   0  0  0  0  0  0  0  0  0  0  0  0
  151.4447  136.0856  155.1568 O   0  0  0  0  0  0  0  0  0  0  0  0
  149.5170  137.3253  155.0794 N   0  0  0  0  0  0  0  0  0  0  0  0
  149.9496  138.5184  154.3466 C   0  0  2  0  0  0  0  0  0  0  0  0
  150.7314  139.4795  155.2587 C   0  0  0  0  0  0  0  0  0  0  0  0
  151.8599  139.8695  154.9567 O   0  0  0  0  0  0  0  0  0  0  0  0
  150.1146  139.8341  156.3961 N   0  0  0  0  0  0  0  0  0  0  0  0
  150.6654  140.7233  157.4149 C   0  0  0  0  0  0  0  0  0  0  0  0
  150.9167  142.1579  156.9054 C   0  0  0  0  0  0  0  0  0  0  0  0
  151.1990  143.1614  158.0103 C   0  0  0  0  0  0  0  0  0  0  0  0
  152.0291  142.8514  159.1096 C   0  0  0  0  0  0  0  0  0  0  0  0
  152.2448  143.8242  160.1074 C   0  0  0  0  0  0  0  0  0  0  0  0
  151.6287  145.0866  159.9840 C   0  0  0  0  0  0  0  0  0  0  0  0
  150.8117  145.3443  158.8642 C   0  0  0  0  0  0  0  0  0  0  0  0
  150.6286  144.3854  157.9297 N   0  3  0  0  0  0  0  0  0  0  0  0
  148.6606  139.2134  153.8404 C   0  0  0  0  0  0  0  0  0  0  0  0
  147.3321  137.9805  153.9092 S   0  0  0  0  0  0  0  0  0  0  0  0
  148.1955  137.3285  157.4872 H   0  0  0  0  0  0  0  0  0  0  0  0
  146.5955  137.6222  156.8167 H   0  0  0  0  0  0  0  0  0  0  0  0
  147.8472  138.8454  156.6675 H   0  0  0  0  0  0  0  0  0  0  0  0
  147.1440  135.2807  156.0039 H   0  0  0  0  0  0  0  0  0  0  0  0
  147.6657  135.2469  154.3264 H   0  0  0  0  0  0  0  0  0  0  0  0
  149.3878  134.9180  156.7902 H   0  0  0  0  0  0  0  0  0  0  0  0
  149.5584  134.1464  155.2005 H   0  0  0  0  0  0  0  0  0  0  0  0
  150.5652  138.2106  153.4993 H   0  0  0  0  0  0  0  0  0  0  0  0
  149.1875  139.4701  156.5628 H   0  0  0  0  0  0  0  0  0  0  0  0
  150.0148  140.7389  158.2907 H   0  0  0  0  0  0  0  0  0  0  0  0
  151.6093  140.2871  157.7426 H   0  0  0  0  0  0  0  0  0  0  0  0
  151.7577  142.1582  156.2109 H   0  0  0  0  0  0  0  0  0  0  0  0
  150.0561  142.4980  156.3281 H   0  0  0  0  0  0  0  0  0  0  0  0
  152.4909  141.8778  159.1917 H   0  0  0  0  0  0  0  0  0  0  0  0
  152.8747  143.6042  160.9570 H   0  0  0  0  0  0  0  0  0  0  0  0
  151.7815  145.8463  160.7367 H   0  0  0  0  0  0  0  0  0  0  0  0
  150.3031  146.2812  158.6899 H   0  0  0  0  0  0  0  0  0  0  0  0
  148.3638  140.0445  154.4819 H   0  0  0  0  0  0  0  0  0  0  0  0
  148.7734  139.6036  152.8288 H   0  0  0  0  0  0  0  0  0  0  0  0
  150.0331  144.5944  157.1280 H   0  0  0  0  0  0  0  0  0  0  0  0
  1  2  1  0  0  0  0
  1 22  1  0  0  0  0
  1 23  1  0  0  0  0
  1 24  1  0  0  0  0
  2  7  1  0  0  0  0
  2 21  1  0  0  0  0
  2  3  1  0  0  0  0
  3  4  1  0  0  0  0
  3 25  1  0  0  0  0
  3 26  1  0  0  0  0
  4  5  1  0  0  0  0
  4 27  1  0  0  0  0
  4 28  1  0  0  0  0
  5  6  2  0  0  0  0
  5  7  1  0  0  0  0
  7  8  1  0  0  0  0
  8  9  1  0  0  0  0
  8 20  1  0  0  0  0
  8 29  1  0  0  0  0
  9 10  2  0  0  0  0
  9 11  1  0  0  0  0
 11 12  1  0  0  0  0
 11 30  1  0  0  0  0
 12 13  1  0  0  0  0
 12 31  1  0  0  0  0
 12 32  1  0  0  0  0
 13 14  1  0  0  0  0
 13 33  1  0  0  0  0
 13 34  1  0  0  0  0
 14 19  1  0  0  0  0
 14 15  2  0  0  0  0
 15 16  1  0  0  0  0
 15 35  1  0  0  0  0
 16 17  2  0  0  0  0
 16 36  1  0  0  0  0
 17 18  1  0  0  0  0
 17 37  1  0  0  0  0
 18 19  2  0  0  0  0
 18 38  1  0  0  0  0
 19 41  1  0  0  0  0
 20 21  1  0  0  0  0
 20 39  1  0  0  0  0
 20 40  1  0  0  0  0
M  CHG  1  19   1
M  END
> <s_m_source_file>
AV-unprocessed.smi

> <i_m_source_file_index>
3057

> <i_lp_mmshare_version>
43012

> <i_f3d_flags>
0

> <s_epik_input>
W0NIMl0xW0NIMl1DKD1PKU4oW0NAQF0xMltDSDNdKVtDQEhdKFtDSDJdUzIpQyg9TylbTkhdW0NIMl1bQ0gyXWMzW2NIXVtjSF1bY0hdW2NIXW4z

> <s_epik_cmdline>
J2VwaWtfcHl0aG9uJywgJy1waCcsICc3LjAnLCAnLXRuJywgJzgnLCAnLW1hJywgJzIwMCcsICctbWV0YWxfYmluZGluZycsICctaW1hZScsICc8aW5maWxlLm1hZT4nLCAnLW9tYWUnLCAnPG91dGZpbGUubWFlPic=

> <r_epik_Ionization_Penalty>
1.8888

> <r_epik_Ionization_Penalty_Charging>
1.8888

> <r_epik_Ionization_Penalty_Neutral>
1.66252e-07

> <r_epik_State_Penalty>
2.00916

> <r_epik_Charging_Adjusted_Penalty>
3.89796

> <i_epik_Tot_Q>
1

> <i_epik_Tot_abs_Q>
1

> <r_epik_Metal_State_Penalty>
2.03343

> <b_epik_Metal_Only>
0

> <s_lp_Force_Field>
OPLS_2005

> <r_lp_Energy>
33.0381

> <b_lp_Chiralities_Consistent>
1

> <s_lp_Variant>
AV-unprocessed.smi:3057-8

> <Gold.Version>
5.8.1

> <Gold.Id.Protein>
6NUR|6NUR_protein|mol2

> <Gold.PLP.Fitness>
48.8062

> <Gold.PLP.PLP>
-37.5079

> <Gold.PLP.part.hbond>
-2.9595

> <Gold.PLP.part.metal>
0.0000

> <Gold.PLP.part.buried>
-6.0638

> <Gold.PLP.part.nonpolar>
-29.9465

> <Gold.PLP.part.repulsive>
0.2849

> <Gold.PLP.ligand.clash>
0.0000

> <Gold.PLP.ligand.torsion>
0.3478

> <Gold.PLP.Chemscore.Hbond>
3.9920

> <Gold.PLP.Chemscore.CHOScore>
0.0000

> <Gold.PLP.Chemscore.Metal>
0.0000

> <Gold.Chemscore.Hbonds>
donor molecule, donor type, donor heavy atom, donor atom, acceptor molecule, acceptor atom, score
      L1  H    19    41       P1  8028  2.00
      P1  H  7989  7998       L1    10  0.96
      P1  H 10752 10763       L1     6  1.00

> <Gold.PLP.Chemscore.Internal.Correction>
0.0177

> <Gold.Rescore>
     Score         DG    S(hbond)    S(metal)    S(lipo)     H(rot)  DE(clash)    DE(int)     intcor
     21.13     -21.61       2.86        0.00      91.59       1.62       0.01       0.46       ----

> <Gold.Chemscore.Fitness>
21.1300

> <Gold.Chemscore.DG>
-21.6070

> <Gold.Chemscore.ZeroCoef>
-5.4800

> <Gold.Chemscore.Hbond>
2.8642

> <Gold.Chemscore.Metal>
0.0000

> <Gold.Chemscore.Lipo>
91.5943

> <Gold.Chemscore.Internal_Hbond>
0.0000

> <Gold.Chemscore.DEClash>
0.0127

> <Gold.Chemscore.DEInternal>
0.4643

> <Gold.Chemscore.Rot>
1.6234

> <Gold.Chemscore.Internal.Correction>
   9.000000E+99

> <Gold.Chemscore.Hbonds>
donor molecule, donor type, donor heavy atom, donor atom, acceptor molecule, acceptor atom, score
      L1  H    19    41       P1  8028  0.40
      P1  H  7989  7998       L1    10  0.51
      P1  H 10752 10763       L1     6  0.99

> <Gold.Chemscore.Hbond.Weighted>
-9.5663

> <Gold.Chemscore.Metal.Weighted>
-0.0000

> <Gold.Chemscore.Lipo.Weighted>
-10.7165

> <Gold.Chemscore.Internal_Hbond.Weighted>
0.0000

> <Gold.Chemscore.DEClash.Weighted>
0.0127

> <Gold.Chemscore.DEInternal.Weighted>
0.4643

> <Gold.Chemscore.Rot.Weighted>
4.1558

> <Gold.Chemscore.Internal.Correction.Weighted>
   9.000000E+99

> <Gold.Protein.RotatedTorsions>
[ 6907 6896 6895 6894 ] final -162.18 input  -60.11 | X-H torsion
[ 7974 7965 7964 7962 ] final  108.57 input  175.53 | X-H torsion
[ 8008 7997 7996 7995 ] final   86.02 input   59.86 | X-H torsion
[ 10167 10162 10161 10158 ] final  -63.62 input  -65.29 | X-H torsion
[ 10718 10713 10712 10709 ] final   58.14 input   66.30 | X-H torsion
[ 10763 10752 10751 10750 ] final   50.05 input  -60.55 | X-H torsion
[ 11005 11000 10999 10996 ] final  101.56 input  -57.11 | X-H torsion

> <Gold.Protein.ActiveResidues>
 VAL166  LYS551  ARG553  GLY616  TRP617  ASP618  TYR619  PRO620  LYS621  CYS622 
 ASP623  PHE694  ASN695  SER759  ASP760  ASP761  ALA762  ILE779  LEU786  VAL792 
 PHE793  MET794  SER795  GLU796  ALA797  LYS798  CYS799  TRP800  GLU811  SER814 

> <Gold.Protein.RotatedAtoms>
  151.3763  133.3837  159.2704 H   0  0  0  0  0  0  0  0  0  0  0  0  # atno 6907 bound_to 6896
  150.9612  134.9001  159.7742 H   0  0  0  0  0  0  0  0  0  0  0  0  # atno 6908 bound_to 6896
  152.5150  134.3722  159.9374 H   0  0  0  0  0  0  0  0  0  0  0  0  # atno 6909 bound_to 6896
  145.2789  139.2640  143.3926 H   0  0  0  0  0  0  0  0  0  0  0  0  # atno 7974 bound_to 7965
  155.9575  140.3396  155.6461 H   0  0  0  0  0  0  0  0  0  0  0  0  # atno 8008 bound_to 7997
  155.6841  140.0741  157.2491 H   0  0  0  0  0  0  0  0  0  0  0  0  # atno 8009 bound_to 7997
  154.4135  140.1669  156.2002 H   0  0  0  0  0  0  0  0  0  0  0  0  # atno 8010 bound_to 7997
  140.5858  143.2333  151.6246 H   0  0  0  0  0  0  0  0  0  0  0  0  # atno 10167 bound_to 10162
  157.5572  130.8809  149.9054 H   0  0  0  0  0  0  0  0  0  0  0  0  # atno 10718 bound_to 10713
  152.9785  135.5892  154.4189 H   0  0  0  0  0  0  0  0  0  0  0  0  # atno 10763 bound_to 10752
  154.3815  135.2767  155.2210 H   0  0  0  0  0  0  0  0  0  0  0  0  # atno 10764 bound_to 10752
  154.4122  135.6079  153.6014 H   0  0  0  0  0  0  0  0  0  0  0  0  # atno 10765 bound_to 10752
  139.8774  134.9188  156.4925 H   0  0  0  0  0  0  0  0  0  0  0  0  # atno 11005 bound_to 11000
  146.3223  140.3251  142.8636 LP  0  0  0  0  0  0  0  0  0  0  0  0  # atno 17320 bound_to 7965
  144.9270  140.7933  143.5713 LP  0  0  0  0  0  0  0  0  0  0  0  0  # atno 17321 bound_to 7965
  139.5197  144.3246  152.0880 LP  0  0  0  0  0  0  0  0  0  0  0  0  # atno 17342 bound_to 10162
  140.2403  144.4276  150.6263 LP  0  0  0  0  0  0  0  0  0  0  0  0  # atno 17343 bound_to 10162
  156.0629  130.3697  150.0942 LP  0  0  0  0  0  0  0  0  0  0  0  0  # atno 17370 bound_to 10713
  156.9109  130.9651  151.3563 LP  0  0  0  0  0  0  0  0  0  0  0  0  # atno 17371 bound_to 10713
  140.8648  133.8032  155.9302 LP  0  0  0  0  0  0  0  0  0  0  0  0  # atno 17394 bound_to 11000
  140.9013  134.2375  157.5040 LP  0  0  0  0  0  0  0  0  0  0  0  0  # atno 17395 bound_to 11000

$$$$
