AV-unprocessed.smi:3133|AV-procd|sdf|11939|dock4
  -GOLD-   2272017323D 1   1.00000     0.00000
 Structure written by MMmdl.
 32 33  0  0  0  0  0  0  0  0  1 V2000
  150.6819  138.0100  158.5502 C   0  0  0  0  0  0  0  0  0  0  0  0
  152.0864  138.1546  157.9292 C   0  0  2  0  0  0  0  0  0  0  0  0
  152.9221  139.2688  158.5828 C   0  0  0  0  0  0  0  0  0  0  0  0
  154.1294  139.3654  158.3583 O   0  0  0  0  0  0  0  0  0  0  0  0
  152.2565  140.1167  159.3838 N   0  0  0  0  0  0  0  0  0  0  0  0
  152.8402  141.2635  160.0696 C   0  0  0  0  0  0  0  0  0  0  0  0
  152.0748  142.5554  159.7419 C   0  0  1  0  0  0  0  0  0  0  0  0
  152.5360  143.7652  160.5516 C   0  0  0  0  0  0  0  0  0  0  0  0
  152.0797  144.9073  159.6729 C   0  0  0  0  0  0  0  0  0  0  0  0
  152.3572  144.3585  158.2758 C   0  0  0  0  0  0  0  0  0  0  0  0
  152.2714  142.9393  158.3833 O   0  0  0  0  0  0  0  0  0  0  0  0
  152.0269  138.3354  156.4834 N   0  0  0  0  0  0  0  0  0  0  0  0
  151.5814  139.3692  155.7659 C   0  0  0  0  0  0  0  0  0  0  0  0
  151.6385  139.1804  154.4552 N   0  0  0  0  0  0  0  0  0  0  0  0
  152.1569  137.9166  154.4295 C   0  0  0  0  0  0  0  0  0  0  0  0
  152.3987  137.3604  155.6164 N   0  0  0  0  0  0  0  0  0  0  0  0
  150.7433  137.8070  159.6199 H   0  0  0  0  0  0  0  0  0  0  0  0
  150.1392  137.1824  158.0928 H   0  0  0  0  0  0  0  0  0  0  0  0
  150.0819  138.9114  158.4185 H   0  0  0  0  0  0  0  0  0  0  0  0
  152.6152  137.2176  158.1116 H   0  0  0  0  0  0  0  0  0  0  0  0
  151.2666  139.9666  159.5132 H   0  0  0  0  0  0  0  0  0  0  0  0
  152.7852  141.0688  161.1409 H   0  0  0  0  0  0  0  0  0  0  0  0
  153.8999  141.3701  159.8311 H   0  0  0  0  0  0  0  0  0  0  0  0
  151.0046  142.4110  159.8998 H   0  0  0  0  0  0  0  0  0  0  0  0
  152.1060  143.7965  161.5530 H   0  0  0  0  0  0  0  0  0  0  0  0
  153.6231  143.7770  160.6440 H   0  0  0  0  0  0  0  0  0  0  0  0
  151.0100  145.0759  159.8056 H   0  0  0  0  0  0  0  0  0  0  0  0
  152.6017  145.8427  159.8758 H   0  0  0  0  0  0  0  0  0  0  0  0
  151.6565  144.7433  157.5342 H   0  0  0  0  0  0  0  0  0  0  0  0
  153.3664  144.6193  157.9552 H   0  0  0  0  0  0  0  0  0  0  0  0
  151.2047  140.2781  156.2120 H   0  0  0  0  0  0  0  0  0  0  0  0
  152.3568  137.3891  153.5085 H   0  0  0  0  0  0  0  0  0  0  0  0
  1  2  1  0  0  0  0
  1 17  1  0  0  0  0
  1 18  1  0  0  0  0
  1 19  1  0  0  0  0
  2  3  1  0  0  0  0
  2 12  1  0  0  0  0
  2 20  1  0  0  0  0
  3  4  2  0  0  0  0
  3  5  1  0  0  0  0
  5  6  1  0  0  0  0
  5 21  1  0  0  0  0
  6  7  1  0  0  0  0
  6 22  1  0  0  0  0
  6 23  1  0  0  0  0
  7 11  1  0  0  0  0
  7  8  1  0  0  0  0
  7 24  1  0  0  0  0
  8  9  1  0  0  0  0
  8 25  1  0  0  0  0
  8 26  1  0  0  0  0
  9 10  1  0  0  0  0
  9 27  1  0  0  0  0
  9 28  1  0  0  0  0
 10 11  1  0  0  0  0
 10 29  1  0  0  0  0
 10 30  1  0  0  0  0
 12 16  1  0  0  0  0
 12 13  1  0  0  0  0
 13 14  2  0  0  0  0
 13 31  1  0  0  0  0
 14 15  1  0  0  0  0
 15 16  2  0  0  0  0
 15 32  1  0  0  0  0
M  END
> <s_m_source_file>
AV-unprocessed.smi

> <i_m_source_file_index>
3133

> <i_lp_mmshare_version>
43012

> <i_f3d_flags>
0

> <s_epik_input>
bjFbY0hdbltjSF1uMVtDQEhdKFtDSDNdKUMoPU8pW05IXVtDSDJdW0NAQEhdMltDSDJdW0NIMl1bQ0gyXU8y

> <s_epik_cmdline>
J2VwaWtfcHl0aG9uJywgJy1waCcsICc3LjAnLCAnLXRuJywgJzgnLCAnLW1hJywgJzIwMCcsICctbWV0YWxfYmluZGluZycsICctaW1hZScsICc8aW5maWxlLm1hZT4nLCAnLW9tYWUnLCAnPG91dGZpbGUubWFlPic=

> <r_lp_tautomer_probability>
1

> <r_epik_Ionization_Penalty>
1.2027e-05

> <r_epik_Ionization_Penalty_Charging>
0

> <r_epik_Ionization_Penalty_Neutral>
1.2027e-05

> <r_epik_State_Penalty>
-0

> <r_epik_Charging_Adjusted_Penalty>
0

> <i_epik_Tot_Q>
0

> <i_epik_Tot_abs_Q>
0

> <r_epik_Metal_State_Penalty>
-0

> <b_epik_Metal_Only>
0

> <s_lp_Force_Field>
OPLS_2005

> <r_lp_Energy>
23.186

> <b_lp_Chiralities_Consistent>
1

> <s_lp_Variant>
AV-unprocessed.smi:3133-3

> <Gold.Version>
5.8.1

> <Gold.Id.Protein>
6NUR|6NUR_protein|mol2

> <Gold.PLP.Fitness>
42.4093

> <Gold.PLP.PLP>
-32.0845

> <Gold.PLP.part.hbond>
-2.9030

> <Gold.PLP.part.metal>
0.0000

> <Gold.PLP.part.buried>
-3.8424

> <Gold.PLP.part.nonpolar>
-26.3200

> <Gold.PLP.part.repulsive>
0.3346

> <Gold.PLP.ligand.clash>
0.0000

> <Gold.PLP.ligand.torsion>
0.3375

> <Gold.PLP.Chemscore.Hbond>
2.6251

> <Gold.PLP.Chemscore.CHOScore>
1.0000

> <Gold.PLP.Chemscore.Metal>
0.0000

> <Gold.Chemscore.Hbonds>
donor molecule, donor type, donor heavy atom, donor atom, acceptor molecule, acceptor atom, score
      P1  H  7989  7998       L1    14  1.00
      P1  H  7997  8008       L1     4  0.91
      P1  H 10752 10763       L1    16  0.52
      L1  C    15    32       P1  7949  0.52

> <Gold.PLP.Chemscore.Internal.Correction>
0.1244

> <Gold.Rescore>
     Score         DG    S(hbond)    S(metal)    S(lipo)     H(rot)  DE(clash)    DE(int)     intcor
     15.27     -15.89       2.57        0.00      64.97       2.26       0.02       0.60       ----

> <Gold.Chemscore.Fitness>
15.2702

> <Gold.Chemscore.DG>
-15.8925

> <Gold.Chemscore.ZeroCoef>
-5.4800

> <Gold.Chemscore.Hbond>
2.5705

> <Gold.Chemscore.Metal>
0.0000

> <Gold.Chemscore.Lipo>
64.9719

> <Gold.Chemscore.Internal_Hbond>
0.0000

> <Gold.Chemscore.DEClash>
0.0217

> <Gold.Chemscore.DEInternal>
0.6005

> <Gold.Chemscore.Rot>
2.2558

> <Gold.Chemscore.Internal.Correction>
   9.000000E+99

> <Gold.Chemscore.Hbonds>
donor molecule, donor type, donor heavy atom, donor atom, acceptor molecule, acceptor atom, score
      P1  H  7989  7998       L1    14  0.79
      P1  H  7997  8008       L1     4  0.89
      P1  H 10752 10763       L1    16  0.08

> <Gold.Chemscore.Hbond.Weighted>
-8.5855

> <Gold.Chemscore.Metal.Weighted>
-0.0000

> <Gold.Chemscore.Lipo.Weighted>
-7.6017

> <Gold.Chemscore.Internal_Hbond.Weighted>
0.0000

> <Gold.Chemscore.DEClash.Weighted>
0.0217

> <Gold.Chemscore.DEInternal.Weighted>
0.6005

> <Gold.Chemscore.Rot.Weighted>
5.7747

> <Gold.Chemscore.Internal.Correction.Weighted>
   9.000000E+99

> <Gold.Protein.RotatedTorsions>
[ 6907 6896 6895 6894 ] final  168.20 input  -60.11 | X-H torsion
[ 7974 7965 7964 7962 ] final  -96.25 input  175.53 | X-H torsion
[ 8008 7997 7996 7995 ] final -110.27 input   59.86 | X-H torsion
[ 10167 10162 10161 10158 ] final   52.86 input  -65.29 | X-H torsion
[ 10718 10713 10712 10709 ] final   79.79 input   66.30 | X-H torsion
[ 10763 10752 10751 10750 ] final   78.18 input  -60.55 | X-H torsion
[ 11005 11000 10999 10996 ] final  -96.16 input  -57.11 | X-H torsion

> <Gold.Protein.ActiveResidues>
 VAL166  LYS551  ARG553  GLY616  TRP617  ASP618  TYR619  PRO620  LYS621  CYS622 
 ASP623  PHE694  ASN695  SER759  ASP760  ASP761  ALA762  ILE779  LEU786  VAL792 
 PHE793  MET794  SER795  GLU796  ALA797  LYS798  CYS799  TRP800  GLU811  SER814 

> <Gold.Protein.RotatedAtoms>
  151.8513  133.3440  159.3673 H   0  0  0  0  0  0  0  0  0  0  0  0  # atno 6907 bound_to 6896
  150.7205  134.5296  159.5703 H   0  0  0  0  0  0  0  0  0  0  0  0  # atno 6908 bound_to 6896
  152.2790  134.7850  160.0451 H   0  0  0  0  0  0  0  0  0  0  0  0  # atno 6909 bound_to 6896
  145.3493  140.9474  143.2563 H   0  0  0  0  0  0  0  0  0  0  0  0  # atno 7974 bound_to 7965
  154.9720  140.0397  157.2239 H   0  0  0  0  0  0  0  0  0  0  0  0  # atno 8008 bound_to 7997
  154.7792  140.2816  155.6054 H   0  0  0  0  0  0  0  0  0  0  0  0  # atno 8009 bound_to 7997
  156.2933  140.2595  156.2614 H   0  0  0  0  0  0  0  0  0  0  0  0  # atno 8010 bound_to 7997
  140.2469  144.3522  150.6361 H   0  0  0  0  0  0  0  0  0  0  0  0  # atno 10167 bound_to 10162
  157.6787  130.9930  150.1983 H   0  0  0  0  0  0  0  0  0  0  0  0  # atno 10718 bound_to 10713
  153.0855  135.4886  154.8588 H   0  0  0  0  0  0  0  0  0  0  0  0  # atno 10763 bound_to 10752
  154.7205  135.3038  154.9058 H   0  0  0  0  0  0  0  0  0  0  0  0  # atno 10764 bound_to 10752
  153.9723  135.6799  153.4800 H   0  0  0  0  0  0  0  0  0  0  0  0  # atno 10765 bound_to 10752
  141.1420  133.8078  157.0534 H   0  0  0  0  0  0  0  0  0  0  0  0  # atno 11005 bound_to 11000
  144.8730  139.5012  143.6759 LP  0  0  0  0  0  0  0  0  0  0  0  0  # atno 17320 bound_to 7965
  146.2974  139.7321  142.9116 LP  0  0  0  0  0  0  0  0  0  0  0  0  # atno 17321 bound_to 7965
  140.6071  143.2168  151.6959 LP  0  0  0  0  0  0  0  0  0  0  0  0  # atno 17342 bound_to 10162
  139.5059  144.3701  152.0478 LP  0  0  0  0  0  0  0  0  0  0  0  0  # atno 17343 bound_to 10162
  156.2680  130.3718  149.8061 LP  0  0  0  0  0  0  0  0  0  0  0  0  # atno 17370 bound_to 10713
  156.5787  130.8456  151.3377 LP  0  0  0  0  0  0  0  0  0  0  0  0  # atno 17371 bound_to 10713
  140.0617  134.9751  157.1316 LP  0  0  0  0  0  0  0  0  0  0  0  0  # atno 17394 bound_to 11000
  140.3838  134.2258  155.7169 LP  0  0  0  0  0  0  0  0  0  0  0  0  # atno 17395 bound_to 11000

$$$$
