AV-unprocessed.smi:34|AV-procd|sdf|223|dock1
  -GOLD-   2262015543D 1   1.00000     0.00000
 Structure written by MMmdl.
 55 59  0  0  0  0  0  0  0  0  1 V2000
  152.1216  139.1596  159.0601 O   0  0  0  0  0  0  0  0  0  0  0  0
  151.6677  140.1570  158.4988 C   0  0  0  0  0  0  0  0  0  0  0  0
  151.3289  140.1627  157.0862 N   0  0  0  0  0  0  0  0  0  0  0  0
  151.3817  139.1334  156.2083 C   0  0  0  0  0  0  0  0  0  0  0  0
  152.3275  139.0513  155.2362 N   0  0  0  0  0  0  0  0  0  0  0  0
  152.3340  138.0173  154.3907 C   0  0  0  0  0  0  0  0  0  0  0  0
  151.5013  136.9760  154.3421 N   0  0  0  0  0  0  0  0  0  0  0  0
  150.5478  137.0469  155.3150 C   0  0  0  0  0  0  0  0  0  0  0  0
  150.4245  138.0876  156.2786 C   0  0  0  0  0  0  0  0  0  0  0  0
  149.3418  137.8344  157.1098 N   0  0  0  0  0  0  0  0  0  0  0  0
  148.8554  136.7097  156.6598 C   0  0  0  0  0  0  0  0  0  0  0  0
  149.5148  136.1668  155.5790 N   0  0  0  0  0  0  0  0  0  0  0  0
  149.1649  134.8971  154.8593 C   0  0  2  0  0  0  0  0  0  0  0  0
  147.7933  134.8645  154.5891 O   0  0  0  0  0  0  0  0  0  0  0  0
  147.1908  133.7643  155.2654 C   0  0  1  0  0  0  0  0  0  0  0  0
  145.9494  133.2697  154.5131 C   0  0  0  0  0  0  0  0  0  0  0  0
  146.2730  133.0803  153.1449 O   0  0  0  0  0  0  0  0  0  0  0  0
  146.2956  134.1333  152.3047 C   0  0  0  0  0  0  0  0  0  0  0  0
  146.2067  135.3051  152.6769 O   0  0  0  0  0  0  0  0  0  0  0  0
  146.4433  133.7336  150.8753 C   0  0  0  0  0  0  0  0  0  0  0  0
  147.0793  134.6164  149.9715 C   0  0  0  0  0  0  0  0  0  0  0  0
  147.2327  134.2675  148.6156 C   0  0  0  0  0  0  0  0  0  0  0  0
  146.7507  133.0319  148.1463 C   0  0  0  0  0  0  0  0  0  0  0  0
  146.1156  132.1450  149.0350 C   0  0  0  0  0  0  0  0  0  0  0  0
  145.9626  132.4914  150.3918 C   0  0  0  0  0  0  0  0  0  0  0  0
  148.3202  132.7424  155.4015 C   0  0  1  0  0  0  0  0  0  0  0  0
  148.4997  132.0792  154.2569 F   0  0  0  0  0  0  0  0  0  0  0  0
  149.5239  133.6287  155.6618 C   0  0  2  0  0  0  0  0  0  0  0  0
  149.7046  133.8419  157.0511 O   0  0  0  0  0  0  0  0  0  0  0  0
  151.5097  141.4641  159.2200 C   0  0  0  0  0  0  0  0  0  0  0  0
  151.4938  141.4938  160.6327 C   0  0  0  0  0  0  0  0  0  0  0  0
  151.3309  142.7129  161.3188 C   0  0  0  0  0  0  0  0  0  0  0  0
  151.1743  143.9119  160.5986 C   0  0  0  0  0  0  0  0  0  0  0  0
  151.1772  143.8905  159.1912 C   0  0  0  0  0  0  0  0  0  0  0  0
  151.3405  142.6719  158.5036 C   0  0  0  0  0  0  0  0  0  0  0  0
  151.0004  141.0424  156.7157 H   0  0  0  0  0  0  0  0  0  0  0  0
  153.1170  138.0264  153.6467 H   0  0  0  0  0  0  0  0  0  0  0  0
  147.9888  136.2430  157.1052 H   0  0  0  0  0  0  0  0  0  0  0  0
  149.7043  134.9628  153.9135 H   0  0  0  0  0  0  0  0  0  0  0  0
  146.8967  134.0989  156.2605 H   0  0  0  0  0  0  0  0  0  0  0  0
  145.6159  132.3193  154.9315 H   0  0  0  0  0  0  0  0  0  0  0  0
  145.1281  133.9793  154.6229 H   0  0  0  0  0  0  0  0  0  0  0  0
  147.4582  135.5703  150.3091 H   0  0  0  0  0  0  0  0  0  0  0  0
  147.7212  134.9494  147.9354 H   0  0  0  0  0  0  0  0  0  0  0  0
  146.8681  132.7651  147.1064 H   0  0  0  0  0  0  0  0  0  0  0  0
  145.7445  131.1962  148.6763 H   0  0  0  0  0  0  0  0  0  0  0  0
  145.4695  131.7881  151.0466 H   0  0  0  0  0  0  0  0  0  0  0  0
  148.1412  132.0002  156.1806 H   0  0  0  0  0  0  0  0  0  0  0  0
  150.4425  133.1951  155.2650 H   0  0  0  0  0  0  0  0  0  0  0  0
  150.3840  134.4883  157.1689 H   0  0  0  0  0  0  0  0  0  0  0  0
  151.6112  140.5821  161.2006 H   0  0  0  0  0  0  0  0  0  0  0  0
  151.3250  142.7273  162.3988 H   0  0  0  0  0  0  0  0  0  0  0  0
  151.0486  144.8462  161.1254 H   0  0  0  0  0  0  0  0  0  0  0  0
  151.0508  144.8093  158.6376 H   0  0  0  0  0  0  0  0  0  0  0  0
  151.3299  142.6778  157.4233 H   0  0  0  0  0  0  0  0  0  0  0  0
  1  2  2  0  0  0  0
  2  3  1  0  0  0  0
  2 30  1  0  0  0  0
  3  4  1  0  0  0  0
  3 36  1  0  0  0  0
  4  9  1  0  0  0  0
  4  5  2  0  0  0  0
  5  6  1  0  0  0  0
  6  7  2  0  0  0  0
  6 37  1  0  0  0  0
  7  8  1  0  0  0  0
  8 12  1  0  0  0  0
  8  9  2  0  0  0  0
  9 10  1  0  0  0  0
 10 11  2  0  0  0  0
 11 12  1  0  0  0  0
 11 38  1  0  0  0  0
 12 13  1  0  0  0  0
 13 28  1  0  0  0  0
 13 14  1  0  0  0  0
 13 39  1  0  0  0  0
 14 15  1  0  0  0  0
 15 16  1  0  0  0  0
 15 26  1  0  0  0  0
 15 40  1  0  0  0  0
 16 17  1  0  0  0  0
 16 41  1  0  0  0  0
 16 42  1  0  0  0  0
 17 18  1  0  0  0  0
 18 19  2  0  0  0  0
 18 20  1  0  0  0  0
 20 25  1  0  0  0  0
 20 21  2  0  0  0  0
 21 22  1  0  0  0  0
 21 43  1  0  0  0  0
 22 23  2  0  0  0  0
 22 44  1  0  0  0  0
 23 24  1  0  0  0  0
 23 45  1  0  0  0  0
 24 25  2  0  0  0  0
 24 46  1  0  0  0  0
 25 47  1  0  0  0  0
 26 27  1  0  0  0  0
 26 28  1  0  0  0  0
 26 48  1  0  0  0  0
 28 29  1  0  0  0  0
 28 49  1  0  0  0  0
 29 50  1  0  0  0  0
 30 35  1  0  0  0  0
 30 31  2  0  0  0  0
 31 32  1  0  0  0  0
 31 51  1  0  0  0  0
 32 33  2  0  0  0  0
 32 52  1  0  0  0  0
 33 34  1  0  0  0  0
 33 53  1  0  0  0  0
 34 35  2  0  0  0  0
 34 54  1  0  0  0  0
 35 55  1  0  0  0  0
M  END
> <s_m_source_file>
AV-unprocessed.smi

> <i_m_source_file_index>
34

> <i_lp_mmshare_version>
43012

> <i_f3d_flags>
0

> <s_epik_input>
W2NIXTFbY0hdW2NIXVtjSF1bY0hdYzFDKD1PKVtOSF1jKG5bY0hdbjIpYyhjMjMpbltjSF1uM1tDQEBIXTRPW0NASF0oW0NAQEhdKEYpW0NASF00W09IXSlbQ0gyXU9DKD1PKWM1W2NIXVtjSF1bY0hdW2NIXVtjSF01

> <s_epik_cmdline>
J2VwaWtfcHl0aG9uJywgJy1waCcsICc3LjAnLCAnLXRuJywgJzgnLCAnLW1hJywgJzIwMCcsICctbWV0YWxfYmluZGluZycsICctaW1hZScsICc8aW5maWxlLm1hZT4nLCAnLW9tYWUnLCAnPG91dGZpbGUubWFlPic=

> <r_lp_tautomer_probability>
1

> <r_epik_Ionization_Penalty>
0.00257489

> <r_epik_Ionization_Penalty_Charging>
0

> <r_epik_Ionization_Penalty_Neutral>
0.00257489

> <r_epik_State_Penalty>
0.00519398

> <r_epik_Charging_Adjusted_Penalty>
0.00519398

> <i_epik_Tot_Q>
0

> <i_epik_Tot_abs_Q>
0

> <r_epik_Metal_State_Penalty>
0.335891

> <b_epik_Metal_Only>
0

> <s_epik_Chemistry_Notes>
This compound has an ester and may undergo hydrolysis at high or low pH. This compound contains an acetal/aminal-like group ( X-CH(R)-Y where X, Y are N, S, or O) that may be acid/base labile, releasing an aldehyde.

> <s_lp_Force_Field>
OPLS_2005

> <r_lp_Energy>
53.1328

> <b_lp_Chiralities_Consistent>
1

> <s_lp_Variant>
AV-unprocessed.smi:34-9

> <Gold.Version>
5.8.1

> <Gold.Id.Protein>
6NUR|6NUR_protein|mol2

> <Gold.PLP.Fitness>
59.9477

> <Gold.PLP.PLP>
-52.6499

> <Gold.PLP.part.hbond>
-4.0000

> <Gold.PLP.part.metal>
0.0000

> <Gold.PLP.part.buried>
-9.7727

> <Gold.PLP.part.nonpolar>
-41.4943

> <Gold.PLP.part.repulsive>
1.7206

> <Gold.PLP.ligand.clash>
0.0000

> <Gold.PLP.ligand.torsion>
1.6803

> <Gold.PLP.Chemscore.Hbond>
3.2563

> <Gold.PLP.Chemscore.CHOScore>
0.0000

> <Gold.PLP.Chemscore.Metal>
0.0000

> <Gold.Chemscore.Hbonds>
donor molecule, donor type, donor heavy atom, donor atom, acceptor molecule, acceptor atom, score
      P1  H 10752 10763       L1     7  0.65

> <Gold.PLP.Chemscore.Internal.Correction>
0.8895

> <Gold.Rescore>
     Score         DG    S(hbond)    S(metal)    S(lipo)     H(rot)  DE(clash)    DE(int)     intcor
     11.07     -19.66       1.97        0.00     124.54       2.72       1.55       7.04       ----

> <Gold.Chemscore.Fitness>
11.0696

> <Gold.Chemscore.DG>
-19.6589

> <Gold.Chemscore.ZeroCoef>
-5.4800

> <Gold.Chemscore.Hbond>
1.9686

> <Gold.Chemscore.Metal>
0.0000

> <Gold.Chemscore.Lipo>
124.5378

> <Gold.Chemscore.Internal_Hbond>
0.0000

> <Gold.Chemscore.DEClash>
1.5460

> <Gold.Chemscore.DEInternal>
7.0432

> <Gold.Chemscore.Rot>
2.7215

> <Gold.Chemscore.Internal.Correction>
   9.000000E+99

> <Gold.Chemscore.Hbonds>
donor molecule, donor type, donor heavy atom, donor atom, acceptor molecule, acceptor atom, score
      P1  H 10752 10763       L1     7  0.06

> <Gold.Chemscore.Hbond.Weighted>
-6.5750

> <Gold.Chemscore.Metal.Weighted>
-0.0000

> <Gold.Chemscore.Lipo.Weighted>
-14.5709

> <Gold.Chemscore.Internal_Hbond.Weighted>
0.0000

> <Gold.Chemscore.DEClash.Weighted>
1.5460

> <Gold.Chemscore.DEInternal.Weighted>
7.0432

> <Gold.Chemscore.Rot.Weighted>
6.9670

> <Gold.Chemscore.Internal.Correction.Weighted>
   9.000000E+99

> <Gold.Protein.RotatedTorsions>
[ 6907 6896 6895 6894 ] final  -52.73 input  -60.11 | X-H torsion
[ 7974 7965 7964 7962 ] final  -22.62 input  175.53 | X-H torsion
[ 8008 7997 7996 7995 ] final -103.52 input   59.86 | X-H torsion
[ 10167 10162 10161 10158 ] final -106.80 input  -65.29 | X-H torsion
[ 10718 10713 10712 10709 ] final  -84.82 input   66.30 | X-H torsion
[ 10763 10752 10751 10750 ] final   34.15 input  -60.55 | X-H torsion
[ 11005 11000 10999 10996 ] final  135.02 input  -57.11 | X-H torsion

> <Gold.Protein.ActiveResidues>
 VAL166  LYS551  ARG553  GLY616  TRP617  ASP618  TYR619  PRO620  LYS621  CYS622 
 ASP623  PHE694  ASN695  SER759  ASP760  ASP761  ALA762  ILE779  LEU786  VAL792 
 PHE793  MET794  SER795  GLU796  ALA797  LYS798  CYS799  TRP800  GLU811  SER814 

> <Gold.Protein.RotatedAtoms>
  150.8491  134.7810  159.6993 H   0  0  0  0  0  0  0  0  0  0  0  0  # atno 6907 bound_to 6896
  152.4560  134.5286  159.9814 H   0  0  0  0  0  0  0  0  0  0  0  0  # atno 6908 bound_to 6896
  151.5411  133.3394  159.2971 H   0  0  0  0  0  0  0  0  0  0  0  0  # atno 6909 bound_to 6896
  146.1665  140.4504  142.8550 H   0  0  0  0  0  0  0  0  0  0  0  0  # atno 7974 bound_to 7965
  154.8721  140.0422  157.1731 H   0  0  0  0  0  0  0  0  0  0  0  0  # atno 8008 bound_to 7997
  154.8728  140.2961  155.5450 H   0  0  0  0  0  0  0  0  0  0  0  0  # atno 8009 bound_to 7997
  156.2999  140.2426  156.3719 H   0  0  0  0  0  0  0  0  0  0  0  0  # atno 8010 bound_to 7997
  140.1838  143.3945  152.1260 H   0  0  0  0  0  0  0  0  0  0  0  0  # atno 10167 bound_to 10162
  156.0002  130.4710  150.4467 H   0  0  0  0  0  0  0  0  0  0  0  0  # atno 10718 bound_to 10713
  153.0177  135.6368  154.1624 H   0  0  0  0  0  0  0  0  0  0  0  0  # atno 10763 bound_to 10752
  154.1361  135.2837  155.3174 H   0  0  0  0  0  0  0  0  0  0  0  0  # atno 10764 bound_to 10752
  154.6159  135.5541  153.7584 H   0  0  0  0  0  0  0  0  0  0  0  0  # atno 10765 bound_to 10752
  139.9952  134.9500  156.9949 H   0  0  0  0  0  0  0  0  0  0  0  0  # atno 11005 bound_to 11000
  144.8100  140.6368  143.6422 LP  0  0  0  0  0  0  0  0  0  0  0  0  # atno 17320 bound_to 7965
  145.4454  139.1530  143.3947 LP  0  0  0  0  0  0  0  0  0  0  0  0  # atno 17321 bound_to 7965
  139.5284  144.7131  151.5143 LP  0  0  0  0  0  0  0  0  0  0  0  0  # atno 17342 bound_to 10162
  140.6501  143.8713  150.6777 LP  0  0  0  0  0  0  0  0  0  0  0  0  # atno 17343 bound_to 10162
  157.2504  131.0545  151.2383 LP  0  0  0  0  0  0  0  0  0  0  0  0  # atno 17370 bound_to 10713
  157.3534  130.7094  149.6455 LP  0  0  0  0  0  0  0  0  0  0  0  0  # atno 17371 bound_to 10713
  140.4831  134.1269  155.7220 LP  0  0  0  0  0  0  0  0  0  0  0  0  # atno 17394 bound_to 11000
  141.1599  133.8813  157.1877 LP  0  0  0  0  0  0  0  0  0  0  0  0  # atno 17395 bound_to 11000

$$$$
