AV-unprocessed.smi:139|AV-procd|sdf|1183|dock8
  -GOLD-   2262018333D 1   1.00000     0.00000
 Structure written by MMmdl.
 50 53  0  0  0  0  0  0  0  0  1 V2000
  152.1270  139.9531  156.0391 O   0  0  0  0  0  0  0  0  0  0  0  0
  151.8280  139.4816  157.1369 C   0  0  0  0  0  0  0  0  0  0  0  0
  151.4076  138.0109  157.2683 C   0  0  0  0  0  0  0  0  0  0  0  0
  149.9678  137.8527  157.5669 N   0  0  0  0  0  0  0  0  0  0  0  0
  149.0150  138.2741  156.6066 C   0  0  0  0  0  0  0  0  0  0  0  0
  149.3635  138.7541  155.5272 O   0  0  0  0  0  0  0  0  0  0  0  0
  147.6181  138.1071  156.9913 C   0  0  0  0  0  0  0  0  0  0  0  0
  146.6453  138.4817  156.1432 F   0  0  0  0  0  0  0  0  0  0  0  0
  147.2837  137.5836  158.1887 C   0  0  0  0  0  0  0  0  0  0  0  0
  148.2247  137.1732  159.1164 N   0  0  0  0  0  0  0  0  0  0  0  0
  147.8335  136.6047  160.4649 C   0  0  2  0  0  0  0  0  0  0  0  0
  146.9973  135.3216  160.2928 C   0  0  0  0  0  0  0  0  0  0  0  0
  145.7674  135.6047  161.1329 C   0  0  0  0  0  0  0  0  0  0  0  0
  145.6730  137.1208  161.0549 C   0  0  0  0  0  0  0  0  0  0  0  0
  147.0326  137.5220  161.1544 O   0  0  0  0  0  0  0  0  0  0  0  0
  149.5984  137.3151  158.8233 C   0  0  0  0  0  0  0  0  0  0  0  0
  150.4537  136.9800  159.6465 O   0  0  0  0  0  0  0  0  0  0  0  0
  151.8401  140.1924  158.2771 N   0  0  0  0  0  0  0  0  0  0  0  0
  152.1403  141.6195  158.4156 C   0  0  1  0  0  0  0  0  0  0  0  0
  151.0790  142.4898  157.7110 C   0  0  0  0  0  0  0  0  0  0  0  0
  151.3012  143.9776  157.9901 C   0  0  0  0  0  0  0  0  0  0  0  0
  151.2099  144.2734  159.4912 C   0  0  0  0  0  0  0  0  0  0  0  0
  152.0279  143.3175  160.3466 C   0  0  0  0  0  0  0  0  0  0  0  0
  152.3450  143.6972  161.6680 C   0  0  0  0  0  0  0  0  0  0  0  0
  153.0894  142.8400  162.4987 C   0  0  0  0  0  0  0  0  0  0  0  0
  153.5235  141.5949  162.0107 C   0  0  0  0  0  0  0  0  0  0  0  0
  153.2114  141.2090  160.6940 C   0  0  0  0  0  0  0  0  0  0  0  0
  152.4543  142.0570  159.8520 C   0  0  0  0  0  0  0  0  0  0  0  0
  151.6945  137.4932  156.3524 H   0  0  0  0  0  0  0  0  0  0  0  0
  152.0054  137.5295  158.0448 H   0  0  0  0  0  0  0  0  0  0  0  0
  146.2315  137.4932  158.4116 H   0  0  0  0  0  0  0  0  0  0  0  0
  148.7704  136.4597  161.0054 H   0  0  0  0  0  0  0  0  0  0  0  0
  146.7204  135.1866  159.2462 H   0  0  0  0  0  0  0  0  0  0  0  0
  147.5527  134.4456  160.6282 H   0  0  0  0  0  0  0  0  0  0  0  0
  144.8734  135.1008  160.7651 H   0  0  0  0  0  0  0  0  0  0  0  0
  145.9372  135.2940  162.1646 H   0  0  0  0  0  0  0  0  0  0  0  0
  145.2553  137.4357  160.0976 H   0  0  0  0  0  0  0  0  0  0  0  0
  145.0678  137.5488  161.8541 H   0  0  0  0  0  0  0  0  0  0  0  0
  151.5838  139.7084  159.1253 H   0  0  0  0  0  0  0  0  0  0  0  0
  153.0755  141.7667  157.8741 H   0  0  0  0  0  0  0  0  0  0  0  0
  151.0884  142.2975  156.6376 H   0  0  0  0  0  0  0  0  0  0  0  0
  150.0792  142.2287  158.0593 H   0  0  0  0  0  0  0  0  0  0  0  0
  152.2858  144.2669  157.6205 H   0  0  0  0  0  0  0  0  0  0  0  0
  150.5752  144.5820  157.4453 H   0  0  0  0  0  0  0  0  0  0  0  0
  151.5256  145.2996  159.6835 H   0  0  0  0  0  0  0  0  0  0  0  0
  150.1710  144.2006  159.8143 H   0  0  0  0  0  0  0  0  0  0  0  0
  152.0141  144.6519  162.0502 H   0  0  0  0  0  0  0  0  0  0  0  0
  153.3278  143.1379  163.5091 H   0  0  0  0  0  0  0  0  0  0  0  0
  154.0973  140.9358  162.6452 H   0  0  0  0  0  0  0  0  0  0  0  0
  153.5580  140.2514  160.3345 H   0  0  0  0  0  0  0  0  0  0  0  0
  1  2  2  0  0  0  0
  2  3  1  0  0  0  0
  2 18  1  0  0  0  0
  3  4  1  0  0  0  0
  3 29  1  0  0  0  0
  3 30  1  0  0  0  0
  4 16  1  0  0  0  0
  4  5  1  0  0  0  0
  5  6  2  0  0  0  0
  5  7  1  0  0  0  0
  7  8  1  0  0  0  0
  7  9  2  0  0  0  0
  9 10  1  0  0  0  0
  9 31  1  0  0  0  0
 10 11  1  0  0  0  0
 10 16  1  0  0  0  0
 11 15  1  0  0  0  0
 11 12  1  0  0  0  0
 11 32  1  0  0  0  0
 12 13  1  0  0  0  0
 12 33  1  0  0  0  0
 12 34  1  0  0  0  0
 13 14  1  0  0  0  0
 13 35  1  0  0  0  0
 13 36  1  0  0  0  0
 14 15  1  0  0  0  0
 14 37  1  0  0  0  0
 14 38  1  0  0  0  0
 16 17  2  0  0  0  0
 18 19  1  0  0  0  0
 18 39  1  0  0  0  0
 19 28  1  0  0  0  0
 19 20  1  0  0  0  0
 19 40  1  0  0  0  0
 20 21  1  0  0  0  0
 20 41  1  0  0  0  0
 20 42  1  0  0  0  0
 21 22  1  0  0  0  0
 21 43  1  0  0  0  0
 21 44  1  0  0  0  0
 22 23  1  0  0  0  0
 22 45  1  0  0  0  0
 22 46  1  0  0  0  0
 23 28  2  0  0  0  0
 23 24  1  0  0  0  0
 24 25  2  0  0  0  0
 24 47  1  0  0  0  0
 25 26  1  0  0  0  0
 25 48  1  0  0  0  0
 26 27  2  0  0  0  0
 26 49  1  0  0  0  0
 27 28  1  0  0  0  0
 27 50  1  0  0  0  0
M  END
> <s_m_source_file>
AV-unprocessed.smi

> <i_m_source_file_index>
139

> <i_lp_mmshare_version>
43012

> <i_f3d_flags>
0

> <s_epik_input>
W2NIXTFbY0hdW2NIXVtjSF1jKGMxMilbQ0BASF0oW0NIMl1bQ0gyXVtDSDJdMilbTkhdQyg9TylbQ0gyXW4zYyg9TyljKEYpW2NIXW4oYzM9TylbQ0BASF00W0NIMl1bQ0gyXVtDSDJdTzQ=

> <s_epik_cmdline>
J2VwaWtfcHl0aG9uJywgJy1waCcsICc3LjAnLCAnLXRuJywgJzgnLCAnLW1hJywgJzIwMCcsICctbWV0YWxfYmluZGluZycsICctaW1hZScsICc8aW5maWxlLm1hZT4nLCAnLW9tYWUnLCAnPG91dGZpbGUubWFlPic=

> <r_lp_tautomer_probability>
1

> <r_epik_Ionization_Penalty>
3.261e-08

> <r_epik_Ionization_Penalty_Charging>
3.6725e-09

> <r_epik_Ionization_Penalty_Neutral>
2.89375e-08

> <r_epik_State_Penalty>
-0

> <r_epik_Charging_Adjusted_Penalty>
3.6725e-09

> <i_epik_Tot_Q>
0

> <i_epik_Tot_abs_Q>
0

> <r_epik_Metal_State_Penalty>
-0

> <b_epik_Metal_Only>
0

> <s_epik_Chemistry_Notes>
This compound contains an acetal/aminal-like group ( X-CH(R)-Y where X, Y are N, S, or O) that may be acid/base labile, releasing an aldehyde.

> <s_lp_Force_Field>
OPLS_2005

> <r_lp_Energy>
30.9596

> <b_lp_Chiralities_Consistent>
1

> <s_lp_Variant>
AV-unprocessed.smi:139-3

> <Gold.Version>
5.8.1

> <Gold.Id.Protein>
6NUR|6NUR_protein|mol2

> <Gold.PLP.Fitness>
59.6353

> <Gold.PLP.PLP>
-49.8633

> <Gold.PLP.part.hbond>
-4.0000

> <Gold.PLP.part.metal>
0.0000

> <Gold.PLP.part.buried>
-6.5755

> <Gold.PLP.part.nonpolar>
-40.4757

> <Gold.PLP.part.repulsive>
0.1391

> <Gold.PLP.ligand.clash>
0.0000

> <Gold.PLP.ligand.torsion>
0.2611

> <Gold.PLP.Chemscore.Hbond>
3.4064

> <Gold.PLP.Chemscore.CHOScore>
0.0000

> <Gold.PLP.Chemscore.Metal>
0.0000

> <Gold.Chemscore.Hbonds>
donor molecule, donor type, donor heavy atom, donor atom, acceptor molecule, acceptor atom, score
      P1  H  6896  6907       L1    17  1.00
      P1  H  6931  6943       L1    15  0.04
      P1  H  6934  6947       L1    15  0.98
      P1  H  7997  8010       L1     1  0.50

> <Gold.PLP.Chemscore.Internal.Correction>
0.0750

> <Gold.Rescore>
     Score         DG    S(hbond)    S(metal)    S(lipo)     H(rot)  DE(clash)    DE(int)     intcor
     24.41     -24.89       2.83        0.00     124.85       1.82       0.00       0.48       ----

> <Gold.Chemscore.Fitness>
24.4053

> <Gold.Chemscore.DG>
-24.8864

> <Gold.Chemscore.ZeroCoef>
-5.4800

> <Gold.Chemscore.Hbond>
2.8297

> <Gold.Chemscore.Metal>
0.0000

> <Gold.Chemscore.Lipo>
124.8530

> <Gold.Chemscore.Internal_Hbond>
0.0000

> <Gold.Chemscore.DEClash>
0.0015

> <Gold.Chemscore.DEInternal>
0.4796

> <Gold.Chemscore.Rot>
1.8174

> <Gold.Chemscore.Internal.Correction>
   9.000000E+99

> <Gold.Chemscore.Hbonds>
donor molecule, donor type, donor heavy atom, donor atom, acceptor molecule, acceptor atom, score
      P1  H  6896  6907       L1    17  0.93
      P1  H  6934  6947       L1    15  0.71
      P1  H  7997  8010       L1     1  0.17

> <Gold.Chemscore.Hbond.Weighted>
-9.4511

> <Gold.Chemscore.Metal.Weighted>
-0.0000

> <Gold.Chemscore.Lipo.Weighted>
-14.6078

> <Gold.Chemscore.Internal_Hbond.Weighted>
0.0000

> <Gold.Chemscore.DEClash.Weighted>
0.0015

> <Gold.Chemscore.DEInternal.Weighted>
0.4796

> <Gold.Chemscore.Rot.Weighted>
4.6524

> <Gold.Chemscore.Internal.Correction.Weighted>
   9.000000E+99

> <Gold.Protein.RotatedTorsions>
[ 6907 6896 6895 6894 ] final  -30.28 input  -60.11 | X-H torsion
[ 7974 7965 7964 7962 ] final   15.83 input  175.53 | X-H torsion
[ 8008 7997 7996 7995 ] final   85.78 input   59.86 | X-H torsion
[ 10167 10162 10161 10158 ] final  140.71 input  -65.29 | X-H torsion
[ 10718 10713 10712 10709 ] final -124.53 input   66.30 | X-H torsion
[ 10763 10752 10751 10750 ] final -114.61 input  -60.55 | X-H torsion
[ 11005 11000 10999 10996 ] final -148.60 input  -57.11 | X-H torsion

> <Gold.Protein.ActiveResidues>
 VAL166  LYS551  ARG553  GLY616  TRP617  ASP618  TYR619  PRO620  LYS621  CYS622 
 ASP623  PHE694  ASN695  SER759  ASP760  ASP761  ALA762  ILE779  LEU786  VAL792 
 PHE793  MET794  SER795  GLU796  ALA797  LYS798  CYS799  TRP800  GLU811  SER814 

> <Gold.Protein.RotatedAtoms>
  151.1077  135.0009  159.8478 H   0  0  0  0  0  0  0  0  0  0  0  0  # atno 6907 bound_to 6896
  152.5441  134.1873  159.8670 H   0  0  0  0  0  0  0  0  0  0  0  0  # atno 6908 bound_to 6896
  151.1921  133.4616  159.2628 H   0  0  0  0  0  0  0  0  0  0  0  0  # atno 6909 bound_to 6896
  146.2267  139.8836  142.8566 H   0  0  0  0  0  0  0  0  0  0  0  0  # atno 7974 bound_to 7965
  155.9544  140.3398  155.6435 H   0  0  0  0  0  0  0  0  0  0  0  0  # atno 8008 bound_to 7997
  155.6879  140.0745  157.2478 H   0  0  0  0  0  0  0  0  0  0  0  0  # atno 8009 bound_to 7997
  154.4129  140.1662  156.2041 H   0  0  0  0  0  0  0  0  0  0  0  0  # atno 8010 bound_to 7997
  139.5041  144.6217  151.6035 H   0  0  0  0  0  0  0  0  0  0  0  0  # atno 10167 bound_to 10162
  156.1596  130.6592  151.0031 H   0  0  0  0  0  0  0  0  0  0  0  0  # atno 10718 bound_to 10713
  154.8447  135.4411  154.1533 H   0  0  0  0  0  0  0  0  0  0  0  0  # atno 10763 bound_to 10752
  153.2688  135.6943  153.7508 H   0  0  0  0  0  0  0  0  0  0  0  0  # atno 10764 bound_to 10752
  153.6756  135.3411  155.3140 H   0  0  0  0  0  0  0  0  0  0  0  0  # atno 10765 bound_to 10752
  140.7595  134.3314  157.5105 H   0  0  0  0  0  0  0  0  0  0  0  0  # atno 11005 bound_to 11000
  145.2488  141.0036  143.3893 LP  0  0  0  0  0  0  0  0  0  0  0  0  # atno 17320 bound_to 7965
  144.9392  139.4209  143.6457 LP  0  0  0  0  0  0  0  0  0  0  0  0  # atno 17321 bound_to 7965
  140.5921  143.9761  150.6331 LP  0  0  0  0  0  0  0  0  0  0  0  0  # atno 17342 bound_to 10162
  140.2945  143.3302  152.1031 LP  0  0  0  0  0  0  0  0  0  0  0  0  # atno 17343 bound_to 10162
  157.6722  131.0859  150.7584 LP  0  0  0  0  0  0  0  0  0  0  0  0  # atno 17370 bound_to 10713
  156.7647  130.4810  149.5430 LP  0  0  0  0  0  0  0  0  0  0  0  0  # atno 17371 bound_to 10713
  139.8773  134.9193  156.3224 LP  0  0  0  0  0  0  0  0  0  0  0  0  # atno 17394 bound_to 11000
  140.9676  133.7348  156.0488 LP  0  0  0  0  0  0  0  0  0  0  0  0  # atno 17395 bound_to 11000

$$$$
