AV-unprocessed.smi:1133|AV-procd|sdf|4856|dock8
  -GOLD-   22720 3423D 1   1.00000     0.00000
 Structure written by MMmdl.
 41 42  0  0  0  0  0  0  0  0  1 V2000
  152.1953  144.8432  161.7181 C   0  0  0  0  0  0  0  0  0  0  0  0
  152.2343  143.3791  161.2739 C   0  0  0  0  0  0  0  0  0  0  0  0
  151.8616  142.5217  162.0749 O   0  0  0  0  0  0  0  0  0  0  0  0
  152.6674  143.0767  160.0263 N   0  0  0  0  0  0  0  0  0  0  0  0
  152.6539  141.7105  159.4909 C   0  0  0  0  0  0  0  0  0  0  0  0
  151.5552  141.6104  158.4172 C   0  0  0  0  0  0  0  0  0  0  0  0
  151.7532  142.6665  157.3083 C   0  0  0  0  0  0  0  0  0  0  0  0
  150.5959  142.6669  156.4188 N   0  0  0  0  0  0  0  0  0  0  0  0
  150.2942  141.6958  155.5455 C   0  0  0  0  0  0  0  0  0  0  0  0
  150.9570  140.6688  155.3980 O   0  0  0  0  0  0  0  0  0  0  0  0
  149.1881  141.9818  154.8448 N   0  0  0  0  0  0  0  0  0  0  0  0
  148.6137  141.1293  153.8108 C   0  0  0  0  0  0  0  0  0  0  0  0
  147.1049  140.9199  154.0221 C   0  0  0  0  0  0  0  0  0  0  0  0
  146.6494  139.6893  153.4089 N   0  0  0  0  0  0  0  0  0  0  0  0
  146.8222  139.2959  152.0886 C   0  0  0  0  0  0  0  0  0  0  0  0
  146.2250  138.0616  151.9656 C   0  0  0  0  0  0  0  0  0  0  0  0
  145.6801  137.6801  153.1894 N   0  0  0  0  0  0  0  0  0  0  0  0
  145.9708  138.6934  153.9951 C   0  0  0  0  0  0  0  0  0  0  0  0
  151.9798  144.0760  157.9036 C   0  0  0  0  0  0  0  0  0  0  0  0
  153.0575  144.0530  159.0019 C   0  0  0  0  0  0  0  0  0  0  0  0
  151.5614  145.4326  161.0546 H   0  0  0  0  0  0  0  0  0  0  0  0
  153.1978  145.2716  161.7257 H   0  0  0  0  0  0  0  0  0  0  0  0
  151.7896  144.9281  162.7268 H   0  0  0  0  0  0  0  0  0  0  0  0
  153.6276  141.4821  159.0547 H   0  0  0  0  0  0  0  0  0  0  0  0
  152.4903  140.9560  160.2614 H   0  0  0  0  0  0  0  0  0  0  0  0
  151.5486  140.6094  157.9844 H   0  0  0  0  0  0  0  0  0  0  0  0
  150.5823  141.7489  158.8915 H   0  0  0  0  0  0  0  0  0  0  0  0
  152.6422  142.3854  156.7403 H   0  0  0  0  0  0  0  0  0  0  0  0
  149.9875  143.4711  156.4645 H   0  0  0  0  0  0  0  0  0  0  0  0
  148.7120  142.8512  155.0364 H   0  0  0  0  0  0  0  0  0  0  0  0
  148.8081  141.5581  152.8259 H   0  0  0  0  0  0  0  0  0  0  0  0
  149.1297  140.1692  153.8390 H   0  0  0  0  0  0  0  0  0  0  0  0
  146.8691  140.8865  155.0867 H   0  0  0  0  0  0  0  0  0  0  0  0
  146.5344  141.7467  153.5965 H   0  0  0  0  0  0  0  0  0  0  0  0
  147.3409  139.9092  151.3665 H   0  0  0  0  0  0  0  0  0  0  0  0
  146.1451  137.4244  151.0973 H   0  0  0  0  0  0  0  0  0  0  0  0
  145.6816  138.7131  155.0358 H   0  0  0  0  0  0  0  0  0  0  0  0
  152.2671  144.7753  157.1176 H   0  0  0  0  0  0  0  0  0  0  0  0
  151.0476  144.4535  158.3269 H   0  0  0  0  0  0  0  0  0  0  0  0
  153.2120  145.0581  159.3917 H   0  0  0  0  0  0  0  0  0  0  0  0
  154.0171  143.7588  158.5742 H   0  0  0  0  0  0  0  0  0  0  0  0
  1  2  1  0  0  0  0
  1 21  1  0  0  0  0
  1 22  1  0  0  0  0
  1 23  1  0  0  0  0
  2  3  2  0  0  0  0
  2  4  1  0  0  0  0
  4 20  1  0  0  0  0
  4  5  1  0  0  0  0
  5  6  1  0  0  0  0
  5 24  1  0  0  0  0
  5 25  1  0  0  0  0
  6  7  1  0  0  0  0
  6 26  1  0  0  0  0
  6 27  1  0  0  0  0
  7  8  1  0  0  0  0
  7 19  1  0  0  0  0
  7 28  1  0  0  0  0
  8  9  1  0  0  0  0
  8 29  1  0  0  0  0
  9 10  2  0  0  0  0
  9 11  1  0  0  0  0
 11 12  1  0  0  0  0
 11 30  1  0  0  0  0
 12 13  1  0  0  0  0
 12 31  1  0  0  0  0
 12 32  1  0  0  0  0
 13 14  1  0  0  0  0
 13 33  1  0  0  0  0
 13 34  1  0  0  0  0
 14 18  1  0  0  0  0
 14 15  1  0  0  0  0
 15 16  2  0  0  0  0
 15 35  1  0  0  0  0
 16 17  1  0  0  0  0
 16 36  1  0  0  0  0
 17 18  2  0  0  0  0
 18 37  1  0  0  0  0
 19 20  1  0  0  0  0
 19 38  1  0  0  0  0
 19 39  1  0  0  0  0
 20 40  1  0  0  0  0
 20 41  1  0  0  0  0
M  END
> <s_m_source_file>
AV-unprocessed.smi

> <i_m_source_file_index>
1133

> <i_lp_mmshare_version>
43012

> <i_f3d_flags>
0

> <s_epik_input>
W0NIM11DKD1PKU4xW0NIMl1bQ0gyXVtDSF0oW0NIMl1bQ0gyXTEpW05IXUMoPU8pW05IXVtDSDJdW0NIMl1uMltjSF1bY0hdbltjSF0y

> <s_epik_cmdline>
J2VwaWtfcHl0aG9uJywgJy1waCcsICc3LjAnLCAnLXRuJywgJzgnLCAnLW1hJywgJzIwMCcsICctbWV0YWxfYmluZGluZycsICctaW1hZScsICc8aW5maWxlLm1hZT4nLCAnLW9tYWUnLCAnPG91dGZpbGUubWFlPic=

> <r_lp_tautomer_probability>
1

> <r_epik_Ionization_Penalty>
0.622276

> <r_epik_Ionization_Penalty_Charging>
0.622222

> <r_epik_Ionization_Penalty_Neutral>
5.3634e-05

> <r_epik_State_Penalty>
0.638348

> <r_epik_Charging_Adjusted_Penalty>
1.26057

> <i_epik_Tot_Q>
0

> <i_epik_Tot_abs_Q>
0

> <r_epik_Metal_State_Penalty>
0.307013

> <b_epik_Metal_Only>
0

> <s_lp_Force_Field>
OPLS_2005

> <r_lp_Energy>
21.3303

> <b_lp_Chiralities_Consistent>
1

> <s_lp_Variant>
AV-unprocessed.smi:1133-2

> <Gold.Version>
5.8.1

> <Gold.Id.Protein>
6NUR|6NUR_protein|mol2

> <Gold.PLP.Fitness>
52.8531

> <Gold.PLP.PLP>
-39.2885

> <Gold.PLP.part.hbond>
-4.0000

> <Gold.PLP.part.metal>
0.0000

> <Gold.PLP.part.buried>
1.5516

> <Gold.PLP.part.nonpolar>
-36.5224

> <Gold.PLP.part.repulsive>
1.3201

> <Gold.PLP.ligand.clash>
0.0000

> <Gold.PLP.ligand.torsion>
0.3744

> <Gold.PLP.Chemscore.Hbond>
3.7603

> <Gold.PLP.Chemscore.CHOScore>
1.0017

> <Gold.PLP.Chemscore.Metal>
0.0000

> <Gold.Chemscore.Hbonds>
donor molecule, donor type, donor heavy atom, donor atom, acceptor molecule, acceptor atom, score
      L1  H     8    29       P1  8028  1.00
      L1  H    11    30       P1  8028  0.94
      P1  H  6933  6945       L1     3  0.93
      P1  H  7989  7998       L1    10  0.86
      L1  C    15    35       P1  7957  0.92
      L1  C    16    36       P1 10171  0.08

> <Gold.PLP.Chemscore.Internal.Correction>
0.0273

> <Gold.Rescore>
     Score         DG    S(hbond)    S(metal)    S(lipo)     H(rot)  DE(clash)    DE(int)     intcor
     18.79     -22.61       3.10        0.00     101.93       2.01       3.43       0.39       ----

> <Gold.Chemscore.Fitness>
18.7876

> <Gold.Chemscore.DG>
-22.6131

> <Gold.Chemscore.ZeroCoef>
-5.4800

> <Gold.Chemscore.Hbond>
3.1011

> <Gold.Chemscore.Metal>
0.0000

> <Gold.Chemscore.Lipo>
101.9305

> <Gold.Chemscore.Internal_Hbond>
0.0000

> <Gold.Chemscore.DEClash>
3.4309

> <Gold.Chemscore.DEInternal>
0.3946

> <Gold.Chemscore.Rot>
2.0119

> <Gold.Chemscore.Internal.Correction>
   9.000000E+99

> <Gold.Chemscore.Hbonds>
donor molecule, donor type, donor heavy atom, donor atom, acceptor molecule, acceptor atom, score
      L1  H     8    29       P1  8028  0.96
      L1  H    11    30       P1  8028  0.90
      P1  H  6933  6945       L1     3  0.89
      P1  H  7989  7998       L1    10  0.28

> <Gold.Chemscore.Hbond.Weighted>
-10.3575

> <Gold.Chemscore.Metal.Weighted>
-0.0000

> <Gold.Chemscore.Lipo.Weighted>
-11.9259

> <Gold.Chemscore.Internal_Hbond.Weighted>
0.0000

> <Gold.Chemscore.DEClash.Weighted>
3.4309

> <Gold.Chemscore.DEInternal.Weighted>
0.3946

> <Gold.Chemscore.Rot.Weighted>
5.1503

> <Gold.Chemscore.Internal.Correction.Weighted>
   9.000000E+99

> <Gold.Protein.RotatedTorsions>
[ 6907 6896 6895 6894 ] final  -98.39 input  -60.11 | X-H torsion
[ 7974 7965 7964 7962 ] final  -60.70 input  175.53 | X-H torsion
[ 8008 7997 7996 7995 ] final -174.19 input   59.86 | X-H torsion
[ 10167 10162 10161 10158 ] final    2.10 input  -65.29 | X-H torsion
[ 10718 10713 10712 10709 ] final  -83.83 input   66.30 | X-H torsion
[ 10763 10752 10751 10750 ] final  170.32 input  -60.55 | X-H torsion
[ 11005 11000 10999 10996 ] final -173.78 input  -57.11 | X-H torsion

> <Gold.Protein.ActiveResidues>
 VAL166  LYS551  ARG553  GLY616  TRP617  ASP618  TYR619  PRO620  LYS621  CYS622 
 ASP623  PHE694  ASN695  SER759  ASP760  ASP761  ALA762  ILE779  LEU786  VAL792 
 PHE793  MET794  SER795  GLU796  ALA797  LYS798  CYS799  TRP800  GLU811  SER814 

> <Gold.Protein.RotatedAtoms>
  150.7045  134.1202  159.4031 H   0  0  0  0  0  0  0  0  0  0  0  0  # atno 6907 bound_to 6896
  151.9189  135.0305  160.0530 H   0  0  0  0  0  0  0  0  0  0  0  0  # atno 6908 bound_to 6896
  152.2273  133.4995  159.5233 H   0  0  0  0  0  0  0  0  0  0  0  0  # atno 6909 bound_to 6896
  145.8123  140.8591  143.0175 H   0  0  0  0  0  0  0  0  0  0  0  0  # atno 7974 bound_to 7965
  155.9670  140.1155  157.0846 H   0  0  0  0  0  0  0  0  0  0  0  0  # atno 8008 bound_to 7997
  154.4146  140.1171  156.5322 H   0  0  0  0  0  0  0  0  0  0  0  0  # atno 8009 bound_to 7997
  155.6646  140.3473  155.4798 H   0  0  0  0  0  0  0  0  0  0  0  0  # atno 8010 bound_to 7997
  140.6651  143.7201  150.7812 H   0  0  0  0  0  0  0  0  0  0  0  0  # atno 10167 bound_to 10162
  156.0013  130.4678  150.4318 H   0  0  0  0  0  0  0  0  0  0  0  0  # atno 10718 bound_to 10713
  154.3959  135.2754  155.2126 H   0  0  0  0  0  0  0  0  0  0  0  0  # atno 10763 bound_to 10752
  154.4173  135.6008  153.5992 H   0  0  0  0  0  0  0  0  0  0  0  0  # atno 10764 bound_to 10752
  152.9831  135.5964  154.4220 H   0  0  0  0  0  0  0  0  0  0  0  0  # atno 10765 bound_to 10752
  140.4818  134.6068  157.4922 H   0  0  0  0  0  0  0  0  0  0  0  0  # atno 11005 bound_to 11000
  144.6756  140.0414  143.7481 LP  0  0  0  0  0  0  0  0  0  0  0  0  # atno 17320 bound_to 7965
  145.9764  139.2908  143.1068 LP  0  0  0  0  0  0  0  0  0  0  0  0  # atno 17321 bound_to 7965
  140.0876  143.4908  152.2496 LP  0  0  0  0  0  0  0  0  0  0  0  0  # atno 17342 bound_to 10162
  139.5897  144.7545  151.3431 LP  0  0  0  0  0  0  0  0  0  0  0  0  # atno 17343 bound_to 10162
  157.2366  131.0516  151.2461 LP  0  0  0  0  0  0  0  0  0  0  0  0  # atno 17370 bound_to 10713
  157.3660  130.7156  149.6533 LP  0  0  0  0  0  0  0  0  0  0  0  0  # atno 17371 bound_to 10713
  139.9822  134.7120  155.9839 LP  0  0  0  0  0  0  0  0  0  0  0  0  # atno 17394 bound_to 11000
  141.1527  133.6546  156.4064 LP  0  0  0  0  0  0  0  0  0  0  0  0  # atno 17395 bound_to 11000

$$$$
