AV-unprocessed.smi:21|AV-procd|sdf|150|dock2
  -GOLD-   2262015373D 1   1.00000     0.00000
 Structure written by MMmdl.
 62 65  0  0  0  0  0  0  0  0  2 V2000
  145.1151  136.4451  156.1330 C   0  0  0  0  0  0  0  0  0  0  0  0
  144.9576  137.1181  154.8939 O   0  0  0  0  0  0  0  0  0  0  0  0
  146.0514  136.9434  154.0025 C   0  0  2  0  0  0  0  0  0  0  0  0
  147.2335  137.7566  154.5124 C   0  0  0  0  0  0  0  0  0  0  0  0
  146.9305  139.1818  154.0351 C   0  0  1  0  0  0  0  0  0  0  0  0
  148.1696  140.1085  153.9694 C   0  0  0  0  0  0  0  0  0  0  0  0
  148.6608  140.4834  155.2975 N   0  0  0  0  0  0  0  0  0  0  0  0
  147.6831  140.7506  156.3449 C   0  0  0  0  0  0  0  0  0  0  0  0
  149.9578  140.2338  155.6319 C   0  0  0  0  0  0  0  0  0  0  0  0
  150.7341  139.5761  154.7303 N   0  0  0  0  0  0  0  0  0  0  0  0
  152.0126  139.3009  154.9998 C   0  0  0  0  0  0  0  0  0  0  0  0
  152.7102  139.5827  156.0998 N   0  0  0  0  0  0  0  0  0  0  0  0
  151.9433  140.2375  157.0164 C   0  0  0  0  0  0  0  0  0  0  0  0
  150.5727  140.6016  156.8684 C   0  0  0  0  0  0  0  0  0  0  0  0
  150.1387  141.2410  158.0259 N   0  0  0  0  0  0  0  0  0  0  0  0
  151.1867  141.2618  158.8020 C   0  0  0  0  0  0  0  0  0  0  0  0
  152.3166  140.6866  158.2711 N   0  0  0  0  0  0  0  0  0  0  0  0
  153.6128  140.5715  158.9173 C   0  0  0  0  0  0  0  0  0  0  0  0
  153.5299  140.5813  160.4636 C   0  0  1  0  0  0  0  0  0  0  0  0
  154.4952  139.5311  161.0615 C   0  0  0  0  0  0  0  0  0  0  0  0
  154.3512  138.2904  160.4019 O   0  0  0  0  0  0  0  0  0  0  0  0
  153.7149  142.0043  161.0622 C   0  0  1  0  0  0  0  0  0  0  0  0
  152.9570  143.1256  160.3496 C   0  0  0  0  0  0  0  0  0  0  0  0
  152.3111  143.9233  161.4837 C   0  0  0  0  0  0  0  0  0  0  0  0
  153.0527  143.5619  162.6379 O   0  0  0  0  0  0  0  0  0  0  0  0
  153.3151  142.1731  162.5326 C   0  0  0  0  0  0  0  0  0  0  0  0
  146.1669  139.0214  152.7634 N   0  3  1  0  0  0  0  0  0  0  0  0
  146.7826  139.5520  151.5237 C   0  0  0  0  0  0  0  0  0  0  0  0
  145.7662  137.5980  152.6457 C   0  0  0  0  0  0  0  0  0  0  0  0
  146.3136  135.8877  153.9129 H   0  0  0  0  0  0  0  0  0  0  0  0
  146.2177  139.6183  154.7363 H   0  0  0  0  0  0  0  0  0  0  0  0
  144.2373  136.6203  156.7550 H   0  0  0  0  0  0  0  0  0  0  0  0
  145.9862  136.8174  156.6734 H   0  0  0  0  0  0  0  0  0  0  0  0
  145.2207  135.3683  156.0007 H   0  0  0  0  0  0  0  0  0  0  0  0
  147.3605  137.6862  155.5935 H   0  0  0  0  0  0  0  0  0  0  0  0
  148.1508  137.3946  154.0456 H   0  0  0  0  0  0  0  0  0  0  0  0
  148.9566  139.6564  153.3667 H   0  0  0  0  0  0  0  0  0  0  0  0
  147.9042  141.0336  153.4573 H   0  0  0  0  0  0  0  0  0  0  0  0
  148.0785  141.4544  157.0782 H   0  0  0  0  0  0  0  0  0  0  0  0
  147.4024  139.8292  156.8556 H   0  0  0  0  0  0  0  0  0  0  0  0
  146.7786  141.1898  155.9235 H   0  0  0  0  0  0  0  0  0  0  0  0
  152.5540  138.7812  154.2230 H   0  0  0  0  0  0  0  0  0  0  0  0
  151.1660  141.7021  159.7886 H   0  0  0  0  0  0  0  0  0  0  0  0
  154.0732  139.6476  158.5659 H   0  0  0  0  0  0  0  0  0  0  0  0
  154.2532  141.3830  158.5701 H   0  0  0  0  0  0  0  0  0  0  0  0
  152.5177  140.2744  160.7326 H   0  0  0  0  0  0  0  0  0  0  0  0
  155.5324  139.8545  160.9731 H   0  0  0  0  0  0  0  0  0  0  0  0
  154.3042  139.3643  162.1205 H   0  0  0  0  0  0  0  0  0  0  0  0
  153.4800  138.2421  160.0385 H   0  0  0  0  0  0  0  0  0  0  0  0
  154.7673  142.2804  160.9903 H   0  0  0  0  0  0  0  0  0  0  0  0
  153.6571  143.7503  159.7933 H   0  0  0  0  0  0  0  0  0  0  0  0
  152.2098  142.7735  159.6390 H   0  0  0  0  0  0  0  0  0  0  0  0
  152.3380  144.9993  161.3103 H   0  0  0  0  0  0  0  0  0  0  0  0
  151.2702  143.6250  161.6185 H   0  0  0  0  0  0  0  0  0  0  0  0
  152.4071  141.6247  162.7830 H   0  0  0  0  0  0  0  0  0  0  0  0
  154.1007  141.8629  163.2212 H   0  0  0  0  0  0  0  0  0  0  0  0
  147.7418  139.0744  151.3198 H   0  0  0  0  0  0  0  0  0  0  0  0
  146.9314  140.6298  151.5842 H   0  0  0  0  0  0  0  0  0  0  0  0
  146.1275  139.3655  150.6721 H   0  0  0  0  0  0  0  0  0  0  0  0
  146.3811  137.1071  151.8894 H   0  0  0  0  0  0  0  0  0  0  0  0
  144.7284  137.5056  152.3264 H   0  0  0  0  0  0  0  0  0  0  0  0
  145.3142  139.5464  152.8965 H   0  0  0  0  0  0  0  0  0  0  0  0
  1  2  1  0  0  0  0
  1 32  1  0  0  0  0
  1 33  1  0  0  0  0
  1 34  1  0  0  0  0
  2  3  1  0  0  0  0
  3 30  1  0  0  0  0
  3 29  1  0  0  0  0
  3  4  1  0  0  0  0
  4  5  1  0  0  0  0
  4 35  1  0  0  0  0
  4 36  1  0  0  0  0
  5 31  1  0  0  0  0
  5  6  1  0  0  0  0
  5 27  1  0  0  0  0
  6  7  1  0  0  0  0
  6 37  1  0  0  0  0
  6 38  1  0  0  0  0
  7  8  1  0  0  0  0
  7  9  1  0  0  0  0
  8 39  1  0  0  0  0
  8 40  1  0  0  0  0
  8 41  1  0  0  0  0
  9 14  1  0  0  0  0
  9 10  2  0  0  0  0
 10 11  1  0  0  0  0
 11 12  2  0  0  0  0
 11 42  1  0  0  0  0
 12 13  1  0  0  0  0
 13 17  1  0  0  0  0
 13 14  2  0  0  0  0
 14 15  1  0  0  0  0
 15 16  2  0  0  0  0
 16 17  1  0  0  0  0
 16 43  1  0  0  0  0
 17 18  1  0  0  0  0
 18 19  1  0  0  0  0
 18 44  1  0  0  0  0
 18 45  1  0  0  0  0
 19 20  1  0  0  0  0
 19 22  1  0  0  0  0
 19 46  1  0  0  0  0
 20 21  1  0  0  0  0
 20 47  1  0  0  0  0
 20 48  1  0  0  0  0
 21 49  1  0  0  0  0
 22 26  1  0  0  0  0
 22 23  1  0  0  0  0
 22 50  1  0  0  0  0
 23 24  1  0  0  0  0
 23 51  1  0  0  0  0
 23 52  1  0  0  0  0
 24 25  1  0  0  0  0
 24 53  1  0  0  0  0
 24 54  1  0  0  0  0
 25 26  1  0  0  0  0
 26 55  1  0  0  0  0
 26 56  1  0  0  0  0
 27 28  1  0  0  0  0
 27 29  1  0  0  0  0
 27 62  1  0  0  0  0
 28 57  1  0  0  0  0
 28 58  1  0  0  0  0
 28 59  1  0  0  0  0
 29 60  1  0  0  0  0
 29 61  1  0  0  0  0
M  CHG  1  27   1
M  END
> <s_m_source_file>
AV-unprocessed.smi

> <i_m_source_file_index>
21

> <i_lp_mmshare_version>
43012

> <i_f3d_flags>
0

> <s_epik_input>
W0NIM11PW0NASF0xW0NIMl1bQ0BIXShOKFtDSDNdKVtDSDJdMSlbQ0gyXU4oW0NIM10pYyhuW2NIXW4yKWMoYzIzKW5bY0hdbjNbQ0gyXVtDQEhdKFtDSDJdW09IXSlbQ0BASF00W0NIMl1bQ0gyXU9bQ0gyXTQ=

> <s_epik_cmdline>
J2VwaWtfcHl0aG9uJywgJy1waCcsICc3LjAnLCAnLXRuJywgJzgnLCAnLW1hJywgJzIwMCcsICctbWV0YWxfYmluZGluZycsICctaW1hZScsICc8aW5maWxlLm1hZT4nLCAnLW9tYWUnLCAnPG91dGZpbGUubWFlPic=

> <r_lp_tautomer_probability>
1

> <r_epik_Ionization_Penalty>
0.0157465

> <r_epik_Ionization_Penalty_Charging>
0.015354

> <r_epik_Ionization_Penalty_Neutral>
0.000392529

> <r_epik_State_Penalty>
0.0120612

> <r_epik_Charging_Adjusted_Penalty>
0.0274152

> <i_epik_Tot_Q>
1

> <i_epik_Tot_abs_Q>
1

> <r_epik_Metal_State_Penalty>
0.0121253

> <b_epik_Metal_Only>
0

> <s_lp_Force_Field>
OPLS_2005

> <r_lp_Energy>
62.4591

> <b_lp_Chiralities_Consistent>
1

> <s_lp_Variant>
AV-unprocessed.smi:21-30

> <Gold.Version>
5.8.1

> <Gold.Id.Protein>
6NUR|6NUR_protein|mol2

> <Gold.PLP.Fitness>
52.5297

> <Gold.PLP.PLP>
-45.6347

> <Gold.PLP.part.hbond>
-3.0000

> <Gold.PLP.part.metal>
0.0000

> <Gold.PLP.part.buried>
-0.3911

> <Gold.PLP.part.nonpolar>
-41.0681

> <Gold.PLP.part.repulsive>
0.3601

> <Gold.PLP.ligand.clash>
0.0000

> <Gold.PLP.ligand.torsion>
1.4628

> <Gold.PLP.Chemscore.Hbond>
3.0000

> <Gold.PLP.Chemscore.CHOScore>
0.0000

> <Gold.PLP.Chemscore.Metal>
0.0000

> <Gold.Chemscore.Hbonds>
donor molecule, donor type, donor heavy atom, donor atom, acceptor molecule, acceptor atom, score
      L1  H    27    62       P1 10175  2.00
      P1  H  7997  8009       L1    12  1.00

> <Gold.PLP.Chemscore.Internal.Correction>
0.8205

> <Gold.Rescore>
     Score         DG    S(hbond)    S(metal)    S(lipo)     H(rot)  DE(clash)    DE(int)     intcor
     13.08     -15.57       1.69        0.00     105.28       3.08       0.18       2.31       ----

> <Gold.Chemscore.Fitness>
13.0844

> <Gold.Chemscore.DG>
-15.5706

> <Gold.Chemscore.ZeroCoef>
-5.4800

> <Gold.Chemscore.Hbond>
1.6908

> <Gold.Chemscore.Metal>
0.0000

> <Gold.Chemscore.Lipo>
105.2783

> <Gold.Chemscore.Internal_Hbond>
0.0000

> <Gold.Chemscore.DEClash>
0.1768

> <Gold.Chemscore.DEInternal>
2.3094

> <Gold.Chemscore.Rot>
3.0758

> <Gold.Chemscore.Internal.Correction>
   9.000000E+99

> <Gold.Chemscore.Hbonds>
donor molecule, donor type, donor heavy atom, donor atom, acceptor molecule, acceptor atom, score
      L1  H    27    62       P1 10175  0.99
      P1  H  7997  8009       L1    12  0.65

> <Gold.Chemscore.Hbond.Weighted>
-5.6472

> <Gold.Chemscore.Metal.Weighted>
-0.0000

> <Gold.Chemscore.Lipo.Weighted>
-12.3176

> <Gold.Chemscore.Internal_Hbond.Weighted>
0.0000

> <Gold.Chemscore.DEClash.Weighted>
0.1768

> <Gold.Chemscore.DEInternal.Weighted>
2.3094

> <Gold.Chemscore.Rot.Weighted>
7.8741

> <Gold.Chemscore.Internal.Correction.Weighted>
   9.000000E+99

> <Gold.Protein.RotatedTorsions>
[ 6907 6896 6895 6894 ] final  147.69 input  -60.11 | X-H torsion
[ 7974 7965 7964 7962 ] final -160.60 input  175.53 | X-H torsion
[ 8008 7997 7996 7995 ] final -157.49 input   59.86 | X-H torsion
[ 10167 10162 10161 10158 ] final   71.94 input  -65.29 | X-H torsion
[ 10718 10713 10712 10709 ] final  -33.34 input   66.30 | X-H torsion
[ 10763 10752 10751 10750 ] final  152.17 input  -60.55 | X-H torsion
[ 11005 11000 10999 10996 ] final  -33.86 input  -57.11 | X-H torsion

> <Gold.Protein.ActiveResidues>
 VAL166  LYS551  ARG553  GLY616  TRP617  ASP618  TYR619  PRO620  LYS621  CYS622 
 ASP623  PHE694  ASN695  SER759  ASP760  ASP761  ALA762  ILE779  LEU786  VAL792 
 PHE793  MET794  SER795  GLU796  ALA797  LYS798  CYS799  TRP800  GLU811  SER814 

> <Gold.Protein.RotatedAtoms>
  152.1514  133.4524  159.4815 H   0  0  0  0  0  0  0  0  0  0  0  0  # atno 6907 bound_to 6896
  150.6896  134.2184  159.4396 H   0  0  0  0  0  0  0  0  0  0  0  0  # atno 6908 bound_to 6896
  152.0081  134.9891  160.0618 H   0  0  0  0  0  0  0  0  0  0  0  0  # atno 6909 bound_to 6896
  144.7421  140.3518  143.6114 H   0  0  0  0  0  0  0  0  0  0  0  0  # atno 7974 bound_to 7965
  155.7332  140.0804  157.2279 H   0  0  0  0  0  0  0  0  0  0  0  0  # atno 8008 bound_to 7997
  154.4030  140.1591  156.2587 H   0  0  0  0  0  0  0  0  0  0  0  0  # atno 8009 bound_to 7997
  155.9089  140.3405  155.6086 H   0  0  0  0  0  0  0  0  0  0  0  0  # atno 8010 bound_to 7997
  140.0407  144.5392  150.7436 H   0  0  0  0  0  0  0  0  0  0  0  0  # atno 10167 bound_to 10162
  156.3638  130.4328  149.7602 H   0  0  0  0  0  0  0  0  0  0  0  0  # atno 10718 bound_to 10713
  154.1157  135.2836  155.3220 H   0  0  0  0  0  0  0  0  0  0  0  0  # atno 10763 bound_to 10752
  154.6459  135.5386  153.7847 H   0  0  0  0  0  0  0  0  0  0  0  0  # atno 10764 bound_to 10752
  153.0330  135.6498  154.1313 H   0  0  0  0  0  0  0  0  0  0  0  0  # atno 10765 bound_to 10752
  140.9669  133.7132  156.1460 H   0  0  0  0  0  0  0  0  0  0  0  0  # atno 11005 bound_to 11000
  145.7268  139.1725  143.2453 LP  0  0  0  0  0  0  0  0  0  0  0  0  # atno 17320 bound_to 7965
  146.1236  140.7277  142.9446 LP  0  0  0  0  0  0  0  0  0  0  0  0  # atno 17321 bound_to 7965
  140.7261  143.2638  151.4114 LP  0  0  0  0  0  0  0  0  0  0  0  0  # atno 17342 bound_to 10162
  139.6016  144.1284  152.2204 LP  0  0  0  0  0  0  0  0  0  0  0  0  # atno 17343 bound_to 10162
  156.4755  130.8017  151.3033 LP  0  0  0  0  0  0  0  0  0  0  0  0  # atno 17370 bound_to 10713
  157.7476  131.0022  150.2992 LP  0  0  0  0  0  0  0  0  0  0  0  0  # atno 17371 bound_to 10713
  140.7386  134.4175  157.5557 LP  0  0  0  0  0  0  0  0  0  0  0  0  # atno 17394 bound_to 11000
  139.8898  134.8821  156.2404 LP  0  0  0  0  0  0  0  0  0  0  0  0  # atno 17395 bound_to 11000

$$$$
