AV-unprocessed.smi:1707|AV-procd|sdf|6887|dock2
  -GOLD-   22720 8 93D 1   1.00000     0.00000
 Structure written by MMmdl.
 41 42  0  0  0  0  0  0  0  0  1 V2000
  145.1239  136.1373  155.5138 O   0  0  0  0  0  0  0  0  0  0  0  0
  144.3295  135.2048  155.6315 C   0  0  0  0  0  0  0  0  0  0  0  0
  143.8493  134.7958  156.8147 N   0  0  0  0  0  0  0  0  0  0  0  0
  144.1922  135.3830  158.1047 C   0  0  0  0  0  0  0  0  0  0  0  0
  145.6946  135.2435  158.4059 C   0  0  0  0  0  0  0  0  0  0  0  0
  146.0178  135.4122  159.8809 C   0  0  0  0  0  0  0  0  0  0  0  0
  145.6568  136.5126  160.5695 C   0  0  0  0  0  0  0  0  0  0  0  0
  145.9634  136.7376  162.0399 C   0  0  0  0  0  0  0  0  0  0  0  0
  147.0167  135.7539  162.5763 C   0  0  0  0  0  0  0  0  0  0  0  0
  146.7485  134.3293  162.0759 C   0  0  0  0  0  0  0  0  0  0  0  0
  146.7725  134.2619  160.5382 C   0  0  0  0  0  0  0  0  0  0  0  0
  143.8364  134.4535  154.6296 N   0  0  0  0  0  0  0  0  0  0  0  0
  144.0636  134.5406  153.2449 C   0  0  0  0  0  0  0  0  0  0  0  0
  144.2547  133.4820  152.4140 C   0  0  0  0  0  0  0  0  0  0  0  0
  144.4949  133.6513  150.9906 C   0  0  0  0  0  0  0  0  0  0  0  0
  144.6302  132.4552  150.0612 C   0  0  0  0  0  0  0  0  0  0  0  0
  144.3568  131.3137  150.6946 F   0  0  0  0  0  0  0  0  0  0  0  0
  143.7832  132.5773  149.0401 F   0  0  0  0  0  0  0  0  0  0  0  0
  145.8657  132.3738  149.5669 F   0  0  0  0  0  0  0  0  0  0  0  0
  144.5090  134.9157  150.5301 C   0  0  0  0  0  0  0  0  0  0  0  0
  144.3320  136.0097  151.3796 N   0  0  0  0  0  0  0  0  0  0  0  0
  144.1102  135.9115  152.7095 C   0  0  0  0  0  0  0  0  0  0  0  0
  143.9625  136.9260  153.3902 O   0  0  0  0  0  0  0  0  0  0  0  0
  144.3709  136.9276  150.9604 H   0  0  0  0  0  0  0  0  0  0  0  0
  143.2021  134.0210  156.8252 H   0  0  0  0  0  0  0  0  0  0  0  0
  143.8832  136.4291  158.1264 H   0  0  0  0  0  0  0  0  0  0  0  0
  143.6120  134.8715  158.8733 H   0  0  0  0  0  0  0  0  0  0  0  0
  146.0424  134.2658  158.0687 H   0  0  0  0  0  0  0  0  0  0  0  0
  146.2661  135.9822  157.8426 H   0  0  0  0  0  0  0  0  0  0  0  0
  145.1048  137.2988  160.0754 H   0  0  0  0  0  0  0  0  0  0  0  0
  146.3053  137.7626  162.1837 H   0  0  0  0  0  0  0  0  0  0  0  0
  145.0322  136.6325  162.5974 H   0  0  0  0  0  0  0  0  0  0  0  0
  148.0088  136.0668  162.2480 H   0  0  0  0  0  0  0  0  0  0  0  0
  147.0296  135.7788  163.6662 H   0  0  0  0  0  0  0  0  0  0  0  0
  147.4825  133.6371  162.4894 H   0  0  0  0  0  0  0  0  0  0  0  0
  145.7745  134.0000  162.4395 H   0  0  0  0  0  0  0  0  0  0  0  0
  146.3494  133.3123  160.2095 H   0  0  0  0  0  0  0  0  0  0  0  0
  147.8043  134.2864  160.1873 H   0  0  0  0  0  0  0  0  0  0  0  0
  143.2290  133.6943  154.9025 H   0  0  0  0  0  0  0  0  0  0  0  0
  144.2523  132.4711  152.7855 H   0  0  0  0  0  0  0  0  0  0  0  0
  144.6485  135.1852  149.4935 H   0  0  0  0  0  0  0  0  0  0  0  0
  1  2  2  0  0  0  0
  2  3  1  0  0  0  0
  2 12  1  0  0  0  0
  3  4  1  0  0  0  0
  3 25  1  0  0  0  0
  4  5  1  0  0  0  0
  4 26  1  0  0  0  0
  4 27  1  0  0  0  0
  5  6  1  0  0  0  0
  5 28  1  0  0  0  0
  5 29  1  0  0  0  0
  6 11  1  0  0  0  0
  6  7  2  0  0  0  0
  7  8  1  0  0  0  0
  7 30  1  0  0  0  0
  8  9  1  0  0  0  0
  8 31  1  0  0  0  0
  8 32  1  0  0  0  0
  9 10  1  0  0  0  0
  9 33  1  0  0  0  0
  9 34  1  0  0  0  0
 10 11  1  0  0  0  0
 10 35  1  0  0  0  0
 10 36  1  0  0  0  0
 11 37  1  0  0  0  0
 11 38  1  0  0  0  0
 12 13  1  0  0  0  0
 12 39  1  0  0  0  0
 13 22  1  0  0  0  0
 13 14  2  0  0  0  0
 14 15  1  0  0  0  0
 14 40  1  0  0  0  0
 15 16  1  0  0  0  0
 15 20  2  0  0  0  0
 16 17  1  0  0  0  0
 16 18  1  0  0  0  0
 16 19  1  0  0  0  0
 20 21  1  0  0  0  0
 20 41  1  0  0  0  0
 21 24  1  0  0  0  0
 21 22  1  0  0  0  0
 22 23  2  0  0  0  0
M  END
> <s_m_source_file>
AV-unprocessed.smi

> <i_m_source_file_index>
1707

> <i_lp_mmshare_version>
43012

> <i_f3d_flags>
0

> <s_epik_input>
Tz1jMVtuSF1bY0hdYyhDKEYpKEYpRilbY0hdYzFbTkhdQyg9TylbTkhdW0NIMl1bQ0gyXUMyPVtDSF1bQ0gyXVtDSDJdW0NIMl1bQ0gyXTI=

> <s_epik_cmdline>
J2VwaWtfcHl0aG9uJywgJy1waCcsICc3LjAnLCAnLXRuJywgJzgnLCAnLW1hJywgJzIwMCcsICctbWV0YWxfYmluZGluZycsICctaW1hZScsICc8aW5maWxlLm1hZT4nLCAnLW9tYWUnLCAnPG91dGZpbGUubWFlPic=

> <r_lp_tautomer_probability>
1

> <r_epik_Ionization_Penalty>
0.00382222

> <r_epik_Ionization_Penalty_Charging>
0.0038016

> <r_epik_Ionization_Penalty_Neutral>
2.06242e-05

> <r_epik_State_Penalty>
-0

> <r_epik_Charging_Adjusted_Penalty>
0.0038016

> <i_epik_Tot_Q>
0

> <i_epik_Tot_abs_Q>
0

> <r_epik_Metal_State_Penalty>
0.371215

> <b_epik_Metal_Only>
0

> <s_lp_Force_Field>
OPLS_2005

> <r_lp_Energy>
19.0753

> <b_lp_Chiralities_Consistent>
1

> <s_lp_Variant>
AV-unprocessed.smi:1707-1

> <Gold.Version>
5.8.1

> <Gold.Id.Protein>
6NUR|6NUR_protein|mol2

> <Gold.PLP.Fitness>
42.7051

> <Gold.PLP.PLP>
-35.4133

> <Gold.PLP.part.hbond>
-2.0000

> <Gold.PLP.part.metal>
0.0000

> <Gold.PLP.part.buried>
-5.3869

> <Gold.PLP.part.nonpolar>
-29.1910

> <Gold.PLP.part.repulsive>
0.1628

> <Gold.PLP.ligand.clash>
0.0000

> <Gold.PLP.ligand.torsion>
0.6485

> <Gold.PLP.Chemscore.Hbond>
1.8450

> <Gold.PLP.Chemscore.CHOScore>
1.0000

> <Gold.PLP.Chemscore.Metal>
0.0000

> <Gold.Chemscore.Hbonds>
donor molecule, donor type, donor heavy atom, donor atom, acceptor molecule, acceptor atom, score
      L1  H    12    39       P1 10957  1.00
      L1  H    21    24       P1 10171  0.89
      L1  C    20    41       P1  7921  1.00

> <Gold.PLP.Chemscore.Internal.Correction>
0.0538

> <Gold.Rescore>
     Score         DG    S(hbond)    S(metal)    S(lipo)     H(rot)  DE(clash)    DE(int)     intcor
     10.50     -15.51       1.91        0.00      65.51       1.57       0.06       4.94       ----

> <Gold.Chemscore.Fitness>
10.5028

> <Gold.Chemscore.DG>
-15.5064

> <Gold.Chemscore.ZeroCoef>
-5.4800

> <Gold.Chemscore.Hbond>
1.9117

> <Gold.Chemscore.Metal>
0.0000

> <Gold.Chemscore.Lipo>
65.5130

> <Gold.Chemscore.Internal_Hbond>
0.0000

> <Gold.Chemscore.DEClash>
0.0607

> <Gold.Chemscore.DEInternal>
4.9429

> <Gold.Chemscore.Rot>
1.5717

> <Gold.Chemscore.Internal.Correction>
   9.000000E+99

> <Gold.Chemscore.Hbonds>
donor molecule, donor type, donor heavy atom, donor atom, acceptor molecule, acceptor atom, score
      L1  H    12    39       P1 10957  0.91
      L1  H    21    24       P1 10171  0.85

> <Gold.Chemscore.Hbond.Weighted>
-6.3850

> <Gold.Chemscore.Metal.Weighted>
-0.0000

> <Gold.Chemscore.Lipo.Weighted>
-7.6650

> <Gold.Chemscore.Internal_Hbond.Weighted>
0.0000

> <Gold.Chemscore.DEClash.Weighted>
0.0607

> <Gold.Chemscore.DEInternal.Weighted>
4.9429

> <Gold.Chemscore.Rot.Weighted>
4.0237

> <Gold.Chemscore.Internal.Correction.Weighted>
   9.000000E+99

> <Gold.Protein.RotatedTorsions>
[ 6907 6896 6895 6894 ] final -121.53 input  -60.11 | X-H torsion
[ 7974 7965 7964 7962 ] final  -12.15 input  175.53 | X-H torsion
[ 8008 7997 7996 7995 ] final -132.18 input   59.86 | X-H torsion
[ 10167 10162 10161 10158 ] final  145.78 input  -65.29 | X-H torsion
[ 10718 10713 10712 10709 ] final   -9.71 input   66.30 | X-H torsion
[ 10763 10752 10751 10750 ] final  -93.64 input  -60.55 | X-H torsion
[ 11005 11000 10999 10996 ] final -172.39 input  -57.11 | X-H torsion

> <Gold.Protein.ActiveResidues>
 VAL166  LYS551  ARG553  GLY616  TRP617  ASP618  TYR619  PRO620  LYS621  CYS622 
 ASP623  PHE694  ASN695  SER759  ASP760  ASP761  ALA762  ILE779  LEU786  VAL792 
 PHE793  MET794  SER795  GLU796  ALA797  LYS798  CYS799  TRP800  GLU811  SER814 

> <Gold.Protein.RotatedAtoms>
  150.8491  133.7814  159.3031 H   0  0  0  0  0  0  0  0  0  0  0  0  # atno 6907 bound_to 6896
  151.5492  135.1066  159.9955 H   0  0  0  0  0  0  0  0  0  0  0  0  # atno 6908 bound_to 6896
  152.4538  133.7639  159.6818 H   0  0  0  0  0  0  0  0  0  0  0  0  # atno 6909 bound_to 6896
  146.2162  140.3015  142.8375 H   0  0  0  0  0  0  0  0  0  0  0  0  # atno 7974 bound_to 7965
  155.3247  140.0464  157.3040 H   0  0  0  0  0  0  0  0  0  0  0  0  # atno 8008 bound_to 7997
  154.5361  140.2273  155.8686 H   0  0  0  0  0  0  0  0  0  0  0  0  # atno 8009 bound_to 7997
  156.1836  140.3068  155.9202 H   0  0  0  0  0  0  0  0  0  0  0  0  # atno 8010 bound_to 7997
  139.4919  144.5877  151.6744 H   0  0  0  0  0  0  0  0  0  0  0  0  # atno 10167 bound_to 10162
  156.6840  130.5045  149.5963 H   0  0  0  0  0  0  0  0  0  0  0  0  # atno 10718 bound_to 10713
  154.6979  135.5187  153.8484 H   0  0  0  0  0  0  0  0  0  0  0  0  # atno 10763 bound_to 10752
  153.0681  135.6592  154.0318 H   0  0  0  0  0  0  0  0  0  0  0  0  # atno 10764 bound_to 10752
  154.0181  135.2996  155.3364 H   0  0  0  0  0  0  0  0  0  0  0  0  # atno 10765 bound_to 10752
  140.4975  134.5925  157.4976 H   0  0  0  0  0  0  0  0  0  0  0  0  # atno 11005 bound_to 11000
  144.9053  140.7693  143.5841 LP  0  0  0  0  0  0  0  0  0  0  0  0  # atno 17320 bound_to 7965
  145.2943  139.1872  143.4723 LP  0  0  0  0  0  0  0  0  0  0  0  0  # atno 17321 bound_to 7965
  140.5497  144.0445  150.6122 LP  0  0  0  0  0  0  0  0  0  0  0  0  # atno 17342 bound_to 10162
  140.3495  143.2971  152.0502 LP  0  0  0  0  0  0  0  0  0  0  0  0  # atno 17343 bound_to 10162
  156.1846  130.6521  151.0991 LP  0  0  0  0  0  0  0  0  0  0  0  0  # atno 17370 bound_to 10713
  157.7033  131.0767  150.6750 LP  0  0  0  0  0  0  0  0  0  0  0  0  # atno 17371 bound_to 10713
  139.9732  134.7258  156.0000 LP  0  0  0  0  0  0  0  0  0  0  0  0  # atno 17394 bound_to 11000
  141.1452  133.6557  156.3847 LP  0  0  0  0  0  0  0  0  0  0  0  0  # atno 17395 bound_to 11000

$$$$
