AV-unprocessed.smi:1289|AV-procd|sdf|5388|dock9
  -GOLD-   22720 4543D 1   1.00000     0.00000
 Structure written by MMmdl.
 38 40  0  0  0  0  0  0  0  0  2 V2000
  144.5239  143.7190  154.2991 N   0  0  0  0  0  0  0  0  0  0  0  0
  145.3643  142.9354  154.4349 C   0  0  0  0  0  0  0  0  0  0  0  0
  146.4202  141.9514  154.6054 C   0  0  0  0  0  0  0  0  0  0  0  0
  146.2785  140.9180  155.5521 C   0  0  0  0  0  0  0  0  0  0  0  0
  147.3059  139.9695  155.7190 C   0  0  0  0  0  0  0  0  0  0  0  0
  148.4843  140.0366  154.9478 C   0  0  0  0  0  0  0  0  0  0  0  0
  149.4406  139.0719  155.1820 O   0  0  0  0  0  0  0  0  0  0  0  0
  150.6609  139.1435  154.4564 C   0  0  0  0  0  0  0  0  0  0  0  0
  151.8347  139.0040  155.4371 C   0  0  1  0  0  0  0  0  0  0  0  0
  152.9144  139.7773  154.9520 O   0  0  0  0  0  0  0  0  0  0  0  0
  151.4587  139.4508  156.8643 C   0  0  0  0  0  0  0  0  0  0  0  0
  151.2830  140.9053  156.9823 N   0  0  0  0  0  0  0  0  0  0  0  0
  150.6124  141.7666  156.1703 C   0  0  0  0  0  0  0  0  0  0  0  0
  150.7422  143.0157  156.6974 N   0  3  0  0  0  0  0  0  0  0  0  0
  151.5057  142.9522  157.8649 C   0  0  0  0  0  0  0  0  0  0  0  0
  151.9061  143.9514  158.7467 C   0  0  0  0  0  0  0  0  0  0  0  0
  152.6825  143.5463  159.8523 C   0  0  0  0  0  0  0  0  0  0  0  0
  153.0310  142.1943  160.0491 C   0  0  0  0  0  0  0  0  0  0  0  0
  152.6204  141.1899  159.1481 C   0  0  0  0  0  0  0  0  0  0  0  0
  151.8551  141.5983  158.0560 C   0  0  0  0  0  0  0  0  0  0  0  0
  148.6167  141.0761  153.9924 C   0  0  0  0  0  0  0  0  0  0  0  0
  147.5910  142.0272  153.8255 C   0  0  0  0  0  0  0  0  0  0  0  0
  145.3849  140.8475  156.1556 H   0  0  0  0  0  0  0  0  0  0  0  0
  147.1885  139.1823  156.4492 H   0  0  0  0  0  0  0  0  0  0  0  0
  150.6903  138.3341  153.7248 H   0  0  0  0  0  0  0  0  0  0  0  0
  150.7404  140.0895  153.9179 H   0  0  0  0  0  0  0  0  0  0  0  0
  152.1627  137.9640  155.4568 H   0  0  0  0  0  0  0  0  0  0  0  0
  152.6210  140.2602  154.1942 H   0  0  0  0  0  0  0  0  0  0  0  0
  150.5556  138.9490  157.2122 H   0  0  0  0  0  0  0  0  0  0  0  0
  152.2485  139.1687  157.5612 H   0  0  0  0  0  0  0  0  0  0  0  0
  150.0753  141.5064  155.2696 H   0  0  0  0  0  0  0  0  0  0  0  0
  151.6389  144.9876  158.5998 H   0  0  0  0  0  0  0  0  0  0  0  0
  153.0158  144.2869  160.5648 H   0  0  0  0  0  0  0  0  0  0  0  0
  153.6242  141.9211  160.9097 H   0  0  0  0  0  0  0  0  0  0  0  0
  152.8880  140.1566  159.3126 H   0  0  0  0  0  0  0  0  0  0  0  0
  149.4968  141.1682  153.3746 H   0  0  0  0  0  0  0  0  0  0  0  0
  147.7106  142.8149  153.0954 H   0  0  0  0  0  0  0  0  0  0  0  0
  150.3379  143.8482  156.2881 H   0  0  0  0  0  0  0  0  0  0  0  0
  1  2  3  0  0  0  0
  2  3  1  0  0  0  0
  3 22  1  0  0  0  0
  3  4  2  0  0  0  0
  4  5  1  0  0  0  0
  4 23  1  0  0  0  0
  5  6  2  0  0  0  0
  5 24  1  0  0  0  0
  6  7  1  0  0  0  0
  6 21  1  0  0  0  0
  7  8  1  0  0  0  0
  8  9  1  0  0  0  0
  8 25  1  0  0  0  0
  8 26  1  0  0  0  0
  9 10  1  0  0  0  0
  9 11  1  0  0  0  0
  9 27  1  0  0  0  0
 10 28  1  0  0  0  0
 11 12  1  0  0  0  0
 11 29  1  0  0  0  0
 11 30  1  0  0  0  0
 12 20  1  0  0  0  0
 12 13  1  0  0  0  0
 13 14  2  0  0  0  0
 13 31  1  0  0  0  0
 14 15  1  0  0  0  0
 14 38  1  0  0  0  0
 15 20  2  0  0  0  0
 15 16  1  0  0  0  0
 16 17  2  0  0  0  0
 16 32  1  0  0  0  0
 17 18  1  0  0  0  0
 17 33  1  0  0  0  0
 18 19  2  0  0  0  0
 18 34  1  0  0  0  0
 19 20  1  0  0  0  0
 19 35  1  0  0  0  0
 21 22  2  0  0  0  0
 21 36  1  0  0  0  0
 22 37  1  0  0  0  0
M  CHG  1  14   1
M  END
> <s_m_source_file>
AV-unprocessed.smi

> <i_m_source_file_index>
1289

> <i_lp_mmshare_version>
43012

> <i_f3d_flags>
0

> <s_epik_input>
TiNDYzFbY0hdW2NIXWMoW2NIXVtjSF0xKU9bQ0gyXVtDQEhdKFtPSF0pW0NIMl1uKFtjSF1uMiljKGMyMylbY0hdW2NIXVtjSF1bY0hdMw==

> <s_epik_cmdline>
J2VwaWtfcHl0aG9uJywgJy1waCcsICc3LjAnLCAnLXRuJywgJzgnLCAnLW1hJywgJzIwMCcsICctbWV0YWxfYmluZGluZycsICctaW1hZScsICc8aW5maWxlLm1hZT4nLCAnLW9tYWUnLCAnPG91dGZpbGUubWFlPic=

> <r_epik_Ionization_Penalty>
1.39523

> <r_epik_Ionization_Penalty_Charging>
1.39523

> <r_epik_Ionization_Penalty_Neutral>
2.3993e-06

> <r_epik_State_Penalty>
1.47691

> <r_epik_Charging_Adjusted_Penalty>
2.87215

> <i_epik_Tot_Q>
1

> <i_epik_Tot_abs_Q>
1

> <r_epik_Metal_State_Penalty>
5.51858

> <b_epik_Metal_Only>
0

> <s_lp_Force_Field>
OPLS_2005

> <r_lp_Energy>
20.386

> <b_lp_Chiralities_Consistent>
1

> <s_lp_Variant>
AV-unprocessed.smi:1289-4

> <Gold.Version>
5.8.1

> <Gold.Id.Protein>
6NUR|6NUR_protein|mol2

> <Gold.PLP.Fitness>
54.1670

> <Gold.PLP.PLP>
-47.2378

> <Gold.PLP.part.hbond>
-3.0000

> <Gold.PLP.part.metal>
0.0000

> <Gold.PLP.part.buried>
-6.8635

> <Gold.PLP.part.nonpolar>
-39.0678

> <Gold.PLP.part.repulsive>
0.2972

> <Gold.PLP.ligand.clash>
0.0000

> <Gold.PLP.ligand.torsion>
1.0309

> <Gold.PLP.Chemscore.Hbond>
2.9840

> <Gold.PLP.Chemscore.CHOScore>
0.0000

> <Gold.PLP.Chemscore.Metal>
0.0000

> <Gold.Chemscore.Hbonds>
donor molecule, donor type, donor heavy atom, donor atom, acceptor molecule, acceptor atom, score
      L1  H    14    38       P1  8028  2.00
      P1  H  7997  8010       L1    10  1.00

> <Gold.PLP.Chemscore.Internal.Correction>
0.0390

> <Gold.Rescore>
     Score         DG    S(hbond)    S(metal)    S(lipo)     H(rot)  DE(clash)    DE(int)     intcor
     17.61     -18.46       1.91        0.00     112.81       2.58       0.01       0.84       ----

> <Gold.Chemscore.Fitness>
17.6115

> <Gold.Chemscore.DG>
-18.4645

> <Gold.Chemscore.ZeroCoef>
-5.4800

> <Gold.Chemscore.Hbond>
1.9131

> <Gold.Chemscore.Metal>
0.0000

> <Gold.Chemscore.Lipo>
112.8133

> <Gold.Chemscore.Internal_Hbond>
0.0000

> <Gold.Chemscore.DEClash>
0.0126

> <Gold.Chemscore.DEInternal>
0.8403

> <Gold.Chemscore.Rot>
2.5798

> <Gold.Chemscore.Internal.Correction>
   9.000000E+99

> <Gold.Chemscore.Hbonds>
donor molecule, donor type, donor heavy atom, donor atom, acceptor molecule, acceptor atom, score
      L1  H    14    38       P1  8028  0.94
      P1  H  7997  8010       L1    10  0.98

> <Gold.Chemscore.Hbond.Weighted>
-6.3896

> <Gold.Chemscore.Metal.Weighted>
-0.0000

> <Gold.Chemscore.Lipo.Weighted>
-13.1992

> <Gold.Chemscore.Internal_Hbond.Weighted>
0.0000

> <Gold.Chemscore.DEClash.Weighted>
0.0126

> <Gold.Chemscore.DEInternal.Weighted>
0.8403

> <Gold.Chemscore.Rot.Weighted>
6.6043

> <Gold.Chemscore.Internal.Correction.Weighted>
   9.000000E+99

> <Gold.Protein.RotatedTorsions>
[ 6907 6896 6895 6894 ] final  -49.92 input  -60.11 | X-H torsion
[ 7974 7965 7964 7962 ] final   87.92 input  175.53 | X-H torsion
[ 8008 7997 7996 7995 ] final  108.72 input   59.86 | X-H torsion
[ 10167 10162 10161 10158 ] final   95.99 input  -65.29 | X-H torsion
[ 10718 10713 10712 10709 ] final   70.72 input   66.30 | X-H torsion
[ 10763 10752 10751 10750 ] final -172.82 input  -60.55 | X-H torsion
[ 11005 11000 10999 10996 ] final   51.59 input  -57.11 | X-H torsion

> <Gold.Protein.ActiveResidues>
 VAL166  LYS551  ARG553  GLY616  TRP617  ASP618  TYR619  PRO620  LYS621  CYS622 
 ASP623  PHE694  ASN695  SER759  ASP760  ASP761  ALA762  ILE779  LEU786  VAL792 
 PHE793  MET794  SER795  GLU796  ALA797  LYS798  CYS799  TRP800  GLU811  SER814 

> <Gold.Protein.RotatedAtoms>
  150.8757  134.8140  159.7187 H   0  0  0  0  0  0  0  0  0  0  0  0  # atno 6907 bound_to 6896
  152.4745  134.4875  159.9695 H   0  0  0  0  0  0  0  0  0  0  0  0  # atno 6908 bound_to 6896
  151.4957  133.3476  159.2896 H   0  0  0  0  0  0  0  0  0  0  0  0  # atno 6909 bound_to 6896
  145.5525  139.2297  143.2504 H   0  0  0  0  0  0  0  0  0  0  0  0  # atno 7974 bound_to 7965
  156.1924  140.3071  155.9360 H   0  0  0  0  0  0  0  0  0  0  0  0  # atno 8008 bound_to 7997
  155.3142  140.0452  157.3053 H   0  0  0  0  0  0  0  0  0  0  0  0  # atno 8009 bound_to 7997
  154.5469  140.2279  155.8558 H   0  0  0  0  0  0  0  0  0  0  0  0  # atno 8010 bound_to 7997
  139.7936  144.6842  150.9859 H   0  0  0  0  0  0  0  0  0  0  0  0  # atno 10167 bound_to 10162
  157.6414  130.9491  150.0690 H   0  0  0  0  0  0  0  0  0  0  0  0  # atno 10718 bound_to 10713
  154.6150  135.2869  155.0390 H   0  0  0  0  0  0  0  0  0  0  0  0  # atno 10763 bound_to 10752
  154.1606  135.6488  153.4989 H   0  0  0  0  0  0  0  0  0  0  0  0  # atno 10764 bound_to 10752
  153.0211  135.5377  154.6918 H   0  0  0  0  0  0  0  0  0  0  0  0  # atno 10765 bound_to 10752
  140.0919  134.5197  155.8843 H   0  0  0  0  0  0  0  0  0  0  0  0  # atno 11005 bound_to 11000
  146.1907  140.6348  142.9147 LP  0  0  0  0  0  0  0  0  0  0  0  0  # atno 17320 bound_to 7965
  144.7522  140.5220  143.6794 LP  0  0  0  0  0  0  0  0  0  0  0  0  # atno 17321 bound_to 7965
  140.7820  143.4355  151.0630 LP  0  0  0  0  0  0  0  0  0  0  0  0  # atno 17342 bound_to 10162
  139.8030  143.8057  152.3164 LP  0  0  0  0  0  0  0  0  0  0  0  0  # atno 17343 bound_to 10162
  156.1699  130.3646  149.9179 LP  0  0  0  0  0  0  0  0  0  0  0  0  # atno 17370 bound_to 10713
  156.7157  130.8987  151.3613 LP  0  0  0  0  0  0  0  0  0  0  0  0  # atno 17371 bound_to 10713
  141.2080  133.6670  156.6346 LP  0  0  0  0  0  0  0  0  0  0  0  0  # atno 17394 bound_to 11000
  140.3340  134.7905  157.4347 LP  0  0  0  0  0  0  0  0  0  0  0  0  # atno 17395 bound_to 11000

$$$$
