AV-unprocessed.smi:813|AV-procd|sdf|3819|dock5
  -GOLD-   22720 1263D 1   1.00000     0.00000
 Structure written by MMmdl.
 35 36  0  0  0  0  0  0  0  0  2 V2000
  149.1750  141.7770  154.7887 C   0  0  0  0  0  0  0  0  0  0  0  0
  148.9429  141.3727  156.2541 C   0  0  2  0  0  0  0  0  0  0  0  0
  147.9367  142.2717  156.8194 N   0  0  0  0  0  0  0  0  0  0  0  0
  147.0928  141.9802  157.8211 C   0  0  0  0  0  0  0  0  0  0  0  0
  147.1229  140.8640  158.3453 O   0  0  0  0  0  0  0  0  0  0  0  0
  146.2661  142.9982  158.1514 N   0  5  0  0  0  0  0  0  0  0  0  0
  145.7969  143.1017  159.4056 C   0  0  0  0  0  0  0  0  0  0  0  0
  146.0446  142.1738  160.3441 N   0  0  0  0  0  0  0  0  0  0  0  0
  145.4730  142.4742  161.5732 N   0  0  0  0  0  0  0  0  0  0  0  0
  144.8118  143.6306  161.5317 C   0  0  0  0  0  0  0  0  0  0  0  0
  144.8292  144.4587  159.9889 S   0  0  0  0  0  0  0  0  0  0  0  0
  150.2757  141.5073  157.0079 C   0  0  0  0  0  0  0  0  0  0  0  0
  150.8665  140.5095  157.4246 O   0  0  0  0  0  0  0  0  0  0  0  0
  150.7290  142.7574  157.1861 N   0  0  0  0  0  0  0  0  0  0  0  0
  151.9746  143.1122  157.8606 C   0  0  0  0  0  0  0  0  0  0  0  0
  151.9931  142.5662  159.3014 C   0  0  0  0  0  0  0  0  0  0  0  0
  152.4220  143.7340  160.1919 C   0  0  0  0  0  0  0  0  0  0  0  0
  151.9188  144.9721  159.4568 C   0  0  0  0  0  0  0  0  0  0  0  0
  152.1325  144.6413  157.9797 C   0  0  0  0  0  0  0  0  0  0  0  0
  149.9180  141.1351  154.3136 H   0  0  0  0  0  0  0  0  0  0  0  0
  149.5198  142.8085  154.7006 H   0  0  0  0  0  0  0  0  0  0  0  0
  148.2542  141.6882  154.2114 H   0  0  0  0  0  0  0  0  0  0  0  0
  148.5850  140.3420  156.2950 H   0  0  0  0  0  0  0  0  0  0  0  0
  147.8836  143.1996  156.4259 H   0  0  0  0  0  0  0  0  0  0  0  0
  144.3131  143.9994  162.4153 H   0  0  0  0  0  0  0  0  0  0  0  0
  150.1813  143.5165  156.8078 H   0  0  0  0  0  0  0  0  0  0  0  0
  152.8213  142.7012  157.3078 H   0  0  0  0  0  0  0  0  0  0  0  0
  150.9964  142.2388  159.6028 H   0  0  0  0  0  0  0  0  0  0  0  0
  152.6580  141.7084  159.4076 H   0  0  0  0  0  0  0  0  0  0  0  0
  152.0276  143.6566  161.2053 H   0  0  0  0  0  0  0  0  0  0  0  0
  153.5103  143.7658  160.2593 H   0  0  0  0  0  0  0  0  0  0  0  0
  150.8543  145.1083  159.6522 H   0  0  0  0  0  0  0  0  0  0  0  0
  152.4344  145.8830  159.7623 H   0  0  0  0  0  0  0  0  0  0  0  0
  153.1470  144.9199  157.6917 H   0  0  0  0  0  0  0  0  0  0  0  0
  151.4535  145.2011  157.3341 H   0  0  0  0  0  0  0  0  0  0  0  0
  1  2  1  0  0  0  0
  1 20  1  0  0  0  0
  1 21  1  0  0  0  0
  1 22  1  0  0  0  0
  2  3  1  0  0  0  0
  2 12  1  0  0  0  0
  2 23  1  0  0  0  0
  3  4  1  0  0  0  0
  3 24  1  0  0  0  0
  4  5  2  0  0  0  0
  4  6  1  0  0  0  0
  6  7  1  0  0  0  0
  7 11  1  0  0  0  0
  7  8  2  0  0  0  0
  8  9  1  0  0  0  0
  9 10  2  0  0  0  0
 10 11  1  0  0  0  0
 10 25  1  0  0  0  0
 12 13  2  0  0  0  0
 12 14  1  0  0  0  0
 14 15  1  0  0  0  0
 14 26  1  0  0  0  0
 15 19  1  0  0  0  0
 15 16  1  0  0  0  0
 15 27  1  0  0  0  0
 16 17  1  0  0  0  0
 16 28  1  0  0  0  0
 16 29  1  0  0  0  0
 17 18  1  0  0  0  0
 17 30  1  0  0  0  0
 17 31  1  0  0  0  0
 18 19  1  0  0  0  0
 18 32  1  0  0  0  0
 18 33  1  0  0  0  0
 19 34  1  0  0  0  0
 19 35  1  0  0  0  0
M  CHG  1   6  -1
M  END
> <s_m_source_file>
AV-unprocessed.smi

> <i_m_source_file_index>
813

> <i_lp_mmshare_version>
43012

> <i_f3d_flags>
0

> <s_epik_input>
W0NIMl0xW0NIMl1bQ0gyXVtDSDJdW0NIXTFbTkhdQyg9TylbQ0BIXShbQ0gzXSlbTkhdQyg9TylbTkhdYzJubltjSF1zMg==

> <s_epik_cmdline>
J2VwaWtfcHl0aG9uJywgJy1waCcsICc3LjAnLCAnLXRuJywgJzgnLCAnLW1hJywgJzIwMCcsICctbWV0YWxfYmluZGluZycsICctaW1hZScsICc8aW5maWxlLm1hZT4nLCAnLW9tYWUnLCAnPG91dGZpbGUubWFlPic=

> <r_lp_tautomer_probability>
1

> <r_epik_Ionization_Penalty>
3.13682

> <r_epik_Ionization_Penalty_Charging>
3.09647

> <r_epik_Ionization_Penalty_Neutral>
0.0403479

> <r_epik_State_Penalty>
3.09328

> <r_epik_Charging_Adjusted_Penalty>
6.18976

> <i_epik_Tot_Q>
-1

> <i_epik_Tot_abs_Q>
1

> <r_epik_Metal_State_Penalty>
0.461392

> <b_epik_Metal_Only>
1

> <s_lp_Force_Field>
OPLS_2005

> <r_lp_Energy>
16.0843

> <b_lp_Chiralities_Consistent>
1

> <s_lp_Variant>
AV-unprocessed.smi:813-3

> <Gold.Version>
5.8.1

> <Gold.Id.Protein>
6NUR|6NUR_protein|mol2

> <Gold.PLP.Fitness>
41.6812

> <Gold.PLP.PLP>
-35.2408

> <Gold.PLP.part.hbond>
-4.7449

> <Gold.PLP.part.metal>
0.0000

> <Gold.PLP.part.buried>
-4.5186

> <Gold.PLP.part.nonpolar>
-26.1407

> <Gold.PLP.part.repulsive>
0.1567

> <Gold.PLP.ligand.clash>
0.0000

> <Gold.PLP.ligand.torsion>
0.7249

> <Gold.PLP.Chemscore.Hbond>
2.6123

> <Gold.PLP.Chemscore.CHOScore>
0.0000

> <Gold.PLP.Chemscore.Metal>
0.0000

> <Gold.Chemscore.Hbonds>
donor molecule, donor type, donor heavy atom, donor atom, acceptor molecule, acceptor atom, score
      L1  H     3    24       P1  8028  0.82
      L1  H    14    26       P1  8028  0.83
      P1  H  6934  6946       L1     8  1.00

> <Gold.PLP.Chemscore.Internal.Correction>
0.0534

> <Gold.Rescore>
     Score         DG    S(hbond)    S(metal)    S(lipo)     H(rot)  DE(clash)    DE(int)     intcor
     14.63     -16.77       1.79        0.00      83.10       1.72       0.05       2.09       ----

> <Gold.Chemscore.Fitness>
14.6268

> <Gold.Chemscore.DG>
-16.7673

> <Gold.Chemscore.ZeroCoef>
-5.4800

> <Gold.Chemscore.Hbond>
1.7863

> <Gold.Chemscore.Metal>
0.0000

> <Gold.Chemscore.Lipo>
83.1004

> <Gold.Chemscore.Internal_Hbond>
0.0000

> <Gold.Chemscore.DEClash>
0.0531

> <Gold.Chemscore.DEInternal>
2.0874

> <Gold.Chemscore.Rot>
1.7194

> <Gold.Chemscore.Internal.Correction>
   9.000000E+99

> <Gold.Chemscore.Hbonds>
donor molecule, donor type, donor heavy atom, donor atom, acceptor molecule, acceptor atom, score
      L1  H     3    24       P1  8028  0.13
      L1  H    14    26       P1  8028  0.82
      P1  H  6934  6946       L1     8  0.30

> <Gold.Chemscore.Hbond.Weighted>
-5.9662

> <Gold.Chemscore.Metal.Weighted>
-0.0000

> <Gold.Chemscore.Lipo.Weighted>
-9.7227

> <Gold.Chemscore.Internal_Hbond.Weighted>
0.0000

> <Gold.Chemscore.DEClash.Weighted>
0.0531

> <Gold.Chemscore.DEInternal.Weighted>
2.0874

> <Gold.Chemscore.Rot.Weighted>
4.4016

> <Gold.Chemscore.Internal.Correction.Weighted>
   9.000000E+99

> <Gold.Protein.RotatedTorsions>
[ 6907 6896 6895 6894 ] final  117.94 input  -60.11 | X-H torsion
[ 7974 7965 7964 7962 ] final -143.18 input  175.53 | X-H torsion
[ 8008 7997 7996 7995 ] final -154.15 input   59.86 | X-H torsion
[ 10167 10162 10161 10158 ] final  153.81 input  -65.29 | X-H torsion
[ 10718 10713 10712 10709 ] final  123.50 input   66.30 | X-H torsion
[ 10763 10752 10751 10750 ] final -111.50 input  -60.55 | X-H torsion
[ 11005 11000 10999 10996 ] final  131.82 input  -57.11 | X-H torsion

> <Gold.Protein.ActiveResidues>
 VAL166  LYS551  ARG553  GLY616  TRP617  ASP618  TYR619  PRO620  LYS621  CYS622 
 ASP623  PHE694  ASN695  SER759  ASP760  ASP761  ALA762  ILE779  LEU786  VAL792 
 PHE793  MET794  SER795  GLU796  ALA797  LYS798  CYS799  TRP800  GLU811  SER814 

> <Gold.Protein.RotatedAtoms>
  152.4578  133.7758  159.6823 H   0  0  0  0  0  0  0  0  0  0  0  0  # atno 6907 bound_to 6896
  150.8510  133.7777  159.3032 H   0  0  0  0  0  0  0  0  0  0  0  0  # atno 6908 bound_to 6896
  151.5372  135.1071  159.9969 H   0  0  0  0  0  0  0  0  0  0  0  0  # atno 6909 bound_to 6896
  144.8388  140.5867  143.5466 H   0  0  0  0  0  0  0  0  0  0  0  0  # atno 7974 bound_to 7965
  155.6819  140.0745  157.2481 H   0  0  0  0  0  0  0  0  0  0  0  0  # atno 8008 bound_to 7997
  154.4104  140.1680  156.2044 H   0  0  0  0  0  0  0  0  0  0  0  0  # atno 8009 bound_to 7997
  155.9527  140.3376  155.6425 H   0  0  0  0  0  0  0  0  0  0  0  0  # atno 8010 bound_to 7997
  139.4825  144.5241  151.7828 H   0  0  0  0  0  0  0  0  0  0  0  0  # atno 10167 bound_to 10162
  157.5660  131.1086  150.8454 H   0  0  0  0  0  0  0  0  0  0  0  0  # atno 10718 bound_to 10713
  154.8303  135.4525  154.1049 H   0  0  0  0  0  0  0  0  0  0  0  0  # atno 10763 bound_to 10752
  153.2327  135.6907  153.7878 H   0  0  0  0  0  0  0  0  0  0  0  0  # atno 10764 bound_to 10752
  153.7254  135.3335  155.3251 H   0  0  0  0  0  0  0  0  0  0  0  0  # atno 10765 bound_to 10752
  139.9753  134.9565  156.9493 H   0  0  0  0  0  0  0  0  0  0  0  0  # atno 11005 bound_to 11000
  145.4737  139.1501  143.3800 LP  0  0  0  0  0  0  0  0  0  0  0  0  # atno 17320 bound_to 7965
  146.2684  140.4871  142.8824 LP  0  0  0  0  0  0  0  0  0  0  0  0  # atno 17321 bound_to 7965
  140.4759  144.1520  150.5925 LP  0  0  0  0  0  0  0  0  0  0  0  0  # atno 17342 bound_to 10162
  140.4331  143.2559  151.9570 LP  0  0  0  0  0  0  0  0  0  0  0  0  # atno 17343 bound_to 10162
  156.8938  130.5222  149.5285 LP  0  0  0  0  0  0  0  0  0  0  0  0  # atno 17370 bound_to 10713
  156.0708  130.5741  150.9380 LP  0  0  0  0  0  0  0  0  0  0  0  0  # atno 17371 bound_to 10713
  140.5208  134.0909  155.7292 LP  0  0  0  0  0  0  0  0  0  0  0  0  # atno 17394 bound_to 11000
  141.1430  133.9105  157.2281 LP  0  0  0  0  0  0  0  0  0  0  0  0  # atno 17395 bound_to 11000

$$$$
