AV-unprocessed.smi:309|AV-procd|sdf|2294|dock3
  -GOLD-   2262022193D 1   1.00000     0.00000
 Structure written by MMmdl.
 37 39  0  0  0  0  0  0  0  0  2 V2000
  152.3370  137.3293  153.5259 O   0  0  0  0  0  0  0  0  0  0  0  0
  151.6964  137.7535  154.7078 C   0  0  0  0  0  0  0  0  0  0  0  0
  150.5568  138.6794  154.4346 C   0  0  0  0  0  0  0  0  0  0  0  0
  149.4942  138.4078  153.6250 N   0  3  0  0  0  0  0  0  0  0  0  0
  148.6208  139.4955  153.6084 C   0  0  0  0  0  0  0  0  0  0  0  0
  147.4179  139.6889  152.9360 C   0  0  0  0  0  0  0  0  0  0  0  0
  146.7714  140.9259  153.1388 C   0  0  0  0  0  0  0  0  0  0  0  0
  147.3221  141.9125  153.9824 C   0  0  0  0  0  0  0  0  0  0  0  0
  148.5421  141.7044  154.6586 C   0  0  0  0  0  0  0  0  0  0  0  0
  149.1750  140.4790  154.4528 C   0  0  0  0  0  0  0  0  0  0  0  0
  150.3666  139.9326  154.9432 N   0  0  0  0  0  0  0  0  0  0  0  0
  151.1864  140.7298  155.8706 C   0  0  0  0  0  0  0  0  0  0  0  0
  150.9138  140.4047  157.3535 C   0  0  1  0  0  0  0  0  0  0  0  0
  151.1525  139.0301  157.5902 O   0  0  0  0  0  0  0  0  0  0  0  0
  151.7351  141.3073  158.2702 C   0  0  0  0  0  0  0  0  0  0  0  0
  151.4969  142.7014  158.2706 C   0  0  0  0  0  0  0  0  0  0  0  0
  152.2309  143.5559  159.1150 C   0  0  0  0  0  0  0  0  0  0  0  0
  151.9250  145.2536  159.1009 Cl  0  0  0  0  0  0  0  0  0  0  0  0
  153.2113  143.0241  159.9720 C   0  0  0  0  0  0  0  0  0  0  0  0
  153.4507  141.6378  159.9869 C   0  0  0  0  0  0  0  0  0  0  0  0
  152.7169  140.7771  159.1460 C   0  0  0  0  0  0  0  0  0  0  0  0
  153.0418  139.0807  159.2275 Cl  0  0  0  0  0  0  0  0  0  0  0  0
  151.6756  137.0302  152.9195 H   0  0  0  0  0  0  0  0  0  0  0  0
  151.3469  136.8831  155.2620 H   0  0  0  0  0  0  0  0  0  0  0  0
  152.4266  138.2590  155.3402 H   0  0  0  0  0  0  0  0  0  0  0  0
  146.9944  138.9347  152.2891 H   0  0  0  0  0  0  0  0  0  0  0  0
  145.8348  141.1223  152.6373 H   0  0  0  0  0  0  0  0  0  0  0  0
  146.7986  142.8486  154.1133 H   0  0  0  0  0  0  0  0  0  0  0  0
  148.9553  142.4673  155.3010 H   0  0  0  0  0  0  0  0  0  0  0  0
  152.2352  140.5544  155.6308 H   0  0  0  0  0  0  0  0  0  0  0  0
  151.0045  141.7859  155.6669 H   0  0  0  0  0  0  0  0  0  0  0  0
  149.8542  140.5470  157.5611 H   0  0  0  0  0  0  0  0  0  0  0  0
  151.8097  138.9527  158.2655 H   0  0  0  0  0  0  0  0  0  0  0  0
  150.7421  143.1241  157.6234 H   0  0  0  0  0  0  0  0  0  0  0  0
  153.7765  143.6763  160.6217 H   0  0  0  0  0  0  0  0  0  0  0  0
  154.1992  141.2323  160.6520 H   0  0  0  0  0  0  0  0  0  0  0  0
  149.3776  137.5370  153.1231 H   0  0  0  0  0  0  0  0  0  0  0  0
  1  2  1  0  0  0  0
  1 23  1  0  0  0  0
  2  3  1  0  0  0  0
  2 24  1  0  0  0  0
  2 25  1  0  0  0  0
  3 11  1  0  0  0  0
  3  4  2  0  0  0  0
  4  5  1  0  0  0  0
  4 37  1  0  0  0  0
  5 10  2  0  0  0  0
  5  6  1  0  0  0  0
  6  7  2  0  0  0  0
  6 26  1  0  0  0  0
  7  8  1  0  0  0  0
  7 27  1  0  0  0  0
  8  9  2  0  0  0  0
  8 28  1  0  0  0  0
  9 10  1  0  0  0  0
  9 29  1  0  0  0  0
 10 11  1  0  0  0  0
 11 12  1  0  0  0  0
 12 13  1  0  0  0  0
 12 30  1  0  0  0  0
 12 31  1  0  0  0  0
 13 14  1  0  0  0  0
 13 15  1  0  0  0  0
 13 32  1  0  0  0  0
 14 33  1  0  0  0  0
 15 21  1  0  0  0  0
 15 16  2  0  0  0  0
 16 17  1  0  0  0  0
 16 34  1  0  0  0  0
 17 18  1  0  0  0  0
 17 19  2  0  0  0  0
 19 20  1  0  0  0  0
 19 35  1  0  0  0  0
 20 21  2  0  0  0  0
 20 36  1  0  0  0  0
 21 22  1  0  0  0  0
M  CHG  1   4   1
M  END
> <s_m_source_file>
AV-unprocessed.smi

> <i_m_source_file_index>
309

> <i_lp_mmshare_version>
43012

> <i_f3d_flags>
0

> <s_epik_input>
W2NIXTFbY0hdW2NIXVtjSF1jKGMxMiluKGMobjIpW0NIMl1bT0hdKVtDSDJdW0NASF0oW09IXSljM1tjSF1jKENsKVtjSF1bY0hdYzNDbA==

> <s_epik_cmdline>
J2VwaWtfcHl0aG9uJywgJy1waCcsICc3LjAnLCAnLXRuJywgJzgnLCAnLW1hJywgJzIwMCcsICctbWV0YWxfYmluZGluZycsICctaW1hZScsICc8aW5maWxlLm1hZT4nLCAnLW9tYWUnLCAnPG91dGZpbGUubWFlPic=

> <r_epik_Ionization_Penalty>
1.35643

> <r_epik_Ionization_Penalty_Charging>
1.35557

> <r_epik_Ionization_Penalty_Neutral>
0.000861512

> <r_epik_State_Penalty>
1.43401

> <r_epik_Charging_Adjusted_Penalty>
2.78958

> <i_epik_Tot_Q>
1

> <i_epik_Tot_abs_Q>
1

> <r_epik_Metal_State_Penalty>
5.47166

> <b_epik_Metal_Only>
0

> <s_lp_Force_Field>
OPLS_2005

> <r_lp_Energy>
14.3567

> <b_lp_Chiralities_Consistent>
1

> <s_lp_Variant>
AV-unprocessed.smi:309-4

> <Gold.Version>
5.8.1

> <Gold.Id.Protein>
6NUR|6NUR_protein|mol2

> <Gold.PLP.Fitness>
64.0914

> <Gold.PLP.PLP>
-53.0310

> <Gold.PLP.part.hbond>
-3.9314

> <Gold.PLP.part.metal>
0.0000

> <Gold.PLP.part.buried>
1.0769

> <Gold.PLP.part.nonpolar>
-49.9075

> <Gold.PLP.part.repulsive>
0.0558

> <Gold.PLP.ligand.clash>
0.0000

> <Gold.PLP.ligand.torsion>
0.4265

> <Gold.PLP.Chemscore.Hbond>
3.9600

> <Gold.PLP.Chemscore.CHOScore>
0.0000

> <Gold.PLP.Chemscore.Metal>
0.0000

> <Gold.Chemscore.Hbonds>
donor molecule, donor type, donor heavy atom, donor atom, acceptor molecule, acceptor atom, score
      L1  H     1    23       P1  7949  0.99
      L1  H     4    37       P1  7948  2.00
      P1  H 10752 10765       L1     1  0.93

> <Gold.PLP.Chemscore.Internal.Correction>
0.0334

> <Gold.Rescore>
     Score         DG    S(hbond)    S(metal)    S(lipo)     H(rot)  DE(clash)    DE(int)     intcor
     19.02     -21.44       2.25        0.00     131.11       2.70       0.12       2.30       ----

> <Gold.Chemscore.Fitness>
19.0184

> <Gold.Chemscore.DG>
-21.4436

> <Gold.Chemscore.ZeroCoef>
-5.4800

> <Gold.Chemscore.Hbond>
2.2534

> <Gold.Chemscore.Metal>
0.0000

> <Gold.Chemscore.Lipo>
131.1084

> <Gold.Chemscore.Internal_Hbond>
0.0000

> <Gold.Chemscore.DEClash>
0.1214

> <Gold.Chemscore.DEInternal>
2.3038

> <Gold.Chemscore.Rot>
2.6963

> <Gold.Chemscore.Internal.Correction>
   9.000000E+99

> <Gold.Chemscore.Hbonds>
donor molecule, donor type, donor heavy atom, donor atom, acceptor molecule, acceptor atom, score
      L1  H     1    23       P1  7949  0.93
      L1  H     4    37       P1  7948  0.94
      P1  H 10752 10765       L1     1  0.08

> <Gold.Chemscore.Hbond.Weighted>
-7.5263

> <Gold.Chemscore.Metal.Weighted>
-0.0000

> <Gold.Chemscore.Lipo.Weighted>
-15.3397

> <Gold.Chemscore.Internal_Hbond.Weighted>
0.0000

> <Gold.Chemscore.DEClash.Weighted>
0.1214

> <Gold.Chemscore.DEInternal.Weighted>
2.3038

> <Gold.Chemscore.Rot.Weighted>
6.9024

> <Gold.Chemscore.Internal.Correction.Weighted>
   9.000000E+99

> <Gold.Protein.RotatedTorsions>
[ 6907 6896 6895 6894 ] final -178.81 input  -60.11 | X-H torsion
[ 7974 7965 7964 7962 ] final   -9.16 input  175.53 | X-H torsion
[ 8008 7997 7996 7995 ] final -126.18 input   59.86 | X-H torsion
[ 10167 10162 10161 10158 ] final   -1.54 input  -65.29 | X-H torsion
[ 10718 10713 10712 10709 ] final   56.21 input   66.30 | X-H torsion
[ 10763 10752 10751 10750 ] final  146.18 input  -60.55 | X-H torsion
[ 11005 11000 10999 10996 ] final  -50.45 input  -57.11 | X-H torsion

> <Gold.Protein.ActiveResidues>
 VAL166  LYS551  ARG553  GLY616  TRP617  ASP618  TYR619  PRO620  LYS621  CYS622 
 ASP623  PHE694  ASN695  SER759  ASP760  ASP761  ALA762  ILE779  LEU786  VAL792 
 PHE793  MET794  SER795  GLU796  ALA797  LYS798  CYS799  TRP800  GLU811  SER814 

> <Gold.Protein.RotatedAtoms>
  151.6432  133.3325  159.3134 H   0  0  0  0  0  0  0  0  0  0  0  0  # atno 6907 bound_to 6896
  150.7997  134.7086  159.6600 H   0  0  0  0  0  0  0  0  0  0  0  0  # atno 6908 bound_to 6896
  152.4088  134.6165  160.0091 H   0  0  0  0  0  0  0  0  0  0  0  0  # atno 6909 bound_to 6896
  146.2260  140.2575  142.8350 H   0  0  0  0  0  0  0  0  0  0  0  0  # atno 7974 bound_to 7965
  155.2255  140.0423  157.2954 H   0  0  0  0  0  0  0  0  0  0  0  0  # atno 8008 bound_to 7997
  154.5922  140.2430  155.7876 H   0  0  0  0  0  0  0  0  0  0  0  0  # atno 8009 bound_to 7997
  156.2267  140.2952  156.0092 H   0  0  0  0  0  0  0  0  0  0  0  0  # atno 8010 bound_to 7997
  140.6814  143.6763  150.8142 H   0  0  0  0  0  0  0  0  0  0  0  0  # atno 10167 bound_to 10162
  157.5411  130.8698  149.8824 H   0  0  0  0  0  0  0  0  0  0  0  0  # atno 10718 bound_to 10713
  154.0176  135.2909  155.3385 H   0  0  0  0  0  0  0  0  0  0  0  0  # atno 10763 bound_to 10752
  154.7065  135.5167  153.8607 H   0  0  0  0  0  0  0  0  0  0  0  0  # atno 10764 bound_to 10752
  153.0695  135.6643  154.0401 H   0  0  0  0  0  0  0  0  0  0  0  0  # atno 10765 bound_to 10752
  141.0816  133.6652  156.3732 H   0  0  0  0  0  0  0  0  0  0  0  0  # atno 11005 bound_to 11000
  144.9365  140.8032  143.5657 LP  0  0  0  0  0  0  0  0  0  0  0  0  # atno 17320 bound_to 7965
  145.2523  139.2026  143.4936 LP  0  0  0  0  0  0  0  0  0  0  0  0  # atno 17321 bound_to 7965
  140.0464  143.5294  152.2694 LP  0  0  0  0  0  0  0  0  0  0  0  0  # atno 17342 bound_to 10162
  139.6140  144.7615  151.2888 LP  0  0  0  0  0  0  0  0  0  0  0  0  # atno 17343 bound_to 10162
  156.0497  130.3720  150.1230 LP  0  0  0  0  0  0  0  0  0  0  0  0  # atno 17370 bound_to 10713
  156.9409  130.9744  151.3516 LP  0  0  0  0  0  0  0  0  0  0  0  0  # atno 17371 bound_to 10713
  140.5455  134.6078  157.5392 LP  0  0  0  0  0  0  0  0  0  0  0  0  # atno 17394 bound_to 11000
  139.9631  134.7419  156.0196 LP  0  0  0  0  0  0  0  0  0  0  0  0  # atno 17395 bound_to 11000

$$$$
