AV-unprocessed.smi:679|AV-procd|sdf|3319|dock8
  -GOLD-   22720 0283D 1   1.00000     0.00000
 Structure written by MMmdl.
 41 43  0  0  0  0  0  0  0  0  1 V2000
  145.6929  131.5741  150.9064 C   0  0  0  0  0  0  0  0  0  0  0  0
  146.2830  132.9667  151.1388 C   0  0  0  0  0  0  0  0  0  0  0  0
  146.6088  133.1015  152.5115 O   0  0  0  0  0  0  0  0  0  0  0  0
  147.0458  134.4082  152.8511 C   0  0  2  0  0  0  0  0  0  0  0  0
  147.2844  134.6347  154.3472 C   0  0  0  0  0  0  0  0  0  0  0  0
  146.6162  136.0040  154.1773 C   0  0  1  0  0  0  0  0  0  0  0  0
  147.6044  137.0390  153.8740 N   0  0  0  0  0  0  0  0  0  0  0  0
  147.7366  138.1920  154.5478 C   0  0  0  0  0  0  0  0  0  0  0  0
  147.0219  138.5044  155.4994 O   0  0  0  0  0  0  0  0  0  0  0  0
  148.8265  139.1512  154.0647 C   0  0  0  0  0  0  0  0  0  0  0  0
  150.1539  138.6665  154.3967 N   0  0  0  0  0  0  0  0  0  0  0  0
  150.6560  137.4302  154.4163 C   0  0  0  0  0  0  0  0  0  0  0  0
  151.9256  137.4239  154.7918 N   0  0  0  0  0  0  0  0  0  0  0  0
  152.1958  138.7645  155.0100 N   0  0  0  0  0  0  0  0  0  0  0  0
  151.1482  139.5067  154.7773 N   0  0  0  0  0  0  0  0  0  0  0  0
  145.9003  135.4475  152.9183 C   0  0  0  0  0  0  0  0  0  0  0  0
  144.4833  134.9061  153.1264 C   0  0  0  0  0  0  0  0  0  0  0  0
  143.8451  134.7559  151.7412 C   0  0  0  0  0  0  0  0  0  0  0  0
  144.6728  135.6389  150.8023 C   0  0  0  0  0  0  0  0  0  0  0  0
  145.6979  136.3401  151.6955 C   0  0  0  0  0  0  0  0  0  0  0  0
  145.4240  131.4346  149.8593 H   0  0  0  0  0  0  0  0  0  0  0  0
  144.7947  131.4239  151.5059 H   0  0  0  0  0  0  0  0  0  0  0  0
  146.4085  130.7965  151.1742 H   0  0  0  0  0  0  0  0  0  0  0  0
  147.1726  133.0997  150.5215 H   0  0  0  0  0  0  0  0  0  0  0  0
  145.5609  133.7311  150.8483 H   0  0  0  0  0  0  0  0  0  0  0  0
  147.8795  134.7534  152.2354 H   0  0  0  0  0  0  0  0  0  0  0  0
  146.7044  133.9582  154.9772 H   0  0  0  0  0  0  0  0  0  0  0  0
  148.3335  134.6581  154.6448 H   0  0  0  0  0  0  0  0  0  0  0  0
  145.9437  136.2510  155.0008 H   0  0  0  0  0  0  0  0  0  0  0  0
  148.2278  136.8633  153.0997 H   0  0  0  0  0  0  0  0  0  0  0  0
  148.7541  139.2722  152.9832 H   0  0  0  0  0  0  0  0  0  0  0  0
  148.6864  140.1375  154.5100 H   0  0  0  0  0  0  0  0  0  0  0  0
  150.0949  136.5430  154.1621 H   0  0  0  0  0  0  0  0  0  0  0  0
  144.4638  133.9656  153.6781 H   0  0  0  0  0  0  0  0  0  0  0  0
  143.9003  135.6184  153.7117 H   0  0  0  0  0  0  0  0  0  0  0  0
  143.8884  133.7174  151.4108 H   0  0  0  0  0  0  0  0  0  0  0  0
  142.7959  135.0524  151.7576 H   0  0  0  0  0  0  0  0  0  0  0  0
  145.1842  135.0151  150.0681 H   0  0  0  0  0  0  0  0  0  0  0  0
  144.0569  136.3532  150.2551 H   0  0  0  0  0  0  0  0  0  0  0  0
  145.3022  137.3091  152.0031 H   0  0  0  0  0  0  0  0  0  0  0  0
  146.6265  136.5337  151.1575 H   0  0  0  0  0  0  0  0  0  0  0  0
  1  2  1  0  0  0  0
  1 21  1  0  0  0  0
  1 22  1  0  0  0  0
  1 23  1  0  0  0  0
  2  3  1  0  0  0  0
  2 24  1  0  0  0  0
  2 25  1  0  0  0  0
  3  4  1  0  0  0  0
  4 16  1  0  0  0  0
  4  5  1  0  0  0  0
  4 26  1  0  0  0  0
  5  6  1  0  0  0  0
  5 27  1  0  0  0  0
  5 28  1  0  0  0  0
  6  7  1  0  0  0  0
  6 16  1  0  0  0  0
  6 29  1  0  0  0  0
  7  8  1  0  0  0  0
  7 30  1  0  0  0  0
  8  9  2  0  0  0  0
  8 10  1  0  0  0  0
 10 11  1  0  0  0  0
 10 31  1  0  0  0  0
 10 32  1  0  0  0  0
 11 15  1  0  0  0  0
 11 12  1  0  0  0  0
 12 13  2  0  0  0  0
 12 33  1  0  0  0  0
 13 14  1  0  0  0  0
 14 15  2  0  0  0  0
 16 20  1  0  0  0  0
 16 17  1  0  0  0  0
 17 18  1  0  0  0  0
 17 34  1  0  0  0  0
 17 35  1  0  0  0  0
 18 19  1  0  0  0  0
 18 36  1  0  0  0  0
 18 37  1  0  0  0  0
 19 20  1  0  0  0  0
 19 38  1  0  0  0  0
 19 39  1  0  0  0  0
 20 40  1  0  0  0  0
 20 41  1  0  0  0  0
M  END
> <s_m_source_file>
AV-unprocessed.smi

> <i_m_source_file_index>
679

> <i_lp_mmshare_version>
43012

> <i_f3d_flags>
0

> <s_epik_input>
W0NIMl0xW0NIMl1bQ0gyXVtDSDJdQzEyW0NASF0oT1tDSDJdW0NIM10pW0NIMl1bQ0BIXTJbTkhdQyg9TylbQ0gyXW4zW2NIXW5ubjM=

> <s_epik_cmdline>
J2VwaWtfcHl0aG9uJywgJy1waCcsICc3LjAnLCAnLXRuJywgJzgnLCAnLW1hJywgJzIwMCcsICctbWV0YWxfYmluZGluZycsICctaW1hZScsICc8aW5maWxlLm1hZT4nLCAnLW9tYWUnLCAnPG91dGZpbGUubWFlPic=

> <r_lp_tautomer_probability>
1

> <r_epik_Ionization_Penalty>
7.96741e-07

> <r_epik_Ionization_Penalty_Charging>
0

> <r_epik_Ionization_Penalty_Neutral>
7.96741e-07

> <r_epik_State_Penalty>
-0

> <r_epik_Charging_Adjusted_Penalty>
0

> <i_epik_Tot_Q>
0

> <i_epik_Tot_abs_Q>
0

> <r_epik_Metal_State_Penalty>
-0

> <b_epik_Metal_Only>
0

> <s_lp_Force_Field>
OPLS_2005

> <r_lp_Energy>
39.8699

> <b_lp_Chiralities_Consistent>
1

> <s_lp_Variant>
AV-unprocessed.smi:679-1

> <Gold.Version>
5.8.1

> <Gold.Id.Protein>
6NUR|6NUR_protein|mol2

> <Gold.PLP.Fitness>
36.2977

> <Gold.PLP.PLP>
-26.0270

> <Gold.PLP.part.hbond>
-3.0000

> <Gold.PLP.part.metal>
0.0000

> <Gold.PLP.part.buried>
-1.4982

> <Gold.PLP.part.nonpolar>
-21.5696

> <Gold.PLP.part.repulsive>
0.3423

> <Gold.PLP.ligand.clash>
0.0000

> <Gold.PLP.ligand.torsion>
0.6472

> <Gold.PLP.Chemscore.Hbond>
2.9120

> <Gold.PLP.Chemscore.CHOScore>
0.8259

> <Gold.PLP.Chemscore.Metal>
0.0000

> <Gold.Chemscore.Hbonds>
donor molecule, donor type, donor heavy atom, donor atom, acceptor molecule, acceptor atom, score
      L1  H     7    30       P1  7948  1.00
      P1  H  7989  7998       L1    15  1.00
      P1  H 10752 10763       L1    13  0.77
      L1  C    12    33       P1  7948  0.81

> <Gold.PLP.Chemscore.Internal.Correction>
0.3514

> <Gold.Rescore>
     Score         DG    S(hbond)    S(metal)    S(lipo)     H(rot)  DE(clash)    DE(int)     intcor
     13.48     -15.06       2.90        0.00      51.77       2.41       0.70       0.87       ----

> <Gold.Chemscore.Fitness>
13.4815

> <Gold.Chemscore.DG>
-15.0571

> <Gold.Chemscore.ZeroCoef>
-5.4800

> <Gold.Chemscore.Hbond>
2.9002

> <Gold.Chemscore.Metal>
0.0000

> <Gold.Chemscore.Lipo>
51.7705

> <Gold.Chemscore.Internal_Hbond>
0.0000

> <Gold.Chemscore.DEClash>
0.7047

> <Gold.Chemscore.DEInternal>
0.8708

> <Gold.Chemscore.Rot>
2.4089

> <Gold.Chemscore.Internal.Correction>
   9.000000E+99

> <Gold.Chemscore.Hbonds>
donor molecule, donor type, donor heavy atom, donor atom, acceptor molecule, acceptor atom, score
      L1  H     7    30       P1  7948  0.97
      P1  H  7989  7998       L1    15  0.60
      P1  H 10752 10763       L1    13  0.67

> <Gold.Chemscore.Hbond.Weighted>
-9.6868

> <Gold.Chemscore.Metal.Weighted>
-0.0000

> <Gold.Chemscore.Lipo.Weighted>
-6.0571

> <Gold.Chemscore.Internal_Hbond.Weighted>
0.0000

> <Gold.Chemscore.DEClash.Weighted>
0.7047

> <Gold.Chemscore.DEInternal.Weighted>
0.8708

> <Gold.Chemscore.Rot.Weighted>
6.1668

> <Gold.Chemscore.Internal.Correction.Weighted>
   9.000000E+99

> <Gold.Protein.RotatedTorsions>
[ 6907 6896 6895 6894 ] final   29.38 input  -60.11 | X-H torsion
[ 7974 7965 7964 7962 ] final    0.95 input  175.53 | X-H torsion
[ 8008 7997 7996 7995 ] final -158.88 input   59.86 | X-H torsion
[ 10167 10162 10161 10158 ] final   79.54 input  -65.29 | X-H torsion
[ 10718 10713 10712 10709 ] final  -53.22 input   66.30 | X-H torsion
[ 10763 10752 10751 10750 ] final   46.10 input  -60.55 | X-H torsion
[ 11005 11000 10999 10996 ] final   -4.71 input  -57.11 | X-H torsion

> <Gold.Protein.ActiveResidues>
 VAL166  LYS551  ARG553  GLY616  TRP617  ASP618  TYR619  PRO620  LYS621  CYS622 
 ASP623  PHE694  ASN695  SER759  ASP760  ASP761  ALA762  ILE779  LEU786  VAL792 
 PHE793  MET794  SER795  GLU796  ALA797  LYS798  CYS799  TRP800  GLU811  SER814 

> <Gold.Protein.RotatedAtoms>
  152.0306  134.9770  160.0572 H   0  0  0  0  0  0  0  0  0  0  0  0  # atno 6907 bound_to 6896
  152.1248  133.4369  159.4701 H   0  0  0  0  0  0  0  0  0  0  0  0  # atno 6908 bound_to 6896
  150.6851  134.2411  159.4516 H   0  0  0  0  0  0  0  0  0  0  0  0  # atno 6909 bound_to 6896
  146.2437  140.1060  142.8346 H   0  0  0  0  0  0  0  0  0  0  0  0  # atno 7974 bound_to 7965
  155.7541  140.0830  157.2187 H   0  0  0  0  0  0  0  0  0  0  0  0  # atno 8008 bound_to 7997
  154.4009  140.1555  156.2814 H   0  0  0  0  0  0  0  0  0  0  0  0  # atno 8009 bound_to 7997
  155.8902  140.3415  155.5953 H   0  0  0  0  0  0  0  0  0  0  0  0  # atno 8010 bound_to 7997
  139.9592  144.5973  150.8088 H   0  0  0  0  0  0  0  0  0  0  0  0  # atno 10167 bound_to 10162
  156.1554  130.4150  149.9877 H   0  0  0  0  0  0  0  0  0  0  0  0  # atno 10718 bound_to 10713
  152.9815  135.6019  154.3544 H   0  0  0  0  0  0  0  0  0  0  0  0  # atno 10763 bound_to 10752
  154.3231  135.2769  155.2511 H   0  0  0  0  0  0  0  0  0  0  0  0  # atno 10764 bound_to 10752
  154.4669  135.5952  153.6350 H   0  0  0  0  0  0  0  0  0  0  0  0  # atno 10765 bound_to 10752
  140.6832  133.9135  155.8569 H   0  0  0  0  0  0  0  0  0  0  0  0  # atno 11005 bound_to 11000
  145.0528  140.9030  143.4985 LP  0  0  0  0  0  0  0  0  0  0  0  0  # atno 17320 bound_to 7965
  145.1161  139.2725  143.5612 LP  0  0  0  0  0  0  0  0  0  0  0  0  # atno 17321 bound_to 7965
  140.7558  143.3054  151.2975 LP  0  0  0  0  0  0  0  0  0  0  0  0  # atno 17342 bound_to 10162
  139.6567  144.0263  152.2664 LP  0  0  0  0  0  0  0  0  0  0  0  0  # atno 17343 bound_to 10162
  156.7723  130.9190  151.3644 LP  0  0  0  0  0  0  0  0  0  0  0  0  # atno 17370 bound_to 10713
  157.6691  130.9034  149.9998 LP  0  0  0  0  0  0  0  0  0  0  0  0  # atno 17371 bound_to 10713
  141.0301  134.0768  157.4024 LP  0  0  0  0  0  0  0  0  0  0  0  0  # atno 17394 bound_to 11000
  139.8945  135.0136  156.6956 LP  0  0  0  0  0  0  0  0  0  0  0  0  # atno 17395 bound_to 11000

$$$$
