AV-unprocessed.smi:2934|AV-procd|sdf|11255|dock6
  -GOLD-   2272016143D 1   1.00000     0.00000
 Structure written by MMmdl.
 44 45  0  0  0  0  0  0  0  0  2 V2000
  148.5873  141.7462  157.5287 C   0  0  0  0  0  0  0  0  0  0  0  0
  149.9601  141.6411  157.0259 N   0  0  0  0  0  0  0  0  0  0  0  0
  150.1902  140.8641  155.9340 C   0  0  0  0  0  0  0  0  0  0  0  0
  151.3180  140.4921  155.6052 O   0  0  0  0  0  0  0  0  0  0  0  0
  149.0938  140.5458  155.2183 N   0  0  0  0  0  0  0  0  0  0  0  0
  149.0625  139.6943  154.0305 C   0  0  0  0  0  0  0  0  0  0  0  0
  147.8147  138.7890  153.9808 C   0  0  0  0  0  0  0  0  0  0  0  0
  147.9183  137.5459  154.8711 C   0  0  0  0  0  0  0  0  0  0  0  0
  147.8364  137.6538  156.0949 O   0  0  0  0  0  0  0  0  0  0  0  0
  148.0824  136.3717  154.2439 N   0  0  0  0  0  0  0  0  0  0  0  0
  148.2106  135.0765  154.9067 C   0  0  0  0  0  0  0  0  0  0  0  0
  149.6324  134.5099  154.7311 C   0  0  0  0  0  0  0  0  0  0  0  0
  149.4559  133.0536  154.2982 C   0  0  0  0  0  0  0  0  0  0  0  0
  148.1386  133.0480  153.5298 C   0  0  0  0  0  0  0  0  0  0  0  0
  147.2542  134.0318  154.2967 C   0  0  0  0  0  0  0  0  0  0  0  0
  150.9746  142.3513  157.7375 C   0  0  0  0  0  0  0  0  0  0  0  0
  151.8552  141.6988  158.6347 C   0  0  0  0  0  0  0  0  0  0  0  0
  152.8465  142.4444  159.3048 C   0  0  0  0  0  0  0  0  0  0  0  0
  152.9467  143.8297  159.0665 C   0  0  0  0  0  0  0  0  0  0  0  0
  152.0540  144.4334  158.1591 C   0  0  0  0  0  0  0  0  0  0  0  0
  151.1182  143.6835  157.5363 N   0  3  0  0  0  0  0  0  0  0  0  0
  148.5100  142.4396  158.3672 H   0  0  0  0  0  0  0  0  0  0  0  0
  148.2263  140.7742  157.8676 H   0  0  0  0  0  0  0  0  0  0  0  0
  147.9135  142.1107  156.7517 H   0  0  0  0  0  0  0  0  0  0  0  0
  148.2048  140.9029  155.5370 H   0  0  0  0  0  0  0  0  0  0  0  0
  149.0623  140.3490  153.1588 H   0  0  0  0  0  0  0  0  0  0  0  0
  149.9660  139.0879  153.9453 H   0  0  0  0  0  0  0  0  0  0  0  0
  146.9349  139.3574  154.2851 H   0  0  0  0  0  0  0  0  0  0  0  0
  147.6322  138.4816  152.9502 H   0  0  0  0  0  0  0  0  0  0  0  0
  148.1307  136.3737  153.2353 H   0  0  0  0  0  0  0  0  0  0  0  0
  147.9963  135.1858  155.9717 H   0  0  0  0  0  0  0  0  0  0  0  0
  150.1676  135.0483  153.9471 H   0  0  0  0  0  0  0  0  0  0  0  0
  150.2257  134.5960  155.6420 H   0  0  0  0  0  0  0  0  0  0  0  0
  150.2926  132.6872  153.7028 H   0  0  0  0  0  0  0  0  0  0  0  0
  149.3687  132.4158  155.1788 H   0  0  0  0  0  0  0  0  0  0  0  0
  148.3035  133.4144  152.5157 H   0  0  0  0  0  0  0  0  0  0  0  0
  147.6976  132.0533  153.4582 H   0  0  0  0  0  0  0  0  0  0  0  0
  146.7427  133.5021  155.1014 H   0  0  0  0  0  0  0  0  0  0  0  0
  146.4819  134.4663  153.6604 H   0  0  0  0  0  0  0  0  0  0  0  0
  151.7788  140.6348  158.8059 H   0  0  0  0  0  0  0  0  0  0  0  0
  153.5233  141.9581  159.9917 H   0  0  0  0  0  0  0  0  0  0  0  0
  153.6993  144.4196  159.5691 H   0  0  0  0  0  0  0  0  0  0  0  0
  152.0604  145.4855  157.9136 H   0  0  0  0  0  0  0  0  0  0  0  0
  150.4855  144.1470  156.8835 H   0  0  0  0  0  0  0  0  0  0  0  0
  1  2  1  0  0  0  0
  1 22  1  0  0  0  0
  1 23  1  0  0  0  0
  1 24  1  0  0  0  0
  2  3  1  0  0  0  0
  2 16  1  0  0  0  0
  3  4  2  0  0  0  0
  3  5  1  0  0  0  0
  5  6  1  0  0  0  0
  5 25  1  0  0  0  0
  6  7  1  0  0  0  0
  6 26  1  0  0  0  0
  6 27  1  0  0  0  0
  7  8  1  0  0  0  0
  7 28  1  0  0  0  0
  7 29  1  0  0  0  0
  8  9  2  0  0  0  0
  8 10  1  0  0  0  0
 10 11  1  0  0  0  0
 10 30  1  0  0  0  0
 11 15  1  0  0  0  0
 11 12  1  0  0  0  0
 11 31  1  0  0  0  0
 12 13  1  0  0  0  0
 12 32  1  0  0  0  0
 12 33  1  0  0  0  0
 13 14  1  0  0  0  0
 13 34  1  0  0  0  0
 13 35  1  0  0  0  0
 14 15  1  0  0  0  0
 14 36  1  0  0  0  0
 14 37  1  0  0  0  0
 15 38  1  0  0  0  0
 15 39  1  0  0  0  0
 16 21  1  0  0  0  0
 16 17  2  0  0  0  0
 17 18  1  0  0  0  0
 17 40  1  0  0  0  0
 18 19  2  0  0  0  0
 18 41  1  0  0  0  0
 19 20  1  0  0  0  0
 19 42  1  0  0  0  0
 20 21  2  0  0  0  0
 20 43  1  0  0  0  0
 21 44  1  0  0  0  0
M  CHG  1  21   1
M  END
> <s_m_source_file>
AV-unprocessed.smi

> <i_m_source_file_index>
2934

> <i_lp_mmshare_version>
43012

> <i_f3d_flags>
0

> <s_epik_input>
bjFbY0hdW2NIXVtjSF1bY0hdYzFOKFtDSDNdKUMoPU8pW05IXVtDSDJdW0NIMl1DKD1PKVtOSF1bQ0hdMltDSDJdW0NIMl1bQ0gyXVtDSDJdMg==

> <s_epik_cmdline>
J2VwaWtfcHl0aG9uJywgJy1waCcsICc3LjAnLCAnLXRuJywgJzgnLCAnLW1hJywgJzIwMCcsICctbWV0YWxfYmluZGluZycsICctaW1hZScsICc8aW5maWxlLm1hZT4nLCAnLW9tYWUnLCAnPG91dGZpbGUubWFlPic=

> <r_epik_Ionization_Penalty>
0.416827

> <r_epik_Ionization_Penalty_Charging>
0.416808

> <r_epik_Ionization_Penalty_Neutral>
1.8964e-05

> <r_epik_State_Penalty>
0.417222

> <r_epik_Charging_Adjusted_Penalty>
0.83403

> <i_epik_Tot_Q>
1

> <i_epik_Tot_abs_Q>
1

> <r_epik_Metal_State_Penalty>
0.655167

> <b_epik_Metal_Only>
0

> <s_lp_Force_Field>
OPLS_2005

> <r_lp_Energy>
36.0061

> <b_lp_Chiralities_Consistent>
1

> <s_lp_Variant>
AV-unprocessed.smi:2934-2

> <Gold.Version>
5.8.1

> <Gold.Id.Protein>
6NUR|6NUR_protein|mol2

> <Gold.PLP.Fitness>
44.7037

> <Gold.PLP.PLP>
-38.6793

> <Gold.PLP.part.hbond>
-3.0000

> <Gold.PLP.part.metal>
0.0000

> <Gold.PLP.part.buried>
-4.0266

> <Gold.PLP.part.nonpolar>
-32.5999

> <Gold.PLP.part.repulsive>
0.1428

> <Gold.PLP.ligand.clash>
3.4834

> <Gold.PLP.ligand.torsion>
2.0084

> <Gold.PLP.Chemscore.Hbond>
3.8247

> <Gold.PLP.Chemscore.CHOScore>
0.0000

> <Gold.PLP.Chemscore.Metal>
0.0000

> <Gold.Chemscore.Hbonds>
donor molecule, donor type, donor heavy atom, donor atom, acceptor molecule, acceptor atom, score
      L1  H    10    30       P1  7948  1.00
      L1  H    21    44       P1  8028  1.79
      P1  H  7989  7998       L1     4  0.59

> <Gold.PLP.Chemscore.Internal.Correction>
2.0504

> <Gold.Rescore>
     Score         DG    S(hbond)    S(metal)    S(lipo)     H(rot)  DE(clash)    DE(int)     intcor
     18.35     -20.30       2.78        0.00      85.93       1.76       0.06       1.89       ----

> <Gold.Chemscore.Fitness>
18.3480

> <Gold.Chemscore.DG>
-20.3009

> <Gold.Chemscore.ZeroCoef>
-5.4800

> <Gold.Chemscore.Hbond>
2.7787

> <Gold.Chemscore.Metal>
0.0000

> <Gold.Chemscore.Lipo>
85.9267

> <Gold.Chemscore.Internal_Hbond>
0.0000

> <Gold.Chemscore.DEClash>
0.0580

> <Gold.Chemscore.DEInternal>
1.8949

> <Gold.Chemscore.Rot>
1.7631

> <Gold.Chemscore.Internal.Correction>
   9.000000E+99

> <Gold.Chemscore.Hbonds>
donor molecule, donor type, donor heavy atom, donor atom, acceptor molecule, acceptor atom, score
      L1  H    10    30       P1  7948  0.94
      L1  H    21    44       P1  8028  0.86
      P1  H  7989  7998       L1     4  0.43

> <Gold.Chemscore.Hbond.Weighted>
-9.2810

> <Gold.Chemscore.Metal.Weighted>
-0.0000

> <Gold.Chemscore.Lipo.Weighted>
-10.0534

> <Gold.Chemscore.Internal_Hbond.Weighted>
0.0000

> <Gold.Chemscore.DEClash.Weighted>
0.0580

> <Gold.Chemscore.DEInternal.Weighted>
1.8949

> <Gold.Chemscore.Rot.Weighted>
4.5135

> <Gold.Chemscore.Internal.Correction.Weighted>
   9.000000E+99

> <Gold.Protein.RotatedTorsions>
[ 6907 6896 6895 6894 ] final  149.73 input  -60.11 | X-H torsion
[ 7974 7965 7964 7962 ] final  -63.09 input  175.53 | X-H torsion
[ 8008 7997 7996 7995 ] final   45.59 input   59.86 | X-H torsion
[ 10167 10162 10161 10158 ] final  100.75 input  -65.29 | X-H torsion
[ 10718 10713 10712 10709 ] final  -81.80 input   66.30 | X-H torsion
[ 10763 10752 10751 10750 ] final -149.48 input  -60.55 | X-H torsion
[ 11005 11000 10999 10996 ] final   95.64 input  -57.11 | X-H torsion

> <Gold.Protein.ActiveResidues>
 VAL166  LYS551  ARG553  GLY616  TRP617  ASP618  TYR619  PRO620  LYS621  CYS622 
 ASP623  PHE694  ASN695  SER759  ASP760  ASP761  ALA762  ILE779  LEU786  VAL792 
 PHE793  MET794  SER795  GLU796  ALA797  LYS798  CYS799  TRP800  GLU811  SER814 

> <Gold.Protein.RotatedAtoms>
  152.1240  133.4369  159.4688 H   0  0  0  0  0  0  0  0  0  0  0  0  # atno 6907 bound_to 6896
  150.6873  134.2501  159.4516 H   0  0  0  0  0  0  0  0  0  0  0  0  # atno 6908 bound_to 6896
  152.0379  134.9728  160.0624 H   0  0  0  0  0  0  0  0  0  0  0  0  # atno 6909 bound_to 6896
  145.7833  140.8750  143.0319 H   0  0  0  0  0  0  0  0  0  0  0  0  # atno 7974 bound_to 7965
  155.3384  140.3406  155.4239 H   0  0  0  0  0  0  0  0  0  0  0  0  # atno 8008 bound_to 7997
  156.1826  140.1669  156.8282 H   0  0  0  0  0  0  0  0  0  0  0  0  # atno 8009 bound_to 7997
  154.5350  140.0737  156.8395 H   0  0  0  0  0  0  0  0  0  0  0  0  # atno 8010 bound_to 7997
  139.7499  144.6987  151.0447 H   0  0  0  0  0  0  0  0  0  0  0  0  # atno 10167 bound_to 10162
  156.0044  130.4615  150.4007 H   0  0  0  0  0  0  0  0  0  0  0  0  # atno 10718 bound_to 10713
  154.8175  135.3308  154.7134 H   0  0  0  0  0  0  0  0  0  0  0  0  # atno 10763 bound_to 10752
  153.7773  135.6921  153.4899 H   0  0  0  0  0  0  0  0  0  0  0  0  # atno 10764 bound_to 10752
  153.2004  135.4518  155.0207 H   0  0  0  0  0  0  0  0  0  0  0  0  # atno 10765 bound_to 10752
  139.8787  134.8909  156.4041 H   0  0  0  0  0  0  0  0  0  0  0  0  # atno 11005 bound_to 11000
  144.6793  140.0020  143.7484 LP  0  0  0  0  0  0  0  0  0  0  0  0  # atno 17320 bound_to 7965
  146.0052  139.3124  143.0904 LP  0  0  0  0  0  0  0  0  0  0  0  0  # atno 17321 bound_to 7965
  140.7796  143.4821  151.0004 LP  0  0  0  0  0  0  0  0  0  0  0  0  # atno 17342 bound_to 10162
  139.8509  143.7440  152.3178 LP  0  0  0  0  0  0  0  0  0  0  0  0  # atno 17343 bound_to 10162
  157.2076  131.0453  151.2616 LP  0  0  0  0  0  0  0  0  0  0  0  0  # atno 17370 bound_to 10713
  157.3918  130.7286  149.6703 LP  0  0  0  0  0  0  0  0  0  0  0  0  # atno 17371 bound_to 10713
  140.9246  133.7621  155.9949 LP  0  0  0  0  0  0  0  0  0  0  0  0  # atno 17394 bound_to 11000
  140.8400  134.3077  157.5317 LP  0  0  0  0  0  0  0  0  0  0  0  0  # atno 17395 bound_to 11000

$$$$
