AV-unprocessed.smi:3055|AV-procd|sdf|11643|dock9
  -GOLD-   2272017 33D 1   1.00000     0.00000
 Structure written by MMmdl.
 47 49  0  0  0  0  0  0  0  0  2 V2000
  150.8905  137.1245  159.1985 O   0  0  0  0  0  0  0  0  0  0  0  0
  150.2429  136.9150  158.1726 C   0  0  0  0  0  0  0  0  0  0  0  0
  148.9534  136.5439  158.2110 N   0  0  0  0  0  0  0  0  0  0  0  0
  148.1870  136.3440  159.4326 C   0  0  0  0  0  0  0  0  0  0  0  0
  148.1198  134.8533  159.7896 C   0  0  0  0  0  0  0  0  0  0  0  0
  147.2785  134.6234  160.9463 N   0  0  0  0  0  0  0  0  0  0  0  0
  146.2139  133.7373  161.0449 C   0  0  0  0  0  0  0  0  0  0  0  0
  145.7150  133.8633  162.3219 C   0  0  0  0  0  0  0  0  0  0  0  0
  146.4528  134.8154  163.0216 N   0  0  0  0  0  0  0  0  0  0  0  0
  147.3601  135.2215  162.1428 C   0  0  0  0  0  0  0  0  0  0  0  0
  150.7616  137.0540  156.9256 N   0  0  0  0  0  0  0  0  0  0  0  0
  150.0974  136.7019  155.6581 C   0  0  0  0  0  0  0  0  0  0  0  0
  149.8336  137.9871  154.8556 C   0  0  0  0  0  0  0  0  0  0  0  0
  151.1389  138.7754  154.6361 C   0  0  0  0  0  0  0  0  0  0  0  0
  151.9043  139.0283  155.9614 C   0  0  1  0  0  0  0  0  0  0  0  0
  151.2248  140.0404  156.8236 N   0  3  0  0  0  0  0  0  0  0  0  0
  151.8920  140.3203  158.1123 C   0  0  0  0  0  0  0  0  0  0  0  0
  151.2614  141.6188  158.6010 C   0  0  0  0  0  0  0  0  0  0  0  0
  151.0229  142.4106  157.3178 C   0  0  0  0  0  0  0  0  0  0  0  0
  150.9863  141.3628  156.1958 C   0  0  0  0  0  0  0  0  0  0  0  0
  152.0775  137.6683  156.6856 C   0  0  0  0  0  0  0  0  0  0  0  0
  148.4746  136.3869  157.3360 H   0  0  0  0  0  0  0  0  0  0  0  0
  148.6529  136.9047  160.2444 H   0  0  0  0  0  0  0  0  0  0  0  0
  147.1797  136.7425  159.3000 H   0  0  0  0  0  0  0  0  0  0  0  0
  147.7223  134.2761  158.9537 H   0  0  0  0  0  0  0  0  0  0  0  0
  149.1172  134.4644  160.0002 H   0  0  0  0  0  0  0  0  0  0  0  0
  145.9070  133.1094  160.2216 H   0  0  0  0  0  0  0  0  0  0  0  0
  144.8879  133.3469  162.7865 H   0  0  0  0  0  0  0  0  0  0  0  0
  148.1007  135.9728  162.3747 H   0  0  0  0  0  0  0  0  0  0  0  0
  150.7502  136.0380  155.0893 H   0  0  0  0  0  0  0  0  0  0  0  0
  149.1651  136.1504  155.7785 H   0  0  0  0  0  0  0  0  0  0  0  0
  149.3832  137.7401  153.8938 H   0  0  0  0  0  0  0  0  0  0  0  0
  149.1099  138.6084  155.3849 H   0  0  0  0  0  0  0  0  0  0  0  0
  151.7813  138.1912  153.9759 H   0  0  0  0  0  0  0  0  0  0  0  0
  150.9382  139.6979  154.0923 H   0  0  0  0  0  0  0  0  0  0  0  0
  152.8919  139.4202  155.7130 H   0  0  0  0  0  0  0  0  0  0  0  0
  151.7654  139.5163  158.8354 H   0  0  0  0  0  0  0  0  0  0  0  0
  152.9614  140.4653  157.9502 H   0  0  0  0  0  0  0  0  0  0  0  0
  150.3072  141.4035  159.0841 H   0  0  0  0  0  0  0  0  0  0  0  0
  151.8877  142.1503  159.3182 H   0  0  0  0  0  0  0  0  0  0  0  0
  150.1016  142.9920  157.3692 H   0  0  0  0  0  0  0  0  0  0  0  0
  151.8434  143.1087  157.1474 H   0  0  0  0  0  0  0  0  0  0  0  0
  151.7667  141.5894  155.4676 H   0  0  0  0  0  0  0  0  0  0  0  0
  150.0292  141.3643  155.6732 H   0  0  0  0  0  0  0  0  0  0  0  0
  152.6658  137.7820  157.5966 H   0  0  0  0  0  0  0  0  0  0  0  0
  152.6672  136.9956  156.0612 H   0  0  0  0  0  0  0  0  0  0  0  0
  150.3129  139.6727  157.0545 H   0  0  0  0  0  0  0  0  0  0  0  0
  1  2  2  0  0  0  0
  2  3  1  0  0  0  0
  2 11  1  0  0  0  0
  3  4  1  0  0  0  0
  3 22  1  0  0  0  0
  4  5  1  0  0  0  0
  4 23  1  0  0  0  0
  4 24  1  0  0  0  0
  5  6  1  0  0  0  0
  5 25  1  0  0  0  0
  5 26  1  0  0  0  0
  6 10  1  0  0  0  0
  6  7  1  0  0  0  0
  7  8  2  0  0  0  0
  7 27  1  0  0  0  0
  8  9  1  0  0  0  0
  8 28  1  0  0  0  0
  9 10  2  0  0  0  0
 10 29  1  0  0  0  0
 11 21  1  0  0  0  0
 11 12  1  0  0  0  0
 12 13  1  0  0  0  0
 12 30  1  0  0  0  0
 12 31  1  0  0  0  0
 13 14  1  0  0  0  0
 13 32  1  0  0  0  0
 13 33  1  0  0  0  0
 14 15  1  0  0  0  0
 14 34  1  0  0  0  0
 14 35  1  0  0  0  0
 15 16  1  0  0  0  0
 15 21  1  0  0  0  0
 15 36  1  0  0  0  0
 16 20  1  0  0  0  0
 16 17  1  0  0  0  0
 16 47  1  0  0  0  0
 17 18  1  0  0  0  0
 17 37  1  0  0  0  0
 17 38  1  0  0  0  0
 18 19  1  0  0  0  0
 18 39  1  0  0  0  0
 18 40  1  0  0  0  0
 19 20  1  0  0  0  0
 19 41  1  0  0  0  0
 19 42  1  0  0  0  0
 20 43  1  0  0  0  0
 20 44  1  0  0  0  0
 21 45  1  0  0  0  0
 21 46  1  0  0  0  0
M  CHG  1  16   1
M  END
> <s_m_source_file>
AV-unprocessed.smi

> <i_m_source_file_index>
3055

> <i_lp_mmshare_version>
43012

> <i_f3d_flags>
0

> <s_epik_input>
W2NIXTFuW2NIXVtjSF1uMVtDSDJdW0NIMl1bTkhdQyg9TylOMltDSDJdW0NIMl1bQ0gyXVtDQEhdKFtDSDJdMilOM1tDSDJdW0NIMl1bQ0gyXVtDSDJdMw==

> <s_epik_cmdline>
J2VwaWtfcHl0aG9uJywgJy1waCcsICc3LjAnLCAnLXRuJywgJzgnLCAnLW1hJywgJzIwMCcsICctbWV0YWxfYmluZGluZycsICctaW1hZScsICc8aW5maWxlLm1hZT4nLCAnLW9tYWUnLCAnPG91dGZpbGUubWFlPic=

> <r_lp_tautomer_probability>
1

> <r_epik_Ionization_Penalty>
0.618392

> <r_epik_Ionization_Penalty_Charging>
0.618355

> <r_epik_Ionization_Penalty_Neutral>
3.68592e-05

> <r_epik_State_Penalty>
0.635579

> <r_epik_Charging_Adjusted_Penalty>
1.25393

> <i_epik_Tot_Q>
1

> <i_epik_Tot_abs_Q>
1

> <r_epik_Metal_State_Penalty>
0.306847

> <b_epik_Metal_Only>
0

> <s_lp_Force_Field>
OPLS_2005

> <r_lp_Energy>
66.9505

> <b_lp_Chiralities_Consistent>
1

> <s_lp_Variant>
AV-unprocessed.smi:3055-3

> <Gold.Version>
5.8.1

> <Gold.Id.Protein>
6NUR|6NUR_protein|mol2

> <Gold.PLP.Fitness>
37.4785

> <Gold.PLP.PLP>
-35.4979

> <Gold.PLP.part.hbond>
-1.6714

> <Gold.PLP.part.metal>
0.0000

> <Gold.PLP.part.buried>
-6.4481

> <Gold.PLP.part.nonpolar>
-27.9468

> <Gold.PLP.part.repulsive>
0.1806

> <Gold.PLP.ligand.clash>
0.0000

> <Gold.PLP.ligand.torsion>
0.2458

> <Gold.PLP.Chemscore.Hbond>
0.8125

> <Gold.PLP.Chemscore.CHOScore>
0.0000

> <Gold.PLP.Chemscore.Metal>
0.0000

> <Gold.Chemscore.Hbonds>
donor molecule, donor type, donor heavy atom, donor atom, acceptor molecule, acceptor atom, score
      P1  H  6896  6908       L1     1  0.73

> <Gold.PLP.Chemscore.Internal.Correction>
0.0347

> <Gold.Rescore>
     Score         DG    S(hbond)    S(metal)    S(lipo)     H(rot)  DE(clash)    DE(int)     intcor
     12.55     -12.85       0.93        0.00      75.86       1.81       0.00       0.29       ----

> <Gold.Chemscore.Fitness>
12.5527

> <Gold.Chemscore.DG>
-12.8452

> <Gold.Chemscore.ZeroCoef>
-5.4800

> <Gold.Chemscore.Hbond>
0.9325

> <Gold.Chemscore.Metal>
0.0000

> <Gold.Chemscore.Lipo>
75.8585

> <Gold.Chemscore.Internal_Hbond>
0.0000

> <Gold.Chemscore.DEClash>
0.0000

> <Gold.Chemscore.DEInternal>
0.2924

> <Gold.Chemscore.Rot>
1.8066

> <Gold.Chemscore.Internal.Correction>
   9.000000E+99

> <Gold.Chemscore.Hbonds>
donor molecule, donor type, donor heavy atom, donor atom, acceptor molecule, acceptor atom, score
      P1  H  6896  6908       L1     1  0.25

> <Gold.Chemscore.Hbond.Weighted>
-3.1147

> <Gold.Chemscore.Metal.Weighted>
-0.0000

> <Gold.Chemscore.Lipo.Weighted>
-8.8754

> <Gold.Chemscore.Internal_Hbond.Weighted>
0.0000

> <Gold.Chemscore.DEClash.Weighted>
0.0000

> <Gold.Chemscore.DEInternal.Weighted>
0.2924

> <Gold.Chemscore.Rot.Weighted>
4.6249

> <Gold.Chemscore.Internal.Correction.Weighted>
   9.000000E+99

> <Gold.Protein.RotatedTorsions>
[ 6907 6896 6895 6894 ] final -138.78 input  -60.11 | X-H torsion
[ 7974 7965 7964 7962 ] final -119.28 input  175.53 | X-H torsion
[ 8008 7997 7996 7995 ] final   -3.04 input   59.86 | X-H torsion
[ 10167 10162 10161 10158 ] final    9.05 input  -65.29 | X-H torsion
[ 10718 10713 10712 10709 ] final   43.98 input   66.30 | X-H torsion
[ 10763 10752 10751 10750 ] final -140.25 input  -60.55 | X-H torsion
[ 11005 11000 10999 10996 ] final  108.82 input  -57.11 | X-H torsion

> <Gold.Protein.ActiveResidues>
 VAL166  LYS551  ARG553  GLY616  TRP617  ASP618  TYR619  PRO620  LYS621  CYS622 
 ASP623  PHE694  ASN695  SER759  ASP760  ASP761  ALA762  ILE779  LEU786  VAL792 
 PHE793  MET794  SER795  GLU796  ALA797  LYS798  CYS799  TRP800  GLU811  SER814 

> <Gold.Protein.RotatedAtoms>
  151.0394  133.5720  159.2652 H   0  0  0  0  0  0  0  0  0  0  0  0  # atno 6907 bound_to 6896
  151.2772  135.0702  159.9166 H   0  0  0  0  0  0  0  0  0  0  0  0  # atno 6908 bound_to 6896
  152.5361  134.0114  159.7994 H   0  0  0  0  0  0  0  0  0  0  0  0  # atno 6909 bound_to 6896
  145.0643  140.8313  143.4134 H   0  0  0  0  0  0  0  0  0  0  0  0  # atno 7974 bound_to 7965
  154.6292  140.2519  155.7454 H   0  0  0  0  0  0  0  0  0  0  0  0  # atno 8008 bound_to 7997
  156.2470  140.2910  156.0556 H   0  0  0  0  0  0  0  0  0  0  0  0  # atno 8009 bound_to 7997
  155.1772  140.0388  157.2865 H   0  0  0  0  0  0  0  0  0  0  0  0  # atno 8010 bound_to 7997
  140.6278  143.8062  150.7255 H   0  0  0  0  0  0  0  0  0  0  0  0  # atno 10167 bound_to 10162
  157.4218  130.7974  149.7523 H   0  0  0  0  0  0  0  0  0  0  0  0  # atno 10718 bound_to 10713
  154.8584  135.3558  154.5677 H   0  0  0  0  0  0  0  0  0  0  0  0  # atno 10763 bound_to 10752
  153.6291  135.7003  153.5287 H   0  0  0  0  0  0  0  0  0  0  0  0  # atno 10764 bound_to 10752
  153.3064  135.4191  155.1257 H   0  0  0  0  0  0  0  0  0  0  0  0  # atno 10765 bound_to 10752
  139.8851  134.9441  156.6031 H   0  0  0  0  0  0  0  0  0  0  0  0  # atno 11005 bound_to 11000
  145.1370  139.2596  143.5509 LP  0  0  0  0  0  0  0  0  0  0  0  0  # atno 17320 bound_to 7965
  146.3526  140.1037  142.8607 LP  0  0  0  0  0  0  0  0  0  0  0  0  # atno 17321 bound_to 7965
  140.1667  143.4229  152.2030 LP  0  0  0  0  0  0  0  0  0  0  0  0  # atno 17342 bound_to 10162
  139.5496  144.7327  151.4477 LP  0  0  0  0  0  0  0  0  0  0  0  0  # atno 17343 bound_to 10162
  155.9883  130.3960  150.3124 LP  0  0  0  0  0  0  0  0  0  0  0  0  # atno 17370 bound_to 10713
  157.1272  131.0262  151.2984 LP  0  0  0  0  0  0  0  0  0  0  0  0  # atno 17371 bound_to 10713
  140.7868  133.8615  155.8613 LP  0  0  0  0  0  0  0  0  0  0  0  0  # atno 17394 bound_to 11000
  140.9712  134.1528  157.4574 LP  0  0  0  0  0  0  0  0  0  0  0  0  # atno 17395 bound_to 11000

$$$$
