AV-unprocessed.smi:101|AV-procd|sdf|929|dock10
  -GOLD-   2262017443D 1   1.00000     0.00000
 Structure written by MMmdl.
 43 45  0  0  0  0  0  0  0  0  2 V2000
  147.9679  137.1827  159.1877 C   0  0  0  0  0  0  0  0  0  0  0  0
  148.7409  136.8150  157.9329 C   0  0  0  0  0  0  0  0  0  0  0  0
  148.9042  137.6783  156.9061 C   0  0  0  0  0  0  0  0  0  0  0  0
  149.6107  137.3461  155.7587 N   0  0  0  0  0  0  0  0  0  0  0  0
  149.8722  138.3558  154.6450 C   0  0  2  0  0  0  0  0  0  0  0  0
  150.7500  139.3166  155.1401 O   0  0  0  0  0  0  0  0  0  0  0  0
  149.9895  140.3833  155.6893 C   0  0  1  0  0  0  0  0  0  0  0  0
  150.8698  141.6221  155.9087 C   0  0  0  0  0  0  0  0  0  0  0  0
  151.0642  141.7998  157.3019 O   0  0  0  0  0  0  0  0  0  0  0  0
  152.0168  141.1025  157.9480 C   0  0  0  0  0  0  0  0  0  0  0  0
  152.5516  140.0908  157.4896 O   0  0  0  0  0  0  0  0  0  0  0  0
  152.3598  141.6862  159.2770 C   0  0  0  0  0  0  0  0  0  0  0  0
  151.7760  142.9141  159.6672 C   0  0  0  0  0  0  0  0  0  0  0  0
  152.0804  143.4880  160.9171 C   0  0  0  0  0  0  0  0  0  0  0  0
  152.9723  142.8411  161.7922 C   0  0  0  0  0  0  0  0  0  0  0  0
  153.5602  141.6196  161.4156 C   0  0  0  0  0  0  0  0  0  0  0  0
  153.2578  141.0444  160.1659 C   0  0  0  0  0  0  0  0  0  0  0  0
  148.8335  140.5342  154.6840 C   0  0  1  0  0  0  0  0  0  0  0  0
  149.1652  141.4650  153.6649 O   0  0  0  0  0  0  0  0  0  0  0  0
  148.6183  139.1078  154.1474 C   0  0  1  0  0  0  0  0  0  0  0  0
  148.4891  139.0590  152.7384 O   0  0  0  0  0  0  0  0  0  0  0  0
  150.2751  136.0891  155.7050 C   0  0  0  0  0  0  0  0  0  0  0  0
  150.9883  135.8452  154.7316 O   0  0  0  0  0  0  0  0  0  0  0  0
  150.1000  135.2037  156.7270 N   0  5  0  0  0  0  0  0  0  0  0  0
  149.3534  135.4872  157.8312 C   0  0  0  0  0  0  0  0  0  0  0  0
  149.1881  134.6712  158.7375 O   0  0  0  0  0  0  0  0  0  0  0  0
  147.5803  138.2001  159.1322 H   0  0  0  0  0  0  0  0  0  0  0  0
  148.6115  137.1132  160.0652 H   0  0  0  0  0  0  0  0  0  0  0  0
  147.1234  136.5070  159.3256 H   0  0  0  0  0  0  0  0  0  0  0  0
  148.4789  138.6633  157.0123 H   0  0  0  0  0  0  0  0  0  0  0  0
  150.3362  137.7910  153.8354 H   0  0  0  0  0  0  0  0  0  0  0  0
  149.5793  140.0706  156.6501 H   0  0  0  0  0  0  0  0  0  0  0  0
  151.8265  141.5127  155.3958 H   0  0  0  0  0  0  0  0  0  0  0  0
  150.3749  142.5076  155.5072 H   0  0  0  0  0  0  0  0  0  0  0  0
  151.0883  143.4293  159.0121 H   0  0  0  0  0  0  0  0  0  0  0  0
  151.6283  144.4260  161.2039 H   0  0  0  0  0  0  0  0  0  0  0  0
  153.2052  143.2811  162.7508 H   0  0  0  0  0  0  0  0  0  0  0  0
  154.2456  141.1216  162.0859 H   0  0  0  0  0  0  0  0  0  0  0  0
  153.7281  140.1064  159.9081 H   0  0  0  0  0  0  0  0  0  0  0  0
  147.9363  140.9017  155.1830 H   0  0  0  0  0  0  0  0  0  0  0  0
  149.1165  141.0267  152.8294 H   0  0  0  0  0  0  0  0  0  0  0  0
  147.7082  138.6597  154.5410 H   0  0  0  0  0  0  0  0  0  0  0  0
  148.6175  138.1642  152.4622 H   0  0  0  0  0  0  0  0  0  0  0  0
  1  2  1  0  0  0  0
  1 27  1  0  0  0  0
  1 28  1  0  0  0  0
  1 29  1  0  0  0  0
  2 25  1  0  0  0  0
  2  3  2  0  0  0  0
  3  4  1  0  0  0  0
  3 30  1  0  0  0  0
  4  5  1  0  0  0  0
  4 22  1  0  0  0  0
  5 20  1  0  0  0  0
  5  6  1  0  0  0  0
  5 31  1  0  0  0  0
  6  7  1  0  0  0  0
  7  8  1  0  0  0  0
  7 18  1  0  0  0  0
  7 32  1  0  0  0  0
  8  9  1  0  0  0  0
  8 33  1  0  0  0  0
  8 34  1  0  0  0  0
  9 10  1  0  0  0  0
 10 11  2  0  0  0  0
 10 12  1  0  0  0  0
 12 17  1  0  0  0  0
 12 13  2  0  0  0  0
 13 14  1  0  0  0  0
 13 35  1  0  0  0  0
 14 15  2  0  0  0  0
 14 36  1  0  0  0  0
 15 16  1  0  0  0  0
 15 37  1  0  0  0  0
 16 17  2  0  0  0  0
 16 38  1  0  0  0  0
 17 39  1  0  0  0  0
 18 19  1  0  0  0  0
 18 20  1  0  0  0  0
 18 40  1  0  0  0  0
 19 41  1  0  0  0  0
 20 21  1  0  0  0  0
 20 42  1  0  0  0  0
 21 43  1  0  0  0  0
 22 23  2  0  0  0  0
 22 24  1  0  0  0  0
 24 25  1  0  0  0  0
 25 26  2  0  0  0  0
M  CHG  1  24  -1
M  END
> <s_m_source_file>
AV-unprocessed.smi

> <i_m_source_file_index>
101

> <i_lp_mmshare_version>
43012

> <i_f3d_flags>
0

> <s_epik_input>
Tz1jMVtuSF1jKD1PKW4oW2NIXWMxW0NIM10pW0NAQEhdMk9bQ0BIXShbQ0BASF0oW09IXSlbQ0BIXTJbT0hdKVtDSDJdT0MoPU8pYzNbY0hdW2NIXVtjSF1bY0hdW2NIXTM=

> <s_epik_cmdline>
J2VwaWtfcHl0aG9uJywgJy1waCcsICc3LjAnLCAnLXRuJywgJzgnLCAnLW1hJywgJzIwMCcsICctbWV0YWxfYmluZGluZycsICctaW1hZScsICc8aW5maWxlLm1hZT4nLCAnLW9tYWUnLCAnPG91dGZpbGUubWFlPic=

> <r_lp_tautomer_probability>
0.999537

> <r_epik_Ionization_Penalty>
3.21006

> <r_epik_Ionization_Penalty_Charging>
5.75142e-08

> <r_epik_Ionization_Penalty_Neutral>
3.21006

> <r_epik_State_Penalty>
3.20925

> <r_epik_Charging_Adjusted_Penalty>
3.20925

> <i_epik_Tot_Q>
-1

> <i_epik_Tot_abs_Q>
1

> <r_epik_Metal_State_Penalty>
0.119957

> <b_epik_Metal_Only>
1

> <s_epik_Chemistry_Notes>
This compound has an ester and may undergo hydrolysis at high or low pH. This compound contains an acetal/aminal-like group ( X-CH(R)-Y where X, Y are N, S, or O) that may be acid/base labile, releasing an aldehyde.

> <s_lp_Force_Field>
OPLS_2005

> <r_lp_Energy>
45.1107

> <b_lp_Chiralities_Consistent>
1

> <s_lp_Variant>
AV-unprocessed.smi:101-17

> <Gold.Version>
5.8.1

> <Gold.Id.Protein>
6NUR|6NUR_protein|mol2

> <Gold.PLP.Fitness>
56.5281

> <Gold.PLP.PLP>
-44.0381

> <Gold.PLP.part.hbond>
-6.4022

> <Gold.PLP.part.metal>
0.0000

> <Gold.PLP.part.buried>
-5.9317

> <Gold.PLP.part.nonpolar>
-30.3432

> <Gold.PLP.part.repulsive>
0.2733

> <Gold.PLP.ligand.clash>
0.0000

> <Gold.PLP.ligand.torsion>
1.3451

> <Gold.PLP.Chemscore.Hbond>
5.0130

> <Gold.PLP.Chemscore.CHOScore>
0.0000

> <Gold.PLP.Chemscore.Metal>
0.0000

> <Gold.Chemscore.Hbonds>
donor molecule, donor type, donor heavy atom, donor atom, acceptor molecule, acceptor atom, score
      L1  H    19    41       P1  7957  1.00
      L1  H    21    43       P1  7948  1.00
      P1  H  6896  6908       L1    26  1.00
      P1  H  7989  7998       L1     6  0.01
      P1  H  7997  8010       L1    11  0.99
      P1  H 10752 10765       L1    23  1.00

> <Gold.PLP.Chemscore.Internal.Correction>
0.1412

> <Gold.Rescore>
     Score         DG    S(hbond)    S(metal)    S(lipo)     H(rot)  DE(clash)    DE(int)     intcor
     22.30     -23.60       4.68        0.00      92.66       3.27       0.02       1.28       ----

> <Gold.Chemscore.Fitness>
22.3031

> <Gold.Chemscore.DG>
-23.6018

> <Gold.Chemscore.ZeroCoef>
-5.4800

> <Gold.Chemscore.Hbond>
4.6829

> <Gold.Chemscore.Metal>
0.0000

> <Gold.Chemscore.Lipo>
92.6571

> <Gold.Chemscore.Internal_Hbond>
0.0000

> <Gold.Chemscore.DEClash>
0.0169

> <Gold.Chemscore.DEInternal>
1.2819

> <Gold.Chemscore.Rot>
3.2656

> <Gold.Chemscore.Internal.Correction>
   9.000000E+99

> <Gold.Chemscore.Hbonds>
donor molecule, donor type, donor heavy atom, donor atom, acceptor molecule, acceptor atom, score
      L1  H    19    41       P1  7957  0.97
      L1  H    21    43       P1  7948  0.94
      P1  H  6896  6908       L1    26  0.83
      P1  H  7997  8010       L1    11  0.86
      P1  H 10752 10765       L1    23  0.97

> <Gold.Chemscore.Hbond.Weighted>
-15.6408

> <Gold.Chemscore.Metal.Weighted>
-0.0000

> <Gold.Chemscore.Lipo.Weighted>
-10.8409

> <Gold.Chemscore.Internal_Hbond.Weighted>
0.0000

> <Gold.Chemscore.DEClash.Weighted>
0.0169

> <Gold.Chemscore.DEInternal.Weighted>
1.2819

> <Gold.Chemscore.Rot.Weighted>
8.3598

> <Gold.Chemscore.Internal.Correction.Weighted>
   9.000000E+99

> <Gold.Protein.RotatedTorsions>
[ 6907 6896 6895 6894 ] final  136.16 input  -60.11 | X-H torsion
[ 7974 7965 7964 7962 ] final  -99.93 input  175.53 | X-H torsion
[ 8008 7997 7996 7995 ] final   42.67 input   59.86 | X-H torsion
[ 10167 10162 10161 10158 ] final  -96.23 input  -65.29 | X-H torsion
[ 10718 10713 10712 10709 ] final  -83.61 input   66.30 | X-H torsion
[ 10763 10752 10751 10750 ] final  166.21 input  -60.55 | X-H torsion
[ 11005 11000 10999 10996 ] final   58.46 input  -57.11 | X-H torsion

> <Gold.Protein.ActiveResidues>
 VAL166  LYS551  ARG553  GLY616  TRP617  ASP618  TYR619  PRO620  LYS621  CYS622 
 ASP623  PHE694  ASN695  SER759  ASP760  ASP761  ALA762  ILE779  LEU786  VAL792 
 PHE793  MET794  SER795  GLU796  ALA797  LYS798  CYS799  TRP800  GLU811  SER814 

> <Gold.Protein.RotatedAtoms>
  152.2925  133.5575  159.5566 H   0  0  0  0  0  0  0  0  0  0  0  0  # atno 6907 bound_to 6896
  150.7241  134.0408  159.3774 H   0  0  0  0  0  0  0  0  0  0  0  0  # atno 6908 bound_to 6896
  151.8313  135.0621  160.0488 H   0  0  0  0  0  0  0  0  0  0  0  0  # atno 6909 bound_to 6896
  145.3011  140.9377  143.2823 H   0  0  0  0  0  0  0  0  0  0  0  0  # atno 7974 bound_to 7965
  155.2900  140.3378  155.4253 H   0  0  0  0  0  0  0  0  0  0  0  0  # atno 8008 bound_to 7997
  156.2050  140.1747  156.7859 H   0  0  0  0  0  0  0  0  0  0  0  0  # atno 8009 bound_to 7997
  154.5609  140.0687  156.8801 H   0  0  0  0  0  0  0  0  0  0  0  0  # atno 8010 bound_to 7997
  140.2959  143.3192  152.0298 H   0  0  0  0  0  0  0  0  0  0  0  0  # atno 10167 bound_to 10162
  156.0016  130.4671  150.4284 H   0  0  0  0  0  0  0  0  0  0  0  0  # atno 10718 bound_to 10713
  154.3356  135.2754  155.2449 H   0  0  0  0  0  0  0  0  0  0  0  0  # atno 10763 bound_to 10752
  154.4742  135.5875  153.6346 H   0  0  0  0  0  0  0  0  0  0  0  0  # atno 10764 bound_to 10752
  152.9862  135.6095  154.3553 H   0  0  0  0  0  0  0  0  0  0  0  0  # atno 10765 bound_to 10752
  140.0376  134.5921  155.9424 H   0  0  0  0  0  0  0  0  0  0  0  0  # atno 11005 bound_to 11000
  144.9093  139.4549  143.6595 LP  0  0  0  0  0  0  0  0  0  0  0  0  # atno 17320 bound_to 7965
  146.3151  139.7891  142.8989 LP  0  0  0  0  0  0  0  0  0  0  0  0  # atno 17321 bound_to 7965
  139.4926  144.6491  151.6715 LP  0  0  0  0  0  0  0  0  0  0  0  0  # atno 17342 bound_to 10162
  140.5692  144.0137  150.6208 LP  0  0  0  0  0  0  0  0  0  0  0  0  # atno 17343 bound_to 10162
  157.2335  131.0509  151.2478 LP  0  0  0  0  0  0  0  0  0  0  0  0  # atno 17370 bound_to 10713
  157.3689  130.7170  149.6551 LP  0  0  0  0  0  0  0  0  0  0  0  0  # atno 17371 bound_to 10713
  141.1866  133.6557  156.5244 LP  0  0  0  0  0  0  0  0  0  0  0  0  # atno 17394 bound_to 11000
  140.4122  134.7262  157.4842 LP  0  0  0  0  0  0  0  0  0  0  0  0  # atno 17395 bound_to 11000

$$$$
