AV-unprocessed.smi:1452|AV-procd|sdf|5906|dock3
  -GOLD-   22720 5593D 1   1.00000     0.00000
 Structure written by MMmdl.
 40 42  0  0  0  0  0  0  0  0  2 V2000
  145.5396  137.8430  154.1743 O   0  0  0  0  0  0  0  0  0  0  0  0
  146.4836  137.1959  153.7244 C   0  0  0  0  0  0  0  0  0  0  0  0
  147.7120  137.7407  153.5997 N   0  0  0  0  0  0  0  0  0  0  0  0
  148.1903  139.0465  153.9150 C   0  0  0  0  0  0  0  0  0  0  0  0
  147.2884  140.0925  153.6153 C   0  0  0  0  0  0  0  0  0  0  0  0
  147.6466  141.4239  153.9027 C   0  0  0  0  0  0  0  0  0  0  0  0
  148.8991  141.6771  154.4892 C   0  0  0  0  0  0  0  0  0  0  0  0
  149.7364  140.5804  154.7619 C   0  0  0  0  0  0  0  0  0  0  0  0
  149.3950  139.3037  154.4864 N   0  0  0  0  0  0  0  0  0  0  0  0
  146.3632  135.9178  153.3292 N   0  0  0  0  0  0  0  0  0  0  0  0
  145.1540  135.1102  153.4485 C   0  0  1  0  0  0  0  0  0  0  0  0
  143.9300  135.7594  152.8156 C   0  0  0  0  0  0  0  0  0  0  0  0
  142.9745  134.5774  152.6241 C   0  0  0  0  0  0  0  0  0  0  0  0
  143.8157  133.3629  152.4870 N   0  3  1  0  0  0  0  0  0  0  0  0
  143.5710  132.5974  151.2351 C   0  0  0  0  0  0  0  0  0  0  0  0
  144.7120  131.6056  150.9649 C   0  0  0  0  0  0  0  0  0  0  0  0
  146.0552  132.3325  150.7656 C   0  0  0  0  0  0  0  0  0  0  0  0
  146.0812  133.7186  151.4375 C   0  0  0  0  0  0  0  0  0  0  0  0
  145.2346  133.7474  152.7349 C   0  0  1  0  0  0  0  0  0  0  0  0
  148.3834  137.1572  153.1220 H   0  0  0  0  0  0  0  0  0  0  0  0
  146.3276  139.8814  153.1681 H   0  0  0  0  0  0  0  0  0  0  0  0
  146.9709  142.2359  153.6780 H   0  0  0  0  0  0  0  0  0  0  0  0
  149.2089  142.6844  154.7252 H   0  0  0  0  0  0  0  0  0  0  0  0
  150.7055  140.7304  155.2142 H   0  0  0  0  0  0  0  0  0  0  0  0
  147.1876  135.4593  152.9667 H   0  0  0  0  0  0  0  0  0  0  0  0
  144.9318  134.9443  154.5051 H   0  0  0  0  0  0  0  0  0  0  0  0
  143.5022  136.5518  153.4305 H   0  0  0  0  0  0  0  0  0  0  0  0
  144.1868  136.1879  151.8453 H   0  0  0  0  0  0  0  0  0  0  0  0
  142.3517  134.4533  153.5105 H   0  0  0  0  0  0  0  0  0  0  0  0
  142.3048  134.7355  151.7775 H   0  0  0  0  0  0  0  0  0  0  0  0
  142.6181  132.0741  151.3197 H   0  0  0  0  0  0  0  0  0  0  0  0
  143.4822  133.2797  150.3878 H   0  0  0  0  0  0  0  0  0  0  0  0
  144.7908  130.9179  151.8082 H   0  0  0  0  0  0  0  0  0  0  0  0
  144.4876  130.9921  150.0917 H   0  0  0  0  0  0  0  0  0  0  0  0
  146.8577  131.7094  151.1621 H   0  0  0  0  0  0  0  0  0  0  0  0
  146.2630  132.4521  149.7017 H   0  0  0  0  0  0  0  0  0  0  0  0
  147.1169  133.9962  151.6348 H   0  0  0  0  0  0  0  0  0  0  0  0
  145.6970  134.4646  150.7404 H   0  0  0  0  0  0  0  0  0  0  0  0
  145.6656  133.0178  153.4222 H   0  0  0  0  0  0  0  0  0  0  0  0
  143.5601  132.7546  153.2520 H   0  0  0  0  0  0  0  0  0  0  0  0
  1  2  2  0  0  0  0
  2  3  1  0  0  0  0
  2 10  1  0  0  0  0
  3  4  1  0  0  0  0
  3 20  1  0  0  0  0
  4  9  1  0  0  0  0
  4  5  2  0  0  0  0
  5  6  1  0  0  0  0
  5 21  1  0  0  0  0
  6  7  2  0  0  0  0
  6 22  1  0  0  0  0
  7  8  1  0  0  0  0
  7 23  1  0  0  0  0
  8  9  2  0  0  0  0
  8 24  1  0  0  0  0
 10 11  1  0  0  0  0
 10 25  1  0  0  0  0
 11 19  1  0  0  0  0
 11 12  1  0  0  0  0
 11 26  1  0  0  0  0
 12 13  1  0  0  0  0
 12 27  1  0  0  0  0
 12 28  1  0  0  0  0
 13 14  1  0  0  0  0
 13 29  1  0  0  0  0
 13 30  1  0  0  0  0
 14 19  1  0  0  0  0
 14 15  1  0  0  0  0
 14 40  1  0  0  0  0
 15 16  1  0  0  0  0
 15 31  1  0  0  0  0
 15 32  1  0  0  0  0
 16 17  1  0  0  0  0
 16 33  1  0  0  0  0
 16 34  1  0  0  0  0
 17 18  1  0  0  0  0
 17 35  1  0  0  0  0
 17 36  1  0  0  0  0
 18 19  1  0  0  0  0
 18 37  1  0  0  0  0
 18 38  1  0  0  0  0
 19 39  1  0  0  0  0
M  CHG  1  14   1
M  END
> <s_m_source_file>
AV-unprocessed.smi

> <i_m_source_file_index>
1452

> <i_lp_mmshare_version>
43012

> <i_f3d_flags>
0

> <s_epik_input>
W0NIMl0xW0NIMl1bQ0gyXVtDSDJdW0NASF0oTjEyKVtDQEBIXShbQ0gyXVtDSDJdMilbTkhdQyg9TylbTkhdYzNbY0hdW2NIXVtjSF1bY0hdbjM=

> <s_epik_cmdline>
J2VwaWtfcHl0aG9uJywgJy1waCcsICc3LjAnLCAnLXRuJywgJzgnLCAnLW1hJywgJzIwMCcsICctbWV0YWxfYmluZGluZycsICctaW1hZScsICc8aW5maWxlLm1hZT4nLCAnLW9tYWUnLCAnPG91dGZpbGUubWFlPic=

> <r_epik_Ionization_Penalty>
0.00100813

> <r_epik_Ionization_Penalty_Charging>
0.000974069

> <r_epik_Ionization_Penalty_Neutral>
3.40643e-05

> <r_epik_State_Penalty>
0.000633842

> <r_epik_Charging_Adjusted_Penalty>
0.00160791

> <i_epik_Tot_Q>
1

> <i_epik_Tot_abs_Q>
1

> <r_epik_Metal_State_Penalty>
-0

> <b_epik_Metal_Only>
0

> <s_lp_Force_Field>
OPLS_2005

> <r_lp_Energy>
45.06

> <b_lp_Chiralities_Consistent>
1

> <s_lp_Variant>
AV-unprocessed.smi:1452-4

> <Gold.Version>
5.8.1

> <Gold.Id.Protein>
6NUR|6NUR_protein|mol2

> <Gold.PLP.Fitness>
41.0491

> <Gold.PLP.PLP>
-31.6379

> <Gold.PLP.part.hbond>
-3.0000

> <Gold.PLP.part.metal>
0.0000

> <Gold.PLP.part.buried>
-2.6047

> <Gold.PLP.part.nonpolar>
-26.2677

> <Gold.PLP.part.repulsive>
0.2788

> <Gold.PLP.ligand.clash>
0.0000

> <Gold.PLP.ligand.torsion>
0.3556

> <Gold.PLP.Chemscore.Hbond>
3.3731

> <Gold.PLP.Chemscore.CHOScore>
0.0000

> <Gold.PLP.Chemscore.Metal>
0.0000

> <Gold.Chemscore.Hbonds>
donor molecule, donor type, donor heavy atom, donor atom, acceptor molecule, acceptor atom, score
      L1  H     3    20       P1  7948  1.00
      L1  H    10    25       P1  7948  0.36
      L1  H    14    40       P1 10957  2.00

> <Gold.PLP.Chemscore.Internal.Correction>
0.0032

> <Gold.Rescore>
     Score         DG    S(hbond)    S(metal)    S(lipo)     H(rot)  DE(clash)    DE(int)     intcor
     17.74     -19.39       2.59        0.00      66.73       1.00       0.04       1.62       ----

> <Gold.Chemscore.Fitness>
17.7380

> <Gold.Chemscore.DG>
-19.3933

> <Gold.Chemscore.ZeroCoef>
-5.4800

> <Gold.Chemscore.Hbond>
2.5945

> <Gold.Chemscore.Metal>
0.0000

> <Gold.Chemscore.Lipo>
66.7322

> <Gold.Chemscore.Internal_Hbond>
0.0000

> <Gold.Chemscore.DEClash>
0.0354

> <Gold.Chemscore.DEInternal>
1.6200

> <Gold.Chemscore.Rot>
1.0000

> <Gold.Chemscore.Internal.Correction>
   9.000000E+99

> <Gold.Chemscore.Hbonds>
donor molecule, donor type, donor heavy atom, donor atom, acceptor molecule, acceptor atom, score
      L1  H     3    20       P1  7948  0.98
      L1  H    10    25       P1  7948  0.37
      L1  H    14    40       P1 10957  0.42

> <Gold.Chemscore.Hbond.Weighted>
-8.6657

> <Gold.Chemscore.Metal.Weighted>
-0.0000

> <Gold.Chemscore.Lipo.Weighted>
-7.8077

> <Gold.Chemscore.Internal_Hbond.Weighted>
0.0000

> <Gold.Chemscore.DEClash.Weighted>
0.0354

> <Gold.Chemscore.DEInternal.Weighted>
1.6200

> <Gold.Chemscore.Rot.Weighted>
2.5600

> <Gold.Chemscore.Internal.Correction.Weighted>
   9.000000E+99

> <Gold.Protein.RotatedTorsions>
[ 6907 6896 6895 6894 ] final  140.54 input  -60.11 | X-H torsion
[ 7974 7965 7964 7962 ] final -127.28 input  175.53 | X-H torsion
[ 8008 7997 7996 7995 ] final    6.37 input   59.86 | X-H torsion
[ 10167 10162 10161 10158 ] final  167.61 input  -65.29 | X-H torsion
[ 10718 10713 10712 10709 ] final   89.90 input   66.30 | X-H torsion
[ 10763 10752 10751 10750 ] final  -31.36 input  -60.55 | X-H torsion
[ 11005 11000 10999 10996 ] final  -51.88 input  -57.11 | X-H torsion

> <Gold.Protein.ActiveResidues>
 VAL166  LYS551  ARG553  GLY616  TRP617  ASP618  TYR619  PRO620  LYS621  CYS622 
 ASP623  PHE694  ASN695  SER759  ASP760  ASP761  ALA762  ILE779  LEU786  VAL792 
 PHE793  MET794  SER795  GLU796  ALA797  LYS798  CYS799  TRP800  GLU811  SER814 

> <Gold.Protein.RotatedAtoms>
  152.2419  133.5142  159.5274 H   0  0  0  0  0  0  0  0  0  0  0  0  # atno 6907 bound_to 6896
  150.7067  134.1078  159.3998 H   0  0  0  0  0  0  0  0  0  0  0  0  # atno 6908 bound_to 6896
  151.8999  135.0382  160.0556 H   0  0  0  0  0  0  0  0  0  0  0  0  # atno 6909 bound_to 6896
  144.9787  140.7619  143.4625 H   0  0  0  0  0  0  0  0  0  0  0  0  # atno 7974 bound_to 7965
  154.7401  140.2747  155.6381 H   0  0  0  0  0  0  0  0  0  0  0  0  # atno 8008 bound_to 7997
  156.2871  140.2699  156.2052 H   0  0  0  0  0  0  0  0  0  0  0  0  # atno 8009 bound_to 7997
  155.0269  140.0371  157.2449 H   0  0  0  0  0  0  0  0  0  0  0  0  # atno 8010 bound_to 7997
  139.4949  144.3903  151.9524 H   0  0  0  0  0  0  0  0  0  0  0  0  # atno 10167 bound_to 10162
  157.6957  131.0350  150.3496 H   0  0  0  0  0  0  0  0  0  0  0  0  # atno 10718 bound_to 10713
  153.7960  135.6894  153.4863 H   0  0  0  0  0  0  0  0  0  0  0  0  # atno 10763 bound_to 10752
  153.1719  135.4539  154.9912 H   0  0  0  0  0  0  0  0  0  0  0  0  # atno 10764 bound_to 10752
  154.8025  135.3343  154.7453 H   0  0  0  0  0  0  0  0  0  0  0  0  # atno 10765 bound_to 10752
  141.0894  133.6635  156.3942 H   0  0  0  0  0  0  0  0  0  0  0  0  # atno 11005 bound_to 11000
  145.2452  139.2055  143.4971 LP  0  0  0  0  0  0  0  0  0  0  0  0  # atno 17320 bound_to 7965
  146.3402  140.2355  142.8594 LP  0  0  0  0  0  0  0  0  0  0  0  0  # atno 17321 bound_to 7965
  140.3341  144.3282  150.5981 LP  0  0  0  0  0  0  0  0  0  0  0  0  # atno 17342 bound_to 10162
  140.5621  143.2191  151.7748 LP  0  0  0  0  0  0  0  0  0  0  0  0  # atno 17343 bound_to 10162
  156.3946  130.3904  149.7004 LP  0  0  0  0  0  0  0  0  0  0  0  0  # atno 17370 bound_to 10713
  156.4343  130.7830  151.2850 LP  0  0  0  0  0  0  0  0  0  0  0  0  # atno 17371 bound_to 10713
  140.5286  134.6234  157.5342 LP  0  0  0  0  0  0  0  0  0  0  0  0  # atno 17394 bound_to 11000
  139.9718  134.7281  156.0027 LP  0  0  0  0  0  0  0  0  0  0  0  0  # atno 17395 bound_to 11000

$$$$
