AV-unprocessed.smi:701|AV-procd|sdf|3410|dock5
  -GOLD-   22720 0393D 1   1.00000     0.00000
 Structure written by MMmdl.
 49 51  0  0  0  0  0  0  0  0  1 V2000
  143.7449  137.7122  155.4803 C   0  0  0  0  0  0  0  0  0  0  0  0
  145.1151  137.8092  154.8061 C   0  0  0  0  0  0  0  0  0  0  0  0
  145.7783  138.9655  155.2875 O   0  0  0  0  0  0  0  0  0  0  0  0
  147.1201  139.0643  154.8403 C   0  0  2  0  0  0  0  0  0  0  0  0
  148.1171  138.2645  155.6839 C   0  0  0  0  0  0  0  0  0  0  0  0
  149.0772  139.4298  155.4517 C   0  0  2  0  0  0  0  0  0  0  0  0
  149.9077  139.7153  156.6162 N   0  0  0  0  0  0  0  0  0  0  0  0
  151.0996  140.3270  156.5626 C   0  0  0  0  0  0  0  0  0  0  0  0
  151.6055  140.7249  155.5124 O   0  0  0  0  0  0  0  0  0  0  0  0
  151.8145  140.5448  157.9028 C   0  0  0  0  0  0  0  0  0  0  0  0
  151.8335  141.9580  158.3064 N   0  0  0  0  0  0  0  0  0  0  0  0
  151.3118  142.9352  157.4704 C   0  0  0  0  0  0  0  0  0  0  0  0
  151.3123  144.2548  157.7751 C   0  0  0  0  0  0  0  0  0  0  0  0
  151.8794  144.7217  159.0357 C   0  0  0  0  0  0  0  0  0  0  0  0
  151.9252  145.8939  159.4021 O   0  0  0  0  0  0  0  0  0  0  0  0
  152.3956  143.7089  159.8482 N   0  0  0  0  0  0  0  0  0  0  0  0
  152.4002  142.3479  159.5396 C   0  0  0  0  0  0  0  0  0  0  0  0
  152.8864  141.5370  160.3271 O   0  0  0  0  0  0  0  0  0  0  0  0
  147.8487  140.3652  155.2768 C   0  0  0  0  0  0  0  0  0  0  0  0
  147.3241  141.0723  156.5539 C   0  0  0  0  0  0  0  0  0  0  0  0
  146.0390  141.8929  156.3311 C   0  0  0  0  0  0  0  0  0  0  0  0
  146.2047  142.9024  155.1893 C   0  0  0  0  0  0  0  0  0  0  0  0
  146.7141  142.2168  153.9163 C   0  0  0  0  0  0  0  0  0  0  0  0
  148.0116  141.4416  154.1916 C   0  0  0  0  0  0  0  0  0  0  0  0
  152.8009  143.9846  160.7309 H   0  0  0  0  0  0  0  0  0  0  0  0
  143.2014  136.8329  155.1340 H   0  0  0  0  0  0  0  0  0  0  0  0
  143.1373  138.5902  155.2598 H   0  0  0  0  0  0  0  0  0  0  0  0
  143.8471  137.6383  156.5632 H   0  0  0  0  0  0  0  0  0  0  0  0
  145.7003  136.9151  155.0252 H   0  0  0  0  0  0  0  0  0  0  0  0
  144.9948  137.8686  153.7234 H   0  0  0  0  0  0  0  0  0  0  0  0
  147.2275  138.8726  153.7698 H   0  0  0  0  0  0  0  0  0  0  0  0
  147.8056  138.1446  156.7232 H   0  0  0  0  0  0  0  0  0  0  0  0
  148.4315  137.3185  155.2426 H   0  0  0  0  0  0  0  0  0  0  0  0
  149.6422  139.2971  154.5256 H   0  0  0  0  0  0  0  0  0  0  0  0
  149.5559  139.4255  157.5172 H   0  0  0  0  0  0  0  0  0  0  0  0
  151.3072  139.9410  158.6567 H   0  0  0  0  0  0  0  0  0  0  0  0
  152.8328  140.1526  157.8578 H   0  0  0  0  0  0  0  0  0  0  0  0
  150.8857  142.6358  156.5234 H   0  0  0  0  0  0  0  0  0  0  0  0
  150.8926  144.9693  157.0819 H   0  0  0  0  0  0  0  0  0  0  0  0
  147.1417  140.3500  157.3498 H   0  0  0  0  0  0  0  0  0  0  0  0
  148.0891  141.7458  156.9422 H   0  0  0  0  0  0  0  0  0  0  0  0
  145.2012  141.2326  156.1101 H   0  0  0  0  0  0  0  0  0  0  0  0
  145.7727  142.4168  157.2493 H   0  0  0  0  0  0  0  0  0  0  0  0
  145.2570  143.4042  154.9922 H   0  0  0  0  0  0  0  0  0  0  0  0
  146.9099  143.6782  155.4902 H   0  0  0  0  0  0  0  0  0  0  0  0
  145.9532  141.5349  153.5344 H   0  0  0  0  0  0  0  0  0  0  0  0
  146.8830  142.9610  153.1376 H   0  0  0  0  0  0  0  0  0  0  0  0
  148.7933  142.1449  154.4817 H   0  0  0  0  0  0  0  0  0  0  0  0
  148.3569  140.9912  153.2605 H   0  0  0  0  0  0  0  0  0  0  0  0
  1  2  1  0  0  0  0
  1 26  1  0  0  0  0
  1 27  1  0  0  0  0
  1 28  1  0  0  0  0
  2  3  1  0  0  0  0
  2 29  1  0  0  0  0
  2 30  1  0  0  0  0
  3  4  1  0  0  0  0
  4 19  1  0  0  0  0
  4  5  1  0  0  0  0
  4 31  1  0  0  0  0
  5  6  1  0  0  0  0
  5 32  1  0  0  0  0
  5 33  1  0  0  0  0
  6  7  1  0  0  0  0
  6 19  1  0  0  0  0
  6 34  1  0  0  0  0
  7  8  1  0  0  0  0
  7 35  1  0  0  0  0
  8  9  2  0  0  0  0
  8 10  1  0  0  0  0
 10 11  1  0  0  0  0
 10 36  1  0  0  0  0
 10 37  1  0  0  0  0
 11 17  1  0  0  0  0
 11 12  1  0  0  0  0
 12 13  2  0  0  0  0
 12 38  1  0  0  0  0
 13 14  1  0  0  0  0
 13 39  1  0  0  0  0
 14 15  2  0  0  0  0
 14 16  1  0  0  0  0
 16 25  1  0  0  0  0
 16 17  1  0  0  0  0
 17 18  2  0  0  0  0
 19 24  1  0  0  0  0
 19 20  1  0  0  0  0
 20 21  1  0  0  0  0
 20 40  1  0  0  0  0
 20 41  1  0  0  0  0
 21 22  1  0  0  0  0
 21 42  1  0  0  0  0
 21 43  1  0  0  0  0
 22 23  1  0  0  0  0
 22 44  1  0  0  0  0
 22 45  1  0  0  0  0
 23 24  1  0  0  0  0
 23 46  1  0  0  0  0
 23 47  1  0  0  0  0
 24 48  1  0  0  0  0
 24 49  1  0  0  0  0
M  END
> <s_m_source_file>
AV-unprocessed.smi

> <i_m_source_file_index>
701

> <i_lp_mmshare_version>
43012

> <i_f3d_flags>
0

> <s_epik_input>
W0NIMl0xW0NIMl1bQ0gyXVtDSDJdW0NIMl1DMTJbQ0BIXShPW0NIMl1bQ0gzXSlbQ0gyXVtDQEhdMltOSF1DKD1PKVtDSDJdbjNbY0hdW2NIXWMoPU8pW25IXWMzPU8=

> <s_epik_cmdline>
J2VwaWtfcHl0aG9uJywgJy1waCcsICc3LjAnLCAnLXRuJywgJzgnLCAnLW1hJywgJzIwMCcsICctbWV0YWxfYmluZGluZycsICctaW1hZScsICc8aW5maWxlLm1hZT4nLCAnLW9tYWUnLCAnPG91dGZpbGUubWFlPic=

> <r_lp_tautomer_probability>
0.999537

> <r_epik_Ionization_Penalty>
0.00304597

> <r_epik_Ionization_Penalty_Charging>
0.00304595

> <r_epik_Ionization_Penalty_Neutral>
1.88422e-08

> <r_epik_State_Penalty>
0.00214084

> <r_epik_Charging_Adjusted_Penalty>
0.00518679

> <i_epik_Tot_Q>
0

> <i_epik_Tot_abs_Q>
0

> <r_epik_Metal_State_Penalty>
0.361872

> <b_epik_Metal_Only>
0

> <s_lp_Force_Field>
OPLS_2005

> <r_lp_Energy>
27.3359

> <b_lp_Chiralities_Consistent>
1

> <s_lp_Variant>
AV-unprocessed.smi:701-3

> <Gold.Version>
5.8.1

> <Gold.Id.Protein>
6NUR|6NUR_protein|mol2

> <Gold.PLP.Fitness>
37.4220

> <Gold.PLP.PLP>
-36.0530

> <Gold.PLP.part.hbond>
-2.0000

> <Gold.PLP.part.metal>
0.0000

> <Gold.PLP.part.buried>
-5.7277

> <Gold.PLP.part.nonpolar>
-28.3108

> <Gold.PLP.part.repulsive>
0.2636

> <Gold.PLP.ligand.clash>
0.0000

> <Gold.PLP.ligand.torsion>
0.5201

> <Gold.PLP.Chemscore.Hbond>
0.6880

> <Gold.PLP.Chemscore.CHOScore>
0.0000

> <Gold.PLP.Chemscore.Metal>
0.0000

> <Gold.Chemscore.Hbonds>
donor molecule, donor type, donor heavy atom, donor atom, acceptor molecule, acceptor atom, score
      P1  H  7989  7998       L1     9  0.69

> <Gold.PLP.Chemscore.Internal.Correction>
0.3453

> <Gold.Rescore>
     Score         DG    S(hbond)    S(metal)    S(lipo)     H(rot)  DE(clash)    DE(int)     intcor
      9.89     -10.67       0.87        0.00      65.49       2.09       0.19       0.59       ----

> <Gold.Chemscore.Fitness>
9.8938

> <Gold.Chemscore.DG>
-10.6728

> <Gold.Chemscore.ZeroCoef>
-5.4800

> <Gold.Chemscore.Hbond>
0.8650

> <Gold.Chemscore.Metal>
0.0000

> <Gold.Chemscore.Lipo>
65.4897

> <Gold.Chemscore.Internal_Hbond>
0.0000

> <Gold.Chemscore.DEClash>
0.1868

> <Gold.Chemscore.DEInternal>
0.5922

> <Gold.Chemscore.Rot>
2.0933

> <Gold.Chemscore.Internal.Correction>
   9.000000E+99

> <Gold.Chemscore.Hbonds>
donor molecule, donor type, donor heavy atom, donor atom, acceptor molecule, acceptor atom, score
      P1  H  7989  7998       L1     9  0.65

> <Gold.Chemscore.Hbond.Weighted>
-2.8893

> <Gold.Chemscore.Metal.Weighted>
-0.0000

> <Gold.Chemscore.Lipo.Weighted>
-7.6623

> <Gold.Chemscore.Internal_Hbond.Weighted>
0.0000

> <Gold.Chemscore.DEClash.Weighted>
0.1868

> <Gold.Chemscore.DEInternal.Weighted>
0.5922

> <Gold.Chemscore.Rot.Weighted>
5.3588

> <Gold.Chemscore.Internal.Correction.Weighted>
   9.000000E+99

> <Gold.Protein.RotatedTorsions>
[ 6907 6896 6895 6894 ] final  177.47 input  -60.11 | X-H torsion
[ 7974 7965 7964 7962 ] final -149.79 input  175.53 | X-H torsion
[ 8008 7997 7996 7995 ] final -159.57 input   59.86 | X-H torsion
[ 10167 10162 10161 10158 ] final -133.08 input  -65.29 | X-H torsion
[ 10718 10713 10712 10709 ] final   26.42 input   66.30 | X-H torsion
[ 10763 10752 10751 10750 ] final   55.30 input  -60.55 | X-H torsion
[ 11005 11000 10999 10996 ] final -154.59 input  -57.11 | X-H torsion

> <Gold.Protein.ActiveResidues>
 VAL166  LYS551  ARG553  GLY616  TRP617  ASP618  TYR619  PRO620  LYS621  CYS622 
 ASP623  PHE694  ASN695  SER759  ASP760  ASP761  ALA762  ILE779  LEU786  VAL792 
 PHE793  MET794  SER795  GLU796  ALA797  LYS798  CYS799  TRP800  GLU811  SER814 

> <Gold.Protein.RotatedAtoms>
  151.7035  133.3311  159.3272 H   0  0  0  0  0  0  0  0  0  0  0  0  # atno 6907 bound_to 6896
  150.7725  134.6595  159.6341 H   0  0  0  0  0  0  0  0  0  0  0  0  # atno 6908 bound_to 6896
  152.3755  134.6672  160.0213 H   0  0  0  0  0  0  0  0  0  0  0  0  # atno 6909 bound_to 6896
  144.7946  140.5017  143.5749 H   0  0  0  0  0  0  0  0  0  0  0  0  # atno 7974 bound_to 7965
  155.7645  140.0843  157.2138 H   0  0  0  0  0  0  0  0  0  0  0  0  # atno 8008 bound_to 7997
  154.4001  140.1536  156.2928 H   0  0  0  0  0  0  0  0  0  0  0  0  # atno 8009 bound_to 7997
  155.8807  140.3420  155.5888 H   0  0  0  0  0  0  0  0  0  0  0  0  # atno 8010 bound_to 7997
  139.9019  143.6597  152.2593 H   0  0  0  0  0  0  0  0  0  0  0  0  # atno 10167 bound_to 10162
  157.2066  130.6914  149.6210 H   0  0  0  0  0  0  0  0  0  0  0  0  # atno 10718 bound_to 10713
  152.9815  135.5715  154.5045 H   0  0  0  0  0  0  0  0  0  0  0  0  # atno 10763 bound_to 10752
  154.4559  135.2780  155.1750 H   0  0  0  0  0  0  0  0  0  0  0  0  # atno 10764 bound_to 10752
  154.3358  135.6240  153.5626 H   0  0  0  0  0  0  0  0  0  0  0  0  # atno 10765 bound_to 10752
  140.6956  134.3993  157.5215 H   0  0  0  0  0  0  0  0  0  0  0  0  # atno 11005 bound_to 11000
  145.5706  139.1483  143.3290 LP  0  0  0  0  0  0  0  0  0  0  0  0  # atno 17320 bound_to 7965
  146.2210  140.5840  142.9017 LP  0  0  0  0  0  0  0  0  0  0  0  0  # atno 17321 bound_to 7965
  139.7017  144.7634  151.1261 LP  0  0  0  0  0  0  0  0  0  0  0  0  # atno 17342 bound_to 10162
  140.7705  143.5448  150.9271 LP  0  0  0  0  0  0  0  0  0  0  0  0  # atno 17343 bound_to 10162
  155.9695  130.4565  150.5927 LP  0  0  0  0  0  0  0  0  0  0  0  0  # atno 17370 bound_to 10713
  157.3714  131.0766  151.1554 LP  0  0  0  0  0  0  0  0  0  0  0  0  # atno 17371 bound_to 10713
  139.8911  134.8788  156.2337 LP  0  0  0  0  0  0  0  0  0  0  0  0  # atno 17394 bound_to 11000
  141.0205  133.7044  156.1261 LP  0  0  0  0  0  0  0  0  0  0  0  0  # atno 17395 bound_to 11000

$$$$
