AV-unprocessed.smi:1510|AV-procd|sdf|6097|dock10
  -GOLD-   22720 6223D 1   1.00000     0.00000
 Structure written by MMmdl.
 33 34  0  0  0  0  0  0  0  0  1 V2000
  154.0215  139.6986  158.7477 O   0  0  0  0  0  0  0  0  0  0  0  0
  152.8293  140.0089  158.7606 C   0  0  0  0  0  0  0  0  0  0  0  0
  151.7929  139.2066  157.9595 C   0  0  0  0  0  0  0  0  0  0  0  0
  150.8118  140.0494  157.2608 N   0  0  0  0  0  0  0  0  0  0  0  0
  149.7666  140.4838  158.0618 N   0  0  0  0  0  0  0  0  0  0  0  0
  148.8498  141.2454  157.5681 C   0  0  0  0  0  0  0  0  0  0  0  0
  147.8358  141.6561  158.3980 O   0  0  0  0  0  0  0  0  0  0  0  0
  148.8842  141.6571  156.1821 C   0  0  0  0  0  0  0  0  0  0  0  0
  149.9040  141.2252  155.4085 C   0  0  0  0  0  0  0  0  0  0  0  0
  150.9625  140.3626  155.9371 C   0  0  0  0  0  0  0  0  0  0  0  0
  151.9038  139.9561  155.2561 O   0  0  0  0  0  0  0  0  0  0  0  0
  152.3554  141.0597  159.4440 N   0  0  0  0  0  0  0  0  0  0  0  0
  153.1748  141.9575  160.2458 C   0  0  0  0  0  0  0  0  0  0  0  0
  152.6777  143.4036  160.1160 C   0  0  1  0  0  0  0  0  0  0  0  0
  152.6549  143.9200  158.6794 C   0  0  0  0  0  0  0  0  0  0  0  0
  151.6434  145.0392  158.7776 C   0  0  0  0  0  0  0  0  0  0  0  0
  150.6218  144.4605  159.7540 C   0  0  0  0  0  0  0  0  0  0  0  0
  151.3270  143.5160  160.5567 O   0  0  0  0  0  0  0  0  0  0  0  0
  147.1392  141.0305  158.2702 H   0  0  0  0  0  0  0  0  0  0  0  0
  152.3078  138.5605  157.2459 H   0  0  0  0  0  0  0  0  0  0  0  0
  151.2830  138.5308  158.6483 H   0  0  0  0  0  0  0  0  0  0  0  0
  148.1079  142.2944  155.7850 H   0  0  0  0  0  0  0  0  0  0  0  0
  149.9425  141.5244  154.3714 H   0  0  0  0  0  0  0  0  0  0  0  0
  151.3664  141.2581  159.3984 H   0  0  0  0  0  0  0  0  0  0  0  0
  153.1316  141.6445  161.2902 H   0  0  0  0  0  0  0  0  0  0  0  0
  154.2162  141.8845  159.9287 H   0  0  0  0  0  0  0  0  0  0  0  0
  153.2897  144.0711  160.7253 H   0  0  0  0  0  0  0  0  0  0  0  0
  153.6324  144.2544  158.3312 H   0  0  0  0  0  0  0  0  0  0  0  0
  152.2927  143.1486  157.9980 H   0  0  0  0  0  0  0  0  0  0  0  0
  152.1115  145.9271  159.2051 H   0  0  0  0  0  0  0  0  0  0  0  0
  151.2080  145.3120  157.8159 H   0  0  0  0  0  0  0  0  0  0  0  0
  150.1573  145.2329  160.3675 H   0  0  0  0  0  0  0  0  0  0  0  0
  149.8316  143.9352  159.2166 H   0  0  0  0  0  0  0  0  0  0  0  0
  1  2  2  0  0  0  0
  2  3  1  0  0  0  0
  2 12  1  0  0  0  0
  3 20  1  0  0  0  0
  3 21  1  0  0  0  0
  3  4  1  0  0  0  0
  4  5  1  0  0  0  0
  4 10  1  0  0  0  0
  5  6  2  0  0  0  0
  6  7  1  0  0  0  0
  6  8  1  0  0  0  0
  7 19  1  0  0  0  0
  8 22  1  0  0  0  0
  8  9  2  0  0  0  0
  9 23  1  0  0  0  0
  9 10  1  0  0  0  0
 10 11  2  0  0  0  0
 12 13  1  0  0  0  0
 12 24  1  0  0  0  0
 13 14  1  0  0  0  0
 13 25  1  0  0  0  0
 13 26  1  0  0  0  0
 14 18  1  0  0  0  0
 14 15  1  0  0  0  0
 14 27  1  0  0  0  0
 15 16  1  0  0  0  0
 15 28  1  0  0  0  0
 15 29  1  0  0  0  0
 16 17  1  0  0  0  0
 16 30  1  0  0  0  0
 16 31  1  0  0  0  0
 17 18  1  0  0  0  0
 17 32  1  0  0  0  0
 17 33  1  0  0  0  0
M  END
> <s_m_source_file>
AV-unprocessed.smi

> <i_m_source_file_index>
1510

> <i_lp_mmshare_version>
43012

> <i_f3d_flags>
0

> <s_epik_input>
TzFbQ0gyXVtDSDJdW0NIMl1bQ0BIXTFbQ0gyXVtOSF1DKD1PKVtDSDJdbjJbbkhdYyg9TylbY0hdW2NIXWMyPU8=

> <s_epik_cmdline>
J2VwaWtfcHl0aG9uJywgJy1waCcsICc3LjAnLCAnLXRuJywgJzgnLCAnLW1hJywgJzIwMCcsICctbWV0YWxfYmluZGluZycsICctaW1hZScsICc8aW5maWxlLm1hZT4nLCAnLW9tYWUnLCAnPG91dGZpbGUubWFlPic=

> <r_lp_tautomer_probability>
0.9996

> <r_epik_Ionization_Penalty>
2.13037

> <r_epik_Ionization_Penalty_Charging>
3.76e-08

> <r_epik_Ionization_Penalty_Neutral>
2.13037

> <r_epik_State_Penalty>
1.70753

> <r_epik_Charging_Adjusted_Penalty>
1.70753

> <i_epik_Tot_Q>
0

> <i_epik_Tot_abs_Q>
0

> <r_epik_Metal_State_Penalty>
1.70753

> <b_epik_Metal_Only>
0

> <s_lp_Force_Field>
OPLS_2005

> <r_lp_Energy>
28.362

> <b_lp_Chiralities_Consistent>
1

> <s_lp_Variant>
AV-unprocessed.smi:1510-4

> <Gold.Version>
5.8.1

> <Gold.Id.Protein>
6NUR|6NUR_protein|mol2

> <Gold.PLP.Fitness>
40.7756

> <Gold.PLP.PLP>
-36.4341

> <Gold.PLP.part.hbond>
-2.9349

> <Gold.PLP.part.metal>
0.0000

> <Gold.PLP.part.buried>
-4.6518

> <Gold.PLP.part.nonpolar>
-28.5659

> <Gold.PLP.part.repulsive>
0.2416

> <Gold.PLP.ligand.clash>
0.0000

> <Gold.PLP.ligand.torsion>
0.7225

> <Gold.PLP.Chemscore.Hbond>
1.9280

> <Gold.PLP.Chemscore.CHOScore>
0.0000

> <Gold.PLP.Chemscore.Metal>
0.0000

> <Gold.Chemscore.Hbonds>
donor molecule, donor type, donor heavy atom, donor atom, acceptor molecule, acceptor atom, score
      P1  H  7989  7998       L1    11  0.88
      P1  H  7997  8009       L1     1  1.00

> <Gold.PLP.Chemscore.Internal.Correction>
0.0025

> <Gold.Rescore>
     Score         DG    S(hbond)    S(metal)    S(lipo)     H(rot)  DE(clash)    DE(int)     intcor
     12.96     -13.87       1.96        0.00      74.58       2.69       0.16       0.75       ----

> <Gold.Chemscore.Fitness>
12.9558

> <Gold.Chemscore.DG>
-13.8689

> <Gold.Chemscore.ZeroCoef>
-5.4800

> <Gold.Chemscore.Hbond>
1.9639

> <Gold.Chemscore.Metal>
0.0000

> <Gold.Chemscore.Lipo>
74.5764

> <Gold.Chemscore.Internal_Hbond>
0.0000

> <Gold.Chemscore.DEClash>
0.1648

> <Gold.Chemscore.DEInternal>
0.7483

> <Gold.Chemscore.Rot>
2.6937

> <Gold.Chemscore.Internal.Correction>
   9.000000E+99

> <Gold.Chemscore.Hbonds>
donor molecule, donor type, donor heavy atom, donor atom, acceptor molecule, acceptor atom, score
      P1  H  7989  7998       L1    11  0.38
      P1  H  7997  8009       L1     1  0.63

> <Gold.Chemscore.Hbond.Weighted>
-6.5594

> <Gold.Chemscore.Metal.Weighted>
-0.0000

> <Gold.Chemscore.Lipo.Weighted>
-8.7254

> <Gold.Chemscore.Internal_Hbond.Weighted>
0.0000

> <Gold.Chemscore.DEClash.Weighted>
0.1648

> <Gold.Chemscore.DEInternal.Weighted>
0.7483

> <Gold.Chemscore.Rot.Weighted>
6.8959

> <Gold.Chemscore.Internal.Correction.Weighted>
   9.000000E+99

> <Gold.Protein.RotatedTorsions>
[ 6907 6896 6895 6894 ] final   59.52 input  -60.11 | X-H torsion
[ 7974 7965 7964 7962 ] final   24.28 input  175.53 | X-H torsion
[ 8008 7997 7996 7995 ] final  150.03 input   59.86 | X-H torsion
[ 10167 10162 10161 10158 ] final  -72.64 input  -65.29 | X-H torsion
[ 10718 10713 10712 10709 ] final  102.10 input   66.30 | X-H torsion
[ 10763 10752 10751 10750 ] final  -72.55 input  -60.55 | X-H torsion
[ 11005 11000 10999 10996 ] final -144.99 input  -57.11 | X-H torsion

> <Gold.Protein.ActiveResidues>
 VAL166  LYS551  ARG553  GLY616  TRP617  ASP618  TYR619  PRO620  LYS621  CYS622 
 ASP623  PHE694  ASN695  SER759  ASP760  ASP761  ALA762  ILE779  LEU786  VAL792 
 PHE793  MET794  SER795  GLU796  ALA797  LYS798  CYS799  TRP800  GLU811  SER814 

> <Gold.Protein.RotatedAtoms>
  152.3922  134.6423  160.0102 H   0  0  0  0  0  0  0  0  0  0  0  0  # atno 6907 bound_to 6896
  151.6654  133.3310  159.3192 H   0  0  0  0  0  0  0  0  0  0  0  0  # atno 6908 bound_to 6896
  150.7836  134.6845  159.6507 H   0  0  0  0  0  0  0  0  0  0  0  0  # atno 6909 bound_to 6896
  146.1945  139.7627  142.8807 H   0  0  0  0  0  0  0  0  0  0  0  0  # atno 7974 bound_to 7965
  156.2732  140.2086  156.5952 H   0  0  0  0  0  0  0  0  0  0  0  0  # atno 8008 bound_to 7997
  154.6950  140.0526  157.0425 H   0  0  0  0  0  0  0  0  0  0  0  0  # atno 8009 bound_to 7997
  155.0813  140.3187  155.4603 H   0  0  0  0  0  0  0  0  0  0  0  0  # atno 8010 bound_to 7997
  140.5175  143.2336  151.7487 H   0  0  0  0  0  0  0  0  0  0  0  0  # atno 10167 bound_to 10162
  157.6811  131.0744  150.5353 H   0  0  0  0  0  0  0  0  0  0  0  0  # atno 10718 bound_to 10713
  154.4472  135.5926  153.6168 H   0  0  0  0  0  0  0  0  0  0  0  0  # atno 10763 bound_to 10752
  152.9810  135.6012  154.3649 H   0  0  0  0  0  0  0  0  0  0  0  0  # atno 10764 bound_to 10752
  154.3506  135.2841  155.2352 H   0  0  0  0  0  0  0  0  0  0  0  0  # atno 10765 bound_to 10752
  140.7968  134.2904  157.4993 H   0  0  0  0  0  0  0  0  0  0  0  0  # atno 11005 bound_to 11000
  145.3687  141.0339  143.3243 LP  0  0  0  0  0  0  0  0  0  0  0  0  # atno 17320 bound_to 7965
  144.8552  139.5260  143.6838 LP  0  0  0  0  0  0  0  0  0  0  0  0  # atno 17321 bound_to 7965
  139.4913  144.4302  151.9880 LP  0  0  0  0  0  0  0  0  0  0  0  0  # atno 17342 bound_to 10162
  140.3397  144.3218  150.5970 LP  0  0  0  0  0  0  0  0  0  0  0  0  # atno 17343 bound_to 10162
  156.5662  130.4268  149.6040 LP  0  0  0  0  0  0  0  0  0  0  0  0  # atno 17370 bound_to 10713
  156.2779  130.7054  151.1870 LP  0  0  0  0  0  0  0  0  0  0  0  0  # atno 17371 bound_to 10713
  139.8725  134.9406  156.3775 LP  0  0  0  0  0  0  0  0  0  0  0  0  # atno 17394 bound_to 11000
  140.9335  133.7563  156.0054 LP  0  0  0  0  0  0  0  0  0  0  0  0  # atno 17395 bound_to 11000

$$$$
