AV-unprocessed.smi:1246|AV-procd|sdf|5242|dock4
  -GOLD-   22720 4353D 1   1.00000     0.00000
 Structure written by MMmdl.
 35 36  0  0  0  0  0  0  0  0  1 V2000
  150.8775  142.1116  156.4407 C   0  0  0  0  0  0  0  0  0  0  0  0
  150.5477  140.9136  155.5999 C   0  0  0  0  0  0  0  0  0  0  0  0
  149.3034  140.5859  154.9865 C   0  0  0  0  0  0  0  0  0  0  0  0
  149.5804  139.4033  154.3566 C   0  0  0  0  0  0  0  0  0  0  0  0
  148.7592  138.6174  153.6109 N   0  0  0  0  0  0  0  0  0  0  0  0
  147.4222  138.6768  153.4863 C   0  0  0  0  0  0  0  0  0  0  0  0
  146.6880  139.4965  154.0387 O   0  0  0  0  0  0  0  0  0  0  0  0
  146.9709  137.7145  152.6694 N   0  0  0  0  0  0  0  0  0  0  0  0
  145.5697  137.4887  152.3336 C   0  0  0  0  0  0  0  0  0  0  0  0
  145.2220  135.9910  152.3307 C   0  0  1  0  0  0  0  0  0  0  0  0
  143.7560  135.6998  152.0263 C   0  0  0  0  0  0  0  0  0  0  0  0
  143.8232  134.2566  151.5788 C   0  0  0  0  0  0  0  0  0  0  0  0
  145.1549  134.2036  150.8301 C   0  0  0  0  0  0  0  0  0  0  0  0
  145.9242  135.3106  151.2960 O   0  0  0  0  0  0  0  0  0  0  0  0
  150.8960  139.0715  154.5921 N   0  0  0  0  0  0  0  0  0  0  0  0
  151.6484  137.9167  154.1430 C   0  0  0  0  0  0  0  0  0  0  0  0
  151.4905  140.0087  155.3616 N   0  0  0  0  0  0  0  0  0  0  0  0
  149.9959  142.7309  156.6077 H   0  0  0  0  0  0  0  0  0  0  0  0
  151.6325  142.7329  155.9586 H   0  0  0  0  0  0  0  0  0  0  0  0
  151.2623  141.8141  157.4165 H   0  0  0  0  0  0  0  0  0  0  0  0
  148.3765  141.1384  155.0178 H   0  0  0  0  0  0  0  0  0  0  0  0
  149.2216  137.8917  153.0834 H   0  0  0  0  0  0  0  0  0  0  0  0
  147.6425  137.0811  152.2608 H   0  0  0  0  0  0  0  0  0  0  0  0
  144.9311  138.0238  153.0384 H   0  0  0  0  0  0  0  0  0  0  0  0
  145.3769  137.9209  151.3513 H   0  0  0  0  0  0  0  0  0  0  0  0
  145.4848  135.5312  153.2853 H   0  0  0  0  0  0  0  0  0  0  0  0
  143.1040  135.8510  152.8872 H   0  0  0  0  0  0  0  0  0  0  0  0
  143.3996  136.3291  151.2094 H   0  0  0  0  0  0  0  0  0  0  0  0
  143.8579  133.6004  152.4494 H   0  0  0  0  0  0  0  0  0  0  0  0
  142.9747  133.9590  150.9621 H   0  0  0  0  0  0  0  0  0  0  0  0
  145.6782  133.2632  151.0031 H   0  0  0  0  0  0  0  0  0  0  0  0
  145.0024  134.3125  149.7561 H   0  0  0  0  0  0  0  0  0  0  0  0
  151.5367  137.8024  153.0645 H   0  0  0  0  0  0  0  0  0  0  0  0
  151.2727  137.0210  154.6383 H   0  0  0  0  0  0  0  0  0  0  0  0
  152.7077  138.0339  154.3760 H   0  0  0  0  0  0  0  0  0  0  0  0
  1  2  1  0  0  0  0
  1 18  1  0  0  0  0
  1 19  1  0  0  0  0
  1 20  1  0  0  0  0
  2 17  2  0  0  0  0
  2  3  1  0  0  0  0
  3  4  2  0  0  0  0
  3 21  1  0  0  0  0
  4  5  1  0  0  0  0
  4 15  1  0  0  0  0
  5  6  1  0  0  0  0
  5 22  1  0  0  0  0
  6  7  2  0  0  0  0
  6  8  1  0  0  0  0
  8  9  1  0  0  0  0
  8 23  1  0  0  0  0
  9 10  1  0  0  0  0
  9 24  1  0  0  0  0
  9 25  1  0  0  0  0
 10 14  1  0  0  0  0
 10 11  1  0  0  0  0
 10 26  1  0  0  0  0
 11 12  1  0  0  0  0
 11 27  1  0  0  0  0
 11 28  1  0  0  0  0
 12 13  1  0  0  0  0
 12 29  1  0  0  0  0
 12 30  1  0  0  0  0
 13 14  1  0  0  0  0
 13 31  1  0  0  0  0
 13 32  1  0  0  0  0
 15 16  1  0  0  0  0
 15 17  1  0  0  0  0
 16 33  1  0  0  0  0
 16 34  1  0  0  0  0
 16 35  1  0  0  0  0
M  END
> <s_m_source_file>
AV-unprocessed.smi

> <i_m_source_file_index>
1246

> <i_lp_mmshare_version>
43012

> <i_f3d_flags>
0

> <s_epik_input>
W0NIM11jMVtjSF1jKG4objEpW0NIM10pW05IXUMoPU8pW05IXVtDSDJdW0NAQEhdMltDSDJdW0NIMl1bQ0gyXU8y

> <s_epik_cmdline>
J2VwaWtfcHl0aG9uJywgJy1waCcsICc3LjAnLCAnLXRuJywgJzgnLCAnLW1hJywgJzIwMCcsICctbWV0YWxfYmluZGluZycsICctaW1hZScsICc8aW5maWxlLm1hZT4nLCAnLW9tYWUnLCAnPG91dGZpbGUubWFlPic=

> <r_lp_tautomer_probability>
1

> <r_epik_Ionization_Penalty>
9.6187e-05

> <r_epik_Ionization_Penalty_Charging>
0

> <r_epik_Ionization_Penalty_Neutral>
9.6187e-05

> <r_epik_State_Penalty>
-0

> <r_epik_Charging_Adjusted_Penalty>
0

> <i_epik_Tot_Q>
0

> <i_epik_Tot_abs_Q>
0

> <r_epik_Metal_State_Penalty>
-0

> <b_epik_Metal_Only>
0

> <s_lp_Force_Field>
OPLS_2005

> <r_lp_Energy>
18.0702

> <b_lp_Chiralities_Consistent>
1

> <s_lp_Variant>
AV-unprocessed.smi:1246-2

> <Gold.Version>
5.8.1

> <Gold.Id.Protein>
6NUR|6NUR_protein|mol2

> <Gold.PLP.Fitness>
37.2387

> <Gold.PLP.PLP>
-31.7595

> <Gold.PLP.part.hbond>
-4.0000

> <Gold.PLP.part.metal>
0.0000

> <Gold.PLP.part.buried>
-4.5401

> <Gold.PLP.part.nonpolar>
-25.1028

> <Gold.PLP.part.repulsive>
0.4815

> <Gold.PLP.ligand.clash>
0.0000

> <Gold.PLP.ligand.torsion>
0.1661

> <Gold.PLP.Chemscore.Hbond>
1.9357

> <Gold.PLP.Chemscore.CHOScore>
0.0000

> <Gold.PLP.Chemscore.Metal>
0.0000

> <Gold.Chemscore.Hbonds>
donor molecule, donor type, donor heavy atom, donor atom, acceptor molecule, acceptor atom, score
      L1  H     5    22       P1  7948  0.89
      L1  H     8    23       P1  7948  1.00

> <Gold.PLP.Chemscore.Internal.Correction>
0.0043

> <Gold.Rescore>
     Score         DG    S(hbond)    S(metal)    S(lipo)     H(rot)  DE(clash)    DE(int)     intcor
     13.92     -15.19       1.91        0.00      55.77       1.25       0.02       1.24       ----

> <Gold.Chemscore.Fitness>
13.9244

> <Gold.Chemscore.DG>
-15.1871

> <Gold.Chemscore.ZeroCoef>
-5.4800

> <Gold.Chemscore.Hbond>
1.9092

> <Gold.Chemscore.Metal>
0.0000

> <Gold.Chemscore.Lipo>
55.7690

> <Gold.Chemscore.Internal_Hbond>
0.0000

> <Gold.Chemscore.DEClash>
0.0178

> <Gold.Chemscore.DEInternal>
1.2450

> <Gold.Chemscore.Rot>
1.2478

> <Gold.Chemscore.Internal.Correction>
   9.000000E+99

> <Gold.Chemscore.Hbonds>
donor molecule, donor type, donor heavy atom, donor atom, acceptor molecule, acceptor atom, score
      L1  H     5    22       P1  7948  0.82
      L1  H     8    23       P1  7948  0.99

> <Gold.Chemscore.Hbond.Weighted>
-6.3766

> <Gold.Chemscore.Metal.Weighted>
-0.0000

> <Gold.Chemscore.Lipo.Weighted>
-6.5250

> <Gold.Chemscore.Internal_Hbond.Weighted>
0.0000

> <Gold.Chemscore.DEClash.Weighted>
0.0178

> <Gold.Chemscore.DEInternal.Weighted>
1.2450

> <Gold.Chemscore.Rot.Weighted>
3.1944

> <Gold.Chemscore.Internal.Correction.Weighted>
   9.000000E+99

> <Gold.Protein.RotatedTorsions>
[ 6907 6896 6895 6894 ] final -160.36 input  -60.11 | X-H torsion
[ 7974 7965 7964 7962 ] final   61.15 input  175.53 | X-H torsion
[ 8008 7997 7996 7995 ] final -159.11 input   59.86 | X-H torsion
[ 10167 10162 10161 10158 ] final  -46.53 input  -65.29 | X-H torsion
[ 10718 10713 10712 10709 ] final    5.98 input   66.30 | X-H torsion
[ 10763 10752 10751 10750 ] final  111.75 input  -60.55 | X-H torsion
[ 11005 11000 10999 10996 ] final   54.38 input  -57.11 | X-H torsion

> <Gold.Protein.ActiveResidues>
 VAL166  LYS551  ARG553  GLY616  TRP617  ASP618  TYR619  PRO620  LYS621  CYS622 
 ASP623  PHE694  ASN695  SER759  ASP760  ASP761  ALA762  ILE779  LEU786  VAL792 
 PHE793  MET794  SER795  GLU796  ALA797  LYS798  CYS799  TRP800  GLU811  SER814 

> <Gold.Protein.RotatedAtoms>
  151.3479  133.3937  159.2677 H   0  0  0  0  0  0  0  0  0  0  0  0  # atno 6907 bound_to 6896
  150.9825  134.9178  159.7863 H   0  0  0  0  0  0  0  0  0  0  0  0  # atno 6908 bound_to 6896
  152.5221  134.3443  159.9280 H   0  0  0  0  0  0  0  0  0  0  0  0  # atno 6909 bound_to 6896
  145.8880  139.3491  143.0666 H   0  0  0  0  0  0  0  0  0  0  0  0  # atno 7974 bound_to 7965
  155.7577  140.0835  157.2170 H   0  0  0  0  0  0  0  0  0  0  0  0  # atno 8008 bound_to 7997
  154.4006  140.1548  156.2853 H   0  0  0  0  0  0  0  0  0  0  0  0  # atno 8009 bound_to 7997
  155.8870  140.3417  155.5931 H   0  0  0  0  0  0  0  0  0  0  0  0  # atno 8010 bound_to 7997
  140.6813  143.2827  151.3796 H   0  0  0  0  0  0  0  0  0  0  0  0  # atno 10167 bound_to 10162
  156.9155  130.5771  149.5647 H   0  0  0  0  0  0  0  0  0  0  0  0  # atno 10718 bound_to 10713
  153.4679  135.3707  155.2375 H   0  0  0  0  0  0  0  0  0  0  0  0  # atno 10763 bound_to 10752
  154.8757  135.3924  154.3847 H   0  0  0  0  0  0  0  0  0  0  0  0  # atno 10764 bound_to 10752
  153.4430  135.7084  153.6221 H   0  0  0  0  0  0  0  0  0  0  0  0  # atno 10765 bound_to 10752
  140.0691  134.5495  155.9066 H   0  0  0  0  0  0  0  0  0  0  0  0  # atno 11005 bound_to 11000
  145.8942  140.9284  143.0536 LP  0  0  0  0  0  0  0  0  0  0  0  0  # atno 17320 bound_to 7965
  144.6729  140.0947  143.7463 LP  0  0  0  0  0  0  0  0  0  0  0  0  # atno 17321 bound_to 7965
  139.6139  144.1043  152.2326 LP  0  0  0  0  0  0  0  0  0  0  0  0  # atno 17342 bound_to 10162
  140.0466  144.5966  150.7369 LP  0  0  0  0  0  0  0  0  0  0  0  0  # atno 17343 bound_to 10162
  156.0516  130.5584  150.9001 LP  0  0  0  0  0  0  0  0  0  0  0  0  # atno 17370 bound_to 10713
  157.5941  131.0943  150.9070 LP  0  0  0  0  0  0  0  0  0  0  0  0  # atno 17371 bound_to 10713
  141.2004  133.6612  156.5898 LP  0  0  0  0  0  0  0  0  0  0  0  0  # atno 17394 bound_to 11000
  140.3654  134.7651  157.4563 LP  0  0  0  0  0  0  0  0  0  0  0  0  # atno 17395 bound_to 11000

$$$$
