AV-unprocessed.smi:1718|AV-procd|sdf|6928|dock10
  -GOLD-   22720 8133D 1   1.00000     0.00000
 Structure written by MMmdl.
 39 40  0  0  0  0  0  0  0  0  2 V2000
  147.0286  137.1242  155.6342 C   0  0  0  0  0  0  0  0  0  0  0  0
  147.9281  136.5570  156.7423 C   0  0  2  0  0  0  0  0  0  0  0  0
  147.0776  136.0038  157.7424 O   0  0  0  0  0  0  0  0  0  0  0  0
  146.1363  136.9080  158.3115 C   0  0  0  0  0  0  0  0  0  0  0  0
  145.3587  136.2049  159.4324 C   0  0  1  0  0  0  0  0  0  0  0  0
  144.9348  134.7614  159.1323 C   0  0  0  0  0  0  0  0  0  0  0  0
  145.1233  134.0369  160.4589 C   0  0  0  0  0  0  0  0  0  0  0  0
  145.5163  135.1415  161.4383 C   0  0  0  0  0  0  0  0  0  0  0  0
  146.1359  136.1172  160.6170 O   0  0  0  0  0  0  0  0  0  0  0  0
  148.8220  137.6494  157.3514 C   0  0  0  0  0  0  0  0  0  0  0  0
  149.5479  137.3713  158.3057 O   0  0  0  0  0  0  0  0  0  0  0  0
  148.7543  138.8514  156.7459 N   0  0  0  0  0  0  0  0  0  0  0  0
  149.4273  140.0491  157.0428 C   0  0  0  0  0  0  0  0  0  0  0  0
  150.2853  140.2260  158.0859 C   0  0  0  0  0  0  0  0  0  0  0  0
  150.9435  141.4996  158.3481 C   0  0  0  0  0  0  0  0  0  0  0  0
  151.9830  141.7012  159.4365 C   0  0  0  0  0  0  0  0  0  0  0  0
  151.4696  141.4555  160.6422 F   0  0  0  0  0  0  0  0  0  0  0  0
  153.0076  140.8717  159.2442 F   0  0  0  0  0  0  0  0  0  0  0  0
  152.4506  142.9495  159.4248 F   0  0  0  0  0  0  0  0  0  0  0  0
  150.5973  142.4684  157.4263 C   0  0  0  0  0  0  0  0  0  0  0  0
  149.7386  142.3849  156.3868 N   0  5  0  0  0  0  0  0  0  0  0  0
  149.1320  141.1879  156.1485 C   0  0  0  0  0  0  0  0  0  0  0  0
  148.3477  141.0391  155.2104 O   0  0  0  0  0  0  0  0  0  0  0  0
  147.6195  137.5785  154.8381 H   0  0  0  0  0  0  0  0  0  0  0  0
  146.3445  137.8817  156.0194 H   0  0  0  0  0  0  0  0  0  0  0  0
  146.4249  136.3347  155.1863 H   0  0  0  0  0  0  0  0  0  0  0  0
  148.5447  135.7660  156.3107 H   0  0  0  0  0  0  0  0  0  0  0  0
  146.6532  137.7815  158.7110 H   0  0  0  0  0  0  0  0  0  0  0  0
  145.4324  137.2633  157.5584 H   0  0  0  0  0  0  0  0  0  0  0  0
  144.4692  136.7912  159.6695 H   0  0  0  0  0  0  0  0  0  0  0  0
  143.9024  134.7193  158.7834 H   0  0  0  0  0  0  0  0  0  0  0  0
  145.5599  134.3013  158.3660 H   0  0  0  0  0  0  0  0  0  0  0  0
  144.2285  133.5033  160.7800 H   0  0  0  0  0  0  0  0  0  0  0  0
  145.9327  133.3114  160.3701 H   0  0  0  0  0  0  0  0  0  0  0  0
  144.6326  135.5737  161.9107 H   0  0  0  0  0  0  0  0  0  0  0  0
  146.1874  134.7899  162.2224 H   0  0  0  0  0  0  0  0  0  0  0  0
  148.1556  138.9059  155.9344 H   0  0  0  0  0  0  0  0  0  0  0  0
  150.4963  139.4254  158.7748 H   0  0  0  0  0  0  0  0  0  0  0  0
  151.0894  143.4582  157.5372 H   0  0  0  0  0  0  0  0  0  0  0  0
  1  2  1  0  0  0  0
  1 24  1  0  0  0  0
  1 25  1  0  0  0  0
  1 26  1  0  0  0  0
  2  3  1  0  0  0  0
  2 10  1  0  0  0  0
  2 27  1  0  0  0  0
  3  4  1  0  0  0  0
  4  5  1  0  0  0  0
  4 28  1  0  0  0  0
  4 29  1  0  0  0  0
  5  9  1  0  0  0  0
  5  6  1  0  0  0  0
  5 30  1  0  0  0  0
  6  7  1  0  0  0  0
  6 31  1  0  0  0  0
  6 32  1  0  0  0  0
  7  8  1  0  0  0  0
  7 33  1  0  0  0  0
  7 34  1  0  0  0  0
  8  9  1  0  0  0  0
  8 35  1  0  0  0  0
  8 36  1  0  0  0  0
 10 11  2  0  0  0  0
 10 12  1  0  0  0  0
 12 13  1  0  0  0  0
 12 37  1  0  0  0  0
 13 22  1  0  0  0  0
 13 14  2  0  0  0  0
 14 15  1  0  0  0  0
 14 38  1  0  0  0  0
 15 16  1  0  0  0  0
 15 20  2  0  0  0  0
 16 17  1  0  0  0  0
 16 18  1  0  0  0  0
 16 19  1  0  0  0  0
 20 21  1  0  0  0  0
 20 39  1  0  0  0  0
 21 22  1  0  0  0  0
 22 23  2  0  0  0  0
M  CHG  1  21  -1
M  END
> <s_m_source_file>
AV-unprocessed.smi

> <i_m_source_file_index>
1718

> <i_lp_mmshare_version>
43012

> <i_f3d_flags>
0

> <s_epik_input>
TzFbQ0gyXVtDSDJdW0NIMl1bQ0BIXTFbQ0gyXU9bQ0BASF0oW0NIM10pQyg9TylbTkhdYzJbY0hdYyhDKEYpKEYpRilbY0hdW25IXWMyPU8=

> <s_epik_cmdline>
J2VwaWtfcHl0aG9uJywgJy1waCcsICc3LjAnLCAnLXRuJywgJzgnLCAnLW1hJywgJzIwMCcsICctbWV0YWxfYmluZGluZycsICctaW1hZScsICc8aW5maWxlLm1hZT4nLCAnLW9tYWUnLCAnPG91dGZpbGUubWFlPic=

> <r_epik_Ionization_Penalty>
2.5466

> <r_epik_Ionization_Penalty_Charging>
0.0575837

> <r_epik_Ionization_Penalty_Neutral>
2.48901

> <r_epik_State_Penalty>
2.6532

> <r_epik_Charging_Adjusted_Penalty>
2.71078

> <i_epik_Tot_Q>
-1

> <i_epik_Tot_abs_Q>
1

> <r_epik_Metal_State_Penalty>
0.516196

> <b_epik_Metal_Only>
0

> <s_lp_Force_Field>
OPLS_2005

> <r_lp_Energy>
37.3461

> <b_lp_Chiralities_Consistent>
1

> <s_lp_Variant>
AV-unprocessed.smi:1718-7

> <Gold.Version>
5.8.1

> <Gold.Id.Protein>
6NUR|6NUR_protein|mol2

> <Gold.PLP.Fitness>
44.0907

> <Gold.PLP.PLP>
-42.2358

> <Gold.PLP.part.hbond>
-2.0242

> <Gold.PLP.part.metal>
0.0000

> <Gold.PLP.part.buried>
-7.1794

> <Gold.PLP.part.nonpolar>
-33.9766

> <Gold.PLP.part.repulsive>
1.1136

> <Gold.PLP.ligand.clash>
2.4165

> <Gold.PLP.ligand.torsion>
0.2333

> <Gold.PLP.Chemscore.Hbond>
1.5452

> <Gold.PLP.Chemscore.CHOScore>
0.0000

> <Gold.PLP.Chemscore.Metal>
0.0000

> <Gold.PLP.Chemscore.Internal.Correction>
0.1023

> <Gold.Rescore>
     Score         DG    S(hbond)    S(metal)    S(lipo)     H(rot)  DE(clash)    DE(int)     intcor
     11.51     -13.73       0.97        0.00      83.05       1.85       0.04       2.17       ----

> <Gold.Chemscore.Fitness>
11.5122

> <Gold.Chemscore.DG>
-13.7277

> <Gold.Chemscore.ZeroCoef>
-5.4800

> <Gold.Chemscore.Hbond>
0.9745

> <Gold.Chemscore.Metal>
0.0000

> <Gold.Chemscore.Lipo>
83.0538

> <Gold.Chemscore.Internal_Hbond>
0.0000

> <Gold.Chemscore.DEClash>
0.0408

> <Gold.Chemscore.DEInternal>
2.1746

> <Gold.Chemscore.Rot>
1.8455

> <Gold.Chemscore.Internal.Correction>
   9.000000E+99

> <Gold.Chemscore.Hbond.Weighted>
-3.2549

> <Gold.Chemscore.Metal.Weighted>
-0.0000

> <Gold.Chemscore.Lipo.Weighted>
-9.7173

> <Gold.Chemscore.Internal_Hbond.Weighted>
0.0000

> <Gold.Chemscore.DEClash.Weighted>
0.0408

> <Gold.Chemscore.DEInternal.Weighted>
2.1746

> <Gold.Chemscore.Rot.Weighted>
4.7245

> <Gold.Chemscore.Internal.Correction.Weighted>
   9.000000E+99

> <Gold.Protein.RotatedTorsions>
[ 6907 6896 6895 6894 ] final  -67.47 input  -60.11 | X-H torsion
[ 7974 7965 7964 7962 ] final  -79.78 input  175.53 | X-H torsion
[ 8008 7997 7996 7995 ] final  -67.04 input   59.86 | X-H torsion
[ 10167 10162 10161 10158 ] final   41.05 input  -65.29 | X-H torsion
[ 10718 10713 10712 10709 ] final -155.13 input   66.30 | X-H torsion
[ 10763 10752 10751 10750 ] final -157.30 input  -60.55 | X-H torsion
[ 11005 11000 10999 10996 ] final    3.67 input  -57.11 | X-H torsion

> <Gold.Protein.ActiveResidues>
 VAL166  LYS551  ARG553  GLY616  TRP617  ASP618  TYR619  PRO620  LYS621  CYS622 
 ASP623  PHE694  ASN695  SER759  ASP760  ASP761  ALA762  ILE779  LEU786  VAL792 
 PHE793  MET794  SER795  GLU796  ALA797  LYS798  CYS799  TRP800  GLU811  SER814 

> <Gold.Protein.RotatedAtoms>
  150.7408  134.5876  159.5970 H   0  0  0  0  0  0  0  0  0  0  0  0  # atno 6907 bound_to 6896
  152.3273  134.7301  160.0307 H   0  0  0  0  0  0  0  0  0  0  0  0  # atno 6908 bound_to 6896
  151.7797  133.3313  159.3504 H   0  0  0  0  0  0  0  0  0  0  0  0  # atno 6909 bound_to 6896
  145.5686  140.9470  143.1408 H   0  0  0  0  0  0  0  0  0  0  0  0  # atno 7974 bound_to 7965
  154.4773  140.0900  156.7294 H   0  0  0  0  0  0  0  0  0  0  0  0  # atno 8008 bound_to 7997
  155.4561  140.3459  155.4288 H   0  0  0  0  0  0  0  0  0  0  0  0  # atno 8009 bound_to 7997
  156.1137  140.1455  156.9291 H   0  0  0  0  0  0  0  0  0  0  0  0  # atno 8010 bound_to 7997
  140.3682  144.2140  150.6134 H   0  0  0  0  0  0  0  0  0  0  0  0  # atno 10167 bound_to 10162
  156.5086  130.8424  151.2637 H   0  0  0  0  0  0  0  0  0  0  0  0  # atno 10718 bound_to 10713
  154.7647  135.3127  154.8310 H   0  0  0  0  0  0  0  0  0  0  0  0  # atno 10763 bound_to 10752
  153.9062  135.6810  153.4757 H   0  0  0  0  0  0  0  0  0  0  0  0  # atno 10764 bound_to 10752
  153.1251  135.4805  154.9192 H   0  0  0  0  0  0  0  0  0  0  0  0  # atno 10765 bound_to 10752
  140.5905  133.9928  155.8087 H   0  0  0  0  0  0  0  0  0  0  0  0  # atno 11005 bound_to 11000
  144.7448  139.7349  143.7296 LP  0  0  0  0  0  0  0  0  0  0  0  0  # atno 17320 bound_to 7965
  146.1800  139.4988  142.9872 LP  0  0  0  0  0  0  0  0  0  0  0  0  # atno 17321 bound_to 7965
  140.5060  143.2304  151.8607 LP  0  0  0  0  0  0  0  0  0  0  0  0  # atno 17342 bound_to 10162
  139.4806  144.5005  151.9067 LP  0  0  0  0  0  0  0  0  0  0  0  0  # atno 17343 bound_to 10162
  157.7453  130.9957  150.2754 LP  0  0  0  0  0  0  0  0  0  0  0  0  # atno 17370 bound_to 10713
  156.3262  130.3793  149.7531 LP  0  0  0  0  0  0  0  0  0  0  0  0  # atno 17371 bound_to 10713
  141.0938  133.9876  157.3194 LP  0  0  0  0  0  0  0  0  0  0  0  0  # atno 17394 bound_to 11000
  139.9276  135.0201  156.8289 LP  0  0  0  0  0  0  0  0  0  0  0  0  # atno 17395 bound_to 11000

$$$$
