AV-unprocessed.smi:438|AV-procd|sdf|2563|dock1
  -GOLD-   2262022533D 1   1.00000     0.00000
 Structure written by MMmdl.
 48 49  0  0  0  0  0  0  0  0  1 V2000
  148.0992  132.8798  160.0834 C   0  0  0  0  0  0  0  0  0  0  0  0
  148.2295  134.3887  160.1913 C   0  0  0  0  0  0  0  0  0  0  0  0
  148.9101  135.0145  159.1395 N   0  0  0  0  0  0  0  0  0  0  0  0
  149.0679  136.2996  159.1409 C   0  0  0  0  0  0  0  0  0  0  0  0
  149.8972  137.3555  157.9188 S   0  0  0  0  0  0  0  0  0  0  0  0
  151.5499  137.5099  158.6523 C   0  0  0  0  0  0  0  0  0  0  0  0
  152.2337  138.8204  158.2720 C   0  0  0  0  0  0  0  0  0  0  0  0
  153.1736  138.8161  157.4772 O   0  0  0  0  0  0  0  0  0  0  0  0
  151.7560  139.9341  158.8485 N   0  0  0  0  0  0  0  0  0  0  0  0
  152.2559  141.2886  158.6227 C   0  0  2  0  0  0  0  0  0  0  0  0
  152.6804  141.9173  159.9673 C   0  0  0  0  0  0  0  0  0  0  0  0
  153.1468  143.3698  159.7941 C   0  0  0  0  0  0  0  0  0  0  0  0
  152.0640  144.2170  159.1131 C   0  0  0  0  0  0  0  0  0  0  0  0
  151.6563  143.6067  157.7641 C   0  0  0  0  0  0  0  0  0  0  0  0
  151.1786  142.1481  157.9141 C   0  0  1  0  0  0  0  0  0  0  0  0
  150.7694  141.5717  156.5465 C   0  0  0  0  0  0  0  0  0  0  0  0
  148.5653  137.0731  160.1880 N   0  0  0  0  0  0  0  0  0  0  0  0
  147.9027  136.5656  161.2513 C   0  0  0  0  0  0  0  0  0  0  0  0
  147.4961  137.3068  162.1446 O   0  0  0  0  0  0  0  0  0  0  0  0
  147.7275  135.1037  161.2368 C   0  0  0  0  0  0  0  0  0  0  0  0
  146.9665  134.4669  162.3963 C   0  0  0  0  0  0  0  0  0  0  0  0
  145.7324  133.6874  161.9195 C   0  0  0  0  0  0  0  0  0  0  0  0
  145.0065  133.2135  163.0326 O   0  0  0  0  0  0  0  0  0  0  0  0
  148.4379  132.3963  161.0000 H   0  0  0  0  0  0  0  0  0  0  0  0
  148.6981  132.4880  159.2604 H   0  0  0  0  0  0  0  0  0  0  0  0
  147.0604  132.6007  159.9059 H   0  0  0  0  0  0  0  0  0  0  0  0
  152.1602  136.6614  158.3390 H   0  0  0  0  0  0  0  0  0  0  0  0
  151.4647  137.4599  159.7383 H   0  0  0  0  0  0  0  0  0  0  0  0
  150.9820  139.8387  159.4897 H   0  0  0  0  0  0  0  0  0  0  0  0
  153.1305  141.2409  157.9707 H   0  0  0  0  0  0  0  0  0  0  0  0
  151.8449  141.8892  160.6681 H   0  0  0  0  0  0  0  0  0  0  0  0
  153.4813  141.3319  160.4207 H   0  0  0  0  0  0  0  0  0  0  0  0
  153.3989  143.7978  160.7648 H   0  0  0  0  0  0  0  0  0  0  0  0
  154.0601  143.3930  159.1981 H   0  0  0  0  0  0  0  0  0  0  0  0
  151.1909  144.2886  159.7628 H   0  0  0  0  0  0  0  0  0  0  0  0
  152.4260  145.2351  158.9670 H   0  0  0  0  0  0  0  0  0  0  0  0
  150.8678  144.2126  157.3161 H   0  0  0  0  0  0  0  0  0  0  0  0
  152.5029  143.6482  157.0773 H   0  0  0  0  0  0  0  0  0  0  0  0
  150.2872  142.1584  158.5437 H   0  0  0  0  0  0  0  0  0  0  0  0
  151.6247  141.5075  155.8731 H   0  0  0  0  0  0  0  0  0  0  0  0
  150.0167  142.1986  156.0677 H   0  0  0  0  0  0  0  0  0  0  0  0
  150.3439  140.5723  156.6394 H   0  0  0  0  0  0  0  0  0  0  0  0
  148.7069  138.0725  160.1593 H   0  0  0  0  0  0  0  0  0  0  0  0
  146.6625  135.2314  163.1110 H   0  0  0  0  0  0  0  0  0  0  0  0
  147.6345  133.8072  162.9524 H   0  0  0  0  0  0  0  0  0  0  0  0
  145.0831  134.3234  161.3172 H   0  0  0  0  0  0  0  0  0  0  0  0
  146.0249  132.8389  161.3001 H   0  0  0  0  0  0  0  0  0  0  0  0
  144.9833  133.8938  163.6880 H   0  0  0  0  0  0  0  0  0  0  0  0
  1 24  1  0  0  0  0
  1 25  1  0  0  0  0
  1 26  1  0  0  0  0
  1  2  1  0  0  0  0
  2 20  2  0  0  0  0
  2  3  1  0  0  0  0
  3  4  2  0  0  0  0
  4  5  1  0  0  0  0
  4 17  1  0  0  0  0
  5  6  1  0  0  0  0
  6  7  1  0  0  0  0
  6 27  1  0  0  0  0
  6 28  1  0  0  0  0
  7  8  2  0  0  0  0
  7  9  1  0  0  0  0
  9 10  1  0  0  0  0
  9 29  1  0  0  0  0
 10 15  1  0  0  0  0
 10 11  1  0  0  0  0
 10 30  1  0  0  0  0
 11 12  1  0  0  0  0
 11 31  1  0  0  0  0
 11 32  1  0  0  0  0
 12 13  1  0  0  0  0
 12 33  1  0  0  0  0
 12 34  1  0  0  0  0
 13 14  1  0  0  0  0
 13 35  1  0  0  0  0
 13 36  1  0  0  0  0
 14 15  1  0  0  0  0
 14 37  1  0  0  0  0
 14 38  1  0  0  0  0
 15 16  1  0  0  0  0
 15 39  1  0  0  0  0
 16 40  1  0  0  0  0
 16 41  1  0  0  0  0
 16 42  1  0  0  0  0
 17 43  1  0  0  0  0
 17 18  1  0  0  0  0
 18 19  2  0  0  0  0
 18 20  1  0  0  0  0
 20 21  1  0  0  0  0
 21 22  1  0  0  0  0
 21 44  1  0  0  0  0
 21 45  1  0  0  0  0
 22 23  1  0  0  0  0
 22 46  1  0  0  0  0
 22 47  1  0  0  0  0
 23 48  1  0  0  0  0
M  END
> <s_m_source_file>
AV-unprocessed.smi

> <i_m_source_file_index>
438

> <i_lp_mmshare_version>
43012

> <i_f3d_flags>
0

> <s_epik_input>
W09IXVtDSDJdW0NIMl1jMWMoW09IXSluYyhuYzFbQ0gzXSlTW0NIMl1DKD1PKVtOSF1bQ0BASF0yW0NIMl1bQ0gyXVtDSDJdW0NIMl1bQ0BIXTJbQ0gzXQ==

> <s_epik_cmdline>
J2VwaWtfcHl0aG9uJywgJy1waCcsICc3LjAnLCAnLXRuJywgJzgnLCAnLW1hJywgJzIwMCcsICctbWV0YWxfYmluZGluZycsICctaW1hZScsICc8aW5maWxlLm1hZT4nLCAnLW9tYWUnLCAnPG91dGZpbGUubWFlPic=

> <r_lp_tautomer_probability>
0.660323

> <r_epik_Ionization_Penalty>
0.00860626

> <r_epik_Ionization_Penalty_Charging>
0.00860522

> <r_epik_Ionization_Penalty_Neutral>
1.04215e-06

> <r_epik_State_Penalty>
0.156825

> <r_epik_Charging_Adjusted_Penalty>
0.16543

> <i_epik_Tot_Q>
0

> <i_epik_Tot_abs_Q>
0

> <r_epik_Metal_State_Penalty>
0.752038

> <b_epik_Metal_Only>
0

> <s_lp_Force_Field>
OPLS_2005

> <r_lp_Energy>
14.035

> <b_lp_Chiralities_Consistent>
1

> <s_lp_Variant>
AV-unprocessed.smi:438-1

> <Gold.Version>
5.8.1

> <Gold.Id.Protein>
6NUR|6NUR_protein|mol2

> <Gold.PLP.Fitness>
52.4716

> <Gold.PLP.PLP>
-44.7213

> <Gold.PLP.part.hbond>
-4.8151

> <Gold.PLP.part.metal>
0.0000

> <Gold.PLP.part.buried>
-5.0833

> <Gold.PLP.part.nonpolar>
-35.9106

> <Gold.PLP.part.repulsive>
1.4169

> <Gold.PLP.ligand.clash>
0.0000

> <Gold.PLP.ligand.torsion>
0.6849

> <Gold.PLP.Chemscore.Hbond>
2.9984

> <Gold.PLP.Chemscore.CHOScore>
0.0000

> <Gold.PLP.Chemscore.Metal>
0.0000

> <Gold.Chemscore.Hbonds>
donor molecule, donor type, donor heavy atom, donor atom, acceptor molecule, acceptor atom, score
      P1  H  6896  6908       L1     3  1.00
      P1  H  6931  6943       L1    19  0.34
      P1  H  6934  6947       L1    19  0.44
      P1  H  7997  8009       L1     8  1.00

> <Gold.PLP.Chemscore.Internal.Correction>
0.1249

> <Gold.Rescore>
     Score         DG    S(hbond)    S(metal)    S(lipo)     H(rot)  DE(clash)    DE(int)     intcor
     17.86     -18.75       2.42        0.00     107.09       2.86       0.14       0.74       ----

> <Gold.Chemscore.Fitness>
17.8618

> <Gold.Chemscore.DG>
-18.7470

> <Gold.Chemscore.ZeroCoef>
-5.4800

> <Gold.Chemscore.Hbond>
2.4163

> <Gold.Chemscore.Metal>
0.0000

> <Gold.Chemscore.Lipo>
107.0909

> <Gold.Chemscore.Internal_Hbond>
0.0000

> <Gold.Chemscore.DEClash>
0.1443

> <Gold.Chemscore.DEInternal>
0.7409

> <Gold.Chemscore.Rot>
2.8645

> <Gold.Chemscore.Internal.Correction>
   9.000000E+99

> <Gold.Chemscore.Hbonds>
donor molecule, donor type, donor heavy atom, donor atom, acceptor molecule, acceptor atom, score
      P1  H  6896  6908       L1     3  0.07
      P1  H  6931  6943       L1    19  0.01
      P1  H  6934  6947       L1    19  0.08
      P1  H  7997  8009       L1     8  1.00

> <Gold.Chemscore.Hbond.Weighted>
-8.0705

> <Gold.Chemscore.Metal.Weighted>
-0.0000

> <Gold.Chemscore.Lipo.Weighted>
-12.5296

> <Gold.Chemscore.Internal_Hbond.Weighted>
0.0000

> <Gold.Chemscore.DEClash.Weighted>
0.1443

> <Gold.Chemscore.DEInternal.Weighted>
0.7409

> <Gold.Chemscore.Rot.Weighted>
7.3331

> <Gold.Chemscore.Internal.Correction.Weighted>
   9.000000E+99

> <Gold.Protein.RotatedTorsions>
[ 6907 6896 6895 6894 ] final  163.40 input  -60.11 | X-H torsion
[ 7974 7965 7964 7962 ] final  117.64 input  175.53 | X-H torsion
[ 8008 7997 7996 7995 ] final  162.54 input   59.86 | X-H torsion
[ 10167 10162 10161 10158 ] final -171.78 input  -65.29 | X-H torsion
[ 10718 10713 10712 10709 ] final   41.73 input   66.30 | X-H torsion
[ 10763 10752 10751 10750 ] final  101.07 input  -60.55 | X-H torsion
[ 11005 11000 10999 10996 ] final   95.64 input  -57.11 | X-H torsion

> <Gold.Protein.ActiveResidues>
 VAL166  LYS551  ARG553  GLY616  TRP617  ASP618  TYR619  PRO620  LYS621  CYS622 
 ASP623  PHE694  ASN695  SER759  ASP760  ASP761  ALA762  ILE779  LEU786  VAL792 
 PHE793  MET794  SER795  GLU796  ALA797  LYS798  CYS799  TRP800  GLU811  SER814 

> <Gold.Protein.RotatedAtoms>
  151.9257  133.3597  159.3912 H   0  0  0  0  0  0  0  0  0  0  0  0  # atno 6907 bound_to 6896
  150.7027  134.4589  159.5380 H   0  0  0  0  0  0  0  0  0  0  0  0  # atno 6908 bound_to 6896
  152.2220  134.8403  160.0535 H   0  0  0  0  0  0  0  0  0  0  0  0  # atno 6909 bound_to 6896
  145.1649  139.3134  143.4498 H   0  0  0  0  0  0  0  0  0  0  0  0  # atno 7974 bound_to 7965
  156.2023  140.1747  156.7872 H   0  0  0  0  0  0  0  0  0  0  0  0  # atno 8008 bound_to 7997
  154.5609  140.0700  156.8847 H   0  0  0  0  0  0  0  0  0  0  0  0  # atno 8009 bound_to 7997
  155.2851  140.3351  155.4258 H   0  0  0  0  0  0  0  0  0  0  0  0  # atno 8010 bound_to 7997
  139.5782  144.1483  152.1480 H   0  0  0  0  0  0  0  0  0  0  0  0  # atno 10167 bound_to 10162
  157.3969  130.7838  149.7316 H   0  0  0  0  0  0  0  0  0  0  0  0  # atno 10718 bound_to 10713
  153.3219  135.4057  155.1424 H   0  0  0  0  0  0  0  0  0  0  0  0  # atno 10763 bound_to 10752
  154.8602  135.3589  154.5584 H   0  0  0  0  0  0  0  0  0  0  0  0  # atno 10764 bound_to 10752
  153.6018  135.7071  153.5440 H   0  0  0  0  0  0  0  0  0  0  0  0  # atno 10765 bound_to 10752
  139.8787  134.8909  156.4041 H   0  0  0  0  0  0  0  0  0  0  0  0  # atno 11005 bound_to 11000
  146.3477  140.1772  142.8589 LP  0  0  0  0  0  0  0  0  0  0  0  0  # atno 17320 bound_to 7965
  145.0293  140.8857  143.5119 LP  0  0  0  0  0  0  0  0  0  0  0  0  # atno 17321 bound_to 7965
  140.1030  144.5523  150.6976 LP  0  0  0  0  0  0  0  0  0  0  0  0  # atno 17342 bound_to 10162
  140.7063  143.2470  151.4716 LP  0  0  0  0  0  0  0  0  0  0  0  0  # atno 17343 bound_to 10162
  155.9813  130.4021  150.3481 LP  0  0  0  0  0  0  0  0  0  0  0  0  # atno 17370 bound_to 10713
  157.1604  131.0343  151.2843 LP  0  0  0  0  0  0  0  0  0  0  0  0  # atno 17371 bound_to 10713
  140.9246  133.7621  155.9949 LP  0  0  0  0  0  0  0  0  0  0  0  0  # atno 17394 bound_to 11000
  140.8400  134.3078  157.5317 LP  0  0  0  0  0  0  0  0  0  0  0  0  # atno 17395 bound_to 11000

$$$$
