AV-unprocessed.smi:691|AV-procd|sdf|3367|dock4
  -GOLD-   22720 0343D 1   1.00000     0.00000
 Structure written by MMmdl.
 37 38  0  0  0  0  0  0  0  0  1 V2000
  149.1976  140.4547  154.0931 C   0  0  0  0  0  0  0  0  0  0  0  0
  147.6856  140.7644  154.2021 C   0  0  2  0  0  0  0  0  0  0  0  0
  146.8734  139.5181  153.7586 C   0  0  0  0  0  0  0  0  0  0  0  0
  147.2665  139.0531  152.4827 O   0  0  0  0  0  0  0  0  0  0  0  0
  147.3070  141.9552  153.3026 C   0  0  0  0  0  0  0  0  0  0  0  0
  146.0063  142.5276  153.8758 C   0  0  0  0  0  0  0  0  0  0  0  0
  145.9659  142.1027  155.3497 C   0  0  0  0  0  0  0  0  0  0  0  0
  147.2273  141.2579  155.6022 C   0  0  2  0  0  0  0  0  0  0  0  0
  148.2385  142.0901  156.2600 N   0  0  0  0  0  0  0  0  0  0  0  0
  149.2736  141.6487  156.9892 C   0  0  0  0  0  0  0  0  0  0  0  0
  149.4991  140.4587  157.2070 O   0  0  0  0  0  0  0  0  0  0  0  0
  150.0062  142.6754  157.4537 N   0  0  0  0  0  0  0  0  0  0  0  0
  151.1799  142.6368  158.2545 C   0  0  0  0  0  0  0  0  0  0  0  0
  151.9268  143.8253  158.3882 C   0  0  0  0  0  0  0  0  0  0  0  0
  153.1037  143.8139  159.1607 C   0  0  0  0  0  0  0  0  0  0  0  0
  153.4955  142.6043  159.7658 C   0  0  0  0  0  0  0  0  0  0  0  0
  152.8017  141.4539  159.6365 N   0  0  0  0  0  0  0  0  0  0  0  0
  151.6722  141.4725  158.8956 C   0  0  0  0  0  0  0  0  0  0  0  0
  149.4487  140.0732  153.1030 H   0  0  0  0  0  0  0  0  0  0  0  0
  149.5037  139.7046  154.8230 H   0  0  0  0  0  0  0  0  0  0  0  0
  149.8137  141.3390  154.2580 H   0  0  0  0  0  0  0  0  0  0  0  0
  146.9854  138.6970  154.4671 H   0  0  0  0  0  0  0  0  0  0  0  0
  145.8089  139.7518  153.7201 H   0  0  0  0  0  0  0  0  0  0  0  0
  148.1228  139.4014  152.2859 H   0  0  0  0  0  0  0  0  0  0  0  0
  148.0795  142.7235  153.3610 H   0  0  0  0  0  0  0  0  0  0  0  0
  147.2116  141.6826  152.2509 H   0  0  0  0  0  0  0  0  0  0  0  0
  145.9661  143.6116  153.7636 H   0  0  0  0  0  0  0  0  0  0  0  0
  145.1460  142.1145  153.3477 H   0  0  0  0  0  0  0  0  0  0  0  0
  145.8992  142.9624  156.0183 H   0  0  0  0  0  0  0  0  0  0  0  0
  145.0751  141.4986  155.5274 H   0  0  0  0  0  0  0  0  0  0  0  0
  146.9748  140.4144  156.2467 H   0  0  0  0  0  0  0  0  0  0  0  0
  148.1394  143.0877  156.1426 H   0  0  0  0  0  0  0  0  0  0  0  0
  149.6495  143.5986  157.2551 H   0  0  0  0  0  0  0  0  0  0  0  0
  151.6021  144.7374  157.9088 H   0  0  0  0  0  0  0  0  0  0  0  0
  153.6928  144.7104  159.2857 H   0  0  0  0  0  0  0  0  0  0  0  0
  154.3930  142.5584  160.3648 H   0  0  0  0  0  0  0  0  0  0  0  0
  151.1768  140.5182  158.8088 H   0  0  0  0  0  0  0  0  0  0  0  0
  1  2  1  0  0  0  0
  1 19  1  0  0  0  0
  1 20  1  0  0  0  0
  1 21  1  0  0  0  0
  2  8  1  0  0  0  0
  2  3  1  0  0  0  0
  2  5  1  0  0  0  0
  3  4  1  0  0  0  0
  3 22  1  0  0  0  0
  3 23  1  0  0  0  0
  4 24  1  0  0  0  0
  5  6  1  0  0  0  0
  5 25  1  0  0  0  0
  5 26  1  0  0  0  0
  6  7  1  0  0  0  0
  6 27  1  0  0  0  0
  6 28  1  0  0  0  0
  7  8  1  0  0  0  0
  7 29  1  0  0  0  0
  7 30  1  0  0  0  0
  8  9  1  0  0  0  0
  8 31  1  0  0  0  0
  9 10  1  0  0  0  0
  9 32  1  0  0  0  0
 10 11  2  0  0  0  0
 10 12  1  0  0  0  0
 12 13  1  0  0  0  0
 12 33  1  0  0  0  0
 13 18  1  0  0  0  0
 13 14  2  0  0  0  0
 14 15  1  0  0  0  0
 14 34  1  0  0  0  0
 15 16  2  0  0  0  0
 15 35  1  0  0  0  0
 16 17  1  0  0  0  0
 16 36  1  0  0  0  0
 17 18  2  0  0  0  0
 18 37  1  0  0  0  0
M  END
> <s_m_source_file>
AV-unprocessed.smi

> <i_m_source_file_index>
691

> <i_lp_mmshare_version>
43012

> <i_f3d_flags>
0

> <s_epik_input>
W09IXVtDSDJdW0NAXTEoW0NIM10pW0NIMl1bQ0gyXVtDSDJdW0NASF0xW05IXUMoPU8pW05IXWMyW2NIXVtjSF1bY0hdbltjSF0y

> <s_epik_cmdline>
J2VwaWtfcHl0aG9uJywgJy1waCcsICc3LjAnLCAnLXRuJywgJzgnLCAnLW1hJywgJzIwMCcsICctbWV0YWxfYmluZGluZycsICctaW1hZScsICc8aW5maWxlLm1hZT4nLCAnLW9tYWUnLCAnPG91dGZpbGUubWFlPic=

> <r_epik_Ionization_Penalty>
0.00496828

> <r_epik_Ionization_Penalty_Charging>
0

> <r_epik_Ionization_Penalty_Neutral>
0.00496828

> <r_epik_State_Penalty>
0.00358054

> <r_epik_Charging_Adjusted_Penalty>
0.00358054

> <i_epik_Tot_Q>
0

> <i_epik_Tot_abs_Q>
0

> <r_epik_Metal_State_Penalty>
-0

> <b_epik_Metal_Only>
0

> <s_lp_Force_Field>
OPLS_2005

> <r_lp_Energy>
30.6456

> <b_lp_Chiralities_Consistent>
1

> <s_lp_Variant>
AV-unprocessed.smi:691-4

> <Gold.Version>
5.8.1

> <Gold.Id.Protein>
6NUR|6NUR_protein|mol2

> <Gold.PLP.Fitness>
41.4720

> <Gold.PLP.PLP>
-33.7462

> <Gold.PLP.part.hbond>
-3.0000

> <Gold.PLP.part.metal>
0.0000

> <Gold.PLP.part.buried>
-4.0724

> <Gold.PLP.part.nonpolar>
-25.8382

> <Gold.PLP.part.repulsive>
0.0762

> <Gold.PLP.ligand.clash>
0.0000

> <Gold.PLP.ligand.torsion>
0.3886

> <Gold.PLP.Chemscore.Hbond>
2.8247

> <Gold.PLP.Chemscore.CHOScore>
0.0000

> <Gold.PLP.Chemscore.Metal>
0.0000

> <Gold.Chemscore.Hbonds>
donor molecule, donor type, donor heavy atom, donor atom, acceptor molecule, acceptor atom, score
      L1  H     4    24       P1  7957  1.00
      L1  H     9    32       P1  8028  1.00
      L1  H    12    33       P1  8028  0.73

> <Gold.PLP.Chemscore.Internal.Correction>
0.0289

> <Gold.Rescore>
     Score         DG    S(hbond)    S(metal)    S(lipo)     H(rot)  DE(clash)    DE(int)     intcor
     18.11     -21.58       2.74        0.00      98.55       1.78       1.84       1.63       ----

> <Gold.Chemscore.Fitness>
18.1103

> <Gold.Chemscore.DG>
-21.5804

> <Gold.Chemscore.ZeroCoef>
-5.4800

> <Gold.Chemscore.Hbond>
2.7354

> <Gold.Chemscore.Metal>
0.0000

> <Gold.Chemscore.Lipo>
98.5543

> <Gold.Chemscore.Internal_Hbond>
0.0000

> <Gold.Chemscore.DEClash>
1.8417

> <Gold.Chemscore.DEInternal>
1.6284

> <Gold.Chemscore.Rot>
1.7838

> <Gold.Chemscore.Internal.Correction>
   9.000000E+99

> <Gold.Chemscore.Hbonds>
donor molecule, donor type, donor heavy atom, donor atom, acceptor molecule, acceptor atom, score
      L1  H     4    24       P1  7957  0.97
      L1  H     9    32       P1  8028  0.58
      L1  H    12    33       P1  8028  0.59

> <Gold.Chemscore.Hbond.Weighted>
-9.1362

> <Gold.Chemscore.Metal.Weighted>
-0.0000

> <Gold.Chemscore.Lipo.Weighted>
-11.5309

> <Gold.Chemscore.Internal_Hbond.Weighted>
0.0000

> <Gold.Chemscore.DEClash.Weighted>
1.8417

> <Gold.Chemscore.DEInternal.Weighted>
1.6284

> <Gold.Chemscore.Rot.Weighted>
4.5666

> <Gold.Chemscore.Internal.Correction.Weighted>
   9.000000E+99

> <Gold.Protein.RotatedTorsions>
[ 6907 6896 6895 6894 ] final   36.14 input  -60.11 | X-H torsion
[ 7974 7965 7964 7962 ] final  -41.37 input  175.53 | X-H torsion
[ 8008 7997 7996 7995 ] final  134.70 input   59.86 | X-H torsion
[ 10167 10162 10161 10158 ] final -119.53 input  -65.29 | X-H torsion
[ 10718 10713 10712 10709 ] final  -86.14 input   66.30 | X-H torsion
[ 10763 10752 10751 10750 ] final  -25.18 input  -60.55 | X-H torsion
[ 11005 11000 10999 10996 ] final -120.15 input  -57.11 | X-H torsion

> <Gold.Protein.ActiveResidues>
 VAL166  LYS551  ARG553  GLY616  TRP617  ASP618  TYR619  PRO620  LYS621  CYS622 
 ASP623  PHE694  ASN695  SER759  ASP760  ASP761  ALA762  ILE779  LEU786  VAL792 
 PHE793  MET794  SER795  GLU796  ALA797  LYS798  CYS799  TRP800  GLU811  SER814 

> <Gold.Protein.RotatedAtoms>
  152.1257  134.9172  160.0560 H   0  0  0  0  0  0  0  0  0  0  0  0  # atno 6907 bound_to 6896
  152.0296  133.3927  159.4300 H   0  0  0  0  0  0  0  0  0  0  0  0  # atno 6908 bound_to 6896
  150.6852  134.3457  159.4931 H   0  0  0  0  0  0  0  0  0  0  0  0  # atno 6909 bound_to 6896
  146.0218  140.6841  142.9175 H   0  0  0  0  0  0  0  0  0  0  0  0  # atno 7974 bound_to 7965
  156.3000  140.2489  156.3460 H   0  0  0  0  0  0  0  0  0  0  0  0  # atno 8008 bound_to 7997
  154.9011  140.0406  157.1912 H   0  0  0  0  0  0  0  0  0  0  0  0  # atno 8009 bound_to 7997
  154.8500  140.2904  155.5608 H   0  0  0  0  0  0  0  0  0  0  0  0  # atno 8010 bound_to 7997
  140.0456  143.5110  152.2108 H   0  0  0  0  0  0  0  0  0  0  0  0  # atno 10167 bound_to 10162
  155.9991  130.4755  150.4670 H   0  0  0  0  0  0  0  0  0  0  0  0  # atno 10718 bound_to 10713
  153.6957  135.6959  153.5077 H   0  0  0  0  0  0  0  0  0  0  0  0  # atno 10763 bound_to 10752
  153.2380  135.4315  155.0666 H   0  0  0  0  0  0  0  0  0  0  0  0  # atno 10764 bound_to 10752
  154.8359  135.3500  154.6497 H   0  0  0  0  0  0  0  0  0  0  0  0  # atno 10765 bound_to 10752
  141.0164  134.0188  157.3343 H   0  0  0  0  0  0  0  0  0  0  0  0  # atno 11005 bound_to 11000
  144.6993  140.3579  143.7169 LP  0  0  0  0  0  0  0  0  0  0  0  0  # atno 17320 bound_to 7965
  145.7182  139.1702  143.2500 LP  0  0  0  0  0  0  0  0  0  0  0  0  # atno 17321 bound_to 7965
  139.5985  144.7575  151.3227 LP  0  0  0  0  0  0  0  0  0  0  0  0  # atno 17342 bound_to 10162
  140.7240  143.7056  150.7810 LP  0  0  0  0  0  0  0  0  0  0  0  0  # atno 17343 bound_to 10162
  157.2689  131.0583  151.2273 LP  0  0  0  0  0  0  0  0  0  0  0  0  # atno 17370 bound_to 10713
  157.3360  130.7009  149.6353 LP  0  0  0  0  0  0  0  0  0  0  0  0  # atno 17371 bound_to 10713
  139.9120  135.0191  156.7729 LP  0  0  0  0  0  0  0  0  0  0  0  0  # atno 17394 bound_to 11000
  140.6647  133.9614  155.7823 LP  0  0  0  0  0  0  0  0  0  0  0  0  # atno 17395 bound_to 11000

$$$$
