AV-unprocessed.smi:1084|AV-procd|sdf|4718|dock1
  -GOLD-   22720 3243D 1   1.00000     0.00000
 Structure written by MMmdl.
 53 55  0  0  0  0  0  0  0  0  2 V2000
  145.5648  135.9481  152.7185 C   0  0  0  0  0  0  0  0  0  0  0  0
  144.9031  137.2120  152.1228 C   0  0  2  0  0  0  0  0  0  0  0  0
  145.9578  138.0940  151.3982 C   0  0  0  0  0  0  0  0  0  0  0  0
  147.2474  138.1218  152.0851 N   0  0  0  0  0  0  0  0  0  0  0  0
  147.6201  139.0160  153.0124 C   0  0  0  0  0  0  0  0  0  0  0  0
  146.8895  139.9222  153.4101 O   0  0  0  0  0  0  0  0  0  0  0  0
  148.8761  138.7791  153.4289 N   0  0  0  0  0  0  0  0  0  0  0  0
  149.6536  139.4628  154.4046 C   0  0  0  0  0  0  0  0  0  0  0  0
  150.9834  139.1376  154.7628 C   0  0  0  0  0  0  0  0  0  0  0  0
  151.6354  139.9123  155.7419 C   0  0  0  0  0  0  0  0  0  0  0  0
  150.9499  140.9948  156.3415 C   0  0  0  0  0  0  0  0  0  0  0  0
  151.5877  141.7861  157.3216 N   0  0  0  0  0  0  0  0  0  0  0  0
  151.2172  143.1975  157.4097 C   0  0  0  0  0  0  0  0  0  0  0  0
  152.2029  143.9556  158.3145 C   0  0  0  0  0  0  0  0  0  0  0  0
  152.2638  143.3249  159.5893 O   0  0  0  0  0  0  0  0  0  0  0  0
  152.7332  141.9841  159.4937 C   0  0  0  0  0  0  0  0  0  0  0  0
  151.7722  141.1534  158.6252 C   0  0  0  0  0  0  0  0  0  0  0  0
  149.6791  141.3080  155.9900 N   0  0  0  0  0  0  0  0  0  0  0  0
  149.0574  140.5624  155.0536 C   0  0  0  0  0  0  0  0  0  0  0  0
  144.1406  137.9412  153.1902 N   0  3  0  0  0  0  0  0  0  0  0  0
  142.7940  137.3934  153.5144 C   0  0  0  0  0  0  0  0  0  0  0  0
  142.0945  138.2422  154.5904 C   0  0  0  0  0  0  0  0  0  0  0  0
  142.9045  138.3101  155.7542 O   0  0  0  0  0  0  0  0  0  0  0  0
  144.1515  138.9322  155.4828 C   0  0  0  0  0  0  0  0  0  0  0  0
  144.9245  138.1007  154.4463 C   0  0  0  0  0  0  0  0  0  0  0  0
  146.0649  135.3544  151.9541 H   0  0  0  0  0  0  0  0  0  0  0  0
  144.8483  135.2779  153.1894 H   0  0  0  0  0  0  0  0  0  0  0  0
  146.3106  136.2130  153.4684 H   0  0  0  0  0  0  0  0  0  0  0  0
  144.1843  136.8951  151.3651 H   0  0  0  0  0  0  0  0  0  0  0  0
  146.1746  137.6960  150.4071 H   0  0  0  0  0  0  0  0  0  0  0  0
  145.5718  139.1040  151.2501 H   0  0  0  0  0  0  0  0  0  0  0  0
  147.9148  137.4114  151.8217 H   0  0  0  0  0  0  0  0  0  0  0  0
  149.3470  138.0080  152.9785 H   0  0  0  0  0  0  0  0  0  0  0  0
  151.5260  138.3242  154.3094 H   0  0  0  0  0  0  0  0  0  0  0  0
  152.6559  139.6785  156.0065 H   0  0  0  0  0  0  0  0  0  0  0  0
  151.2168  143.6508  156.4176 H   0  0  0  0  0  0  0  0  0  0  0  0
  150.2051  143.2816  157.8082 H   0  0  0  0  0  0  0  0  0  0  0  0
  153.1968  143.9899  157.8651 H   0  0  0  0  0  0  0  0  0  0  0  0
  151.8764  144.9876  158.4431 H   0  0  0  0  0  0  0  0  0  0  0  0
  153.7424  141.9696  159.0791 H   0  0  0  0  0  0  0  0  0  0  0  0
  152.7954  141.5585  160.4953 H   0  0  0  0  0  0  0  0  0  0  0  0
  150.8018  141.0733  159.1167 H   0  0  0  0  0  0  0  0  0  0  0  0
  152.1641  140.1416  158.5317 H   0  0  0  0  0  0  0  0  0  0  0  0
  148.0462  140.8575  154.8138 H   0  0  0  0  0  0  0  0  0  0  0  0
  142.1507  137.3930  152.6351 H   0  0  0  0  0  0  0  0  0  0  0  0
  142.8893  136.3609  153.8546 H   0  0  0  0  0  0  0  0  0  0  0  0
  141.8856  139.2466  154.2182 H   0  0  0  0  0  0  0  0  0  0  0  0
  141.1354  137.7963  154.8543 H   0  0  0  0  0  0  0  0  0  0  0  0
  143.9983  139.9538  155.1312 H   0  0  0  0  0  0  0  0  0  0  0  0
  144.7202  138.9975  156.4104 H   0  0  0  0  0  0  0  0  0  0  0  0
  145.1512  137.1172  154.8611 H   0  0  0  0  0  0  0  0  0  0  0  0
  145.8784  138.5891  154.2574 H   0  0  0  0  0  0  0  0  0  0  0  0
  143.9745  138.8698  152.8287 H   0  0  0  0  0  0  0  0  0  0  0  0
  1  2  1  0  0  0  0
  1 26  1  0  0  0  0
  1 27  1  0  0  0  0
  1 28  1  0  0  0  0
  2  3  1  0  0  0  0
  2 20  1  0  0  0  0
  2 29  1  0  0  0  0
  3  4  1  0  0  0  0
  3 30  1  0  0  0  0
  3 31  1  0  0  0  0
  4  5  1  0  0  0  0
  4 32  1  0  0  0  0
  5  6  2  0  0  0  0
  5  7  1  0  0  0  0
  7  8  1  0  0  0  0
  7 33  1  0  0  0  0
  8 19  1  0  0  0  0
  8  9  2  0  0  0  0
  9 10  1  0  0  0  0
  9 34  1  0  0  0  0
 10 11  2  0  0  0  0
 10 35  1  0  0  0  0
 11 12  1  0  0  0  0
 11 18  1  0  0  0  0
 12 17  1  0  0  0  0
 12 13  1  0  0  0  0
 13 14  1  0  0  0  0
 13 36  1  0  0  0  0
 13 37  1  0  0  0  0
 14 15  1  0  0  0  0
 14 38  1  0  0  0  0
 14 39  1  0  0  0  0
 15 16  1  0  0  0  0
 16 17  1  0  0  0  0
 16 40  1  0  0  0  0
 16 41  1  0  0  0  0
 17 42  1  0  0  0  0
 17 43  1  0  0  0  0
 18 19  2  0  0  0  0
 19 44  1  0  0  0  0
 20 25  1  0  0  0  0
 20 21  1  0  0  0  0
 20 53  1  0  0  0  0
 21 22  1  0  0  0  0
 21 45  1  0  0  0  0
 21 46  1  0  0  0  0
 22 23  1  0  0  0  0
 22 47  1  0  0  0  0
 22 48  1  0  0  0  0
 23 24  1  0  0  0  0
 24 25  1  0  0  0  0
 24 49  1  0  0  0  0
 24 50  1  0  0  0  0
 25 51  1  0  0  0  0
 25 52  1  0  0  0  0
M  CHG  1  20   1
M  END
> <s_m_source_file>
AV-unprocessed.smi

> <i_m_source_file_index>
1084

> <i_lp_mmshare_version>
43012

> <i_f3d_flags>
0

> <s_epik_input>
W0NIMl0xW0NIMl1PW0NIMl1bQ0gyXU4xW0NASF0oW0NIM10pW0NIMl1bTkhdQyg9TylbTkhdYzJbY0hdW2NIXWMobltjSF0yKU4zW0NIMl1bQ0gyXU9bQ0gyXVtDSDJdMw==

> <s_epik_cmdline>
J2VwaWtfcHl0aG9uJywgJy1waCcsICc3LjAnLCAnLXRuJywgJzgnLCAnLW1hJywgJzIwMCcsICctbWV0YWxfYmluZGluZycsICctaW1hZScsICc8aW5maWxlLm1hZT4nLCAnLW9tYWUnLCAnPG91dGZpbGUubWFlPic=

> <r_lp_tautomer_probability>
1

> <r_epik_Ionization_Penalty>
0.604236

> <r_epik_Ionization_Penalty_Charging>
0.602531

> <r_epik_Ionization_Penalty_Neutral>
0.00170595

> <r_epik_State_Penalty>
0.59929

> <r_epik_Charging_Adjusted_Penalty>
1.20182

> <i_epik_Tot_Q>
1

> <i_epik_Tot_abs_Q>
1

> <r_epik_Metal_State_Penalty>
0.598238

> <b_epik_Metal_Only>
0

> <s_lp_Force_Field>
OPLS_2005

> <r_lp_Energy>
38.6371

> <b_lp_Chiralities_Consistent>
1

> <s_lp_Variant>
AV-unprocessed.smi:1084-3

> <Gold.Version>
5.8.1

> <Gold.Id.Protein>
6NUR|6NUR_protein|mol2

> <Gold.PLP.Fitness>
47.3727

> <Gold.PLP.PLP>
-38.3785

> <Gold.PLP.part.hbond>
-4.6241

> <Gold.PLP.part.metal>
0.0000

> <Gold.PLP.part.buried>
2.8271

> <Gold.PLP.part.nonpolar>
-37.8954

> <Gold.PLP.part.repulsive>
0.5146

> <Gold.PLP.ligand.clash>
0.0000

> <Gold.PLP.ligand.torsion>
1.3137

> <Gold.PLP.Chemscore.Hbond>
3.7166

> <Gold.PLP.Chemscore.CHOScore>
0.0000

> <Gold.PLP.Chemscore.Metal>
0.0000

> <Gold.Chemscore.Hbonds>
donor molecule, donor type, donor heavy atom, donor atom, acceptor molecule, acceptor atom, score
      L1  H     4    32       P1  7948  1.00
      L1  H     7    33       P1  7948  0.70
      L1  H    20    53       P1 10175  2.00

> <Gold.PLP.Chemscore.Internal.Correction>
0.4721

> <Gold.Rescore>
     Score         DG    S(hbond)    S(metal)    S(lipo)     H(rot)  DE(clash)    DE(int)     intcor
     17.18     -21.81       2.95        0.00      92.07       1.68       1.75       2.88       ----

> <Gold.Chemscore.Fitness>
17.1784

> <Gold.Chemscore.DG>
-21.8057

> <Gold.Chemscore.ZeroCoef>
-5.4800

> <Gold.Chemscore.Hbond>
2.9504

> <Gold.Chemscore.Metal>
0.0000

> <Gold.Chemscore.Lipo>
92.0677

> <Gold.Chemscore.Internal_Hbond>
0.0000

> <Gold.Chemscore.DEClash>
1.7458

> <Gold.Chemscore.DEInternal>
2.8815

> <Gold.Chemscore.Rot>
1.6800

> <Gold.Chemscore.Internal.Correction>
   9.000000E+99

> <Gold.Chemscore.Hbonds>
donor molecule, donor type, donor heavy atom, donor atom, acceptor molecule, acceptor atom, score
      L1  H     4    32       P1  7948  0.94
      L1  H     7    33       P1  7948  0.66
      L1  H    20    53       P1 10175  1.00

> <Gold.Chemscore.Hbond.Weighted>
-9.8545

> <Gold.Chemscore.Metal.Weighted>
-0.0000

> <Gold.Chemscore.Lipo.Weighted>
-10.7719

> <Gold.Chemscore.Internal_Hbond.Weighted>
0.0000

> <Gold.Chemscore.DEClash.Weighted>
1.7458

> <Gold.Chemscore.DEInternal.Weighted>
2.8815

> <Gold.Chemscore.Rot.Weighted>
4.3007

> <Gold.Chemscore.Internal.Correction.Weighted>
   9.000000E+99

> <Gold.Protein.RotatedTorsions>
[ 6907 6896 6895 6894 ] final -127.91 input  -60.11 | X-H torsion
[ 7974 7965 7964 7962 ] final   31.01 input  175.53 | X-H torsion
[ 8008 7997 7996 7995 ] final  112.00 input   59.86 | X-H torsion
[ 10167 10162 10161 10158 ] final    6.55 input  -65.29 | X-H torsion
[ 10718 10713 10712 10709 ] final  163.46 input   66.30 | X-H torsion
[ 10763 10752 10751 10750 ] final  -10.01 input  -60.55 | X-H torsion
[ 11005 11000 10999 10996 ] final  -52.10 input  -57.11 | X-H torsion

> <Gold.Protein.ActiveResidues>
 VAL166  LYS551  ARG553  GLY616  TRP617  ASP618  TYR619  PRO620  LYS621  CYS622 
 ASP623  PHE694  ASN695  SER759  ASP760  ASP761  ALA762  ILE779  LEU786  VAL792 
 PHE793  MET794  SER795  GLU796  ALA797  LYS798  CYS799  TRP800  GLU811  SER814 

> <Gold.Protein.RotatedAtoms>
  150.9123  133.6983  159.2851 H   0  0  0  0  0  0  0  0  0  0  0  0  # atno 6907 bound_to 6896
  151.4465  135.1024  159.9695 H   0  0  0  0  0  0  0  0  0  0  0  0  # atno 6908 bound_to 6896
  152.4936  133.8518  159.7261 H   0  0  0  0  0  0  0  0  0  0  0  0  # atno 6909 bound_to 6896
  146.1576  139.6713  142.9055 H   0  0  0  0  0  0  0  0  0  0  0  0  # atno 7974 bound_to 7965
  156.2162  140.3008  155.9846 H   0  0  0  0  0  0  0  0  0  0  0  0  # atno 8008 bound_to 7997
  155.2598  140.0429  157.3013 H   0  0  0  0  0  0  0  0  0  0  0  0  # atno 8009 bound_to 7997
  154.5772  140.2365  155.8114 H   0  0  0  0  0  0  0  0  0  0  0  0  # atno 8010 bound_to 7997
  140.6421  143.7748  150.7444 H   0  0  0  0  0  0  0  0  0  0  0  0  # atno 10167 bound_to 10162
  157.1082  131.0461  151.2468 H   0  0  0  0  0  0  0  0  0  0  0  0  # atno 10718 bound_to 10713
  153.4630  135.7016  153.6039 H   0  0  0  0  0  0  0  0  0  0  0  0  # atno 10763 bound_to 10752
  153.4325  135.3799  155.2179 H   0  0  0  0  0  0  0  0  0  0  0  0  # atno 10764 bound_to 10752
  154.8727  135.3954  154.4058 H   0  0  0  0  0  0  0  0  0  0  0  0  # atno 10765 bound_to 10752
  141.0906  133.6633  156.3975 H   0  0  0  0  0  0  0  0  0  0  0  0  # atno 11005 bound_to 11000
  145.4668  141.0435  143.2721 LP  0  0  0  0  0  0  0  0  0  0  0  0  # atno 17320 bound_to 7965
  144.7984  139.6188  143.7082 LP  0  0  0  0  0  0  0  0  0  0  0  0  # atno 17321 bound_to 7965
  140.1382  143.4465  152.2211 LP  0  0  0  0  0  0  0  0  0  0  0  0  # atno 17342 bound_to 10162
  139.5631  144.7418  151.4099 LP  0  0  0  0  0  0  0  0  0  0  0  0  # atno 17343 bound_to 10162
  157.4582  130.7638  149.7212 LP  0  0  0  0  0  0  0  0  0  0  0  0  # atno 17370 bound_to 10713
  155.9857  130.3981  150.3250 LP  0  0  0  0  0  0  0  0  0  0  0  0  # atno 17371 bound_to 10713
  140.5260  134.6258  157.5334 LP  0  0  0  0  0  0  0  0  0  0  0  0  # atno 17394 bound_to 11000
  139.9732  134.7259  156.0001 LP  0  0  0  0  0  0  0  0  0  0  0  0  # atno 17395 bound_to 11000

$$$$
