AV-unprocessed.smi:109|AV-procd|sdf|1032|dock7
  -GOLD-   2262018 43D 1   1.00000     0.00000
 Structure written by MMmdl.
 58 61  0  0  0  0  0  0  0  0  1 V2000
  156.9069  139.6291  160.8310 O   0  0  0  0  0  0  0  0  0  0  0  0
  156.0585  140.5126  160.1304 C   0  0  0  0  0  0  0  0  0  0  0  0
  154.5947  140.0763  160.3003 C   0  0  0  0  0  0  0  0  0  0  0  0
  153.6056  140.9884  159.5476 C   0  0  1  0  0  0  0  0  0  0  0  0
  152.4077  140.2362  159.1682 N   0  0  0  0  0  0  0  0  0  0  0  0
  151.9567  140.1808  157.8948 C   0  0  0  0  0  0  0  0  0  0  0  0
  152.7758  139.8560  156.8611 N   0  0  0  0  0  0  0  0  0  0  0  0
  152.2949  139.8038  155.6157 C   0  0  0  0  0  0  0  0  0  0  0  0
  151.0509  140.0353  155.1922 N   0  0  0  0  0  0  0  0  0  0  0  0
  150.2227  140.3664  156.2248 C   0  0  0  0  0  0  0  0  0  0  0  0
  150.5983  140.4601  157.5942 C   0  0  0  0  0  0  0  0  0  0  0  0
  149.4971  140.8179  158.3604 N   0  0  0  0  0  0  0  0  0  0  0  0
  148.5286  140.9253  157.4909 C   0  0  0  0  0  0  0  0  0  0  0  0
  148.8775  140.6731  156.1825 N   0  0  0  0  0  0  0  0  0  0  0  0
  147.9905  140.7133  154.9803 C   0  0  2  0  0  0  0  0  0  0  0  0
  147.3868  141.9695  154.9285 O   0  0  0  0  0  0  0  0  0  0  0  0
  146.0176  141.8291  154.5674 C   0  0  2  0  0  0  0  0  0  0  0  0
  145.2225  143.0434  155.0696 C   0  0  0  0  0  0  0  0  0  0  0  0
  143.8381  142.7809  154.9883 O   0  0  0  0  0  0  0  0  0  0  0  0
  145.6297  140.5179  155.2533 C   0  0  1  0  0  0  0  0  0  0  0  0
  144.4583  139.9324  154.7150 O   0  0  0  0  0  0  0  0  0  0  0  0
  146.8778  139.6558  155.0759 C   0  0  1  0  0  0  0  0  0  0  0  0
  146.8265  138.8761  153.8939 O   0  0  0  0  0  0  0  0  0  0  0  0
  153.2381  142.2654  160.3445 C   0  0  0  0  0  0  0  0  0  0  0  0
  152.7400  141.9882  161.7828 C   0  0  0  0  0  0  0  0  0  0  0  0
  152.4307  143.2928  162.5356 C   0  0  0  0  0  0  0  0  0  0  0  0
  151.4214  144.1575  161.7656 C   0  0  0  0  0  0  0  0  0  0  0  0
  151.9168  144.4467  160.3408 C   0  0  0  0  0  0  0  0  0  0  0  0
  152.2216  143.1447  159.5831 C   0  0  0  0  0  0  0  0  0  0  0  0
  148.6630  140.5697  154.1330 H   0  0  0  0  0  0  0  0  0  0  0  0
  145.9372  141.7181  153.4839 H   0  0  0  0  0  0  0  0  0  0  0  0
  145.4638  140.6970  156.3157 H   0  0  0  0  0  0  0  0  0  0  0  0
  147.0338  138.9919  155.9277 H   0  0  0  0  0  0  0  0  0  0  0  0
  156.5016  138.7755  160.8485 H   0  0  0  0  0  0  0  0  0  0  0  0
  156.2061  141.5238  160.5106 H   0  0  0  0  0  0  0  0  0  0  0  0
  156.3455  140.5145  159.0784 H   0  0  0  0  0  0  0  0  0  0  0  0
  154.4825  139.0429  159.9698 H   0  0  0  0  0  0  0  0  0  0  0  0
  154.3526  140.0862  161.3639 H   0  0  0  0  0  0  0  0  0  0  0  0
  154.1419  141.3338  158.6646 H   0  0  0  0  0  0  0  0  0  0  0  0
  151.9392  139.7621  159.9271 H   0  0  0  0  0  0  0  0  0  0  0  0
  153.0078  139.5369  154.8497 H   0  0  0  0  0  0  0  0  0  0  0  0
  147.5243  141.1955  157.7834 H   0  0  0  0  0  0  0  0  0  0  0  0
  145.4572  143.2385  156.1165 H   0  0  0  0  0  0  0  0  0  0  0  0
  145.4736  143.9440  154.5079 H   0  0  0  0  0  0  0  0  0  0  0  0
  143.5692  142.8736  154.0870 H   0  0  0  0  0  0  0  0  0  0  0  0
  144.4764  140.0321  153.7755 H   0  0  0  0  0  0  0  0  0  0  0  0
  147.1753  138.0188  154.0844 H   0  0  0  0  0  0  0  0  0  0  0  0
  154.1522  142.8552  160.4306 H   0  0  0  0  0  0  0  0  0  0  0  0
  151.8426  141.3693  161.7578 H   0  0  0  0  0  0  0  0  0  0  0  0
  153.4870  141.4267  162.3434 H   0  0  0  0  0  0  0  0  0  0  0  0
  152.0426  143.0653  163.5289 H   0  0  0  0  0  0  0  0  0  0  0  0
  153.3531  143.8552  162.6862 H   0  0  0  0  0  0  0  0  0  0  0  0
  150.4589  143.6460  161.7219 H   0  0  0  0  0  0  0  0  0  0  0  0
  151.2513  145.0937  162.2981 H   0  0  0  0  0  0  0  0  0  0  0  0
  151.1696  145.0263  159.7980 H   0  0  0  0  0  0  0  0  0  0  0  0
  152.8151  145.0638  160.3840 H   0  0  0  0  0  0  0  0  0  0  0  0
  152.6049  143.3833  158.5904 H   0  0  0  0  0  0  0  0  0  0  0  0
  151.2918  142.5957  159.4290 H   0  0  0  0  0  0  0  0  0  0  0  0
  1  2  1  0  0  0  0
  1 34  1  0  0  0  0
  2  3  1  0  0  0  0
  2 35  1  0  0  0  0
  2 36  1  0  0  0  0
  3  4  1  0  0  0  0
  3 37  1  0  0  0  0
  3 38  1  0  0  0  0
  4  5  1  0  0  0  0
  4 24  1  0  0  0  0
  4 39  1  0  0  0  0
  5  6  1  0  0  0  0
  5 40  1  0  0  0  0
  6 11  1  0  0  0  0
  6  7  2  0  0  0  0
  7  8  1  0  0  0  0
  8  9  2  0  0  0  0
  8 41  1  0  0  0  0
  9 10  1  0  0  0  0
 10 14  1  0  0  0  0
 10 11  2  0  0  0  0
 11 12  1  0  0  0  0
 12 13  2  0  0  0  0
 13 14  1  0  0  0  0
 13 42  1  0  0  0  0
 14 15  1  0  0  0  0
 15 30  1  0  0  0  0
 15 22  1  0  0  0  0
 15 16  1  0  0  0  0
 16 17  1  0  0  0  0
 17 31  1  0  0  0  0
 17 18  1  0  0  0  0
 17 20  1  0  0  0  0
 18 19  1  0  0  0  0
 18 43  1  0  0  0  0
 18 44  1  0  0  0  0
 19 45  1  0  0  0  0
 20 32  1  0  0  0  0
 20 21  1  0  0  0  0
 20 22  1  0  0  0  0
 21 46  1  0  0  0  0
 22 33  1  0  0  0  0
 22 23  1  0  0  0  0
 23 47  1  0  0  0  0
 24 29  1  0  0  0  0
 24 25  1  0  0  0  0
 24 48  1  0  0  0  0
 25 26  1  0  0  0  0
 25 49  1  0  0  0  0
 25 50  1  0  0  0  0
 26 27  1  0  0  0  0
 26 51  1  0  0  0  0
 26 52  1  0  0  0  0
 27 28  1  0  0  0  0
 27 53  1  0  0  0  0
 27 54  1  0  0  0  0
 28 29  1  0  0  0  0
 28 55  1  0  0  0  0
 28 56  1  0  0  0  0
 29 57  1  0  0  0  0
 29 58  1  0  0  0  0
M  END
> <s_m_source_file>
AV-unprocessed.smi

> <i_m_source_file_index>
109

> <i_lp_mmshare_version>
43012

> <i_f3d_flags>
0

> <s_epik_input>
W0NIMl0xW0NIMl1bQ0gyXVtDSDJdW0NIMl1bQ0hdMVtDQEhdKFtDSDJdW0NIMl1bT0hdKVtOSF1jKG5bY0hdbjIpYyhjMjMpbltjSF1uM1tDQEBIXTRPW0NASF0oW0NIMl1bT0hdKVtDQEBIXShbT0hdKVtDQEhdNFtPSF0=

> <s_epik_cmdline>
J2VwaWtfcHl0aG9uJywgJy1waCcsICc3LjAnLCAnLXRuJywgJzgnLCAnLW1hJywgJzIwMCcsICctbWV0YWxfYmluZGluZycsICctaW1hZScsICc8aW5maWxlLm1hZT4nLCAnLW9tYWUnLCAnPG91dGZpbGUubWFlPic=

> <r_lp_tautomer_probability>
1

> <r_epik_Ionization_Penalty>
0.000793976

> <r_epik_Ionization_Penalty_Charging>
0

> <r_epik_Ionization_Penalty_Neutral>
0.000793976

> <r_epik_State_Penalty>
-0

> <r_epik_Charging_Adjusted_Penalty>
0

> <i_epik_Tot_Q>
0

> <i_epik_Tot_abs_Q>
0

> <r_epik_Metal_State_Penalty>
-0

> <b_epik_Metal_Only>
0

> <s_epik_Chemistry_Notes>
This compound contains an acetal/aminal-like group ( X-CH(R)-Y where X, Y are N, S, or O) that may be acid/base labile, releasing an aldehyde.

> <s_lp_Force_Field>
OPLS_2005

> <r_lp_Energy>
54.9407

> <b_lp_Chiralities_Consistent>
1

> <s_lp_Variant>
AV-unprocessed.smi:109-2

> <Gold.Version>
5.8.1

> <Gold.Id.Protein>
6NUR|6NUR_protein|mol2

> <Gold.PLP.Fitness>
58.1970

> <Gold.PLP.PLP>
-49.2399

> <Gold.PLP.part.hbond>
-3.4131

> <Gold.PLP.part.metal>
0.0000

> <Gold.PLP.part.buried>
-6.7328

> <Gold.PLP.part.nonpolar>
-41.0984

> <Gold.PLP.part.repulsive>
0.3884

> <Gold.PLP.ligand.clash>
0.0000

> <Gold.PLP.ligand.torsion>
0.9650

> <Gold.PLP.Chemscore.Hbond>
3.5760

> <Gold.PLP.Chemscore.CHOScore>
0.0000

> <Gold.PLP.Chemscore.Metal>
0.0000

> <Gold.Chemscore.Hbonds>
donor molecule, donor type, donor heavy atom, donor atom, acceptor molecule, acceptor atom, score
      L1  H    19    45       P1 10174  0.62
      L1  H    21    46       P1 10175  0.91
      P1  H  7989  7998       L1     9  0.70
      P1  H  7997  8009       L1     7  0.95

> <Gold.PLP.Chemscore.Internal.Correction>
0.1592

> <Gold.Rescore>
     Score         DG    S(hbond)    S(metal)    S(lipo)     H(rot)  DE(clash)    DE(int)     intcor
     10.47     -11.66       2.24        0.00     108.61       5.47       0.20       0.99       ----

> <Gold.Chemscore.Fitness>
10.4721

> <Gold.Chemscore.DG>
-11.6627

> <Gold.Chemscore.ZeroCoef>
-5.4800

> <Gold.Chemscore.Hbond>
2.2363

> <Gold.Chemscore.Metal>
0.0000

> <Gold.Chemscore.Lipo>
108.6075

> <Gold.Chemscore.Internal_Hbond>
0.0000

> <Gold.Chemscore.DEClash>
0.2032

> <Gold.Chemscore.DEInternal>
0.9875

> <Gold.Chemscore.Rot>
5.4662

> <Gold.Chemscore.Internal.Correction>
   9.000000E+99

> <Gold.Chemscore.Hbonds>
donor molecule, donor type, donor heavy atom, donor atom, acceptor molecule, acceptor atom, score
      L1  H    19    45       P1 10174  0.16
      L1  H    21    46       P1 10175  0.86
      P1  H  7989  7998       L1     9  0.07
      P1  H  7997  8009       L1     7  0.21

> <Gold.Chemscore.Hbond.Weighted>
-7.4692

> <Gold.Chemscore.Metal.Weighted>
-0.0000

> <Gold.Chemscore.Lipo.Weighted>
-12.7071

> <Gold.Chemscore.Internal_Hbond.Weighted>
0.0000

> <Gold.Chemscore.DEClash.Weighted>
0.2032

> <Gold.Chemscore.DEInternal.Weighted>
0.9875

> <Gold.Chemscore.Rot.Weighted>
13.9935

> <Gold.Chemscore.Internal.Correction.Weighted>
   9.000000E+99

> <Gold.Protein.RotatedTorsions>
[ 6907 6896 6895 6894 ] final   96.73 input  -60.11 | X-H torsion
[ 7974 7965 7964 7962 ] final   12.58 input  175.53 | X-H torsion
[ 8008 7997 7996 7995 ] final -172.24 input   59.86 | X-H torsion
[ 10167 10162 10161 10158 ] final -172.08 input  -65.29 | X-H torsion
[ 10718 10713 10712 10709 ] final -128.93 input   66.30 | X-H torsion
[ 10763 10752 10751 10750 ] final  -31.14 input  -60.55 | X-H torsion
[ 11005 11000 10999 10996 ] final -156.87 input  -57.11 | X-H torsion

> <Gold.Protein.ActiveResidues>
 VAL166  LYS551  ARG553  GLY616  TRP617  ASP618  TYR619  PRO620  LYS621  CYS622 
 ASP623  PHE694  ASN695  SER759  ASP760  ASP761  ALA762  ILE779  LEU786  VAL792 
 PHE793  MET794  SER795  GLU796  ALA797  LYS798  CYS799  TRP800  GLU811  SER814 

> <Gold.Protein.RotatedAtoms>
  152.5432  134.0842  159.8248 H   0  0  0  0  0  0  0  0  0  0  0  0  # atno 6907 bound_to 6896
  151.0940  133.5287  159.2620 H   0  0  0  0  0  0  0  0  0  0  0  0  # atno 6908 bound_to 6896
  151.2067  135.0473  159.8948 H   0  0  0  0  0  0  0  0  0  0  0  0  # atno 6909 bound_to 6896
  146.2348  139.9315  142.8495 H   0  0  0  0  0  0  0  0  0  0  0  0  # atno 7974 bound_to 7965
  155.9420  140.1110  157.1047 H   0  0  0  0  0  0  0  0  0  0  0  0  # atno 8008 bound_to 7997
  154.4091  140.1217  156.5006 H   0  0  0  0  0  0  0  0  0  0  0  0  # atno 8009 bound_to 7997
  155.6950  140.3472  155.4911 H   0  0  0  0  0  0  0  0  0  0  0  0  # atno 8010 bound_to 7997
  139.5765  144.1520  152.1458 H   0  0  0  0  0  0  0  0  0  0  0  0  # atno 10167 bound_to 10162
  156.1998  130.6850  151.0525 H   0  0  0  0  0  0  0  0  0  0  0  0  # atno 10718 bound_to 10713
  153.7925  135.6896  153.4869 H   0  0  0  0  0  0  0  0  0  0  0  0  # atno 10763 bound_to 10752
  153.1740  135.4531  154.9939 H   0  0  0  0  0  0  0  0  0  0  0  0  # atno 10764 bound_to 10752
  154.8039  135.3349  154.7420 H   0  0  0  0  0  0  0  0  0  0  0  0  # atno 10765 bound_to 10752
  140.6708  134.4249  157.5231 H   0  0  0  0  0  0  0  0  0  0  0  0  # atno 11005 bound_to 11000
  145.2040  140.9867  143.4139 LP  0  0  0  0  0  0  0  0  0  0  0  0  # atno 17320 bound_to 7965
  144.9749  139.3842  143.6291 LP  0  0  0  0  0  0  0  0  0  0  0  0  # atno 17321 bound_to 7965
  140.1064  144.5495  150.6954 LP  0  0  0  0  0  0  0  0  0  0  0  0  # atno 17342 bound_to 10162
  140.7047  143.2459  151.4761 LP  0  0  0  0  0  0  0  0  0  0  0  0  # atno 17343 bound_to 10162
  157.6979  131.0787  150.6913 LP  0  0  0  0  0  0  0  0  0  0  0  0  # atno 17370 bound_to 10713
  156.6970  130.4612  149.5583 LP  0  0  0  0  0  0  0  0  0  0  0  0  # atno 17371 bound_to 10713
  139.8982  134.8619  156.2011 LP  0  0  0  0  0  0  0  0  0  0  0  0  # atno 17394 bound_to 11000
  141.0393  133.6946  156.1569 LP  0  0  0  0  0  0  0  0  0  0  0  0  # atno 17395 bound_to 11000

$$$$
