AV-unprocessed.smi:1662|AV-procd|sdf|6660|dock6
  -GOLD-   22720 7373D 1   1.00000     0.00000
 Structure written by MMmdl.
 47 48  0  0  0  0  0  0  0  0  1 V2000
  147.2936  133.4288  153.3361 C   0  0  0  0  0  0  0  0  0  0  0  0
  148.3384  133.1624  154.3858 C   0  0  0  0  0  0  0  0  0  0  0  0
  148.8330  134.1938  154.9871 N   0  0  0  0  0  0  0  0  0  0  0  0
  149.7893  134.0610  155.9755 N   0  0  0  0  0  0  0  0  0  0  0  0
  150.1739  135.3336  156.6110 C   0  0  0  0  0  0  0  0  0  0  0  0
  150.6932  136.3991  155.6288 C   0  0  0  0  0  0  0  0  0  0  0  0
  150.8654  136.1016  154.4477 O   0  0  0  0  0  0  0  0  0  0  0  0
  150.9350  137.6262  156.1173 N   0  0  0  0  0  0  0  0  0  0  0  0
  151.4332  138.7835  155.3802 C   0  0  1  0  0  0  0  0  0  0  0  0
  150.4678  139.1536  154.2373 C   0  0  0  0  0  0  0  0  0  0  0  0
  149.1314  139.6885  154.7732 C   0  0  0  0  0  0  0  0  0  0  0  0
  149.3553  140.8803  155.7136 C   0  0  0  0  0  0  0  0  0  0  0  0
  150.3043  140.5339  156.8799 C   0  0  2  0  0  0  0  0  0  0  0  0
  150.4790  141.7616  157.7912 C   0  0  0  0  0  0  0  0  0  0  0  0
  151.6547  139.9791  156.3430 C   0  0  1  0  0  0  0  0  0  0  0  0
  152.6426  139.6105  157.4692 C   0  0  0  0  0  0  0  0  0  0  0  0
  150.3071  132.8718  156.3997 C   0  0  0  0  0  0  0  0  0  0  0  0
  151.1494  132.7983  157.2954 O   0  0  0  0  0  0  0  0  0  0  0  0
  149.7471  131.7083  155.7094 C   0  0  0  0  0  0  0  0  0  0  0  0
  150.2562  130.4429  156.1299 C   0  0  0  0  0  0  0  0  0  0  0  0
  150.6874  129.4255  156.4748 N   0  0  0  0  0  0  0  0  0  0  0  0
  148.8003  131.8256  154.7452 C   0  0  0  0  0  0  0  0  0  0  0  0
  148.1803  130.6487  154.0049 C   0  0  0  0  0  0  0  0  0  0  0  0
  147.5955  133.0156  152.3738 H   0  0  0  0  0  0  0  0  0  0  0  0
  147.1214  134.4970  153.1953 H   0  0  0  0  0  0  0  0  0  0  0  0
  146.3419  132.9770  153.6154 H   0  0  0  0  0  0  0  0  0  0  0  0
  149.3355  135.7510  157.1712 H   0  0  0  0  0  0  0  0  0  0  0  0
  150.9538  135.1529  157.3531 H   0  0  0  0  0  0  0  0  0  0  0  0
  150.7592  137.7708  157.1009 H   0  0  0  0  0  0  0  0  0  0  0  0
  152.3971  138.5208  154.9402 H   0  0  0  0  0  0  0  0  0  0  0  0
  150.9318  139.9137  153.6076 H   0  0  0  0  0  0  0  0  0  0  0  0
  150.2930  138.2922  153.5914 H   0  0  0  0  0  0  0  0  0  0  0  0
  148.4927  139.9869  153.9416 H   0  0  0  0  0  0  0  0  0  0  0  0
  148.5974  138.8974  155.3013 H   0  0  0  0  0  0  0  0  0  0  0  0
  149.7643  141.7162  155.1444 H   0  0  0  0  0  0  0  0  0  0  0  0
  148.3936  141.2164  156.1028 H   0  0  0  0  0  0  0  0  0  0  0  0
  149.8252  139.7559  157.4767 H   0  0  0  0  0  0  0  0  0  0  0  0
  151.0183  142.5608  157.2820 H   0  0  0  0  0  0  0  0  0  0  0  0
  151.0239  141.5152  158.7020 H   0  0  0  0  0  0  0  0  0  0  0  0
  149.5122  142.1598  158.1001 H   0  0  0  0  0  0  0  0  0  0  0  0
  152.1256  140.7718  155.7594 H   0  0  0  0  0  0  0  0  0  0  0  0
  152.1992  138.9189  158.1864 H   0  0  0  0  0  0  0  0  0  0  0  0
  152.9722  140.4916  158.0187 H   0  0  0  0  0  0  0  0  0  0  0  0
  153.5377  139.1381  157.0641 H   0  0  0  0  0  0  0  0  0  0  0  0
  148.5686  129.6915  154.3519 H   0  0  0  0  0  0  0  0  0  0  0  0
  148.3866  130.7180  152.9363 H   0  0  0  0  0  0  0  0  0  0  0  0
  147.0991  130.6333  154.1470 H   0  0  0  0  0  0  0  0  0  0  0  0
  1  2  1  0  0  0  0
  1 24  1  0  0  0  0
  1 25  1  0  0  0  0
  1 26  1  0  0  0  0
  2 22  1  0  0  0  0
  2  3  2  0  0  0  0
  3  4  1  0  0  0  0
  4  5  1  0  0  0  0
  4 17  1  0  0  0  0
  5  6  1  0  0  0  0
  5 27  1  0  0  0  0
  5 28  1  0  0  0  0
  6  7  2  0  0  0  0
  6  8  1  0  0  0  0
  8  9  1  0  0  0  0
  8 29  1  0  0  0  0
  9 15  1  0  0  0  0
  9 10  1  0  0  0  0
  9 30  1  0  0  0  0
 10 11  1  0  0  0  0
 10 31  1  0  0  0  0
 10 32  1  0  0  0  0
 11 12  1  0  0  0  0
 11 33  1  0  0  0  0
 11 34  1  0  0  0  0
 12 13  1  0  0  0  0
 12 35  1  0  0  0  0
 12 36  1  0  0  0  0
 13 14  1  0  0  0  0
 13 15  1  0  0  0  0
 13 37  1  0  0  0  0
 14 38  1  0  0  0  0
 14 39  1  0  0  0  0
 14 40  1  0  0  0  0
 15 16  1  0  0  0  0
 15 41  1  0  0  0  0
 16 42  1  0  0  0  0
 16 43  1  0  0  0  0
 16 44  1  0  0  0  0
 17 18  2  0  0  0  0
 17 19  1  0  0  0  0
 19 20  1  0  0  0  0
 19 22  2  0  0  0  0
 20 21  3  0  0  0  0
 22 23  1  0  0  0  0
 23 45  1  0  0  0  0
 23 46  1  0  0  0  0
 23 47  1  0  0  0  0
M  END
> <s_m_source_file>
AV-unprocessed.smi

> <i_m_source_file_index>
1662

> <i_lp_mmshare_version>
43012

> <i_f3d_flags>
0

> <s_epik_input>
TiNDYyhjMVtDSDNdKWMoPU8pbihuYzFbQ0gzXSlbQ0gyXUMoPU8pW05IXVtDQEBIXTJbQ0gyXVtDSDJdW0NIMl1bQ0BASF0oW0NIM10pW0NASF0yW0NIM10=

> <s_epik_cmdline>
J2VwaWtfcHl0aG9uJywgJy1waCcsICc3LjAnLCAnLXRuJywgJzgnLCAnLW1hJywgJzIwMCcsICctbWV0YWxfYmluZGluZycsICctaW1hZScsICc8aW5maWxlLm1hZT4nLCAnLW9tYWUnLCAnPG91dGZpbGUubWFlPic=

> <r_lp_tautomer_probability>
1

> <r_epik_Ionization_Penalty>
1.90709e-08

> <r_epik_Ionization_Penalty_Charging>
2.37982e-11

> <r_epik_Ionization_Penalty_Neutral>
1.90471e-08

> <r_epik_State_Penalty>
-0

> <r_epik_Charging_Adjusted_Penalty>
2.37982e-11

> <i_epik_Tot_Q>
0

> <i_epik_Tot_abs_Q>
0

> <r_epik_Metal_State_Penalty>
-0

> <b_epik_Metal_Only>
0

> <s_lp_Force_Field>
OPLS_2005

> <r_lp_Energy>
25.169

> <b_lp_Chiralities_Consistent>
1

> <s_lp_Variant>
AV-unprocessed.smi:1662-4

> <Gold.Version>
5.8.1

> <Gold.Id.Protein>
6NUR|6NUR_protein|mol2

> <Gold.PLP.Fitness>
40.9338

> <Gold.PLP.PLP>
-35.2309

> <Gold.PLP.part.hbond>
-2.0000

> <Gold.PLP.part.metal>
0.0000

> <Gold.PLP.part.buried>
-3.9529

> <Gold.PLP.part.nonpolar>
-30.9533

> <Gold.PLP.part.repulsive>
1.2309

> <Gold.PLP.ligand.clash>
0.0000

> <Gold.PLP.ligand.torsion>
0.0708

> <Gold.PLP.Chemscore.Hbond>
1.9440

> <Gold.PLP.Chemscore.CHOScore>
0.0000

> <Gold.PLP.Chemscore.Metal>
0.0000

> <Gold.Chemscore.Hbonds>
donor molecule, donor type, donor heavy atom, donor atom, acceptor molecule, acceptor atom, score
      P1  H  6896  6908       L1    18  0.99
      P1  H 10752 10765       L1     7  0.70

> <Gold.PLP.Chemscore.Internal.Correction>
0.0125

> <Gold.Rescore>
     Score         DG    S(hbond)    S(metal)    S(lipo)     H(rot)  DE(clash)    DE(int)     intcor
     15.92     -17.58       1.95        0.00      79.53       1.45       0.24       1.42       ----

> <Gold.Chemscore.Fitness>
15.9187

> <Gold.Chemscore.DG>
-17.5766

> <Gold.Chemscore.ZeroCoef>
-5.4800

> <Gold.Chemscore.Hbond>
1.9475

> <Gold.Chemscore.Metal>
0.0000

> <Gold.Chemscore.Lipo>
79.5275

> <Gold.Chemscore.Internal_Hbond>
0.0000

> <Gold.Chemscore.DEClash>
0.2386

> <Gold.Chemscore.DEInternal>
1.4192

> <Gold.Chemscore.Rot>
1.4504

> <Gold.Chemscore.Internal.Correction>
   9.000000E+99

> <Gold.Chemscore.Hbonds>
donor molecule, donor type, donor heavy atom, donor atom, acceptor molecule, acceptor atom, score
      P1  H  6896  6908       L1    18  0.90
      P1  H 10752 10765       L1     7  0.44

> <Gold.Chemscore.Hbond.Weighted>
-6.5048

> <Gold.Chemscore.Metal.Weighted>
-0.0000

> <Gold.Chemscore.Lipo.Weighted>
-9.3047

> <Gold.Chemscore.Internal_Hbond.Weighted>
0.0000

> <Gold.Chemscore.DEClash.Weighted>
0.2386

> <Gold.Chemscore.DEInternal.Weighted>
1.4192

> <Gold.Chemscore.Rot.Weighted>
3.7129

> <Gold.Chemscore.Internal.Correction.Weighted>
   9.000000E+99

> <Gold.Protein.RotatedTorsions>
[ 6907 6896 6895 6894 ] final   74.31 input  -60.11 | X-H torsion
[ 7974 7965 7964 7962 ] final  -17.74 input  175.53 | X-H torsion
[ 8008 7997 7996 7995 ] final  176.27 input   59.86 | X-H torsion
[ 10167 10162 10161 10158 ] final   63.91 input  -65.29 | X-H torsion
[ 10718 10713 10712 10709 ] final  -73.70 input   66.30 | X-H torsion
[ 10763 10752 10751 10750 ] final  154.34 input  -60.55 | X-H torsion
[ 11005 11000 10999 10996 ] final  -99.07 input  -57.11 | X-H torsion

> <Gold.Protein.ActiveResidues>
 VAL166  LYS551  ARG553  GLY616  TRP617  ASP618  TYR619  PRO620  LYS621  CYS622 
 ASP623  PHE694  ASN695  SER759  ASP760  ASP761  ALA762  ILE779  LEU786  VAL792 
 PHE793  MET794  SER795  GLU796  ALA797  LYS798  CYS799  TRP800  GLU811  SER814 

> <Gold.Protein.RotatedAtoms>
  152.4969  134.4290  159.9505 H   0  0  0  0  0  0  0  0  0  0  0  0  # atno 6907 bound_to 6896
  151.4267  133.3676  159.2771 H   0  0  0  0  0  0  0  0  0  0  0  0  # atno 6908 bound_to 6896
  150.9183  134.8624  159.7532 H   0  0  0  0  0  0  0  0  0  0  0  0  # atno 6909 bound_to 6896
  146.1926  140.3823  142.8452 H   0  0  0  0  0  0  0  0  0  0  0  0  # atno 7974 bound_to 7965
  156.0782  140.1388  156.9745 H   0  0  0  0  0  0  0  0  0  0  0  0  # atno 8008 bound_to 7997
  154.4570  140.0957  156.6835 H   0  0  0  0  0  0  0  0  0  0  0  0  # atno 8009 bound_to 7997
  155.5118  140.3454  155.4392 H   0  0  0  0  0  0  0  0  0  0  0  0  # atno 8010 bound_to 7997
  140.1279  144.4670  150.6882 H   0  0  0  0  0  0  0  0  0  0  0  0  # atno 10167 bound_to 10162
  156.0270  130.4400  150.2782 H   0  0  0  0  0  0  0  0  0  0  0  0  # atno 10718 bound_to 10713
  154.1507  135.2815  155.3136 H   0  0  0  0  0  0  0  0  0  0  0  0  # atno 10763 bound_to 10752
  154.6219  135.5464  153.7588 H   0  0  0  0  0  0  0  0  0  0  0  0  # atno 10764 bound_to 10752
  153.0222  135.6441  154.1651 H   0  0  0  0  0  0  0  0  0  0  0  0  # atno 10765 bound_to 10752
  141.1322  133.8293  157.0923 H   0  0  0  0  0  0  0  0  0  0  0  0  # atno 11005 bound_to 11000
  144.8517  140.7010  143.6164 LP  0  0  0  0  0  0  0  0  0  0  0  0  # atno 17320 bound_to 7965
  145.3745  139.1651  143.4314 LP  0  0  0  0  0  0  0  0  0  0  0  0  # atno 17321 bound_to 7965
  140.6834  143.2338  151.5325 LP  0  0  0  0  0  0  0  0  0  0  0  0  # atno 17342 bound_to 10162
  139.5534  144.2336  152.1571 LP  0  0  0  0  0  0  0  0  0  0  0  0  # atno 17343 bound_to 10162
  157.0885  131.0163  151.3130 LP  0  0  0  0  0  0  0  0  0  0  0  0  # atno 17370 bound_to 10713
  157.4872  130.7800  149.7472 LP  0  0  0  0  0  0  0  0  0  0  0  0  # atno 17371 bound_to 10713
  140.0384  134.9866  157.0915 LP  0  0  0  0  0  0  0  0  0  0  0  0  # atno 17394 bound_to 11000
  140.4173  134.1917  155.7164 LP  0  0  0  0  0  0  0  0  0  0  0  0  # atno 17395 bound_to 11000

$$$$
