AV-unprocessed.smi:1172|AV-procd|sdf|4943|dock10
  -GOLD-   22720 3533D 1   1.00000     0.00000
 Structure written by MMmdl.
 36 37  0  0  0  0  0  0  0  0  1 V2000
  149.5567  131.4567  157.8736 N   0  0  0  0  0  0  0  0  0  0  0  0
  150.8141  131.6214  157.4540 C   0  0  0  0  0  0  0  0  0  0  0  0
  151.7271  131.9251  158.2187 O   0  0  0  0  0  0  0  0  0  0  0  0
  151.0869  131.4135  155.9630 C   0  0  0  0  0  0  0  0  0  0  0  0
  150.2909  132.3194  155.1539 N   0  0  0  0  0  0  0  0  0  0  0  0
  149.3961  132.0041  154.1496 C   0  0  0  0  0  0  0  0  0  0  0  0
  148.9106  133.1983  153.6974 C   0  0  0  0  0  0  0  0  0  0  0  0
  147.9634  133.4580  152.6746 N   0  0  0  0  0  0  0  0  0  0  0  0
  147.0428  132.6156  152.1675 C   0  0  0  0  0  0  0  0  0  0  0  0
  146.9502  131.4364  152.5109 O   0  0  0  0  0  0  0  0  0  0  0  0
  146.2528  133.1639  151.2087 N   0  0  0  0  0  0  0  0  0  0  0  0
  145.8575  134.5810  151.1129 C   0  0  0  0  0  0  0  0  0  0  0  0
  144.3976  134.7214  151.5822 C   0  0  0  0  0  0  0  0  0  0  0  0
  143.4669  133.8097  150.7605 C   0  0  0  0  0  0  0  0  0  0  0  0
  143.9953  132.3618  150.7072 C   0  0  1  0  0  0  0  0  0  0  0  0
  143.2203  131.6102  149.7978 O   0  0  0  0  0  0  0  0  0  0  0  0
  145.4754  132.3338  150.2782 C   0  0  0  0  0  0  0  0  0  0  0  0
  149.5530  134.1964  154.4748 C   0  0  0  0  0  0  0  0  0  0  0  0
  150.3845  133.6581  155.3537 N   0  0  0  0  0  0  0  0  0  0  0  0
  149.3356  131.5852  158.8505 H   0  0  0  0  0  0  0  0  0  0  0  0
  148.8321  131.2055  157.2169 H   0  0  0  0  0  0  0  0  0  0  0  0
  152.1418  131.5781  155.7384 H   0  0  0  0  0  0  0  0  0  0  0  0
  150.8590  130.3821  155.6888 H   0  0  0  0  0  0  0  0  0  0  0  0
  149.1982  130.9827  153.8601 H   0  0  0  0  0  0  0  0  0  0  0  0
  147.9704  134.3944  152.2976 H   0  0  0  0  0  0  0  0  0  0  0  0
  146.4936  135.2599  151.6807 H   0  0  0  0  0  0  0  0  0  0  0  0
  145.9462  134.9069  150.0755 H   0  0  0  0  0  0  0  0  0  0  0  0
  144.3276  134.4600  152.6390 H   0  0  0  0  0  0  0  0  0  0  0  0
  144.0732  135.7588  151.4972 H   0  0  0  0  0  0  0  0  0  0  0  0
  142.4578  133.8319  151.1735 H   0  0  0  0  0  0  0  0  0  0  0  0
  143.3944  134.2071  149.7469 H   0  0  0  0  0  0  0  0  0  0  0  0
  143.8970  131.9034  151.6924 H   0  0  0  0  0  0  0  0  0  0  0  0
  142.3337  131.5673  150.1214 H   0  0  0  0  0  0  0  0  0  0  0  0
  145.5858  132.7292  149.2670 H   0  0  0  0  0  0  0  0  0  0  0  0
  145.8365  131.3050  150.2318 H   0  0  0  0  0  0  0  0  0  0  0  0
  149.4467  135.2704  154.4329 H   0  0  0  0  0  0  0  0  0  0  0  0
  1  2  1  0  0  0  0
  1 20  1  0  0  0  0
  1 21  1  0  0  0  0
  2  3  2  0  0  0  0
  2  4  1  0  0  0  0
  4  5  1  0  0  0  0
  4 22  1  0  0  0  0
  4 23  1  0  0  0  0
  5 19  1  0  0  0  0
  5  6  1  0  0  0  0
  6  7  2  0  0  0  0
  6 24  1  0  0  0  0
  7  8  1  0  0  0  0
  7 18  1  0  0  0  0
  8  9  1  0  0  0  0
  8 25  1  0  0  0  0
  9 10  2  0  0  0  0
  9 11  1  0  0  0  0
 11 17  1  0  0  0  0
 11 12  1  0  0  0  0
 12 13  1  0  0  0  0
 12 26  1  0  0  0  0
 12 27  1  0  0  0  0
 13 14  1  0  0  0  0
 13 28  1  0  0  0  0
 13 29  1  0  0  0  0
 14 15  1  0  0  0  0
 14 30  1  0  0  0  0
 14 31  1  0  0  0  0
 15 16  1  0  0  0  0
 15 17  1  0  0  0  0
 15 32  1  0  0  0  0
 16 33  1  0  0  0  0
 17 34  1  0  0  0  0
 17 35  1  0  0  0  0
 18 19  2  0  0  0  0
 18 36  1  0  0  0  0
M  END
> <s_m_source_file>
AV-unprocessed.smi

> <i_m_source_file_index>
1172

> <i_lp_mmshare_version>
43012

> <i_f3d_flags>
0

> <s_epik_input>
W05IMl1DKD1PKVtDSDJdbjFbY0hdYyhbY0hdbjEpW05IXUMoPU8pTjJbQ0gyXVtDSDJdW0NIMl1bQ0BASF0oW09IXSlbQ0gyXTI=

> <s_epik_cmdline>
J2VwaWtfcHl0aG9uJywgJy1waCcsICc3LjAnLCAnLXRuJywgJzgnLCAnLW1hJywgJzIwMCcsICctbWV0YWxfYmluZGluZycsICctaW1hZScsICc8aW5maWxlLm1hZT4nLCAnLW9tYWUnLCAnPG91dGZpbGUubWFlPic=

> <r_lp_tautomer_probability>
1

> <r_epik_Ionization_Penalty>
4.44977e-05

> <r_epik_Ionization_Penalty_Charging>
0

> <r_epik_Ionization_Penalty_Neutral>
4.44977e-05

> <r_epik_State_Penalty>
-0

> <r_epik_Charging_Adjusted_Penalty>
0

> <i_epik_Tot_Q>
0

> <i_epik_Tot_abs_Q>
0

> <r_epik_Metal_State_Penalty>
-0

> <b_epik_Metal_Only>
0

> <s_lp_Force_Field>
OPLS_2005

> <r_lp_Energy>
33.3056

> <b_lp_Chiralities_Consistent>
1

> <s_lp_Variant>
AV-unprocessed.smi:1172-1

> <Gold.Version>
5.8.1

> <Gold.Id.Protein>
6NUR|6NUR_protein|mol2

> <Gold.PLP.Fitness>
44.2625

> <Gold.PLP.PLP>
-32.8467

> <Gold.PLP.part.hbond>
-4.0000

> <Gold.PLP.part.metal>
0.0000

> <Gold.PLP.part.buried>
-1.8377

> <Gold.PLP.part.nonpolar>
-26.8482

> <Gold.PLP.part.repulsive>
0.7266

> <Gold.PLP.ligand.clash>
0.0000

> <Gold.PLP.ligand.torsion>
0.3502

> <Gold.PLP.Chemscore.Hbond>
3.5630

> <Gold.PLP.Chemscore.CHOScore>
0.4632

> <Gold.PLP.Chemscore.Metal>
0.0000

> <Gold.Chemscore.Hbonds>
donor molecule, donor type, donor heavy atom, donor atom, acceptor molecule, acceptor atom, score
      L1  H     8    25       P1  7948  0.88
      L1  H    16    33       P1 10952  0.61
      P1  H  6896  6909       L1     3  1.00
      P1  H 10785 10796       L1    16  0.95
      L1  C    18    36       P1  7948  0.28

> <Gold.PLP.Chemscore.Internal.Correction>
0.0376

> <Gold.Rescore>
     Score         DG    S(hbond)    S(metal)    S(lipo)     H(rot)  DE(clash)    DE(int)     intcor
     12.00     -14.92       2.42        0.00      59.63       2.20       1.53       1.39       ----

> <Gold.Chemscore.Fitness>
11.9974

> <Gold.Chemscore.DG>
-14.9207

> <Gold.Chemscore.ZeroCoef>
-5.4800

> <Gold.Chemscore.Hbond>
2.4214

> <Gold.Chemscore.Metal>
0.0000

> <Gold.Chemscore.Lipo>
59.6271

> <Gold.Chemscore.Internal_Hbond>
0.0000

> <Gold.Chemscore.DEClash>
1.5313

> <Gold.Chemscore.DEInternal>
1.3919

> <Gold.Chemscore.Rot>
2.1966

> <Gold.Chemscore.Internal.Correction>
   9.000000E+99

> <Gold.Chemscore.Hbonds>
donor molecule, donor type, donor heavy atom, donor atom, acceptor molecule, acceptor atom, score
      L1  H     8    25       P1  7948  0.21
      L1  H    16    33       P1 10952  0.48
      P1  H  6896  6909       L1     3  0.97
      P1  H 10785 10796       L1    16  0.21

> <Gold.Chemscore.Hbond.Weighted>
-8.0875

> <Gold.Chemscore.Metal.Weighted>
-0.0000

> <Gold.Chemscore.Lipo.Weighted>
-6.9764

> <Gold.Chemscore.Internal_Hbond.Weighted>
0.0000

> <Gold.Chemscore.DEClash.Weighted>
1.5313

> <Gold.Chemscore.DEInternal.Weighted>
1.3919

> <Gold.Chemscore.Rot.Weighted>
5.6232

> <Gold.Chemscore.Internal.Correction.Weighted>
   9.000000E+99

> <Gold.Protein.RotatedTorsions>
[ 6907 6896 6895 6894 ] final  -51.92 input  -60.11 | X-H torsion
[ 7974 7965 7964 7962 ] final   90.64 input  175.53 | X-H torsion
[ 8008 7997 7996 7995 ] final  -22.34 input   59.86 | X-H torsion
[ 10167 10162 10161 10158 ] final  129.47 input  -65.29 | X-H torsion
[ 10718 10713 10712 10709 ] final -167.18 input   66.30 | X-H torsion
[ 10763 10752 10751 10750 ] final  175.54 input  -60.55 | X-H torsion
[ 11005 11000 10999 10996 ] final  -52.77 input  -57.11 | X-H torsion

> <Gold.Protein.ActiveResidues>
 VAL166  LYS551  ARG553  GLY616  TRP617  ASP618  TYR619  PRO620  LYS621  CYS622 
 ASP623  PHE694  ASN695  SER759  ASP760  ASP761  ALA762  ILE779  LEU786  VAL792 
 PHE793  MET794  SER795  GLU796  ALA797  LYS798  CYS799  TRP800  GLU811  SER814 

> <Gold.Protein.RotatedAtoms>
  150.8566  134.7907  159.7050 H   0  0  0  0  0  0  0  0  0  0  0  0  # atno 6907 bound_to 6896
  152.4616  134.5168  159.9780 H   0  0  0  0  0  0  0  0  0  0  0  0  # atno 6908 bound_to 6896
  151.5279  133.3416  159.2948 H   0  0  0  0  0  0  0  0  0  0  0  0  # atno 6909 bound_to 6896
  145.5162  139.2278  143.2697 H   0  0  0  0  0  0  0  0  0  0  0  0  # atno 7974 bound_to 7965
  154.4650  140.2010  156.0142 H   0  0  0  0  0  0  0  0  0  0  0  0  # atno 8008 bound_to 7997
  156.0910  140.3258  155.7787 H   0  0  0  0  0  0  0  0  0  0  0  0  # atno 8009 bound_to 7997
  155.4956  140.0549  157.2938 H   0  0  0  0  0  0  0  0  0  0  0  0  # atno 8010 bound_to 7997
  139.5476  144.6786  151.4424 H   0  0  0  0  0  0  0  0  0  0  0  0  # atno 10167 bound_to 10162
  156.6786  130.9113  151.3054 H   0  0  0  0  0  0  0  0  0  0  0  0  # atno 10718 bound_to 10713
  154.4690  135.2770  155.1656 H   0  0  0  0  0  0  0  0  0  0  0  0  # atno 10763 bound_to 10752
  154.3413  135.6169  153.5601 H   0  0  0  0  0  0  0  0  0  0  0  0  # atno 10764 bound_to 10752
  152.9862  135.5789  154.5068 H   0  0  0  0  0  0  0  0  0  0  0  0  # atno 10765 bound_to 10752
  141.0941  133.6627  156.4073 H   0  0  0  0  0  0  0  0  0  0  0  0  # atno 11005 bound_to 11000
  146.2135  140.5972  142.9049 LP  0  0  0  0  0  0  0  0  0  0  0  0  # atno 17320 bound_to 7965
  144.7700  140.5617  143.6676 LP  0  0  0  0  0  0  0  0  0  0  0  0  # atno 17321 bound_to 7965
  140.6729  143.8254  150.7022 LP  0  0  0  0  0  0  0  0  0  0  0  0  # atno 17342 bound_to 10162
  140.1684  143.4216  152.2018 LP  0  0  0  0  0  0  0  0  0  0  0  0  # atno 17343 bound_to 10162
  157.7052  130.9376  150.0907 LP  0  0  0  0  0  0  0  0  0  0  0  0  # atno 17370 bound_to 10713
  156.1884  130.3653  149.8942 LP  0  0  0  0  0  0  0  0  0  0  0  0  # atno 17371 bound_to 10713
  140.5181  134.6330  157.5308 LP  0  0  0  0  0  0  0  0  0  0  0  0  # atno 17394 bound_to 11000
  139.9774  134.7193  155.9924 LP  0  0  0  0  0  0  0  0  0  0  0  0  # atno 17395 bound_to 11000

$$$$
