AV-unprocessed.smi:136|AV-procd|sdf|1173|dock8
  -GOLD-   2262018323D 1   1.00000     0.00000
 Structure written by MMmdl.
 54 58  0  0  0  0  0  0  0  0  1 V2000
  150.5431  137.0906  155.2331 O   0  0  0  0  0  0  0  0  0  0  0  0
  150.6802  137.7749  156.2490 C   0  0  0  0  0  0  0  0  0  0  0  0
  150.9066  137.0886  157.6127 C   0  0  0  0  0  0  0  0  0  0  0  0
  149.7773  136.2321  158.0362 N   0  0  0  0  0  0  0  0  0  0  0  0
  149.4884  135.0658  157.2855 C   0  0  0  0  0  0  0  0  0  0  0  0
  150.1642  134.7537  156.3039 O   0  0  0  0  0  0  0  0  0  0  0  0
  148.3470  134.2855  157.7491 C   0  0  0  0  0  0  0  0  0  0  0  0
  148.0010  133.1622  157.0976 F   0  0  0  0  0  0  0  0  0  0  0  0
  147.6286  134.6737  158.8227 C   0  0  0  0  0  0  0  0  0  0  0  0
  147.9209  135.8164  159.5461 N   0  0  0  0  0  0  0  0  0  0  0  0
  147.0928  136.2487  160.7382 C   0  0  2  0  0  0  0  0  0  0  0  0
  147.9572  136.2938  162.0128 C   0  0  0  0  0  0  0  0  0  0  0  0
  147.1539  135.4623  162.9931 C   0  0  0  0  0  0  0  0  0  0  0  0
  146.4343  134.4928  162.0680 C   0  0  0  0  0  0  0  0  0  0  0  0
  146.0717  135.3201  160.9708 O   0  0  0  0  0  0  0  0  0  0  0  0
  149.0055  136.6308  159.1535 C   0  0  0  0  0  0  0  0  0  0  0  0
  149.2678  137.6663  159.7698 O   0  0  0  0  0  0  0  0  0  0  0  0
  150.6446  139.1256  156.2100 N   0  0  0  0  0  0  0  0  0  0  0  0
  150.9404  139.9059  157.2800 N   0  0  0  0  0  0  0  0  0  0  0  0
  150.9900  141.1350  156.9201 C   0  0  0  0  0  0  0  0  0  0  0  0
  151.2921  142.2630  157.8293 C   0  0  0  0  0  0  0  0  0  0  0  0
  151.2796  143.5839  157.3258 C   0  0  0  0  0  0  0  0  0  0  0  0
  151.5691  144.6579  158.1900 C   0  0  0  0  0  0  0  0  0  0  0  0
  151.8681  144.4153  159.5457 C   0  0  0  0  0  0  0  0  0  0  0  0
  152.2234  145.7348  160.5988 Cl  0  0  0  0  0  0  0  0  0  0  0  0
  151.8775  143.0966  160.0429 C   0  0  0  0  0  0  0  0  0  0  0  0
  151.5894  142.0143  159.1885 C   0  0  0  0  0  0  0  0  0  0  0  0
  150.7100  141.3496  155.4707 C   0  0  0  0  0  0  0  0  0  0  0  0
  150.4231  139.9228  154.9965 C   0  0  2  0  0  0  0  0  0  0  0  0
  149.0489  139.7713  154.4084 C   0  0  0  0  0  0  0  0  0  0  0  0
  148.2842  138.7024  154.0235 C   0  0  0  0  0  0  0  0  0  0  0  0
  147.0545  139.2347  153.5480 C   0  0  0  0  0  0  0  0  0  0  0  0
  147.1553  140.5896  153.6829 C   0  0  0  0  0  0  0  0  0  0  0  0
  148.3626  140.9323  154.2084 O   0  0  0  0  0  0  0  0  0  0  0  0
  151.8346  136.5166  157.5659 H   0  0  0  0  0  0  0  0  0  0  0  0
  151.1038  137.8550  158.3643 H   0  0  0  0  0  0  0  0  0  0  0  0
  146.7936  134.0529  159.1090 H   0  0  0  0  0  0  0  0  0  0  0  0
  146.6536  137.2085  160.4600 H   0  0  0  0  0  0  0  0  0  0  0  0
  148.9280  135.8305  161.8288 H   0  0  0  0  0  0  0  0  0  0  0  0
  148.1115  137.3206  162.3453 H   0  0  0  0  0  0  0  0  0  0  0  0
  147.7737  134.9627  163.7381 H   0  0  0  0  0  0  0  0  0  0  0  0
  146.4292  136.0899  163.5132 H   0  0  0  0  0  0  0  0  0  0  0  0
  147.1065  133.6999  161.7375 H   0  0  0  0  0  0  0  0  0  0  0  0
  145.5604  134.0343  162.5313 H   0  0  0  0  0  0  0  0  0  0  0  0
  151.0534  143.7908  156.2897 H   0  0  0  0  0  0  0  0  0  0  0  0
  151.5622  145.6693  157.8106 H   0  0  0  0  0  0  0  0  0  0  0  0
  152.1065  142.9135  161.0825 H   0  0  0  0  0  0  0  0  0  0  0  0
  151.6024  141.0141  159.5948 H   0  0  0  0  0  0  0  0  0  0  0  0
  149.8546  142.0123  155.3304 H   0  0  0  0  0  0  0  0  0  0  0  0
  151.5732  141.7769  154.9592 H   0  0  0  0  0  0  0  0  0  0  0  0
  151.1669  139.6344  154.2514 H   0  0  0  0  0  0  0  0  0  0  0  0
  148.5755  137.6637  154.0757 H   0  0  0  0  0  0  0  0  0  0  0  0
  146.2043  138.6951  153.1583 H   0  0  0  0  0  0  0  0  0  0  0  0
  146.4951  141.4162  153.4654 H   0  0  0  0  0  0  0  0  0  0  0  0
  1  2  2  0  0  0  0
  2  3  1  0  0  0  0
  2 18  1  0  0  0  0
  3  4  1  0  0  0  0
  3 35  1  0  0  0  0
  3 36  1  0  0  0  0
  4 16  1  0  0  0  0
  4  5  1  0  0  0  0
  5  6  2  0  0  0  0
  5  7  1  0  0  0  0
  7  8  1  0  0  0  0
  7  9  2  0  0  0  0
  9 10  1  0  0  0  0
  9 37  1  0  0  0  0
 10 11  1  0  0  0  0
 10 16  1  0  0  0  0
 11 15  1  0  0  0  0
 11 12  1  0  0  0  0
 11 38  1  0  0  0  0
 12 13  1  0  0  0  0
 12 39  1  0  0  0  0
 12 40  1  0  0  0  0
 13 14  1  0  0  0  0
 13 41  1  0  0  0  0
 13 42  1  0  0  0  0
 14 15  1  0  0  0  0
 14 43  1  0  0  0  0
 14 44  1  0  0  0  0
 16 17  2  0  0  0  0
 18 29  1  0  0  0  0
 18 19  1  0  0  0  0
 19 20  2  0  0  0  0
 20 21  1  0  0  0  0
 20 28  1  0  0  0  0
 21 27  1  0  0  0  0
 21 22  2  0  0  0  0
 22 23  1  0  0  0  0
 22 45  1  0  0  0  0
 23 24  2  0  0  0  0
 23 46  1  0  0  0  0
 24 25  1  0  0  0  0
 24 26  1  0  0  0  0
 26 27  2  0  0  0  0
 26 47  1  0  0  0  0
 27 48  1  0  0  0  0
 28 29  1  0  0  0  0
 28 49  1  0  0  0  0
 28 50  1  0  0  0  0
 29 30  1  0  0  0  0
 29 51  1  0  0  0  0
 30 34  1  0  0  0  0
 30 31  2  0  0  0  0
 31 32  1  0  0  0  0
 31 52  1  0  0  0  0
 32 33  2  0  0  0  0
 32 53  1  0  0  0  0
 33 34  1  0  0  0  0
 33 54  1  0  0  0  0
M  END
> <s_m_source_file>
AV-unprocessed.smi

> <i_m_source_file_index>
136

> <i_lp_mmshare_version>
43012

> <i_f3d_flags>
0

> <s_epik_input>
bzFbY0hdW2NIXVtjSF1jMVtDQEBIXTJbQ0gyXUMoYzNbY0hdW2NIXWMoQ2wpW2NIXVtjSF0zKT1OTjJDKD1PKVtDSDJdbjRjKD1PKWMoRilbY0hdbihjND1PKVtDQEBIXTVbQ0gyXVtDSDJdW0NIMl1PNQ==

> <s_epik_cmdline>
J2VwaWtfcHl0aG9uJywgJy1waCcsICc3LjAnLCAnLXRuJywgJzgnLCAnLW1hJywgJzIwMCcsICctbWV0YWxfYmluZGluZycsICctaW1hZScsICc8aW5maWxlLm1hZT4nLCAnLW9tYWUnLCAnPG91dGZpbGUubWFlPic=

> <r_lp_tautomer_probability>
1

> <r_epik_Ionization_Penalty>
2.55467e-08

> <r_epik_Ionization_Penalty_Charging>
4.85705e-09

> <r_epik_Ionization_Penalty_Neutral>
2.06897e-08

> <r_epik_State_Penalty>
-0

> <r_epik_Charging_Adjusted_Penalty>
4.85705e-09

> <i_epik_Tot_Q>
0

> <i_epik_Tot_abs_Q>
0

> <r_epik_Metal_State_Penalty>
-0

> <b_epik_Metal_Only>
0

> <s_epik_Chemistry_Notes>
This compound has an imine and may undergo hydrolysis. This compound contains an acetal/aminal-like group ( X-CH(R)-Y where X, Y are N, S, or O) that may be acid/base labile, releasing an aldehyde.

> <s_lp_Force_Field>
OPLS_2005

> <r_lp_Energy>
40.0267

> <b_lp_Chiralities_Consistent>
1

> <s_lp_Variant>
AV-unprocessed.smi:136-3

> <Gold.Version>
5.8.1

> <Gold.Id.Protein>
6NUR|6NUR_protein|mol2

> <Gold.PLP.Fitness>
52.9497

> <Gold.PLP.PLP>
-52.9283

> <Gold.PLP.part.hbond>
-1.5542

> <Gold.PLP.part.metal>
0.0000

> <Gold.PLP.part.buried>
-3.2376

> <Gold.PLP.part.nonpolar>
-48.7593

> <Gold.PLP.part.repulsive>
0.2544

> <Gold.PLP.ligand.clash>
0.0000

> <Gold.PLP.ligand.torsion>
0.1998

> <Gold.PLP.Chemscore.Hbond>
0.1144

> <Gold.PLP.Chemscore.CHOScore>
0.0000

> <Gold.PLP.Chemscore.Metal>
0.0000

> <Gold.Chemscore.Hbonds>
donor molecule, donor type, donor heavy atom, donor atom, acceptor molecule, acceptor atom, score
      P1  H  6931  6943       L1    17  0.11

> <Gold.PLP.Chemscore.Internal.Correction>
0.0778

> <Gold.Rescore>
     Score         DG    S(hbond)    S(metal)    S(lipo)     H(rot)  DE(clash)    DE(int)     intcor
     13.54     -19.20       0.04        0.00     155.58       1.81       1.86       3.81       ----

> <Gold.Chemscore.Fitness>
13.5380

> <Gold.Chemscore.DG>
-19.2017

> <Gold.Chemscore.ZeroCoef>
-5.4800

> <Gold.Chemscore.Hbond>
0.0421

> <Gold.Chemscore.Metal>
0.0000

> <Gold.Chemscore.Lipo>
155.5840

> <Gold.Chemscore.Internal_Hbond>
0.0000

> <Gold.Chemscore.DEClash>
1.8550

> <Gold.Chemscore.DEInternal>
3.8086

> <Gold.Chemscore.Rot>
1.8056

> <Gold.Chemscore.Internal.Correction>
   9.000000E+99

> <Gold.Chemscore.Hbonds>
donor molecule, donor type, donor heavy atom, donor atom, acceptor molecule, acceptor atom, score
      P1  H  6931  6943       L1    17  0.11

> <Gold.Chemscore.Hbond.Weighted>
-0.1407

> <Gold.Chemscore.Metal.Weighted>
-0.0000

> <Gold.Chemscore.Lipo.Weighted>
-18.2033

> <Gold.Chemscore.Internal_Hbond.Weighted>
0.0000

> <Gold.Chemscore.DEClash.Weighted>
1.8550

> <Gold.Chemscore.DEInternal.Weighted>
3.8086

> <Gold.Chemscore.Rot.Weighted>
4.6223

> <Gold.Chemscore.Internal.Correction.Weighted>
   9.000000E+99

> <Gold.Protein.RotatedTorsions>
[ 6907 6896 6895 6894 ] final  118.33 input  -60.11 | X-H torsion
[ 7974 7965 7964 7962 ] final  -30.57 input  175.53 | X-H torsion
[ 8008 7997 7996 7995 ] final -166.45 input   59.86 | X-H torsion
[ 10167 10162 10161 10158 ] final  154.61 input  -65.29 | X-H torsion
[ 10718 10713 10712 10709 ] final  117.95 input   66.30 | X-H torsion
[ 10763 10752 10751 10750 ] final -154.72 input  -60.55 | X-H torsion
[ 11005 11000 10999 10996 ] final   77.67 input  -57.11 | X-H torsion

> <Gold.Protein.ActiveResidues>
 VAL166  LYS551  ARG553  GLY616  TRP617  ASP618  TYR619  PRO620  LYS621  CYS622 
 ASP623  PHE694  ASN695  SER759  ASP760  ASP761  ALA762  ILE779  LEU786  VAL792 
 PHE793  MET794  SER795  GLU796  ALA797  LYS798  CYS799  TRP800  GLU811  SER814 

> <Gold.Protein.RotatedAtoms>
  152.4550  133.7705  159.6796 H   0  0  0  0  0  0  0  0  0  0  0  0  # atno 6907 bound_to 6896
  150.8474  133.7830  159.3044 H   0  0  0  0  0  0  0  0  0  0  0  0  # atno 6908 bound_to 6896
  151.5436  135.1071  159.9984 H   0  0  0  0  0  0  0  0  0  0  0  0  # atno 6909 bound_to 6896
  146.1133  140.5557  142.8768 H   0  0  0  0  0  0  0  0  0  0  0  0  # atno 7974 bound_to 7965
  155.8640  140.0982  157.1594 H   0  0  0  0  0  0  0  0  0  0  0  0  # atno 8008 bound_to 7997
  154.3992  140.1359  156.4059 H   0  0  0  0  0  0  0  0  0  0  0  0  # atno 8009 bound_to 7997
  155.7825  140.3458  155.5307 H   0  0  0  0  0  0  0  0  0  0  0  0  # atno 8010 bound_to 7997
  139.4823  144.5171  151.7934 H   0  0  0  0  0  0  0  0  0  0  0  0  # atno 10167 bound_to 10162
  157.6063  131.1043  150.7687 H   0  0  0  0  0  0  0  0  0  0  0  0  # atno 10718 bound_to 10713
  154.7839  135.3183  154.7930 H   0  0  0  0  0  0  0  0  0  0  0  0  # atno 10763 bound_to 10752
  153.8635  135.6851  153.4785 H   0  0  0  0  0  0  0  0  0  0  0  0  # atno 10764 bound_to 10752
  153.1483  135.4710  154.9538 H   0  0  0  0  0  0  0  0  0  0  0  0  # atno 10765 bound_to 10752
  139.9244  134.7702  156.1552 H   0  0  0  0  0  0  0  0  0  0  0  0  # atno 11005 bound_to 11000
  144.7530  140.5239  143.6788 LP  0  0  0  0  0  0  0  0  0  0  0  0  # atno 17320 bound_to 7965
  145.5619  139.1480  143.3336 LP  0  0  0  0  0  0  0  0  0  0  0  0  # atno 17321 bound_to 7965
  140.4681  144.1626  150.5914 LP  0  0  0  0  0  0  0  0  0  0  0  0  # atno 17342 bound_to 10162
  140.4412  143.2526  151.9471 LP  0  0  0  0  0  0  0  0  0  0  0  0  # atno 17343 bound_to 10162
  156.8074  130.4941  149.5361 LP  0  0  0  0  0  0  0  0  0  0  0  0  # atno 17370 bound_to 10713
  156.1150  130.6068  151.0107 LP  0  0  0  0  0  0  0  0  0  0  0  0  # atno 17371 bound_to 10713
  141.0791  133.6762  156.2298 LP  0  0  0  0  0  0  0  0  0  0  0  0  # atno 17394 bound_to 11000
  140.6378  134.5197  157.5566 LP  0  0  0  0  0  0  0  0  0  0  0  0  # atno 17395 bound_to 11000

$$$$
