AV-unprocessed.smi:1484|AV-procd|sdf|5993|dock9
  -GOLD-   22720 6 83D 1   1.00000     0.00000
 Structure written by MMmdl.
 37 38  0  0  0  0  0  0  0  0  2 V2000
  151.3842  145.1979  159.8948 C   0  0  0  0  0  0  0  0  0  0  0  0
  151.7676  143.7758  160.3276 C   0  0  2  0  0  0  0  0  0  0  0  0
  152.1881  143.7330  161.8090 C   0  0  0  0  0  0  0  0  0  0  0  0
  152.5750  142.3115  162.2460 C   0  0  0  0  0  0  0  0  0  0  0  0
  153.6851  141.7339  161.3511 C   0  0  0  0  0  0  0  0  0  0  0  0
  153.3080  141.7739  159.8577 C   0  0  1  0  0  0  0  0  0  0  0  0
  152.2588  140.7959  159.5754 N   0  0  0  0  0  0  0  0  0  0  0  0
  152.3941  139.7031  158.8090 C   0  0  0  0  0  0  0  0  0  0  0  0
  153.4483  139.4039  158.2456 O   0  0  0  0  0  0  0  0  0  0  0  0
  151.1332  138.8358  158.6662 C   0  0  0  0  0  0  0  0  0  0  0  0
  150.8965  138.3318  157.3054 N   0  0  0  0  0  0  0  0  0  0  0  0
  150.7915  139.3844  156.2983 N   0  5  0  0  0  0  0  0  0  0  0  0
  150.5551  139.0417  155.0041 C   0  0  0  0  0  0  0  0  0  0  0  0
  150.4389  139.8718  154.1055 O   0  0  0  0  0  0  0  0  0  0  0  0
  150.4408  137.6294  154.6801 C   0  0  0  0  0  0  0  0  0  0  0  0
  150.5629  136.6782  155.6267 C   0  0  0  0  0  0  0  0  0  0  0  0
  150.8109  136.9995  157.0271 C   0  0  0  0  0  0  0  0  0  0  0  0
  150.9312  136.1352  157.8957 O   0  0  0  0  0  0  0  0  0  0  0  0
  152.8830  143.1964  159.4321 C   0  0  0  0  0  0  0  0  0  0  0  0
  152.2287  145.8818  159.9850 H   0  0  0  0  0  0  0  0  0  0  0  0
  150.5718  145.5892  160.5076 H   0  0  0  0  0  0  0  0  0  0  0  0
  151.0510  145.2152  158.8567 H   0  0  0  0  0  0  0  0  0  0  0  0
  150.8806  143.1515  160.2113 H   0  0  0  0  0  0  0  0  0  0  0  0
  153.0319  144.4047  161.9730 H   0  0  0  0  0  0  0  0  0  0  0  0
  151.3760  144.0990  162.4382 H   0  0  0  0  0  0  0  0  0  0  0  0
  152.9056  142.3207  163.2848 H   0  0  0  0  0  0  0  0  0  0  0  0
  151.6968  141.6656  162.2099 H   0  0  0  0  0  0  0  0  0  0  0  0
  154.5982  142.3110  161.5031 H   0  0  0  0  0  0  0  0  0  0  0  0
  153.9187  140.7125  161.6550 H   0  0  0  0  0  0  0  0  0  0  0  0
  154.1943  141.4921  159.2864 H   0  0  0  0  0  0  0  0  0  0  0  0
  151.3574  140.9633  159.9980 H   0  0  0  0  0  0  0  0  0  0  0  0
  151.2097  138.0009  159.3656 H   0  0  0  0  0  0  0  0  0  0  0  0
  150.2717  139.4159  159.0015 H   0  0  0  0  0  0  0  0  0  0  0  0
  150.2557  137.3364  153.6571 H   0  0  0  0  0  0  0  0  0  0  0  0
  150.4720  135.6413  155.3400 H   0  0  0  0  0  0  0  0  0  0  0  0
  152.5645  143.1964  158.3888 H   0  0  0  0  0  0  0  0  0  0  0  0
  153.7540  143.8514  159.4781 H   0  0  0  0  0  0  0  0  0  0  0  0
  1  2  1  0  0  0  0
  1 20  1  0  0  0  0
  1 21  1  0  0  0  0
  1 22  1  0  0  0  0
  2 19  1  0  0  0  0
  2  3  1  0  0  0  0
  2 23  1  0  0  0  0
  3  4  1  0  0  0  0
  3 24  1  0  0  0  0
  3 25  1  0  0  0  0
  4  5  1  0  0  0  0
  4 26  1  0  0  0  0
  4 27  1  0  0  0  0
  5  6  1  0  0  0  0
  5 28  1  0  0  0  0
  5 29  1  0  0  0  0
  6  7  1  0  0  0  0
  6 19  1  0  0  0  0
  6 30  1  0  0  0  0
  7  8  1  0  0  0  0
  7 31  1  0  0  0  0
  8  9  2  0  0  0  0
  8 10  1  0  0  0  0
 10 32  1  0  0  0  0
 10 33  1  0  0  0  0
 10 11  1  0  0  0  0
 11 12  1  0  0  0  0
 11 17  1  0  0  0  0
 12 13  1  0  0  0  0
 13 14  2  0  0  0  0
 13 15  1  0  0  0  0
 15 34  1  0  0  0  0
 15 16  2  0  0  0  0
 16 35  1  0  0  0  0
 16 17  1  0  0  0  0
 17 18  2  0  0  0  0
 19 36  1  0  0  0  0
 19 37  1  0  0  0  0
M  CHG  1  12  -1
M  END
> <s_m_source_file>
AV-unprocessed.smi

> <i_m_source_file_index>
1484

> <i_lp_mmshare_version>
43012

> <i_f3d_flags>
0

> <s_epik_input>
W0NIM11bQ0BASF0xW0NIMl1bQ0gyXVtDSDJdW0NASF0oW0NIMl0xKVtOSF1DKD1PKVtDSDJdbjJbbkhdYyg9TylbY0hdW2NIXWMyPU8=

> <s_epik_cmdline>
J2VwaWtfcHl0aG9uJywgJy1waCcsICc3LjAnLCAnLXRuJywgJzgnLCAnLW1hJywgJzIwMCcsICctbWV0YWxfYmluZGluZycsICctaW1hZScsICc8aW5maWxlLm1hZT4nLCAnLW9tYWUnLCAnPG91dGZpbGUubWFlPic=

> <r_lp_tautomer_probability>
1

> <r_epik_Ionization_Penalty>
0.101352

> <r_epik_Ionization_Penalty_Charging>
0.101352

> <r_epik_Ionization_Penalty_Neutral>
1.90469e-08

> <r_epik_State_Penalty>
0.0358555

> <r_epik_Charging_Adjusted_Penalty>
0.137208

> <i_epik_Tot_Q>
-1

> <i_epik_Tot_abs_Q>
1

> <r_epik_Metal_State_Penalty>
0.0358555

> <b_epik_Metal_Only>
0

> <s_lp_Force_Field>
OPLS_2005

> <r_lp_Energy>
23.9764

> <b_lp_Chiralities_Consistent>
1

> <s_lp_Variant>
AV-unprocessed.smi:1484-1

> <Gold.Version>
5.8.1

> <Gold.Id.Protein>
6NUR|6NUR_protein|mol2

> <Gold.PLP.Fitness>
48.6068

> <Gold.PLP.PLP>
-41.2425

> <Gold.PLP.part.hbond>
-3.0000

> <Gold.PLP.part.metal>
0.0000

> <Gold.PLP.part.buried>
-6.3335

> <Gold.PLP.part.nonpolar>
-32.8444

> <Gold.PLP.part.repulsive>
0.6153

> <Gold.PLP.ligand.clash>
0.0000

> <Gold.PLP.ligand.torsion>
0.2819

> <Gold.PLP.Chemscore.Hbond>
2.6400

> <Gold.PLP.Chemscore.CHOScore>
0.0000

> <Gold.PLP.Chemscore.Metal>
0.0000

> <Gold.Chemscore.Hbonds>
donor molecule, donor type, donor heavy atom, donor atom, acceptor molecule, acceptor atom, score
      P1  H  6896  6908       L1    18  0.34
      P1  H  7989  7998       L1    14  1.00
      P1  H  7997  8009       L1     9  1.00

> <Gold.PLP.Chemscore.Internal.Correction>
0.0080

> <Gold.Rescore>
     Score         DG    S(hbond)    S(metal)    S(lipo)     H(rot)  DE(clash)    DE(int)     intcor
     21.86     -22.19       2.86        0.00      97.52       1.65       0.02       0.31       ----

> <Gold.Chemscore.Fitness>
21.8615

> <Gold.Chemscore.DG>
-22.1912

> <Gold.Chemscore.ZeroCoef>
-5.4800

> <Gold.Chemscore.Hbond>
2.8555

> <Gold.Chemscore.Metal>
0.0000

> <Gold.Chemscore.Lipo>
97.5233

> <Gold.Chemscore.Internal_Hbond>
0.0000

> <Gold.Chemscore.DEClash>
0.0232

> <Gold.Chemscore.DEInternal>
0.3065

> <Gold.Chemscore.Rot>
1.6549

> <Gold.Chemscore.Internal.Correction>
   9.000000E+99

> <Gold.Chemscore.Hbonds>
donor molecule, donor type, donor heavy atom, donor atom, acceptor molecule, acceptor atom, score
      P1  H  6896  6908       L1    18  0.34
      P1  H  7989  7998       L1    14  0.99
      P1  H  7997  8009       L1     9  0.98

> <Gold.Chemscore.Hbond.Weighted>
-9.5374

> <Gold.Chemscore.Metal.Weighted>
-0.0000

> <Gold.Chemscore.Lipo.Weighted>
-11.4102

> <Gold.Chemscore.Internal_Hbond.Weighted>
0.0000

> <Gold.Chemscore.DEClash.Weighted>
0.0232

> <Gold.Chemscore.DEInternal.Weighted>
0.3065

> <Gold.Chemscore.Rot.Weighted>
4.2364

> <Gold.Chemscore.Internal.Correction.Weighted>
   9.000000E+99

> <Gold.Protein.RotatedTorsions>
[ 6907 6896 6895 6894 ] final -159.05 input  -60.11 | X-H torsion
[ 7974 7965 7964 7962 ] final  114.81 input  175.53 | X-H torsion
[ 8008 7997 7996 7995 ] final  166.98 input   59.86 | X-H torsion
[ 10167 10162 10161 10158 ] final  -87.08 input  -65.29 | X-H torsion
[ 10718 10713 10712 10709 ] final   34.63 input   66.30 | X-H torsion
[ 10763 10752 10751 10750 ] final  -91.65 input  -60.55 | X-H torsion
[ 11005 11000 10999 10996 ] final  -38.36 input  -57.11 | X-H torsion

> <Gold.Protein.ActiveResidues>
 VAL166  LYS551  ARG553  GLY616  TRP617  ASP618  TYR619  PRO620  LYS621  CYS622 
 ASP623  PHE694  ASN695  SER759  ASP760  ASP761  ALA762  ILE779  LEU786  VAL792 
 PHE793  MET794  SER795  GLU796  ALA797  LYS798  CYS799  TRP800  GLU811  SER814 

> <Gold.Protein.RotatedAtoms>
  151.3275  133.4014  159.2659 H   0  0  0  0  0  0  0  0  0  0  0  0  # atno 6907 bound_to 6896
  150.9983  134.9302  159.7949 H   0  0  0  0  0  0  0  0  0  0  0  0  # atno 6908 bound_to 6896
  152.5267  134.3240  159.9211 H   0  0  0  0  0  0  0  0  0  0  0  0  # atno 6909 bound_to 6896
  145.1998  139.2958  143.4324 H   0  0  0  0  0  0  0  0  0  0  0  0  # atno 7974 bound_to 7965
  156.1673  140.1629  156.8509 H   0  0  0  0  0  0  0  0  0  0  0  0  # atno 8008 bound_to 7997
  154.5220  140.0776  156.8225 H   0  0  0  0  0  0  0  0  0  0  0  0  # atno 8009 bound_to 7997
  155.3585  140.3394  155.4242 H   0  0  0  0  0  0  0  0  0  0  0  0  # atno 8010 bound_to 7997
  140.3879  143.2718  151.9302 H   0  0  0  0  0  0  0  0  0  0  0  0  # atno 10167 bound_to 10162
  157.3127  130.7407  149.6735 H   0  0  0  0  0  0  0  0  0  0  0  0  # atno 10718 bound_to 10713
  154.6782  135.5260  153.8227 H   0  0  0  0  0  0  0  0  0  0  0  0  # atno 10763 bound_to 10752
  153.0546  135.6546  154.0618 H   0  0  0  0  0  0  0  0  0  0  0  0  # atno 10764 bound_to 10752
  154.0508  135.2969  155.3320 H   0  0  0  0  0  0  0  0  0  0  0  0  # atno 10765 bound_to 10752
  141.0021  133.6950  156.2042 H   0  0  0  0  0  0  0  0  0  0  0  0  # atno 11005 bound_to 11000
  146.3420  140.2239  142.8592 LP  0  0  0  0  0  0  0  0  0  0  0  0  # atno 17320 bound_to 7965
  144.9959  140.8588  143.5311 LP  0  0  0  0  0  0  0  0  0  0  0  0  # atno 17321 bound_to 7965
  139.4791  144.5756  151.8017 LP  0  0  0  0  0  0  0  0  0  0  0  0  # atno 17342 bound_to 10162
  140.4870  144.1366  150.5943 LP  0  0  0  0  0  0  0  0  0  0  0  0  # atno 17343 bound_to 10162
  155.9679  130.4246  150.4618 LP  0  0  0  0  0  0  0  0  0  0  0  0  # atno 17370 bound_to 10713
  157.2619  131.0569  151.2315 LP  0  0  0  0  0  0  0  0  0  0  0  0  # atno 17371 bound_to 10713
  140.6872  134.4705  157.5589 LP  0  0  0  0  0  0  0  0  0  0  0  0  # atno 17394 bound_to 11000
  139.9044  134.8482  156.1764 LP  0  0  0  0  0  0  0  0  0  0  0  0  # atno 17395 bound_to 11000

$$$$
