AV-unprocessed.smi:1795|AV-procd|sdf|7238|dock3
  -GOLD-   22720 8483D 1   1.00000     0.00000
 Structure written by MMmdl.
 47 48  0  0  0  0  0  0  0  0  1 V2000
  144.8707  143.9661  154.2023 C   0  0  0  0  0  0  0  0  0  0  0  0
  145.5305  142.6063  153.9502 C   0  0  1  0  0  0  0  0  0  0  0  0
  147.0593  142.6590  154.1316 C   0  0  0  0  0  0  0  0  0  0  0  0
  147.7023  141.3512  153.9632 N   0  0  0  0  0  0  0  0  0  0  0  0
  149.1692  141.4134  154.1640 C   0  0  2  0  0  0  0  0  0  0  0  0
  149.9378  140.3844  153.2962 C   0  0  0  0  0  0  0  0  0  0  0  0
  149.5992  141.2321  155.6493 C   0  0  0  0  0  0  0  0  0  0  0  0
  150.2505  142.4119  156.2122 N   0  0  0  0  0  0  0  0  0  0  0  0
  151.3886  142.3965  156.9224 C   0  0  0  0  0  0  0  0  0  0  0  0
  152.0063  141.3622  157.1809 O   0  0  0  0  0  0  0  0  0  0  0  0
  151.8836  143.7590  157.4286 C   0  0  0  0  0  0  0  0  0  0  0  0
  152.0188  143.8238  158.8936 N   0  0  0  0  0  0  0  0  0  0  0  0
  152.7968  142.8236  159.5104 C   0  0  0  0  0  0  0  0  0  0  0  0
  152.9904  142.7926  160.8384 C   0  0  0  0  0  0  0  0  0  0  0  0
  152.3748  143.8219  161.6420 C   0  0  0  0  0  0  0  0  0  0  0  0
  151.6313  144.7852  161.0620 C   0  0  0  0  0  0  0  0  0  0  0  0
  151.4199  144.8249  159.6101 C   0  0  0  0  0  0  0  0  0  0  0  0
  150.7466  145.7040  159.0714 O   0  0  0  0  0  0  0  0  0  0  0  0
  147.0463  140.4074  154.8755 C   0  0  0  0  0  0  0  0  0  0  0  0
  145.5165  140.3616  154.6985 C   0  0  1  0  0  0  0  0  0  0  0  0
  144.8446  139.4341  155.7168 C   0  0  0  0  0  0  0  0  0  0  0  0
  144.9856  141.6693  154.8700 O   0  0  0  0  0  0  0  0  0  0  0  0
  145.2469  144.7192  153.5092 H   0  0  0  0  0  0  0  0  0  0  0  0
  145.0642  144.3170  155.2164 H   0  0  0  0  0  0  0  0  0  0  0  0
  143.7902  143.9053  154.0715 H   0  0  0  0  0  0  0  0  0  0  0  0
  145.2937  142.2863  152.9339 H   0  0  0  0  0  0  0  0  0  0  0  0
  147.4424  143.3695  153.4014 H   0  0  0  0  0  0  0  0  0  0  0  0
  147.2951  143.0604  155.1186 H   0  0  0  0  0  0  0  0  0  0  0  0
  149.5036  142.4035  153.8508 H   0  0  0  0  0  0  0  0  0  0  0  0
  151.0098  140.3944  153.4898 H   0  0  0  0  0  0  0  0  0  0  0  0
  149.8415  140.5880  152.2307 H   0  0  0  0  0  0  0  0  0  0  0  0
  149.5818  139.3703  153.4801 H   0  0  0  0  0  0  0  0  0  0  0  0
  148.7546  141.0066  156.2987 H   0  0  0  0  0  0  0  0  0  0  0  0
  150.2861  140.3897  155.7363 H   0  0  0  0  0  0  0  0  0  0  0  0
  149.8025  143.3021  156.0487 H   0  0  0  0  0  0  0  0  0  0  0  0
  152.8368  143.9968  156.9523 H   0  0  0  0  0  0  0  0  0  0  0  0
  151.1906  144.5240  157.0760 H   0  0  0  0  0  0  0  0  0  0  0  0
  153.2282  142.0958  158.8385 H   0  0  0  0  0  0  0  0  0  0  0  0
  153.5939  142.0210  161.2932 H   0  0  0  0  0  0  0  0  0  0  0  0
  152.5120  143.8205  162.7133 H   0  0  0  0  0  0  0  0  0  0  0  0
  151.1795  145.5477  161.6794 H   0  0  0  0  0  0  0  0  0  0  0  0
  147.4098  139.3958  154.7076 H   0  0  0  0  0  0  0  0  0  0  0  0
  147.2875  140.6649  155.9082 H   0  0  0  0  0  0  0  0  0  0  0  0
  145.2761  140.0098  153.6937 H   0  0  0  0  0  0  0  0  0  0  0  0
  145.2092  138.4114  155.6169 H   0  0  0  0  0  0  0  0  0  0  0  0
  143.7638  139.4172  155.5741 H   0  0  0  0  0  0  0  0  0  0  0  0
  145.0408  139.7613  156.7383 H   0  0  0  0  0  0  0  0  0  0  0  0
  1  2  1  0  0  0  0
  1 23  1  0  0  0  0
  1 24  1  0  0  0  0
  1 25  1  0  0  0  0
  2 22  1  0  0  0  0
  2  3  1  0  0  0  0
  2 26  1  0  0  0  0
  3  4  1  0  0  0  0
  3 27  1  0  0  0  0
  3 28  1  0  0  0  0
  4  5  1  0  0  0  0
  4 19  1  0  0  0  0
  5  6  1  0  0  0  0
  5  7  1  0  0  0  0
  5 29  1  0  0  0  0
  6 30  1  0  0  0  0
  6 31  1  0  0  0  0
  6 32  1  0  0  0  0
  7  8  1  0  0  0  0
  7 33  1  0  0  0  0
  7 34  1  0  0  0  0
  8  9  1  0  0  0  0
  8 35  1  0  0  0  0
  9 10  2  0  0  0  0
  9 11  1  0  0  0  0
 11 12  1  0  0  0  0
 11 36  1  0  0  0  0
 11 37  1  0  0  0  0
 12 17  1  0  0  0  0
 12 13  1  0  0  0  0
 13 14  2  0  0  0  0
 13 38  1  0  0  0  0
 14 15  1  0  0  0  0
 14 39  1  0  0  0  0
 15 16  2  0  0  0  0
 15 40  1  0  0  0  0
 16 17  1  0  0  0  0
 16 41  1  0  0  0  0
 17 18  2  0  0  0  0
 19 20  1  0  0  0  0
 19 42  1  0  0  0  0
 19 43  1  0  0  0  0
 20 21  1  0  0  0  0
 20 22  1  0  0  0  0
 20 44  1  0  0  0  0
 21 45  1  0  0  0  0
 21 46  1  0  0  0  0
 21 47  1  0  0  0  0
M  END
> <s_m_source_file>
AV-unprocessed.smi

> <i_m_source_file_index>
1795

> <i_lp_mmshare_version>
43012

> <i_f3d_flags>
0

> <s_epik_input>
W0NIM11bQ0BASF0xW0NIMl1OKFtDSDJdW0NASF0oTzEpW0NIM10pW0NASF0oW0NIM10pW0NIMl1bTkhdQyg9TylbQ0gyXW4yW2NIXVtjSF1bY0hdW2NIXWMyPU8=

> <s_epik_cmdline>
J2VwaWtfcHl0aG9uJywgJy1waCcsICc3LjAnLCAnLXRuJywgJzgnLCAnLW1hJywgJzIwMCcsICctbWV0YWxfYmluZGluZycsICctaW1hZScsICc8aW5maWxlLm1hZT4nLCAnLW9tYWUnLCAnPG91dGZpbGUubWFlPic=

> <r_lp_tautomer_probability>
1

> <r_epik_Ionization_Penalty>
0.237383

> <r_epik_Ionization_Penalty_Charging>
3.58805e-07

> <r_epik_Ionization_Penalty_Neutral>
0.237382

> <r_epik_State_Penalty>
0.228245

> <r_epik_Charging_Adjusted_Penalty>
0.228245

> <i_epik_Tot_Q>
0

> <i_epik_Tot_abs_Q>
0

> <r_epik_Metal_State_Penalty>
0.228221

> <b_epik_Metal_Only>
0

> <s_lp_Force_Field>
OPLS_2005

> <r_lp_Energy>
36.5545

> <b_lp_Chiralities_Consistent>
1

> <s_lp_Variant>
AV-unprocessed.smi:1795-2

> <Gold.Version>
5.8.1

> <Gold.Id.Protein>
6NUR|6NUR_protein|mol2

> <Gold.PLP.Fitness>
42.1988

> <Gold.PLP.PLP>
-42.2902

> <Gold.PLP.part.hbond>
-2.3018

> <Gold.PLP.part.metal>
0.0000

> <Gold.PLP.part.buried>
-2.0481

> <Gold.PLP.part.nonpolar>
-38.4465

> <Gold.PLP.part.repulsive>
0.4955

> <Gold.PLP.ligand.clash>
0.0000

> <Gold.PLP.ligand.torsion>
1.5696

> <Gold.PLP.Chemscore.Hbond>
1.0000

> <Gold.PLP.Chemscore.CHOScore>
0.0000

> <Gold.PLP.Chemscore.Metal>
0.0000

> <Gold.Chemscore.Hbonds>
donor molecule, donor type, donor heavy atom, donor atom, acceptor molecule, acceptor atom, score
      L1  H     8    35       P1  8028  1.00

> <Gold.PLP.Chemscore.Internal.Correction>
0.0478

> <Gold.Rescore>
     Score         DG    S(hbond)    S(metal)    S(lipo)     H(rot)  DE(clash)    DE(int)     intcor
     11.44     -15.34       1.00        0.00      95.64       1.83       1.39       2.50       ----

> <Gold.Chemscore.Fitness>
11.4438

> <Gold.Chemscore.DG>
-15.3364

> <Gold.Chemscore.ZeroCoef>
-5.4800

> <Gold.Chemscore.Hbond>
0.9997

> <Gold.Chemscore.Metal>
0.0000

> <Gold.Chemscore.Lipo>
95.6385

> <Gold.Chemscore.Internal_Hbond>
0.0000

> <Gold.Chemscore.DEClash>
1.3891

> <Gold.Chemscore.DEInternal>
2.5035

> <Gold.Chemscore.Rot>
1.8251

> <Gold.Chemscore.Internal.Correction>
   9.000000E+99

> <Gold.Chemscore.Hbonds>
donor molecule, donor type, donor heavy atom, donor atom, acceptor molecule, acceptor atom, score
      L1  H     8    35       P1  8028  1.00

> <Gold.Chemscore.Hbond.Weighted>
-3.3391

> <Gold.Chemscore.Metal.Weighted>
-0.0000

> <Gold.Chemscore.Lipo.Weighted>
-11.1897

> <Gold.Chemscore.Internal_Hbond.Weighted>
0.0000

> <Gold.Chemscore.DEClash.Weighted>
1.3891

> <Gold.Chemscore.DEInternal.Weighted>
2.5035

> <Gold.Chemscore.Rot.Weighted>
4.6724

> <Gold.Chemscore.Internal.Correction.Weighted>
   9.000000E+99

> <Gold.Protein.RotatedTorsions>
[ 6907 6896 6895 6894 ] final   80.49 input  -60.11 | X-H torsion
[ 7974 7965 7964 7962 ] final   47.20 input  175.53 | X-H torsion
[ 8008 7997 7996 7995 ] final  -77.71 input   59.86 | X-H torsion
[ 10167 10162 10161 10158 ] final    8.11 input  -65.29 | X-H torsion
[ 10718 10713 10712 10709 ] final  133.56 input   66.30 | X-H torsion
[ 10763 10752 10751 10750 ] final  169.67 input  -60.55 | X-H torsion
[ 11005 11000 10999 10996 ] final -167.63 input  -57.11 | X-H torsion

> <Gold.Protein.ActiveResidues>
 VAL166  LYS551  ARG553  GLY616  TRP617  ASP618  TYR619  PRO620  LYS621  CYS622 
 ASP623  PHE694  ASN695  SER759  ASP760  ASP761  ALA762  ILE779  LEU786  VAL792 
 PHE793  MET794  SER795  GLU796  ALA797  LYS798  CYS799  TRP800  GLU811  SER814 

> <Gold.Protein.RotatedAtoms>
  152.5236  134.3349  159.9196 H   0  0  0  0  0  0  0  0  0  0  0  0  # atno 6907 bound_to 6896
  151.3299  133.3998  159.2669 H   0  0  0  0  0  0  0  0  0  0  0  0  # atno 6908 bound_to 6896
  150.9889  134.9246  159.7946 H   0  0  0  0  0  0  0  0  0  0  0  0  # atno 6909 bound_to 6896
  146.0319  139.4774  142.9832 H   0  0  0  0  0  0  0  0  0  0  0  0  # atno 7974 bound_to 7965
  154.5621  140.0706  156.8835 H   0  0  0  0  0  0  0  0  0  0  0  0  # atno 8008 bound_to 7997
  155.2792  140.3370  155.4241 H   0  0  0  0  0  0  0  0  0  0  0  0  # atno 8009 bound_to 7997
  156.2051  140.1736  156.7803 H   0  0  0  0  0  0  0  0  0  0  0  0  # atno 8010 bound_to 7997
  140.6333  143.7943  150.7325 H   0  0  0  0  0  0  0  0  0  0  0  0  # atno 10167 bound_to 10162
  157.4760  131.1083  150.9742 H   0  0  0  0  0  0  0  0  0  0  0  0  # atno 10718 bound_to 10713
  154.3865  135.2753  155.2180 H   0  0  0  0  0  0  0  0  0  0  0  0  # atno 10763 bound_to 10752
  154.4265  135.5987  153.6045 H   0  0  0  0  0  0  0  0  0  0  0  0  # atno 10764 bound_to 10752
  152.9833  135.5985  154.4114 H   0  0  0  0  0  0  0  0  0  0  0  0  # atno 10765 bound_to 10752
  140.5511  134.5427  157.5122 H   0  0  0  0  0  0  0  0  0  0  0  0  # atno 11005 bound_to 11000
  145.7026  141.0131  143.1496 LP  0  0  0  0  0  0  0  0  0  0  0  0  # atno 17320 bound_to 7965
  144.7034  139.8662  143.7437 LP  0  0  0  0  0  0  0  0  0  0  0  0  # atno 17321 bound_to 7965
  140.1559  143.4317  152.2100 LP  0  0  0  0  0  0  0  0  0  0  0  0  # atno 17342 bound_to 10162
  139.5545  144.7363  151.4334 LP  0  0  0  0  0  0  0  0  0  0  0  0  # atno 17343 bound_to 10162
  157.0491  130.5780  149.5367 LP  0  0  0  0  0  0  0  0  0  0  0  0  # atno 17370 bound_to 10713
  156.0097  130.5187  150.7948 LP  0  0  0  0  0  0  0  0  0  0  0  0  # atno 17371 bound_to 10713
  139.9454  134.7711  156.0574 LP  0  0  0  0  0  0  0  0  0  0  0  0  # atno 17394 bound_to 11000
  141.1171  133.6624  156.3121 LP  0  0  0  0  0  0  0  0  0  0  0  0  # atno 17395 bound_to 11000

$$$$
