AV-unprocessed.smi:3112|AV-procd|sdf|11847|dock10
  -GOLD-   2272017233D 1   1.00000     0.00000
 Structure written by MMmdl.
 36 36  0  0  0  0  0  0  0  0  1 V2000
  151.9707  144.0586  161.1821 C   0  0  0  0  0  0  0  0  0  0  0  0
  151.7558  145.2044  160.1799 C   0  0  0  0  0  0  0  0  0  0  0  0
  151.5927  144.7570  158.7135 C   0  0  1  0  0  0  0  0  0  0  0  0
  152.8631  144.4212  158.1933 O   0  0  0  0  0  0  0  0  0  0  0  0
  150.6507  143.5522  158.5476 C   0  0  0  0  0  0  0  0  0  0  0  0
  150.7262  143.0107  157.1910 N   0  0  0  0  0  0  0  0  0  0  0  0
  150.3687  141.5945  157.0477 C   0  0  1  0  0  0  0  0  0  0  0  0
  148.9860  141.3760  157.6854 C   0  0  0  0  0  0  0  0  0  0  0  0
  150.3978  141.0849  155.5742 C   0  0  2  0  0  0  0  0  0  0  0  0
  149.1742  141.4582  154.7160 C   0  0  0  0  0  0  0  0  0  0  0  0
  150.7323  139.6674  155.4605 N   0  0  0  0  0  0  0  0  0  0  0  0
  150.8314  138.7344  156.4731 C   0  0  0  0  0  0  0  0  0  0  0  0
  151.1408  137.5348  155.8994 C   0  0  0  0  0  0  0  0  0  0  0  0
  151.2056  137.8325  154.5102 C   0  0  0  0  0  0  0  0  0  0  0  0
  150.9563  139.1049  154.2502 N   0  0  0  0  0  0  0  0  0  0  0  0
  152.0917  144.4500  162.1921 H   0  0  0  0  0  0  0  0  0  0  0  0
  152.8647  143.4820  160.9446 H   0  0  0  0  0  0  0  0  0  0  0  0
  151.1229  143.3737  161.1967 H   0  0  0  0  0  0  0  0  0  0  0  0
  150.8737  145.7715  160.4791 H   0  0  0  0  0  0  0  0  0  0  0  0
  152.5932  145.8995  160.2517 H   0  0  0  0  0  0  0  0  0  0  0  0
  151.2075  145.6051  158.1453 H   0  0  0  0  0  0  0  0  0  0  0  0
  152.8007  144.3971  157.2502 H   0  0  0  0  0  0  0  0  0  0  0  0
  150.8676  142.8026  159.3038 H   0  0  0  0  0  0  0  0  0  0  0  0
  149.6267  143.8790  158.7318 H   0  0  0  0  0  0  0  0  0  0  0  0
  150.1426  143.5705  156.5778 H   0  0  0  0  0  0  0  0  0  0  0  0
  151.0702  140.9922  157.6266 H   0  0  0  0  0  0  0  0  0  0  0  0
  148.6773  140.3330  157.6101 H   0  0  0  0  0  0  0  0  0  0  0  0
  148.2175  141.9862  157.2095 H   0  0  0  0  0  0  0  0  0  0  0  0
  148.9994  141.6345  158.7445 H   0  0  0  0  0  0  0  0  0  0  0  0
  151.2259  141.6179  155.1043 H   0  0  0  0  0  0  0  0  0  0  0  0
  148.9211  142.5128  154.8267 H   0  0  0  0  0  0  0  0  0  0  0  0
  148.2932  140.8692  154.9678 H   0  0  0  0  0  0  0  0  0  0  0  0
  149.3799  141.2802  153.6603 H   0  0  0  0  0  0  0  0  0  0  0  0
  150.6721  138.9994  157.5080 H   0  0  0  0  0  0  0  0  0  0  0  0
  151.2940  136.5883  156.3959 H   0  0  0  0  0  0  0  0  0  0  0  0
  151.4226  137.1662  153.6886 H   0  0  0  0  0  0  0  0  0  0  0  0
  1  2  1  0  0  0  0
  1 16  1  0  0  0  0
  1 17  1  0  0  0  0
  1 18  1  0  0  0  0
  2  3  1  0  0  0  0
  2 19  1  0  0  0  0
  2 20  1  0  0  0  0
  3  4  1  0  0  0  0
  3  5  1  0  0  0  0
  3 21  1  0  0  0  0
  4 22  1  0  0  0  0
  5  6  1  0  0  0  0
  5 23  1  0  0  0  0
  5 24  1  0  0  0  0
  6  7  1  0  0  0  0
  6 25  1  0  0  0  0
  7  8  1  0  0  0  0
  7  9  1  0  0  0  0
  7 26  1  0  0  0  0
  8 27  1  0  0  0  0
  8 28  1  0  0  0  0
  8 29  1  0  0  0  0
  9 10  1  0  0  0  0
  9 11  1  0  0  0  0
  9 30  1  0  0  0  0
 10 31  1  0  0  0  0
 10 32  1  0  0  0  0
 10 33  1  0  0  0  0
 11 15  1  0  0  0  0
 11 12  1  0  0  0  0
 12 13  2  0  0  0  0
 12 34  1  0  0  0  0
 13 14  1  0  0  0  0
 13 35  1  0  0  0  0
 14 15  2  0  0  0  0
 14 36  1  0  0  0  0
M  END
> <s_m_source_file>
AV-unprocessed.smi

> <i_m_source_file_index>
3112

> <i_lp_mmshare_version>
43012

> <i_f3d_flags>
0

> <s_epik_input>
W0NIM11bQ0gyXVtDQEhdKFtPSF0pW0NIMl1bTkhdW0NASF0oW0NIM10pW0NASF0oW0NIM10pbjFbY0hdW2NIXVtjSF1uMQ==

> <s_epik_cmdline>
J2VwaWtfcHl0aG9uJywgJy1waCcsICc3LjAnLCAnLXRuJywgJzgnLCAnLW1hJywgJzIwMCcsICctbWV0YWxfYmluZGluZycsICctaW1hZScsICc8aW5maWxlLm1hZT4nLCAnLW9tYWUnLCAnPG91dGZpbGUubWFlPic=

> <r_lp_tautomer_probability>
1

> <r_epik_Ionization_Penalty>
2.16876

> <r_epik_Ionization_Penalty_Charging>
0

> <r_epik_Ionization_Penalty_Neutral>
2.16876

> <r_epik_State_Penalty>
2.30854

> <r_epik_Charging_Adjusted_Penalty>
2.30854

> <i_epik_Tot_Q>
0

> <i_epik_Tot_abs_Q>
0

> <r_epik_Metal_State_Penalty>
2.3073

> <b_epik_Metal_Only>
0

> <s_lp_Force_Field>
OPLS_2005

> <r_lp_Energy>
21.8482

> <b_lp_Chiralities_Consistent>
1

> <s_lp_Variant>
AV-unprocessed.smi:3112-12

> <Gold.Version>
5.8.1

> <Gold.Id.Protein>
6NUR|6NUR_protein|mol2

> <Gold.PLP.Fitness>
41.1414

> <Gold.PLP.PLP>
-34.5569

> <Gold.PLP.part.hbond>
-2.0000

> <Gold.PLP.part.metal>
0.0000

> <Gold.PLP.part.buried>
-4.8817

> <Gold.PLP.part.nonpolar>
-28.2288

> <Gold.PLP.part.repulsive>
0.1743

> <Gold.PLP.ligand.clash>
0.0000

> <Gold.PLP.ligand.torsion>
0.9322

> <Gold.PLP.Chemscore.Hbond>
1.7000

> <Gold.PLP.Chemscore.CHOScore>
1.0000

> <Gold.PLP.Chemscore.Metal>
0.0000

> <Gold.Chemscore.Hbonds>
donor molecule, donor type, donor heavy atom, donor atom, acceptor molecule, acceptor atom, score
      L1  H     6    25       P1  8028  1.00
      P1  H  7989  7998       L1    15  0.60
      L1  C    14    36       P1  7949  1.00

> <Gold.PLP.Chemscore.Internal.Correction>
0.3490

> <Gold.Rescore>
     Score         DG    S(hbond)    S(metal)    S(lipo)     H(rot)  DE(clash)    DE(int)     intcor
     12.66     -13.30       1.04        0.00      87.68       2.31       0.05       0.58       ----

> <Gold.Chemscore.Fitness>
12.6620

> <Gold.Chemscore.DG>
-13.2954

> <Gold.Chemscore.ZeroCoef>
-5.4800

> <Gold.Chemscore.Hbond>
1.0397

> <Gold.Chemscore.Metal>
0.0000

> <Gold.Chemscore.Lipo>
87.6790

> <Gold.Chemscore.Internal_Hbond>
0.0000

> <Gold.Chemscore.DEClash>
0.0494

> <Gold.Chemscore.DEInternal>
0.5839

> <Gold.Chemscore.Rot>
2.3108

> <Gold.Chemscore.Internal.Correction>
   9.000000E+99

> <Gold.Chemscore.Hbonds>
donor molecule, donor type, donor heavy atom, donor atom, acceptor molecule, acceptor atom, score
      L1  H     6    25       P1  8028  1.00
      P1  H  7989  7998       L1    15  0.04

> <Gold.Chemscore.Hbond.Weighted>
-3.4726

> <Gold.Chemscore.Metal.Weighted>
-0.0000

> <Gold.Chemscore.Lipo.Weighted>
-10.2584

> <Gold.Chemscore.Internal_Hbond.Weighted>
0.0000

> <Gold.Chemscore.DEClash.Weighted>
0.0494

> <Gold.Chemscore.DEInternal.Weighted>
0.5839

> <Gold.Chemscore.Rot.Weighted>
5.9157

> <Gold.Chemscore.Internal.Correction.Weighted>
   9.000000E+99

> <Gold.Protein.RotatedTorsions>
[ 6907 6896 6895 6894 ] final -143.25 input  -60.11 | X-H torsion
[ 7974 7965 7964 7962 ] final  -67.15 input  175.53 | X-H torsion
[ 8008 7997 7996 7995 ] final  -18.60 input   59.86 | X-H torsion
[ 10167 10162 10161 10158 ] final   80.11 input  -65.29 | X-H torsion
[ 10718 10713 10712 10709 ] final   33.95 input   66.30 | X-H torsion
[ 10763 10752 10751 10750 ] final   79.13 input  -60.55 | X-H torsion
[ 11005 11000 10999 10996 ] final  -10.88 input  -57.11 | X-H torsion

> <Gold.Protein.ActiveResidues>
 VAL166  LYS551  ARG553  GLY616  TRP617  ASP618  TYR619  PRO620  LYS621  CYS622 
 ASP623  PHE694  ASN695  SER759  ASP760  ASP761  ALA762  ILE779  LEU786  VAL792 
 PHE793  MET794  SER795  GLU796  ALA797  LYS798  CYS799  TRP800  GLU811  SER814 

> <Gold.Protein.RotatedAtoms>
  151.0979  133.5266  159.2611 H   0  0  0  0  0  0  0  0  0  0  0  0  # atno 6907 bound_to 6896
  151.2108  135.0480  159.8920 H   0  0  0  0  0  0  0  0  0  0  0  0  # atno 6908 bound_to 6896
  152.5440  134.0795  159.8283 H   0  0  0  0  0  0  0  0  0  0  0  0  # atno 6909 bound_to 6896
  145.7329  140.8989  143.0571 H   0  0  0  0  0  0  0  0  0  0  0  0  # atno 7974 bound_to 7965
  154.4895  140.2111  155.9581 H   0  0  0  0  0  0  0  0  0  0  0  0  # atno 8008 bound_to 7997
  156.1284  140.3201  155.8280 H   0  0  0  0  0  0  0  0  0  0  0  0  # atno 8009 bound_to 7997
  155.4341  140.0505  157.3007 H   0  0  0  0  0  0  0  0  0  0  0  0  # atno 8010 bound_to 7997
  139.9532  144.6011  150.8141 H   0  0  0  0  0  0  0  0  0  0  0  0  # atno 10167 bound_to 10162
  157.3042  130.7366  149.6685 H   0  0  0  0  0  0  0  0  0  0  0  0  # atno 10718 bound_to 10713
  153.0928  135.4851  154.8723 H   0  0  0  0  0  0  0  0  0  0  0  0  # atno 10763 bound_to 10752
  154.7290  135.3056  154.8926 H   0  0  0  0  0  0  0  0  0  0  0  0  # atno 10764 bound_to 10752
  153.9567  135.6817  153.4798 H   0  0  0  0  0  0  0  0  0  0  0  0  # atno 10765 bound_to 10752
  140.7494  133.8604  155.9033 H   0  0  0  0  0  0  0  0  0  0  0  0  # atno 11005 bound_to 11000
  144.6889  139.9355  143.7473 LP  0  0  0  0  0  0  0  0  0  0  0  0  # atno 17320 bound_to 7965
  146.0521  139.3521  143.0633 LP  0  0  0  0  0  0  0  0  0  0  0  0  # atno 17321 bound_to 7965
  140.7576  143.3090  151.2891 LP  0  0  0  0  0  0  0  0  0  0  0  0  # atno 17342 bound_to 10162
  139.6612  144.0187  152.2693 LP  0  0  0  0  0  0  0  0  0  0  0  0  # atno 17343 bound_to 10162
  155.9673  130.4271  150.4727 LP  0  0  0  0  0  0  0  0  0  0  0  0  # atno 17370 bound_to 10713
  157.2714  131.0588  151.2257 LP  0  0  0  0  0  0  0  0  0  0  0  0  # atno 17371 bound_to 10713
  140.9764  134.1463  157.4532 LP  0  0  0  0  0  0  0  0  0  0  0  0  # atno 17394 bound_to 11000
  139.8790  134.9996  156.5963 LP  0  0  0  0  0  0  0  0  0  0  0  0  # atno 17395 bound_to 11000

$$$$
