AV-unprocessed.smi:2538|AV-procd|sdf|9982|dock1
  -GOLD-   2272014 23D 1   1.00000     0.00000
 Structure written by MMmdl.
 48 49  0  0  0  0  0  0  0  0  1 V2000
  153.0872  143.3770  161.6019 C   0  0  0  0  0  0  0  0  0  0  0  0
  152.5211  142.7958  160.3180 C   0  0  0  0  0  0  0  0  0  0  0  0
  152.6323  141.4064  160.0854 C   0  0  0  0  0  0  0  0  0  0  0  0
  152.1182  140.8260  158.9056 C   0  0  0  0  0  0  0  0  0  0  0  0
  152.1135  139.5081  158.4810 N   0  0  0  0  0  0  0  0  0  0  0  0
  151.4938  139.6068  157.3088 C   0  0  0  0  0  0  0  0  0  0  0  0
  151.0943  140.8342  156.9243 N   0  0  0  0  0  0  0  0  0  0  0  0
  150.4050  141.1750  155.6937 C   0  0  0  0  0  0  0  0  0  0  0  0
  148.8949  141.3968  155.9155 C   0  0  1  0  0  0  0  0  0  0  0  0
  148.7450  142.4758  156.8182 O   0  0  0  0  0  0  0  0  0  0  0  0
  148.1438  141.7287  154.6051 C   0  0  0  0  0  0  0  0  0  0  0  0
  146.7688  142.1839  154.8746 N   0  0  0  0  0  0  0  0  0  0  0  0
  146.1887  143.0652  153.8559 C   0  0  0  0  0  0  0  0  0  0  0  0
  145.6923  141.2148  155.8306 S   0  0  0  0  0  0  0  0  0  0  0  0
  144.3321  141.4426  155.3179 O   0  0  0  0  0  0  0  0  0  0  0  0
  146.2332  139.8482  155.8859 O   0  0  0  0  0  0  0  0  0  0  0  0
  145.8665  141.9880  157.5107 C   0  0  0  0  0  0  0  0  0  0  0  0
  145.0505  141.2132  158.5556 C   0  0  0  0  0  0  0  0  0  0  0  0
  145.4751  143.4718  157.4675 C   0  0  0  0  0  0  0  0  0  0  0  0
  151.4864  141.6807  157.9553 C   0  0  0  0  0  0  0  0  0  0  0  0
  151.3681  143.0644  158.1759 C   0  0  0  0  0  0  0  0  0  0  0  0
  151.8852  143.6276  159.3614 C   0  0  0  0  0  0  0  0  0  0  0  0
  151.7477  145.1220  159.5930 C   0  0  0  0  0  0  0  0  0  0  0  0
  153.5771  142.6108  162.2034 H   0  0  0  0  0  0  0  0  0  0  0  0
  152.2919  143.8176  162.2033 H   0  0  0  0  0  0  0  0  0  0  0  0
  153.8245  144.1493  161.3814 H   0  0  0  0  0  0  0  0  0  0  0  0
  153.1141  140.7721  160.8146 H   0  0  0  0  0  0  0  0  0  0  0  0
  151.3163  138.7367  156.6930 H   0  0  0  0  0  0  0  0  0  0  0  0
  150.8667  142.0632  155.2601 H   0  0  0  0  0  0  0  0  0  0  0  0
  150.5786  140.3673  154.9834 H   0  0  0  0  0  0  0  0  0  0  0  0
  148.4649  140.5111  156.3858 H   0  0  0  0  0  0  0  0  0  0  0  0
  148.8385  143.2837  156.3368 H   0  0  0  0  0  0  0  0  0  0  0  0
  148.6840  142.4856  154.0334 H   0  0  0  0  0  0  0  0  0  0  0  0
  148.0920  140.8565  153.9524 H   0  0  0  0  0  0  0  0  0  0  0  0
  146.8692  143.8849  153.6241 H   0  0  0  0  0  0  0  0  0  0  0  0
  145.2519  143.4937  154.2119 H   0  0  0  0  0  0  0  0  0  0  0  0
  145.9865  142.5032  152.9437 H   0  0  0  0  0  0  0  0  0  0  0  0
  146.9187  141.9213  157.7873 H   0  0  0  0  0  0  0  0  0  0  0  0
  145.1797  141.6424  159.5495 H   0  0  0  0  0  0  0  0  0  0  0  0
  145.3657  140.1705  158.6059 H   0  0  0  0  0  0  0  0  0  0  0  0
  143.9859  141.2319  158.3206 H   0  0  0  0  0  0  0  0  0  0  0  0
  145.5944  143.9382  158.4455 H   0  0  0  0  0  0  0  0  0  0  0  0
  144.4357  143.5978  157.1628 H   0  0  0  0  0  0  0  0  0  0  0  0
  146.0997  144.0229  156.7640 H   0  0  0  0  0  0  0  0  0  0  0  0
  150.8809  143.6864  157.4392 H   0  0  0  0  0  0  0  0  0  0  0  0
  151.2230  145.6053  158.7685 H   0  0  0  0  0  0  0  0  0  0  0  0
  152.7296  145.5872  159.6838 H   0  0  0  0  0  0  0  0  0  0  0  0
  151.1855  145.3170  160.5067 H   0  0  0  0  0  0  0  0  0  0  0  0
  1  2  1  0  0  0  0
  1 24  1  0  0  0  0
  1 25  1  0  0  0  0
  1 26  1  0  0  0  0
  2 22  1  0  0  0  0
  2  3  2  0  0  0  0
  3  4  1  0  0  0  0
  3 27  1  0  0  0  0
  4 20  2  0  0  0  0
  4  5  1  0  0  0  0
  5  6  2  0  0  0  0
  6  7  1  0  0  0  0
  6 28  1  0  0  0  0
  7  8  1  0  0  0  0
  7 20  1  0  0  0  0
  8  9  1  0  0  0  0
  8 29  1  0  0  0  0
  8 30  1  0  0  0  0
  9 10  1  0  0  0  0
  9 11  1  0  0  0  0
  9 31  1  0  0  0  0
 10 32  1  0  0  0  0
 11 12  1  0  0  0  0
 11 33  1  0  0  0  0
 11 34  1  0  0  0  0
 12 13  1  0  0  0  0
 12 14  1  0  0  0  0
 13 35  1  0  0  0  0
 13 36  1  0  0  0  0
 13 37  1  0  0  0  0
 14 15  2  0  0  0  0
 14 16  2  0  0  0  0
 14 17  1  0  0  0  0
 17 18  1  0  0  0  0
 17 19  1  0  0  0  0
 17 38  1  0  0  0  0
 18 39  1  0  0  0  0
 18 40  1  0  0  0  0
 18 41  1  0  0  0  0
 19 42  1  0  0  0  0
 19 43  1  0  0  0  0
 19 44  1  0  0  0  0
 20 21  1  0  0  0  0
 21 22  2  0  0  0  0
 21 45  1  0  0  0  0
 22 23  1  0  0  0  0
 23 46  1  0  0  0  0
 23 47  1  0  0  0  0
 23 48  1  0  0  0  0
M  END
> <s_m_source_file>
AV-unprocessed.smi

> <i_m_source_file_index>
2538

> <i_lp_mmshare_version>
43012

> <i_f3d_flags>
0

> <s_epik_input>
W0NIM11jKFtjSF0xKWMoW0NIM10pW2NIXWMoYzEyKW4oW2NIXW4yKVtDSDJdW0NASF0oW09IXSlbQ0gyXU4oW0NIM10pUyg9TykoPU8pW0NIXShbQ0gzXSlbQ0gzXQ==

> <s_epik_cmdline>
J2VwaWtfcHl0aG9uJywgJy1waCcsICc3LjAnLCAnLXRuJywgJzgnLCAnLW1hJywgJzIwMCcsICctbWV0YWxfYmluZGluZycsICctaW1hZScsICc8aW5maWxlLm1hZT4nLCAnLW9tYWUnLCAnPG91dGZpbGUubWFlPic=

> <r_epik_Ionization_Penalty>
0.105018

> <r_epik_Ionization_Penalty_Charging>
0

> <r_epik_Ionization_Penalty_Neutral>
0.105018

> <r_epik_State_Penalty>
0.094904

> <r_epik_Charging_Adjusted_Penalty>
0.094904

> <i_epik_Tot_Q>
0

> <i_epik_Tot_abs_Q>
0

> <r_epik_Metal_State_Penalty>
0.000102919

> <b_epik_Metal_Only>
0

> <s_lp_Force_Field>
OPLS_2005

> <r_lp_Energy>
6.99225

> <b_lp_Chiralities_Consistent>
1

> <s_lp_Variant>
AV-unprocessed.smi:2538-2

> <Gold.Version>
5.8.1

> <Gold.Id.Protein>
6NUR|6NUR_protein|mol2

> <Gold.PLP.Fitness>
45.8971

> <Gold.PLP.PLP>
-43.3715

> <Gold.PLP.part.hbond>
-1.0000

> <Gold.PLP.part.metal>
0.0000

> <Gold.PLP.part.buried>
-6.0554

> <Gold.PLP.part.nonpolar>
-37.1495

> <Gold.PLP.part.repulsive>
0.7761

> <Gold.PLP.ligand.clash>
0.0000

> <Gold.PLP.ligand.torsion>
1.6252

> <Gold.PLP.Chemscore.Hbond>
1.0000

> <Gold.PLP.Chemscore.CHOScore>
0.0000

> <Gold.PLP.Chemscore.Metal>
0.0000

> <Gold.Chemscore.Hbonds>
donor molecule, donor type, donor heavy atom, donor atom, acceptor molecule, acceptor atom, score
      L1  H    10    32       P1  8028  1.00

> <Gold.PLP.Chemscore.Internal.Correction>
2.7760

> <Gold.Rescore>
     Score         DG    S(hbond)    S(metal)    S(lipo)     H(rot)  DE(clash)    DE(int)     intcor
     12.71     -15.21       0.97        0.00     105.70       2.29       0.12       2.38       ----

> <Gold.Chemscore.Fitness>
12.7065

> <Gold.Chemscore.DG>
-15.2119

> <Gold.Chemscore.ZeroCoef>
-5.4800

> <Gold.Chemscore.Hbond>
0.9675

> <Gold.Chemscore.Metal>
0.0000

> <Gold.Chemscore.Lipo>
105.7027

> <Gold.Chemscore.Internal_Hbond>
0.0000

> <Gold.Chemscore.DEClash>
0.1232

> <Gold.Chemscore.DEInternal>
2.3822

> <Gold.Chemscore.Rot>
2.2917

> <Gold.Chemscore.Internal.Correction>
   9.000000E+99

> <Gold.Chemscore.Hbonds>
donor molecule, donor type, donor heavy atom, donor atom, acceptor molecule, acceptor atom, score
      L1  H    10    32       P1  8028  0.96

> <Gold.Chemscore.Hbond.Weighted>
-3.2316

> <Gold.Chemscore.Metal.Weighted>
-0.0000

> <Gold.Chemscore.Lipo.Weighted>
-12.3672

> <Gold.Chemscore.Internal_Hbond.Weighted>
0.0000

> <Gold.Chemscore.DEClash.Weighted>
0.1232

> <Gold.Chemscore.DEInternal.Weighted>
2.3822

> <Gold.Chemscore.Rot.Weighted>
5.8669

> <Gold.Chemscore.Internal.Correction.Weighted>
   9.000000E+99

> <Gold.Protein.RotatedTorsions>
[ 6907 6896 6895 6894 ] final   85.59 input  -60.11 | X-H torsion
[ 7974 7965 7964 7962 ] final -120.40 input  175.53 | X-H torsion
[ 8008 7997 7996 7995 ] final   53.18 input   59.86 | X-H torsion
[ 10167 10162 10161 10158 ] final  -83.26 input  -65.29 | X-H torsion
[ 10718 10713 10712 10709 ] final   30.97 input   66.30 | X-H torsion
[ 10763 10752 10751 10750 ] final -149.81 input  -60.55 | X-H torsion
[ 11005 11000 10999 10996 ] final  -21.50 input  -57.11 | X-H torsion

> <Gold.Protein.ActiveResidues>
 VAL166  LYS551  ARG553  GLY616  TRP617  ASP618  TYR619  PRO620  LYS621  CYS622 
 ASP623  PHE694  ASN695  SER759  ASP760  ASP761  ALA762  ILE779  LEU786  VAL792 
 PHE793  MET794  SER795  GLU796  ALA797  LYS798  CYS799  TRP800  GLU811  SER814 

> <Gold.Protein.RotatedAtoms>
  152.5378  134.2563  159.8917 H   0  0  0  0  0  0  0  0  0  0  0  0  # atno 6907 bound_to 6896
  151.2524  133.4336  159.2619 H   0  0  0  0  0  0  0  0  0  0  0  0  # atno 6908 bound_to 6896
  151.0527  134.9698  159.8276 H   0  0  0  0  0  0  0  0  0  0  0  0  # atno 6909 bound_to 6896
  145.0518  140.8224  143.4205 H   0  0  0  0  0  0  0  0  0  0  0  0  # atno 7974 bound_to 7965
  155.4640  140.3463  155.4316 H   0  0  0  0  0  0  0  0  0  0  0  0  # atno 8008 bound_to 7997
  156.1143  140.1469  156.9324 H   0  0  0  0  0  0  0  0  0  0  0  0  # atno 8009 bound_to 7997
  154.4778  140.0879  156.7283 H   0  0  0  0  0  0  0  0  0  0  0  0  # atno 8010 bound_to 7997
  140.4244  143.2572  151.8846 H   0  0  0  0  0  0  0  0  0  0  0  0  # atno 10167 bound_to 10162
  157.2664  130.7186  149.6481 H   0  0  0  0  0  0  0  0  0  0  0  0  # atno 10718 bound_to 10713
  154.8155  135.3300  154.7187 H   0  0  0  0  0  0  0  0  0  0  0  0  # atno 10763 bound_to 10752
  153.7828  135.6917  153.4890 H   0  0  0  0  0  0  0  0  0  0  0  0  # atno 10764 bound_to 10752
  153.1969  135.4530  155.0165 H   0  0  0  0  0  0  0  0  0  0  0  0  # atno 10765 bound_to 10752
  140.8567  133.7817  156.0028 H   0  0  0  0  0  0  0  0  0  0  0  0  # atno 11005 bound_to 11000
  145.1518  139.2510  143.5437 LP  0  0  0  0  0  0  0  0  0  0  0  0  # atno 17320 bound_to 7965
  146.3518  140.1222  142.8600 LP  0  0  0  0  0  0  0  0  0  0  0  0  # atno 17321 bound_to 7965
  139.4783  144.5403  151.8538 LP  0  0  0  0  0  0  0  0  0  0  0  0  # atno 17342 bound_to 10162
  140.4498  144.1871  150.5896 LP  0  0  0  0  0  0  0  0  0  0  0  0  # atno 17343 bound_to 10162
  155.9663  130.4381  150.5204 LP  0  0  0  0  0  0  0  0  0  0  0  0  # atno 17370 bound_to 10713
  157.3119  131.0665  151.1995 LP  0  0  0  0  0  0  0  0  0  0  0  0  # atno 17371 bound_to 10713
  140.8729  134.2705  157.5182 LP  0  0  0  0  0  0  0  0  0  0  0  0  # atno 17394 bound_to 11000
  139.8705  134.9576  156.4274 LP  0  0  0  0  0  0  0  0  0  0  0  0  # atno 17395 bound_to 11000

$$$$
