AV-unprocessed.smi:332|AV-procd|sdf|2356|dock10
  -GOLD-   2262022273D 1   1.00000     0.00000
 Structure written by MMmdl.
 42 44  0  0  0  0  0  0  0  0  1 V2000
  151.4812  138.0429  158.9534 C   0  0  0  0  0  0  0  0  0  0  0  0
  151.8343  139.2961  158.1345 C   0  0  2  0  0  0  0  0  0  0  0  0
  152.2568  140.3723  159.0237 N   0  0  0  0  0  0  0  0  0  0  0  0
  153.5135  140.6174  159.4303 C   0  0  0  0  0  0  0  0  0  0  0  0
  154.4603  139.8803  159.1591 O   0  0  0  0  0  0  0  0  0  0  0  0
  153.7650  141.8957  160.2487 C   0  0  0  0  0  0  0  0  0  0  0  0
  153.0834  143.0976  159.7322 N   0  0  0  0  0  0  0  0  0  0  0  0
  152.9597  143.2139  158.3334 C   0  0  0  0  0  0  0  0  0  0  0  0
  152.3723  144.2754  157.7587 C   0  0  0  0  0  0  0  0  0  0  0  0
  151.8576  145.3178  158.6147 C   0  0  0  0  0  0  0  0  0  0  0  0
  151.9747  145.2190  159.9538 C   0  0  0  0  0  0  0  0  0  0  0  0
  152.6198  144.0629  160.5864 C   0  0  0  0  0  0  0  0  0  0  0  0
  152.7459  143.9723  161.8078 O   0  0  0  0  0  0  0  0  0  0  0  0
  150.6431  139.7844  157.2775 C   0  0  2  0  0  0  0  0  0  0  0  0
  149.6691  138.6720  156.8296 C   0  0  0  0  0  0  0  0  0  0  0  0
  149.5412  138.9151  155.3139 C   0  0  2  0  0  0  0  0  0  0  0  0
  150.8405  138.4655  154.6198 C   0  0  0  0  0  0  0  0  0  0  0  0
  151.8389  139.5650  155.0251 C   0  0  0  0  0  0  0  0  0  0  0  0
  150.9900  140.4768  155.9340 C   0  0  1  0  0  0  0  0  0  0  0  0
  149.6427  140.4334  155.2214 C   0  0  0  0  0  0  0  0  0  0  0  0
  151.1809  137.2194  158.3053 H   0  0  0  0  0  0  0  0  0  0  0  0
  150.6607  138.2375  159.6449 H   0  0  0  0  0  0  0  0  0  0  0  0
  152.3349  137.6995  159.5383 H   0  0  0  0  0  0  0  0  0  0  0  0
  152.6634  139.0437  157.4715 H   0  0  0  0  0  0  0  0  0  0  0  0
  151.5417  141.0287  159.3020 H   0  0  0  0  0  0  0  0  0  0  0  0
  153.4618  141.7008  161.2780 H   0  0  0  0  0  0  0  0  0  0  0  0
  154.8413  142.0696  160.3006 H   0  0  0  0  0  0  0  0  0  0  0  0
  153.3773  142.3955  157.7649 H   0  0  0  0  0  0  0  0  0  0  0  0
  152.2910  144.3494  156.6842 H   0  0  0  0  0  0  0  0  0  0  0  0
  151.3767  146.1813  158.1794 H   0  0  0  0  0  0  0  0  0  0  0  0
  151.5853  146.0096  160.5786 H   0  0  0  0  0  0  0  0  0  0  0  0
  150.0815  140.5074  157.8725 H   0  0  0  0  0  0  0  0  0  0  0  0
  150.0356  137.6681  157.0476 H   0  0  0  0  0  0  0  0  0  0  0  0
  148.7051  138.7865  157.3268 H   0  0  0  0  0  0  0  0  0  0  0  0
  148.6404  138.4842  154.8763 H   0  0  0  0  0  0  0  0  0  0  0  0
  151.1608  137.4740  154.9423 H   0  0  0  0  0  0  0  0  0  0  0  0
  150.7166  138.4406  153.5366 H   0  0  0  0  0  0  0  0  0  0  0  0
  152.7284  139.1707  155.5156 H   0  0  0  0  0  0  0  0  0  0  0  0
  152.1738  140.1147  154.1445 H   0  0  0  0  0  0  0  0  0  0  0  0
  151.4028  141.4793  156.0511 H   0  0  0  0  0  0  0  0  0  0  0  0
  149.6822  140.8039  154.1955 H   0  0  0  0  0  0  0  0  0  0  0  0
  148.8488  140.9548  155.7592 H   0  0  0  0  0  0  0  0  0  0  0  0
  1  2  1  0  0  0  0
  1 21  1  0  0  0  0
  1 22  1  0  0  0  0
  1 23  1  0  0  0  0
  2  3  1  0  0  0  0
  2 14  1  0  0  0  0
  2 24  1  0  0  0  0
  3  4  1  0  0  0  0
  3 25  1  0  0  0  0
  4  5  2  0  0  0  0
  4  6  1  0  0  0  0
  6  7  1  0  0  0  0
  6 26  1  0  0  0  0
  6 27  1  0  0  0  0
  7 12  1  0  0  0  0
  7  8  1  0  0  0  0
  8  9  2  0  0  0  0
  8 28  1  0  0  0  0
  9 10  1  0  0  0  0
  9 29  1  0  0  0  0
 10 11  2  0  0  0  0
 10 30  1  0  0  0  0
 11 12  1  0  0  0  0
 11 31  1  0  0  0  0
 12 13  2  0  0  0  0
 14 19  1  0  0  0  0
 14 15  1  0  0  0  0
 14 32  1  0  0  0  0
 15 16  1  0  0  0  0
 15 33  1  0  0  0  0
 15 34  1  0  0  0  0
 16 20  1  0  0  0  0
 16 17  1  0  0  0  0
 16 35  1  0  0  0  0
 17 18  1  0  0  0  0
 17 36  1  0  0  0  0
 17 37  1  0  0  0  0
 18 19  1  0  0  0  0
 18 38  1  0  0  0  0
 18 39  1  0  0  0  0
 19 20  1  0  0  0  0
 19 40  1  0  0  0  0
 20 41  1  0  0  0  0
 20 42  1  0  0  0  0
M  END
> <s_m_source_file>
AV-unprocessed.smi

> <i_m_source_file_index>
332

> <i_lp_mmshare_version>
43012

> <i_f3d_flags>
0

> <s_epik_input>
W0NIMl0xW0NIMl1bQ0BIXShbQ0gyXTIpW0NAQEhdKFtDSDJdW0NAQEhdMTIpW0NASF0oW0NIM10pW05IXUMoPU8pW0NIMl1uM1tjSF1bY0hdW2NIXVtjSF1jMz1P

> <s_epik_cmdline>
J2VwaWtfcHl0aG9uJywgJy1waCcsICc3LjAnLCAnLXRuJywgJzgnLCAnLW1hJywgJzIwMCcsICctbWV0YWxfYmluZGluZycsICctaW1hZScsICc8aW5maWxlLm1hZT4nLCAnLW9tYWUnLCAnPG91dGZpbGUubWFlPic=

> <r_lp_tautomer_probability>
1

> <r_epik_Ionization_Penalty>
4.05802e-07

> <r_epik_Ionization_Penalty_Charging>
3.84175e-07

> <r_epik_Ionization_Penalty_Neutral>
2.16269e-08

> <r_epik_State_Penalty>
-0

> <r_epik_Charging_Adjusted_Penalty>
3.84175e-07

> <i_epik_Tot_Q>
0

> <i_epik_Tot_abs_Q>
0

> <r_epik_Metal_State_Penalty>
-0

> <b_epik_Metal_Only>
0

> <s_lp_Force_Field>
OPLS_2005

> <r_lp_Energy>
59.3935

> <b_lp_Chiralities_Consistent>
1

> <s_lp_Variant>
AV-unprocessed.smi:332-5

> <Gold.Version>
5.8.1

> <Gold.Id.Protein>
6NUR|6NUR_protein|mol2

> <Gold.PLP.Fitness>
47.6830

> <Gold.PLP.PLP>
-48.0075

> <Gold.PLP.part.hbond>
-1.0000

> <Gold.PLP.part.metal>
0.0000

> <Gold.PLP.part.buried>
-2.8902

> <Gold.PLP.part.nonpolar>
-43.6138

> <Gold.PLP.part.repulsive>
0.3016

> <Gold.PLP.ligand.clash>
0.0000

> <Gold.PLP.ligand.torsion>
1.6714

> <Gold.PLP.Chemscore.Hbond>
1.0000

> <Gold.PLP.Chemscore.CHOScore>
0.0000

> <Gold.PLP.Chemscore.Metal>
0.0000

> <Gold.Chemscore.Hbonds>
donor molecule, donor type, donor heavy atom, donor atom, acceptor molecule, acceptor atom, score
      P1  H  7997  8009       L1     5  1.00

> <Gold.PLP.Chemscore.Internal.Correction>
0.0182

> <Gold.Rescore>
     Score         DG    S(hbond)    S(metal)    S(lipo)     H(rot)  DE(clash)    DE(int)     intcor
     14.36     -16.61       1.00        0.00     100.42       1.54       0.05       2.20       ----

> <Gold.Chemscore.Fitness>
14.3566

> <Gold.Chemscore.DG>
-16.6116

> <Gold.Chemscore.ZeroCoef>
-5.4800

> <Gold.Chemscore.Hbond>
0.9955

> <Gold.Chemscore.Metal>
0.0000

> <Gold.Chemscore.Lipo>
100.4153

> <Gold.Chemscore.Internal_Hbond>
0.0000

> <Gold.Chemscore.DEClash>
0.0517

> <Gold.Chemscore.DEInternal>
2.2033

> <Gold.Chemscore.Rot>
1.5398

> <Gold.Chemscore.Internal.Correction>
   9.000000E+99

> <Gold.Chemscore.Hbonds>
donor molecule, donor type, donor heavy atom, donor atom, acceptor molecule, acceptor atom, score
      P1  H  7997  8009       L1     5  0.71

> <Gold.Chemscore.Hbond.Weighted>
-3.3249

> <Gold.Chemscore.Metal.Weighted>
-0.0000

> <Gold.Chemscore.Lipo.Weighted>
-11.7486

> <Gold.Chemscore.Internal_Hbond.Weighted>
0.0000

> <Gold.Chemscore.DEClash.Weighted>
0.0517

> <Gold.Chemscore.DEInternal.Weighted>
2.2033

> <Gold.Chemscore.Rot.Weighted>
3.9419

> <Gold.Chemscore.Internal.Correction.Weighted>
   9.000000E+99

> <Gold.Protein.RotatedTorsions>
[ 6907 6896 6895 6894 ] final  173.35 input  -60.11 | X-H torsion
[ 7974 7965 7964 7962 ] final   84.51 input  175.53 | X-H torsion
[ 8008 7997 7996 7995 ] final  134.33 input   59.86 | X-H torsion
[ 10167 10162 10161 10158 ] final  152.44 input  -65.29 | X-H torsion
[ 10718 10713 10712 10709 ] final -113.58 input   66.30 | X-H torsion
[ 10763 10752 10751 10750 ] final    6.35 input  -60.55 | X-H torsion
[ 11005 11000 10999 10996 ] final   38.74 input  -57.11 | X-H torsion

> <Gold.Protein.ActiveResidues>
 VAL166  LYS551  ARG553  GLY616  TRP617  ASP618  TYR619  PRO620  LYS621  CYS622 
 ASP623  PHE694  ASN695  SER759  ASP760  ASP761  ALA762  ILE779  LEU786  VAL792 
 PHE793  MET794  SER795  GLU796  ALA797  LYS798  CYS799  TRP800  GLU811  SER814 

> <Gold.Protein.RotatedAtoms>
  151.7697  133.3340  159.3440 H   0  0  0  0  0  0  0  0  0  0  0  0  # atno 6907 bound_to 6896
  150.7466  134.6030  159.6056 H   0  0  0  0  0  0  0  0  0  0  0  0  # atno 6908 bound_to 6896
  152.3350  134.7212  160.0331 H   0  0  0  0  0  0  0  0  0  0  0  0  # atno 6909 bound_to 6896
  145.5978  139.2347  143.2263 H   0  0  0  0  0  0  0  0  0  0  0  0  # atno 7974 bound_to 7965
  156.2998  140.2499  156.3399 H   0  0  0  0  0  0  0  0  0  0  0  0  # atno 8008 bound_to 7997
  154.9064  140.0404  157.1941 H   0  0  0  0  0  0  0  0  0  0  0  0  # atno 8009 bound_to 7997
  154.8449  140.2896  155.5640 H   0  0  0  0  0  0  0  0  0  0  0  0  # atno 8010 bound_to 7997
  139.4833  144.5357  151.7648 H   0  0  0  0  0  0  0  0  0  0  0  0  # atno 10167 bound_to 10162
  156.0776  130.5981  150.8661 H   0  0  0  0  0  0  0  0  0  0  0  0  # atno 10718 bound_to 10713
  153.2488  135.6911  153.7702 H   0  0  0  0  0  0  0  0  0  0  0  0  # atno 10763 bound_to 10752
  153.6804  135.3329  155.3177 H   0  0  0  0  0  0  0  0  0  0  0  0  # atno 10764 bound_to 10752
  154.8386  135.4521  154.1437 H   0  0  0  0  0  0  0  0  0  0  0  0  # atno 10765 bound_to 10752
  140.2096  134.3771  155.8055 H   0  0  0  0  0  0  0  0  0  0  0  0  # atno 11005 bound_to 11000
  146.1599  140.6803  142.9282 LP  0  0  0  0  0  0  0  0  0  0  0  0  # atno 17320 bound_to 7965
  144.7323  140.4707  143.6929 LP  0  0  0  0  0  0  0  0  0  0  0  0  # atno 17321 bound_to 7965
  140.4890  144.1339  150.5946 LP  0  0  0  0  0  0  0  0  0  0  0  0  # atno 17342 bound_to 10162
  140.4193  143.2619  151.9736 LP  0  0  0  0  0  0  0  0  0  0  0  0  # atno 17343 bound_to 10162
  157.5878  131.0945  150.9168 LP  0  0  0  0  0  0  0  0  0  0  0  0  # atno 17370 bound_to 10713
  156.9350  130.5363  149.5279 LP  0  0  0  0  0  0  0  0  0  0  0  0  # atno 17371 bound_to 10713
  141.2226  133.7136  156.8396 LP  0  0  0  0  0  0  0  0  0  0  0  0  # atno 17394 bound_to 11000
  140.1965  134.8928  157.3120 LP  0  0  0  0  0  0  0  0  0  0  0  0  # atno 17395 bound_to 11000

$$$$
