AV-unprocessed.smi:2695|AV-procd|sdf|10410|dock7
  -GOLD-   2272014443D 1   1.00000     0.00000
 Structure written by MMmdl.
 42 43  0  0  0  0  0  0  0  0  1 V2000
  151.5565  144.3636  160.2201 C   0  0  0  0  0  0  0  0  0  0  0  0
  152.3857  143.0925  160.3586 C   0  0  0  0  0  0  0  0  0  0  0  0
  153.1108  142.8535  161.4666 C   0  0  0  0  0  0  0  0  0  0  0  0
  153.9133  141.6586  161.5544 C   0  0  0  0  0  0  0  0  0  0  0  0
  154.6291  141.4113  162.6584 O   0  0  0  0  0  0  0  0  0  0  0  0
  153.9443  140.8003  160.5184 C   0  0  0  0  0  0  0  0  0  0  0  0
  153.1746  141.0356  159.2945 C   0  0  0  0  0  0  0  0  0  0  0  0
  153.2243  140.2503  158.3466 O   0  0  0  0  0  0  0  0  0  0  0  0
  152.4012  142.1692  159.2719 N   0  0  0  0  0  0  0  0  0  0  0  0
  151.5669  142.4275  158.0750 C   0  0  0  0  0  0  0  0  0  0  0  0
  150.7501  141.2093  157.6166 C   0  0  0  0  0  0  0  0  0  0  0  0
  149.8534  140.7445  158.3216 O   0  0  0  0  0  0  0  0  0  0  0  0
  151.0859  140.7034  156.4204 N   0  0  0  0  0  0  0  0  0  0  0  0
  150.4705  139.5447  155.7699 C   0  0  1  0  0  0  0  0  0  0  0  0
  149.6296  140.0218  154.5582 C   0  0  0  0  0  0  0  0  0  0  0  0
  148.8579  141.3257  154.8008 C   0  0  0  0  0  0  0  0  0  0  0  0
  147.8018  141.3663  153.6959 C   0  0  0  0  0  0  0  0  0  0  0  0
  147.4905  139.9021  153.3607 C   0  0  0  0  0  0  0  0  0  0  0  0
  148.5243  139.0537  154.1136 C   0  0  0  0  0  0  0  0  0  0  0  0
  151.5803  138.5325  155.4041 C   0  0  0  0  0  0  0  0  0  0  0  0
  151.0706  137.5548  154.6537 F   0  0  0  0  0  0  0  0  0  0  0  0
  152.5507  139.1175  154.7033 F   0  0  0  0  0  0  0  0  0  0  0  0
  152.1058  137.9947  156.5056 F   0  0  0  0  0  0  0  0  0  0  0  0
  151.8286  145.0854  160.9910 H   0  0  0  0  0  0  0  0  0  0  0  0
  150.4949  144.1437  160.3348 H   0  0  0  0  0  0  0  0  0  0  0  0
  151.7176  144.8544  159.2606 H   0  0  0  0  0  0  0  0  0  0  0  0
  153.1058  143.5589  162.2853 H   0  0  0  0  0  0  0  0  0  0  0  0
  154.0772  141.5952  163.4029 H   0  0  0  0  0  0  0  0  0  0  0  0
  154.5502  139.9081  160.5849 H   0  0  0  0  0  0  0  0  0  0  0  0
  150.8712  143.2479  158.2602 H   0  0  0  0  0  0  0  0  0  0  0  0
  152.1628  142.7931  157.2398 H   0  0  0  0  0  0  0  0  0  0  0  0
  151.8382  141.1506  155.9168 H   0  0  0  0  0  0  0  0  0  0  0  0
  149.7957  139.0475  156.4690 H   0  0  0  0  0  0  0  0  0  0  0  0
  150.2949  140.1855  153.7088 H   0  0  0  0  0  0  0  0  0  0  0  0
  148.3661  141.2914  155.7741 H   0  0  0  0  0  0  0  0  0  0  0  0
  149.5007  142.2067  154.7863 H   0  0  0  0  0  0  0  0  0  0  0  0
  146.9131  141.9204  154.0000 H   0  0  0  0  0  0  0  0  0  0  0  0
  148.2112  141.8629  152.8152 H   0  0  0  0  0  0  0  0  0  0  0  0
  146.4784  139.6321  153.6641 H   0  0  0  0  0  0  0  0  0  0  0  0
  147.5618  139.7389  152.2848 H   0  0  0  0  0  0  0  0  0  0  0  0
  148.9081  138.2425  153.4943 H   0  0  0  0  0  0  0  0  0  0  0  0
  148.0503  138.6035  154.9872 H   0  0  0  0  0  0  0  0  0  0  0  0
  1  2  1  0  0  0  0
  1 24  1  0  0  0  0
  1 25  1  0  0  0  0
  1 26  1  0  0  0  0
  2  9  1  0  0  0  0
  2  3  2  0  0  0  0
  3  4  1  0  0  0  0
  3 27  1  0  0  0  0
  4  5  1  0  0  0  0
  4  6  2  0  0  0  0
  5 28  1  0  0  0  0
  6  7  1  0  0  0  0
  6 29  1  0  0  0  0
  7  8  2  0  0  0  0
  7  9  1  0  0  0  0
  9 10  1  0  0  0  0
 10 11  1  0  0  0  0
 10 30  1  0  0  0  0
 10 31  1  0  0  0  0
 11 12  2  0  0  0  0
 11 13  1  0  0  0  0
 13 14  1  0  0  0  0
 13 32  1  0  0  0  0
 14 15  1  0  0  0  0
 14 20  1  0  0  0  0
 14 33  1  0  0  0  0
 15 19  1  0  0  0  0
 15 16  1  0  0  0  0
 15 34  1  0  0  0  0
 16 17  1  0  0  0  0
 16 35  1  0  0  0  0
 16 36  1  0  0  0  0
 17 18  1  0  0  0  0
 17 37  1  0  0  0  0
 17 38  1  0  0  0  0
 18 19  1  0  0  0  0
 18 39  1  0  0  0  0
 18 40  1  0  0  0  0
 19 41  1  0  0  0  0
 19 42  1  0  0  0  0
 20 21  1  0  0  0  0
 20 22  1  0  0  0  0
 20 23  1  0  0  0  0
M  END
> <s_m_source_file>
AV-unprocessed.smi

> <i_m_source_file_index>
2695

> <i_lp_mmshare_version>
43012

> <i_f3d_flags>
0

> <s_epik_input>
W0NIM11jMVtjSF1jKFtPSF0pW2NIXWMoPU8pbjFbQ0gyXUMoPU8pW05IXVtDQEBIXShDKEYpKEYpRilbQ0hdMltDSDJdW0NIMl1bQ0gyXVtDSDJdMg==

> <s_epik_cmdline>
J2VwaWtfcHl0aG9uJywgJy1waCcsICc3LjAnLCAnLXRuJywgJzgnLCAnLW1hJywgJzIwMCcsICctbWV0YWxfYmluZGluZycsICctaW1hZScsICc8aW5maWxlLm1hZT4nLCAnLW9tYWUnLCAnPG91dGZpbGUubWFlPic=

> <r_lp_tautomer_probability>
0.999984

> <r_epik_Ionization_Penalty>
0.843628

> <r_epik_Ionization_Penalty_Charging>
1.18449e-07

> <r_epik_Ionization_Penalty_Neutral>
0.843628

> <r_epik_State_Penalty>
0.886913

> <r_epik_Charging_Adjusted_Penalty>
0.886913

> <i_epik_Tot_Q>
0

> <i_epik_Tot_abs_Q>
0

> <r_epik_Metal_State_Penalty>
0.886913

> <b_epik_Metal_Only>
0

> <s_lp_Force_Field>
OPLS_2005

> <r_lp_Energy>
35.4527

> <b_lp_Chiralities_Consistent>
1

> <s_lp_Variant>
AV-unprocessed.smi:2695-4

> <Gold.Version>
5.8.1

> <Gold.Id.Protein>
6NUR|6NUR_protein|mol2

> <Gold.PLP.Fitness>
51.7832

> <Gold.PLP.PLP>
-50.1471

> <Gold.PLP.part.hbond>
-2.0000

> <Gold.PLP.part.metal>
0.0000

> <Gold.PLP.part.buried>
-3.7775

> <Gold.PLP.part.nonpolar>
-43.3665

> <Gold.PLP.part.repulsive>
0.1101

> <Gold.PLP.ligand.clash>
0.0000

> <Gold.PLP.ligand.torsion>
0.7625

> <Gold.PLP.Chemscore.Hbond>
0.9440

> <Gold.PLP.Chemscore.CHOScore>
0.0000

> <Gold.PLP.Chemscore.Metal>
0.0000

> <Gold.Chemscore.Hbonds>
donor molecule, donor type, donor heavy atom, donor atom, acceptor molecule, acceptor atom, score
      P1  H  7997  8008       L1     8  0.93

> <Gold.PLP.Chemscore.Internal.Correction>
0.3291

> <Gold.Rescore>
     Score         DG    S(hbond)    S(metal)    S(lipo)     H(rot)  DE(clash)    DE(int)     intcor
     12.37     -15.66       0.97        0.00     110.98       2.36       0.31       2.98       ----

> <Gold.Chemscore.Fitness>
12.3677

> <Gold.Chemscore.DG>
-15.6582

> <Gold.Chemscore.ZeroCoef>
-5.4800

> <Gold.Chemscore.Hbond>
0.9684

> <Gold.Chemscore.Metal>
0.0000

> <Gold.Chemscore.Lipo>
110.9826

> <Gold.Chemscore.Internal_Hbond>
0.0000

> <Gold.Chemscore.DEClash>
0.3082

> <Gold.Chemscore.DEInternal>
2.9823

> <Gold.Chemscore.Rot>
2.3599

> <Gold.Chemscore.Internal.Correction>
   9.000000E+99

> <Gold.Chemscore.Hbonds>
donor molecule, donor type, donor heavy atom, donor atom, acceptor molecule, acceptor atom, score
      P1  H  7997  8008       L1     8  0.91

> <Gold.Chemscore.Hbond.Weighted>
-3.2345

> <Gold.Chemscore.Metal.Weighted>
-0.0000

> <Gold.Chemscore.Lipo.Weighted>
-12.9850

> <Gold.Chemscore.Internal_Hbond.Weighted>
0.0000

> <Gold.Chemscore.DEClash.Weighted>
0.3082

> <Gold.Chemscore.DEInternal.Weighted>
2.9823

> <Gold.Chemscore.Rot.Weighted>
6.0413

> <Gold.Chemscore.Internal.Correction.Weighted>
   9.000000E+99

> <Gold.Protein.RotatedTorsions>
[ 6907 6896 6895 6894 ] final  -93.14 input  -60.11 | X-H torsion
[ 7974 7965 7964 7962 ] final -106.18 input  175.53 | X-H torsion
[ 8008 7997 7996 7995 ] final  -86.35 input   59.86 | X-H torsion
[ 10167 10162 10161 10158 ] final -149.33 input  -65.29 | X-H torsion
[ 10718 10713 10712 10709 ] final  141.49 input   66.30 | X-H torsion
[ 10763 10752 10751 10750 ] final   97.70 input  -60.55 | X-H torsion
[ 11005 11000 10999 10996 ] final -123.12 input  -57.11 | X-H torsion

> <Gold.Protein.ActiveResidues>
 VAL166  LYS551  ARG553  GLY616  TRP617  ASP618  TYR619  PRO620  LYS621  CYS622 
 ASP623  PHE694  ASN695  SER759  ASP760  ASP761  ALA762  ILE779  LEU786  VAL792 
 PHE793  MET794  SER795  GLU796  ALA797  LYS798  CYS799  TRP800  GLU811  SER814 

> <Gold.Protein.RotatedAtoms>
  150.6917  134.2013  159.4323 H   0  0  0  0  0  0  0  0  0  0  0  0  # atno 6907 bound_to 6896
  151.9980  134.9941  160.0573 H   0  0  0  0  0  0  0  0  0  0  0  0  # atno 6908 bound_to 6896
  152.1606  133.4544  159.4896 H   0  0  0  0  0  0  0  0  0  0  0  0  # atno 6909 bound_to 6896
  145.2211  140.9134  143.3259 H   0  0  0  0  0  0  0  0  0  0  0  0  # atno 7974 bound_to 7965
  154.6509  140.0579  156.9954 H   0  0  0  0  0  0  0  0  0  0  0  0  # atno 8008 bound_to 7997
  155.1373  140.3262  155.4441 H   0  0  0  0  0  0  0  0  0  0  0  0  # atno 8009 bound_to 7997
  156.2575  140.1970  156.6490 H   0  0  0  0  0  0  0  0  0  0  0  0  # atno 8010 bound_to 7997
  139.7452  143.8601  152.2573 H   0  0  0  0  0  0  0  0  0  0  0  0  # atno 10167 bound_to 10162
  157.3914  131.1005  151.0643 H   0  0  0  0  0  0  0  0  0  0  0  0  # atno 10718 bound_to 10713
  153.2801  135.4174  155.1071 H   0  0  0  0  0  0  0  0  0  0  0  0  # atno 10763 bound_to 10752
  154.8486  135.3493  154.6123 H   0  0  0  0  0  0  0  0  0  0  0  0  # atno 10764 bound_to 10752
  153.6544  135.7051  153.5256 H   0  0  0  0  0  0  0  0  0  0  0  0  # atno 10765 bound_to 10752
  140.9943  134.0493  157.3616 H   0  0  0  0  0  0  0  0  0  0  0  0  # atno 11005 bound_to 11000
  144.9764  139.3827  143.6283 LP  0  0  0  0  0  0  0  0  0  0  0  0  # atno 17320 bound_to 7965
  146.3376  139.8886  142.8813 LP  0  0  0  0  0  0  0  0  0  0  0  0  # atno 17321 bound_to 7965
  139.8563  144.7139  150.9153 LP  0  0  0  0  0  0  0  0  0  0  0  0  # atno 17342 bound_to 10162
  140.7791  143.3855  151.1400 LP  0  0  0  0  0  0  0  0  0  0  0  0  # atno 17343 bound_to 10162
  157.1675  130.6253  149.5630 LP  0  0  0  0  0  0  0  0  0  0  0  0  # atno 17370 bound_to 10713
  155.9799  130.4796  150.6743 LP  0  0  0  0  0  0  0  0  0  0  0  0  # atno 17371 bound_to 10713
  139.9007  135.0163  156.7255 LP  0  0  0  0  0  0  0  0  0  0  0  0  # atno 17394 bound_to 11000
  140.6990  133.9323  155.8012 LP  0  0  0  0  0  0  0  0  0  0  0  0  # atno 17395 bound_to 11000

$$$$
