AV-unprocessed.smi:1114|AV-procd|sdf|4800|dock1
  -GOLD-   22720 3343D 1   1.00000     0.00000
 Structure written by MMmdl.
 52 54  0  0  0  0  0  0  0  0  1 V2000
  143.4766  133.2385  151.6944 C   0  0  0  0  0  0  0  0  0  0  0  0
  143.1464  134.5613  152.3894 C   0  0  0  0  0  0  0  0  0  0  0  0
  142.4642  134.5217  153.4134 O   0  0  0  0  0  0  0  0  0  0  0  0
  143.6136  135.7198  151.8652 N   0  0  0  0  0  0  0  0  0  0  0  0
  143.4172  137.0210  152.5144 C   0  0  0  0  0  0  0  0  0  0  0  0
  144.7664  137.5013  153.0791 C   0  0  0  0  0  0  0  0  0  0  0  0
  145.8511  137.5553  151.9814 C   0  0  0  0  0  0  0  0  0  0  0  0
  147.1498  137.8251  152.5908 N   0  0  0  0  0  0  0  0  0  0  0  0
  147.3911  138.7607  153.5201 C   0  0  0  0  0  0  0  0  0  0  0  0
  146.5213  139.5025  153.9752 O   0  0  0  0  0  0  0  0  0  0  0  0
  148.6877  138.7611  153.8755 N   0  0  0  0  0  0  0  0  0  0  0  0
  149.3698  139.5934  154.8059 C   0  0  0  0  0  0  0  0  0  0  0  0
  150.7705  139.4704  154.8839 C   0  0  0  0  0  0  0  0  0  0  0  0
  151.4872  140.2816  155.7832 C   0  0  0  0  0  0  0  0  0  0  0  0
  150.7830  141.2054  156.5900 C   0  0  0  0  0  0  0  0  0  0  0  0
  151.4795  142.0279  157.5027 N   0  0  0  0  0  0  0  0  0  0  0  0
  151.5570  141.5212  158.8747 C   0  0  0  0  0  0  0  0  0  0  0  0
  152.6541  142.2449  159.6737 C   0  0  0  0  0  0  0  0  0  0  0  0
  152.4646  143.7680  159.6185 C   0  0  0  0  0  0  0  0  0  0  0  0
  152.3994  144.2355  158.1574 C   0  0  0  0  0  0  0  0  0  0  0  0
  151.3075  143.4785  157.3824 C   0  0  0  0  0  0  0  0  0  0  0  0
  149.4362  141.3332  156.5066 N   0  0  0  0  0  0  0  0  0  0  0  0
  148.7518  140.5537  155.6427 C   0  0  0  0  0  0  0  0  0  0  0  0
  145.8965  136.2425  151.1650 C   0  0  0  0  0  0  0  0  0  0  0  0
  144.4912  135.8291  150.6934 C   0  0  0  0  0  0  0  0  0  0  0  0
  144.5555  133.0949  151.6275 H   0  0  0  0  0  0  0  0  0  0  0  0
  143.0512  133.2127  150.6909 H   0  0  0  0  0  0  0  0  0  0  0  0
  143.0636  132.3976  152.2525 H   0  0  0  0  0  0  0  0  0  0  0  0
  143.0385  137.7375  151.7842 H   0  0  0  0  0  0  0  0  0  0  0  0
  142.6722  136.9880  153.3105 H   0  0  0  0  0  0  0  0  0  0  0  0
  144.6487  138.4838  153.5377 H   0  0  0  0  0  0  0  0  0  0  0  0
  145.0786  136.8238  153.8756 H   0  0  0  0  0  0  0  0  0  0  0  0
  145.5946  138.3730  151.3048 H   0  0  0  0  0  0  0  0  0  0  0  0
  147.9235  137.2577  152.2765 H   0  0  0  0  0  0  0  0  0  0  0  0
  149.2615  138.0584  153.4331 H   0  0  0  0  0  0  0  0  0  0  0  0
  151.2962  138.7629  154.2593 H   0  0  0  0  0  0  0  0  0  0  0  0
  152.5625  140.1974  155.8325 H   0  0  0  0  0  0  0  0  0  0  0  0
  150.5895  141.6723  159.3548 H   0  0  0  0  0  0  0  0  0  0  0  0
  151.7522  140.4502  158.9009 H   0  0  0  0  0  0  0  0  0  0  0  0
  152.6471  141.9042  160.7091 H   0  0  0  0  0  0  0  0  0  0  0  0
  153.6321  141.9833  159.2677 H   0  0  0  0  0  0  0  0  0  0  0  0
  151.5448  144.0446  160.1354 H   0  0  0  0  0  0  0  0  0  0  0  0
  153.2806  144.2696  160.1391 H   0  0  0  0  0  0  0  0  0  0  0  0
  152.2109  145.3084  158.1147 H   0  0  0  0  0  0  0  0  0  0  0  0
  153.3659  144.0714  157.6788 H   0  0  0  0  0  0  0  0  0  0  0  0
  151.3456  143.7775  156.3342 H   0  0  0  0  0  0  0  0  0  0  0  0
  150.3223  143.7539  157.7614 H   0  0  0  0  0  0  0  0  0  0  0  0
  147.6893  140.7332  155.6343 H   0  0  0  0  0  0  0  0  0  0  0  0
  146.5570  136.3558  150.3046 H   0  0  0  0  0  0  0  0  0  0  0  0
  146.3183  135.4412  151.7740 H   0  0  0  0  0  0  0  0  0  0  0  0
  144.5504  134.9147  150.1048 H   0  0  0  0  0  0  0  0  0  0  0  0
  144.0911  136.5842  150.0148 H   0  0  0  0  0  0  0  0  0  0  0  0
  1  2  1  0  0  0  0
  1 26  1  0  0  0  0
  1 27  1  0  0  0  0
  1 28  1  0  0  0  0
  2  3  2  0  0  0  0
  2  4  1  0  0  0  0
  4 25  1  0  0  0  0
  4  5  1  0  0  0  0
  5  6  1  0  0  0  0
  5 29  1  0  0  0  0
  5 30  1  0  0  0  0
  6  7  1  0  0  0  0
  6 31  1  0  0  0  0
  6 32  1  0  0  0  0
  7  8  1  0  0  0  0
  7 24  1  0  0  0  0
  7 33  1  0  0  0  0
  8  9  1  0  0  0  0
  8 34  1  0  0  0  0
  9 10  2  0  0  0  0
  9 11  1  0  0  0  0
 11 12  1  0  0  0  0
 11 35  1  0  0  0  0
 12 23  1  0  0  0  0
 12 13  2  0  0  0  0
 13 14  1  0  0  0  0
 13 36  1  0  0  0  0
 14 15  2  0  0  0  0
 14 37  1  0  0  0  0
 15 16  1  0  0  0  0
 15 22  1  0  0  0  0
 16 21  1  0  0  0  0
 16 17  1  0  0  0  0
 17 18  1  0  0  0  0
 17 38  1  0  0  0  0
 17 39  1  0  0  0  0
 18 19  1  0  0  0  0
 18 40  1  0  0  0  0
 18 41  1  0  0  0  0
 19 20  1  0  0  0  0
 19 42  1  0  0  0  0
 19 43  1  0  0  0  0
 20 21  1  0  0  0  0
 20 44  1  0  0  0  0
 20 45  1  0  0  0  0
 21 46  1  0  0  0  0
 21 47  1  0  0  0  0
 22 23  2  0  0  0  0
 23 48  1  0  0  0  0
 24 25  1  0  0  0  0
 24 49  1  0  0  0  0
 24 50  1  0  0  0  0
 25 51  1  0  0  0  0
 25 52  1  0  0  0  0
M  END
> <s_m_source_file>
AV-unprocessed.smi

> <i_m_source_file_index>
1114

> <i_lp_mmshare_version>
43012

> <i_f3d_flags>
0

> <s_epik_input>
W0NIM11DKD1PKU4xW0NIMl1bQ0gyXVtDSF0oW0NIMl1bQ0gyXTEpW05IXUMoPU8pW05IXWMyW2NIXVtjSF1jKG5bY0hdMilOM1tDSDJdW0NIMl1bQ0gyXVtDSDJdW0NIMl0z

> <s_epik_cmdline>
J2VwaWtfcHl0aG9uJywgJy1waCcsICc3LjAnLCAnLXRuJywgJzgnLCAnLW1hJywgJzIwMCcsICctbWV0YWxfYmluZGluZycsICctaW1hZScsICc8aW5maWxlLm1hZT4nLCAnLW9tYWUnLCAnPG91dGZpbGUubWFlPic=

> <r_lp_tautomer_probability>
1

> <r_epik_Ionization_Penalty>
0.108876

> <r_epik_Ionization_Penalty_Charging>
0

> <r_epik_Ionization_Penalty_Neutral>
0.108876

> <r_epik_State_Penalty>
0.0925502

> <r_epik_Charging_Adjusted_Penalty>
0.0925502

> <i_epik_Tot_Q>
0

> <i_epik_Tot_abs_Q>
0

> <r_epik_Metal_State_Penalty>
0.0787426

> <b_epik_Metal_Only>
0

> <s_lp_Force_Field>
OPLS_2005

> <r_lp_Energy>
37.4481

> <b_lp_Chiralities_Consistent>
1

> <s_lp_Variant>
AV-unprocessed.smi:1114-1

> <Gold.Version>
5.8.1

> <Gold.Id.Protein>
6NUR|6NUR_protein|mol2

> <Gold.PLP.Fitness>
47.8055

> <Gold.PLP.PLP>
-45.4413

> <Gold.PLP.part.hbond>
-1.9302

> <Gold.PLP.part.metal>
0.0000

> <Gold.PLP.part.buried>
0.4105

> <Gold.PLP.part.nonpolar>
-45.8325

> <Gold.PLP.part.repulsive>
0.8757

> <Gold.PLP.ligand.clash>
0.0000

> <Gold.PLP.ligand.torsion>
0.5242

> <Gold.PLP.Chemscore.Hbond>
0.9887

> <Gold.PLP.Chemscore.CHOScore>
0.0000

> <Gold.PLP.Chemscore.Metal>
0.0000

> <Gold.Chemscore.Hbonds>
donor molecule, donor type, donor heavy atom, donor atom, acceptor molecule, acceptor atom, score
      L1  H     8    34       P1  7948  0.91
      L1  H    11    35       P1  7948  0.06

> <Gold.PLP.Chemscore.Internal.Correction>
0.4466

> <Gold.Rescore>
     Score         DG    S(hbond)    S(metal)    S(lipo)     H(rot)  DE(clash)    DE(int)     intcor
     15.37     -19.80       1.10        0.00     117.30       1.20       1.66       2.77       ----

> <Gold.Chemscore.Fitness>
15.3670

> <Gold.Chemscore.DG>
-19.7958

> <Gold.Chemscore.ZeroCoef>
-5.4800

> <Gold.Chemscore.Hbond>
1.0972

> <Gold.Chemscore.Metal>
0.0000

> <Gold.Chemscore.Lipo>
117.2997

> <Gold.Chemscore.Internal_Hbond>
0.0000

> <Gold.Chemscore.DEClash>
1.6598

> <Gold.Chemscore.DEInternal>
2.7690

> <Gold.Chemscore.Rot>
1.2003

> <Gold.Chemscore.Internal.Correction>
   9.000000E+99

> <Gold.Chemscore.Hbonds>
donor molecule, donor type, donor heavy atom, donor atom, acceptor molecule, acceptor atom, score
      L1  H     8    34       P1  7948  0.89
      L1  H    11    35       P1  7948  0.08

> <Gold.Chemscore.Hbond.Weighted>
-3.6645

> <Gold.Chemscore.Metal.Weighted>
-0.0000

> <Gold.Chemscore.Lipo.Weighted>
-13.7241

> <Gold.Chemscore.Internal_Hbond.Weighted>
0.0000

> <Gold.Chemscore.DEClash.Weighted>
1.6598

> <Gold.Chemscore.DEInternal.Weighted>
2.7690

> <Gold.Chemscore.Rot.Weighted>
3.0728

> <Gold.Chemscore.Internal.Correction.Weighted>
   9.000000E+99

> <Gold.Protein.RotatedTorsions>
[ 6907 6896 6895 6894 ] final  -95.52 input  -60.11 | X-H torsion
[ 7974 7965 7964 7962 ] final -157.58 input  175.53 | X-H torsion
[ 8008 7997 7996 7995 ] final -152.21 input   59.86 | X-H torsion
[ 10167 10162 10161 10158 ] final   61.98 input  -65.29 | X-H torsion
[ 10718 10713 10712 10709 ] final  145.16 input   66.30 | X-H torsion
[ 10763 10752 10751 10750 ] final  169.46 input  -60.55 | X-H torsion
[ 11005 11000 10999 10996 ] final  -19.90 input  -57.11 | X-H torsion

> <Gold.Protein.ActiveResidues>
 VAL166  LYS551  ARG553  GLY616  TRP617  ASP618  TYR619  PRO620  LYS621  CYS622 
 ASP623  PHE694  ASN695  SER759  ASP760  ASP761  ALA762  ILE779  LEU786  VAL792 
 PHE793  MET794  SER795  GLU796  ALA797  LYS798  CYS799  TRP800  GLU811  SER814 

> <Gold.Protein.RotatedAtoms>
  150.6966  134.1644  159.4188 H   0  0  0  0  0  0  0  0  0  0  0  0  # atno 6907 bound_to 6896
  151.9624  135.0115  160.0557 H   0  0  0  0  0  0  0  0  0  0  0  0  # atno 6908 bound_to 6896
  152.1915  133.4741  159.5047 H   0  0  0  0  0  0  0  0  0  0  0  0  # atno 6909 bound_to 6896
  144.7542  140.3949  143.6025 H   0  0  0  0  0  0  0  0  0  0  0  0  # atno 7974 bound_to 7965
  155.6516  140.0712  157.2585 H   0  0  0  0  0  0  0  0  0  0  0  0  # atno 8008 bound_to 7997
  154.4161  140.1732  156.1731 H   0  0  0  0  0  0  0  0  0  0  0  0  # atno 8009 bound_to 7997
  155.9772  140.3357  155.6632 H   0  0  0  0  0  0  0  0  0  0  0  0  # atno 8010 bound_to 7997
  140.1489  144.4482  150.6770 H   0  0  0  0  0  0  0  0  0  0  0  0  # atno 10167 bound_to 10162
  157.3486  131.0947  151.1020 H   0  0  0  0  0  0  0  0  0  0  0  0  # atno 10718 bound_to 10713
  154.3834  135.2753  155.2197 H   0  0  0  0  0  0  0  0  0  0  0  0  # atno 10763 bound_to 10752
  154.4294  135.5981  153.6063 H   0  0  0  0  0  0  0  0  0  0  0  0  # atno 10764 bound_to 10752
  152.9834  135.5992  154.4080 H   0  0  0  0  0  0  0  0  0  0  0  0  # atno 10765 bound_to 10752
  140.8412  133.7925  155.9863 H   0  0  0  0  0  0  0  0  0  0  0  0  # atno 11005 bound_to 11000
  145.6837  139.1624  143.2686 LP  0  0  0  0  0  0  0  0  0  0  0  0  # atno 17320 bound_to 7965
  146.1531  140.6896  142.9312 LP  0  0  0  0  0  0  0  0  0  0  0  0  # atno 17321 bound_to 7965
  140.6715  143.2287  151.5614 LP  0  0  0  0  0  0  0  0  0  0  0  0  # atno 17342 bound_to 10162
  139.5435  144.2582  152.1398 LP  0  0  0  0  0  0  0  0  0  0  0  0  # atno 17343 bound_to 10162
  157.2205  130.6479  149.5809 LP  0  0  0  0  0  0  0  0  0  0  0  0  # atno 17370 bound_to 10713
  155.9718  130.4631  150.6169 LP  0  0  0  0  0  0  0  0  0  0  0  0  # atno 17371 bound_to 10713
  140.8893  134.2515  157.5103 LP  0  0  0  0  0  0  0  0  0  0  0  0  # atno 17394 bound_to 11000
  139.8703  134.9653  156.4525 LP  0  0  0  0  0  0  0  0  0  0  0  0  # atno 17395 bound_to 11000

$$$$
