AV-unprocessed.smi:2569|AV-procd|sdf|10103|dock9
  -GOLD-   2272014123D 1   1.00000     0.00000
 Structure written by MMmdl.
 39 41  0  0  0  0  0  0  0  0  1 V2000
  153.1776  142.9231  162.2278 C   0  0  0  0  0  0  0  0  0  0  0  0
  152.8349  142.4074  160.8412 C   0  0  0  0  0  0  0  0  0  0  0  0
  151.8549  143.0831  160.0792 C   0  0  0  0  0  0  0  0  0  0  0  0
  151.5070  142.6349  158.7862 C   0  0  0  0  0  0  0  0  0  0  0  0
  150.5927  143.1375  157.8762 N   0  0  0  0  0  0  0  0  0  0  0  0
  150.7284  142.2876  156.8625 C   0  0  0  0  0  0  0  0  0  0  0  0
  151.6250  141.2931  157.0076 N   0  0  0  0  0  0  0  0  0  0  0  0
  151.9400  140.2554  156.0422 C   0  0  0  0  0  0  0  0  0  0  0  0
  150.6767  139.5974  155.4473 C   0  0  1  0  0  0  0  0  0  0  0  0
  150.3675  140.1837  154.1983 O   0  0  0  0  0  0  0  0  0  0  0  0
  150.8111  138.0764  155.2374 C   0  0  0  0  0  0  0  0  0  0  0  0
  151.2899  137.3849  156.4228 N   0  0  0  0  0  0  0  0  0  0  0  0
  152.3676  136.5635  156.3661 N   0  0  0  0  0  0  0  0  0  0  0  0
  152.5529  136.1058  157.5709 N   0  0  0  0  0  0  0  0  0  0  0  0
  151.6089  136.6046  158.4489 N   0  0  0  0  0  0  0  0  0  0  0  0
  150.8527  137.3857  157.6888 C   0  0  0  0  0  0  0  0  0  0  0  0
  149.6749  138.1731  158.1606 C   0  0  0  0  0  0  0  0  0  0  0  0
  152.1696  141.4816  158.2732 C   0  0  0  0  0  0  0  0  0  0  0  0
  153.1462  140.8009  159.0214 C   0  0  0  0  0  0  0  0  0  0  0  0
  153.4841  141.2638  160.3103 C   0  0  0  0  0  0  0  0  0  0  0  0
  154.5434  140.5244  161.1083 C   0  0  0  0  0  0  0  0  0  0  0  0
  152.5950  143.8101  162.4786 H   0  0  0  0  0  0  0  0  0  0  0  0
  154.2331  143.1893  162.2869 H   0  0  0  0  0  0  0  0  0  0  0  0
  152.9689  142.1623  162.9801 H   0  0  0  0  0  0  0  0  0  0  0  0
  151.3610  143.9548  160.4826 H   0  0  0  0  0  0  0  0  0  0  0  0
  150.1425  142.3936  155.9611 H   0  0  0  0  0  0  0  0  0  0  0  0
  152.5543  140.6881  155.2515 H   0  0  0  0  0  0  0  0  0  0  0  0
  152.5597  139.5117  156.5442 H   0  0  0  0  0  0  0  0  0  0  0  0
  149.8343  139.7900  156.1122 H   0  0  0  0  0  0  0  0  0  0  0  0
  149.4472  140.3987  154.1867 H   0  0  0  0  0  0  0  0  0  0  0  0
  149.8501  137.6457  154.9541 H   0  0  0  0  0  0  0  0  0  0  0  0
  151.4955  137.8699  154.4128 H   0  0  0  0  0  0  0  0  0  0  0  0
  149.3804  137.8527  159.1603 H   0  0  0  0  0  0  0  0  0  0  0  0
  148.8279  138.0304  157.4893 H   0  0  0  0  0  0  0  0  0  0  0  0
  149.9238  139.2337  158.1956 H   0  0  0  0  0  0  0  0  0  0  0  0
  153.6330  139.9318  158.6042 H   0  0  0  0  0  0  0  0  0  0  0  0
  154.9310  139.6673  160.5566 H   0  0  0  0  0  0  0  0  0  0  0  0
  154.1288  140.1581  162.0477 H   0  0  0  0  0  0  0  0  0  0  0  0
  155.3821  141.1841  161.3327 H   0  0  0  0  0  0  0  0  0  0  0  0
  1  2  1  0  0  0  0
  1 22  1  0  0  0  0
  1 23  1  0  0  0  0
  1 24  1  0  0  0  0
  2 20  1  0  0  0  0
  2  3  2  0  0  0  0
  3  4  1  0  0  0  0
  3 25  1  0  0  0  0
  4 18  2  0  0  0  0
  4  5  1  0  0  0  0
  5  6  2  0  0  0  0
  6  7  1  0  0  0  0
  6 26  1  0  0  0  0
  7  8  1  0  0  0  0
  7 18  1  0  0  0  0
  8  9  1  0  0  0  0
  8 27  1  0  0  0  0
  8 28  1  0  0  0  0
  9 10  1  0  0  0  0
  9 11  1  0  0  0  0
  9 29  1  0  0  0  0
 10 30  1  0  0  0  0
 11 12  1  0  0  0  0
 11 31  1  0  0  0  0
 11 32  1  0  0  0  0
 12 16  1  0  0  0  0
 12 13  1  0  0  0  0
 13 14  2  0  0  0  0
 14 15  1  0  0  0  0
 15 16  2  0  0  0  0
 16 17  1  0  0  0  0
 17 33  1  0  0  0  0
 17 34  1  0  0  0  0
 17 35  1  0  0  0  0
 18 19  1  0  0  0  0
 19 20  2  0  0  0  0
 19 36  1  0  0  0  0
 20 21  1  0  0  0  0
 21 37  1  0  0  0  0
 21 38  1  0  0  0  0
 21 39  1  0  0  0  0
M  END
> <s_m_source_file>
AV-unprocessed.smi

> <i_m_source_file_index>
2569

> <i_lp_mmshare_version>
43012

> <i_f3d_flags>
0

> <s_epik_input>
W0NIM11jKFtjSF0xKWMoW0NIM10pW2NIXWMoYzEyKW4oW2NIXW4yKVtDSDJdW0NASF0oW09IXSlbQ0gyXW4zbm5uYzNbQ0gzXQ==

> <s_epik_cmdline>
J2VwaWtfcHl0aG9uJywgJy1waCcsICc3LjAnLCAnLXRuJywgJzgnLCAnLW1hJywgJzIwMCcsICctbWV0YWxfYmluZGluZycsICctaW1hZScsICc8aW5maWxlLm1hZT4nLCAnLW9tYWUnLCAnPG91dGZpbGUubWFlPic=

> <r_lp_tautomer_probability>
1

> <r_epik_Ionization_Penalty>
0.0946713

> <r_epik_Ionization_Penalty_Charging>
0

> <r_epik_Ionization_Penalty_Neutral>
0.0946713

> <r_epik_State_Penalty>
0.0848712

> <r_epik_Charging_Adjusted_Penalty>
0.0848712

> <i_epik_Tot_Q>
0

> <i_epik_Tot_abs_Q>
0

> <r_epik_Metal_State_Penalty>
0.0730911

> <b_epik_Metal_Only>
0

> <s_lp_Force_Field>
OPLS_2005

> <r_lp_Energy>
9.51249

> <b_lp_Chiralities_Consistent>
1

> <s_lp_Variant>
AV-unprocessed.smi:2569-2

> <Gold.Version>
5.8.1

> <Gold.Id.Protein>
6NUR|6NUR_protein|mol2

> <Gold.PLP.Fitness>
49.1697

> <Gold.PLP.PLP>
-41.0069

> <Gold.PLP.part.hbond>
-4.4768

> <Gold.PLP.part.metal>
0.0000

> <Gold.PLP.part.buried>
-6.4497

> <Gold.PLP.part.nonpolar>
-29.6901

> <Gold.PLP.part.repulsive>
0.1521

> <Gold.PLP.ligand.clash>
0.0000

> <Gold.PLP.ligand.torsion>
0.7537

> <Gold.PLP.Chemscore.Hbond>
2.7200

> <Gold.PLP.Chemscore.CHOScore>
0.5018

> <Gold.PLP.Chemscore.Metal>
0.0000

> <Gold.Chemscore.Hbonds>
donor molecule, donor type, donor heavy atom, donor atom, acceptor molecule, acceptor atom, score
      P1  H  6896  6908       L1    15  0.58
      P1  H  7989  7998       L1    10  1.00
      P1  H 10752 10764       L1    13  1.00
      L1  C     6    26       P1  8028  0.49

> <Gold.PLP.Chemscore.Internal.Correction>
0.0047

> <Gold.Rescore>
     Score         DG    S(hbond)    S(metal)    S(lipo)     H(rot)  DE(clash)    DE(int)     intcor
     18.31     -19.06       2.47        0.00     100.81       2.53       0.00       0.75       ----

> <Gold.Chemscore.Fitness>
18.3076

> <Gold.Chemscore.DG>
-19.0610

> <Gold.Chemscore.ZeroCoef>
-5.4800

> <Gold.Chemscore.Hbond>
2.4718

> <Gold.Chemscore.Metal>
0.0000

> <Gold.Chemscore.Lipo>
100.8071

> <Gold.Chemscore.Internal_Hbond>
0.0000

> <Gold.Chemscore.DEClash>
0.0000

> <Gold.Chemscore.DEInternal>
0.7533

> <Gold.Chemscore.Rot>
2.5270

> <Gold.Chemscore.Internal.Correction>
   9.000000E+99

> <Gold.Chemscore.Hbonds>
donor molecule, donor type, donor heavy atom, donor atom, acceptor molecule, acceptor atom, score
      P1  H  6896  6908       L1    15  0.31
      P1  H  7989  7998       L1    10  0.84
      P1  H 10752 10764       L1    13  0.48

> <Gold.Chemscore.Hbond.Weighted>
-8.2557

> <Gold.Chemscore.Metal.Weighted>
-0.0000

> <Gold.Chemscore.Lipo.Weighted>
-11.7944

> <Gold.Chemscore.Internal_Hbond.Weighted>
0.0000

> <Gold.Chemscore.DEClash.Weighted>
0.0000

> <Gold.Chemscore.DEInternal.Weighted>
0.7533

> <Gold.Chemscore.Rot.Weighted>
6.4691

> <Gold.Chemscore.Internal.Correction.Weighted>
   9.000000E+99

> <Gold.Protein.RotatedTorsions>
[ 6907 6896 6895 6894 ] final -139.54 input  -60.11 | X-H torsion
[ 7974 7965 7964 7962 ] final -130.97 input  175.53 | X-H torsion
[ 8008 7997 7996 7995 ] final   99.99 input   59.86 | X-H torsion
[ 10167 10162 10161 10158 ] final  152.11 input  -65.29 | X-H torsion
[ 10718 10713 10712 10709 ] final  -94.31 input   66.30 | X-H torsion
[ 10763 10752 10751 10750 ] final  -10.57 input  -60.55 | X-H torsion
[ 11005 11000 10999 10996 ] final  -84.91 input  -57.11 | X-H torsion

> <Gold.Protein.ActiveResidues>
 VAL166  LYS551  ARG553  GLY616  TRP617  ASP618  TYR619  PRO620  LYS621  CYS622 
 ASP623  PHE694  ASN695  SER759  ASP760  ASP761  ALA762  ILE779  LEU786  VAL792 
 PHE793  MET794  SER795  GLU796  ALA797  LYS798  CYS799  TRP800  GLU811  SER814 

> <Gold.Protein.RotatedAtoms>
  151.0491  133.5640  159.2643 H   0  0  0  0  0  0  0  0  0  0  0  0  # atno 6907 bound_to 6896
  151.2658  135.0668  159.9125 H   0  0  0  0  0  0  0  0  0  0  0  0  # atno 6908 bound_to 6896
  152.5378  134.0229  159.8043 H   0  0  0  0  0  0  0  0  0  0  0  0  # atno 6909 bound_to 6896
  144.9424  140.7253  143.4838 H   0  0  0  0  0  0  0  0  0  0  0  0  # atno 7974 bound_to 7965
  156.1159  140.3220  155.8138 H   0  0  0  0  0  0  0  0  0  0  0  0  # atno 8008 bound_to 7997
  155.4591  140.0538  157.3010 H   0  0  0  0  0  0  0  0  0  0  0  0  # atno 8009 bound_to 7997
  154.4792  140.2046  155.9817 H   0  0  0  0  0  0  0  0  0  0  0  0  # atno 8010 bound_to 7997
  139.4835  144.5385  151.7604 H   0  0  0  0  0  0  0  0  0  0  0  0  # atno 10167 bound_to 10162
  156.0025  130.5062  150.5907 H   0  0  0  0  0  0  0  0  0  0  0  0  # atno 10718 bound_to 10713
  153.4711  135.7017  153.5993 H   0  0  0  0  0  0  0  0  0  0  0  0  # atno 10763 bound_to 10752
  153.4246  135.3817  155.2133 H   0  0  0  0  0  0  0  0  0  0  0  0  # atno 10764 bound_to 10752
  154.8725  135.3936  154.4149 H   0  0  0  0  0  0  0  0  0  0  0  0  # atno 10765 bound_to 10752
  141.1646  133.7371  156.8938 H   0  0  0  0  0  0  0  0  0  0  0  0  # atno 11005 bound_to 11000
  145.2971  139.1863  143.4709 LP  0  0  0  0  0  0  0  0  0  0  0  0  # atno 17320 bound_to 7965
  146.3291  140.2956  142.8617 LP  0  0  0  0  0  0  0  0  0  0  0  0  # atno 17321 bound_to 7965
  140.4921  144.1294  150.5952 LP  0  0  0  0  0  0  0  0  0  0  0  0  # atno 17342 bound_to 10162
  140.4159  143.2635  151.9776 LP  0  0  0  0  0  0  0  0  0  0  0  0  # atno 17343 bound_to 10162
  157.3772  131.0775  151.1507 LP  0  0  0  0  0  0  0  0  0  0  0  0  # atno 17370 bound_to 10713
  157.2241  130.6495  149.5823 LP  0  0  0  0  0  0  0  0  0  0  0  0  # atno 17371 bound_to 10713
  140.1630  134.9152  157.2738 LP  0  0  0  0  0  0  0  0  0  0  0  0  # atno 17394 bound_to 11000
  140.2589  134.3594  155.7414 LP  0  0  0  0  0  0  0  0  0  0  0  0  # atno 17395 bound_to 11000

$$$$
