AV-unprocessed.smi:12|AV-procd|sdf|64|dock7
  -GOLD-   2262015183D 1   1.00000     0.00000
 Structure written by MMmdl.
 41 44  0  0  0  0  0  0  0  0  1 V2000
  158.2628  140.8310  166.1264 C   0  0  0  0  0  0  0  0  0  0  0  0
  157.9661  139.5543  165.3602 C   0  0  0  0  0  0  0  0  0  0  0  0
  156.7303  139.2849  164.8771 C   0  0  0  0  0  0  0  0  0  0  0  0
  156.5173  138.1236  164.1888 N   0  0  0  0  0  0  0  0  0  0  0  0
  157.5808  137.2099  164.0096 C   0  0  0  0  0  0  0  0  0  0  0  0
  158.7890  137.3949  164.4426 N   0  0  0  0  0  0  0  0  0  0  0  0
  159.0691  138.5852  165.1408 C   0  0  0  0  0  0  0  0  0  0  0  0
  160.2037  138.8101  165.5600 O   0  0  0  0  0  0  0  0  0  0  0  0
  157.1218  136.1211  163.3309 O   0  0  0  0  0  0  0  0  0  0  0  0
  155.7337  136.3041  163.0170 C   0  0  2  0  0  0  0  0  0  0  0  0
  155.4625  136.4574  161.5177 C   0  0  2  0  0  0  0  0  0  0  0  0
  156.6418  136.7456  160.7864 O   0  0  0  0  0  0  0  0  0  0  0  0
  154.4909  137.6462  161.4698 C   0  0  2  0  0  0  0  0  0  0  0  0
  154.4288  138.4418  160.1566 C   0  0  0  0  0  0  0  0  0  0  0  0
  154.0187  139.7730  160.4263 O   0  0  0  0  0  0  0  0  0  0  0  0
  153.2009  140.4120  159.5661 C   0  0  0  0  0  0  0  0  0  0  0  0
  152.8501  139.9418  158.4821 O   0  0  0  0  0  0  0  0  0  0  0  0
  152.7665  141.7504  160.0607 C   0  0  0  0  0  0  0  0  0  0  0  0
  152.1540  142.6553  159.1621 C   0  0  0  0  0  0  0  0  0  0  0  0
  151.7387  143.9287  159.5974 C   0  0  0  0  0  0  0  0  0  0  0  0
  151.9300  144.3129  160.9374 C   0  0  0  0  0  0  0  0  0  0  0  0
  152.5361  143.4214  161.8417 C   0  0  0  0  0  0  0  0  0  0  0  0
  152.9520  142.1472  161.4082 C   0  0  0  0  0  0  0  0  0  0  0  0
  154.9148  138.4710  162.5451 O   0  0  0  0  0  0  0  0  0  0  0  0
  155.2626  137.6449  163.6091 C   0  0  2  0  0  0  0  0  0  0  0  0
  157.3716  141.4525  166.2206 H   0  0  0  0  0  0  0  0  0  0  0  0
  159.0278  141.4148  165.6135 H   0  0  0  0  0  0  0  0  0  0  0  0
  158.6206  140.5995  167.1301 H   0  0  0  0  0  0  0  0  0  0  0  0
  155.9124  139.9755  165.0225 H   0  0  0  0  0  0  0  0  0  0  0  0
  155.1327  135.5031  163.4494 H   0  0  0  0  0  0  0  0  0  0  0  0
  155.0137  135.5575  161.0962 H   0  0  0  0  0  0  0  0  0  0  0  0
  157.3550  136.2488  161.1569 H   0  0  0  0  0  0  0  0  0  0  0  0
  153.4881  137.2914  161.7165 H   0  0  0  0  0  0  0  0  0  0  0  0
  155.4173  138.4607  159.6958 H   0  0  0  0  0  0  0  0  0  0  0  0
  153.7511  137.9693  159.4443 H   0  0  0  0  0  0  0  0  0  0  0  0
  151.9975  142.3835  158.1281 H   0  0  0  0  0  0  0  0  0  0  0  0
  151.2736  144.6111  158.9013 H   0  0  0  0  0  0  0  0  0  0  0  0
  151.6123  145.2900  161.2706 H   0  0  0  0  0  0  0  0  0  0  0  0
  152.6833  143.7151  162.8707 H   0  0  0  0  0  0  0  0  0  0  0  0
  153.4144  141.4878  162.1280 H   0  0  0  0  0  0  0  0  0  0  0  0
  154.5387  137.5835  164.4224 H   0  0  0  0  0  0  0  0  0  0  0  0
  1  2  1  0  0  0  0
  1 26  1  0  0  0  0
  1 27  1  0  0  0  0
  1 28  1  0  0  0  0
  2  7  1  0  0  0  0
  2  3  2  0  0  0  0
  3  4  1  0  0  0  0
  3 29  1  0  0  0  0
  4 25  1  0  0  0  0
  4  5  1  0  0  0  0
  5  6  2  0  0  0  0
  5  9  1  0  0  0  0
  6  7  1  0  0  0  0
  7  8  2  0  0  0  0
  9 10  1  0  0  0  0
 10 25  1  0  0  0  0
 10 11  1  0  0  0  0
 10 30  1  0  0  0  0
 11 12  1  0  0  0  0
 11 13  1  0  0  0  0
 11 31  1  0  0  0  0
 12 32  1  0  0  0  0
 13 14  1  0  0  0  0
 13 24  1  0  0  0  0
 13 33  1  0  0  0  0
 14 15  1  0  0  0  0
 14 34  1  0  0  0  0
 14 35  1  0  0  0  0
 15 16  1  0  0  0  0
 16 17  2  0  0  0  0
 16 18  1  0  0  0  0
 18 23  1  0  0  0  0
 18 19  2  0  0  0  0
 19 20  1  0  0  0  0
 19 36  1  0  0  0  0
 20 21  2  0  0  0  0
 20 37  1  0  0  0  0
 21 22  1  0  0  0  0
 21 38  1  0  0  0  0
 22 23  2  0  0  0  0
 22 39  1  0  0  0  0
 23 40  1  0  0  0  0
 24 25  1  0  0  0  0
 25 41  1  0  0  0  0
M  END
> <s_m_source_file>
AV-unprocessed.smi

> <i_m_source_file_index>
12

> <i_lp_mmshare_version>
43012

> <i_f3d_flags>
0

> <s_epik_input>
W0NIM11jKFtjSF0xKWMoPU8pbmMobjEyKU9bQ0BIXTNbQ0BASF0yT1tDQEBIXShbQ0BASF0zW09IXSlbQ0gyXU9DKD1PKWM0W2NIXVtjSF1bY0hdW2NIXVtjSF00

> <s_epik_cmdline>
J2VwaWtfcHl0aG9uJywgJy1waCcsICc3LjAnLCAnLXRuJywgJzgnLCAnLW1hJywgJzIwMCcsICctbWV0YWxfYmluZGluZycsICctaW1hZScsICc8aW5maWxlLm1hZT4nLCAnLW9tYWUnLCAnPG91dGZpbGUubWFlPic=

> <r_lp_tautomer_probability>
0.933681

> <r_epik_Ionization_Penalty>
0.00399549

> <r_epik_Ionization_Penalty_Charging>
3.09373e-09

> <r_epik_Ionization_Penalty_Neutral>
0.00399549

> <r_epik_State_Penalty>
0.00284953

> <r_epik_Charging_Adjusted_Penalty>
0.00284953

> <i_epik_Tot_Q>
0

> <i_epik_Tot_abs_Q>
0

> <r_epik_Metal_State_Penalty>
-0

> <b_epik_Metal_Only>
0

> <s_epik_Chemistry_Notes>
This compound has an ester and may undergo hydrolysis at high or low pH. This compound contains an acetal/aminal-like group ( X-CH(R)-Y where X, Y are N, S, or O) that may be acid/base labile, releasing an aldehyde.

> <s_lp_Force_Field>
OPLS_2005

> <r_lp_Energy>
52.4355

> <b_lp_Chiralities_Consistent>
1

> <s_lp_Variant>
AV-unprocessed.smi:12-4

> <Gold.Version>
5.8.1

> <Gold.Id.Protein>
6NUR|6NUR_protein|mol2

> <Gold.PLP.Fitness>
48.0124

> <Gold.PLP.PLP>
-46.4099

> <Gold.PLP.part.hbond>
-1.0000

> <Gold.PLP.part.metal>
0.0000

> <Gold.PLP.part.buried>
-5.5155

> <Gold.PLP.part.nonpolar>
-38.6671

> <Gold.PLP.part.repulsive>
0.0814

> <Gold.PLP.ligand.clash>
0.0000

> <Gold.PLP.ligand.torsion>
0.6651

> <Gold.PLP.Chemscore.Hbond>
0.9760

> <Gold.PLP.Chemscore.CHOScore>
0.0000

> <Gold.PLP.Chemscore.Metal>
0.0000

> <Gold.Chemscore.Hbonds>
donor molecule, donor type, donor heavy atom, donor atom, acceptor molecule, acceptor atom, score
      P1  H  7997  8008       L1    17  0.41

> <Gold.PLP.Chemscore.Internal.Correction>
0.0048

> <Gold.Rescore>
     Score         DG    S(hbond)    S(metal)    S(lipo)     H(rot)  DE(clash)    DE(int)     intcor
     15.18     -15.81       0.97        0.00     108.26       2.18       0.06       0.56       ----

> <Gold.Chemscore.Fitness>
15.1845

> <Gold.Chemscore.DG>
-15.8058

> <Gold.Chemscore.ZeroCoef>
-5.4800

> <Gold.Chemscore.Hbond>
0.9700

> <Gold.Chemscore.Metal>
0.0000

> <Gold.Chemscore.Lipo>
108.2625

> <Gold.Chemscore.Internal_Hbond>
0.0000

> <Gold.Chemscore.DEClash>
0.0618

> <Gold.Chemscore.DEInternal>
0.5595

> <Gold.Chemscore.Rot>
2.1800

> <Gold.Chemscore.Internal.Correction>
   9.000000E+99

> <Gold.Chemscore.Hbonds>
donor molecule, donor type, donor heavy atom, donor atom, acceptor molecule, acceptor atom, score
      P1  H  7997  8008       L1    17  0.30

> <Gold.Chemscore.Hbond.Weighted>
-3.2399

> <Gold.Chemscore.Metal.Weighted>
-0.0000

> <Gold.Chemscore.Lipo.Weighted>
-12.6667

> <Gold.Chemscore.Internal_Hbond.Weighted>
0.0000

> <Gold.Chemscore.DEClash.Weighted>
0.0618

> <Gold.Chemscore.DEInternal.Weighted>
0.5595

> <Gold.Chemscore.Rot.Weighted>
5.5807

> <Gold.Chemscore.Internal.Correction.Weighted>
   9.000000E+99

> <Gold.Protein.RotatedTorsions>
[ 6907 6896 6895 6894 ] final  -14.27 input  -60.11 | X-H torsion
[ 7974 7965 7964 7962 ] final  157.87 input  175.53 | X-H torsion
[ 8008 7997 7996 7995 ] final  -80.37 input   59.86 | X-H torsion
[ 10167 10162 10161 10158 ] final  110.48 input  -65.29 | X-H torsion
[ 10718 10713 10712 10709 ] final   39.17 input   66.30 | X-H torsion
[ 10763 10752 10751 10750 ] final -156.74 input  -60.55 | X-H torsion
[ 11005 11000 10999 10996 ] final   42.05 input  -57.11 | X-H torsion

> <Gold.Protein.ActiveResidues>
 VAL166  LYS551  ARG553  GLY616  TRP617  ASP618  TYR619  PRO620  LYS621  CYS622 
 ASP623  PHE694  ASN695  SER759  ASP760  ASP761  ALA762  ILE779  LEU786  VAL792 
 PHE793  MET794  SER795  GLU796  ALA797  LYS798  CYS799  TRP800  GLU811  SER814 

> <Gold.Protein.RotatedAtoms>
  151.3419  135.0865  159.9373 H   0  0  0  0  0  0  0  0  0  0  0  0  # atno 6907 bound_to 6896
  152.5209  133.9438  159.7649 H   0  0  0  0  0  0  0  0  0  0  0  0  # atno 6908 bound_to 6896
  150.9797  133.6205  159.2754 H   0  0  0  0  0  0  0  0  0  0  0  0  # atno 6909 bound_to 6896
  144.7878  139.7400  143.6233 H   0  0  0  0  0  0  0  0  0  0  0  0  # atno 7974 bound_to 7965
  154.5876  140.0664  156.9193 H   0  0  0  0  0  0  0  0  0  0  0  0  # atno 8008 bound_to 7997
  155.2351  140.3340  155.4280 H   0  0  0  0  0  0  0  0  0  0  0  0  # atno 8009 bound_to 7997
  156.2234  140.1808  156.7407 H   0  0  0  0  0  0  0  0  0  0  0  0  # atno 8010 bound_to 7997
  139.6685  144.7126  151.1732 H   0  0  0  0  0  0  0  0  0  0  0  0  # atno 10167 bound_to 10162
  157.3674  130.7683  149.7093 H   0  0  0  0  0  0  0  0  0  0  0  0  # atno 10718 bound_to 10713
  154.7689  135.3139  154.8229 H   0  0  0  0  0  0  0  0  0  0  0  0  # atno 10763 bound_to 10752
  153.8970  135.6819  153.4761 H   0  0  0  0  0  0  0  0  0  0  0  0  # atno 10764 bound_to 10752
  153.1300  135.4784  154.9267 H   0  0  0  0  0  0  0  0  0  0  0  0  # atno 10765 bound_to 10752
  140.1776  134.4143  155.8219 H   0  0  0  0  0  0  0  0  0  0  0  0  # atno 11005 bound_to 11000
  146.2118  139.5479  142.9676 LP  0  0  0  0  0  0  0  0  0  0  0  0  # atno 17320 bound_to 7965
  145.5874  141.0374  143.2089 LP  0  0  0  0  0  0  0  0  0  0  0  0  # atno 17321 bound_to 7965
  140.7609  143.5881  150.8824 LP  0  0  0  0  0  0  0  0  0  0  0  0  # atno 17342 bound_to 10162
  139.9545  143.6234  152.3020 LP  0  0  0  0  0  0  0  0  0  0  0  0  # atno 17343 bound_to 10162
  155.9749  130.4097  150.3890 LP  0  0  0  0  0  0  0  0  0  0  0  0  # atno 17370 bound_to 10713
  157.1976  131.0430  151.2667 LP  0  0  0  0  0  0  0  0  0  0  0  0  # atno 17371 bound_to 10713
  141.2221  133.6985  156.7874 LP  0  0  0  0  0  0  0  0  0  0  0  0  # atno 17394 bound_to 11000
  140.2304  134.8690  157.3471 LP  0  0  0  0  0  0  0  0  0  0  0  0  # atno 17395 bound_to 11000

$$$$
