AV-unprocessed.smi:283|AV-procd|sdf|2145|dock6
  -GOLD-   2262021473D 1   1.00000     0.00000
 Structure written by MMmdl.
 48 51  0  0  0  0  0  0  0  0  1 V2000
  151.6055  142.8219  157.7544 C   0  0  0  0  0  0  0  0  0  0  0  0
  152.2029  141.4817  158.2036 C   0  0  2  0  0  0  0  0  0  0  0  0
  151.2008  140.4240  158.0834 N   0  0  0  0  0  0  0  0  0  0  0  0
  151.4761  139.2821  157.4144 C   0  0  0  0  0  0  0  0  0  0  0  0
  152.4902  139.2226  156.5120 N   0  0  0  0  0  0  0  0  0  0  0  0
  152.7421  138.0816  155.8643 C   0  0  0  0  0  0  0  0  0  0  0  0
  152.1122  136.9090  155.9650 N   0  0  0  0  0  0  0  0  0  0  0  0
  151.0899  136.9644  156.8682 C   0  0  0  0  0  0  0  0  0  0  0  0
  150.7102  138.1072  157.6255 C   0  0  0  0  0  0  0  0  0  0  0  0
  149.6277  137.7964  158.4381 N   0  0  0  0  0  0  0  0  0  0  0  0
  149.3836  136.5413  158.1720 C   0  0  0  0  0  0  0  0  0  0  0  0
  150.2134  135.9631  157.2374 N   0  0  0  0  0  0  0  0  0  0  0  0
  150.1738  134.5537  156.7349 C   0  0  2  0  0  0  0  0  0  0  0  0
  151.4640  134.0457  156.6976 O   0  0  0  0  0  0  0  0  0  0  0  0
  151.4846  132.9285  155.8190 C   0  0  1  0  0  0  0  0  0  0  0  0
  151.2957  131.6579  156.6768 C   0  0  0  0  0  0  0  0  0  0  0  0
  152.3103  131.5512  157.6534 O   0  0  0  0  0  0  0  0  0  0  0  0
  150.3984  133.2334  154.7554 C   0  0  1  0  0  0  0  0  0  0  0  0
  149.5267  132.1420  154.5247 O   0  0  0  0  0  0  0  0  0  0  0  0
  149.6112  134.4214  155.3126 C   0  0  2  0  0  0  0  0  0  0  0  0
  149.8023  135.5763  154.5158 O   0  0  0  0  0  0  0  0  0  0  0  0
  152.8184  141.6108  159.5988 C   0  0  0  0  0  0  0  0  0  0  0  0
  152.4766  142.7123  160.4175 C   0  0  0  0  0  0  0  0  0  0  0  0
  153.0312  142.8509  161.7035 C   0  0  0  0  0  0  0  0  0  0  0  0
  153.9411  141.8917  162.1830 C   0  0  0  0  0  0  0  0  0  0  0  0
  154.2971  140.7976  161.3732 C   0  0  0  0  0  0  0  0  0  0  0  0
  153.7437  140.6531  160.0849 C   0  0  0  0  0  0  0  0  0  0  0  0
  154.2260  139.2946  159.1303 Cl  0  0  0  0  0  0  0  0  0  0  0  0
  149.5862  134.0045  157.4724 H   0  0  0  0  0  0  0  0  0  0  0  0
  152.4709  132.8978  155.3539 H   0  0  0  0  0  0  0  0  0  0  0  0
  150.8700  133.4945  153.8066 H   0  0  0  0  0  0  0  0  0  0  0  0
  148.5392  134.2294  155.3790 H   0  0  0  0  0  0  0  0  0  0  0  0
  152.3621  143.6069  157.7557 H   0  0  0  0  0  0  0  0  0  0  0  0
  150.7967  143.1382  158.4142 H   0  0  0  0  0  0  0  0  0  0  0  0
  151.2046  142.7548  156.7426 H   0  0  0  0  0  0  0  0  0  0  0  0
  152.9900  141.2286  157.4942 H   0  0  0  0  0  0  0  0  0  0  0  0
  150.3872  140.5258  158.6729 H   0  0  0  0  0  0  0  0  0  0  0  0
  153.5646  138.1127  155.1650 H   0  0  0  0  0  0  0  0  0  0  0  0
  148.5831  135.9984  158.6530 H   0  0  0  0  0  0  0  0  0  0  0  0
  150.3438  131.7129  157.2058 H   0  0  0  0  0  0  0  0  0  0  0  0
  151.2640  130.7556  156.0654 H   0  0  0  0  0  0  0  0  0  0  0  0
  152.8810  130.8365  157.4175 H   0  0  0  0  0  0  0  0  0  0  0  0
  149.7952  131.7076  153.7298 H   0  0  0  0  0  0  0  0  0  0  0  0
  150.5308  135.4207  153.9345 H   0  0  0  0  0  0  0  0  0  0  0  0
  151.7825  143.4601  160.0632 H   0  0  0  0  0  0  0  0  0  0  0  0
  152.7586  143.6942  162.3208 H   0  0  0  0  0  0  0  0  0  0  0  0
  154.3683  141.9962  163.1695 H   0  0  0  0  0  0  0  0  0  0  0  0
  155.0003  140.0659  161.7429 H   0  0  0  0  0  0  0  0  0  0  0  0
  1  2  1  0  0  0  0
  1 33  1  0  0  0  0
  1 34  1  0  0  0  0
  1 35  1  0  0  0  0
  2  3  1  0  0  0  0
  2 22  1  0  0  0  0
  2 36  1  0  0  0  0
  3  4  1  0  0  0  0
  3 37  1  0  0  0  0
  4  9  1  0  0  0  0
  4  5  2  0  0  0  0
  5  6  1  0  0  0  0
  6  7  2  0  0  0  0
  6 38  1  0  0  0  0
  7  8  1  0  0  0  0
  8 12  1  0  0  0  0
  8  9  2  0  0  0  0
  9 10  1  0  0  0  0
 10 11  2  0  0  0  0
 11 12  1  0  0  0  0
 11 39  1  0  0  0  0
 12 13  1  0  0  0  0
 13 29  1  0  0  0  0
 13 20  1  0  0  0  0
 13 14  1  0  0  0  0
 14 15  1  0  0  0  0
 15 30  1  0  0  0  0
 15 16  1  0  0  0  0
 15 18  1  0  0  0  0
 16 17  1  0  0  0  0
 16 40  1  0  0  0  0
 16 41  1  0  0  0  0
 17 42  1  0  0  0  0
 18 31  1  0  0  0  0
 18 19  1  0  0  0  0
 18 20  1  0  0  0  0
 19 43  1  0  0  0  0
 20 32  1  0  0  0  0
 20 21  1  0  0  0  0
 21 44  1  0  0  0  0
 22 27  1  0  0  0  0
 22 23  2  0  0  0  0
 23 24  1  0  0  0  0
 23 45  1  0  0  0  0
 24 25  2  0  0  0  0
 24 46  1  0  0  0  0
 25 26  1  0  0  0  0
 25 47  1  0  0  0  0
 26 27  2  0  0  0  0
 26 48  1  0  0  0  0
 27 28  1  0  0  0  0
M  END
> <s_m_source_file>
AV-unprocessed.smi

> <i_m_source_file_index>
283

> <i_lp_mmshare_version>
43012

> <i_f3d_flags>
0

> <s_epik_input>
Q2xjMVtjSF1bY0hdW2NIXVtjSF1jMVtDQEhdKFtDSDNdKVtOSF1jKG5bY0hdbjIpYyhjMjMpbltjSF1uM1tDQEBIXTRPW0NASF0oW0NIMl1bT0hdKVtDQEBIXShbT0hdKVtDQEhdNFtPSF0=

> <s_epik_cmdline>
J2VwaWtfcHl0aG9uJywgJy1waCcsICc3LjAnLCAnLXRuJywgJzgnLCAnLW1hJywgJzIwMCcsICctbWV0YWxfYmluZGluZycsICctaW1hZScsICc8aW5maWxlLm1hZT4nLCAnLW9tYWUnLCAnPG91dGZpbGUubWFlPic=

> <r_lp_tautomer_probability>
1

> <r_epik_Ionization_Penalty>
0.000266407

> <r_epik_Ionization_Penalty_Charging>
0

> <r_epik_Ionization_Penalty_Neutral>
0.000266407

> <r_epik_State_Penalty>
-0

> <r_epik_Charging_Adjusted_Penalty>
0

> <i_epik_Tot_Q>
0

> <i_epik_Tot_abs_Q>
0

> <r_epik_Metal_State_Penalty>
-0

> <b_epik_Metal_Only>
0

> <s_epik_Chemistry_Notes>
This compound contains an acetal/aminal-like group ( X-CH(R)-Y where X, Y are N, S, or O) that may be acid/base labile, releasing an aldehyde.

> <s_lp_Force_Field>
OPLS_2005

> <r_lp_Energy>
49.3255

> <b_lp_Chiralities_Consistent>
1

> <s_lp_Variant>
AV-unprocessed.smi:283-21

> <Gold.Version>
5.8.1

> <Gold.Id.Protein>
6NUR|6NUR_protein|mol2

> <Gold.PLP.Fitness>
50.3084

> <Gold.PLP.PLP>
-43.8868

> <Gold.PLP.part.hbond>
-5.0333

> <Gold.PLP.part.metal>
0.0000

> <Gold.PLP.part.buried>
-7.8660

> <Gold.PLP.part.nonpolar>
-29.8823

> <Gold.PLP.part.repulsive>
0.0947

> <Gold.PLP.ligand.clash>
0.0000

> <Gold.PLP.ligand.torsion>
0.9328

> <Gold.PLP.Chemscore.Hbond>
2.7463

> <Gold.PLP.Chemscore.CHOScore>
0.0000

> <Gold.PLP.Chemscore.Metal>
0.0000

> <Gold.Chemscore.Hbonds>
donor molecule, donor type, donor heavy atom, donor atom, acceptor molecule, acceptor atom, score
      P1  H  7997  8009       L1     5  0.94
      P1  H 10752 10764       L1     7  1.00

> <Gold.PLP.Chemscore.Internal.Correction>
0.0485

> <Gold.Rescore>
     Score         DG    S(hbond)    S(metal)    S(lipo)     H(rot)  DE(clash)    DE(int)     intcor
     10.99     -14.19       1.89        0.00     110.08       4.10       1.11       2.09       ----

> <Gold.Chemscore.Fitness>
10.9926

> <Gold.Chemscore.DG>
-14.1909

> <Gold.Chemscore.ZeroCoef>
-5.4800

> <Gold.Chemscore.Hbond>
1.8920

> <Gold.Chemscore.Metal>
0.0000

> <Gold.Chemscore.Lipo>
110.0810

> <Gold.Chemscore.Internal_Hbond>
0.0000

> <Gold.Chemscore.DEClash>
1.1082

> <Gold.Chemscore.DEInternal>
2.0901

> <Gold.Chemscore.Rot>
4.0968

> <Gold.Chemscore.Internal.Correction>
   9.000000E+99

> <Gold.Chemscore.Hbonds>
donor molecule, donor type, donor heavy atom, donor atom, acceptor molecule, acceptor atom, score
      P1  H  6896  6909       L1    17  0.02
      P1  H  7997  8009       L1     5  0.27
      P1  H 10752 10764       L1     7  0.69

> <Gold.Chemscore.Hbond.Weighted>
-6.3194

> <Gold.Chemscore.Metal.Weighted>
-0.0000

> <Gold.Chemscore.Lipo.Weighted>
-12.8795

> <Gold.Chemscore.Internal_Hbond.Weighted>
0.0000

> <Gold.Chemscore.DEClash.Weighted>
1.1082

> <Gold.Chemscore.DEInternal.Weighted>
2.0901

> <Gold.Chemscore.Rot.Weighted>
10.4879

> <Gold.Chemscore.Internal.Correction.Weighted>
   9.000000E+99

> <Gold.Protein.RotatedTorsions>
[ 6907 6896 6895 6894 ] final  -59.75 input  -60.11 | X-H torsion
[ 7974 7965 7964 7962 ] final -121.39 input  175.53 | X-H torsion
[ 8008 7997 7996 7995 ] final -174.25 input   59.86 | X-H torsion
[ 10167 10162 10161 10158 ] final -178.52 input  -65.29 | X-H torsion
[ 10718 10713 10712 10709 ] final -123.56 input   66.30 | X-H torsion
[ 10763 10752 10751 10750 ] final  -31.44 input  -60.55 | X-H torsion
[ 11005 11000 10999 10996 ] final   84.29 input  -57.11 | X-H torsion

> <Gold.Protein.ActiveResidues>
 VAL166  LYS551  ARG553  GLY616  TRP617  ASP618  TYR619  PRO620  LYS621  CYS622 
 ASP623  PHE694  ASN695  SER759  ASP760  ASP761  ALA762  ILE779  LEU786  VAL792 
 PHE793  MET794  SER795  GLU796  ALA797  LYS798  CYS799  TRP800  GLU811  SER814 

> <Gold.Protein.RotatedAtoms>
  150.7907  134.6928  159.6506 H   0  0  0  0  0  0  0  0  0  0  0  0  # atno 6907 bound_to 6896
  152.4012  134.6280  160.0078 H   0  0  0  0  0  0  0  0  0  0  0  0  # atno 6908 bound_to 6896
  151.6550  133.3282  159.3197 H   0  0  0  0  0  0  0  0  0  0  0  0  # atno 6909 bound_to 6896
  145.0409  140.8143  143.4267 H   0  0  0  0  0  0  0  0  0  0  0  0  # atno 7974 bound_to 7965
  155.9678  140.1157  157.0839 H   0  0  0  0  0  0  0  0  0  0  0  0  # atno 8008 bound_to 7997
  154.4148  140.1169  156.5332 H   0  0  0  0  0  0  0  0  0  0  0  0  # atno 8009 bound_to 7997
  155.6637  140.3473  155.4794 H   0  0  0  0  0  0  0  0  0  0  0  0  # atno 8010 bound_to 7997
  139.5429  144.2315  152.0930 H   0  0  0  0  0  0  0  0  0  0  0  0  # atno 10167 bound_to 10162
  156.1513  130.6536  150.9917 H   0  0  0  0  0  0  0  0  0  0  0  0  # atno 10718 bound_to 10713
  153.7974  135.6893  153.4861 H   0  0  0  0  0  0  0  0  0  0  0  0  # atno 10763 bound_to 10752
  153.1710  135.4542  154.9901 H   0  0  0  0  0  0  0  0  0  0  0  0  # atno 10764 bound_to 10752
  154.8020  135.3341  154.7465 H   0  0  0  0  0  0  0  0  0  0  0  0  # atno 10765 bound_to 10752
  139.9005  134.8206  156.2425 H   0  0  0  0  0  0  0  0  0  0  0  0  # atno 11005 bound_to 11000
  145.1649  139.2437  143.5372 LP  0  0  0  0  0  0  0  0  0  0  0  0  # atno 17320 bound_to 7965
  146.3509  140.1386  142.8595 LP  0  0  0  0  0  0  0  0  0  0  0  0  # atno 17321 bound_to 7965
  140.1796  144.4857  150.6535 LP  0  0  0  0  0  0  0  0  0  0  0  0  # atno 17342 bound_to 10162
  140.6666  143.2270  151.5729 LP  0  0  0  0  0  0  0  0  0  0  0  0  # atno 17343 bound_to 10162
  157.6659  131.0872  150.7730 LP  0  0  0  0  0  0  0  0  0  0  0  0  # atno 17370 bound_to 10713
  156.7798  130.4855  149.5403 LP  0  0  0  0  0  0  0  0  0  0  0  0  # atno 17371 bound_to 10713
  141.0275  133.7007  156.1373 LP  0  0  0  0  0  0  0  0  0  0  0  0  # atno 17394 bound_to 11000
  140.7144  134.4426  157.5579 LP  0  0  0  0  0  0  0  0  0  0  0  0  # atno 17395 bound_to 11000

$$$$
