AV-unprocessed.smi:2438|AV-procd|sdf|9600|dock8
  -GOLD-   2272013233D 1   1.00000     0.00000
 Structure written by MMmdl.
 44 45  0  0  0  0  0  0  0  0  2 V2000
  150.2130  137.2034  155.1630 C   0  0  0  0  0  0  0  0  0  0  0  0
  150.9654  138.2761  154.5270 N   0  0  0  0  0  0  0  0  0  0  0  0
  152.4156  138.2121  154.6616 C   0  0  0  0  0  0  0  0  0  0  0  0
  150.3745  139.5461  154.6822 C   0  0  0  0  0  0  0  0  0  0  0  0
  151.0477  140.4760  155.3981 N   0  0  0  0  0  0  0  0  0  0  0  0
  150.5145  141.6876  155.5825 C   0  0  0  0  0  0  0  0  0  0  0  0
  149.3234  142.0407  155.0830 N   0  3  0  0  0  0  0  0  0  0  0  0
  148.6098  141.1482  154.3561 C   0  0  0  0  0  0  0  0  0  0  0  0
  149.1071  139.8429  154.1242 C   0  0  0  0  0  0  0  0  0  0  0  0
  148.4329  138.8627  153.3386 N   0  0  0  0  0  0  0  0  0  0  0  0
  147.1185  138.7275  153.0948 C   0  0  0  0  0  0  0  0  0  0  0  0
  146.2347  139.4590  153.5389 O   0  0  0  0  0  0  0  0  0  0  0  0
  146.8841  137.6722  152.3018 N   0  0  0  0  0  0  0  0  0  0  0  0
  145.5753  137.2314  151.8255 C   0  0  1  0  0  0  0  0  0  0  0  0
  145.7329  135.9545  150.9805 C   0  0  0  0  0  0  0  0  0  0  0  0
  144.3679  135.4135  150.5300 C   0  0  0  0  0  0  0  0  0  0  0  0
  143.4399  135.1718  151.7308 C   0  0  0  0  0  0  0  0  0  0  0  0
  143.2623  136.4482  152.5803 C   0  0  1  0  0  0  0  0  0  0  0  0
  142.3172  136.2188  153.7778 C   0  0  0  0  0  0  0  0  0  0  0  0
  141.9522  137.3792  154.3238 F   0  0  0  0  0  0  0  0  0  0  0  0
  141.2245  135.5675  153.3793 F   0  0  0  0  0  0  0  0  0  0  0  0
  142.9260  135.4794  154.7049 F   0  0  0  0  0  0  0  0  0  0  0  0
  144.6401  136.9856  153.0247 C   0  0  0  0  0  0  0  0  0  0  0  0
  149.1588  137.2272  154.8868 H   0  0  0  0  0  0  0  0  0  0  0  0
  150.2825  137.2817  156.2486 H   0  0  0  0  0  0  0  0  0  0  0  0
  150.6125  136.2332  154.8665 H   0  0  0  0  0  0  0  0  0  0  0  0
  152.8947  139.0167  154.1020 H   0  0  0  0  0  0  0  0  0  0  0  0
  152.7889  137.2655  154.2705 H   0  0  0  0  0  0  0  0  0  0  0  0
  152.7153  138.2892  155.7077 H   0  0  0  0  0  0  0  0  0  0  0  0
  151.0458  142.4364  156.1514 H   0  0  0  0  0  0  0  0  0  0  0  0
  147.6754  141.5348  153.9808 H   0  0  0  0  0  0  0  0  0  0  0  0
  149.0297  138.1512  152.9412 H   0  0  0  0  0  0  0  0  0  0  0  0
  147.6779  137.1297  151.9936 H   0  0  0  0  0  0  0  0  0  0  0  0
  145.1213  138.0000  151.1974 H   0  0  0  0  0  0  0  0  0  0  0  0
  146.3542  136.1570  150.1073 H   0  0  0  0  0  0  0  0  0  0  0  0
  146.2518  135.1883  151.5585 H   0  0  0  0  0  0  0  0  0  0  0  0
  143.9020  136.1219  149.8439 H   0  0  0  0  0  0  0  0  0  0  0  0
  144.5023  134.4862  149.9722 H   0  0  0  0  0  0  0  0  0  0  0  0
  142.4717  134.8212  151.3727 H   0  0  0  0  0  0  0  0  0  0  0  0
  143.8476  134.3703  152.3481 H   0  0  0  0  0  0  0  0  0  0  0  0
  142.8017  137.2065  151.9449 H   0  0  0  0  0  0  0  0  0  0  0  0
  145.1033  136.2768  153.7129 H   0  0  0  0  0  0  0  0  0  0  0  0
  144.5126  137.9151  153.5808 H   0  0  0  0  0  0  0  0  0  0  0  0
  148.9497  142.9774  155.2384 H   0  0  0  0  0  0  0  0  0  0  0  0
  1  2  1  0  0  0  0
  1 24  1  0  0  0  0
  1 25  1  0  0  0  0
  1 26  1  0  0  0  0
  2  3  1  0  0  0  0
  2  4  1  0  0  0  0
  3 27  1  0  0  0  0
  3 28  1  0  0  0  0
  3 29  1  0  0  0  0
  4  9  1  0  0  0  0
  4  5  2  0  0  0  0
  5  6  1  0  0  0  0
  6  7  2  0  0  0  0
  6 30  1  0  0  0  0
  7  8  1  0  0  0  0
  7 44  1  0  0  0  0
  8  9  2  0  0  0  0
  8 31  1  0  0  0  0
  9 10  1  0  0  0  0
 10 11  1  0  0  0  0
 10 32  1  0  0  0  0
 11 12  2  0  0  0  0
 11 13  1  0  0  0  0
 13 14  1  0  0  0  0
 13 33  1  0  0  0  0
 14 23  1  0  0  0  0
 14 15  1  0  0  0  0
 14 34  1  0  0  0  0
 15 16  1  0  0  0  0
 15 35  1  0  0  0  0
 15 36  1  0  0  0  0
 16 17  1  0  0  0  0
 16 37  1  0  0  0  0
 16 38  1  0  0  0  0
 17 18  1  0  0  0  0
 17 39  1  0  0  0  0
 17 40  1  0  0  0  0
 18 19  1  0  0  0  0
 18 23  1  0  0  0  0
 18 41  1  0  0  0  0
 19 20  1  0  0  0  0
 19 21  1  0  0  0  0
 19 22  1  0  0  0  0
 23 42  1  0  0  0  0
 23 43  1  0  0  0  0
M  CHG  1   7   1
M  END
> <s_m_source_file>
AV-unprocessed.smi

> <i_m_source_file_index>
2438

> <i_lp_mmshare_version>
43012

> <i_f3d_flags>
0

> <s_epik_input>
W0NIM11OKFtDSDNdKWMxbltjSF1uW2NIXWMxW05IXUMoPU8pW05IXVtDQEBIXTJbQ0gyXVtDSDJdW0NIMl1bQ0BASF0oQyhGKShGKUYpW0NIMl0y

> <s_epik_cmdline>
J2VwaWtfcHl0aG9uJywgJy1waCcsICc3LjAnLCAnLXRuJywgJzgnLCAnLW1hJywgJzIwMCcsICctbWV0YWxfYmluZGluZycsICctaW1hZScsICc8aW5maWxlLm1hZT4nLCAnLW9tYWUnLCAnPG91dGZpbGUubWFlPic=

> <r_lp_tautomer_probability>
0.999336

> <r_epik_Ionization_Penalty>
2.11643

> <r_epik_Ionization_Penalty_Charging>
2.11639

> <r_epik_Ionization_Penalty_Neutral>
4.47523e-05

> <r_epik_State_Penalty>
2.25369

> <r_epik_Charging_Adjusted_Penalty>
4.37008

> <i_epik_Tot_Q>
1

> <i_epik_Tot_abs_Q>
1

> <r_epik_Metal_State_Penalty>
2.27019

> <b_epik_Metal_Only>
0

> <s_lp_Force_Field>
OPLS_2005

> <r_lp_Energy>
18.5988

> <b_lp_Chiralities_Consistent>
1

> <s_lp_Variant>
AV-unprocessed.smi:2438-6

> <Gold.Version>
5.8.1

> <Gold.Id.Protein>
6NUR|6NUR_protein|mol2

> <Gold.PLP.Fitness>
50.9294

> <Gold.PLP.PLP>
-41.4889

> <Gold.PLP.part.hbond>
-4.9363

> <Gold.PLP.part.metal>
0.0000

> <Gold.PLP.part.buried>
-4.4393

> <Gold.PLP.part.nonpolar>
-32.8930

> <Gold.PLP.part.repulsive>
1.4404

> <Gold.PLP.ligand.clash>
0.0000

> <Gold.PLP.ligand.torsion>
0.6920

> <Gold.PLP.Chemscore.Hbond>
3.4867

> <Gold.PLP.Chemscore.CHOScore>
0.0000

> <Gold.PLP.Chemscore.Metal>
0.0000

> <Gold.Chemscore.Hbonds>
donor molecule, donor type, donor heavy atom, donor atom, acceptor molecule, acceptor atom, score
      L1  H     7    44       P1  8028  2.00
      L1  H    10    32       P1  7948  0.56
      L1  H    13    33       P1  7948  1.00

> <Gold.PLP.Chemscore.Internal.Correction>
0.3643

> <Gold.Rescore>
     Score         DG    S(hbond)    S(metal)    S(lipo)     H(rot)  DE(clash)    DE(int)     intcor
     15.83     -18.31       2.72        0.00      60.68       1.31       0.44       2.04       ----

> <Gold.Chemscore.Fitness>
15.8286

> <Gold.Chemscore.DG>
-18.3098

> <Gold.Chemscore.ZeroCoef>
-5.4800

> <Gold.Chemscore.Hbond>
2.7179

> <Gold.Chemscore.Metal>
0.0000

> <Gold.Chemscore.Lipo>
60.6842

> <Gold.Chemscore.Internal_Hbond>
0.0000

> <Gold.Chemscore.DEClash>
0.4433

> <Gold.Chemscore.DEInternal>
2.0379

> <Gold.Chemscore.Rot>
1.3078

> <Gold.Chemscore.Internal.Correction>
   9.000000E+99

> <Gold.Chemscore.Hbonds>
donor molecule, donor type, donor heavy atom, donor atom, acceptor molecule, acceptor atom, score
      L1  H     7    44       P1  8028  1.00
      L1  H    10    32       P1  7948  0.55
      L1  H    13    33       P1  7948  0.94

> <Gold.Chemscore.Hbond.Weighted>
-9.0778

> <Gold.Chemscore.Metal.Weighted>
-0.0000

> <Gold.Chemscore.Lipo.Weighted>
-7.1000

> <Gold.Chemscore.Internal_Hbond.Weighted>
0.0000

> <Gold.Chemscore.DEClash.Weighted>
0.4433

> <Gold.Chemscore.DEInternal.Weighted>
2.0379

> <Gold.Chemscore.Rot.Weighted>
3.3481

> <Gold.Chemscore.Internal.Correction.Weighted>
   9.000000E+99

> <Gold.Protein.RotatedTorsions>
[ 6907 6896 6895 6894 ] final  128.25 input  -60.11 | X-H torsion
[ 7974 7965 7964 7962 ] final  -53.74 input  175.53 | X-H torsion
[ 8008 7997 7996 7995 ] final  -89.57 input   59.86 | X-H torsion
[ 10167 10162 10161 10158 ] final  -23.43 input  -65.29 | X-H torsion
[ 10718 10713 10712 10709 ] final  173.29 input   66.30 | X-H torsion
[ 10763 10752 10751 10750 ] final   57.28 input  -60.55 | X-H torsion
[ 11005 11000 10999 10996 ] final   54.04 input  -57.11 | X-H torsion

> <Gold.Protein.ActiveResidues>
 VAL166  LYS551  ARG553  GLY616  TRP617  ASP618  TYR619  PRO620  LYS621  CYS622 
 ASP623  PHE694  ASN695  SER759  ASP760  ASP761  ALA762  ILE779  LEU786  VAL792 
 PHE793  MET794  SER795  GLU796  ALA797  LYS798  CYS799  TRP800  GLU811  SER814 

> <Gold.Protein.RotatedAtoms>
  152.3737  133.6452  159.6106 H   0  0  0  0  0  0  0  0  0  0  0  0  # atno 6907 bound_to 6896
  150.7688  133.9228  159.3412 H   0  0  0  0  0  0  0  0  0  0  0  0  # atno 6908 bound_to 6896
  151.7047  135.0925  160.0308 H   0  0  0  0  0  0  0  0  0  0  0  0  # atno 6909 bound_to 6896
  145.8934  140.8052  142.9779 H   0  0  0  0  0  0  0  0  0  0  0  0  # atno 7974 bound_to 7965
  154.6882  140.0540  157.0336 H   0  0  0  0  0  0  0  0  0  0  0  0  # atno 8008 bound_to 7997
  155.0854  140.3214  155.4570 H   0  0  0  0  0  0  0  0  0  0  0  0  # atno 8009 bound_to 7997
  156.2719  140.2057  156.5982 H   0  0  0  0  0  0  0  0  0  0  0  0  # atno 8010 bound_to 7997
  140.7288  143.4444  151.0609 H   0  0  0  0  0  0  0  0  0  0  0  0  # atno 10167 bound_to 10162
  156.9664  131.0076  151.2915 H   0  0  0  0  0  0  0  0  0  0  0  0  # atno 10718 bound_to 10713
  152.9847  135.5647  154.5365 H   0  0  0  0  0  0  0  0  0  0  0  0  # atno 10763 bound_to 10752
  154.4827  135.2789  155.1560 H   0  0  0  0  0  0  0  0  0  0  0  0  # atno 10764 bound_to 10752
  154.3062  135.6297  153.5499 H   0  0  0  0  0  0  0  0  0  0  0  0  # atno 10765 bound_to 10752
  140.0719  134.5458  155.9038 H   0  0  0  0  0  0  0  0  0  0  0  0  # atno 11005 bound_to 11000
  144.6731  140.1566  143.7426 LP  0  0  0  0  0  0  0  0  0  0  0  0  # atno 17320 bound_to 7965
  145.8880  139.2359  143.1566 LP  0  0  0  0  0  0  0  0  0  0  0  0  # atno 17321 bound_to 7965
  139.8114  143.7945  152.3171 LP  0  0  0  0  0  0  0  0  0  0  0  0  # atno 17342 bound_to 10162
  139.7996  144.7379  150.9843 LP  0  0  0  0  0  0  0  0  0  0  0  0  # atno 17343 bound_to 10162
  157.5622  130.8254  149.8281 LP  0  0  0  0  0  0  0  0  0  0  0  0  # atno 17370 bound_to 10713
  156.0301  130.3767  150.1713 LP  0  0  0  0  0  0  0  0  0  0  0  0  # atno 17371 bound_to 10713
  141.2015  133.6619  156.5953 LP  0  0  0  0  0  0  0  0  0  0  0  0  # atno 17394 bound_to 11000
  140.3615  134.7683  157.4537 LP  0  0  0  0  0  0  0  0  0  0  0  0  # atno 17395 bound_to 11000

$$$$
