AV-unprocessed.smi:2451|AV-procd|sdf|9669|dock1
  -GOLD-   2272013303D 1   1.00000     0.00000
 Structure written by MMmdl.
 38 39  0  0  0  0  0  0  0  0  1 V2000
  151.9790  145.2429  161.6712 C   0  0  0  0  0  0  0  0  0  0  0  0
  152.1287  143.8176  161.1100 C   0  0  2  0  0  0  0  0  0  0  0  0
  153.0130  142.9735  162.0501 C   0  0  0  0  0  0  0  0  0  0  0  0
  153.1621  141.5288  161.5552 C   0  0  0  0  0  0  0  0  0  0  0  0
  153.7254  141.4810  160.1274 C   0  0  0  0  0  0  0  0  0  0  0  0
  152.9024  142.3432  159.1535 C   0  0  1  0  0  0  0  0  0  0  0  0
  151.6224  141.6855  158.8608 N   0  0  0  0  0  0  0  0  0  0  0  0
  151.6289  140.2057  157.9756 S   0  0  0  0  0  0  0  0  0  0  0  0
  153.0246  139.7503  157.8868 O   0  0  0  0  0  0  0  0  0  0  0  0
  150.6064  139.3283  158.5664 O   0  0  0  0  0  0  0  0  0  0  0  0
  151.0563  140.7344  156.3063 C   0  0  0  0  0  0  0  0  0  0  0  0
  150.9356  139.5336  155.4118 C   0  0  0  0  0  0  0  0  0  0  0  0
  151.9521  138.6233  155.0096 C   0  0  0  0  0  0  0  0  0  0  0  0
  151.2900  137.7400  154.2067 C   0  0  0  0  0  0  0  0  0  0  0  0
  149.9763  138.0683  154.1215 O   0  0  0  0  0  0  0  0  0  0  0  0
  149.7593  139.2140  154.8954 N   0  0  0  0  0  0  0  0  0  0  0  0
  152.6913  143.7918  159.6629 C   0  0  1  0  0  0  0  0  0  0  0  0
  151.8739  144.6304  158.6602 C   0  0  0  0  0  0  0  0  0  0  0  0
  152.9272  145.7808  161.6491 H   0  0  0  0  0  0  0  0  0  0  0  0
  151.6351  145.2216  162.7058 H   0  0  0  0  0  0  0  0  0  0  0  0
  151.2490  145.8241  161.1083 H   0  0  0  0  0  0  0  0  0  0  0  0
  151.1343  143.3692  161.0972 H   0  0  0  0  0  0  0  0  0  0  0  0
  153.9998  143.4303  162.1380 H   0  0  0  0  0  0  0  0  0  0  0  0
  152.5881  142.9660  163.0545 H   0  0  0  0  0  0  0  0  0  0  0  0
  153.8134  140.9707  162.2283 H   0  0  0  0  0  0  0  0  0  0  0  0
  152.1922  141.0309  161.5846 H   0  0  0  0  0  0  0  0  0  0  0  0
  154.7530  141.8462  160.1424 H   0  0  0  0  0  0  0  0  0  0  0  0
  153.7759  140.4498  159.7755 H   0  0  0  0  0  0  0  0  0  0  0  0
  153.4643  142.4022  158.2200 H   0  0  0  0  0  0  0  0  0  0  0  0
  150.9527  142.3476  158.4695 H   0  0  0  0  0  0  0  0  0  0  0  0
  150.0981  141.2424  156.4145 H   0  0  0  0  0  0  0  0  0  0  0  0
  151.7726  141.4549  155.9107 H   0  0  0  0  0  0  0  0  0  0  0  0
  153.0013  138.6231  155.2652 H   0  0  0  0  0  0  0  0  0  0  0  0
  151.5981  136.8673  153.6502 H   0  0  0  0  0  0  0  0  0  0  0  0
  153.6820  144.2479  159.7029 H   0  0  0  0  0  0  0  0  0  0  0  0
  150.8268  144.3269  158.6414 H   0  0  0  0  0  0  0  0  0  0  0  0
  152.2684  144.5232  157.6493 H   0  0  0  0  0  0  0  0  0  0  0  0
  151.9080  145.6923  158.9013 H   0  0  0  0  0  0  0  0  0  0  0  0
  1  2  1  0  0  0  0
  1 19  1  0  0  0  0
  1 20  1  0  0  0  0
  1 21  1  0  0  0  0
  2 17  1  0  0  0  0
  2  3  1  0  0  0  0
  2 22  1  0  0  0  0
  3  4  1  0  0  0  0
  3 23  1  0  0  0  0
  3 24  1  0  0  0  0
  4  5  1  0  0  0  0
  4 25  1  0  0  0  0
  4 26  1  0  0  0  0
  5  6  1  0  0  0  0
  5 27  1  0  0  0  0
  5 28  1  0  0  0  0
  6  7  1  0  0  0  0
  6 17  1  0  0  0  0
  6 29  1  0  0  0  0
  7  8  1  0  0  0  0
  7 30  1  0  0  0  0
  8  9  2  0  0  0  0
  8 10  2  0  0  0  0
  8 11  1  0  0  0  0
 11 12  1  0  0  0  0
 11 31  1  0  0  0  0
 11 32  1  0  0  0  0
 12 16  2  0  0  0  0
 12 13  1  0  0  0  0
 13 14  2  0  0  0  0
 13 33  1  0  0  0  0
 14 15  1  0  0  0  0
 14 34  1  0  0  0  0
 15 16  1  0  0  0  0
 17 18  1  0  0  0  0
 17 35  1  0  0  0  0
 18 36  1  0  0  0  0
 18 37  1  0  0  0  0
 18 38  1  0  0  0  0
M  END
> <s_m_source_file>
AV-unprocessed.smi

> <i_m_source_file_index>
2451

> <i_lp_mmshare_version>
43012

> <i_f3d_flags>
0

> <s_epik_input>
W0NIM11bQ0BASF0xW0NIMl1bQ0gyXVtDSDJdW0NASF0oW0NASF0xW0NIM10pW05IXVMoPU8pKD1PKVtDSDJdYzJbY0hdW2NIXW9uMg==

> <s_epik_cmdline>
J2VwaWtfcHl0aG9uJywgJy1waCcsICc3LjAnLCAnLXRuJywgJzgnLCAnLW1hJywgJzIwMCcsICctbWV0YWxfYmluZGluZycsICctaW1hZScsICc8aW5maWxlLm1hZT4nLCAnLW9tYWUnLCAnPG91dGZpbGUubWFlPic=

> <r_lp_tautomer_probability>
1

> <r_epik_Ionization_Penalty>
8.73668e-05

> <r_epik_Ionization_Penalty_Charging>
0

> <r_epik_Ionization_Penalty_Neutral>
8.73668e-05

> <r_epik_State_Penalty>
-0

> <r_epik_Charging_Adjusted_Penalty>
0

> <i_epik_Tot_Q>
0

> <i_epik_Tot_abs_Q>
0

> <r_epik_Metal_State_Penalty>
0.0716439

> <b_epik_Metal_Only>
0

> <s_lp_Force_Field>
OPLS_2005

> <r_lp_Energy>
9.22722

> <b_lp_Chiralities_Consistent>
1

> <s_lp_Variant>
AV-unprocessed.smi:2451-1

> <Gold.Version>
5.8.1

> <Gold.Id.Protein>
6NUR|6NUR_protein|mol2

> <Gold.PLP.Fitness>
45.0868

> <Gold.PLP.PLP>
-39.7132

> <Gold.PLP.part.hbond>
-1.0000

> <Gold.PLP.part.metal>
0.0000

> <Gold.PLP.part.buried>
0.3070

> <Gold.PLP.part.nonpolar>
-39.3487

> <Gold.PLP.part.repulsive>
0.5589

> <Gold.PLP.ligand.clash>
0.0000

> <Gold.PLP.ligand.torsion>
0.3941

> <Gold.PLP.Chemscore.Hbond>
1.0000

> <Gold.PLP.Chemscore.CHOScore>
1.0000

> <Gold.PLP.Chemscore.Metal>
0.0000

> <Gold.Chemscore.Hbonds>
donor molecule, donor type, donor heavy atom, donor atom, acceptor molecule, acceptor atom, score
      P1  H  7997  8009       L1     9  1.00
      L1  C    14    34       P1  7949  1.00

> <Gold.PLP.Chemscore.Internal.Correction>
0.1618

> <Gold.Rescore>
     Score         DG    S(hbond)    S(metal)    S(lipo)     H(rot)  DE(clash)    DE(int)     intcor
     15.99     -19.50       0.99        0.00     127.83       1.66       1.70       1.81       ----

> <Gold.Chemscore.Fitness>
15.9886

> <Gold.Chemscore.DG>
-19.4966

> <Gold.Chemscore.ZeroCoef>
-5.4800

> <Gold.Chemscore.Hbond>
0.9903

> <Gold.Chemscore.Metal>
0.0000

> <Gold.Chemscore.Lipo>
127.8254

> <Gold.Chemscore.Internal_Hbond>
0.0000

> <Gold.Chemscore.DEClash>
1.7025

> <Gold.Chemscore.DEInternal>
1.8055

> <Gold.Chemscore.Rot>
1.6588

> <Gold.Chemscore.Internal.Correction>
   9.000000E+99

> <Gold.Chemscore.Hbonds>
donor molecule, donor type, donor heavy atom, donor atom, acceptor molecule, acceptor atom, score
      P1  H  7997  8009       L1     9  1.00

> <Gold.Chemscore.Hbond.Weighted>
-3.3076

> <Gold.Chemscore.Metal.Weighted>
-0.0000

> <Gold.Chemscore.Lipo.Weighted>
-14.9556

> <Gold.Chemscore.Internal_Hbond.Weighted>
0.0000

> <Gold.Chemscore.DEClash.Weighted>
1.7025

> <Gold.Chemscore.DEInternal.Weighted>
1.8055

> <Gold.Chemscore.Rot.Weighted>
4.2466

> <Gold.Chemscore.Internal.Correction.Weighted>
   9.000000E+99

> <Gold.Protein.RotatedTorsions>
[ 6907 6896 6895 6894 ] final -152.38 input  -60.11 | X-H torsion
[ 7974 7965 7964 7962 ] final  110.13 input  175.53 | X-H torsion
[ 8008 7997 7996 7995 ] final  159.65 input   59.86 | X-H torsion
[ 10167 10162 10161 10158 ] final -125.08 input  -65.29 | X-H torsion
[ 10718 10713 10712 10709 ] final   75.05 input   66.30 | X-H torsion
[ 10763 10752 10751 10750 ] final  -83.25 input  -60.55 | X-H torsion
[ 11005 11000 10999 10996 ] final -174.50 input  -57.11 | X-H torsion

> <Gold.Protein.ActiveResidues>
 VAL166  LYS551  ARG553  GLY616  TRP617  ASP618  TYR619  PRO620  LYS621  CYS622 
 ASP623  PHE694  ASN695  SER759  ASP760  ASP761  ALA762  ILE779  LEU786  VAL792 
 PHE793  MET794  SER795  GLU796  ALA797  LYS798  CYS799  TRP800  GLU811  SER814 

> <Gold.Protein.RotatedAtoms>
  151.2269  133.4471  159.2602 H   0  0  0  0  0  0  0  0  0  0  0  0  # atno 6907 bound_to 6896
  151.0831  134.9871  159.8376 H   0  0  0  0  0  0  0  0  0  0  0  0  # atno 6908 bound_to 6896
  152.5426  134.2208  159.8839 H   0  0  0  0  0  0  0  0  0  0  0  0  # atno 6909 bound_to 6896
  145.2590  139.2710  143.4027 H   0  0  0  0  0  0  0  0  0  0  0  0  # atno 7974 bound_to 7965
  156.2225  140.1825  156.7443 H   0  0  0  0  0  0  0  0  0  0  0  0  # atno 8008 bound_to 7997
  154.5888  140.0654  156.9237 H   0  0  0  0  0  0  0  0  0  0  0  0  # atno 8009 bound_to 7997
  155.2373  140.3319  155.4299 H   0  0  0  0  0  0  0  0  0  0  0  0  # atno 8010 bound_to 7997
  139.9859  143.5692  152.2360 H   0  0  0  0  0  0  0  0  0  0  0  0  # atno 10167 bound_to 10162
  157.6618  130.9707  150.1297 H   0  0  0  0  0  0  0  0  0  0  0  0  # atno 10718 bound_to 10713
  154.5854  135.5563  153.7226 H   0  0  0  0  0  0  0  0  0  0  0  0  # atno 10763 bound_to 10752
  153.0097  135.6330  154.1923 H   0  0  0  0  0  0  0  0  0  0  0  0  # atno 10764 bound_to 10752
  154.1864  135.2884  155.3016 H   0  0  0  0  0  0  0  0  0  0  0  0  # atno 10765 bound_to 10752
  140.4738  134.6140  157.4892 H   0  0  0  0  0  0  0  0  0  0  0  0  # atno 11005 bound_to 11000
  146.3281  140.3001  142.8620 LP  0  0  0  0  0  0  0  0  0  0  0  0  # atno 17320 bound_to 7965
  144.9435  140.8104  143.5615 LP  0  0  0  0  0  0  0  0  0  0  0  0  # atno 17321 bound_to 7965
  139.6375  144.7651  151.2407 LP  0  0  0  0  0  0  0  0  0  0  0  0  # atno 17342 bound_to 10162
  140.7472  143.6373  150.8367 LP  0  0  0  0  0  0  0  0  0  0  0  0  # atno 17343 bound_to 10162
  156.2147  130.3669  149.8627 LP  0  0  0  0  0  0  0  0  0  0  0  0  # atno 17370 bound_to 10713
  156.6496  130.8738  151.3529 LP  0  0  0  0  0  0  0  0  0  0  0  0  # atno 17371 bound_to 10713
  139.9869  134.7048  155.9758 LP  0  0  0  0  0  0  0  0  0  0  0  0  # atno 17394 bound_to 11000
  141.1564  133.6542  156.4176 LP  0  0  0  0  0  0  0  0  0  0  0  0  # atno 17395 bound_to 11000

$$$$
