AV-unprocessed.smi:1464|AV-procd|sdf|5936|dock10
  -GOLD-   22720 6 13D 1   1.00000     0.00000
 Structure written by MMmdl.
 40 41  0  0  0  0  0  0  0  0  2 V2000
  152.1436  145.4245  159.8428 C   0  0  0  0  0  0  0  0  0  0  0  0
  152.2329  144.1631  158.9676 C   0  0  1  0  0  0  0  0  0  0  0  0
  152.6072  142.9176  159.7966 C   0  0  0  0  0  0  0  0  0  0  0  0
  152.7940  141.6812  158.9032 C   0  0  0  0  0  0  0  0  0  0  0  0
  151.5570  141.4248  158.0297 C   0  0  0  0  0  0  0  0  0  0  0  0
  151.1920  142.6703  157.1993 C   0  0  1  0  0  0  0  0  0  0  0  0
  150.0355  142.3813  156.3546 N   0  0  0  0  0  0  0  0  0  0  0  0
  149.9526  141.3778  155.4675 C   0  0  0  0  0  0  0  0  0  0  0  0
  150.8528  140.5549  155.2944 O   0  0  0  0  0  0  0  0  0  0  0  0
  148.6435  141.2927  154.6677 C   0  0  0  0  0  0  0  0  0  0  0  0
  147.4586  141.7011  155.4363 N   0  0  0  0  0  0  0  0  0  0  0  0
  147.3626  141.0776  156.7535 N   0  5  0  0  0  0  0  0  0  0  0  0
  146.2906  141.3561  157.5418 C   0  0  0  0  0  0  0  0  0  0  0  0
  146.1306  140.8528  158.6514 O   0  0  0  0  0  0  0  0  0  0  0  0
  145.3003  142.2960  157.0433 C   0  0  0  0  0  0  0  0  0  0  0  0
  145.4321  142.8831  155.8374 C   0  0  0  0  0  0  0  0  0  0  0  0
  146.5610  142.6094  154.9565 C   0  0  0  0  0  0  0  0  0  0  0  0
  146.6943  143.1525  153.8592 O   0  0  0  0  0  0  0  0  0  0  0  0
  150.9684  143.9162  158.1017 C   0  0  1  0  0  0  0  0  0  0  0  0
  149.6589  143.8474  158.9222 C   0  0  0  0  0  0  0  0  0  0  0  0
  151.4134  145.3118  160.6440 H   0  0  0  0  0  0  0  0  0  0  0  0
  151.8625  146.2956  159.2504 H   0  0  0  0  0  0  0  0  0  0  0  0
  153.1047  145.6416  160.3094 H   0  0  0  0  0  0  0  0  0  0  0  0
  153.0559  144.3386  158.2728 H   0  0  0  0  0  0  0  0  0  0  0  0
  153.5285  143.1036  160.3496 H   0  0  0  0  0  0  0  0  0  0  0  0
  151.8393  142.7188  160.5446 H   0  0  0  0  0  0  0  0  0  0  0  0
  153.6656  141.8239  158.2632 H   0  0  0  0  0  0  0  0  0  0  0  0
  153.0037  140.8058  159.5184 H   0  0  0  0  0  0  0  0  0  0  0  0
  151.7510  140.5798  157.3679 H   0  0  0  0  0  0  0  0  0  0  0  0
  150.7174  141.1307  158.6604 H   0  0  0  0  0  0  0  0  0  0  0  0
  152.0389  142.8747  156.5407 H   0  0  0  0  0  0  0  0  0  0  0  0
  149.2462  143.0058  156.4340 H   0  0  0  0  0  0  0  0  0  0  0  0
  148.7564  141.9101  153.7749 H   0  0  0  0  0  0  0  0  0  0  0  0
  148.4993  140.2736  154.3038 H   0  0  0  0  0  0  0  0  0  0  0  0
  144.4418  142.5317  157.6546 H   0  0  0  0  0  0  0  0  0  0  0  0
  144.6737  143.5779  155.5085 H   0  0  0  0  0  0  0  0  0  0  0  0
  150.8660  144.7783  157.4407 H   0  0  0  0  0  0  0  0  0  0  0  0
  149.6654  143.0259  159.6374 H   0  0  0  0  0  0  0  0  0  0  0  0
  148.7896  143.7150  158.2784 H   0  0  0  0  0  0  0  0  0  0  0  0
  149.4868  144.7680  159.4786 H   0  0  0  0  0  0  0  0  0  0  0  0
  1  2  1  0  0  0  0
  1 21  1  0  0  0  0
  1 22  1  0  0  0  0
  1 23  1  0  0  0  0
  2 19  1  0  0  0  0
  2  3  1  0  0  0  0
  2 24  1  0  0  0  0
  3  4  1  0  0  0  0
  3 25  1  0  0  0  0
  3 26  1  0  0  0  0
  4  5  1  0  0  0  0
  4 27  1  0  0  0  0
  4 28  1  0  0  0  0
  5  6  1  0  0  0  0
  5 29  1  0  0  0  0
  5 30  1  0  0  0  0
  6  7  1  0  0  0  0
  6 19  1  0  0  0  0
  6 31  1  0  0  0  0
  7  8  1  0  0  0  0
  7 32  1  0  0  0  0
  8  9  2  0  0  0  0
  8 10  1  0  0  0  0
 10 33  1  0  0  0  0
 10 34  1  0  0  0  0
 10 11  1  0  0  0  0
 11 12  1  0  0  0  0
 11 17  1  0  0  0  0
 12 13  1  0  0  0  0
 13 14  2  0  0  0  0
 13 15  1  0  0  0  0
 15 35  1  0  0  0  0
 15 16  2  0  0  0  0
 16 36  1  0  0  0  0
 16 17  1  0  0  0  0
 17 18  2  0  0  0  0
 19 20  1  0  0  0  0
 19 37  1  0  0  0  0
 20 38  1  0  0  0  0
 20 39  1  0  0  0  0
 20 40  1  0  0  0  0
M  CHG  1  12  -1
M  END
> <s_m_source_file>
AV-unprocessed.smi

> <i_m_source_file_index>
1464

> <i_lp_mmshare_version>
43012

> <i_f3d_flags>
0

> <s_epik_input>
W0NIM11bQ0BASF0xW0NIMl1bQ0gyXVtDSDJdW0NASF0oW0NASF0xW0NIM10pW05IXUMoPU8pW0NIMl1uMltuSF1jKD1PKVtjSF1bY0hdYzI9Tw==

> <s_epik_cmdline>
J2VwaWtfcHl0aG9uJywgJy1waCcsICc3LjAnLCAnLXRuJywgJzgnLCAnLW1hJywgJzIwMCcsICctbWV0YWxfYmluZGluZycsICctaW1hZScsICc8aW5maWxlLm1hZT4nLCAnLW9tYWUnLCAnPG91dGZpbGUubWFlPic=

> <r_lp_tautomer_probability>
1

> <r_epik_Ionization_Penalty>
0.101366

> <r_epik_Ionization_Penalty_Charging>
0.101366

> <r_epik_Ionization_Penalty_Neutral>
1.90469e-08

> <r_epik_State_Penalty>
0.035861

> <r_epik_Charging_Adjusted_Penalty>
0.137227

> <i_epik_Tot_Q>
-1

> <i_epik_Tot_abs_Q>
1

> <r_epik_Metal_State_Penalty>
0.035861

> <b_epik_Metal_Only>
0

> <s_lp_Force_Field>
OPLS_2005

> <r_lp_Energy>
30.1614

> <b_lp_Chiralities_Consistent>
1

> <s_lp_Variant>
AV-unprocessed.smi:1464-2

> <Gold.Version>
5.8.1

> <Gold.Id.Protein>
6NUR|6NUR_protein|mol2

> <Gold.PLP.Fitness>
43.9499

> <Gold.PLP.PLP>
-39.2207

> <Gold.PLP.part.hbond>
-3.8790

> <Gold.PLP.part.metal>
0.0000

> <Gold.PLP.part.buried>
-4.7025

> <Gold.PLP.part.nonpolar>
-31.1490

> <Gold.PLP.part.repulsive>
0.3813

> <Gold.PLP.ligand.clash>
0.0000

> <Gold.PLP.ligand.torsion>
0.4587

> <Gold.PLP.Chemscore.Hbond>
1.8772

> <Gold.PLP.Chemscore.CHOScore>
0.0000

> <Gold.PLP.Chemscore.Metal>
0.0000

> <Gold.Chemscore.Hbonds>
donor molecule, donor type, donor heavy atom, donor atom, acceptor molecule, acceptor atom, score
      L1  H     7    32       P1  8028  0.64
      P1  H  6934  6946       L1    14  0.28
      P1  H  7989  7998       L1     9  0.96

> <Gold.PLP.Chemscore.Internal.Correction>
0.0151

> <Gold.Rescore>
     Score         DG    S(hbond)    S(metal)    S(lipo)     H(rot)  DE(clash)    DE(int)     intcor
     15.96     -18.96       2.08        0.00      91.95       1.64       0.04       2.96       ----

> <Gold.Chemscore.Fitness>
15.9629

> <Gold.Chemscore.DG>
-18.9607

> <Gold.Chemscore.ZeroCoef>
-5.4800

> <Gold.Chemscore.Hbond>
2.0751

> <Gold.Chemscore.Metal>
0.0000

> <Gold.Chemscore.Lipo>
91.9492

> <Gold.Chemscore.Internal_Hbond>
0.0000

> <Gold.Chemscore.DEClash>
0.0404

> <Gold.Chemscore.DEInternal>
2.9575

> <Gold.Chemscore.Rot>
1.6438

> <Gold.Chemscore.Internal.Correction>
   9.000000E+99

> <Gold.Chemscore.Hbonds>
donor molecule, donor type, donor heavy atom, donor atom, acceptor molecule, acceptor atom, score
      L1  H     7    32       P1  8028  0.64
      P1  H  6934  6946       L1    14  0.27
      P1  H  7989  7998       L1     9  0.59
      P1  H  8022  8030       L1    18  0.01

> <Gold.Chemscore.Hbond.Weighted>
-6.9307

> <Gold.Chemscore.Metal.Weighted>
-0.0000

> <Gold.Chemscore.Lipo.Weighted>
-10.7581

> <Gold.Chemscore.Internal_Hbond.Weighted>
0.0000

> <Gold.Chemscore.DEClash.Weighted>
0.0404

> <Gold.Chemscore.DEInternal.Weighted>
2.9575

> <Gold.Chemscore.Rot.Weighted>
4.2080

> <Gold.Chemscore.Internal.Correction.Weighted>
   9.000000E+99

> <Gold.Protein.RotatedTorsions>
[ 6907 6896 6895 6894 ] final -167.96 input  -60.11 | X-H torsion
[ 7974 7965 7964 7962 ] final  143.71 input  175.53 | X-H torsion
[ 8008 7997 7996 7995 ] final -142.42 input   59.86 | X-H torsion
[ 10167 10162 10161 10158 ] final  106.97 input  -65.29 | X-H torsion
[ 10718 10713 10712 10709 ] final -173.15 input   66.30 | X-H torsion
[ 10763 10752 10751 10750 ] final   -9.14 input  -60.55 | X-H torsion
[ 11005 11000 10999 10996 ] final   -0.82 input  -57.11 | X-H torsion

> <Gold.Protein.ActiveResidues>
 VAL166  LYS551  ARG553  GLY616  TRP617  ASP618  TYR619  PRO620  LYS621  CYS622 
 ASP623  PHE694  ASN695  SER759  ASP760  ASP761  ALA762  ILE779  LEU786  VAL792 
 PHE793  MET794  SER795  GLU796  ALA797  LYS798  CYS799  TRP800  GLU811  SER814 

> <Gold.Protein.RotatedAtoms>
  151.4680  133.3576  159.2818 H   0  0  0  0  0  0  0  0  0  0  0  0  # atno 6907 bound_to 6896
  150.8980  134.8392  159.7351 H   0  0  0  0  0  0  0  0  0  0  0  0  # atno 6908 bound_to 6896
  152.4863  134.4597  159.9653 H   0  0  0  0  0  0  0  0  0  0  0  0  # atno 6909 bound_to 6896
  144.8897  139.5576  143.5804 H   0  0  0  0  0  0  0  0  0  0  0  0  # atno 7974 bound_to 7965
  155.4939  140.0570  157.2949 H   0  0  0  0  0  0  0  0  0  0  0  0  # atno 8008 bound_to 7997
  154.4613  140.1997  156.0189 H   0  0  0  0  0  0  0  0  0  0  0  0  # atno 8009 bound_to 7997
  156.0894  140.3235  155.7800 H   0  0  0  0  0  0  0  0  0  0  0  0  # atno 8010 bound_to 7997
  139.6966  144.7100  151.1257 H   0  0  0  0  0  0  0  0  0  0  0  0  # atno 10167 bound_to 10162
  156.7660  130.9431  151.3119 H   0  0  0  0  0  0  0  0  0  0  0  0  # atno 10718 bound_to 10713
  153.4505  135.7015  153.6111 H   0  0  0  0  0  0  0  0  0  0  0  0  # atno 10763 bound_to 10752
  153.4448  135.3772  155.2249 H   0  0  0  0  0  0  0  0  0  0  0  0  # atno 10764 bound_to 10752
  154.8728  135.3982  154.3917 H   0  0  0  0  0  0  0  0  0  0  0  0  # atno 10765 bound_to 10752
  140.6405  133.9494  155.8323 H   0  0  0  0  0  0  0  0  0  0  0  0  # atno 11005 bound_to 11000
  146.3046  139.7538  142.9065 LP  0  0  0  0  0  0  0  0  0  0  0  0  # atno 17320 bound_to 7965
  145.3805  141.0357  143.3180 LP  0  0  0  0  0  0  0  0  0  0  0  0  # atno 17321 bound_to 7965
  140.7698  143.5483  150.9233 LP  0  0  0  0  0  0  0  0  0  0  0  0  # atno 17342 bound_to 10162
  139.9163  143.6659  152.3105 LP  0  0  0  0  0  0  0  0  0  0  0  0  # atno 17343 bound_to 10162
  157.6713  130.9053  150.0046 LP  0  0  0  0  0  0  0  0  0  0  0  0  # atno 17370 bound_to 10713
  156.1308  130.3643  149.9735 LP  0  0  0  0  0  0  0  0  0  0  0  0  # atno 17371 bound_to 10713
  141.0610  134.0346  157.3658 LP  0  0  0  0  0  0  0  0  0  0  0  0  # atno 17394 bound_to 11000
  139.9082  135.0184  156.7578 LP  0  0  0  0  0  0  0  0  0  0  0  0  # atno 17395 bound_to 11000

$$$$
