AV-unprocessed.smi:3287|AV-procd|sdf|12590|dock8
  -GOLD-   2272018513D 1   1.00000     0.00000
 Structure written by MMmdl.
 43 44  0  0  0  0  0  0  0  0  2 V2000
  152.5952  143.8041  161.0384 C   0  0  0  0  0  0  0  0  0  0  0  0
  152.2920  143.3694  159.5934 C   0  0  2  0  0  0  0  0  0  0  0  0
  151.2079  144.2848  158.9894 C   0  0  0  0  0  0  0  0  0  0  0  0
  150.8711  143.9009  157.5422 C   0  0  0  0  0  0  0  0  0  0  0  0
  150.4197  142.4355  157.4485 C   0  0  1  0  0  0  0  0  0  0  0  0
  150.1127  142.0963  156.0414 N   0  3  0  0  0  0  0  0  0  0  0  0
  149.3125  140.8678  155.8472 C   0  0  0  0  0  0  0  0  0  0  0  0
  148.4022  140.9786  154.6115 C   0  0  2  0  0  0  0  0  0  0  0  0
  149.1764  141.4127  153.5101 O   0  0  0  0  0  0  0  0  0  0  0  0
  147.2290  141.9088  154.8774 C   0  0  0  0  0  0  0  0  0  0  0  0
  146.4335  142.3796  153.8119 C   0  0  0  0  0  0  0  0  0  0  0  0
  145.3510  143.2335  154.1051 C   0  0  0  0  0  0  0  0  0  0  0  0
  145.0332  143.6242  155.3577 N   0  0  0  0  0  0  0  0  0  0  0  0
  145.7962  143.1695  156.3743 C   0  0  0  0  0  0  0  0  0  0  0  0
  146.8995  142.3125  156.1895 C   0  0  0  0  0  0  0  0  0  0  0  0
  151.5102  141.5141  158.0304 C   0  0  0  0  0  0  0  0  0  0  0  0
  151.8708  141.8798  159.4861 C   0  0  1  0  0  0  0  0  0  0  0  0
  152.9466  140.9141  160.0155 C   0  0  0  0  0  0  0  0  0  0  0  0
  151.7430  143.6225  161.6939 H   0  0  0  0  0  0  0  0  0  0  0  0
  152.8274  144.8685  161.0860 H   0  0  0  0  0  0  0  0  0  0  0  0
  153.4548  143.2757  161.4495 H   0  0  0  0  0  0  0  0  0  0  0  0
  153.2042  143.5074  159.0107 H   0  0  0  0  0  0  0  0  0  0  0  0
  150.3031  144.2351  159.5971 H   0  0  0  0  0  0  0  0  0  0  0  0
  151.5391  145.3237  159.0182 H   0  0  0  0  0  0  0  0  0  0  0  0
  150.0877  144.5589  157.1640 H   0  0  0  0  0  0  0  0  0  0  0  0
  151.7451  144.0646  156.9099 H   0  0  0  0  0  0  0  0  0  0  0  0
  149.5053  142.3255  158.0341 H   0  0  0  0  0  0  0  0  0  0  0  0
  149.5750  142.8586  155.6538 H   0  0  0  0  0  0  0  0  0  0  0  0
  149.9853  140.0191  155.7230 H   0  0  0  0  0  0  0  0  0  0  0  0
  148.7150  140.6744  156.7395 H   0  0  0  0  0  0  0  0  0  0  0  0
  148.0100  139.9910  154.3636 H   0  0  0  0  0  0  0  0  0  0  0  0
  149.2431  140.7006  152.8915 H   0  0  0  0  0  0  0  0  0  0  0  0
  146.6428  142.0967  152.7906 H   0  0  0  0  0  0  0  0  0  0  0  0
  144.7228  143.6114  153.3121 H   0  0  0  0  0  0  0  0  0  0  0  0
  145.5183  143.4965  157.3654 H   0  0  0  0  0  0  0  0  0  0  0  0
  147.4753  141.9752  157.0392 H   0  0  0  0  0  0  0  0  0  0  0  0
  151.1788  140.4762  157.9983 H   0  0  0  0  0  0  0  0  0  0  0  0
  152.4054  141.5692  157.4091 H   0  0  0  0  0  0  0  0  0  0  0  0
  150.9757  141.7366  160.0936 H   0  0  0  0  0  0  0  0  0  0  0  0
  153.8976  141.0589  159.5020 H   0  0  0  0  0  0  0  0  0  0  0  0
  152.6470  139.8760  159.8698 H   0  0  0  0  0  0  0  0  0  0  0  0
  153.1182  141.0449  161.0835 H   0  0  0  0  0  0  0  0  0  0  0  0
  150.9767  142.0209  155.5240 H   0  0  0  0  0  0  0  0  0  0  0  0
  1  2  1  0  0  0  0
  1 19  1  0  0  0  0
  1 20  1  0  0  0  0
  1 21  1  0  0  0  0
  2 17  1  0  0  0  0
  2  3  1  0  0  0  0
  2 22  1  0  0  0  0
  3  4  1  0  0  0  0
  3 23  1  0  0  0  0
  3 24  1  0  0  0  0
  4  5  1  0  0  0  0
  4 25  1  0  0  0  0
  4 26  1  0  0  0  0
  5  6  1  0  0  0  0
  5 16  1  0  0  0  0
  5 27  1  0  0  0  0
  6  7  1  0  0  0  0
  6 28  1  0  0  0  0
  6 43  1  0  0  0  0
  7  8  1  0  0  0  0
  7 29  1  0  0  0  0
  7 30  1  0  0  0  0
  8  9  1  0  0  0  0
  8 10  1  0  0  0  0
  8 31  1  0  0  0  0
  9 32  1  0  0  0  0
 10 15  1  0  0  0  0
 10 11  2  0  0  0  0
 11 12  1  0  0  0  0
 11 33  1  0  0  0  0
 12 13  2  0  0  0  0
 12 34  1  0  0  0  0
 13 14  1  0  0  0  0
 14 15  2  0  0  0  0
 14 35  1  0  0  0  0
 15 36  1  0  0  0  0
 16 17  1  0  0  0  0
 16 37  1  0  0  0  0
 16 38  1  0  0  0  0
 17 18  1  0  0  0  0
 17 39  1  0  0  0  0
 18 40  1  0  0  0  0
 18 41  1  0  0  0  0
 18 42  1  0  0  0  0
M  CHG  1   6   1
M  END
> <s_m_source_file>
AV-unprocessed.smi

> <i_m_source_file_index>
3287

> <i_lp_mmshare_version>
43012

> <i_f3d_flags>
0

> <s_epik_input>
W0NIM11bQ0BASF0xW0NIMl1bQ0gyXVtDQEhdKFtDSDJdW0NASF0xW0NIM10pW05IXVtDSDJdW0NASF0oW09IXSljMltjSF1bY0hdbltjSF1bY0hdMg==

> <s_epik_cmdline>
J2VwaWtfcHl0aG9uJywgJy1waCcsICc3LjAnLCAnLXRuJywgJzgnLCAnLW1hJywgJzIwMCcsICctbWV0YWxfYmluZGluZycsICctaW1hZScsICc8aW5maWxlLm1hZT4nLCAnLW9tYWUnLCAnPG91dGZpbGUubWFlPic=

> <r_lp_tautomer_probability>
1

> <r_epik_Ionization_Penalty>
0.00537262

> <r_epik_Ionization_Penalty_Charging>
0.00321624

> <r_epik_Ionization_Penalty_Neutral>
0.00215638

> <r_epik_State_Penalty>
-0

> <r_epik_Charging_Adjusted_Penalty>
0.00321624

> <i_epik_Tot_Q>
1

> <i_epik_Tot_abs_Q>
1

> <r_epik_Metal_State_Penalty>
-0

> <b_epik_Metal_Only>
0

> <s_lp_Force_Field>
OPLS_2005

> <r_lp_Energy>
16.0387

> <b_lp_Chiralities_Consistent>
1

> <s_lp_Variant>
AV-unprocessed.smi:3287-1

> <Gold.Version>
5.8.1

> <Gold.Id.Protein>
6NUR|6NUR_protein|mol2

> <Gold.PLP.Fitness>
48.6968

> <Gold.PLP.PLP>
-38.4453

> <Gold.PLP.part.hbond>
-4.0000

> <Gold.PLP.part.metal>
0.0000

> <Gold.PLP.part.buried>
-2.6618

> <Gold.PLP.part.nonpolar>
-32.3765

> <Gold.PLP.part.repulsive>
0.2872

> <Gold.PLP.ligand.clash>
0.0000

> <Gold.PLP.ligand.torsion>
0.7660

> <Gold.PLP.Chemscore.Hbond>
3.4104

> <Gold.PLP.Chemscore.CHOScore>
0.5105

> <Gold.PLP.Chemscore.Metal>
0.0000

> <Gold.Chemscore.Hbonds>
donor molecule, donor type, donor heavy atom, donor atom, acceptor molecule, acceptor atom, score
      L1  H     6    28       P1  8028  2.00
      L1  H     9    32       P1  7957  1.00
      P1  H  8011  8017       L1     9  0.36
      L1  C    12    34       P1 10174  0.52

> <Gold.PLP.Chemscore.Internal.Correction>
0.0209

> <Gold.Rescore>
     Score         DG    S(hbond)    S(metal)    S(lipo)     H(rot)  DE(clash)    DE(int)     intcor
     18.49     -20.54       1.95        0.00     114.57       1.90       1.34       0.71       ----

> <Gold.Chemscore.Fitness>
18.4911

> <Gold.Chemscore.DG>
-20.5353

> <Gold.Chemscore.ZeroCoef>
-5.4800

> <Gold.Chemscore.Hbond>
1.9533

> <Gold.Chemscore.Metal>
0.0000

> <Gold.Chemscore.Lipo>
114.5662

> <Gold.Chemscore.Internal_Hbond>
0.0000

> <Gold.Chemscore.DEClash>
1.3367

> <Gold.Chemscore.DEInternal>
0.7076

> <Gold.Chemscore.Rot>
1.9035

> <Gold.Chemscore.Internal.Correction>
   9.000000E+99

> <Gold.Chemscore.Hbonds>
donor molecule, donor type, donor heavy atom, donor atom, acceptor molecule, acceptor atom, score
      L1  H     6    28       P1  8028  0.94
      L1  H     9    32       P1  7957  0.95
      P1  H  8011  8017       L1     9  0.01

> <Gold.Chemscore.Hbond.Weighted>
-6.5240

> <Gold.Chemscore.Metal.Weighted>
-0.0000

> <Gold.Chemscore.Lipo.Weighted>
-13.4042

> <Gold.Chemscore.Internal_Hbond.Weighted>
0.0000

> <Gold.Chemscore.DEClash.Weighted>
1.3367

> <Gold.Chemscore.DEInternal.Weighted>
0.7076

> <Gold.Chemscore.Rot.Weighted>
4.8729

> <Gold.Chemscore.Internal.Correction.Weighted>
   9.000000E+99

> <Gold.Protein.RotatedTorsions>
[ 6907 6896 6895 6894 ] final -168.22 input  -60.11 | X-H torsion
[ 7974 7965 7964 7962 ] final   36.20 input  175.53 | X-H torsion
[ 8008 7997 7996 7995 ] final   29.71 input   59.86 | X-H torsion
[ 10167 10162 10161 10158 ] final   53.11 input  -65.29 | X-H torsion
[ 10718 10713 10712 10709 ] final   64.71 input   66.30 | X-H torsion
[ 10763 10752 10751 10750 ] final   23.30 input  -60.55 | X-H torsion
[ 11005 11000 10999 10996 ] final  -52.39 input  -57.11 | X-H torsion

> <Gold.Protein.ActiveResidues>
 VAL166  LYS551  ARG553  GLY616  TRP617  ASP618  TYR619  PRO620  LYS621  CYS622 
 ASP623  PHE694  ASN695  SER759  ASP760  ASP761  ALA762  ILE779  LEU786  VAL792 
 PHE793  MET794  SER795  GLU796  ALA797  LYS798  CYS799  TRP800  GLU811  SER814 

> <Gold.Protein.RotatedAtoms>
  151.4721  133.3566  159.2824 H   0  0  0  0  0  0  0  0  0  0  0  0  # atno 6907 bound_to 6896
  150.8954  134.8363  159.7333 H   0  0  0  0  0  0  0  0  0  0  0  0  # atno 6908 bound_to 6896
  152.4848  134.4636  159.9665 H   0  0  0  0  0  0  0  0  0  0  0  0  # atno 6909 bound_to 6896
  146.1228  139.6047  142.9278 H   0  0  0  0  0  0  0  0  0  0  0  0  # atno 7974 bound_to 7965
  155.0789  140.3208  155.4607 H   0  0  0  0  0  0  0  0  0  0  0  0  # atno 8008 bound_to 7997
  156.2772  140.2098  156.5862 H   0  0  0  0  0  0  0  0  0  0  0  0  # atno 8009 bound_to 7997
  154.6995  140.0508  157.0431 H   0  0  0  0  0  0  0  0  0  0  0  0  # atno 8010 bound_to 7997
  140.2442  144.3550  150.6370 H   0  0  0  0  0  0  0  0  0  0  0  0  # atno 10167 bound_to 10162
  157.6057  130.9174  149.9881 H   0  0  0  0  0  0  0  0  0  0  0  0  # atno 10718 bound_to 10713
  153.0848  135.6630  153.9970 H   0  0  0  0  0  0  0  0  0  0  0  0  # atno 10763 bound_to 10752
  153.9583  135.2977  155.3436 H   0  0  0  0  0  0  0  0  0  0  0  0  # atno 10764 bound_to 10752
  154.7255  135.5146  153.8951 H   0  0  0  0  0  0  0  0  0  0  0  0  # atno 10765 bound_to 10752
  141.0921  133.6631  156.4017 H   0  0  0  0  0  0  0  0  0  0  0  0  # atno 11005 bound_to 11000
  145.5429  141.0419  143.2320 LP  0  0  0  0  0  0  0  0  0  0  0  0  # atno 17320 bound_to 7965
  144.7613  139.6949  143.7233 LP  0  0  0  0  0  0  0  0  0  0  0  0  # atno 17321 bound_to 7965
  140.6090  143.2169  151.6923 LP  0  0  0  0  0  0  0  0  0  0  0  0  # atno 17342 bound_to 10162
  139.5067  144.3672  152.0506 LP  0  0  0  0  0  0  0  0  0  0  0  0  # atno 17343 bound_to 10162
  156.1143  130.3648  149.9995 LP  0  0  0  0  0  0  0  0  0  0  0  0  # atno 17370 bound_to 10713
  156.8087  130.9317  151.3644 LP  0  0  0  0  0  0  0  0  0  0  0  0  # atno 17371 bound_to 10713
  140.5226  134.6289  157.5323 LP  0  0  0  0  0  0  0  0  0  0  0  0  # atno 17394 bound_to 11000
  139.9750  134.7231  155.9968 LP  0  0  0  0  0  0  0  0  0  0  0  0  # atno 17395 bound_to 11000

$$$$
