AV-unprocessed.smi:1251|AV-procd|sdf|5256|dock5
  -GOLD-   22720 4363D 1   1.00000     0.00000
 Structure written by MMmdl.
 39 40  0  0  0  0  0  0  0  0  1 V2000
  152.1656  143.0468  158.7648 C   0  0  0  0  0  0  0  0  0  0  0  0
  151.5092  141.8854  158.0109 C   0  0  0  0  0  0  0  0  0  0  0  0
  150.9081  142.3206  156.6670 C   0  0  0  0  0  0  0  0  0  0  0  0
  150.5560  141.1616  155.7952 C   0  0  0  0  0  0  0  0  0  0  0  0
  151.4685  140.2933  155.3416 N   0  0  0  0  0  0  0  0  0  0  0  0
  150.9095  139.3218  154.5229 N   0  0  0  0  0  0  0  0  0  0  0  0
  149.5897  139.4962  154.3700 C   0  0  0  0  0  0  0  0  0  0  0  0
  148.7681  138.6522  153.5768 N   0  0  0  0  0  0  0  0  0  0  0  0
  147.4260  138.6262  153.5019 C   0  0  0  0  0  0  0  0  0  0  0  0
  146.6641  139.3642  154.1271 O   0  0  0  0  0  0  0  0  0  0  0  0
  147.0089  137.6854  152.6414 N   0  0  0  0  0  0  0  0  0  0  0  0
  145.6166  137.3796  152.3144 C   0  0  2  0  0  0  0  0  0  0  0  0
  144.8163  137.2670  153.6205 C   0  0  0  0  0  0  0  0  0  0  0  0
  145.5290  136.0883  151.4744 C   0  0  2  0  0  0  0  0  0  0  0  0
  144.1089  135.5935  151.1918 C   0  0  0  0  0  0  0  0  0  0  0  0
  144.3461  134.1277  150.9126 C   0  0  0  0  0  0  0  0  0  0  0  0
  145.4361  133.7901  151.9253 C   0  0  0  0  0  0  0  0  0  0  0  0
  146.1512  135.0017  152.1569 O   0  0  0  0  0  0  0  0  0  0  0  0
  148.9160  140.8723  155.2265 S   0  0  0  0  0  0  0  0  0  0  0  0
  152.5828  142.7077  159.7130 H   0  0  0  0  0  0  0  0  0  0  0  0
  151.4430  143.8341  158.9814 H   0  0  0  0  0  0  0  0  0  0  0  0
  152.9761  143.4855  158.1826 H   0  0  0  0  0  0  0  0  0  0  0  0
  152.2502  141.1029  157.8433 H   0  0  0  0  0  0  0  0  0  0  0  0
  150.7305  141.4455  158.6352 H   0  0  0  0  0  0  0  0  0  0  0  0
  150.0125  142.9209  156.8329 H   0  0  0  0  0  0  0  0  0  0  0  0
  151.6137  142.9554  156.1301 H   0  0  0  0  0  0  0  0  0  0  0  0
  149.2616  137.9865  153.0007 H   0  0  0  0  0  0  0  0  0  0  0  0
  147.7109  137.1325  152.1721 H   0  0  0  0  0  0  0  0  0  0  0  0
  145.1839  138.1972  151.7352 H   0  0  0  0  0  0  0  0  0  0  0  0
  143.7613  137.0780  153.4212 H   0  0  0  0  0  0  0  0  0  0  0  0
  144.8779  138.1888  154.1999 H   0  0  0  0  0  0  0  0  0  0  0  0
  145.1869  136.4542  154.2462 H   0  0  0  0  0  0  0  0  0  0  0  0
  146.0505  136.2229  150.5250 H   0  0  0  0  0  0  0  0  0  0  0  0
  143.4784  135.7067  152.0750 H   0  0  0  0  0  0  0  0  0  0  0  0
  143.6320  136.1141  150.3610 H   0  0  0  0  0  0  0  0  0  0  0  0
  143.4504  133.5169  151.0285 H   0  0  0  0  0  0  0  0  0  0  0  0
  144.7217  133.9970  149.8968 H   0  0  0  0  0  0  0  0  0  0  0  0
  144.9945  133.4655  152.8682 H   0  0  0  0  0  0  0  0  0  0  0  0
  146.0982  132.9997  151.5714 H   0  0  0  0  0  0  0  0  0  0  0  0
  1  2  1  0  0  0  0
  1 20  1  0  0  0  0
  1 21  1  0  0  0  0
  1 22  1  0  0  0  0
  2  3  1  0  0  0  0
  2 23  1  0  0  0  0
  2 24  1  0  0  0  0
  3  4  1  0  0  0  0
  3 25  1  0  0  0  0
  3 26  1  0  0  0  0
  4 19  1  0  0  0  0
  4  5  2  0  0  0  0
  5  6  1  0  0  0  0
  6  7  2  0  0  0  0
  7  8  1  0  0  0  0
  7 19  1  0  0  0  0
  8  9  1  0  0  0  0
  8 27  1  0  0  0  0
  9 10  2  0  0  0  0
  9 11  1  0  0  0  0
 11 12  1  0  0  0  0
 11 28  1  0  0  0  0
 12 13  1  0  0  0  0
 12 14  1  0  0  0  0
 12 29  1  0  0  0  0
 13 30  1  0  0  0  0
 13 31  1  0  0  0  0
 13 32  1  0  0  0  0
 14 18  1  0  0  0  0
 14 15  1  0  0  0  0
 14 33  1  0  0  0  0
 15 16  1  0  0  0  0
 15 34  1  0  0  0  0
 15 35  1  0  0  0  0
 16 17  1  0  0  0  0
 16 36  1  0  0  0  0
 16 37  1  0  0  0  0
 17 18  1  0  0  0  0
 17 38  1  0  0  0  0
 17 39  1  0  0  0  0
M  END
> <s_m_source_file>
AV-unprocessed.smi

> <i_m_source_file_index>
1251

> <i_lp_mmshare_version>
43012

> <i_f3d_flags>
0

> <s_epik_input>
W0NIM11bQ0gyXVtDSDJdYzFubmMoczEpW05IXUMoPU8pW05IXVtDQEhdKFtDSDNdKVtDQEBIXTJbQ0gyXVtDSDJdW0NIMl1PMg==

> <s_epik_cmdline>
J2VwaWtfcHl0aG9uJywgJy1waCcsICc3LjAnLCAnLXRuJywgJzgnLCAnLW1hJywgJzIwMCcsICctbWV0YWxfYmluZGluZycsICctaW1hZScsICc8aW5maWxlLm1hZT4nLCAnLW9tYWUnLCAnPG91dGZpbGUubWFlPic=

> <r_lp_tautomer_probability>
1

> <r_epik_Ionization_Penalty>
0.000503621

> <r_epik_Ionization_Penalty_Charging>
0

> <r_epik_Ionization_Penalty_Neutral>
0.000503621

> <r_epik_State_Penalty>
-0

> <r_epik_Charging_Adjusted_Penalty>
0

> <i_epik_Tot_Q>
0

> <i_epik_Tot_abs_Q>
0

> <r_epik_Metal_State_Penalty>
0.219912

> <b_epik_Metal_Only>
0

> <s_lp_Force_Field>
OPLS_2005

> <r_lp_Energy>
13.0055

> <b_lp_Chiralities_Consistent>
1

> <s_lp_Variant>
AV-unprocessed.smi:1251-1

> <Gold.Version>
5.8.1

> <Gold.Id.Protein>
6NUR|6NUR_protein|mol2

> <Gold.PLP.Fitness>
39.0469

> <Gold.PLP.PLP>
-34.0803

> <Gold.PLP.part.hbond>
-4.9199

> <Gold.PLP.part.metal>
0.0000

> <Gold.PLP.part.buried>
-4.0893

> <Gold.PLP.part.nonpolar>
-25.5093

> <Gold.PLP.part.repulsive>
1.2927

> <Gold.PLP.ligand.clash>
0.0000

> <Gold.PLP.ligand.torsion>
0.2136

> <Gold.PLP.Chemscore.Hbond>
1.7905

> <Gold.PLP.Chemscore.CHOScore>
0.0000

> <Gold.PLP.Chemscore.Metal>
0.0000

> <Gold.Chemscore.Hbonds>
donor molecule, donor type, donor heavy atom, donor atom, acceptor molecule, acceptor atom, score
      L1  H     8    27       P1  7948  0.76
      L1  H    11    28       P1  7948  1.00

> <Gold.PLP.Chemscore.Internal.Correction>
0.0223

> <Gold.Rescore>
     Score         DG    S(hbond)    S(metal)    S(lipo)     H(rot)  DE(clash)    DE(int)     intcor
     13.12     -16.14       1.88        0.00      72.27       1.58       0.25       2.77       ----

> <Gold.Chemscore.Fitness>
13.1227

> <Gold.Chemscore.DG>
-16.1448

> <Gold.Chemscore.ZeroCoef>
-5.4800

> <Gold.Chemscore.Hbond>
1.8757

> <Gold.Chemscore.Metal>
0.0000

> <Gold.Chemscore.Lipo>
72.2706

> <Gold.Chemscore.Internal_Hbond>
0.0000

> <Gold.Chemscore.DEClash>
0.2484

> <Gold.Chemscore.DEInternal>
2.7737

> <Gold.Chemscore.Rot>
1.5843

> <Gold.Chemscore.Internal.Correction>
   9.000000E+99

> <Gold.Chemscore.Hbonds>
donor molecule, donor type, donor heavy atom, donor atom, acceptor molecule, acceptor atom, score
      L1  H     8    27       P1  7948  0.70
      L1  H    11    28       P1  7948  0.95

> <Gold.Chemscore.Hbond.Weighted>
-6.2649

> <Gold.Chemscore.Metal.Weighted>
-0.0000

> <Gold.Chemscore.Lipo.Weighted>
-8.4557

> <Gold.Chemscore.Internal_Hbond.Weighted>
0.0000

> <Gold.Chemscore.DEClash.Weighted>
0.2484

> <Gold.Chemscore.DEInternal.Weighted>
2.7737

> <Gold.Chemscore.Rot.Weighted>
4.0558

> <Gold.Chemscore.Internal.Correction.Weighted>
   9.000000E+99

> <Gold.Protein.RotatedTorsions>
[ 6907 6896 6895 6894 ] final  -84.77 input  -60.11 | X-H torsion
[ 7974 7965 7964 7962 ] final  158.57 input  175.53 | X-H torsion
[ 8008 7997 7996 7995 ] final  -29.70 input   59.86 | X-H torsion
[ 10167 10162 10161 10158 ] final  163.23 input  -65.29 | X-H torsion
[ 10718 10713 10712 10709 ] final   79.21 input   66.30 | X-H torsion
[ 10763 10752 10751 10750 ] final    8.06 input  -60.55 | X-H torsion
[ 11005 11000 10999 10996 ] final   16.47 input  -57.11 | X-H torsion

> <Gold.Protein.ActiveResidues>
 VAL166  LYS551  ARG553  GLY616  TRP617  ASP618  TYR619  PRO620  LYS621  CYS622 
 ASP623  PHE694  ASN695  SER759  ASP760  ASP761  ALA762  ILE779  LEU786  VAL792 
 PHE793  MET794  SER795  GLU796  ALA797  LYS798  CYS799  TRP800  GLU811  SER814 

> <Gold.Protein.RotatedAtoms>
  150.6874  134.3307  159.4825 H   0  0  0  0  0  0  0  0  0  0  0  0  # atno 6907 bound_to 6896
  152.1172  134.9229  160.0573 H   0  0  0  0  0  0  0  0  0  0  0  0  # atno 6908 bound_to 6896
  152.0449  133.3959  159.4389 H   0  0  0  0  0  0  0  0  0  0  0  0  # atno 6909 bound_to 6896
  144.7838  139.7497  143.6249 H   0  0  0  0  0  0  0  0  0  0  0  0  # atno 7974 bound_to 7965
  154.4279  140.1811  156.1289 H   0  0  0  0  0  0  0  0  0  0  0  0  # atno 8008 bound_to 7997
  156.0083  140.3353  155.6890 H   0  0  0  0  0  0  0  0  0  0  0  0  # atno 8009 bound_to 7997
  155.6146  140.0653  157.2687 H   0  0  0  0  0  0  0  0  0  0  0  0  # atno 8010 bound_to 7997
  139.4871  144.4358  151.9014 H   0  0  0  0  0  0  0  0  0  0  0  0  # atno 10167 bound_to 10162
  157.6769  130.9903  150.1899 H   0  0  0  0  0  0  0  0  0  0  0  0  # atno 10718 bound_to 10713
  153.2292  135.6890  153.7909 H   0  0  0  0  0  0  0  0  0  0  0  0  # atno 10763 bound_to 10752
  153.7080  135.3287  155.3240 H   0  0  0  0  0  0  0  0  0  0  0  0  # atno 10764 bound_to 10752
  154.8306  135.4583  154.1171 H   0  0  0  0  0  0  0  0  0  0  0  0  # atno 10765 bound_to 10752
  140.4468  134.1265  155.7697 H   0  0  0  0  0  0  0  0  0  0  0  0  # atno 11005 bound_to 11000
  146.2060  139.5384  142.9712 LP  0  0  0  0  0  0  0  0  0  0  0  0  # atno 17320 bound_to 7965
  145.5977  141.0360  143.2035 LP  0  0  0  0  0  0  0  0  0  0  0  0  # atno 17321 bound_to 7965
  140.3807  144.2740  150.5909 LP  0  0  0  0  0  0  0  0  0  0  0  0  # atno 17342 bound_to 10162
  140.5236  143.2260  151.8350 LP  0  0  0  0  0  0  0  0  0  0  0  0  # atno 17343 bound_to 10162
  156.2612  130.3711  149.8128 LP  0  0  0  0  0  0  0  0  0  0  0  0  # atno 17370 bound_to 10713
  156.5872  130.8491  151.3399 LP  0  0  0  0  0  0  0  0  0  0  0  0  # atno 17371 bound_to 10713
  141.1681  133.8662  157.1652 LP  0  0  0  0  0  0  0  0  0  0  0  0  # atno 17394 bound_to 11000
  140.0033  135.0019  157.0238 LP  0  0  0  0  0  0  0  0  0  0  0  0  # atno 17395 bound_to 11000

$$$$
