AV-unprocessed.smi:634|AV-procd|sdf|3137|dock4
  -GOLD-   22720 0 63D 1   1.00000     0.00000
 Structure written by MMmdl.
 32 33  0  0  0  0  0  0  0  0  2 V2000
  151.7828  145.4227  160.1102 C   0  0  0  0  0  0  0  0  0  0  0  0
  151.7363  144.2404  159.2045 C   0  0  0  0  0  0  0  0  0  0  0  0
  151.0794  143.9914  158.0324 C   0  0  0  0  0  0  0  0  0  0  0  0
  151.4821  142.6670  157.7133 C   0  0  0  0  0  0  0  0  0  0  0  0
  150.9992  142.0263  156.5419 N   0  0  0  0  0  0  0  0  0  0  0  0
  151.3471  140.8320  156.0301 C   0  0  0  0  0  0  0  0  0  0  0  0
  152.2172  140.1467  156.5774 O   0  0  0  0  0  0  0  0  0  0  0  0
  150.6402  140.5300  154.9046 N   0  5  0  0  0  0  0  0  0  0  0  0
  149.1842  140.3349  154.7749 C   0  0  1  0  0  0  0  0  0  0  0  0
  148.6251  140.2211  156.2086 C   0  0  0  0  0  0  0  0  0  0  0  0
  148.5009  141.5235  154.0453 C   0  0  0  0  0  0  0  0  0  0  0  0
  147.0807  141.1146  153.6219 C   0  0  0  0  0  0  0  0  0  0  0  0
  147.1444  139.3072  153.3119 S   0  0  0  0  0  0  0  0  0  0  0  0
  146.1659  138.6385  154.1842 O   0  0  0  0  0  0  0  0  0  0  0  0
  147.1517  139.0570  151.8621 O   0  0  0  0  0  0  0  0  0  0  0  0
  148.8392  139.0561  153.9758 C   0  0  0  0  0  0  0  0  0  0  0  0
  152.3133  142.1560  158.6099 N   0  0  0  0  0  0  0  0  0  0  0  0
  152.4801  143.1613  159.5698 O   0  0  0  0  0  0  0  0  0  0  0  0
  150.9922  146.1323  159.8655 H   0  0  0  0  0  0  0  0  0  0  0  0
  152.7397  145.9371  160.0230 H   0  0  0  0  0  0  0  0  0  0  0  0
  151.6541  145.1195  161.1494 H   0  0  0  0  0  0  0  0  0  0  0  0
  150.4157  144.6505  157.4926 H   0  0  0  0  0  0  0  0  0  0  0  0
  150.2872  142.5276  156.0319 H   0  0  0  0  0  0  0  0  0  0  0  0
  147.5477  140.0560  156.2167 H   0  0  0  0  0  0  0  0  0  0  0  0
  148.8185  141.1275  156.7838 H   0  0  0  0  0  0  0  0  0  0  0  0
  149.0812  139.3895  156.7474 H   0  0  0  0  0  0  0  0  0  0  0  0
  148.4888  142.4272  154.6557 H   0  0  0  0  0  0  0  0  0  0  0  0
  149.0471  141.7765  153.1371 H   0  0  0  0  0  0  0  0  0  0  0  0
  146.3582  141.3000  154.4175 H   0  0  0  0  0  0  0  0  0  0  0  0
  146.7453  141.6355  152.7252 H   0  0  0  0  0  0  0  0  0  0  0  0
  149.4949  138.9122  153.1178 H   0  0  0  0  0  0  0  0  0  0  0  0
  148.8745  138.1482  154.5781 H   0  0  0  0  0  0  0  0  0  0  0  0
  1  2  1  0  0  0  0
  1 19  1  0  0  0  0
  1 20  1  0  0  0  0
  1 21  1  0  0  0  0
  2 18  1  0  0  0  0
  2  3  2  0  0  0  0
  3  4  1  0  0  0  0
  3 22  1  0  0  0  0
  4  5  1  0  0  0  0
  4 17  2  0  0  0  0
  5  6  1  0  0  0  0
  5 23  1  0  0  0  0
  6  7  2  0  0  0  0
  6  8  1  0  0  0  0
  8  9  1  0  0  0  0
  9 16  1  0  0  0  0
  9 10  1  0  0  0  0
  9 11  1  0  0  0  0
 10 24  1  0  0  0  0
 10 25  1  0  0  0  0
 10 26  1  0  0  0  0
 11 12  1  0  0  0  0
 11 27  1  0  0  0  0
 11 28  1  0  0  0  0
 12 13  1  0  0  0  0
 12 29  1  0  0  0  0
 12 30  1  0  0  0  0
 13 14  2  0  0  0  0
 13 15  2  0  0  0  0
 13 16  1  0  0  0  0
 16 31  1  0  0  0  0
 16 32  1  0  0  0  0
 17 18  1  0  0  0  0
M  CHG  1   8  -1
M  END
> <s_m_source_file>
AV-unprocessed.smi

> <i_m_source_file_index>
634

> <i_lp_mmshare_version>
43012

> <i_f3d_flags>
0

> <s_epik_input>
W0NIM11jMVtjSF1jKG5vMSlbTkhdQyg9TylbTkhdW0NAQF0yKFtDSDNdKVtDSDJdW0NIMl1TKD1PKSg9TylbQ0gyXTI=

> <s_epik_cmdline>
J2VwaWtfcHl0aG9uJywgJy1waCcsICc3LjAnLCAnLXRuJywgJzgnLCAnLW1hJywgJzIwMCcsICctbWV0YWxfYmluZGluZycsICctaW1hZScsICc8aW5maWxlLm1hZT4nLCAnLW9tYWUnLCAnPG91dGZpbGUubWFlPic=

> <r_lp_tautomer_probability>
1

> <r_epik_Ionization_Penalty>
6.62388

> <r_epik_Ionization_Penalty_Charging>
6.62387

> <r_epik_Ionization_Penalty_Neutral>
5.45748e-06

> <r_epik_State_Penalty>
6.65157

> <r_epik_Charging_Adjusted_Penalty>
13.2754

> <i_epik_Tot_Q>
-1

> <i_epik_Tot_abs_Q>
1

> <r_epik_Metal_State_Penalty>
2.59195

> <b_epik_Metal_Only>
1

> <s_lp_Force_Field>
OPLS_2005

> <r_lp_Energy>
8.12985

> <b_lp_Chiralities_Consistent>
1

> <s_lp_Variant>
AV-unprocessed.smi:634-5

> <Gold.Version>
5.8.1

> <Gold.Id.Protein>
6NUR|6NUR_protein|mol2

> <Gold.PLP.Fitness>
36.2288

> <Gold.PLP.PLP>
-32.4142

> <Gold.PLP.part.hbond>
-1.9122

> <Gold.PLP.part.metal>
0.0000

> <Gold.PLP.part.buried>
-5.1710

> <Gold.PLP.part.nonpolar>
-26.2488

> <Gold.PLP.part.repulsive>
2.5218

> <Gold.PLP.ligand.clash>
0.0000

> <Gold.PLP.ligand.torsion>
0.8138

> <Gold.PLP.Chemscore.Hbond>
1.8125

> <Gold.PLP.Chemscore.CHOScore>
0.0000

> <Gold.PLP.Chemscore.Metal>
0.0000

> <Gold.Chemscore.Hbonds>
donor molecule, donor type, donor heavy atom, donor atom, acceptor molecule, acceptor atom, score
      P1  H  7989  7998       L1     8  1.00
      P1  H  7997  8008       L1     7  0.76

> <Gold.PLP.Chemscore.Internal.Correction>
0.0048

> <Gold.Rescore>
     Score         DG    S(hbond)    S(metal)    S(lipo)     H(rot)  DE(clash)    DE(int)     intcor
     11.63     -16.26       1.70        0.00      65.33       1.00       1.57       3.06       ----

> <Gold.Chemscore.Fitness>
11.6264

> <Gold.Chemscore.DG>
-16.2553

> <Gold.Chemscore.ZeroCoef>
-5.4800

> <Gold.Chemscore.Hbond>
1.7040

> <Gold.Chemscore.Metal>
0.0000

> <Gold.Chemscore.Lipo>
65.3338

> <Gold.Chemscore.Internal_Hbond>
0.0000

> <Gold.Chemscore.DEClash>
1.5710

> <Gold.Chemscore.DEInternal>
3.0580

> <Gold.Chemscore.Rot>
1.0000

> <Gold.Chemscore.Internal.Correction>
   9.000000E+99

> <Gold.Chemscore.Hbonds>
donor molecule, donor type, donor heavy atom, donor atom, acceptor molecule, acceptor atom, score
      P1  H  7954  7966       L1    15  0.01
      P1  H  7989  7998       L1     8  0.66
      P1  H  7997  8008       L1     7  0.74

> <Gold.Chemscore.Hbond.Weighted>
-5.6913

> <Gold.Chemscore.Metal.Weighted>
-0.0000

> <Gold.Chemscore.Lipo.Weighted>
-7.6441

> <Gold.Chemscore.Internal_Hbond.Weighted>
0.0000

> <Gold.Chemscore.DEClash.Weighted>
1.5710

> <Gold.Chemscore.DEInternal.Weighted>
3.0580

> <Gold.Chemscore.Rot.Weighted>
2.5600

> <Gold.Chemscore.Internal.Correction.Weighted>
   9.000000E+99

> <Gold.Protein.RotatedTorsions>
[ 6907 6896 6895 6894 ] final  -51.66 input  -60.11 | X-H torsion
[ 7974 7965 7964 7962 ] final  161.61 input  175.53 | X-H torsion
[ 8008 7997 7996 7995 ] final  -52.29 input   59.86 | X-H torsion
[ 10167 10162 10161 10158 ] final   13.87 input  -65.29 | X-H torsion
[ 10718 10713 10712 10709 ] final    0.35 input   66.30 | X-H torsion
[ 10763 10752 10751 10750 ] final  -65.93 input  -60.55 | X-H torsion
[ 11005 11000 10999 10996 ] final   53.61 input  -57.11 | X-H torsion

> <Gold.Protein.ActiveResidues>
 VAL166  LYS551  ARG553  GLY616  TRP617  ASP618  TYR619  PRO620  LYS621  CYS622 
 ASP623  PHE694  ASN695  SER759  ASP760  ASP761  ALA762  ILE779  LEU786  VAL792 
 PHE793  MET794  SER795  GLU796  ALA797  LYS798  CYS799  TRP800  GLU811  SER814 

> <Gold.Protein.RotatedAtoms>
  150.8590  134.7937  159.7067 H   0  0  0  0  0  0  0  0  0  0  0  0  # atno 6907 bound_to 6896
  152.4633  134.5131  159.9769 H   0  0  0  0  0  0  0  0  0  0  0  0  # atno 6908 bound_to 6896
  151.5238  133.3423  159.2941 H   0  0  0  0  0  0  0  0  0  0  0  0  # atno 6909 bound_to 6896
  144.7677  139.7922  143.6309 H   0  0  0  0  0  0  0  0  0  0  0  0  # atno 7974 bound_to 7965
  154.4103  140.1227  156.4968 H   0  0  0  0  0  0  0  0  0  0  0  0  # atno 8008 bound_to 7997
  155.6935  140.3495  155.4884 H   0  0  0  0  0  0  0  0  0  0  0  0  # atno 8009 bound_to 7997
  155.9448  140.1094  157.1016 H   0  0  0  0  0  0  0  0  0  0  0  0  # atno 8010 bound_to 7997
  140.5974  143.8675  150.6931 H   0  0  0  0  0  0  0  0  0  0  0  0  # atno 10167 bound_to 10162
  156.8321  130.5492  149.5686 H   0  0  0  0  0  0  0  0  0  0  0  0  # atno 10718 bound_to 10713
  154.3523  135.6134  153.5649 H   0  0  0  0  0  0  0  0  0  0  0  0  # atno 10763 bound_to 10752
  152.9797  135.5795  154.4729 H   0  0  0  0  0  0  0  0  0  0  0  0  # atno 10764 bound_to 10752
  154.4452  135.2851  155.1797 H   0  0  0  0  0  0  0  0  0  0  0  0  # atno 10765 bound_to 10752
  140.0753  134.5413  155.9003 H   0  0  0  0  0  0  0  0  0  0  0  0  # atno 11005 bound_to 11000
  146.1799  139.4986  142.9873 LP  0  0  0  0  0  0  0  0  0  0  0  0  # atno 17320 bound_to 7965
  145.6418  141.0282  143.1807 LP  0  0  0  0  0  0  0  0  0  0  0  0  # atno 17321 bound_to 7965
  140.2212  143.3807  152.1641 LP  0  0  0  0  0  0  0  0  0  0  0  0  # atno 17342 bound_to 10162
  139.5267  144.7111  151.5203 LP  0  0  0  0  0  0  0  0  0  0  0  0  # atno 17343 bound_to 10162
  156.0928  130.5909  150.9762 LP  0  0  0  0  0  0  0  0  0  0  0  0  # atno 17370 bound_to 10713
  157.6401  131.0911  150.8269 LP  0  0  0  0  0  0  0  0  0  0  0  0  # atno 17371 bound_to 10713
  141.2027  133.6627  156.6022 LP  0  0  0  0  0  0  0  0  0  0  0  0  # atno 17394 bound_to 11000
  140.3566  134.7723  157.4505 LP  0  0  0  0  0  0  0  0  0  0  0  0  # atno 17395 bound_to 11000

$$$$
