AV-unprocessed.smi:2012|AV-procd|sdf|8156|dock7
  -GOLD-   2272010403D 1   1.00000     0.00000
 Structure written by MMmdl.
 50 51  0  0  0  0  0  0  0  0  1 V2000
  149.3813  134.4234  154.5719 C   0  0  0  0  0  0  0  0  0  0  0  0
  147.9348  134.1850  154.1519 C   0  0  0  0  0  0  0  0  0  0  0  0
  147.2929  133.2753  154.6736 O   0  0  0  0  0  0  0  0  0  0  0  0
  147.4523  135.0038  153.1997 N   0  0  0  0  0  0  0  0  0  0  0  0
  146.1048  135.0447  152.6139 C   0  0  1  0  0  0  0  0  0  0  0  0
  145.6317  136.4951  152.4097 C   0  0  0  0  0  0  0  0  0  0  0  0
  144.4313  136.7513  152.3129 O   0  0  0  0  0  0  0  0  0  0  0  0
  146.5854  137.4394  152.3768 N   0  0  0  0  0  0  0  0  0  0  0  0
  146.3357  138.8710  152.2509 C   0  0  0  0  0  0  0  0  0  0  0  0
  147.2709  139.7195  153.0979 C   0  0  0  0  0  0  0  0  0  0  0  0
  146.9800  141.0756  153.3383 C   0  0  0  0  0  0  0  0  0  0  0  0
  147.8713  141.8168  154.1339 C   0  0  0  0  0  0  0  0  0  0  0  0
  148.9912  141.2931  154.6741 N   0  0  0  0  0  0  0  0  0  0  0  0
  149.2919  139.9909  154.4468 C   0  0  0  0  0  0  0  0  0  0  0  0
  150.4728  139.4948  155.0489 N   0  0  0  0  0  0  0  0  0  0  0  0
  151.3955  138.7008  154.2402 C   0  0  0  0  0  0  0  0  0  0  0  0
  152.4212  137.9794  155.1302 C   0  0  0  0  0  0  0  0  0  0  0  0
  153.0808  138.9210  155.9678 O   0  0  0  0  0  0  0  0  0  0  0  0
  152.1673  139.5682  156.8453 C   0  0  0  0  0  0  0  0  0  0  0  0
  151.1314  140.3594  156.0290 C   0  0  0  0  0  0  0  0  0  0  0  0
  148.4479  139.1721  153.6529 C   0  0  0  0  0  0  0  0  0  0  0  0
  145.9039  134.0934  151.3921 C   0  0  0  0  0  0  0  0  0  0  0  0
  144.4317  133.9912  150.9473 C   0  0  0  0  0  0  0  0  0  0  0  0
  146.4528  132.6796  151.6642 C   0  0  0  0  0  0  0  0  0  0  0  0
  149.6807  135.4569  154.3937 H   0  0  0  0  0  0  0  0  0  0  0  0
  150.0475  133.7692  154.0091 H   0  0  0  0  0  0  0  0  0  0  0  0
  149.5091  134.2124  155.6340 H   0  0  0  0  0  0  0  0  0  0  0  0
  148.0937  135.6973  152.8440 H   0  0  0  0  0  0  0  0  0  0  0  0
  145.4753  134.6389  153.4077 H   0  0  0  0  0  0  0  0  0  0  0  0
  147.5477  137.1491  152.4709 H   0  0  0  0  0  0  0  0  0  0  0  0
  146.4716  139.1512  151.2063 H   0  0  0  0  0  0  0  0  0  0  0  0
  145.2957  139.0915  152.4974 H   0  0  0  0  0  0  0  0  0  0  0  0
  146.0935  141.5387  152.9305 H   0  0  0  0  0  0  0  0  0  0  0  0
  147.6800  142.8586  154.3442 H   0  0  0  0  0  0  0  0  0  0  0  0
  150.8523  137.9484  153.6693 H   0  0  0  0  0  0  0  0  0  0  0  0
  151.9051  139.3533  153.5300 H   0  0  0  0  0  0  0  0  0  0  0  0
  151.9372  137.2123  155.7370 H   0  0  0  0  0  0  0  0  0  0  0  0
  153.1626  137.4733  154.5119 H   0  0  0  0  0  0  0  0  0  0  0  0
  151.6776  138.8333  157.4864 H   0  0  0  0  0  0  0  0  0  0  0  0
  152.7209  140.2412  157.5001 H   0  0  0  0  0  0  0  0  0  0  0  0
  151.6181  141.1801  155.5012 H   0  0  0  0  0  0  0  0  0  0  0  0
  150.4169  140.8042  156.7210 H   0  0  0  0  0  0  0  0  0  0  0  0
  148.6798  138.1371  153.4548 H   0  0  0  0  0  0  0  0  0  0  0  0
  146.4455  134.4952  150.5364 H   0  0  0  0  0  0  0  0  0  0  0  0
  143.7902  133.6653  151.7666 H   0  0  0  0  0  0  0  0  0  0  0  0
  144.3156  133.2770  150.1317 H   0  0  0  0  0  0  0  0  0  0  0  0
  144.0538  134.9461  150.5822 H   0  0  0  0  0  0  0  0  0  0  0  0
  145.9511  132.2181  152.5151 H   0  0  0  0  0  0  0  0  0  0  0  0
  147.5218  132.6909  151.8747 H   0  0  0  0  0  0  0  0  0  0  0  0
  146.3064  132.0293  150.8013 H   0  0  0  0  0  0  0  0  0  0  0  0
  1  2  1  0  0  0  0
  1 25  1  0  0  0  0
  1 26  1  0  0  0  0
  1 27  1  0  0  0  0
  2  3  2  0  0  0  0
  2  4  1  0  0  0  0
  4  5  1  0  0  0  0
  4 28  1  0  0  0  0
  5  6  1  0  0  0  0
  5 22  1  0  0  0  0
  5 29  1  0  0  0  0
  6  7  2  0  0  0  0
  6  8  1  0  0  0  0
  8  9  1  0  0  0  0
  8 30  1  0  0  0  0
  9 10  1  0  0  0  0
  9 31  1  0  0  0  0
  9 32  1  0  0  0  0
 10 21  1  0  0  0  0
 10 11  2  0  0  0  0
 11 12  1  0  0  0  0
 11 33  1  0  0  0  0
 12 13  2  0  0  0  0
 12 34  1  0  0  0  0
 13 14  1  0  0  0  0
 14 15  1  0  0  0  0
 14 21  2  0  0  0  0
 15 20  1  0  0  0  0
 15 16  1  0  0  0  0
 16 17  1  0  0  0  0
 16 35  1  0  0  0  0
 16 36  1  0  0  0  0
 17 18  1  0  0  0  0
 17 37  1  0  0  0  0
 17 38  1  0  0  0  0
 18 19  1  0  0  0  0
 19 20  1  0  0  0  0
 19 39  1  0  0  0  0
 19 40  1  0  0  0  0
 20 41  1  0  0  0  0
 20 42  1  0  0  0  0
 21 43  1  0  0  0  0
 22 23  1  0  0  0  0
 22 24  1  0  0  0  0
 22 44  1  0  0  0  0
 23 45  1  0  0  0  0
 23 46  1  0  0  0  0
 23 47  1  0  0  0  0
 24 48  1  0  0  0  0
 24 49  1  0  0  0  0
 24 50  1  0  0  0  0
M  END
> <s_m_source_file>
AV-unprocessed.smi

> <i_m_source_file_index>
2012

> <i_lp_mmshare_version>
43012

> <i_f3d_flags>
0

> <s_epik_input>
W0NIM11DKD1PKVtOSF1bQ0BASF0oW0NIXShbQ0gzXSlbQ0gzXSlDKD1PKVtOSF1bQ0gyXWMxW2NIXVtjSF1uYyhbY0hdMSlOMltDSDJdW0NIMl1PW0NIMl1bQ0gyXTI=

> <s_epik_cmdline>
J2VwaWtfcHl0aG9uJywgJy1waCcsICc3LjAnLCAnLXRuJywgJzgnLCAnLW1hJywgJzIwMCcsICctbWV0YWxfYmluZGluZycsICctaW1hZScsICc8aW5maWxlLm1hZT4nLCAnLW9tYWUnLCAnPG91dGZpbGUubWFlPic=

> <r_lp_tautomer_probability>
1

> <r_epik_Ionization_Penalty>
0.00518786

> <r_epik_Ionization_Penalty_Charging>
0

> <r_epik_Ionization_Penalty_Neutral>
0.00518786

> <r_epik_State_Penalty>
0.00378052

> <r_epik_Charging_Adjusted_Penalty>
0.00378052

> <i_epik_Tot_Q>
0

> <i_epik_Tot_abs_Q>
0

> <r_epik_Metal_State_Penalty>
-0

> <b_epik_Metal_Only>
0

> <s_lp_Force_Field>
OPLS_2005

> <r_lp_Energy>
18.0004

> <b_lp_Chiralities_Consistent>
1

> <s_lp_Variant>
AV-unprocessed.smi:2012-2

> <Gold.Version>
5.8.1

> <Gold.Id.Protein>
6NUR|6NUR_protein|mol2

> <Gold.PLP.Fitness>
48.1117

> <Gold.PLP.PLP>
-38.2425

> <Gold.PLP.part.hbond>
-2.7214

> <Gold.PLP.part.metal>
0.0000

> <Gold.PLP.part.buried>
-2.8107

> <Gold.PLP.part.nonpolar>
-34.5118

> <Gold.PLP.part.repulsive>
0.4718

> <Gold.PLP.ligand.clash>
0.0000

> <Gold.PLP.ligand.torsion>
1.3327

> <Gold.PLP.Chemscore.Hbond>
2.8953

> <Gold.PLP.Chemscore.CHOScore>
1.0000

> <Gold.PLP.Chemscore.Metal>
0.0000

> <Gold.Chemscore.Hbonds>
donor molecule, donor type, donor heavy atom, donor atom, acceptor molecule, acceptor atom, score
      L1  H     4    28       P1  7948  0.67
      L1  H     8    30       P1  7948  0.99
      P1  H  7997  8010       L1    18  0.65
      L1  C    12    34       P1  8028  0.98

> <Gold.PLP.Chemscore.Internal.Correction>
0.8485

> <Gold.Rescore>
     Score         DG    S(hbond)    S(metal)    S(lipo)     H(rot)  DE(clash)    DE(int)     intcor
     18.13     -19.62       2.75        0.00      89.96       2.18       0.12       1.37       ----

> <Gold.Chemscore.Fitness>
18.1334

> <Gold.Chemscore.DG>
-19.6183

> <Gold.Chemscore.ZeroCoef>
-5.4800

> <Gold.Chemscore.Hbond>
2.7536

> <Gold.Chemscore.Metal>
0.0000

> <Gold.Chemscore.Lipo>
89.9612

> <Gold.Chemscore.Internal_Hbond>
0.0000

> <Gold.Chemscore.DEClash>
0.1187

> <Gold.Chemscore.DEInternal>
1.3661

> <Gold.Chemscore.Rot>
2.1813

> <Gold.Chemscore.Internal.Correction>
   9.000000E+99

> <Gold.Chemscore.Hbonds>
donor molecule, donor type, donor heavy atom, donor atom, acceptor molecule, acceptor atom, score
      L1  H     4    28       P1  7948  0.64
      L1  H     8    30       P1  7948  0.93
      P1  H  7997  8010       L1    18  0.06

> <Gold.Chemscore.Hbond.Weighted>
-9.1970

> <Gold.Chemscore.Metal.Weighted>
-0.0000

> <Gold.Chemscore.Lipo.Weighted>
-10.5255

> <Gold.Chemscore.Internal_Hbond.Weighted>
0.0000

> <Gold.Chemscore.DEClash.Weighted>
0.1187

> <Gold.Chemscore.DEInternal.Weighted>
1.3661

> <Gold.Chemscore.Rot.Weighted>
5.5842

> <Gold.Chemscore.Internal.Correction.Weighted>
   9.000000E+99

> <Gold.Protein.RotatedTorsions>
[ 6907 6896 6895 6894 ] final  160.40 input  -60.11 | X-H torsion
[ 7974 7965 7964 7962 ] final   -6.51 input  175.53 | X-H torsion
[ 8008 7997 7996 7995 ] final   81.91 input   59.86 | X-H torsion
[ 10167 10162 10161 10158 ] final    4.96 input  -65.29 | X-H torsion
[ 10718 10713 10712 10709 ] final   -0.57 input   66.30 | X-H torsion
[ 10763 10752 10751 10750 ] final  166.34 input  -60.55 | X-H torsion
[ 11005 11000 10999 10996 ] final   90.46 input  -57.11 | X-H torsion

> <Gold.Protein.ActiveResidues>
 VAL166  LYS551  ARG553  GLY616  TRP617  ASP618  TYR619  PRO620  LYS621  CYS622 
 ASP623  PHE694  ASN695  SER759  ASP760  ASP761  ALA762  ILE779  LEU786  VAL792 
 PHE793  MET794  SER795  GLU796  ALA797  LYS798  CYS799  TRP800  GLU811  SER814 

> <Gold.Protein.RotatedAtoms>
  151.9712  133.3726  159.4071 H   0  0  0  0  0  0  0  0  0  0  0  0  # atno 6907 bound_to 6896
  150.6948  134.4138  159.5183 H   0  0  0  0  0  0  0  0  0  0  0  0  # atno 6908 bound_to 6896
  152.1842  134.8728  160.0574 H   0  0  0  0  0  0  0  0  0  0  0  0  # atno 6909 bound_to 6896
  146.2329  140.2181  142.8337 H   0  0  0  0  0  0  0  0  0  0  0  0  # atno 7974 bound_to 7965
  155.9035  140.3432  155.6044 H   0  0  0  0  0  0  0  0  0  0  0  0  # atno 8008 bound_to 7997
  155.7472  140.0815  157.2237 H   0  0  0  0  0  0  0  0  0  0  0  0  # atno 8009 bound_to 7997
  154.4046  140.1560  156.2670 H   0  0  0  0  0  0  0  0  0  0  0  0  # atno 8010 bound_to 7997
  140.6507  143.7551  150.7571 H   0  0  0  0  0  0  0  0  0  0  0  0  # atno 10167 bound_to 10162
  156.8185  130.5448  149.5700 H   0  0  0  0  0  0  0  0  0  0  0  0  # atno 10718 bound_to 10713
  154.3376  135.2754  155.2439 H   0  0  0  0  0  0  0  0  0  0  0  0  # atno 10763 bound_to 10752
  154.4724  135.5879  153.6334 H   0  0  0  0  0  0  0  0  0  0  0  0  # atno 10764 bound_to 10752
  152.9860  135.6091  154.3574 H   0  0  0  0  0  0  0  0  0  0  0  0  # atno 10765 bound_to 10752
  139.8856  134.8615  156.3288 H   0  0  0  0  0  0  0  0  0  0  0  0  # atno 11005 bound_to 11000
  144.9653  140.8316  143.5488 LP  0  0  0  0  0  0  0  0  0  0  0  0  # atno 17320 bound_to 7965
  145.2157  139.2183  143.5120 LP  0  0  0  0  0  0  0  0  0  0  0  0  # atno 17321 bound_to 7965
  140.1202  143.4619  152.2318 LP  0  0  0  0  0  0  0  0  0  0  0  0  # atno 17342 bound_to 10162
  139.5722  144.7469  151.3860 LP  0  0  0  0  0  0  0  0  0  0  0  0  # atno 17343 bound_to 10162
  156.1002  130.5963  150.9882 LP  0  0  0  0  0  0  0  0  0  0  0  0  # atno 17370 bound_to 10713
  157.6469  131.0902  150.8134 LP  0  0  0  0  0  0  0  0  0  0  0  0  # atno 17371 bound_to 10713
  140.9737  133.7311  156.0571 LP  0  0  0  0  0  0  0  0  0  0  0  0  # atno 17394 bound_to 11000
  140.7838  134.3695  157.5481 LP  0  0  0  0  0  0  0  0  0  0  0  0  # atno 17395 bound_to 11000

$$$$
