AV-unprocessed.smi:45|AV-procd|sdf|409|dock6
  -GOLD-   2262016263D 1   1.00000     0.00000
 Structure written by MMmdl.
 61 64  0  0  0  0  0  0  0  0  2 V2000
  152.4634  140.0512  159.2326 C   0  0  0  0  0  0  0  0  0  0  0  0
  152.5515  139.6329  157.8784 O   0  0  0  0  0  0  0  0  0  0  0  0
  151.4355  139.0688  157.2961 C   0  0  0  0  0  0  0  0  0  0  0  0
  150.1970  138.8997  157.9649 C   0  0  0  0  0  0  0  0  0  0  0  0
  149.1062  138.2975  157.3096 C   0  0  0  0  0  0  0  0  0  0  0  0
  149.2272  137.8560  155.9779 C   0  0  0  0  0  0  0  0  0  0  0  0
  148.0298  137.1975  155.3046 C   0  0  0  0  0  0  0  0  0  0  0  0
  148.2104  135.8216  154.8514 N   0  0  0  0  0  0  0  0  0  0  0  0
  147.1328  134.9232  154.7427 C   0  0  0  0  0  0  0  0  0  0  0  0
  146.4814  134.8504  153.5594 N   0  0  0  0  0  0  0  0  0  0  0  0
  145.4580  134.0007  153.3989 C   0  0  0  0  0  0  0  0  0  0  0  0
  144.7955  133.9492  152.1754 N   0  0  0  0  0  0  0  0  0  0  0  0
  143.7246  132.9914  151.9292 C   0  0  0  0  0  0  0  0  0  0  0  0
  143.8008  132.6548  150.4410 C   0  0  0  0  0  0  0  0  0  0  0  0
  144.3729  133.9290  149.8322 C   0  0  0  0  0  0  0  0  0  0  0  0
  145.3412  134.4391  150.9097 C   0  0  1  0  0  0  0  0  0  0  0  0
  145.5066  135.9722  150.8823 C   0  0  0  0  0  0  0  0  0  0  0  0
  144.3182  136.5944  151.3212 O   0  0  0  0  0  0  0  0  0  0  0  0
  145.0509  133.1841  154.3827 N   0  3  0  0  0  0  0  0  0  0  0  0
  145.6663  133.2183  155.5881 C   0  0  0  0  0  0  0  0  0  0  0  0
  146.7477  134.0932  155.8256 C   0  0  0  0  0  0  0  0  0  0  0  0
  147.3949  134.1489  157.1839 C   0  0  0  0  0  0  0  0  0  0  0  0
  148.1466  135.0721  157.4974 O   0  0  0  0  0  0  0  0  0  0  0  0
  147.1083  133.1195  157.9966 N   0  0  0  0  0  0  0  0  0  0  0  0
  147.5837  132.9853  159.3688 C   0  0  0  0  0  0  0  0  0  0  0  0
  147.1524  134.1429  160.2533 C   0  0  0  0  0  0  0  0  0  0  0  0
  147.4909  134.0746  161.5444 N   0  0  0  0  0  0  0  0  0  0  0  0
  147.1172  135.1081  162.3296 C   0  0  0  0  0  0  0  0  0  0  0  0
  146.4034  136.2092  161.8151 C   0  0  0  0  0  0  0  0  0  0  0  0
  146.1030  136.1702  160.4387 C   0  0  0  0  0  0  0  0  0  0  0  0
  146.4792  135.1339  159.6580 N   0  0  0  0  0  0  0  0  0  0  0  0
  150.4504  138.0449  155.2993 C   0  0  0  0  0  0  0  0  0  0  0  0
  151.5458  138.6378  155.9556 C   0  0  0  0  0  0  0  0  0  0  0  0
  153.0340  138.8267  155.1000 Cl  0  0  0  0  0  0  0  0  0  0  0  0
  146.3126  133.9631  150.7666 H   0  0  0  0  0  0  0  0  0  0  0  0
  153.4230  140.4637  159.5440 H   0  0  0  0  0  0  0  0  0  0  0  0
  152.2338  139.2146  159.8940 H   0  0  0  0  0  0  0  0  0  0  0  0
  151.7124  140.8319  159.3609 H   0  0  0  0  0  0  0  0  0  0  0  0
  150.0587  139.2162  158.9875 H   0  0  0  0  0  0  0  0  0  0  0  0
  148.1736  138.1686  157.8393 H   0  0  0  0  0  0  0  0  0  0  0  0
  147.1747  137.2324  155.9809 H   0  0  0  0  0  0  0  0  0  0  0  0
  147.7578  137.8012  154.4387 H   0  0  0  0  0  0  0  0  0  0  0  0
  149.1461  135.4410  154.8786 H   0  0  0  0  0  0  0  0  0  0  0  0
  143.8244  132.0935  152.5405 H   0  0  0  0  0  0  0  0  0  0  0  0
  142.7714  133.4629  152.1700 H   0  0  0  0  0  0  0  0  0  0  0  0
  144.4943  131.8276  150.2822 H   0  0  0  0  0  0  0  0  0  0  0  0
  142.8357  132.3735  150.0187 H   0  0  0  0  0  0  0  0  0  0  0  0
  144.8612  133.7590  148.8721 H   0  0  0  0  0  0  0  0  0  0  0  0
  143.5649  134.6451  149.6734 H   0  0  0  0  0  0  0  0  0  0  0  0
  146.3340  136.2874  151.5188 H   0  0  0  0  0  0  0  0  0  0  0  0
  145.7261  136.3324  149.8786 H   0  0  0  0  0  0  0  0  0  0  0  0
  143.9986  137.1546  150.6300 H   0  0  0  0  0  0  0  0  0  0  0  0
  145.2614  132.5443  156.3296 H   0  0  0  0  0  0  0  0  0  0  0  0
  146.4935  132.3943  157.6576 H   0  0  0  0  0  0  0  0  0  0  0  0
  147.1829  132.0598  159.7832 H   0  0  0  0  0  0  0  0  0  0  0  0
  148.6705  132.8795  159.3772 H   0  0  0  0  0  0  0  0  0  0  0  0
  147.3880  135.0558  163.3736 H   0  0  0  0  0  0  0  0  0  0  0  0
  146.1036  137.0367  162.4409 H   0  0  0  0  0  0  0  0  0  0  0  0
  145.5596  136.9728  159.9625 H   0  0  0  0  0  0  0  0  0  0  0  0
  150.5626  137.7284  154.2726 H   0  0  0  0  0  0  0  0  0  0  0  0
  144.2683  132.5458  154.2376 H   0  0  0  0  0  0  0  0  0  0  0  0
  1  2  1  0  0  0  0
  1 36  1  0  0  0  0
  1 37  1  0  0  0  0
  1 38  1  0  0  0  0
  2  3  1  0  0  0  0
  3 33  1  0  0  0  0
  3  4  2  0  0  0  0
  4  5  1  0  0  0  0
  4 39  1  0  0  0  0
  5  6  2  0  0  0  0
  5 40  1  0  0  0  0
  6  7  1  0  0  0  0
  6 32  1  0  0  0  0
  7  8  1  0  0  0  0
  7 41  1  0  0  0  0
  7 42  1  0  0  0  0
  8  9  1  0  0  0  0
  8 43  1  0  0  0  0
  9 21  1  0  0  0  0
  9 10  2  0  0  0  0
 10 11  1  0  0  0  0
 11 12  1  0  0  0  0
 11 19  2  0  0  0  0
 12 16  1  0  0  0  0
 12 13  1  0  0  0  0
 13 14  1  0  0  0  0
 13 44  1  0  0  0  0
 13 45  1  0  0  0  0
 14 15  1  0  0  0  0
 14 46  1  0  0  0  0
 14 47  1  0  0  0  0
 15 16  1  0  0  0  0
 15 48  1  0  0  0  0
 15 49  1  0  0  0  0
 16 35  1  0  0  0  0
 16 17  1  0  0  0  0
 17 18  1  0  0  0  0
 17 50  1  0  0  0  0
 17 51  1  0  0  0  0
 18 52  1  0  0  0  0
 19 20  1  0  0  0  0
 19 61  1  0  0  0  0
 20 21  2  0  0  0  0
 20 53  1  0  0  0  0
 21 22  1  0  0  0  0
 22 23  2  0  0  0  0
 22 24  1  0  0  0  0
 24 25  1  0  0  0  0
 24 54  1  0  0  0  0
 25 26  1  0  0  0  0
 25 55  1  0  0  0  0
 25 56  1  0  0  0  0
 26 31  1  0  0  0  0
 26 27  2  0  0  0  0
 27 28  1  0  0  0  0
 28 29  2  0  0  0  0
 28 57  1  0  0  0  0
 29 30  1  0  0  0  0
 29 58  1  0  0  0  0
 30 31  2  0  0  0  0
 30 59  1  0  0  0  0
 32 33  2  0  0  0  0
 32 60  1  0  0  0  0
 33 34  1  0  0  0  0
M  CHG  1  19   1
M  END
> <s_m_source_file>
AV-unprocessed.smi

> <i_m_source_file_index>
45

> <i_lp_mmshare_version>
43012

> <i_f3d_flags>
0

> <s_epik_input>
W0NIM11PYzFbY0hdW2NIXWMoW2NIXWMxQ2wpW0NIMl1bTkhdYzJuYyhOM1tDSDJdW0NIMl1bQ0gyXVtDQEhdM1tDSDJdW09IXSluW2NIXWMyQyg9TylbTkhdW0NIMl1jNG5bY0hdW2NIXVtjSF1uNA==

> <s_epik_cmdline>
J2VwaWtfcHl0aG9uJywgJy1waCcsICc3LjAnLCAnLXRuJywgJzgnLCAnLW1hJywgJzIwMCcsICctbWV0YWxfYmluZGluZycsICctaW1hZScsICc8aW5maWxlLm1hZT4nLCAnLW9tYWUnLCAnPG91dGZpbGUubWFlPic=

> <r_lp_tautomer_probability>
0.575011

> <r_epik_Ionization_Penalty>
1.61454

> <r_epik_Ionization_Penalty_Charging>
1.61448

> <r_epik_Ionization_Penalty_Neutral>
6.30284e-05

> <r_epik_State_Penalty>
1.91123

> <r_epik_Charging_Adjusted_Penalty>
3.52572

> <i_epik_Tot_Q>
1

> <i_epik_Tot_abs_Q>
1

> <r_epik_Metal_State_Penalty>
1.95488

> <b_epik_Metal_Only>
0

> <s_epik_Chemistry_Notes>
This compound contains an electron-poor aromatic ring that is susceptible to covalent hydrolysis at low pH, typically resulting in measured values for nitrogen ring protonation that are around two units higher than predicted values.

> <s_lp_Force_Field>
OPLS_2005

> <r_lp_Energy>
32.8606

> <b_lp_Chiralities_Consistent>
1

> <s_lp_Variant>
AV-unprocessed.smi:45-3

> <Gold.Version>
5.8.1

> <Gold.Id.Protein>
6NUR|6NUR_protein|mol2

> <Gold.PLP.Fitness>
50.5865

> <Gold.PLP.PLP>
-40.4741

> <Gold.PLP.part.hbond>
-3.6355

> <Gold.PLP.part.metal>
0.0000

> <Gold.PLP.part.buried>
-3.3959

> <Gold.PLP.part.nonpolar>
-33.1001

> <Gold.PLP.part.repulsive>
0.2253

> <Gold.PLP.ligand.clash>
0.0000

> <Gold.PLP.ligand.torsion>
1.1753

> <Gold.PLP.Chemscore.Hbond>
4.0000

> <Gold.PLP.Chemscore.CHOScore>
0.0000

> <Gold.PLP.Chemscore.Metal>
0.0000

> <Gold.Chemscore.Hbonds>
donor molecule, donor type, donor heavy atom, donor atom, acceptor molecule, acceptor atom, score
      L1  H    18    52       P1 10171  1.00
      L1  H    19    61       P1 10957  2.00
      P1  H  7997  8010       L1     2  0.50

> <Gold.PLP.Chemscore.Internal.Correction>
0.4629

> <Gold.Rescore>
     Score         DG    S(hbond)    S(metal)    S(lipo)     H(rot)  DE(clash)    DE(int)     intcor
     15.16     -19.48       2.85        0.00     102.69       2.94       0.25       4.07       ----

> <Gold.Chemscore.Fitness>
15.1581

> <Gold.Chemscore.DG>
-19.4787

> <Gold.Chemscore.ZeroCoef>
-5.4800

> <Gold.Chemscore.Hbond>
2.8470

> <Gold.Chemscore.Metal>
0.0000

> <Gold.Chemscore.Lipo>
102.6912

> <Gold.Chemscore.Internal_Hbond>
0.0000

> <Gold.Chemscore.DEClash>
0.2487

> <Gold.Chemscore.DEInternal>
4.0718

> <Gold.Chemscore.Rot>
2.9395

> <Gold.Chemscore.Internal.Correction>
   9.000000E+99

> <Gold.Chemscore.Hbonds>
donor molecule, donor type, donor heavy atom, donor atom, acceptor molecule, acceptor atom, score
      L1  H    18    52       P1 10171  0.98
      L1  H    19    61       P1 10957  0.75
      P1  H  7997  8010       L1     2  0.42

> <Gold.Chemscore.Hbond.Weighted>
-9.5089

> <Gold.Chemscore.Metal.Weighted>
-0.0000

> <Gold.Chemscore.Lipo.Weighted>
-12.0149

> <Gold.Chemscore.Internal_Hbond.Weighted>
0.0000

> <Gold.Chemscore.DEClash.Weighted>
0.2487

> <Gold.Chemscore.DEInternal.Weighted>
4.0718

> <Gold.Chemscore.Rot.Weighted>
7.5251

> <Gold.Chemscore.Internal.Correction.Weighted>
   9.000000E+99

> <Gold.Protein.RotatedTorsions>
[ 6907 6896 6895 6894 ] final  142.43 input  -60.11 | X-H torsion
[ 7974 7965 7964 7962 ] final  -54.15 input  175.53 | X-H torsion
[ 8008 7997 7996 7995 ] final   38.59 input   59.86 | X-H torsion
[ 10167 10162 10161 10158 ] final  134.20 input  -65.29 | X-H torsion
[ 10718 10713 10712 10709 ] final   68.60 input   66.30 | X-H torsion
[ 10763 10752 10751 10750 ] final  122.03 input  -60.55 | X-H torsion
[ 11005 11000 10999 10996 ] final  -36.77 input  -57.11 | X-H torsion

> <Gold.Protein.ActiveResidues>
 VAL166  LYS551  ARG553  GLY616  TRP617  ASP618  TYR619  PRO620  LYS621  CYS622 
 ASP623  PHE694  ASN695  SER759  ASP760  ASP761  ALA762  ILE779  LEU786  VAL792 
 PHE793  MET794  SER795  GLU796  ALA797  LYS798  CYS799  TRP800  GLU811  SER814 

> <Gold.Protein.RotatedAtoms>
  152.2188  133.4967  159.5150 H   0  0  0  0  0  0  0  0  0  0  0  0  # atno 6907 bound_to 6896
  150.7008  134.1370  159.4099 H   0  0  0  0  0  0  0  0  0  0  0  0  # atno 6908 bound_to 6896
  151.9290  135.0265  160.0578 H   0  0  0  0  0  0  0  0  0  0  0  0  # atno 6909 bound_to 6896
  145.8888  140.8087  142.9802 H   0  0  0  0  0  0  0  0  0  0  0  0  # atno 7974 bound_to 7965
  155.2227  140.3332  155.4313 H   0  0  0  0  0  0  0  0  0  0  0  0  # atno 8008 bound_to 7997
  156.2326  140.1858  156.7249 H   0  0  0  0  0  0  0  0  0  0  0  0  # atno 8009 bound_to 7997
  154.6005  140.0624  156.9347 H   0  0  0  0  0  0  0  0  0  0  0  0  # atno 8010 bound_to 7997
  139.5266  144.6579  151.5106 H   0  0  0  0  0  0  0  0  0  0  0  0  # atno 10167 bound_to 10162
  157.6298  130.9382  150.0399 H   0  0  0  0  0  0  0  0  0  0  0  0  # atno 10718 bound_to 10713
  153.6234  135.3409  155.3018 H   0  0  0  0  0  0  0  0  0  0  0  0  # atno 10763 bound_to 10752
  154.8595  135.4278  154.2183 H   0  0  0  0  0  0  0  0  0  0  0  0  # atno 10764 bound_to 10752
  153.3061  135.7028  153.7231 H   0  0  0  0  0  0  0  0  0  0  0  0  # atno 10765 bound_to 10752
  140.9901  133.7009  156.1834 H   0  0  0  0  0  0  0  0  0  0  0  0  # atno 11005 bound_to 11000
  144.6729  140.1497  143.7431 LP  0  0  0  0  0  0  0  0  0  0  0  0  # atno 17320 bound_to 7965
  145.8934  139.2389  143.1536 LP  0  0  0  0  0  0  0  0  0  0  0  0  # atno 17321 bound_to 7965
  140.6413  143.8884  150.6694 LP  0  0  0  0  0  0  0  0  0  0  0  0  # atno 17342 bound_to 10162
  140.2219  143.3802  152.1636 LP  0  0  0  0  0  0  0  0  0  0  0  0  # atno 17343 bound_to 10162
  156.1494  130.3642  149.9461 LP  0  0  0  0  0  0  0  0  0  0  0  0  # atno 17370 bound_to 10713
  156.7484  130.9106  151.3636 LP  0  0  0  0  0  0  0  0  0  0  0  0  # atno 17371 bound_to 10713
  140.7054  134.4519  157.5584 LP  0  0  0  0  0  0  0  0  0  0  0  0  # atno 17394 bound_to 11000
  139.8988  134.8605  156.1986 LP  0  0  0  0  0  0  0  0  0  0  0  0  # atno 17395 bound_to 11000

$$$$
