AV-unprocessed.smi:3165|AV-procd|sdf|12092|dock8
  -GOLD-   2272017523D 1   1.00000     0.00000
 Structure written by MMmdl.
 37 38  0  0  0  0  0  0  0  0  1 V2000
  153.3295  137.6328  155.9486 C   0  0  0  0  0  0  0  0  0  0  0  0
  152.4059  138.7686  155.4800 C   0  0  1  0  0  0  0  0  0  0  0  0
  150.9953  138.2592  155.0876 C   0  0  0  0  0  0  0  0  0  0  0  0
  150.0255  139.3201  154.8646 N   0  0  0  0  0  0  0  0  0  0  0  0
  148.6956  139.2068  154.5158 C   0  0  0  0  0  0  0  0  0  0  0  0
  148.1911  140.4715  154.4156 C   0  0  0  0  0  0  0  0  0  0  0  0
  149.3044  141.3036  154.7197 C   0  0  0  0  0  0  0  0  0  0  0  0
  150.4011  140.6123  154.9830 N   0  0  0  0  0  0  0  0  0  0  0  0
  152.3763  139.8204  156.5021 N   0  0  0  0  0  0  0  0  0  0  0  0
  151.5557  139.5377  157.6798 C   0  0  0  0  0  0  0  0  0  0  0  0
  151.5970  140.7057  158.6763 C   0  0  1  0  0  0  0  0  0  0  0  0
  152.9783  140.8689  159.3441 C   0  0  0  0  0  0  0  0  0  0  0  0
  152.9921  142.0986  160.2590 C   0  0  0  0  0  0  0  0  0  0  0  0
  152.5268  143.3306  159.4761 C   0  0  0  0  0  0  0  0  0  0  0  0
  151.1810  143.0495  158.7891 C   0  0  0  0  0  0  0  0  0  0  0  0
  151.2905  141.8981  157.9571 O   0  0  0  0  0  0  0  0  0  0  0  0
  153.3770  136.8347  155.2074 H   0  0  0  0  0  0  0  0  0  0  0  0
  152.9893  137.1959  156.8882 H   0  0  0  0  0  0  0  0  0  0  0  0
  154.3458  137.9957  156.1051 H   0  0  0  0  0  0  0  0  0  0  0  0
  152.8554  139.1864  154.5783 H   0  0  0  0  0  0  0  0  0  0  0  0
  151.0285  137.6176  154.2068 H   0  0  0  0  0  0  0  0  0  0  0  0
  150.6115  137.6264  155.8888 H   0  0  0  0  0  0  0  0  0  0  0  0
  148.2237  138.2457  154.3735 H   0  0  0  0  0  0  0  0  0  0  0  0
  147.1812  140.7586  154.1637 H   0  0  0  0  0  0  0  0  0  0  0  0
  149.3485  142.3822  154.7553 H   0  0  0  0  0  0  0  0  0  0  0  0
  152.0751  140.6936  156.0817 H   0  0  0  0  0  0  0  0  0  0  0  0
  150.5244  139.3335  157.3894 H   0  0  0  0  0  0  0  0  0  0  0  0
  151.9239  138.6432  158.1818 H   0  0  0  0  0  0  0  0  0  0  0  0
  150.8282  140.5513  159.4362 H   0  0  0  0  0  0  0  0  0  0  0  0
  153.2330  139.9783  159.9196 H   0  0  0  0  0  0  0  0  0  0  0  0
  153.7475  140.9763  158.5781 H   0  0  0  0  0  0  0  0  0  0  0  0
  152.3290  141.9310  161.1086 H   0  0  0  0  0  0  0  0  0  0  0  0
  153.9905  142.2604  160.6660 H   0  0  0  0  0  0  0  0  0  0  0  0
  152.4403  144.1905  160.1409 H   0  0  0  0  0  0  0  0  0  0  0  0
  153.2723  143.5894  158.7234 H   0  0  0  0  0  0  0  0  0  0  0  0
  150.3899  142.9050  159.5264 H   0  0  0  0  0  0  0  0  0  0  0  0
  150.8896  143.9013  158.1743 H   0  0  0  0  0  0  0  0  0  0  0  0
  1  2  1  0  0  0  0
  1 17  1  0  0  0  0
  1 18  1  0  0  0  0
  1 19  1  0  0  0  0
  2  3  1  0  0  0  0
  2  9  1  0  0  0  0
  2 20  1  0  0  0  0
  3  4  1  0  0  0  0
  3 21  1  0  0  0  0
  3 22  1  0  0  0  0
  4  8  1  0  0  0  0
  4  5  1  0  0  0  0
  5  6  2  0  0  0  0
  5 23  1  0  0  0  0
  6  7  1  0  0  0  0
  6 24  1  0  0  0  0
  7  8  2  0  0  0  0
  7 25  1  0  0  0  0
  9 10  1  0  0  0  0
  9 26  1  0  0  0  0
 10 11  1  0  0  0  0
 10 27  1  0  0  0  0
 10 28  1  0  0  0  0
 11 16  1  0  0  0  0
 11 12  1  0  0  0  0
 11 29  1  0  0  0  0
 12 13  1  0  0  0  0
 12 30  1  0  0  0  0
 12 31  1  0  0  0  0
 13 14  1  0  0  0  0
 13 32  1  0  0  0  0
 13 33  1  0  0  0  0
 14 15  1  0  0  0  0
 14 34  1  0  0  0  0
 14 35  1  0  0  0  0
 15 16  1  0  0  0  0
 15 36  1  0  0  0  0
 15 37  1  0  0  0  0
M  END
> <s_m_source_file>
AV-unprocessed.smi

> <i_m_source_file_index>
3165

> <i_lp_mmshare_version>
43012

> <i_f3d_flags>
0

> <s_epik_input>
bjFbY0hdW2NIXVtjSF1uMVtDSDJdW0NAQEhdKFtDSDNdKVtOSF1bQ0gyXVtDQEBIXTJbQ0gyXVtDSDJdW0NIMl1bQ0gyXU8y

> <s_epik_cmdline>
J2VwaWtfcHl0aG9uJywgJy1waCcsICc3LjAnLCAnLXRuJywgJzgnLCAnLW1hJywgJzIwMCcsICctbWV0YWxfYmluZGluZycsICctaW1hZScsICc8aW5maWxlLm1hZT4nLCAnLW9tYWUnLCAnPG91dGZpbGUubWFlPic=

> <r_lp_tautomer_probability>
1

> <r_epik_Ionization_Penalty>
2.51982

> <r_epik_Ionization_Penalty_Charging>
0

> <r_epik_Ionization_Penalty_Neutral>
2.51982

> <r_epik_State_Penalty>
2.68614

> <r_epik_Charging_Adjusted_Penalty>
2.68614

> <i_epik_Tot_Q>
0

> <i_epik_Tot_abs_Q>
0

> <r_epik_Metal_State_Penalty>
2.6861

> <b_epik_Metal_Only>
0

> <s_lp_Force_Field>
OPLS_2005

> <r_lp_Energy>
14.4807

> <b_lp_Chiralities_Consistent>
1

> <s_lp_Variant>
AV-unprocessed.smi:3165-8

> <Gold.Version>
5.8.1

> <Gold.Id.Protein>
6NUR|6NUR_protein|mol2

> <Gold.PLP.Fitness>
40.8120

> <Gold.PLP.PLP>
-32.7041

> <Gold.PLP.part.hbond>
-2.0000

> <Gold.PLP.part.metal>
0.0000

> <Gold.PLP.part.buried>
-0.7730

> <Gold.PLP.part.nonpolar>
-30.2664

> <Gold.PLP.part.repulsive>
0.1208

> <Gold.PLP.ligand.clash>
0.0000

> <Gold.PLP.ligand.torsion>
0.2142

> <Gold.PLP.Chemscore.Hbond>
1.8384

> <Gold.PLP.Chemscore.CHOScore>
1.0000

> <Gold.PLP.Chemscore.Metal>
0.0000

> <Gold.Chemscore.Hbonds>
donor molecule, donor type, donor heavy atom, donor atom, acceptor molecule, acceptor atom, score
      P1  H  7989  7998       L1     8  0.93
      P1  H  7997  8008       L1     9  0.84
      L1  C     7    25       P1  8028  0.98

> <Gold.PLP.Chemscore.Internal.Correction>
0.0211

> <Gold.Rescore>
     Score         DG    S(hbond)    S(metal)    S(lipo)     H(rot)  DE(clash)    DE(int)     intcor
     15.22     -15.87       0.99        0.00      95.05       1.57       0.26       0.39       ----

> <Gold.Chemscore.Fitness>
15.2185

> <Gold.Chemscore.DG>
-15.8705

> <Gold.Chemscore.ZeroCoef>
-5.4800

> <Gold.Chemscore.Hbond>
0.9870

> <Gold.Chemscore.Metal>
0.0000

> <Gold.Chemscore.Lipo>
95.0518

> <Gold.Chemscore.Internal_Hbond>
0.0000

> <Gold.Chemscore.DEClash>
0.2605

> <Gold.Chemscore.DEInternal>
0.3916

> <Gold.Chemscore.Rot>
1.5731

> <Gold.Chemscore.Internal.Correction>
   9.000000E+99

> <Gold.Chemscore.Hbonds>
donor molecule, donor type, donor heavy atom, donor atom, acceptor molecule, acceptor atom, score
      P1  H  7989  7998       L1     8  0.24
      P1  H  7997  8008       L1     9  0.05

> <Gold.Chemscore.Hbond.Weighted>
-3.2967

> <Gold.Chemscore.Metal.Weighted>
-0.0000

> <Gold.Chemscore.Lipo.Weighted>
-11.1211

> <Gold.Chemscore.Internal_Hbond.Weighted>
0.0000

> <Gold.Chemscore.DEClash.Weighted>
0.2605

> <Gold.Chemscore.DEInternal.Weighted>
0.3916

> <Gold.Chemscore.Rot.Weighted>
4.0273

> <Gold.Chemscore.Internal.Correction.Weighted>
   9.000000E+99

> <Gold.Protein.RotatedTorsions>
[ 6907 6896 6895 6894 ] final  -42.71 input  -60.11 | X-H torsion
[ 7974 7965 7964 7962 ] final   66.76 input  175.53 | X-H torsion
[ 8008 7997 7996 7995 ] final  -62.86 input   59.86 | X-H torsion
[ 10167 10162 10161 10158 ] final   50.66 input  -65.29 | X-H torsion
[ 10718 10713 10712 10709 ] final  -64.43 input   66.30 | X-H torsion
[ 10763 10752 10751 10750 ] final   -6.76 input  -60.55 | X-H torsion
[ 11005 11000 10999 10996 ] final   11.16 input  -57.11 | X-H torsion

> <Gold.Protein.ActiveResidues>
 VAL166  LYS551  ARG553  GLY616  TRP617  ASP618  TYR619  PRO620  LYS621  CYS622 
 ASP623  PHE694  ASN695  SER759  ASP760  ASP761  ALA762  ILE779  LEU786  VAL792 
 PHE793  MET794  SER795  GLU796  ALA797  LYS798  CYS799  TRP800  GLU811  SER814 

> <Gold.Protein.RotatedAtoms>
  150.9522  134.8920  159.7678 H   0  0  0  0  0  0  0  0  0  0  0  0  # atno 6907 bound_to 6896
  152.5124  134.3791  159.9355 H   0  0  0  0  0  0  0  0  0  0  0  0  # atno 6908 bound_to 6896
  151.3806  133.3782  159.2744 H   0  0  0  0  0  0  0  0  0  0  0  0  # atno 6909 bound_to 6896
  145.8228  139.3094  143.1033 H   0  0  0  0  0  0  0  0  0  0  0  0  # atno 7974 bound_to 7965
  154.4522  140.0987  156.6652 H   0  0  0  0  0  0  0  0  0  0  0  0  # atno 8008 bound_to 7997
  155.5248  140.3480  155.4396 H   0  0  0  0  0  0  0  0  0  0  0  0  # atno 8009 bound_to 7997
  156.0705  140.1348  156.9823 H   0  0  0  0  0  0  0  0  0  0  0  0  # atno 8010 bound_to 7997
  140.2701  144.3275  150.6292 H   0  0  0  0  0  0  0  0  0  0  0  0  # atno 10167 bound_to 10162
  156.0730  130.4233  150.1419 H   0  0  0  0  0  0  0  0  0  0  0  0  # atno 10718 bound_to 10713
  153.4169  135.7009  153.6321 H   0  0  0  0  0  0  0  0  0  0  0  0  # atno 10763 bound_to 10752
  153.4791  135.3697  155.2433 H   0  0  0  0  0  0  0  0  0  0  0  0  # atno 10764 bound_to 10752
  154.8720  135.4061  154.3530 H   0  0  0  0  0  0  0  0  0  0  0  0  # atno 10765 bound_to 10752
  140.5064  134.0695  155.7807 H   0  0  0  0  0  0  0  0  0  0  0  0  # atno 11005 bound_to 11000
  145.9656  140.8801  143.0188 LP  0  0  0  0  0  0  0  0  0  0  0  0  # atno 17320 bound_to 7965
  144.6746  140.1874  143.7400 LP  0  0  0  0  0  0  0  0  0  0  0  0  # atno 17321 bound_to 7965
  140.5896  143.2168  151.7277 LP  0  0  0  0  0  0  0  0  0  0  0  0  # atno 17342 bound_to 10162
  139.4991  144.3959  152.0232 LP  0  0  0  0  0  0  0  0  0  0  0  0  # atno 17343 bound_to 10162
  156.9466  130.9761  151.3506 LP  0  0  0  0  0  0  0  0  0  0  0  0  # atno 17370 bound_to 10713
  157.5810  130.8377  149.8523 LP  0  0  0  0  0  0  0  0  0  0  0  0  # atno 17371 bound_to 10713
  141.1409  133.9140  157.2329 LP  0  0  0  0  0  0  0  0  0  0  0  0  # atno 17394 bound_to 11000
  139.9684  135.0135  156.9447 LP  0  0  0  0  0  0  0  0  0  0  0  0  # atno 17395 bound_to 11000

$$$$
