AV-unprocessed.smi:3188|AV-procd|sdf|12183|dock4
  -GOLD-   2272018 23D 1   1.00000     0.00000
 Structure written by MMmdl.
 40 41  0  0  0  0  0  0  0  0  2 V2000
  151.8960  144.9124  158.8065 C   0  0  0  0  0  0  0  0  0  0  0  0
  152.1469  143.4286  159.0198 C   0  0  0  0  0  0  0  0  0  0  0  0
  152.9841  143.0038  159.9869 C   0  0  0  0  0  0  0  0  0  0  0  0
  153.3474  141.5516  160.2429 C   0  0  0  0  0  0  0  0  0  0  0  0
  152.5185  140.5647  159.4048 C   0  0  0  0  0  0  0  0  0  0  0  0
  152.2459  141.1150  157.9941 C   0  0  1  0  0  0  0  0  0  0  0  0
  151.6276  140.0528  157.0685 C   0  0  0  0  0  0  0  0  0  0  0  0
  151.4532  142.4515  158.0606 C   0  0  1  0  0  0  0  0  0  0  0  0
  149.9547  142.2484  158.4084 C   0  0  0  0  0  0  0  0  0  0  0  0
  149.1525  143.4771  158.2477 N   0  3  0  0  0  0  0  0  0  0  0  0
  147.7335  143.3228  158.6220 C   0  0  0  0  0  0  0  0  0  0  0  0
  147.3558  144.2847  159.7573 C   0  0  0  0  0  0  0  0  0  0  0  0
  146.3298  143.7256  160.6160 N   0  0  0  0  0  0  0  0  0  0  0  0
  145.2973  144.3760  161.2595 C   0  0  0  0  0  0  0  0  0  0  0  0
  144.6515  143.3696  161.9196 C   0  0  0  0  0  0  0  0  0  0  0  0
  145.3073  142.1686  161.6542 N   0  0  0  0  0  0  0  0  0  0  0  0
  146.3154  142.3957  160.8724 N   0  0  0  0  0  0  0  0  0  0  0  0
  152.0117  145.1735  157.7543 H   0  0  0  0  0  0  0  0  0  0  0  0
  152.6057  145.5145  159.3753 H   0  0  0  0  0  0  0  0  0  0  0  0
  150.8977  145.2006  159.1310 H   0  0  0  0  0  0  0  0  0  0  0  0
  153.4736  143.7257  160.6247 H   0  0  0  0  0  0  0  0  0  0  0  0
  154.4053  141.4345  160.0053 H   0  0  0  0  0  0  0  0  0  0  0  0
  153.2368  141.3290  161.3044 H   0  0  0  0  0  0  0  0  0  0  0  0
  153.0444  139.6109  159.3480 H   0  0  0  0  0  0  0  0  0  0  0  0
  151.5742  140.3576  159.9090 H   0  0  0  0  0  0  0  0  0  0  0  0
  153.2179  141.3518  157.5574 H   0  0  0  0  0  0  0  0  0  0  0  0
  150.7120  139.6308  157.4828 H   0  0  0  0  0  0  0  0  0  0  0  0
  152.3203  139.2245  156.9169 H   0  0  0  0  0  0  0  0  0  0  0  0
  151.3978  140.4696  156.0876 H   0  0  0  0  0  0  0  0  0  0  0  0
  151.5060  142.8909  157.0633 H   0  0  0  0  0  0  0  0  0  0  0  0
  149.5078  141.4968  157.7591 H   0  0  0  0  0  0  0  0  0  0  0  0
  149.8500  141.8880  159.4323 H   0  0  0  0  0  0  0  0  0  0  0  0
  149.5593  144.1996  158.8246 H   0  0  0  0  0  0  0  0  0  0  0  0
  147.1078  143.5133  157.7488 H   0  0  0  0  0  0  0  0  0  0  0  0
  147.5557  142.2906  158.9278 H   0  0  0  0  0  0  0  0  0  0  0  0
  148.2291  144.5213  160.3674 H   0  0  0  0  0  0  0  0  0  0  0  0
  146.9889  145.2277  159.3495 H   0  0  0  0  0  0  0  0  0  0  0  0
  145.1212  145.4398  161.1962 H   0  0  0  0  0  0  0  0  0  0  0  0
  143.7797  143.4081  162.5562 H   0  0  0  0  0  0  0  0  0  0  0  0
  149.2018  143.7684  157.2819 H   0  0  0  0  0  0  0  0  0  0  0  0
  1  2  1  0  0  0  0
  1 18  1  0  0  0  0
  1 19  1  0  0  0  0
  1 20  1  0  0  0  0
  2  8  1  0  0  0  0
  2  3  2  0  0  0  0
  3  4  1  0  0  0  0
  3 21  1  0  0  0  0
  4  5  1  0  0  0  0
  4 22  1  0  0  0  0
  4 23  1  0  0  0  0
  5  6  1  0  0  0  0
  5 24  1  0  0  0  0
  5 25  1  0  0  0  0
  6  7  1  0  0  0  0
  6  8  1  0  0  0  0
  6 26  1  0  0  0  0
  7 27  1  0  0  0  0
  7 28  1  0  0  0  0
  7 29  1  0  0  0  0
  8  9  1  0  0  0  0
  8 30  1  0  0  0  0
  9 10  1  0  0  0  0
  9 31  1  0  0  0  0
  9 32  1  0  0  0  0
 10 11  1  0  0  0  0
 10 33  1  0  0  0  0
 10 40  1  0  0  0  0
 11 12  1  0  0  0  0
 11 34  1  0  0  0  0
 11 35  1  0  0  0  0
 12 13  1  0  0  0  0
 12 36  1  0  0  0  0
 12 37  1  0  0  0  0
 13 17  1  0  0  0  0
 13 14  1  0  0  0  0
 14 15  2  0  0  0  0
 14 38  1  0  0  0  0
 15 16  1  0  0  0  0
 15 39  1  0  0  0  0
 16 17  2  0  0  0  0
M  CHG  1  10   1
M  END
> <s_m_source_file>
AV-unprocessed.smi

> <i_m_source_file_index>
3188

> <i_lp_mmshare_version>
43012

> <i_f3d_flags>
0

> <s_epik_input>
W0NIM11DMT1bQ0hdW0NIMl1bQ0gyXVtDQEBIXShbQ0gzXSlbQ0BIXTFbQ0gyXVtOSF1bQ0gyXVtDSDJdbjJbY0hdW2NIXW5uMg==

> <s_epik_cmdline>
J2VwaWtfcHl0aG9uJywgJy1waCcsICc3LjAnLCAnLXRuJywgJzgnLCAnLW1hJywgJzIwMCcsICctbWV0YWxfYmluZGluZycsICctaW1hZScsICc8aW5maWxlLm1hZT4nLCAnLW9tYWUnLCAnPG91dGZpbGUubWFlPic=

> <r_lp_tautomer_probability>
1

> <r_epik_Ionization_Penalty>
0.007268

> <r_epik_Ionization_Penalty_Charging>
0.00726786

> <r_epik_Ionization_Penalty_Neutral>
1.34882e-07

> <r_epik_State_Penalty>
0.00542069

> <r_epik_Charging_Adjusted_Penalty>
0.0126886

> <i_epik_Tot_Q>
1

> <i_epik_Tot_abs_Q>
1

> <r_epik_Metal_State_Penalty>
-0

> <b_epik_Metal_Only>
0

> <s_lp_Force_Field>
OPLS_2005

> <r_lp_Energy>
14.7496

> <b_lp_Chiralities_Consistent>
1

> <s_lp_Variant>
AV-unprocessed.smi:3188-1

> <Gold.Version>
5.8.1

> <Gold.Id.Protein>
6NUR|6NUR_protein|mol2

> <Gold.PLP.Fitness>
47.2145

> <Gold.PLP.PLP>
-39.1121

> <Gold.PLP.part.hbond>
-5.7501

> <Gold.PLP.part.metal>
0.0000

> <Gold.PLP.part.buried>
-0.8557

> <Gold.PLP.part.nonpolar>
-31.7443

> <Gold.PLP.part.repulsive>
0.0729

> <Gold.PLP.ligand.clash>
0.0000

> <Gold.PLP.ligand.torsion>
0.9570

> <Gold.PLP.Chemscore.Hbond>
3.3197

> <Gold.PLP.Chemscore.CHOScore>
0.0000

> <Gold.PLP.Chemscore.Metal>
0.0000

> <Gold.Chemscore.Hbonds>
donor molecule, donor type, donor heavy atom, donor atom, acceptor molecule, acceptor atom, score
      L1  H    10    40       P1  8028  2.00
      P1  H  6933  6944       L1    17  0.21
      P1  H  6934  6946       L1    17  0.95

> <Gold.PLP.Chemscore.Internal.Correction>
0.0573

> <Gold.Rescore>
     Score         DG    S(hbond)    S(metal)    S(lipo)     H(rot)  DE(clash)    DE(int)     intcor
     15.84     -16.71       1.31        0.00      97.70       1.78       0.04       0.83       ----

> <Gold.Chemscore.Fitness>
15.8428

> <Gold.Chemscore.DG>
-16.7127

> <Gold.Chemscore.ZeroCoef>
-5.4800

> <Gold.Chemscore.Hbond>
1.3055

> <Gold.Chemscore.Metal>
0.0000

> <Gold.Chemscore.Lipo>
97.7028

> <Gold.Chemscore.Internal_Hbond>
0.0000

> <Gold.Chemscore.DEClash>
0.0431

> <Gold.Chemscore.DEInternal>
0.8268

> <Gold.Chemscore.Rot>
1.7809

> <Gold.Chemscore.Internal.Correction>
   9.000000E+99

> <Gold.Chemscore.Hbonds>
donor molecule, donor type, donor heavy atom, donor atom, acceptor molecule, acceptor atom, score
      L1  H    10    40       P1  8028  0.35
      P1  H  6933  6944       L1    17  0.02
      P1  H  6934  6946       L1    17  0.21

> <Gold.Chemscore.Hbond.Weighted>
-4.3605

> <Gold.Chemscore.Metal.Weighted>
-0.0000

> <Gold.Chemscore.Lipo.Weighted>
-11.4312

> <Gold.Chemscore.Internal_Hbond.Weighted>
0.0000

> <Gold.Chemscore.DEClash.Weighted>
0.0431

> <Gold.Chemscore.DEInternal.Weighted>
0.8268

> <Gold.Chemscore.Rot.Weighted>
4.5590

> <Gold.Chemscore.Internal.Correction.Weighted>
   9.000000E+99

> <Gold.Protein.RotatedTorsions>
[ 6907 6896 6895 6894 ] final   79.11 input  -60.11 | X-H torsion
[ 7974 7965 7964 7962 ] final -115.36 input  175.53 | X-H torsion
[ 8008 7997 7996 7995 ] final  153.30 input   59.86 | X-H torsion
[ 10167 10162 10161 10158 ] final   -3.04 input  -65.29 | X-H torsion
[ 10718 10713 10712 10709 ] final   10.67 input   66.30 | X-H torsion
[ 10763 10752 10751 10750 ] final   43.42 input  -60.55 | X-H torsion
[ 11005 11000 10999 10996 ] final  -45.02 input  -57.11 | X-H torsion

> <Gold.Protein.ActiveResidues>
 VAL166  LYS551  ARG553  GLY616  TRP617  ASP618  TYR619  PRO620  LYS621  CYS622 
 ASP623  PHE694  ASN695  SER759  ASP760  ASP761  ALA762  ILE779  LEU786  VAL792 
 PHE793  MET794  SER795  GLU796  ALA797  LYS798  CYS799  TRP800  GLU811  SER814 

> <Gold.Protein.RotatedAtoms>
  152.5186  134.3561  159.9268 H   0  0  0  0  0  0  0  0  0  0  0  0  # atno 6907 bound_to 6896
  151.3513  133.3918  159.2688 H   0  0  0  0  0  0  0  0  0  0  0  0  # atno 6908 bound_to 6896
  150.9725  134.9114  159.7854 H   0  0  0  0  0  0  0  0  0  0  0  0  # atno 6909 bound_to 6896
  145.1094  140.8602  143.3879 H   0  0  0  0  0  0  0  0  0  0  0  0  # atno 7974 bound_to 7965
  156.2588  140.1997  156.6469 H   0  0  0  0  0  0  0  0  0  0  0  0  # atno 8008 bound_to 7997
  154.6566  140.0565  157.0041 H   0  0  0  0  0  0  0  0  0  0  0  0  # atno 8009 bound_to 7997
  155.1338  140.3236  155.4471 H   0  0  0  0  0  0  0  0  0  0  0  0  # atno 8010 bound_to 7997
  140.6875  143.6586  150.8286 H   0  0  0  0  0  0  0  0  0  0  0  0  # atno 10167 bound_to 10162
  156.9843  130.6018  149.5679 H   0  0  0  0  0  0  0  0  0  0  0  0  # atno 10718 bound_to 10713
  152.9861  135.6102  154.3108 H   0  0  0  0  0  0  0  0  0  0  0  0  # atno 10763 bound_to 10752
  154.2824  135.2777  155.2693 H   0  0  0  0  0  0  0  0  0  0  0  0  # atno 10764 bound_to 10752
  154.5026  135.5862  153.6599 H   0  0  0  0  0  0  0  0  0  0  0  0  # atno 10765 bound_to 10752
  141.0489  133.6750  156.2955 H   0  0  0  0  0  0  0  0  0  0  0  0  # atno 11005 bound_to 11000
  145.0865  139.2921  143.5757 LP  0  0  0  0  0  0  0  0  0  0  0  0  # atno 17320 bound_to 7965
  146.3527  140.0388  142.8644 LP  0  0  0  0  0  0  0  0  0  0  0  0  # atno 17321 bound_to 7965
  140.0295  143.5458  152.2766 LP  0  0  0  0  0  0  0  0  0  0  0  0  # atno 17342 bound_to 10162
  139.6246  144.7635  151.2667 LP  0  0  0  0  0  0  0  0  0  0  0  0  # atno 17343 bound_to 10162
  156.0232  130.5326  150.8334 LP  0  0  0  0  0  0  0  0  0  0  0  0  # atno 17370 bound_to 10713
  157.5504  131.0943  150.9703 LP  0  0  0  0  0  0  0  0  0  0  0  0  # atno 17371 bound_to 10713
  140.6094  134.5474  157.5531 LP  0  0  0  0  0  0  0  0  0  0  0  0  # atno 17394 bound_to 11000
  139.9334  134.7921  156.0869 LP  0  0  0  0  0  0  0  0  0  0  0  0  # atno 17395 bound_to 11000

$$$$
