AV-unprocessed.smi:2076|AV-procd|sdf|8459|dock2
  -GOLD-   2272011153D 1   1.00000     0.00000
 Structure written by MMmdl.
 45 46  0  0  0  0  0  0  0  0  2 V2000
  153.9156  141.1343  161.4612 C   0  0  0  0  0  0  0  0  0  0  0  0
  153.1918  141.9012  160.3943 C   0  0  0  0  0  0  0  0  0  0  0  0
  153.0404  143.3107  160.2709 C   0  0  0  0  0  0  0  0  0  0  0  0
  152.3080  143.4729  159.1289 C   0  0  0  0  0  0  0  0  0  0  0  0
  151.8300  144.7202  158.4609 C   0  0  0  0  0  0  0  0  0  0  0  0
  152.0544  142.2070  158.6312 N   0  0  0  0  0  0  0  0  0  0  0  0
  151.3338  141.8213  157.4271 C   0  0  0  0  0  0  0  0  0  0  0  0
  150.8873  140.3604  157.5019 C   0  0  0  0  0  0  0  0  0  0  0  0
  150.7108  139.8210  158.5937 O   0  0  0  0  0  0  0  0  0  0  0  0
  150.6963  139.7375  156.3305 N   0  0  0  0  0  0  0  0  0  0  0  0
  150.1847  138.3818  156.1836 C   0  0  0  0  0  0  0  0  0  0  0  0
  149.8929  138.0311  154.7006 C   0  0  2  0  0  0  0  0  0  0  0  0
  148.8926  139.0435  154.0941 C   0  0  0  0  0  0  0  0  0  0  0  0
  149.3938  136.6306  154.5016 N   0  3  0  0  0  0  0  0  0  0  0  0
  150.3286  135.6074  155.0445 C   0  0  0  0  0  0  0  0  0  0  0  0
  149.8347  134.1854  154.7341 C   0  0  0  0  0  0  0  0  0  0  0  0
  148.5373  134.0061  155.2819 O   0  0  0  0  0  0  0  0  0  0  0  0
  147.6009  134.9042  154.7057 C   0  0  0  0  0  0  0  0  0  0  0  0
  148.0165  136.3565  154.9982 C   0  0  0  0  0  0  0  0  0  0  0  0
  152.5995  141.2457  159.4095 N   0  0  0  0  0  0  0  0  0  0  0  0
  154.2784  141.7987  162.2458 H   0  0  0  0  0  0  0  0  0  0  0  0
  154.7762  140.6069  161.0491 H   0  0  0  0  0  0  0  0  0  0  0  0
  153.2627  140.3964  161.9280 H   0  0  0  0  0  0  0  0  0  0  0  0
  153.4163  144.0865  160.9213 H   0  0  0  0  0  0  0  0  0  0  0  0
  152.1417  145.6037  159.0180 H   0  0  0  0  0  0  0  0  0  0  0  0
  150.7420  144.7338  158.3939 H   0  0  0  0  0  0  0  0  0  0  0  0
  152.2345  144.8007  157.4519 H   0  0  0  0  0  0  0  0  0  0  0  0
  150.4652  142.4692  157.2990 H   0  0  0  0  0  0  0  0  0  0  0  0
  151.9757  141.9769  156.5595 H   0  0  0  0  0  0  0  0  0  0  0  0
  150.8689  140.2604  155.4836 H   0  0  0  0  0  0  0  0  0  0  0  0
  150.9398  137.7162  156.6035 H   0  0  0  0  0  0  0  0  0  0  0  0
  149.2773  138.2701  156.7799 H   0  0  0  0  0  0  0  0  0  0  0  0
  150.8388  138.1231  154.1638 H   0  0  0  0  0  0  0  0  0  0  0  0
  149.2483  140.0707  154.1775 H   0  0  0  0  0  0  0  0  0  0  0  0
  147.9277  138.9907  154.5990 H   0  0  0  0  0  0  0  0  0  0  0  0
  148.7182  138.8775  153.0326 H   0  0  0  0  0  0  0  0  0  0  0  0
  151.3268  135.7234  154.6268 H   0  0  0  0  0  0  0  0  0  0  0  0
  150.4218  135.7359  156.1241 H   0  0  0  0  0  0  0  0  0  0  0  0
  149.8225  134.0005  153.6585 H   0  0  0  0  0  0  0  0  0  0  0  0
  150.5078  133.4501  155.1758 H   0  0  0  0  0  0  0  0  0  0  0  0
  147.5261  134.7301  153.6310 H   0  0  0  0  0  0  0  0  0  0  0  0
  146.6161  134.7044  155.1284 H   0  0  0  0  0  0  0  0  0  0  0  0
  147.9657  136.5529  156.0705 H   0  0  0  0  0  0  0  0  0  0  0  0
  147.2895  137.0050  154.5101 H   0  0  0  0  0  0  0  0  0  0  0  0
  149.3540  136.4894  153.5020 H   0  0  0  0  0  0  0  0  0  0  0  0
  1  2  1  0  0  0  0
  1 21  1  0  0  0  0
  1 22  1  0  0  0  0
  1 23  1  0  0  0  0
  2 20  2  0  0  0  0
  2  3  1  0  0  0  0
  3  4  2  0  0  0  0
  3 24  1  0  0  0  0
  4  5  1  0  0  0  0
  4  6  1  0  0  0  0
  5 25  1  0  0  0  0
  5 26  1  0  0  0  0
  5 27  1  0  0  0  0
  6  7  1  0  0  0  0
  6 20  1  0  0  0  0
  7  8  1  0  0  0  0
  7 28  1  0  0  0  0
  7 29  1  0  0  0  0
  8  9  2  0  0  0  0
  8 10  1  0  0  0  0
 10 11  1  0  0  0  0
 10 30  1  0  0  0  0
 11 12  1  0  0  0  0
 11 31  1  0  0  0  0
 11 32  1  0  0  0  0
 12 13  1  0  0  0  0
 12 14  1  0  0  0  0
 12 33  1  0  0  0  0
 13 34  1  0  0  0  0
 13 35  1  0  0  0  0
 13 36  1  0  0  0  0
 14 19  1  0  0  0  0
 14 15  1  0  0  0  0
 14 45  1  0  0  0  0
 15 16  1  0  0  0  0
 15 37  1  0  0  0  0
 15 38  1  0  0  0  0
 16 17  1  0  0  0  0
 16 39  1  0  0  0  0
 16 40  1  0  0  0  0
 17 18  1  0  0  0  0
 18 19  1  0  0  0  0
 18 41  1  0  0  0  0
 18 42  1  0  0  0  0
 19 43  1  0  0  0  0
 19 44  1  0  0  0  0
M  CHG  1  14   1
M  END
> <s_m_source_file>
AV-unprocessed.smi

> <i_m_source_file_index>
2076

> <i_lp_mmshare_version>
43012

> <i_f3d_flags>
0

> <s_epik_input>
W0NIM11jMVtjSF1jKFtDSDNdKW4objEpW0NIMl1DKD1PKVtOSF1bQ0gyXVtDQEhdKFtDSDNdKU4yW0NIMl1bQ0gyXU9bQ0gyXVtDSDJdMg==

> <s_epik_cmdline>
J2VwaWtfcHl0aG9uJywgJy1waCcsICc3LjAnLCAnLXRuJywgJzgnLCAnLW1hJywgJzIwMCcsICctbWV0YWxfYmluZGluZycsICctaW1hZScsICc8aW5maWxlLm1hZT4nLCAnLW9tYWUnLCAnPG91dGZpbGUubWFlPic=

> <r_lp_tautomer_probability>
1

> <r_epik_Ionization_Penalty>
0.748594

> <r_epik_Ionization_Penalty_Charging>
0.748396

> <r_epik_Ionization_Penalty_Neutral>
0.000197403

> <r_epik_State_Penalty>
0.775162

> <r_epik_Charging_Adjusted_Penalty>
1.52356

> <i_epik_Tot_Q>
1

> <i_epik_Tot_abs_Q>
1

> <r_epik_Metal_State_Penalty>
0.77529

> <b_epik_Metal_Only>
0

> <s_lp_Force_Field>
OPLS_2005

> <r_lp_Energy>
18.1598

> <b_lp_Chiralities_Consistent>
1

> <s_lp_Variant>
AV-unprocessed.smi:2076-3

> <Gold.Version>
5.8.1

> <Gold.Id.Protein>
6NUR|6NUR_protein|mol2

> <Gold.PLP.Fitness>
41.2782

> <Gold.PLP.PLP>
-36.5926

> <Gold.PLP.part.hbond>
-1.0000

> <Gold.PLP.part.metal>
0.0000

> <Gold.PLP.part.buried>
-4.4011

> <Gold.PLP.part.nonpolar>
-30.7702

> <Gold.PLP.part.repulsive>
0.1295

> <Gold.PLP.ligand.clash>
0.0000

> <Gold.PLP.ligand.torsion>
0.7048

> <Gold.PLP.Chemscore.Hbond>
2.0000

> <Gold.PLP.Chemscore.CHOScore>
0.0000

> <Gold.PLP.Chemscore.Metal>
0.0000

> <Gold.Chemscore.Hbonds>
donor molecule, donor type, donor heavy atom, donor atom, acceptor molecule, acceptor atom, score
      L1  H    14    45       P1  7948  2.00

> <Gold.PLP.Chemscore.Internal.Correction>
0.0953

> <Gold.Rescore>
     Score         DG    S(hbond)    S(metal)    S(lipo)     H(rot)  DE(clash)    DE(int)     intcor
     13.48     -16.00       0.99        0.00     100.48       1.78       0.15       2.37       ----

> <Gold.Chemscore.Fitness>
13.4823

> <Gold.Chemscore.DG>
-15.9984

> <Gold.Chemscore.ZeroCoef>
-5.4800

> <Gold.Chemscore.Hbond>
0.9907

> <Gold.Chemscore.Metal>
0.0000

> <Gold.Chemscore.Lipo>
100.4773

> <Gold.Chemscore.Internal_Hbond>
0.0000

> <Gold.Chemscore.DEClash>
0.1498

> <Gold.Chemscore.DEInternal>
2.3663

> <Gold.Chemscore.Rot>
1.7760

> <Gold.Chemscore.Internal.Correction>
   9.000000E+99

> <Gold.Chemscore.Hbonds>
donor molecule, donor type, donor heavy atom, donor atom, acceptor molecule, acceptor atom, score
      L1  H    14    45       P1  7948  0.88

> <Gold.Chemscore.Hbond.Weighted>
-3.3090

> <Gold.Chemscore.Metal.Weighted>
-0.0000

> <Gold.Chemscore.Lipo.Weighted>
-11.7558

> <Gold.Chemscore.Internal_Hbond.Weighted>
0.0000

> <Gold.Chemscore.DEClash.Weighted>
0.1498

> <Gold.Chemscore.DEInternal.Weighted>
2.3663

> <Gold.Chemscore.Rot.Weighted>
4.5464

> <Gold.Chemscore.Internal.Correction.Weighted>
   9.000000E+99

> <Gold.Protein.RotatedTorsions>
[ 6907 6896 6895 6894 ] final  -54.19 input  -60.11 | X-H torsion
[ 7974 7965 7964 7962 ] final   75.00 input  175.53 | X-H torsion
[ 8008 7997 7996 7995 ] final  -23.73 input   59.86 | X-H torsion
[ 10167 10162 10161 10158 ] final -167.87 input  -65.29 | X-H torsion
[ 10718 10713 10712 10709 ] final  -62.54 input   66.30 | X-H torsion
[ 10763 10752 10751 10750 ] final   11.38 input  -60.55 | X-H torsion
[ 11005 11000 10999 10996 ] final  119.05 input  -57.11 | X-H torsion

> <Gold.Protein.ActiveResidues>
 VAL166  LYS551  ARG553  GLY616  TRP617  ASP618  TYR619  PRO620  LYS621  CYS622 
 ASP623  PHE694  ASN695  SER759  ASP760  ASP761  ALA762  ILE779  LEU786  VAL792 
 PHE793  MET794  SER795  GLU796  ALA797  LYS798  CYS799  TRP800  GLU811  SER814 

> <Gold.Protein.RotatedAtoms>
  150.8360  134.7633  159.6892 H   0  0  0  0  0  0  0  0  0  0  0  0  # atno 6907 bound_to 6896
  152.4456  134.5498  159.9873 H   0  0  0  0  0  0  0  0  0  0  0  0  # atno 6908 bound_to 6896
  151.5648  133.3360  159.3014 H   0  0  0  0  0  0  0  0  0  0  0  0  # atno 6909 bound_to 6896
  145.7211  139.2649  143.1595 H   0  0  0  0  0  0  0  0  0  0  0  0  # atno 7974 bound_to 7965
  154.4569  140.1973  156.0355 H   0  0  0  0  0  0  0  0  0  0  0  0  # atno 8008 bound_to 7997
  156.0763  140.3277  155.7610 H   0  0  0  0  0  0  0  0  0  0  0  0  # atno 8009 bound_to 7997
  155.5183  140.0567  157.2902 H   0  0  0  0  0  0  0  0  0  0  0  0  # atno 8010 bound_to 7997
  139.6021  144.0988  152.1754 H   0  0  0  0  0  0  0  0  0  0  0  0  # atno 10167 bound_to 10162
  156.0849  130.4210  150.1149 H   0  0  0  0  0  0  0  0  0  0  0  0  # atno 10718 bound_to 10713
  153.1933  135.6845  153.8325 H   0  0  0  0  0  0  0  0  0  0  0  0  # atno 10763 bound_to 10752
  153.7617  135.3209  155.3339 H   0  0  0  0  0  0  0  0  0  0  0  0  # atno 10764 bound_to 10752
  154.8130  135.4705  154.0665 H   0  0  0  0  0  0  0  0  0  0  0  0  # atno 10765 bound_to 10752
  139.9132  134.9625  156.7596 H   0  0  0  0  0  0  0  0  0  0  0  0  # atno 11005 bound_to 11000
  146.0625  140.7956  142.9728 LP  0  0  0  0  0  0  0  0  0  0  0  0  # atno 17320 bound_to 7965
  144.6916  140.3218  143.7231 LP  0  0  0  0  0  0  0  0  0  0  0  0  # atno 17321 bound_to 7965
  140.0587  144.5874  150.7280 LP  0  0  0  0  0  0  0  0  0  0  0  0  # atno 17342 bound_to 10162
  140.7258  143.2634  151.4126 LP  0  0  0  0  0  0  0  0  0  0  0  0  # atno 17343 bound_to 10162
  156.9173  130.9671  151.3554 LP  0  0  0  0  0  0  0  0  0  0  0  0  # atno 17370 bound_to 10713
  157.5979  130.8491  149.8757 LP  0  0  0  0  0  0  0  0  0  0  0  0  # atno 17371 bound_to 10713
  140.6708  133.9561  155.7855 LP  0  0  0  0  0  0  0  0  0  0  0  0  # atno 17394 bound_to 11000
  141.0579  134.0389  157.3698 LP  0  0  0  0  0  0  0  0  0  0  0  0  # atno 17395 bound_to 11000

$$$$
