AV-unprocessed.smi:1644|AV-procd|sdf|6586|dock3
  -GOLD-   22720 7273D 1   1.00000     0.00000
 Structure written by MMmdl.
 49 51  0  0  0  0  0  0  0  0  1 V2000
  143.9899  145.9459  155.4381 C   0  0  0  0  0  0  0  0  0  0  0  0
  143.3874  144.5450  155.2895 C   0  0  0  0  0  0  0  0  0  0  0  0
  144.2758  143.4540  155.9210 C   0  0  0  0  0  0  0  0  0  0  0  0
  145.7381  143.4058  155.4227 C   0  0  2  0  0  0  0  0  0  0  0  0
  145.8544  143.0841  154.0156 N   0  0  0  0  0  0  0  0  0  0  0  0
  146.6161  142.0044  153.7975 C   0  0  0  0  0  0  0  0  0  0  0  0
  146.8664  141.5313  152.6901 O   0  0  0  0  0  0  0  0  0  0  0  0
  147.0556  141.5436  154.9843 N   0  0  0  0  0  0  0  0  0  0  0  0
  147.9269  140.3708  155.1485 C   0  0  0  0  0  0  0  0  0  0  0  0
  149.3960  140.5985  154.7062 C   0  0  1  0  0  0  0  0  0  0  0  0
  149.3830  140.9335  153.3344 O   0  0  0  0  0  0  0  0  0  0  0  0
  150.1727  141.7128  155.4458 C   0  0  0  0  0  0  0  0  0  0  0  0
  151.0666  141.2322  156.4853 N   0  0  0  0  0  0  0  0  0  0  0  0
  151.7261  140.0574  156.4976 C   0  0  0  0  0  0  0  0  0  0  0  0
  152.5127  139.8103  157.5408 N   0  0  0  0  0  0  0  0  0  0  0  0
  152.3253  140.9475  158.3061 C   0  0  0  0  0  0  0  0  0  0  0  0
  152.8947  141.3208  159.5427 C   0  0  0  0  0  0  0  0  0  0  0  0
  152.5586  142.5494  160.1536 C   0  0  0  0  0  0  0  0  0  0  0  0
  153.2048  142.9173  161.4776 C   0  0  0  0  0  0  0  0  0  0  0  0
  151.6296  143.4208  159.5315 C   0  0  0  0  0  0  0  0  0  0  0  0
  151.2530  144.7469  160.1678 C   0  0  0  0  0  0  0  0  0  0  0  0
  151.0482  143.0612  158.2982 C   0  0  0  0  0  0  0  0  0  0  0  0
  151.4063  141.8457  157.6881 C   0  0  0  0  0  0  0  0  0  0  0  0
  146.5611  142.2687  155.9982 C   0  0  0  0  0  0  0  0  0  0  0  0
  146.7242  142.0792  157.2033 O   0  0  0  0  0  0  0  0  0  0  0  0
  143.3438  146.6971  154.9833 H   0  0  0  0  0  0  0  0  0  0  0  0
  144.9654  146.0088  154.9547 H   0  0  0  0  0  0  0  0  0  0  0  0
  144.1180  146.2095  156.4884 H   0  0  0  0  0  0  0  0  0  0  0  0
  142.3981  144.5377  155.7477 H   0  0  0  0  0  0  0  0  0  0  0  0
  143.2384  144.3361  154.2297 H   0  0  0  0  0  0  0  0  0  0  0  0
  144.2869  143.5952  157.0023 H   0  0  0  0  0  0  0  0  0  0  0  0
  143.8162  142.4781  155.7580 H   0  0  0  0  0  0  0  0  0  0  0  0
  146.2435  144.3518  155.6210 H   0  0  0  0  0  0  0  0  0  0  0  0
  145.4070  143.6242  153.2891 H   0  0  0  0  0  0  0  0  0  0  0  0
  147.9052  140.1136  156.2092 H   0  0  0  0  0  0  0  0  0  0  0  0
  147.5223  139.4983  154.6333 H   0  0  0  0  0  0  0  0  0  0  0  0
  149.9521  139.6653  154.7719 H   0  0  0  0  0  0  0  0  0  0  0  0
  149.5008  140.1421  152.8313 H   0  0  0  0  0  0  0  0  0  0  0  0
  150.7704  142.2841  154.7345 H   0  0  0  0  0  0  0  0  0  0  0  0
  149.4703  142.4170  155.8949 H   0  0  0  0  0  0  0  0  0  0  0  0
  151.6425  139.3529  155.6831 H   0  0  0  0  0  0  0  0  0  0  0  0
  153.5985  140.6538  160.0184 H   0  0  0  0  0  0  0  0  0  0  0  0
  152.4467  143.0406  162.2513 H   0  0  0  0  0  0  0  0  0  0  0  0
  153.7606  143.8505  161.3846 H   0  0  0  0  0  0  0  0  0  0  0  0
  153.8997  142.1459  161.8104 H   0  0  0  0  0  0  0  0  0  0  0  0
  150.5133  145.2791  159.5693 H   0  0  0  0  0  0  0  0  0  0  0  0
  152.1305  145.3869  160.2618 H   0  0  0  0  0  0  0  0  0  0  0  0
  150.8295  144.5893  161.1599 H   0  0  0  0  0  0  0  0  0  0  0  0
  150.3434  143.7211  157.8154 H   0  0  0  0  0  0  0  0  0  0  0  0
  1  2  1  0  0  0  0
  1 26  1  0  0  0  0
  1 27  1  0  0  0  0
  1 28  1  0  0  0  0
  2  3  1  0  0  0  0
  2 29  1  0  0  0  0
  2 30  1  0  0  0  0
  3  4  1  0  0  0  0
  3 31  1  0  0  0  0
  3 32  1  0  0  0  0
  4 24  1  0  0  0  0
  4  5  1  0  0  0  0
  4 33  1  0  0  0  0
  5  6  1  0  0  0  0
  5 34  1  0  0  0  0
  6  7  2  0  0  0  0
  6  8  1  0  0  0  0
  8  9  1  0  0  0  0
  8 24  1  0  0  0  0
  9 10  1  0  0  0  0
  9 35  1  0  0  0  0
  9 36  1  0  0  0  0
 10 11  1  0  0  0  0
 10 12  1  0  0  0  0
 10 37  1  0  0  0  0
 11 38  1  0  0  0  0
 12 13  1  0  0  0  0
 12 39  1  0  0  0  0
 12 40  1  0  0  0  0
 13 23  1  0  0  0  0
 13 14  1  0  0  0  0
 14 15  2  0  0  0  0
 14 41  1  0  0  0  0
 15 16  1  0  0  0  0
 16 23  2  0  0  0  0
 16 17  1  0  0  0  0
 17 18  2  0  0  0  0
 17 42  1  0  0  0  0
 18 19  1  0  0  0  0
 18 20  1  0  0  0  0
 19 43  1  0  0  0  0
 19 44  1  0  0  0  0
 19 45  1  0  0  0  0
 20 21  1  0  0  0  0
 20 22  2  0  0  0  0
 21 46  1  0  0  0  0
 21 47  1  0  0  0  0
 21 48  1  0  0  0  0
 22 23  1  0  0  0  0
 22 49  1  0  0  0  0
 24 25  2  0  0  0  0
M  END
> <s_m_source_file>
AV-unprocessed.smi

> <i_m_source_file_index>
1644

> <i_lp_mmshare_version>
43012

> <i_f3d_flags>
0

> <s_epik_input>
W0NIM11bQ0gyXVtDSDJdW0NAQEhdMVtOSF1DKD1PKU4oQzE9TylbQ0gyXVtDQEhdKFtPSF0pW0NIMl1uKFtjSF1uMiljKGMyMylbY0hdYyhbQ0gzXSljKFtjSF0zKVtDSDNd

> <s_epik_cmdline>
J2VwaWtfcHl0aG9uJywgJy1waCcsICc3LjAnLCAnLXRuJywgJzgnLCAnLW1hJywgJzIwMCcsICctbWV0YWxfYmluZGluZycsICctaW1hZScsICc8aW5maWxlLm1hZT4nLCAnLW9tYWUnLCAnPG91dGZpbGUubWFlPic=

> <r_lp_tautomer_probability>
1

> <r_epik_Ionization_Penalty>
0.10693

> <r_epik_Ionization_Penalty_Charging>
0

> <r_epik_Ionization_Penalty_Neutral>
0.10693

> <r_epik_State_Penalty>
0.096713

> <r_epik_Charging_Adjusted_Penalty>
0.096713

> <i_epik_Tot_Q>
0

> <i_epik_Tot_abs_Q>
0

> <r_epik_Metal_State_Penalty>
0.102757

> <b_epik_Metal_Only>
0

> <s_lp_Force_Field>
OPLS_2005

> <r_lp_Energy>
20.4665

> <b_lp_Chiralities_Consistent>
1

> <s_lp_Variant>
AV-unprocessed.smi:1644-3

> <Gold.Version>
5.8.1

> <Gold.Id.Protein>
6NUR|6NUR_protein|mol2

> <Gold.PLP.Fitness>
51.9046

> <Gold.PLP.PLP>
-45.7556

> <Gold.PLP.part.hbond>
-3.3903

> <Gold.PLP.part.metal>
0.0000

> <Gold.PLP.part.buried>
-4.6528

> <Gold.PLP.part.nonpolar>
-37.6553

> <Gold.PLP.part.repulsive>
0.3932

> <Gold.PLP.ligand.clash>
0.0000

> <Gold.PLP.ligand.torsion>
1.0750

> <Gold.PLP.Chemscore.Hbond>
2.6408

> <Gold.PLP.Chemscore.CHOScore>
0.0000

> <Gold.PLP.Chemscore.Metal>
0.0000

> <Gold.Chemscore.Hbonds>
donor molecule, donor type, donor heavy atom, donor atom, acceptor molecule, acceptor atom, score
      L1  H    11    38       P1  7957  0.51
      P1  H  7989  7998       L1    11  0.01
      P1  H  7997  8009       L1    15  0.75
      P1  H  8011  8017       L1    11  1.00

> <Gold.PLP.Chemscore.Internal.Correction>
0.3766

> <Gold.Rescore>
     Score         DG    S(hbond)    S(metal)    S(lipo)     H(rot)  DE(clash)    DE(int)     intcor
     14.52     -17.41       1.89        0.00     107.63       2.72       1.62       1.28       ----

> <Gold.Chemscore.Fitness>
14.5194

> <Gold.Chemscore.DG>
-17.4127

> <Gold.Chemscore.ZeroCoef>
-5.4800

> <Gold.Chemscore.Hbond>
1.8881

> <Gold.Chemscore.Metal>
0.0000

> <Gold.Chemscore.Lipo>
107.6310

> <Gold.Chemscore.Internal_Hbond>
0.0000

> <Gold.Chemscore.DEClash>
1.6154

> <Gold.Chemscore.DEInternal>
1.2778

> <Gold.Chemscore.Rot>
2.7212

> <Gold.Chemscore.Internal.Correction>
   9.000000E+99

> <Gold.Chemscore.Hbonds>
donor molecule, donor type, donor heavy atom, donor atom, acceptor molecule, acceptor atom, score
      L1  H    11    38       P1  7957  0.52
      P1  H  7997  8009       L1    15  0.07
      P1  H  8011  8017       L1    11  0.74

> <Gold.Chemscore.Hbond.Weighted>
-6.3061

> <Gold.Chemscore.Metal.Weighted>
-0.0000

> <Gold.Chemscore.Lipo.Weighted>
-12.5928

> <Gold.Chemscore.Internal_Hbond.Weighted>
0.0000

> <Gold.Chemscore.DEClash.Weighted>
1.6154

> <Gold.Chemscore.DEInternal.Weighted>
1.2778

> <Gold.Chemscore.Rot.Weighted>
6.9663

> <Gold.Chemscore.Internal.Correction.Weighted>
   9.000000E+99

> <Gold.Protein.RotatedTorsions>
[ 6907 6896 6895 6894 ] final   29.51 input  -60.11 | X-H torsion
[ 7974 7965 7964 7962 ] final -109.01 input  175.53 | X-H torsion
[ 8008 7997 7996 7995 ] final -175.49 input   59.86 | X-H torsion
[ 10167 10162 10161 10158 ] final   -9.43 input  -65.29 | X-H torsion
[ 10718 10713 10712 10709 ] final   91.37 input   66.30 | X-H torsion
[ 10763 10752 10751 10750 ] final  109.71 input  -60.55 | X-H torsion
[ 11005 11000 10999 10996 ] final  161.41 input  -57.11 | X-H torsion

> <Gold.Protein.ActiveResidues>
 VAL166  LYS551  ARG553  GLY616  TRP617  ASP618  TYR619  PRO620  LYS621  CYS622 
 ASP623  PHE694  ASN695  SER759  ASP760  ASP761  ALA762  ILE779  LEU786  VAL792 
 PHE793  MET794  SER795  GLU796  ALA797  LYS798  CYS799  TRP800  GLU811  SER814 

> <Gold.Protein.RotatedAtoms>
  152.0325  134.9759  160.0572 H   0  0  0  0  0  0  0  0  0  0  0  0  # atno 6907 bound_to 6896
  152.1230  133.4359  159.4693 H   0  0  0  0  0  0  0  0  0  0  0  0  # atno 6908 bound_to 6896
  150.6850  134.2431  159.4523 H   0  0  0  0  0  0  0  0  0  0  0  0  # atno 6909 bound_to 6896
  145.1858  140.8992  143.3453 H   0  0  0  0  0  0  0  0  0  0  0  0  # atno 7974 bound_to 7965
  155.9832  140.1186  157.0707 H   0  0  0  0  0  0  0  0  0  0  0  0  # atno 8008 bound_to 7997
  154.4189  140.1140  156.5532 H   0  0  0  0  0  0  0  0  0  0  0  0  # atno 8009 bound_to 7997
  155.6442  140.3473  155.4727 H   0  0  0  0  0  0  0  0  0  0  0  0  # atno 8010 bound_to 7997
  140.7087  143.5858  150.8944 H   0  0  0  0  0  0  0  0  0  0  0  0  # atno 10167 bound_to 10162
  157.6960  131.0405  150.3719 H   0  0  0  0  0  0  0  0  0  0  0  0  # atno 10718 bound_to 10713
  153.4386  135.3771  155.2214 H   0  0  0  0  0  0  0  0  0  0  0  0  # atno 10763 bound_to 10752
  154.8753  135.3857  154.4180 H   0  0  0  0  0  0  0  0  0  0  0  0  # atno 10764 bound_to 10752
  153.4723  135.7087  153.6050 H   0  0  0  0  0  0  0  0  0  0  0  0  # atno 10765 bound_to 10752
  140.2155  134.8235  157.3166 H   0  0  0  0  0  0  0  0  0  0  0  0  # atno 11005 bound_to 11000
  145.0091  139.3527  143.6129 LP  0  0  0  0  0  0  0  0  0  0  0  0  # atno 17320 bound_to 7965
  146.3445  139.9345  142.8749 LP  0  0  0  0  0  0  0  0  0  0  0  0  # atno 17321 bound_to 7965
  139.9584  143.6192  152.3009 LP  0  0  0  0  0  0  0  0  0  0  0  0  # atno 17342 bound_to 10162
  139.6735  144.7660  151.1738 LP  0  0  0  0  0  0  0  0  0  0  0  0  # atno 17343 bound_to 10162
  156.4143  130.3940  149.6870 LP  0  0  0  0  0  0  0  0  0  0  0  0  # atno 17370 bound_to 10713
  156.4143  130.7737  151.2752 LP  0  0  0  0  0  0  0  0  0  0  0  0  # atno 17371 bound_to 10713
  140.1905  134.4377  155.7718 LP  0  0  0  0  0  0  0  0  0  0  0  0  # atno 17394 bound_to 11000
  141.2225  133.7025  156.8019 LP  0  0  0  0  0  0  0  0  0  0  0  0  # atno 17395 bound_to 11000

$$$$
