AV-unprocessed.smi:2610|AV-procd|sdf|10209|dock1
  -GOLD-   2272014213D 1   1.00000     0.00000
 Structure written by MMmdl.
 46 48  0  0  0  0  0  0  0  0  2 V2000
  147.1498  139.8286  153.4724 C   0  0  0  0  0  0  0  0  0  0  0  0
  147.2729  141.3376  153.7116 C   0  0  0  0  0  0  0  0  0  0  0  0
  148.1017  141.6718  154.9602 C   0  0  0  0  0  0  0  0  0  0  0  0
  149.5966  141.3713  154.7684 C   0  0  0  0  0  0  0  0  0  0  0  0
  150.4007  141.6990  155.9890 C   0  0  0  0  0  0  0  0  0  0  0  0
  150.3908  142.8956  156.6420 N   0  3  0  0  0  0  0  0  0  0  0  0
  151.2562  142.8495  157.7335 C   0  0  0  0  0  0  0  0  0  0  0  0
  151.5665  143.8139  158.6874 C   0  0  0  0  0  0  0  0  0  0  0  0
  152.4947  143.4441  159.6820 C   0  0  0  0  0  0  0  0  0  0  0  0
  153.0740  142.1594  159.7026 C   0  0  0  0  0  0  0  0  0  0  0  0
  152.7518  141.1911  158.7291 C   0  0  0  0  0  0  0  0  0  0  0  0
  151.8348  141.5640  157.7451 C   0  0  0  0  0  0  0  0  0  0  0  0
  151.2940  140.8929  156.6388 N   0  0  0  0  0  0  0  0  0  0  0  0
  151.7132  139.5057  156.3542 C   0  0  0  0  0  0  0  0  0  0  0  0
  150.6857  138.4231  156.7773 C   0  0  0  0  0  0  0  0  0  0  0  0
  149.4842  138.6617  156.0661 O   0  0  0  0  0  0  0  0  0  0  0  0
  151.1546  136.9867  156.4590 C   0  0  0  0  0  0  0  0  0  0  0  0
  150.2183  135.9241  157.0615 C   0  0  0  0  0  0  0  0  0  0  0  0
  150.0890  136.1282  158.4632 O   0  0  0  0  0  0  0  0  0  0  0  0
  149.4937  137.3794  158.7847 C   0  0  0  0  0  0  0  0  0  0  0  0
  150.3846  138.5313  158.2856 C   0  0  0  0  0  0  0  0  0  0  0  0
  146.5528  139.6237  152.5834 H   0  0  0  0  0  0  0  0  0  0  0  0
  146.6690  139.3336  154.3166 H   0  0  0  0  0  0  0  0  0  0  0  0
  148.1291  139.3715  153.3277 H   0  0  0  0  0  0  0  0  0  0  0  0
  147.7254  141.8043  152.8357 H   0  0  0  0  0  0  0  0  0  0  0  0
  146.2752  141.7677  153.8089 H   0  0  0  0  0  0  0  0  0  0  0  0
  147.9656  142.7249  155.2096 H   0  0  0  0  0  0  0  0  0  0  0  0
  147.7231  141.1000  155.8087 H   0  0  0  0  0  0  0  0  0  0  0  0
  149.7237  140.3195  154.5147 H   0  0  0  0  0  0  0  0  0  0  0  0
  149.9915  141.9445  153.9291 H   0  0  0  0  0  0  0  0  0  0  0  0
  151.1218  144.7981  158.6739 H   0  0  0  0  0  0  0  0  0  0  0  0
  152.7667  144.1594  160.4447 H   0  0  0  0  0  0  0  0  0  0  0  0
  153.7809  141.9109  160.4810 H   0  0  0  0  0  0  0  0  0  0  0  0
  153.2057  140.2121  158.7595 H   0  0  0  0  0  0  0  0  0  0  0  0
  151.9444  139.4196  155.2927 H   0  0  0  0  0  0  0  0  0  0  0  0
  152.6627  139.3421  156.8652 H   0  0  0  0  0  0  0  0  0  0  0  0
  149.5719  139.4752  155.5930 H   0  0  0  0  0  0  0  0  0  0  0  0
  151.2401  136.8337  155.3827 H   0  0  0  0  0  0  0  0  0  0  0  0
  152.1511  136.8337  156.8738 H   0  0  0  0  0  0  0  0  0  0  0  0
  149.2366  135.9472  156.5859 H   0  0  0  0  0  0  0  0  0  0  0  0
  150.6271  134.9283  156.8898 H   0  0  0  0  0  0  0  0  0  0  0  0
  148.4926  137.4403  158.3550 H   0  0  0  0  0  0  0  0  0  0  0  0
  149.3756  137.4430  159.8665 H   0  0  0  0  0  0  0  0  0  0  0  0
  151.3218  138.5071  158.8428 H   0  0  0  0  0  0  0  0  0  0  0  0
  149.9185  139.4905  158.5156 H   0  0  0  0  0  0  0  0  0  0  0  0
  149.8233  143.6847  156.3609 H   0  0  0  0  0  0  0  0  0  0  0  0
  1  2  1  0  0  0  0
  1 22  1  0  0  0  0
  1 23  1  0  0  0  0
  1 24  1  0  0  0  0
  2  3  1  0  0  0  0
  2 25  1  0  0  0  0
  2 26  1  0  0  0  0
  3  4  1  0  0  0  0
  3 27  1  0  0  0  0
  3 28  1  0  0  0  0
  4  5  1  0  0  0  0
  4 29  1  0  0  0  0
  4 30  1  0  0  0  0
  5 13  1  0  0  0  0
  5  6  2  0  0  0  0
  6  7  1  0  0  0  0
  6 46  1  0  0  0  0
  7 12  2  0  0  0  0
  7  8  1  0  0  0  0
  8  9  2  0  0  0  0
  8 31  1  0  0  0  0
  9 10  1  0  0  0  0
  9 32  1  0  0  0  0
 10 11  2  0  0  0  0
 10 33  1  0  0  0  0
 11 12  1  0  0  0  0
 11 34  1  0  0  0  0
 12 13  1  0  0  0  0
 13 14  1  0  0  0  0
 14 15  1  0  0  0  0
 14 35  1  0  0  0  0
 14 36  1  0  0  0  0
 15 21  1  0  0  0  0
 15 16  1  0  0  0  0
 15 17  1  0  0  0  0
 16 37  1  0  0  0  0
 17 18  1  0  0  0  0
 17 38  1  0  0  0  0
 17 39  1  0  0  0  0
 18 19  1  0  0  0  0
 18 40  1  0  0  0  0
 18 41  1  0  0  0  0
 19 20  1  0  0  0  0
 20 21  1  0  0  0  0
 20 42  1  0  0  0  0
 20 43  1  0  0  0  0
 21 44  1  0  0  0  0
 21 45  1  0  0  0  0
M  CHG  1   6   1
M  END
> <s_m_source_file>
AV-unprocessed.smi

> <i_m_source_file_index>
2610

> <i_lp_mmshare_version>
43012

> <i_f3d_flags>
0

> <s_epik_input>
W0NIM11bQ0gyXVtDSDJdW0NIMl1jKG4xKW4oYyhjMTIpW2NIXVtjSF1bY0hdW2NIXTIpW0NIMl1DMyhbT0hdKVtDSDJdW0NIMl1PW0NIMl1bQ0gyXTM=

> <s_epik_cmdline>
J2VwaWtfcHl0aG9uJywgJy1waCcsICc3LjAnLCAnLXRuJywgJzgnLCAnLW1hJywgJzIwMCcsICctbWV0YWxfYmluZGluZycsICctaW1hZScsICc8aW5maWxlLm1hZT4nLCAnLW9tYWUnLCAnPG91dGZpbGUubWFlPic=

> <r_epik_Ionization_Penalty>
0.68424

> <r_epik_Ionization_Penalty_Charging>
0.68424

> <r_epik_Ionization_Penalty_Neutral>
5.75126e-08

> <r_epik_State_Penalty>
0.705545

> <r_epik_Charging_Adjusted_Penalty>
1.38978

> <i_epik_Tot_Q>
1

> <i_epik_Tot_abs_Q>
1

> <r_epik_Metal_State_Penalty>
4.58386

> <b_epik_Metal_Only>
0

> <s_lp_Force_Field>
OPLS_2005

> <r_lp_Energy>
18.9075

> <b_lp_Chiralities_Consistent>
1

> <s_lp_Variant>
AV-unprocessed.smi:2610-2

> <Gold.Version>
5.8.1

> <Gold.Id.Protein>
6NUR|6NUR_protein|mol2

> <Gold.PLP.Fitness>
49.6733

> <Gold.PLP.PLP>
-40.8516

> <Gold.PLP.part.hbond>
-2.0000

> <Gold.PLP.part.metal>
0.0000

> <Gold.PLP.part.buried>
-4.6311

> <Gold.PLP.part.nonpolar>
-33.5871

> <Gold.PLP.part.repulsive>
0.0556

> <Gold.PLP.ligand.clash>
0.0000

> <Gold.PLP.ligand.torsion>
0.3242

> <Gold.PLP.Chemscore.Hbond>
3.0000

> <Gold.PLP.Chemscore.CHOScore>
0.0000

> <Gold.PLP.Chemscore.Metal>
0.0000

> <Gold.Chemscore.Hbonds>
donor molecule, donor type, donor heavy atom, donor atom, acceptor molecule, acceptor atom, score
      L1  H     6    46       P1  8028  2.00
      P1  H  6896  6907       L1    19  1.00

> <Gold.PLP.Chemscore.Internal.Correction>
0.4701

> <Gold.Rescore>
     Score         DG    S(hbond)    S(metal)    S(lipo)     H(rot)  DE(clash)    DE(int)     intcor
     19.58     -19.97       1.91        0.00     112.42       1.97       0.07       0.32       ----

> <Gold.Chemscore.Fitness>
19.5781

> <Gold.Chemscore.DG>
-19.9695

> <Gold.Chemscore.ZeroCoef>
-5.4800

> <Gold.Chemscore.Hbond>
1.9096

> <Gold.Chemscore.Metal>
0.0000

> <Gold.Chemscore.Lipo>
112.4199

> <Gold.Chemscore.Internal_Hbond>
0.0000

> <Gold.Chemscore.DEClash>
0.0672

> <Gold.Chemscore.DEInternal>
0.3242

> <Gold.Chemscore.Rot>
1.9694

> <Gold.Chemscore.Internal.Correction>
   9.000000E+99

> <Gold.Chemscore.Hbonds>
donor molecule, donor type, donor heavy atom, donor atom, acceptor molecule, acceptor atom, score
      L1  H     6    46       P1  8028  0.96
      P1  H  6896  6907       L1    19  0.93

> <Gold.Chemscore.Hbond.Weighted>
-6.3780

> <Gold.Chemscore.Metal.Weighted>
-0.0000

> <Gold.Chemscore.Lipo.Weighted>
-13.1531

> <Gold.Chemscore.Internal_Hbond.Weighted>
0.0000

> <Gold.Chemscore.DEClash.Weighted>
0.0672

> <Gold.Chemscore.DEInternal.Weighted>
0.3242

> <Gold.Chemscore.Rot.Weighted>
5.0417

> <Gold.Chemscore.Internal.Correction.Weighted>
   9.000000E+99

> <Gold.Protein.RotatedTorsions>
[ 6907 6896 6895 6894 ] final  -54.79 input  -60.11 | X-H torsion
[ 7974 7965 7964 7962 ] final  145.98 input  175.53 | X-H torsion
[ 8008 7997 7996 7995 ] final  -48.75 input   59.86 | X-H torsion
[ 10167 10162 10161 10158 ] final -100.37 input  -65.29 | X-H torsion
[ 10718 10713 10712 10709 ] final  122.73 input   66.30 | X-H torsion
[ 10763 10752 10751 10750 ] final  -51.53 input  -60.55 | X-H torsion
[ 11005 11000 10999 10996 ] final  142.91 input  -57.11 | X-H torsion

> <Gold.Protein.ActiveResidues>
 VAL166  LYS551  ARG553  GLY616  TRP617  ASP618  TYR619  PRO620  LYS621  CYS622 
 ASP623  PHE694  ASN695  SER759  ASP760  ASP761  ALA762  ILE779  LEU786  VAL792 
 PHE793  MET794  SER795  GLU796  ALA797  LYS798  CYS799  TRP800  GLU811  SER814 

> <Gold.Protein.RotatedAtoms>
  150.8308  134.7560  159.6851 H   0  0  0  0  0  0  0  0  0  0  0  0  # atno 6907 bound_to 6896
  152.4412  134.5583  159.9896 H   0  0  0  0  0  0  0  0  0  0  0  0  # atno 6908 bound_to 6896
  151.5745  133.3348  159.3032 H   0  0  0  0  0  0  0  0  0  0  0  0  # atno 6909 bound_to 6896
  144.8708  139.5849  143.5888 H   0  0  0  0  0  0  0  0  0  0  0  0  # atno 7974 bound_to 7965
  154.4033  140.1313  156.4391 H   0  0  0  0  0  0  0  0  0  0  0  0  # atno 8008 bound_to 7997
  155.7477  140.3488  155.5115 H   0  0  0  0  0  0  0  0  0  0  0  0  # atno 8009 bound_to 7997
  155.8979  140.1014  157.1361 H   0  0  0  0  0  0  0  0  0  0  0  0  # atno 8010 bound_to 7997
  140.2526  143.3462  152.0701 H   0  0  0  0  0  0  0  0  0  0  0  0  # atno 10167 bound_to 10162
  157.5720  131.1082  150.8350 H   0  0  0  0  0  0  0  0  0  0  0  0  # atno 10718 bound_to 10713
  154.1281  135.6524  153.4916 H   0  0  0  0  0  0  0  0  0  0  0  0  # atno 10763 bound_to 10752
  153.0204  135.5286  154.7028 H   0  0  0  0  0  0  0  0  0  0  0  0  # atno 10764 bound_to 10752
  154.6255  135.2970  155.0247 H   0  0  0  0  0  0  0  0  0  0  0  0  # atno 10765 bound_to 10752
  140.0513  134.9254  157.1022 H   0  0  0  0  0  0  0  0  0  0  0  0  # atno 11005 bound_to 11000
  146.2929  139.7191  142.9148 LP  0  0  0  0  0  0  0  0  0  0  0  0  # atno 17320 bound_to 7965
  145.4134  141.0399  143.3004 LP  0  0  0  0  0  0  0  0  0  0  0  0  # atno 17321 bound_to 7965
  139.5041  144.6770  151.6105 LP  0  0  0  0  0  0  0  0  0  0  0  0  # atno 17342 bound_to 10162
  140.6029  143.9577  150.6398 LP  0  0  0  0  0  0  0  0  0  0  0  0  # atno 17343 bound_to 10162
  156.8819  130.5182  149.5290 LP  0  0  0  0  0  0  0  0  0  0  0  0  # atno 17370 bound_to 10713
  156.0765  130.5786  150.9483 LP  0  0  0  0  0  0  0  0  0  0  0  0  # atno 17371 bound_to 10713
  140.3913  134.2182  155.7166 LP  0  0  0  0  0  0  0  0  0  0  0  0  # atno 17394 bound_to 11000
  141.1932  133.8157  157.0810 LP  0  0  0  0  0  0  0  0  0  0  0  0  # atno 17395 bound_to 11000

$$$$
