AV-unprocessed.smi:2456|AV-procd|sdf|9703|dock2
  -GOLD-   2272013343D 1   1.00000     0.00000
 Structure written by MMmdl.
 33 34  0  0  0  0  0  0  0  0  2 V2000
  151.7527  138.9452  156.2364 C   0  0  0  0  0  0  0  0  0  0  0  0
  151.3699  139.2324  157.6980 C   0  0  1  0  0  0  0  0  0  0  0  0
  150.9503  137.9702  158.3085 N   0  0  0  0  0  0  0  0  0  0  0  0
  149.7240  137.6922  158.7772 C   0  0  0  0  0  0  0  0  0  0  0  0
  148.8328  138.5423  158.7087 O   0  0  0  0  0  0  0  0  0  0  0  0
  149.6076  136.4489  159.2966 N   0  5  0  0  0  0  0  0  0  0  0  0
  148.6175  136.1725  160.1606 C   0  0  0  0  0  0  0  0  0  0  0  0
  148.0285  137.1051  160.9180 N   0  0  0  0  0  0  0  0  0  0  0  0
  147.0197  136.5981  161.7390 C   0  0  0  0  0  0  0  0  0  0  0  0
  146.8296  135.2493  161.5966 C   0  0  0  0  0  0  0  0  0  0  0  0
  147.9190  134.5717  160.4204 S   0  0  0  0  0  0  0  0  0  0  0  0
  152.6144  139.8014  158.4157 C   0  0  0  0  0  0  0  0  0  0  0  0
  153.6584  139.1457  158.4233 O   0  0  0  0  0  0  0  0  0  0  0  0
  152.5362  141.0160  159.0014 N   0  0  0  0  0  0  0  0  0  0  0  0
  151.3657  141.8928  159.0236 C   0  0  0  0  0  0  0  0  0  0  0  0
  151.8555  143.2274  159.5863 C   0  0  0  0  0  0  0  0  0  0  0  0
  153.0674  142.8536  160.4274 C   0  0  0  0  0  0  0  0  0  0  0  0
  153.6526  141.6342  159.7149 C   0  0  0  0  0  0  0  0  0  0  0  0
  152.0648  139.8545  155.7213 H   0  0  0  0  0  0  0  0  0  0  0  0
  150.9044  138.5369  155.6860 H   0  0  0  0  0  0  0  0  0  0  0  0
  152.5689  138.2245  156.1643 H   0  0  0  0  0  0  0  0  0  0  0  0
  150.5293  139.9261  157.7234 H   0  0  0  0  0  0  0  0  0  0  0  0
  151.6518  137.2494  158.3921 H   0  0  0  0  0  0  0  0  0  0  0  0
  146.4862  137.2708  162.3936 H   0  0  0  0  0  0  0  0  0  0  0  0
  146.1194  134.6166  162.1071 H   0  0  0  0  0  0  0  0  0  0  0  0
  150.9277  142.0241  158.0334 H   0  0  0  0  0  0  0  0  0  0  0  0
  150.6093  141.4590  159.6797 H   0  0  0  0  0  0  0  0  0  0  0  0
  152.1670  143.8772  158.7674 H   0  0  0  0  0  0  0  0  0  0  0  0
  151.0893  143.7525  160.1574 H   0  0  0  0  0  0  0  0  0  0  0  0
  153.7831  143.6702  160.5266 H   0  0  0  0  0  0  0  0  0  0  0  0
  152.7417  142.5698  161.4291 H   0  0  0  0  0  0  0  0  0  0  0  0
  154.1176  140.9475  160.4241 H   0  0  0  0  0  0  0  0  0  0  0  0
  154.4100  141.9397  158.9914 H   0  0  0  0  0  0  0  0  0  0  0  0
  1  2  1  0  0  0  0
  1 19  1  0  0  0  0
  1 20  1  0  0  0  0
  1 21  1  0  0  0  0
  2  3  1  0  0  0  0
  2 12  1  0  0  0  0
  2 22  1  0  0  0  0
  3  4  1  0  0  0  0
  3 23  1  0  0  0  0
  4  5  2  0  0  0  0
  4  6  1  0  0  0  0
  6  7  1  0  0  0  0
  7 11  1  0  0  0  0
  7  8  2  0  0  0  0
  8  9  1  0  0  0  0
  9 10  2  0  0  0  0
  9 24  1  0  0  0  0
 10 11  1  0  0  0  0
 10 25  1  0  0  0  0
 12 13  2  0  0  0  0
 12 14  1  0  0  0  0
 14 18  1  0  0  0  0
 14 15  1  0  0  0  0
 15 16  1  0  0  0  0
 15 26  1  0  0  0  0
 15 27  1  0  0  0  0
 16 17  1  0  0  0  0
 16 28  1  0  0  0  0
 16 29  1  0  0  0  0
 17 18  1  0  0  0  0
 17 30  1  0  0  0  0
 17 31  1  0  0  0  0
 18 32  1  0  0  0  0
 18 33  1  0  0  0  0
M  CHG  1   6  -1
M  END
> <s_m_source_file>
AV-unprocessed.smi

> <i_m_source_file_index>
2456

> <i_lp_mmshare_version>
43012

> <i_f3d_flags>
0

> <s_epik_input>
W0NIMl0xW0NIMl1bQ0gyXVtDSDJdTjFDKD1PKVtDQEhdKFtDSDNdKVtOSF1DKD1PKVtOSF1jMm5bY0hdW2NIXXMy

> <s_epik_cmdline>
J2VwaWtfcHl0aG9uJywgJy1waCcsICc3LjAnLCAnLXRuJywgJzgnLCAnLW1hJywgJzIwMCcsICctbWV0YWxfYmluZGluZycsICctaW1hZScsICc8aW5maWxlLm1hZT4nLCAnLW9tYWUnLCAnPG91dGZpbGUubWFlPic=

> <r_lp_tautomer_probability>
1

> <r_epik_Ionization_Penalty>
5.99337

> <r_epik_Ionization_Penalty_Charging>
5.23786

> <r_epik_Ionization_Penalty_Neutral>
0.755512

> <r_epik_State_Penalty>
5.23778

> <r_epik_Charging_Adjusted_Penalty>
10.4756

> <i_epik_Tot_Q>
-1

> <i_epik_Tot_abs_Q>
1

> <r_epik_Metal_State_Penalty>
1.29566

> <b_epik_Metal_Only>
1

> <s_lp_Force_Field>
OPLS_2005

> <r_lp_Energy>
24.1286

> <b_lp_Chiralities_Consistent>
1

> <s_lp_Variant>
AV-unprocessed.smi:2456-4

> <Gold.Version>
5.8.1

> <Gold.Id.Protein>
6NUR|6NUR_protein|mol2

> <Gold.PLP.Fitness>
46.5966

> <Gold.PLP.PLP>
-33.9826

> <Gold.PLP.part.hbond>
-5.0829

> <Gold.PLP.part.metal>
0.0000

> <Gold.PLP.part.buried>
-3.2578

> <Gold.PLP.part.nonpolar>
-25.7980

> <Gold.PLP.part.repulsive>
0.0959

> <Gold.PLP.ligand.clash>
0.0000

> <Gold.PLP.ligand.torsion>
0.2700

> <Gold.PLP.Chemscore.Hbond>
4.3785

> <Gold.PLP.Chemscore.CHOScore>
0.0000

> <Gold.PLP.Chemscore.Metal>
0.0000

> <Gold.Chemscore.Hbonds>
donor molecule, donor type, donor heavy atom, donor atom, acceptor molecule, acceptor atom, score
      P1  H  6896  6907       L1     6  1.95
      P1  H  6931  6943       L1     8  0.96
      P1  H  6934  6947       L1     8  0.41
      P1  H  7997  8010       L1    13  1.00

> <Gold.PLP.Chemscore.Internal.Correction>
0.0185

> <Gold.Rescore>
     Score         DG    S(hbond)    S(metal)    S(lipo)     H(rot)  DE(clash)    DE(int)     intcor
     17.04     -18.95       2.58        0.00      70.68       1.33       0.04       1.87       ----

> <Gold.Chemscore.Fitness>
17.0429

> <Gold.Chemscore.DG>
-18.9492

> <Gold.Chemscore.ZeroCoef>
-5.4800

> <Gold.Chemscore.Hbond>
2.5751

> <Gold.Chemscore.Metal>
0.0000

> <Gold.Chemscore.Lipo>
70.6837

> <Gold.Chemscore.Internal_Hbond>
0.0000

> <Gold.Chemscore.DEClash>
0.0405

> <Gold.Chemscore.DEInternal>
1.8657

> <Gold.Chemscore.Rot>
1.3288

> <Gold.Chemscore.Internal.Correction>
   9.000000E+99

> <Gold.Chemscore.Hbonds>
donor molecule, donor type, donor heavy atom, donor atom, acceptor molecule, acceptor atom, score
      P1  H  6896  6907       L1     6  0.23
      P1  H  6931  6943       L1     8  0.59
      P1  H  6934  6947       L1     8  0.03
      P1  H  7997  8010       L1    13  0.72

> <Gold.Chemscore.Hbond.Weighted>
-8.6008

> <Gold.Chemscore.Metal.Weighted>
-0.0000

> <Gold.Chemscore.Lipo.Weighted>
-8.2700

> <Gold.Chemscore.Internal_Hbond.Weighted>
0.0000

> <Gold.Chemscore.DEClash.Weighted>
0.0405

> <Gold.Chemscore.DEInternal.Weighted>
1.8657

> <Gold.Chemscore.Rot.Weighted>
3.4017

> <Gold.Chemscore.Internal.Correction.Weighted>
   9.000000E+99

> <Gold.Protein.RotatedTorsions>
[ 6907 6896 6895 6894 ] final  -41.09 input  -60.11 | X-H torsion
[ 7974 7965 7964 7962 ] final   78.04 input  175.53 | X-H torsion
[ 8008 7997 7996 7995 ] final    6.00 input   59.86 | X-H torsion
[ 10167 10162 10161 10158 ] final  129.81 input  -65.29 | X-H torsion
[ 10718 10713 10712 10709 ] final   27.54 input   66.30 | X-H torsion
[ 10763 10752 10751 10750 ] final   92.61 input  -60.55 | X-H torsion
[ 11005 11000 10999 10996 ] final   10.03 input  -57.11 | X-H torsion

> <Gold.Protein.ActiveResidues>
 VAL166  LYS551  ARG553  GLY616  TRP617  ASP618  TYR619  PRO620  LYS621  CYS622 
 ASP623  PHE694  ASN695  SER759  ASP760  ASP761  ALA762  ILE779  LEU786  VAL792 
 PHE793  MET794  SER795  GLU796  ALA797  LYS798  CYS799  TRP800  GLU811  SER814 

> <Gold.Protein.RotatedAtoms>
  150.9708  134.9081  159.7786 H   0  0  0  0  0  0  0  0  0  0  0  0  # atno 6907 bound_to 6896
  152.5189  134.3544  159.9272 H   0  0  0  0  0  0  0  0  0  0  0  0  # atno 6908 bound_to 6896
  151.3553  133.3869  159.2719 H   0  0  0  0  0  0  0  0  0  0  0  0  # atno 6909 bound_to 6896
  145.6823  139.2527  143.1807 H   0  0  0  0  0  0  0  0  0  0  0  0  # atno 7974 bound_to 7965
  154.7354  140.2738  155.6419 H   0  0  0  0  0  0  0  0  0  0  0  0  # atno 8008 bound_to 7997
  156.2860  140.2707  156.1992 H   0  0  0  0  0  0  0  0  0  0  0  0  # atno 8009 bound_to 7997
  155.0327  140.0371  157.2470 H   0  0  0  0  0  0  0  0  0  0  0  0  # atno 8010 bound_to 7997
  139.5460  144.6773  151.4472 H   0  0  0  0  0  0  0  0  0  0  0  0  # atno 10167 bound_to 10162
  157.2216  130.6981  149.6272 H   0  0  0  0  0  0  0  0  0  0  0  0  # atno 10718 bound_to 10713
  153.2211  135.4355  155.0490 H   0  0  0  0  0  0  0  0  0  0  0  0  # atno 10763 bound_to 10752
  154.8250  135.3356  154.6926 H   0  0  0  0  0  0  0  0  0  0  0  0  # atno 10764 bound_to 10752
  153.7358  135.7008  153.5034 H   0  0  0  0  0  0  0  0  0  0  0  0  # atno 10765 bound_to 10752
  140.5190  134.0577  155.7839 H   0  0  0  0  0  0  0  0  0  0  0  0  # atno 11005 bound_to 11000
  146.0953  140.7607  142.9575 LP  0  0  0  0  0  0  0  0  0  0  0  0  # atno 17320 bound_to 7965
  144.7022  140.3702  143.7147 LP  0  0  0  0  0  0  0  0  0  0  0  0  # atno 17321 bound_to 7965
  140.6708  143.8298  150.6997 LP  0  0  0  0  0  0  0  0  0  0  0  0  # atno 17342 bound_to 10162
  140.1722  143.4185  152.1993 LP  0  0  0  0  0  0  0  0  0  0  0  0  # atno 17343 bound_to 10162
  155.9682  130.4518  150.5750 LP  0  0  0  0  0  0  0  0  0  0  0  0  # atno 17370 bound_to 10713
  157.3570  131.0743  151.1667 LP  0  0  0  0  0  0  0  0  0  0  0  0  # atno 17371 bound_to 10713
  141.1344  133.9246  157.2465 LP  0  0  0  0  0  0  0  0  0  0  0  0  # atno 17394 bound_to 11000
  139.9616  135.0153  156.9276 LP  0  0  0  0  0  0  0  0  0  0  0  0  # atno 17395 bound_to 11000

$$$$
