AV-unprocessed.smi:994|AV-procd|sdf|4339|dock1
  -GOLD-   22720 2233D 1   1.00000     0.00000
 Structure written by MMmdl.
 38 39  0  0  0  0  0  0  0  0  3 V2000
  151.4147  139.1538  157.5974 O   0  0  0  0  0  0  0  0  0  0  0  0
  151.2520  140.2789  157.1233 C   0  0  0  0  0  0  0  0  0  0  0  0
  150.9684  140.5020  155.8298 N   0  0  0  0  0  0  0  0  0  0  0  0
  150.8021  139.4849  154.7913 C   0  0  2  0  0  0  0  0  0  0  0  0
  149.5386  138.6292  155.0267 C   0  0  0  0  0  0  0  0  0  0  0  0
  148.3596  138.9785  154.1526 C   0  0  0  0  0  0  0  0  0  0  0  0
  147.2916  139.8283  154.3731 C   0  0  0  0  0  0  0  0  0  0  0  0
  146.4678  139.7552  153.2617 N   0  0  0  0  0  0  0  0  0  0  0  0
  147.0312  138.8896  152.4211 C   0  0  0  0  0  0  0  0  0  0  0  0
  148.1721  138.4025  152.9048 N   0  3  0  0  0  0  0  0  0  0  0  0
  152.0784  138.6475  154.6800 C   0  0  0  0  0  0  0  0  0  0  0  0
  151.9417  137.4059  154.6108 O   0  0  0  0  0  0  0  0  0  0  0  0
  153.1676  139.2612  154.6605 O   0  5  0  0  0  0  0  0  0  0  0  0
  151.3937  141.5197  158.0135 C   0  0  0  0  0  0  0  0  0  0  0  0
  151.2659  142.8111  157.1774 C   0  0  0  0  0  0  0  0  0  0  0  0
  151.4149  144.0630  158.0573 C   0  0  0  0  0  0  0  0  0  0  0  0
  152.7420  144.0443  158.8324 C   0  0  0  0  0  0  0  0  0  0  0  0
  152.8855  142.7569  159.6601 C   0  0  0  0  0  0  0  0  0  0  0  0
  152.7345  141.5067  158.7780 C   0  0  0  0  0  0  0  0  0  0  0  0
  145.5973  140.2491  153.1245 H   0  0  0  0  0  0  0  0  0  0  0  0
  150.8383  141.4591  155.5338 H   0  0  0  0  0  0  0  0  0  0  0  0
  150.6827  139.9891  153.8298 H   0  0  0  0  0  0  0  0  0  0  0  0
  149.7791  137.5824  154.8363 H   0  0  0  0  0  0  0  0  0  0  0  0
  149.2316  138.6806  156.0725 H   0  0  0  0  0  0  0  0  0  0  0  0
  147.0400  140.4588  155.2133 H   0  0  0  0  0  0  0  0  0  0  0  0
  146.6123  138.6138  151.4644 H   0  0  0  0  0  0  0  0  0  0  0  0
  150.5855  141.5087  158.7476 H   0  0  0  0  0  0  0  0  0  0  0  0
  152.0270  142.8303  156.3955 H   0  0  0  0  0  0  0  0  0  0  0  0
  150.3012  142.8362  156.6688 H   0  0  0  0  0  0  0  0  0  0  0  0
  151.3582  144.9599  157.4399 H   0  0  0  0  0  0  0  0  0  0  0  0
  150.5819  144.1177  158.7594 H   0  0  0  0  0  0  0  0  0  0  0  0
  153.5747  144.1226  158.1325 H   0  0  0  0  0  0  0  0  0  0  0  0
  152.8037  144.9157  159.4849 H   0  0  0  0  0  0  0  0  0  0  0  0
  153.8541  142.7432  160.1609 H   0  0  0  0  0  0  0  0  0  0  0  0
  152.1306  142.7419  160.4472 H   0  0  0  0  0  0  0  0  0  0  0  0
  152.8034  140.6125  159.3989 H   0  0  0  0  0  0  0  0  0  0  0  0
  153.5698  141.4598  158.0772 H   0  0  0  0  0  0  0  0  0  0  0  0
  148.7760  137.7258  152.4601 H   0  0  0  0  0  0  0  0  0  0  0  0
  1  2  2  0  0  0  0
  2  3  1  0  0  0  0
  2 14  1  0  0  0  0
  3  4  1  0  0  0  0
  3 21  1  0  0  0  0
  4  5  1  0  0  0  0
  4 11  1  0  0  0  0
  4 22  1  0  0  0  0
  5  6  1  0  0  0  0
  5 23  1  0  0  0  0
  5 24  1  0  0  0  0
  6 10  1  0  0  0  0
  6  7  2  0  0  0  0
  7  8  1  0  0  0  0
  7 25  1  0  0  0  0
  8 20  1  0  0  0  0
  8  9  1  0  0  0  0
  9 10  2  0  0  0  0
  9 26  1  0  0  0  0
 10 38  1  0  0  0  0
 11 12  2  0  0  0  0
 11 13  1  0  0  0  0
 14 19  1  0  0  0  0
 14 15  1  0  0  0  0
 14 27  1  0  0  0  0
 15 16  1  0  0  0  0
 15 28  1  0  0  0  0
 15 29  1  0  0  0  0
 16 17  1  0  0  0  0
 16 30  1  0  0  0  0
 16 31  1  0  0  0  0
 17 18  1  0  0  0  0
 17 32  1  0  0  0  0
 17 33  1  0  0  0  0
 18 19  1  0  0  0  0
 18 34  1  0  0  0  0
 18 35  1  0  0  0  0
 19 36  1  0  0  0  0
 19 37  1  0  0  0  0
M  CHG  1  10   1
M  CHG  1  13  -1
M  END
> <s_m_source_file>
AV-unprocessed.smi

> <i_m_source_file_index>
994

> <i_lp_mmshare_version>
43012

> <i_f3d_flags>
0

> <s_epik_input>
W0NIMl0xW0NIMl1bQ0gyXVtDSDJdW0NIMl1bQ0hdMUMoPU8pW05IXVtDQEBIXShDKD1PKVtPSF0pW0NIMl1jMltjSF1bbkhdW2NIXW4y

> <s_epik_cmdline>
J2VwaWtfcHl0aG9uJywgJy1waCcsICc3LjAnLCAnLXRuJywgJzgnLCAnLW1hJywgJzIwMCcsICctbWV0YWxfYmluZGluZycsICctaW1hZScsICc8aW5maWxlLm1hZT4nLCAnLW9tYWUnLCAnPG91dGZpbGUubWFlPic=

> <r_lp_tautomer_probability>
1

> <r_epik_Ionization_Penalty>
0.469853

> <r_epik_Ionization_Penalty_Charging>
5.5863e-05

> <r_epik_Ionization_Penalty_Neutral>
0.469797

> <r_epik_State_Penalty>
0.377582

> <r_epik_Charging_Adjusted_Penalty>
0.377638

> <i_epik_Tot_Q>
0

> <i_epik_Tot_abs_Q>
2

> <r_epik_Metal_State_Penalty>
0.796804

> <b_epik_Metal_Only>
0

> <s_lp_Force_Field>
OPLS_2005

> <r_lp_Energy>
7.64934

> <b_lp_Chiralities_Consistent>
1

> <s_lp_Variant>
AV-unprocessed.smi:994-1

> <Gold.Version>
5.8.1

> <Gold.Id.Protein>
6NUR|6NUR_protein|mol2

> <Gold.PLP.Fitness>
59.1565

> <Gold.PLP.PLP>
-40.2724

> <Gold.PLP.part.hbond>
-5.6443

> <Gold.PLP.part.metal>
0.0000

> <Gold.PLP.part.buried>
-4.7994

> <Gold.PLP.part.nonpolar>
-30.6789

> <Gold.PLP.part.repulsive>
0.3278

> <Gold.PLP.ligand.clash>
2.1549

> <Gold.PLP.ligand.torsion>
1.3550

> <Gold.PLP.Chemscore.Hbond>
7.8715

> <Gold.PLP.Chemscore.CHOScore>
0.0000

> <Gold.PLP.Chemscore.Metal>
0.0000

> <Gold.Chemscore.Hbonds>
donor molecule, donor type, donor heavy atom, donor atom, acceptor molecule, acceptor atom, score
      L1  H     8    20       P1 10175  1.98
      L1  H    10    38       P1  7948  1.98
      P1  H  7997  8009       L1    13  2.00
      P1  H 10752 10765       L1    12  1.82

> <Gold.PLP.Chemscore.Internal.Correction>
0.1346

> <Gold.Rescore>
     Score         DG    S(hbond)    S(metal)    S(lipo)     H(rot)  DE(clash)    DE(int)     intcor
     19.28     -20.80       3.70        0.00      84.80       2.72       0.06       1.45       ----

> <Gold.Chemscore.Fitness>
19.2799

> <Gold.Chemscore.DG>
-20.7967

> <Gold.Chemscore.ZeroCoef>
-5.4800

> <Gold.Chemscore.Hbond>
3.7007

> <Gold.Chemscore.Metal>
0.0000

> <Gold.Chemscore.Lipo>
84.7990

> <Gold.Chemscore.Internal_Hbond>
0.0000

> <Gold.Chemscore.DEClash>
0.0643

> <Gold.Chemscore.DEInternal>
1.4525

> <Gold.Chemscore.Rot>
2.7208

> <Gold.Chemscore.Internal.Correction>
   9.000000E+99

> <Gold.Chemscore.Hbonds>
donor molecule, donor type, donor heavy atom, donor atom, acceptor molecule, acceptor atom, score
      L1  H     8    20       P1 10175  0.89
      L1  H    10    38       P1  7948  0.93
      P1  H  7997  8009       L1    13  0.95
      P1  H 10752 10765       L1    12  0.84

> <Gold.Chemscore.Hbond.Weighted>
-12.3603

> <Gold.Chemscore.Metal.Weighted>
-0.0000

> <Gold.Chemscore.Lipo.Weighted>
-9.9215

> <Gold.Chemscore.Internal_Hbond.Weighted>
0.0000

> <Gold.Chemscore.DEClash.Weighted>
0.0643

> <Gold.Chemscore.DEInternal.Weighted>
1.4525

> <Gold.Chemscore.Rot.Weighted>
6.9652

> <Gold.Chemscore.Internal.Correction.Weighted>
   9.000000E+99

> <Gold.Protein.RotatedTorsions>
[ 6907 6896 6895 6894 ] final  165.51 input  -60.11 | X-H torsion
[ 7974 7965 7964 7962 ] final -151.49 input  175.53 | X-H torsion
[ 8008 7997 7996 7995 ] final -138.40 input   59.86 | X-H torsion
[ 10167 10162 10161 10158 ] final  -29.17 input  -65.29 | X-H torsion
[ 10718 10713 10712 10709 ] final  -50.72 input   66.30 | X-H torsion
[ 10763 10752 10751 10750 ] final  167.24 input  -60.55 | X-H torsion
[ 11005 11000 10999 10996 ] final -129.49 input  -57.11 | X-H torsion

> <Gold.Protein.ActiveResidues>
 VAL166  LYS551  ARG553  GLY616  TRP617  ASP618  TYR619  PRO620  LYS621  CYS622 
 ASP623  PHE694  ASN695  SER759  ASP760  ASP761  ALA762  ILE779  LEU786  VAL792 
 PHE793  MET794  SER795  GLU796  ALA797  LYS798  CYS799  TRP800  GLU811  SER814 

> <Gold.Protein.RotatedAtoms>
  151.8934  133.3521  159.3805 H   0  0  0  0  0  0  0  0  0  0  0  0  # atno 6907 bound_to 6896
  150.7098  134.4901  159.5521 H   0  0  0  0  0  0  0  0  0  0  0  0  # atno 6908 bound_to 6896
  152.2476  134.8166  160.0502 H   0  0  0  0  0  0  0  0  0  0  0  0  # atno 6909 bound_to 6896
  144.7847  140.4791  143.5814 H   0  0  0  0  0  0  0  0  0  0  0  0  # atno 7974 bound_to 7965
  155.4277  140.0523  157.3021 H   0  0  0  0  0  0  0  0  0  0  0  0  # atno 8008 bound_to 7997
  154.4874  140.2106  155.9583 H   0  0  0  0  0  0  0  0  0  0  0  0  # atno 8009 bound_to 7997
  156.1294  140.3174  155.8331 H   0  0  0  0  0  0  0  0  0  0  0  0  # atno 8010 bound_to 7997
  140.7263  143.3950  151.1364 H   0  0  0  0  0  0  0  0  0  0  0  0  # atno 10167 bound_to 10162
  156.1775  130.4150  149.9556 H   0  0  0  0  0  0  0  0  0  0  0  0  # atno 10718 bound_to 10713
  154.3510  135.2753  155.2372 H   0  0  0  0  0  0  0  0  0  0  0  0  # atno 10763 bound_to 10752
  154.4601  135.5909  153.6254 H   0  0  0  0  0  0  0  0  0  0  0  0  # atno 10764 bound_to 10752
  152.9850  135.6063  154.3720 H   0  0  0  0  0  0  0  0  0  0  0  0  # atno 10765 bound_to 10752
  140.9427  134.1171  157.4136 H   0  0  0  0  0  0  0  0  0  0  0  0  # atno 11005 bound_to 11000
  145.5954  139.1499  143.3159 LP  0  0  0  0  0  0  0  0  0  0  0  0  # atno 17320 bound_to 7965
  146.2073  140.6078  142.9075 LP  0  0  0  0  0  0  0  0  0  0  0  0  # atno 17321 bound_to 7965
  139.7561  143.8706  152.3089 LP  0  0  0  0  0  0  0  0  0  0  0  0  # atno 17342 bound_to 10162
  139.8576  144.7133  150.9139 LP  0  0  0  0  0  0  0  0  0  0  0  0  # atno 17343 bound_to 10162
  156.7337  130.9053  151.3627 LP  0  0  0  0  0  0  0  0  0  0  0  0  # atno 17370 bound_to 10713
  157.6845  130.9172  150.0352 LP  0  0  0  0  0  0  0  0  0  0  0  0  # atno 17371 bound_to 10713
  139.8825  135.0041  156.6232 LP  0  0  0  0  0  0  0  0  0  0  0  0  # atno 17394 bound_to 11000
  140.7712  133.8737  155.8493 LP  0  0  0  0  0  0  0  0  0  0  0  0  # atno 17395 bound_to 11000

$$$$
