AV-unprocessed.smi:1645|AV-procd|sdf|6605|dock6
  -GOLD-   22720 7303D 1   1.00000     0.00000
 Structure written by MMmdl.
 55 58  0  0  0  0  0  0  0  0  2 V2000
  145.8287  137.7247  154.5267 O   0  0  0  0  0  0  0  0  0  0  0  0
  146.6847  137.2162  153.8028 C   0  0  0  0  0  0  0  0  0  0  0  0
  147.9954  137.5115  153.8278 N   0  0  0  0  0  0  0  0  0  0  0  0
  148.6732  138.4068  154.6984 C   0  0  0  0  0  0  0  0  0  0  0  0
  148.2751  138.6687  156.0296 C   0  0  0  0  0  0  0  0  0  0  0  0
  149.0376  139.5616  156.8059 C   0  0  0  0  0  0  0  0  0  0  0  0
  150.1826  140.1676  156.2390 C   0  0  0  0  0  0  0  0  0  0  0  0
  150.9559  141.0657  157.0044 N   0  0  0  0  0  0  0  0  0  0  0  0
  150.3984  142.4134  157.1304 C   0  0  0  0  0  0  0  0  0  0  0  0
  151.4640  143.4123  157.6136 C   0  0  0  0  0  0  0  0  0  0  0  0
  152.1348  142.9240  158.9060 C   0  0  0  0  0  0  0  0  0  0  0  0
  152.7019  141.5113  158.7034 C   0  0  0  0  0  0  0  0  0  0  0  0
  151.6123  140.5461  158.2063 C   0  0  0  0  0  0  0  0  0  0  0  0
  150.5679  139.9067  154.9658 N   0  0  0  0  0  0  0  0  0  0  0  0
  149.8366  139.0464  154.2265 C   0  0  0  0  0  0  0  0  0  0  0  0
  146.4073  136.2976  152.8662 N   0  0  0  0  0  0  0  0  0  0  0  0
  145.0728  135.7830  152.5689 C   0  0  1  0  0  0  0  0  0  0  0  0
  145.0525  134.8230  151.3712 C   0  0  0  0  0  0  0  0  0  0  0  0
  143.9925  133.7584  151.7199 C   0  0  0  0  0  0  0  0  0  0  0  0
  143.4296  134.1312  153.0387 N   0  3  2  0  0  0  0  0  0  0  0  0
  142.1275  134.8430  152.9077 C   0  0  0  0  0  0  0  0  0  0  0  0
  141.6555  135.4440  154.2384 C   0  0  0  0  0  0  0  0  0  0  0  0
  142.7155  136.3976  154.7952 C   0  0  0  0  0  0  0  0  0  0  0  0
  144.0304  135.6357  154.9839 C   0  0  0  0  0  0  0  0  0  0  0  0
  144.5007  134.9164  153.6992 C   0  0  2  0  0  0  0  0  0  0  0  0
  148.5646  137.0926  153.1068 H   0  0  0  0  0  0  0  0  0  0  0  0
  147.4121  138.1962  156.4723 H   0  0  0  0  0  0  0  0  0  0  0  0
  148.7330  139.7795  157.8186 H   0  0  0  0  0  0  0  0  0  0  0  0
  149.9834  142.7666  156.1872 H   0  0  0  0  0  0  0  0  0  0  0  0
  149.5719  142.3809  157.8412 H   0  0  0  0  0  0  0  0  0  0  0  0
  152.2190  143.5428  156.8370 H   0  0  0  0  0  0  0  0  0  0  0  0
  151.0113  144.3910  157.7735 H   0  0  0  0  0  0  0  0  0  0  0  0
  152.9280  143.6107  159.2023 H   0  0  0  0  0  0  0  0  0  0  0  0
  151.4070  142.9152  159.7184 H   0  0  0  0  0  0  0  0  0  0  0  0
  153.5165  141.5456  157.9788 H   0  0  0  0  0  0  0  0  0  0  0  0
  153.1312  141.1418  159.6346 H   0  0  0  0  0  0  0  0  0  0  0  0
  150.8644  140.3957  158.9858 H   0  0  0  0  0  0  0  0  0  0  0  0
  152.0628  139.5748  157.9982 H   0  0  0  0  0  0  0  0  0  0  0  0
  150.1906  138.8699  153.2213 H   0  0  0  0  0  0  0  0  0  0  0  0
  147.1711  135.9374  152.3126 H   0  0  0  0  0  0  0  0  0  0  0  0
  144.3916  136.6080  152.3529 H   0  0  0  0  0  0  0  0  0  0  0  0
  144.8115  135.3502  150.4475 H   0  0  0  0  0  0  0  0  0  0  0  0
  146.0218  134.3425  151.2306 H   0  0  0  0  0  0  0  0  0  0  0  0
  143.2249  133.6707  150.9495 H   0  0  0  0  0  0  0  0  0  0  0  0
  144.4686  132.7814  151.8111 H   0  0  0  0  0  0  0  0  0  0  0  0
  142.2106  135.6376  152.1644 H   0  0  0  0  0  0  0  0  0  0  0  0
  141.3785  134.1453  152.5318 H   0  0  0  0  0  0  0  0  0  0  0  0
  140.7158  135.9774  154.0924 H   0  0  0  0  0  0  0  0  0  0  0  0
  141.4539  134.6484  154.9569 H   0  0  0  0  0  0  0  0  0  0  0  0
  142.8600  137.2400  154.1177 H   0  0  0  0  0  0  0  0  0  0  0  0
  142.3846  136.8156  155.7462 H   0  0  0  0  0  0  0  0  0  0  0  0
  144.8053  136.3044  155.3570 H   0  0  0  0  0  0  0  0  0  0  0  0
  143.8859  134.8894  155.7661 H   0  0  0  0  0  0  0  0  0  0  0  0
  145.2742  134.2034  153.9925 H   0  0  0  0  0  0  0  0  0  0  0  0
  143.2608  133.2955  153.5799 H   0  0  0  0  0  0  0  0  0  0  0  0
  1  2  2  0  0  0  0
  2  3  1  0  0  0  0
  2 16  1  0  0  0  0
  3  4  1  0  0  0  0
  3 26  1  0  0  0  0
  4 15  1  0  0  0  0
  4  5  2  0  0  0  0
  5  6  1  0  0  0  0
  5 27  1  0  0  0  0
  6  7  2  0  0  0  0
  6 28  1  0  0  0  0
  7  8  1  0  0  0  0
  7 14  1  0  0  0  0
  8 13  1  0  0  0  0
  8  9  1  0  0  0  0
  9 10  1  0  0  0  0
  9 29  1  0  0  0  0
  9 30  1  0  0  0  0
 10 11  1  0  0  0  0
 10 31  1  0  0  0  0
 10 32  1  0  0  0  0
 11 12  1  0  0  0  0
 11 33  1  0  0  0  0
 11 34  1  0  0  0  0
 12 13  1  0  0  0  0
 12 35  1  0  0  0  0
 12 36  1  0  0  0  0
 13 37  1  0  0  0  0
 13 38  1  0  0  0  0
 14 15  2  0  0  0  0
 15 39  1  0  0  0  0
 16 17  1  0  0  0  0
 16 40  1  0  0  0  0
 17 25  1  0  0  0  0
 17 18  1  0  0  0  0
 17 41  1  0  0  0  0
 18 19  1  0  0  0  0
 18 42  1  0  0  0  0
 18 43  1  0  0  0  0
 19 20  1  0  0  0  0
 19 44  1  0  0  0  0
 19 45  1  0  0  0  0
 20 25  1  0  0  0  0
 20 21  1  0  0  0  0
 20 55  1  0  0  0  0
 21 22  1  0  0  0  0
 21 46  1  0  0  0  0
 21 47  1  0  0  0  0
 22 23  1  0  0  0  0
 22 48  1  0  0  0  0
 22 49  1  0  0  0  0
 23 24  1  0  0  0  0
 23 50  1  0  0  0  0
 23 51  1  0  0  0  0
 24 25  1  0  0  0  0
 24 52  1  0  0  0  0
 24 53  1  0  0  0  0
 25 54  1  0  0  0  0
M  CHG  1  20   1
M  END
> <s_m_source_file>
AV-unprocessed.smi

> <i_m_source_file_index>
1645

> <i_lp_mmshare_version>
43012

> <i_f3d_flags>
0

> <s_epik_input>
W0NIMl0xW0NIMl1bQ0gyXVtDSDJdW0NASF0oTjEyKVtDQEBIXShbQ0gyXVtDSDJdMilbTkhdQyg9TylbTkhdYzNbY0hdW2NIXWMobltjSF0zKU40W0NIMl1bQ0gyXVtDSDJdW0NIMl1bQ0gyXTQ=

> <s_epik_cmdline>
J2VwaWtfcHl0aG9uJywgJy1waCcsICc3LjAnLCAnLXRuJywgJzgnLCAnLW1hJywgJzIwMCcsICctbWV0YWxfYmluZGluZycsICctaW1hZScsICc8aW5maWxlLm1hZT4nLCAnLW9tYWUnLCAnPG91dGZpbGUubWFlPic=

> <r_lp_tautomer_probability>
1

> <r_epik_Ionization_Penalty>
0.0808019

> <r_epik_Ionization_Penalty_Charging>
0.000974069

> <r_epik_Ionization_Penalty_Neutral>
0.0798278

> <r_epik_State_Penalty>
0.0653665

> <r_epik_Charging_Adjusted_Penalty>
0.0663406

> <i_epik_Tot_Q>
1

> <i_epik_Tot_abs_Q>
1

> <r_epik_Metal_State_Penalty>
0.0585673

> <b_epik_Metal_Only>
0

> <s_lp_Force_Field>
OPLS_2005

> <r_lp_Energy>
54.666

> <b_lp_Chiralities_Consistent>
1

> <s_lp_Variant>
AV-unprocessed.smi:1645-6

> <Gold.Version>
5.8.1

> <Gold.Id.Protein>
6NUR|6NUR_protein|mol2

> <Gold.PLP.Fitness>
47.4740

> <Gold.PLP.PLP>
-30.5231

> <Gold.PLP.part.hbond>
-3.9166

> <Gold.PLP.part.metal>
0.0000

> <Gold.PLP.part.buried>
-3.1809

> <Gold.PLP.part.nonpolar>
-24.6868

> <Gold.PLP.part.repulsive>
0.1835

> <Gold.PLP.ligand.clash>
0.0000

> <Gold.PLP.ligand.torsion>
0.4922

> <Gold.PLP.Chemscore.Hbond>
4.8373

> <Gold.PLP.Chemscore.CHOScore>
1.0000

> <Gold.PLP.Chemscore.Metal>
0.0000

> <Gold.Chemscore.Hbonds>
donor molecule, donor type, donor heavy atom, donor atom, acceptor molecule, acceptor atom, score
      L1  H     3    26       P1  7948  1.00
      L1  H    16    40       P1  7948  0.90
      L1  H    20    55       P1 10957  1.98
      P1  H  7989  7998       L1    14  0.94
      L1  C    15    39       P1  7957  1.00

> <Gold.PLP.Chemscore.Internal.Correction>
0.4235

> <Gold.Rescore>
     Score         DG    S(hbond)    S(metal)    S(lipo)     H(rot)  DE(clash)    DE(int)     intcor
     20.73     -23.94       3.30        0.00      89.16       1.17       0.35       2.85       ----

> <Gold.Chemscore.Fitness>
20.7345

> <Gold.Chemscore.DG>
-23.9358

> <Gold.Chemscore.ZeroCoef>
-5.4800

> <Gold.Chemscore.Hbond>
3.3016

> <Gold.Chemscore.Metal>
0.0000

> <Gold.Chemscore.Lipo>
89.1609

> <Gold.Chemscore.Internal_Hbond>
0.0000

> <Gold.Chemscore.DEClash>
0.3548

> <Gold.Chemscore.DEInternal>
2.8464

> <Gold.Chemscore.Rot>
1.1731

> <Gold.Chemscore.Internal.Correction>
   9.000000E+99

> <Gold.Chemscore.Hbonds>
donor molecule, donor type, donor heavy atom, donor atom, acceptor molecule, acceptor atom, score
      L1  H     3    26       P1  7948  0.95
      L1  H    16    40       P1  7948  0.87
      L1  H    20    55       P1 10957  0.91
      P1  H  7989  7998       L1    14  0.27

> <Gold.Chemscore.Hbond.Weighted>
-11.0272

> <Gold.Chemscore.Metal.Weighted>
-0.0000

> <Gold.Chemscore.Lipo.Weighted>
-10.4318

> <Gold.Chemscore.Internal_Hbond.Weighted>
0.0000

> <Gold.Chemscore.DEClash.Weighted>
0.3548

> <Gold.Chemscore.DEInternal.Weighted>
2.8464

> <Gold.Chemscore.Rot.Weighted>
3.0032

> <Gold.Chemscore.Internal.Correction.Weighted>
   9.000000E+99

> <Gold.Protein.RotatedTorsions>
[ 6907 6896 6895 6894 ] final -161.99 input  -60.11 | X-H torsion
[ 7974 7965 7964 7962 ] final -155.49 input  175.53 | X-H torsion
[ 8008 7997 7996 7995 ] final   74.09 input   59.86 | X-H torsion
[ 10167 10162 10161 10158 ] final   -9.60 input  -65.29 | X-H torsion
[ 10718 10713 10712 10709 ] final  132.24 input   66.30 | X-H torsion
[ 10763 10752 10751 10750 ] final   64.68 input  -60.55 | X-H torsion
[ 11005 11000 10999 10996 ] final  -94.99 input  -57.11 | X-H torsion

> <Gold.Protein.ActiveResidues>
 VAL166  LYS551  ARG553  GLY616  TRP617  ASP618  TYR619  PRO620  LYS621  CYS622 
 ASP623  PHE694  ASN695  SER759  ASP760  ASP761  ALA762  ILE779  LEU786  VAL792 
 PHE793  MET794  SER795  GLU796  ALA797  LYS798  CYS799  TRP800  GLU811  SER814 

> <Gold.Protein.RotatedAtoms>
  151.3733  133.3847  159.2701 H   0  0  0  0  0  0  0  0  0  0  0  0  # atno 6907 bound_to 6896
  150.9634  134.9019  159.7755 H   0  0  0  0  0  0  0  0  0  0  0  0  # atno 6908 bound_to 6896
  152.5158  134.3693  159.9364 H   0  0  0  0  0  0  0  0  0  0  0  0  # atno 6909 bound_to 6896
  144.7638  140.4242  143.5957 H   0  0  0  0  0  0  0  0  0  0  0  0  # atno 7974 bound_to 7965
  155.7933  140.3478  155.5361 H   0  0  0  0  0  0  0  0  0  0  0  0  # atno 8008 bound_to 7997
  155.8612  140.0971  157.1632 H   0  0  0  0  0  0  0  0  0  0  0  0  # atno 8009 bound_to 7997
  154.4012  140.1358  156.3950 H   0  0  0  0  0  0  0  0  0  0  0  0  # atno 8010 bound_to 7997
  140.7091  143.5840  150.8962 H   0  0  0  0  0  0  0  0  0  0  0  0  # atno 10167 bound_to 10162
  157.4890  131.1089  150.9581 H   0  0  0  0  0  0  0  0  0  0  0  0  # atno 10718 bound_to 10713
  153.0065  135.5384  154.6549 H   0  0  0  0  0  0  0  0  0  0  0  0  # atno 10763 bound_to 10752
  154.5772  135.2847  155.0771 H   0  0  0  0  0  0  0  0  0  0  0  0  # atno 10764 bound_to 10752
  154.1914  135.6499  153.5113 H   0  0  0  0  0  0  0  0  0  0  0  0  # atno 10765 bound_to 10752
  141.1455  133.7995  157.0374 H   0  0  0  0  0  0  0  0  0  0  0  0  # atno 11005 bound_to 11000
  145.6536  139.1569  143.2848 LP  0  0  0  0  0  0  0  0  0  0  0  0  # atno 17320 bound_to 7965
  146.1726  140.6622  142.9226 LP  0  0  0  0  0  0  0  0  0  0  0  0  # atno 17321 bound_to 7965
  139.9566  143.6211  152.3014 LP  0  0  0  0  0  0  0  0  0  0  0  0  # atno 17342 bound_to 10162
  139.6749  144.7659  151.1715 LP  0  0  0  0  0  0  0  0  0  0  0  0  # atno 17343 bound_to 10162
  157.0289  130.5703  149.5340 LP  0  0  0  0  0  0  0  0  0  0  0  0  # atno 17370 bound_to 10713
  156.0163  130.5257  150.8144 LP  0  0  0  0  0  0  0  0  0  0  0  0  # atno 17371 bound_to 10713
  140.0714  134.9700  157.1474 LP  0  0  0  0  0  0  0  0  0  0  0  0  # atno 17394 bound_to 11000
  140.3705  134.2396  155.7178 LP  0  0  0  0  0  0  0  0  0  0  0  0  # atno 17395 bound_to 11000

$$$$
