AV-unprocessed.smi:1207|AV-procd|sdf|5058|dock9
  -GOLD-   22720 4 93D 1   1.00000     0.00000
 Structure written by MMmdl.
 53 55  0  0  0  0  0  0  0  0  3 V2000
  152.4831  144.2173  160.5395 C   0  0  0  0  0  0  0  0  0  0  0  0
  152.1774  143.2149  159.4395 C   0  0  0  0  0  0  0  0  0  0  0  0
  151.2159  143.5586  158.4625 C   0  0  0  0  0  0  0  0  0  0  0  0
  150.9556  142.6199  157.4712 C   0  0  0  0  0  0  0  0  0  0  0  0
  150.0785  142.6544  156.3851 N   0  3  0  0  0  0  0  0  0  0  0  0
  150.1732  141.4890  155.6867 C   0  0  0  0  0  0  0  0  0  0  0  0
  151.0972  140.7096  156.3129 N   0  0  0  0  0  0  0  0  0  0  0  0
  151.5781  139.3609  155.9837 C   0  0  0  0  0  0  0  0  0  0  0  0
  150.6960  138.6515  154.9376 C   0  0  1  0  0  0  0  0  0  0  0  0
  150.8143  139.3202  153.6966 O   0  0  0  0  0  0  0  0  0  0  0  0
  151.0912  137.1735  154.7472 C   0  0  0  0  0  0  0  0  0  0  0  0
  149.8995  136.2925  154.6527 N   0  3  1  0  0  0  0  0  0  0  0  0
  150.2542  134.8555  154.7082 C   0  0  0  0  0  0  0  0  0  0  0  0
  148.8265  136.6526  155.6150 C   0  0  0  0  0  0  0  0  0  0  0  0
  149.0692  136.0092  156.9540 C   0  0  0  0  0  0  0  0  0  0  0  0
  148.7314  134.6835  157.3504 C   0  0  0  0  0  0  0  0  0  0  0  0
  148.0645  133.6092  156.5395 C   0  0  0  0  0  0  0  0  0  0  0  0
  149.0879  134.4352  158.5985 N   0  0  0  0  0  0  0  0  0  0  0  0
  149.6743  135.6131  159.0708 O   0  0  0  0  0  0  0  0  0  0  0  0
  149.6514  136.5350  158.0753 C   0  0  0  0  0  0  0  0  0  0  0  0
  150.2389  137.8680  158.3950 C   0  0  0  0  0  0  0  0  0  0  0  0
  151.6149  141.3762  157.4286 C   0  0  0  0  0  0  0  0  0  0  0  0
  152.5678  141.0229  158.3810 C   0  0  0  0  0  0  0  0  0  0  0  0
  152.8448  141.9631  159.3992 C   0  0  0  0  0  0  0  0  0  0  0  0
  153.8765  141.6044  160.4552 C   0  0  0  0  0  0  0  0  0  0  0  0
  151.8941  145.1277  160.4254 H   0  0  0  0  0  0  0  0  0  0  0  0
  153.5364  144.4983  160.5207 H   0  0  0  0  0  0  0  0  0  0  0  0
  152.2543  143.7935  161.5175 H   0  0  0  0  0  0  0  0  0  0  0  0
  150.7050  144.5101  158.4865 H   0  0  0  0  0  0  0  0  0  0  0  0
  149.6135  141.2299  154.7995 H   0  0  0  0  0  0  0  0  0  0  0  0
  152.6015  139.4568  155.6181 H   0  0  0  0  0  0  0  0  0  0  0  0
  151.6311  138.7830  156.9074 H   0  0  0  0  0  0  0  0  0  0  0  0
  149.6557  138.7232  155.2520 H   0  0  0  0  0  0  0  0  0  0  0  0
  149.9621  139.3582  153.2891 H   0  0  0  0  0  0  0  0  0  0  0  0
  151.6982  137.0885  153.8442 H   0  0  0  0  0  0  0  0  0  0  0  0
  151.7234  136.8321  155.5688 H   0  0  0  0  0  0  0  0  0  0  0  0
  150.6884  134.5965  155.6747 H   0  0  0  0  0  0  0  0  0  0  0  0
  150.9768  134.6057  153.9308 H   0  0  0  0  0  0  0  0  0  0  0  0
  149.3773  134.2284  154.5473 H   0  0  0  0  0  0  0  0  0  0  0  0
  148.7554  137.7382  155.6926 H   0  0  0  0  0  0  0  0  0  0  0  0
  147.8576  136.3328  155.2326 H   0  0  0  0  0  0  0  0  0  0  0  0
  147.1730  133.9909  156.0416 H   0  0  0  0  0  0  0  0  0  0  0  0
  147.7581  132.7660  157.1595 H   0  0  0  0  0  0  0  0  0  0  0  0
  148.7370  133.2284  155.7708 H   0  0  0  0  0  0  0  0  0  0  0  0
  150.3895  138.4604  157.4929 H   0  0  0  0  0  0  0  0  0  0  0  0
  151.2047  137.7558  158.8880 H   0  0  0  0  0  0  0  0  0  0  0  0
  149.5827  138.4279  159.0616 H   0  0  0  0  0  0  0  0  0  0  0  0
  153.0769  140.0713  158.3495 H   0  0  0  0  0  0  0  0  0  0  0  0
  154.2898  140.6092  160.2885 H   0  0  0  0  0  0  0  0  0  0  0  0
  153.4279  141.6160  161.4489 H   0  0  0  0  0  0  0  0  0  0  0  0
  154.7033  142.3150  160.4400 H   0  0  0  0  0  0  0  0  0  0  0  0
  149.5234  136.4511  153.7284 H   0  0  0  0  0  0  0  0  0  0  0  0
  149.4600  143.4162  156.1360 H   0  0  0  0  0  0  0  0  0  0  0  0
  1  2  1  0  0  0  0
  1 26  1  0  0  0  0
  1 27  1  0  0  0  0
  1 28  1  0  0  0  0
  2 24  1  0  0  0  0
  2  3  2  0  0  0  0
  3  4  1  0  0  0  0
  3 29  1  0  0  0  0
  4 22  2  0  0  0  0
  4  5  1  0  0  0  0
  5  6  2  0  0  0  0
  5 53  1  0  0  0  0
  6  7  1  0  0  0  0
  6 30  1  0  0  0  0
  7  8  1  0  0  0  0
  7 22  1  0  0  0  0
  8  9  1  0  0  0  0
  8 31  1  0  0  0  0
  8 32  1  0  0  0  0
  9 10  1  0  0  0  0
  9 11  1  0  0  0  0
  9 33  1  0  0  0  0
 10 34  1  0  0  0  0
 11 12  1  0  0  0  0
 11 35  1  0  0  0  0
 11 36  1  0  0  0  0
 12 13  1  0  0  0  0
 12 14  1  0  0  0  0
 12 52  1  0  0  0  0
 13 37  1  0  0  0  0
 13 38  1  0  0  0  0
 13 39  1  0  0  0  0
 14 15  1  0  0  0  0
 14 40  1  0  0  0  0
 14 41  1  0  0  0  0
 15 20  2  0  0  0  0
 15 16  1  0  0  0  0
 16 17  1  0  0  0  0
 16 18  2  0  0  0  0
 17 42  1  0  0  0  0
 17 43  1  0  0  0  0
 17 44  1  0  0  0  0
 18 19  1  0  0  0  0
 19 20  1  0  0  0  0
 20 21  1  0  0  0  0
 21 45  1  0  0  0  0
 21 46  1  0  0  0  0
 21 47  1  0  0  0  0
 22 23  1  0  0  0  0
 23 24  2  0  0  0  0
 23 48  1  0  0  0  0
 24 25  1  0  0  0  0
 25 49  1  0  0  0  0
 25 50  1  0  0  0  0
 25 51  1  0  0  0  0
M  CHG  1   5   1
M  CHG  1  12   1
M  END
> <s_m_source_file>
AV-unprocessed.smi

> <i_m_source_file_index>
1207

> <i_lp_mmshare_version>
43012

> <i_f3d_flags>
0

> <s_epik_input>
W0NIM11jKFtjSF0xKWMoW0NIM10pW2NIXWMoYzEyKW4oW2NIXW4yKVtDSDJdW0NASF0oW09IXSlbQ0gyXU4oW0NIM10pW0NIMl1jM2MoW0NIM10pbm9jM1tDSDNd

> <s_epik_cmdline>
J2VwaWtfcHl0aG9uJywgJy1waCcsICc3LjAnLCAnLXRuJywgJzgnLCAnLW1hJywgJzIwMCcsICctbWV0YWxfYmluZGluZycsICctaW1hZScsICc8aW5maWxlLm1hZT4nLCAnLW9tYWUnLCAnPG91dGZpbGUubWFlPic=

> <r_epik_Ionization_Penalty>
1.77463

> <r_epik_Ionization_Penalty_Charging>
1.77463

> <r_epik_Ionization_Penalty_Neutral>
3.70885e-06

> <r_epik_State_Penalty>
1.85225

> <r_epik_Charging_Adjusted_Penalty>
3.62688

> <i_epik_Tot_Q>
2

> <i_epik_Tot_abs_Q>
2

> <r_epik_Metal_State_Penalty>
1.92674

> <b_epik_Metal_Only>
0

> <s_lp_Force_Field>
OPLS_2005

> <r_lp_Energy>
18.8212

> <b_lp_Chiralities_Consistent>
1

> <s_lp_Variant>
AV-unprocessed.smi:1207-10

> <Gold.Version>
5.8.1

> <Gold.Id.Protein>
6NUR|6NUR_protein|mol2

> <Gold.PLP.Fitness>
59.5225

> <Gold.PLP.PLP>
-43.8310

> <Gold.PLP.part.hbond>
-5.9258

> <Gold.PLP.part.metal>
0.0000

> <Gold.PLP.part.buried>
-3.9929

> <Gold.PLP.part.nonpolar>
-34.7067

> <Gold.PLP.part.repulsive>
0.1155

> <Gold.PLP.ligand.clash>
0.0000

> <Gold.PLP.ligand.torsion>
1.4096

> <Gold.PLP.Chemscore.Hbond>
6.1333

> <Gold.PLP.Chemscore.CHOScore>
0.0000

> <Gold.PLP.Chemscore.Metal>
0.0000

> <Gold.Chemscore.Hbonds>
donor molecule, donor type, donor heavy atom, donor atom, acceptor molecule, acceptor atom, score
      L1  H     5    53       P1  8028  1.85
      L1  H    10    34       P1  7957  0.20
      L1  H    12    52       P1  7948  2.00
      P1  H  6896  6909       L1    19  0.80
      P1  H  7989  7998       L1    10  0.98

> <Gold.PLP.Chemscore.Internal.Correction>
0.1107

> <Gold.Rescore>
     Score         DG    S(hbond)    S(metal)    S(lipo)     H(rot)  DE(clash)    DE(int)     intcor
     21.07     -23.98       3.59        0.00     111.09       2.54       0.42       2.49       ----

> <Gold.Chemscore.Fitness>
21.0704

> <Gold.Chemscore.DG>
-23.9809

> <Gold.Chemscore.ZeroCoef>
-5.4800

> <Gold.Chemscore.Hbond>
3.5910

> <Gold.Chemscore.Metal>
0.0000

> <Gold.Chemscore.Lipo>
111.0862

> <Gold.Chemscore.Internal_Hbond>
0.0000

> <Gold.Chemscore.DEClash>
0.4226

> <Gold.Chemscore.DEInternal>
2.4878

> <Gold.Chemscore.Rot>
2.5351

> <Gold.Chemscore.Internal.Correction>
   9.000000E+99

> <Gold.Chemscore.Hbonds>
donor molecule, donor type, donor heavy atom, donor atom, acceptor molecule, acceptor atom, score
      L1  H     5    53       P1  8028  0.89
      L1  H    10    34       P1  7957  0.20
      L1  H    12    52       P1  7948  0.74
      P1  H  6896  6909       L1    19  0.11
      P1  H  7989  7998       L1    10  0.65

> <Gold.Chemscore.Hbond.Weighted>
-11.9938

> <Gold.Chemscore.Metal.Weighted>
-0.0000

> <Gold.Chemscore.Lipo.Weighted>
-12.9971

> <Gold.Chemscore.Internal_Hbond.Weighted>
0.0000

> <Gold.Chemscore.DEClash.Weighted>
0.4226

> <Gold.Chemscore.DEInternal.Weighted>
2.4878

> <Gold.Chemscore.Rot.Weighted>
6.4900

> <Gold.Chemscore.Internal.Correction.Weighted>
   9.000000E+99

> <Gold.Protein.RotatedTorsions>
[ 6907 6896 6895 6894 ] final   77.47 input  -60.11 | X-H torsion
[ 7974 7965 7964 7962 ] final   47.33 input  175.53 | X-H torsion
[ 8008 7997 7996 7995 ] final -154.75 input   59.86 | X-H torsion
[ 10167 10162 10161 10158 ] final  -71.68 input  -65.29 | X-H torsion
[ 10718 10713 10712 10709 ] final   -6.19 input   66.30 | X-H torsion
[ 10763 10752 10751 10750 ] final   50.21 input  -60.55 | X-H torsion
[ 11005 11000 10999 10996 ] final   44.33 input  -57.11 | X-H torsion

> <Gold.Protein.ActiveResidues>
 VAL166  LYS551  ARG553  GLY616  TRP617  ASP618  TYR619  PRO620  LYS621  CYS622 
 ASP623  PHE694  ASN695  SER759  ASP760  ASP761  ALA762  ILE779  LEU786  VAL792 
 PHE793  MET794  SER795  GLU796  ALA797  LYS798  CYS799  TRP800  GLU811  SER814 

> <Gold.Protein.RotatedAtoms>
  152.5119  134.3812  159.9351 H   0  0  0  0  0  0  0  0  0  0  0  0  # atno 6907 bound_to 6896
  151.3769  133.3828  159.2713 H   0  0  0  0  0  0  0  0  0  0  0  0  # atno 6908 bound_to 6896
  150.9534  134.8951  159.7745 H   0  0  0  0  0  0  0  0  0  0  0  0  # atno 6909 bound_to 6896
  146.0308  139.4761  142.9839 H   0  0  0  0  0  0  0  0  0  0  0  0  # atno 7974 bound_to 7965
  155.6911  140.0755  157.2447 H   0  0  0  0  0  0  0  0  0  0  0  0  # atno 8008 bound_to 7997
  154.4088  140.1664  156.2140 H   0  0  0  0  0  0  0  0  0  0  0  0  # atno 8009 bound_to 7997
  155.9451  140.3381  155.6363 H   0  0  0  0  0  0  0  0  0  0  0  0  # atno 8010 bound_to 7997
  140.5254  143.2327  151.7357 H   0  0  0  0  0  0  0  0  0  0  0  0  # atno 10167 bound_to 10162
  156.7355  130.5193  149.5836 H   0  0  0  0  0  0  0  0  0  0  0  0  # atno 10718 bound_to 10713
  152.9785  135.5886  154.4214 H   0  0  0  0  0  0  0  0  0  0  0  0  # atno 10763 bound_to 10752
  154.3838  135.2767  155.2197 H   0  0  0  0  0  0  0  0  0  0  0  0  # atno 10764 bound_to 10752
  154.4099  135.6084  153.6001 H   0  0  0  0  0  0  0  0  0  0  0  0  # atno 10765 bound_to 10752
  140.1562  134.4399  155.8348 H   0  0  0  0  0  0  0  0  0  0  0  0  # atno 11005 bound_to 11000
  145.7044  141.0126  143.1487 LP  0  0  0  0  0  0  0  0  0  0  0  0  # atno 17320 bound_to 7965
  144.7029  139.8682  143.7438 LP  0  0  0  0  0  0  0  0  0  0  0  0  # atno 17321 bound_to 7965
  139.4936  144.4194  151.9994 LP  0  0  0  0  0  0  0  0  0  0  0  0  # atno 17342 bound_to 10162
  140.3293  144.3335  150.5991 LP  0  0  0  0  0  0  0  0  0  0  0  0  # atno 17343 bound_to 10162
  156.1500  130.6303  151.0582 LP  0  0  0  0  0  0  0  0  0  0  0  0  # atno 17370 bound_to 10713
  157.6841  131.0830  150.7291 LP  0  0  0  0  0  0  0  0  0  0  0  0  # atno 17371 bound_to 10713
  141.2204  133.6893  156.7511 LP  0  0  0  0  0  0  0  0  0  0  0  0  # atno 17394 bound_to 11000
  140.2545  134.8515  157.3699 LP  0  0  0  0  0  0  0  0  0  0  0  0  # atno 17395 bound_to 11000

$$$$
