AV-unprocessed.smi:3011|AV-procd|sdf|11458|dock1
  -GOLD-   2272016393D 1   1.00000     0.00000
 Structure written by MMmdl.
 46 48  0  0  0  0  0  0  0  0  1 V2000
  147.4291  137.1802  163.4196 C   0  0  0  0  0  0  0  0  0  0  0  0
  147.6010  137.2745  162.0133 O   0  0  0  0  0  0  0  0  0  0  0  0
  147.7116  136.1073  161.2862 C   0  0  0  0  0  0  0  0  0  0  0  0
  147.6262  134.8144  161.8622 C   0  0  0  0  0  0  0  0  0  0  0  0
  147.7360  133.6652  161.0588 C   0  0  0  0  0  0  0  0  0  0  0  0
  147.9301  133.7936  159.6733 C   0  0  0  0  0  0  0  0  0  0  0  0
  148.0163  135.0710  159.0910 C   0  0  0  0  0  0  0  0  0  0  0  0
  147.9100  136.2366  159.8917 C   0  0  0  0  0  0  0  0  0  0  0  0
  147.9945  137.5179  159.3874 O   0  0  0  0  0  0  0  0  0  0  0  0
  148.3191  137.6836  158.0141 C   0  0  0  0  0  0  0  0  0  0  0  0
  148.6506  139.1557  157.7328 C   0  0  0  0  0  0  0  0  0  0  0  0
  148.9556  139.3992  156.3288 N   0  0  0  0  0  0  0  0  0  0  0  0
  150.1065  139.8494  155.7602 C   0  0  0  0  0  0  0  0  0  0  0  0
  151.3457  140.1806  156.5530 C   0  0  1  0  0  0  0  0  0  0  0  0
  151.1179  141.3519  157.5196 C   0  0  0  0  0  0  0  0  0  0  0  0
  151.7521  138.9892  157.2899 N   0  0  0  0  0  0  0  0  0  0  0  0
  152.7696  138.9525  158.1588 C   0  0  0  0  0  0  0  0  0  0  0  0
  153.4653  139.9301  158.4211 O   0  0  0  0  0  0  0  0  0  0  0  0
  150.0643  140.0156  154.4353 N   0  0  0  0  0  0  0  0  0  0  0  0
  148.7882  139.6045  154.1113 C   0  0  0  0  0  0  0  0  0  0  0  0
  148.1379  139.5305  152.8589 C   0  0  0  0  0  0  0  0  0  0  0  0
  146.8082  139.0687  152.7714 C   0  0  0  0  0  0  0  0  0  0  0  0
  146.1120  138.6764  153.9327 C   0  0  0  0  0  0  0  0  0  0  0  0
  146.7415  138.7453  155.1906 C   0  0  0  0  0  0  0  0  0  0  0  0
  148.0692  139.2073  155.2726 C   0  0  0  0  0  0  0  0  0  0  0  0
  147.3740  138.1832  163.8420 H   0  0  0  0  0  0  0  0  0  0  0  0
  148.2705  136.6708  163.8910 H   0  0  0  0  0  0  0  0  0  0  0  0
  146.5027  136.6641  163.6746 H   0  0  0  0  0  0  0  0  0  0  0  0
  147.4736  134.6756  162.9217 H   0  0  0  0  0  0  0  0  0  0  0  0
  147.6690  132.6846  161.5064 H   0  0  0  0  0  0  0  0  0  0  0  0
  148.0140  132.9116  159.0555 H   0  0  0  0  0  0  0  0  0  0  0  0
  148.1689  135.1284  158.0244 H   0  0  0  0  0  0  0  0  0  0  0  0
  149.1716  137.0601  157.7412 H   0  0  0  0  0  0  0  0  0  0  0  0
  147.4707  137.3825  157.3978 H   0  0  0  0  0  0  0  0  0  0  0  0
  147.7939  139.7735  158.0030 H   0  0  0  0  0  0  0  0  0  0  0  0
  149.4695  139.5048  158.3607 H   0  0  0  0  0  0  0  0  0  0  0  0
  152.1573  140.4720  155.8882 H   0  0  0  0  0  0  0  0  0  0  0  0
  150.7947  142.2434  156.9817 H   0  0  0  0  0  0  0  0  0  0  0  0
  152.0333  141.6010  158.0568 H   0  0  0  0  0  0  0  0  0  0  0  0
  150.3522  141.1187  158.2602 H   0  0  0  0  0  0  0  0  0  0  0  0
  151.2355  138.1392  157.1172 H   0  0  0  0  0  0  0  0  0  0  0  0
  152.8985  137.9515  158.5989 H   0  0  0  0  0  0  0  0  0  0  0  0
  148.6637  139.8291  151.9641 H   0  0  0  0  0  0  0  0  0  0  0  0
  146.3204  139.0154  151.8092 H   0  0  0  0  0  0  0  0  0  0  0  0
  145.0940  138.3232  153.8576 H   0  0  0  0  0  0  0  0  0  0  0  0
  146.2094  138.4451  156.0809 H   0  0  0  0  0  0  0  0  0  0  0  0
  1  2  1  0  0  0  0
  1 26  1  0  0  0  0
  1 27  1  0  0  0  0
  1 28  1  0  0  0  0
  2  3  1  0  0  0  0
  3  8  1  0  0  0  0
  3  4  2  0  0  0  0
  4  5  1  0  0  0  0
  4 29  1  0  0  0  0
  5  6  2  0  0  0  0
  5 30  1  0  0  0  0
  6  7  1  0  0  0  0
  6 31  1  0  0  0  0
  7  8  2  0  0  0  0
  7 32  1  0  0  0  0
  8  9  1  0  0  0  0
  9 10  1  0  0  0  0
 10 11  1  0  0  0  0
 10 33  1  0  0  0  0
 10 34  1  0  0  0  0
 11 12  1  0  0  0  0
 11 35  1  0  0  0  0
 11 36  1  0  0  0  0
 12 25  1  0  0  0  0
 12 13  1  0  0  0  0
 13 14  1  0  0  0  0
 13 19  2  0  0  0  0
 14 15  1  0  0  0  0
 14 16  1  0  0  0  0
 14 37  1  0  0  0  0
 15 38  1  0  0  0  0
 15 39  1  0  0  0  0
 15 40  1  0  0  0  0
 16 17  1  0  0  0  0
 16 41  1  0  0  0  0
 17 18  2  0  0  0  0
 17 42  1  0  0  0  0
 19 20  1  0  0  0  0
 20 25  2  0  0  0  0
 20 21  1  0  0  0  0
 21 22  2  0  0  0  0
 21 43  1  0  0  0  0
 22 23  1  0  0  0  0
 22 44  1  0  0  0  0
 23 24  2  0  0  0  0
 23 45  1  0  0  0  0
 24 25  1  0  0  0  0
 24 46  1  0  0  0  0
M  END
> <s_m_source_file>
AV-unprocessed.smi

> <i_m_source_file_index>
3011

> <i_lp_mmshare_version>
43012

> <i_f3d_flags>
0

> <s_epik_input>
W0NIM11PYzFbY0hdW2NIXVtjSF1bY0hdYzFPW0NIMl1bQ0gyXW4oYyhuMilbQ0BIXShbQ0gzXSlbTkhdW0NIXT1PKWMoYzIzKVtjSF1bY0hdW2NIXVtjSF0z

> <s_epik_cmdline>
J2VwaWtfcHl0aG9uJywgJy1waCcsICc3LjAnLCAnLXRuJywgJzgnLCAnLW1hJywgJzIwMCcsICctbWV0YWxfYmluZGluZycsICctaW1hZScsICc8aW5maWxlLm1hZT4nLCAnLW9tYWUnLCAnPG91dGZpbGUubWFlPic=

> <r_lp_tautomer_probability>
1

> <r_epik_Ionization_Penalty>
0.0924205

> <r_epik_Ionization_Penalty_Charging>
0

> <r_epik_Ionization_Penalty_Neutral>
0.0924205

> <r_epik_State_Penalty>
0.0827154

> <r_epik_Charging_Adjusted_Penalty>
0.0827154

> <i_epik_Tot_Q>
0

> <i_epik_Tot_abs_Q>
0

> <r_epik_Metal_State_Penalty>
0.071464

> <b_epik_Metal_Only>
0

> <s_lp_Force_Field>
OPLS_2005

> <r_lp_Energy>
16.1318

> <b_lp_Chiralities_Consistent>
1

> <s_lp_Variant>
AV-unprocessed.smi:3011-2

> <Gold.Version>
5.8.1

> <Gold.Id.Protein>
6NUR|6NUR_protein|mol2

> <Gold.PLP.Fitness>
42.4890

> <Gold.PLP.PLP>
-32.1283

> <Gold.PLP.part.hbond>
-5.0000

> <Gold.PLP.part.metal>
0.0000

> <Gold.PLP.part.buried>
3.0375

> <Gold.PLP.part.nonpolar>
-28.9133

> <Gold.PLP.part.repulsive>
0.1612

> <Gold.PLP.ligand.clash>
0.0000

> <Gold.PLP.ligand.torsion>
0.1416

> <Gold.PLP.Chemscore.Hbond>
3.5048

> <Gold.PLP.Chemscore.CHOScore>
0.0000

> <Gold.PLP.Chemscore.Metal>
0.0000

> <Gold.Chemscore.Hbonds>
donor molecule, donor type, donor heavy atom, donor atom, acceptor molecule, acceptor atom, score
      P1  H  6931  6943       L1     2  0.93
      P1  H  6934  6947       L1     2  0.54
      P1  H  7989  7998       L1    19  1.00
      P1  H  7997  8009       L1    18  1.00

> <Gold.PLP.Chemscore.Internal.Correction>
0.1295

> <Gold.Rescore>
     Score         DG    S(hbond)    S(metal)    S(lipo)     H(rot)  DE(clash)    DE(int)     intcor
     14.81     -18.52       2.78        0.00      88.75       2.59       2.42       1.30       ----

> <Gold.Chemscore.Fitness>
14.8070

> <Gold.Chemscore.DG>
-18.5230

> <Gold.Chemscore.ZeroCoef>
-5.4800

> <Gold.Chemscore.Hbond>
2.7822

> <Gold.Chemscore.Metal>
0.0000

> <Gold.Chemscore.Lipo>
88.7550

> <Gold.Chemscore.Internal_Hbond>
0.0000

> <Gold.Chemscore.DEClash>
2.4206

> <Gold.Chemscore.DEInternal>
1.2954

> <Gold.Chemscore.Rot>
2.5914

> <Gold.Chemscore.Internal.Correction>
   9.000000E+99

> <Gold.Chemscore.Hbonds>
donor molecule, donor type, donor heavy atom, donor atom, acceptor molecule, acceptor atom, score
      P1  H  6931  6943       L1     2  0.23
      P1  H  6934  6947       L1     2  0.49
      P1  H  7989  7998       L1    19  0.91
      P1  H  7997  8009       L1    18  0.44

> <Gold.Chemscore.Hbond.Weighted>
-9.2927

> <Gold.Chemscore.Metal.Weighted>
-0.0000

> <Gold.Chemscore.Lipo.Weighted>
-10.3843

> <Gold.Chemscore.Internal_Hbond.Weighted>
0.0000

> <Gold.Chemscore.DEClash.Weighted>
2.4206

> <Gold.Chemscore.DEInternal.Weighted>
1.2954

> <Gold.Chemscore.Rot.Weighted>
6.6340

> <Gold.Chemscore.Internal.Correction.Weighted>
   9.000000E+99

> <Gold.Protein.RotatedTorsions>
[ 6907 6896 6895 6894 ] final  148.11 input  -60.11 | X-H torsion
[ 7974 7965 7964 7962 ] final   89.22 input  175.53 | X-H torsion
[ 8008 7997 7996 7995 ] final  155.86 input   59.86 | X-H torsion
[ 10167 10162 10161 10158 ] final -136.47 input  -65.29 | X-H torsion
[ 10718 10713 10712 10709 ] final  177.26 input   66.30 | X-H torsion
[ 10763 10752 10751 10750 ] final   62.97 input  -60.55 | X-H torsion
[ 11005 11000 10999 10996 ] final  114.91 input  -57.11 | X-H torsion

> <Gold.Protein.ActiveResidues>
 VAL166  LYS551  ARG553  GLY616  TRP617  ASP618  TYR619  PRO620  LYS621  CYS622 
 ASP623  PHE694  ASN695  SER759  ASP760  ASP761  ALA762  ILE779  LEU786  VAL792 
 PHE793  MET794  SER795  GLU796  ALA797  LYS798  CYS799  TRP800  GLU811  SER814 

> <Gold.Protein.RotatedAtoms>
  152.1458  133.4491  159.4788 H   0  0  0  0  0  0  0  0  0  0  0  0  # atno 6907 bound_to 6896
  150.6890  134.2249  159.4420 H   0  0  0  0  0  0  0  0  0  0  0  0  # atno 6908 bound_to 6896
  152.0143  134.9858  160.0619 H   0  0  0  0  0  0  0  0  0  0  0  0  # atno 6909 bound_to 6896
  145.5352  139.2285  143.2596 H   0  0  0  0  0  0  0  0  0  0  0  0  # atno 7974 bound_to 7965
  156.2454  140.1928  156.6867 H   0  0  0  0  0  0  0  0  0  0  0  0  # atno 8008 bound_to 7997
  154.6282  140.0599  156.9725 H   0  0  0  0  0  0  0  0  0  0  0  0  # atno 8009 bound_to 7997
  155.1753  140.3272  155.4387 H   0  0  0  0  0  0  0  0  0  0  0  0  # atno 8010 bound_to 7997
  139.8674  143.7000  152.2643 H   0  0  0  0  0  0  0  0  0  0  0  0  # atno 10167 bound_to 10162
  156.9080  130.9900  151.3025 H   0  0  0  0  0  0  0  0  0  0  0  0  # atno 10718 bound_to 10713
  153.0001  135.5446  154.6278 H   0  0  0  0  0  0  0  0  0  0  0  0  # atno 10763 bound_to 10752
  154.5562  135.2830  155.0964 H   0  0  0  0  0  0  0  0  0  0  0  0  # atno 10764 bound_to 10752
  154.2184  135.6455  153.5189 H   0  0  0  0  0  0  0  0  0  0  0  0  # atno 10765 bound_to 10752
  139.8994  134.9575  156.6964 H   0  0  0  0  0  0  0  0  0  0  0  0  # atno 11005 bound_to 11000
  146.2018  140.6170  142.9099 LP  0  0  0  0  0  0  0  0  0  0  0  0  # atno 17320 bound_to 7965
  144.7605  140.5411  143.6739 LP  0  0  0  0  0  0  0  0  0  0  0  0  # atno 17321 bound_to 7965
  139.7316  144.7581  151.0793 LP  0  0  0  0  0  0  0  0  0  0  0  0  # atno 17342 bound_to 10162
  140.7766  143.5081  150.9686 LP  0  0  0  0  0  0  0  0  0  0  0  0  # atno 17343 bound_to 10162
  157.5985  130.8495  149.8766 LP  0  0  0  0  0  0  0  0  0  0  0  0  # atno 17370 bound_to 10713
  156.0550  130.3710  150.1113 LP  0  0  0  0  0  0  0  0  0  0  0  0  # atno 17371 bound_to 10713
  140.7185  133.9162  155.8131 LP  0  0  0  0  0  0  0  0  0  0  0  0  # atno 17394 bound_to 11000
  141.0246  134.0841  157.4083 LP  0  0  0  0  0  0  0  0  0  0  0  0  # atno 17395 bound_to 11000

$$$$
