AV-unprocessed.smi:2831|AV-procd|sdf|10911|dock8
  -GOLD-   2272015353D 1   1.00000     0.00000
 Structure written by MMmdl.
 29 30  0  0  0  0  0  0  0  0  2 V2000
  143.8307  143.7124  162.5499 C   0  0  0  0  0  0  0  0  0  0  0  0
  145.1560  143.8665  161.8860 C   0  0  0  0  0  0  0  0  0  0  0  0
  146.0383  142.8688  161.7923 N   0  0  0  0  0  0  0  0  0  0  0  0
  147.1950  143.2547  161.1303 N   0  0  0  0  0  0  0  0  0  0  0  0
  147.1671  144.5319  160.7236 C   0  0  0  0  0  0  0  0  0  0  0  0
  148.1896  145.1017  160.0646 N   0  5  0  0  0  0  0  0  0  0  0  0
  149.4040  144.5067  160.0557 C   0  0  0  0  0  0  0  0  0  0  0  0
  149.9456  143.9490  161.0124 O   0  0  0  0  0  0  0  0  0  0  0  0
  150.0179  144.5638  158.8617 N   0  0  0  0  0  0  0  0  0  0  0  0
  151.3318  144.0406  158.4603 C   0  0  2  0  0  0  0  0  0  0  0  0
  151.4774  144.2771  156.9454 C   0  0  0  0  0  0  0  0  0  0  0  0
  151.5171  142.5485  158.7891 C   0  0  0  0  0  0  0  0  0  0  0  0
  152.6813  142.5222  159.7779 C   0  0  0  0  0  0  0  0  0  0  0  0
  153.4288  143.6771  159.4386 O   0  0  0  0  0  0  0  0  0  0  0  0
  152.4901  144.7191  159.2229 C   0  0  0  0  0  0  0  0  0  0  0  0
  145.6821  145.3764  161.1613 S   0  0  0  0  0  0  0  0  0  0  0  0
  143.1262  143.2362  161.8678 H   0  0  0  0  0  0  0  0  0  0  0  0
  143.4365  144.6872  162.8370 H   0  0  0  0  0  0  0  0  0  0  0  0
  143.9251  143.0977  163.4454 H   0  0  0  0  0  0  0  0  0  0  0  0
  149.5035  145.0379  158.1337 H   0  0  0  0  0  0  0  0  0  0  0  0
  152.4477  143.9373  156.5809 H   0  0  0  0  0  0  0  0  0  0  0  0
  151.3881  145.3357  156.6986 H   0  0  0  0  0  0  0  0  0  0  0  0
  150.7084  143.7426  156.3863 H   0  0  0  0  0  0  0  0  0  0  0  0
  150.6278  142.0662  159.1965 H   0  0  0  0  0  0  0  0  0  0  0  0
  151.7947  141.9870  157.8961 H   0  0  0  0  0  0  0  0  0  0  0  0
  152.3261  142.6062  160.8058 H   0  0  0  0  0  0  0  0  0  0  0  0
  153.2816  141.6159  159.6970 H   0  0  0  0  0  0  0  0  0  0  0  0
  152.9410  145.5440  158.6703 H   0  0  0  0  0  0  0  0  0  0  0  0
  152.1833  145.1108  160.1932 H   0  0  0  0  0  0  0  0  0  0  0  0
  1  2  1  0  0  0  0
  1 17  1  0  0  0  0
  1 18  1  0  0  0  0
  1 19  1  0  0  0  0
  2 16  1  0  0  0  0
  2  3  2  0  0  0  0
  3  4  1  0  0  0  0
  4  5  2  0  0  0  0
  5  6  1  0  0  0  0
  5 16  1  0  0  0  0
  6  7  1  0  0  0  0
  7  8  2  0  0  0  0
  7  9  1  0  0  0  0
  9 10  1  0  0  0  0
  9 20  1  0  0  0  0
 10 15  1  0  0  0  0
 10 11  1  0  0  0  0
 10 12  1  0  0  0  0
 11 21  1  0  0  0  0
 11 22  1  0  0  0  0
 11 23  1  0  0  0  0
 12 13  1  0  0  0  0
 12 24  1  0  0  0  0
 12 25  1  0  0  0  0
 13 14  1  0  0  0  0
 13 26  1  0  0  0  0
 13 27  1  0  0  0  0
 14 15  1  0  0  0  0
 15 28  1  0  0  0  0
 15 29  1  0  0  0  0
M  CHG  1   6  -1
M  END
> <s_m_source_file>
AV-unprocessed.smi

> <i_m_source_file_index>
2831

> <i_lp_mmshare_version>
43012

> <i_f3d_flags>
0

> <s_epik_input>
W0NIM11jMW5uYyhzMSlbTkhdQyg9TylbTkhdW0NAQF0yKFtDSDNdKVtDSDJdW0NIMl1PW0NIMl0y

> <s_epik_cmdline>
J2VwaWtfcHl0aG9uJywgJy1waCcsICc3LjAnLCAnLXRuJywgJzgnLCAnLW1hJywgJzIwMCcsICctbWV0YWxfYmluZGluZycsICctaW1hZScsICc8aW5maWxlLm1hZT4nLCAnLW9tYWUnLCAnPG91dGZpbGUubWFlPic=

> <r_lp_tautomer_probability>
1

> <r_epik_Ionization_Penalty>
3.33648

> <r_epik_Ionization_Penalty_Charging>
3.18522

> <r_epik_Ionization_Penalty_Neutral>
0.151254

> <r_epik_State_Penalty>
3.18248

> <r_epik_Charging_Adjusted_Penalty>
6.3677

> <i_epik_Tot_Q>
-1

> <i_epik_Tot_abs_Q>
1

> <r_epik_Metal_State_Penalty>
0.469716

> <b_epik_Metal_Only>
1

> <s_lp_Force_Field>
OPLS_2005

> <r_lp_Energy>
14.5797

> <b_lp_Chiralities_Consistent>
1

> <s_lp_Variant>
AV-unprocessed.smi:2831-4

> <Gold.Version>
5.8.1

> <Gold.Id.Protein>
6NUR|6NUR_protein|mol2

> <Gold.PLP.Fitness>
36.1486

> <Gold.PLP.PLP>
-30.9666

> <Gold.PLP.part.hbond>
-4.3448

> <Gold.PLP.part.metal>
0.0000

> <Gold.PLP.part.buried>
-1.0706

> <Gold.PLP.part.nonpolar>
-28.2008

> <Gold.PLP.part.repulsive>
1.8581

> <Gold.PLP.ligand.clash>
0.0000

> <Gold.PLP.ligand.torsion>
0.4145

> <Gold.PLP.Chemscore.Hbond>
2.0000

> <Gold.PLP.Chemscore.CHOScore>
0.0000

> <Gold.PLP.Chemscore.Metal>
0.0000

> <Gold.Chemscore.Hbonds>
donor molecule, donor type, donor heavy atom, donor atom, acceptor molecule, acceptor atom, score
      L1  H     9    20       P1  8029  1.00
      P1  H  6933  6944       L1     4  1.00

> <Gold.PLP.Chemscore.Internal.Correction>
0.0109

> <Gold.Rescore>
     Score         DG    S(hbond)    S(metal)    S(lipo)     H(rot)  DE(clash)    DE(int)     intcor
     13.60     -18.14       1.70        0.00      81.72       1.00       1.97       2.57       ----

> <Gold.Chemscore.Fitness>
13.5997

> <Gold.Chemscore.DG>
-18.1442

> <Gold.Chemscore.ZeroCoef>
-5.4800

> <Gold.Chemscore.Hbond>
1.6955

> <Gold.Chemscore.Metal>
0.0000

> <Gold.Chemscore.Lipo>
81.7191

> <Gold.Chemscore.Internal_Hbond>
0.0000

> <Gold.Chemscore.DEClash>
1.9734

> <Gold.Chemscore.DEInternal>
2.5711

> <Gold.Chemscore.Rot>
1.0000

> <Gold.Chemscore.Internal.Correction>
   9.000000E+99

> <Gold.Chemscore.Hbonds>
donor molecule, donor type, donor heavy atom, donor atom, acceptor molecule, acceptor atom, score
      L1  H     9    20       P1  8029  0.24
      P1  H  6933  6944       L1     4  0.87

> <Gold.Chemscore.Hbond.Weighted>
-5.6631

> <Gold.Chemscore.Metal.Weighted>
-0.0000

> <Gold.Chemscore.Lipo.Weighted>
-9.5611

> <Gold.Chemscore.Internal_Hbond.Weighted>
0.0000

> <Gold.Chemscore.DEClash.Weighted>
1.9734

> <Gold.Chemscore.DEInternal.Weighted>
2.5711

> <Gold.Chemscore.Rot.Weighted>
2.5600

> <Gold.Chemscore.Internal.Correction.Weighted>
   9.000000E+99

> <Gold.Protein.RotatedTorsions>
[ 6907 6896 6895 6894 ] final -139.84 input  -60.11 | X-H torsion
[ 7974 7965 7964 7962 ] final   89.16 input  175.53 | X-H torsion
[ 8008 7997 7996 7995 ] final -160.70 input   59.86 | X-H torsion
[ 10167 10162 10161 10158 ] final  147.21 input  -65.29 | X-H torsion
[ 10718 10713 10712 10709 ] final -140.66 input   66.30 | X-H torsion
[ 10763 10752 10751 10750 ] final  -71.70 input  -60.55 | X-H torsion
[ 11005 11000 10999 10996 ] final    0.12 input  -57.11 | X-H torsion

> <Gold.Protein.ActiveResidues>
 VAL166  LYS551  ARG553  GLY616  TRP617  ASP618  TYR619  PRO620  LYS621  CYS622 
 ASP623  PHE694  ASN695  SER759  ASP760  ASP761  ALA762  ILE779  LEU786  VAL792 
 PHE793  MET794  SER795  GLU796  ALA797  LYS798  CYS799  TRP800  GLU811  SER814 

> <Gold.Protein.RotatedAtoms>
  151.0530  133.5608  159.2640 H   0  0  0  0  0  0  0  0  0  0  0  0  # atno 6907 bound_to 6896
  151.2612  135.0654  159.9109 H   0  0  0  0  0  0  0  0  0  0  0  0  # atno 6908 bound_to 6896
  152.5385  134.0275  159.8063 H   0  0  0  0  0  0  0  0  0  0  0  0  # atno 6909 bound_to 6896
  145.5361  139.2286  143.2592 H   0  0  0  0  0  0  0  0  0  0  0  0  # atno 7974 bound_to 7965
  155.7813  140.0865  157.2057 H   0  0  0  0  0  0  0  0  0  0  0  0  # atno 8008 bound_to 7997
  154.3990  140.1507  156.3113 H   0  0  0  0  0  0  0  0  0  0  0  0  # atno 8009 bound_to 7997
  155.8650  140.3428  155.5785 H   0  0  0  0  0  0  0  0  0  0  0  0  # atno 8010 bound_to 7997
  139.4894  144.5772  151.6942 H   0  0  0  0  0  0  0  0  0  0  0  0  # atno 10167 bound_to 10162
  156.3249  130.7554  151.1660 H   0  0  0  0  0  0  0  0  0  0  0  0  # atno 10718 bound_to 10713
  154.4355  135.5953  153.6095 H   0  0  0  0  0  0  0  0  0  0  0  0  # atno 10763 bound_to 10752
  152.9801  135.5985  154.3787 H   0  0  0  0  0  0  0  0  0  0  0  0  # atno 10764 bound_to 10752
  154.3630  135.2841  155.2288 H   0  0  0  0  0  0  0  0  0  0  0  0  # atno 10765 bound_to 10752
  140.6301  133.9582  155.8270 H   0  0  0  0  0  0  0  0  0  0  0  0  # atno 11005 bound_to 11000
  146.2012  140.6179  142.9101 LP  0  0  0  0  0  0  0  0  0  0  0  0  # atno 17320 bound_to 7965
  144.7601  140.5401  143.6741 LP  0  0  0  0  0  0  0  0  0  0  0  0  # atno 17321 bound_to 7965
  140.5371  144.0639  150.6074 LP  0  0  0  0  0  0  0  0  0  0  0  0  # atno 17342 bound_to 10162
  140.3648  143.2887  152.0344 LP  0  0  0  0  0  0  0  0  0  0  0  0  # atno 17343 bound_to 10162
  157.7419  131.0497  150.5063 LP  0  0  0  0  0  0  0  0  0  0  0  0  # atno 17370 bound_to 10713
  156.5220  130.4164  149.6245 LP  0  0  0  0  0  0  0  0  0  0  0  0  # atno 17371 bound_to 10713
  141.0681  134.0246  157.3565 LP  0  0  0  0  0  0  0  0  0  0  0  0  # atno 17394 bound_to 11000
  139.9119  135.0191  156.7727 LP  0  0  0  0  0  0  0  0  0  0  0  0  # atno 17395 bound_to 11000

$$$$
