AV-unprocessed.smi:287|AV-procd|sdf|2197|dock6
  -GOLD-   2262022 03D 1   1.00000     0.00000
 Structure written by MMmdl.
 55 58  0  0  0  0  0  0  0  0  1 V2000
  146.9867  133.3612  152.6118 C   0  0  0  0  0  0  0  0  0  0  0  0
  147.9479  132.6600  153.5091 C   0  0  0  0  0  0  0  0  0  0  0  0
  148.8704  133.0846  154.4202 C   0  0  0  0  0  0  0  0  0  0  0  0
  149.4980  131.9244  154.9645 C   0  0  0  0  0  0  0  0  0  0  0  0
  150.5987  131.9176  156.0172 C   0  0  1  0  0  0  0  0  0  0  0  0
  150.1050  131.2039  157.2868 C   0  0  0  0  0  0  0  0  0  0  0  0
  151.7477  131.2004  155.6097 O   0  0  0  0  0  0  0  0  0  0  0  0
  151.0854  133.3428  156.3640 C   0  0  0  0  0  0  0  0  0  0  0  0
  150.0516  134.1576  156.9893 N   0  0  0  0  0  0  0  0  0  0  0  0
  150.2250  135.4833  157.1712 C   0  0  0  0  0  0  0  0  0  0  0  0
  150.0565  135.9229  158.4412 N   0  0  0  0  0  0  0  0  0  0  0  0
  150.2085  137.2180  158.7305 C   0  0  0  0  0  0  0  0  0  0  0  0
  150.5210  138.2242  157.9121 N   0  0  0  0  0  0  0  0  0  0  0  0
  150.6901  137.7896  156.6296 C   0  0  0  0  0  0  0  0  0  0  0  0
  150.5635  136.4462  156.1740 C   0  0  0  0  0  0  0  0  0  0  0  0
  150.8119  136.4039  154.8061 N   0  0  0  0  0  0  0  0  0  0  0  0
  151.0698  137.6421  154.4830 C   0  0  0  0  0  0  0  0  0  0  0  0
  151.0218  138.5435  155.5245 N   0  0  0  0  0  0  0  0  0  0  0  0
  151.2593  140.0263  155.5176 C   0  0  2  0  0  0  0  0  0  0  0  0
  151.6388  140.4008  156.8053 O   0  0  0  0  0  0  0  0  0  0  0  0
  150.5577  141.0055  157.5226 C   0  0  1  0  0  0  0  0  0  0  0  0
  151.0186  142.4367  157.8711 C   0  0  0  0  0  0  0  0  0  0  0  0
  151.1063  143.2102  156.6935 O   0  0  0  0  0  0  0  0  0  0  0  0
  149.3421  140.9116  156.5740 C   0  0  1  0  0  0  0  0  0  0  0  0
  148.4699  142.0227  156.6489 O   0  0  0  0  0  0  0  0  0  0  0  0
  149.9767  140.8069  155.1981 C   0  0  2  0  0  0  0  0  0  0  0  0
  149.1144  140.1537  154.2840 O   0  0  0  0  0  0  0  0  0  0  0  0
  148.8867  130.8671  154.3340 C   0  0  0  0  0  0  0  0  0  0  0  0
  149.0356  129.3833  154.4134 C   0  0  0  0  0  0  0  0  0  0  0  0
  147.9473  131.3048  153.4497 O   0  0  0  0  0  0  0  0  0  0  0  0
  152.0676  140.1764  154.8011 H   0  0  0  0  0  0  0  0  0  0  0  0
  150.3484  140.4508  158.4382 H   0  0  0  0  0  0  0  0  0  0  0  0
  148.7814  140.0027  156.7986 H   0  0  0  0  0  0  0  0  0  0  0  0
  150.2634  141.7901  154.8217 H   0  0  0  0  0  0  0  0  0  0  0  0
  147.2490  134.4142  152.5090 H   0  0  0  0  0  0  0  0  0  0  0  0
  145.9739  133.3016  153.0103 H   0  0  0  0  0  0  0  0  0  0  0  0
  146.9871  132.9152  151.6169 H   0  0  0  0  0  0  0  0  0  0  0  0
  149.0780  134.1156  154.6662 H   0  0  0  0  0  0  0  0  0  0  0  0
  149.2319  131.7035  157.7083 H   0  0  0  0  0  0  0  0  0  0  0  0
  150.8744  131.1851  158.0599 H   0  0  0  0  0  0  0  0  0  0  0  0
  149.8221  130.1714  157.0766 H   0  0  0  0  0  0  0  0  0  0  0  0
  152.1351  130.7977  156.3715 H   0  0  0  0  0  0  0  0  0  0  0  0
  151.9057  133.2621  157.0787 H   0  0  0  0  0  0  0  0  0  0  0  0
  151.4825  133.8427  155.4794 H   0  0  0  0  0  0  0  0  0  0  0  0
  149.2391  133.6548  157.3170 H   0  0  0  0  0  0  0  0  0  0  0  0
  150.0589  137.4856  159.7660 H   0  0  0  0  0  0  0  0  0  0  0  0
  151.3020  137.9266  153.4675 H   0  0  0  0  0  0  0  0  0  0  0  0
  150.3474  142.9104  158.5883 H   0  0  0  0  0  0  0  0  0  0  0  0
  152.0162  142.4353  158.3101 H   0  0  0  0  0  0  0  0  0  0  0  0
  150.2822  143.6542  156.5637 H   0  0  0  0  0  0  0  0  0  0  0  0
  148.9511  142.7949  156.3923 H   0  0  0  0  0  0  0  0  0  0  0  0
  149.4472  140.2892  153.4096 H   0  0  0  0  0  0  0  0  0  0  0  0
  148.8778  129.0330  155.4334 H   0  0  0  0  0  0  0  0  0  0  0  0
  150.0344  129.0788  154.1003 H   0  0  0  0  0  0  0  0  0  0  0  0
  148.3143  128.8783  153.7701 H   0  0  0  0  0  0  0  0  0  0  0  0
  1  2  1  0  0  0  0
  1 35  1  0  0  0  0
  1 36  1  0  0  0  0
  1 37  1  0  0  0  0
  2 30  1  0  0  0  0
  2  3  2  0  0  0  0
  3  4  1  0  0  0  0
  3 38  1  0  0  0  0
  4  5  1  0  0  0  0
  4 28  2  0  0  0  0
  5  6  1  0  0  0  0
  5  7  1  0  0  0  0
  5  8  1  0  0  0  0
  6 39  1  0  0  0  0
  6 40  1  0  0  0  0
  6 41  1  0  0  0  0
  7 42  1  0  0  0  0
  8  9  1  0  0  0  0
  8 43  1  0  0  0  0
  8 44  1  0  0  0  0
  9 10  1  0  0  0  0
  9 45  1  0  0  0  0
 10 15  1  0  0  0  0
 10 11  2  0  0  0  0
 11 12  1  0  0  0  0
 12 13  2  0  0  0  0
 12 46  1  0  0  0  0
 13 14  1  0  0  0  0
 14 18  1  0  0  0  0
 14 15  2  0  0  0  0
 15 16  1  0  0  0  0
 16 17  2  0  0  0  0
 17 18  1  0  0  0  0
 17 47  1  0  0  0  0
 18 19  1  0  0  0  0
 19 31  1  0  0  0  0
 19 26  1  0  0  0  0
 19 20  1  0  0  0  0
 20 21  1  0  0  0  0
 21 32  1  0  0  0  0
 21 22  1  0  0  0  0
 21 24  1  0  0  0  0
 22 23  1  0  0  0  0
 22 48  1  0  0  0  0
 22 49  1  0  0  0  0
 23 50  1  0  0  0  0
 24 33  1  0  0  0  0
 24 25  1  0  0  0  0
 24 26  1  0  0  0  0
 25 51  1  0  0  0  0
 26 34  1  0  0  0  0
 26 27  1  0  0  0  0
 27 52  1  0  0  0  0
 28 29  1  0  0  0  0
 28 30  1  0  0  0  0
 29 53  1  0  0  0  0
 29 54  1  0  0  0  0
 29 55  1  0  0  0  0
M  END
> <s_m_source_file>
AV-unprocessed.smi

> <i_m_source_file_index>
287

> <i_lp_mmshare_version>
43012

> <i_f3d_flags>
0

> <s_epik_input>
W0NIM11jMVtjSF1jKGMobzEpW0NIM10pW0NAQF0oW0NIM10pKFtPSF0pW0NIMl1bTkhdYyhuW2NIXW4yKWMoYzIzKW5bY0hdbjNbQ0BASF00T1tDQEhdKFtDSDJdW09IXSlbQ0BASF0oW09IXSlbQ0BIXTRbT0hd

> <s_epik_cmdline>
J2VwaWtfcHl0aG9uJywgJy1waCcsICc3LjAnLCAnLXRuJywgJzgnLCAnLW1hJywgJzIwMCcsICctbWV0YWxfYmluZGluZycsICctaW1hZScsICc8aW5maWxlLm1hZT4nLCAnLW9tYWUnLCAnPG91dGZpbGUubWFlPic=

> <r_lp_tautomer_probability>
1

> <r_epik_Ionization_Penalty>
0.000992612

> <r_epik_Ionization_Penalty_Charging>
0

> <r_epik_Ionization_Penalty_Neutral>
0.000992612

> <r_epik_State_Penalty>
-0

> <r_epik_Charging_Adjusted_Penalty>
0

> <i_epik_Tot_Q>
0

> <i_epik_Tot_abs_Q>
0

> <r_epik_Metal_State_Penalty>
-0

> <b_epik_Metal_Only>
0

> <s_epik_Chemistry_Notes>
This compound contains an acetal/aminal-like group ( X-CH(R)-Y where X, Y are N, S, or O) that may be acid/base labile, releasing an aldehyde.

> <s_lp_Force_Field>
OPLS_2005

> <r_lp_Energy>
44.9714

> <b_lp_Chiralities_Consistent>
1

> <s_lp_Variant>
AV-unprocessed.smi:287-21

> <Gold.Version>
5.8.1

> <Gold.Id.Protein>
6NUR|6NUR_protein|mol2

> <Gold.PLP.Fitness>
56.7915

> <Gold.PLP.PLP>
-43.6655

> <Gold.PLP.part.hbond>
-5.0186

> <Gold.PLP.part.metal>
0.0000

> <Gold.PLP.part.buried>
-4.3635

> <Gold.PLP.part.nonpolar>
-35.5645

> <Gold.PLP.part.repulsive>
1.4288

> <Gold.PLP.ligand.clash>
0.0000

> <Gold.PLP.ligand.torsion>
1.3991

> <Gold.PLP.Chemscore.Hbond>
4.9593

> <Gold.PLP.Chemscore.CHOScore>
0.3212

> <Gold.PLP.Chemscore.Metal>
0.0000

> <Gold.Chemscore.Hbonds>
donor molecule, donor type, donor heavy atom, donor atom, acceptor molecule, acceptor atom, score
      L1  H    23    50       P1  8028  1.00
      L1  H    25    51       P1  8028  0.87
      L1  H    27    52       P1  7957  0.41
      P1  H  6896  6909       L1    11  1.00
      P1  H 10752 10765       L1    16  0.31
      L1  C    17    47       P1  7949  0.31

> <Gold.PLP.Chemscore.Internal.Correction>
0.0827

> <Gold.Rescore>
     Score         DG    S(hbond)    S(metal)    S(lipo)     H(rot)  DE(clash)    DE(int)     intcor
      6.67     -12.63       3.55        0.00      75.19       5.27       0.93       5.03       ----

> <Gold.Chemscore.Fitness>
6.6700

> <Gold.Chemscore.DG>
-12.6350

> <Gold.Chemscore.ZeroCoef>
-5.4800

> <Gold.Chemscore.Hbond>
3.5454

> <Gold.Chemscore.Metal>
0.0000

> <Gold.Chemscore.Lipo>
75.1894

> <Gold.Chemscore.Internal_Hbond>
0.0000

> <Gold.Chemscore.DEClash>
0.9312

> <Gold.Chemscore.DEInternal>
5.0338

> <Gold.Chemscore.Rot>
5.2672

> <Gold.Chemscore.Internal.Correction>
   9.000000E+99

> <Gold.Chemscore.Hbonds>
donor molecule, donor type, donor heavy atom, donor atom, acceptor molecule, acceptor atom, score
      L1  H    23    50       P1  8028  0.98
      L1  H    25    51       P1  8028  0.80
      L1  H    27    52       P1  7957  0.41
      P1  H  6896  6909       L1    11  0.64
      P1  H 10752 10765       L1    16  0.03

> <Gold.Chemscore.Hbond.Weighted>
-11.8418

> <Gold.Chemscore.Metal.Weighted>
-0.0000

> <Gold.Chemscore.Lipo.Weighted>
-8.7972

> <Gold.Chemscore.Internal_Hbond.Weighted>
0.0000

> <Gold.Chemscore.DEClash.Weighted>
0.9312

> <Gold.Chemscore.DEInternal.Weighted>
5.0338

> <Gold.Chemscore.Rot.Weighted>
13.4839

> <Gold.Chemscore.Internal.Correction.Weighted>
   9.000000E+99

> <Gold.Protein.RotatedTorsions>
[ 6907 6896 6895 6894 ] final   57.87 input  -60.11 | X-H torsion
[ 7974 7965 7964 7962 ] final  -59.77 input  175.53 | X-H torsion
[ 8008 7997 7996 7995 ] final -111.90 input   59.86 | X-H torsion
[ 10167 10162 10161 10158 ] final  -46.27 input  -65.29 | X-H torsion
[ 10718 10713 10712 10709 ] final   92.21 input   66.30 | X-H torsion
[ 10763 10752 10751 10750 ] final  171.28 input  -60.55 | X-H torsion
[ 11005 11000 10999 10996 ] final -128.69 input  -57.11 | X-H torsion

> <Gold.Protein.ActiveResidues>
 VAL166  LYS551  ARG553  GLY616  TRP617  ASP618  TYR619  PRO620  LYS621  CYS622 
 ASP623  PHE694  ASN695  SER759  ASP760  ASP761  ALA762  ILE779  LEU786  VAL792 
 PHE793  MET794  SER795  GLU796  ALA797  LYS798  CYS799  TRP800  GLU811  SER814 

> <Gold.Protein.RotatedAtoms>
  152.3772  134.6645  160.0155 H   0  0  0  0  0  0  0  0  0  0  0  0  # atno 6907 bound_to 6896
  151.6920  133.3305  159.3253 H   0  0  0  0  0  0  0  0  0  0  0  0  # atno 6908 bound_to 6896
  150.7719  134.6626  159.6392 H   0  0  0  0  0  0  0  0  0  0  0  0  # atno 6909 bound_to 6896
  145.8235  140.8525  143.0120 H   0  0  0  0  0  0  0  0  0  0  0  0  # atno 7974 bound_to 7965
  154.9969  140.0394  157.2343 H   0  0  0  0  0  0  0  0  0  0  0  0  # atno 8008 bound_to 7997
  154.7578  140.2779  155.6216 H   0  0  0  0  0  0  0  0  0  0  0  0  # atno 8009 bound_to 7997
  156.2898  140.2634  156.2349 H   0  0  0  0  0  0  0  0  0  0  0  0  # atno 8010 bound_to 7997
  140.6824  143.2839  151.3759 H   0  0  0  0  0  0  0  0  0  0  0  0  # atno 10167 bound_to 10162
  157.6959  131.0435  150.3847 H   0  0  0  0  0  0  0  0  0  0  0  0  # atno 10718 bound_to 10713
  154.4096  135.2756  155.2045 H   0  0  0  0  0  0  0  0  0  0  0  0  # atno 10763 bound_to 10752
  154.4036  135.6038  153.5915 H   0  0  0  0  0  0  0  0  0  0  0  0  # atno 10764 bound_to 10752
  152.9831  135.5932  154.4376 H   0  0  0  0  0  0  0  0  0  0  0  0  # atno 10765 bound_to 10752
  140.9495  134.1085  157.4076 H   0  0  0  0  0  0  0  0  0  0  0  0  # atno 11005 bound_to 11000
  144.6745  140.0567  143.7477 LP  0  0  0  0  0  0  0  0  0  0  0  0  # atno 17320 bound_to 7965
  145.9649  139.2827  143.1133 LP  0  0  0  0  0  0  0  0  0  0  0  0  # atno 17321 bound_to 7965
  139.6156  144.1009  152.2342 LP  0  0  0  0  0  0  0  0  0  0  0  0  # atno 17342 bound_to 10162
  140.0437  144.5987  150.7390 LP  0  0  0  0  0  0  0  0  0  0  0  0  # atno 17343 bound_to 10162
  156.4257  130.3962  149.6794 LP  0  0  0  0  0  0  0  0  0  0  0  0  # atno 17370 bound_to 10713
  156.4030  130.7684  151.2693 LP  0  0  0  0  0  0  0  0  0  0  0  0  # atno 17371 bound_to 10713
  139.8843  135.0061  156.6360 LP  0  0  0  0  0  0  0  0  0  0  0  0  # atno 17394 bound_to 11000
  140.7623  133.8807  155.8427 LP  0  0  0  0  0  0  0  0  0  0  0  0  # atno 17395 bound_to 11000

$$$$
