AV-unprocessed.smi:651|AV-procd|sdf|3189|dock1
  -GOLD-   22720 0113D 1   1.00000     0.00000
 Structure written by MMmdl.
 39 40  0  0  0  0  0  0  0  0  2 V2000
  143.7788  132.1051  150.2991 C   0  0  0  0  0  0  0  0  0  0  0  0
  144.3861  133.3733  150.8603 C   0  0  0  0  0  0  0  0  0  0  0  0
  145.6853  133.4077  151.4108 C   0  0  0  0  0  0  0  0  0  0  0  0
  146.1872  134.6253  151.9155 C   0  0  0  0  0  0  0  0  0  0  0  0
  145.3815  135.7844  151.8586 C   0  0  0  0  0  0  0  0  0  0  0  0
  145.8975  137.1134  152.3854 C   0  0  0  0  0  0  0  0  0  0  0  0
  146.4371  136.9715  153.8110 C   0  0  0  0  0  0  0  0  0  0  0  0
  145.6557  136.9084  154.7591 O   0  0  0  0  0  0  0  0  0  0  0  0
  147.7719  136.9379  153.9490 N   0  0  0  0  0  0  0  0  0  0  0  0
  148.4943  136.8303  155.2176 C   0  0  1  0  0  0  0  0  0  0  0  0
  149.4868  135.6509  155.1851 C   0  0  0  0  0  0  0  0  0  0  0  0
  150.8245  136.1782  155.7152 C   0  0  0  0  0  0  0  0  0  0  0  0
  150.5001  137.5124  156.3895 C   0  0  0  0  0  0  0  0  0  0  0  0
  149.3121  138.0931  155.6073 C   0  0  1  0  0  0  0  0  0  0  0  0
  149.8052  138.9529  154.4227 C   0  0  0  0  0  0  0  0  0  0  0  0
  149.6038  138.4649  153.1962 N   0  0  0  0  0  0  0  0  0  0  0  0
  150.3645  140.0328  154.6083 O   0  0  0  0  0  0  0  0  0  0  0  0
  144.0879  135.6877  151.3009 C   0  0  0  0  0  0  0  0  0  0  0  0
  143.6441  134.5027  150.8278 N   0  3  0  0  0  0  0  0  0  0  0  0
  144.5351  131.3288  150.1781 H   0  0  0  0  0  0  0  0  0  0  0  0
  143.3288  132.2943  149.3240 H   0  0  0  0  0  0  0  0  0  0  0  0
  143.0056  131.7279  150.9689 H   0  0  0  0  0  0  0  0  0  0  0  0
  146.2926  132.5148  151.4458 H   0  0  0  0  0  0  0  0  0  0  0  0
  147.1813  134.6689  152.3368 H   0  0  0  0  0  0  0  0  0  0  0  0
  146.6888  137.4940  151.7383 H   0  0  0  0  0  0  0  0  0  0  0  0
  145.0916  137.8484  152.3650 H   0  0  0  0  0  0  0  0  0  0  0  0
  148.3360  137.0111  153.1150 H   0  0  0  0  0  0  0  0  0  0  0  0
  147.7792  136.6324  156.0188 H   0  0  0  0  0  0  0  0  0  0  0  0
  149.1198  134.8386  155.8135 H   0  0  0  0  0  0  0  0  0  0  0  0
  149.6164  135.2429  154.1816 H   0  0  0  0  0  0  0  0  0  0  0  0
  151.3052  135.4773  156.3982 H   0  0  0  0  0  0  0  0  0  0  0  0
  151.5103  136.3421  154.8832 H   0  0  0  0  0  0  0  0  0  0  0  0
  150.1989  137.3361  157.4229 H   0  0  0  0  0  0  0  0  0  0  0  0
  151.3662  138.1756  156.4181 H   0  0  0  0  0  0  0  0  0  0  0  0
  148.7132  138.7286  156.2621 H   0  0  0  0  0  0  0  0  0  0  0  0
  149.9128  138.9859  152.3881 H   0  0  0  0  0  0  0  0  0  0  0  0
  149.1472  137.5716  153.0809 H   0  0  0  0  0  0  0  0  0  0  0  0
  143.4005  136.5169  151.2145 H   0  0  0  0  0  0  0  0  0  0  0  0
  142.7066  134.4583  150.4275 H   0  0  0  0  0  0  0  0  0  0  0  0
  1  2  1  0  0  0  0
  1 20  1  0  0  0  0
  1 21  1  0  0  0  0
  1 22  1  0  0  0  0
  2 19  1  0  0  0  0
  2  3  2  0  0  0  0
  3  4  1  0  0  0  0
  3 23  1  0  0  0  0
  4  5  2  0  0  0  0
  4 24  1  0  0  0  0
  5  6  1  0  0  0  0
  5 18  1  0  0  0  0
  6  7  1  0  0  0  0
  6 25  1  0  0  0  0
  6 26  1  0  0  0  0
  7  8  2  0  0  0  0
  7  9  1  0  0  0  0
  9 10  1  0  0  0  0
  9 27  1  0  0  0  0
 10 14  1  0  0  0  0
 10 11  1  0  0  0  0
 10 28  1  0  0  0  0
 11 12  1  0  0  0  0
 11 29  1  0  0  0  0
 11 30  1  0  0  0  0
 12 13  1  0  0  0  0
 12 31  1  0  0  0  0
 12 32  1  0  0  0  0
 13 14  1  0  0  0  0
 13 33  1  0  0  0  0
 13 34  1  0  0  0  0
 14 15  1  0  0  0  0
 14 35  1  0  0  0  0
 15 16  1  0  0  0  0
 15 17  2  0  0  0  0
 16 36  1  0  0  0  0
 16 37  1  0  0  0  0
 18 19  2  0  0  0  0
 18 38  1  0  0  0  0
 19 39  1  0  0  0  0
M  CHG  1  19   1
M  END
> <s_m_source_file>
AV-unprocessed.smi

> <i_m_source_file_index>
651

> <i_lp_mmshare_version>
43012

> <i_f3d_flags>
0

> <s_epik_input>
W0NIM11jMVtjSF1bY0hdYyhbY0hdbjEpW0NIMl1DKD1PKVtOSF1bQ0BASF0yW0NIMl1bQ0gyXVtDSDJdW0NASF0yQyg9TylbTkgyXQ==

> <s_epik_cmdline>
J2VwaWtfcHl0aG9uJywgJy1waCcsICc3LjAnLCAnLXRuJywgJzgnLCAnLW1hJywgJzIwMCcsICctbWV0YWxfYmluZGluZycsICctaW1hZScsICc8aW5maWxlLm1hZT4nLCAnLW9tYWUnLCAnPG91dGZpbGUubWFlPic=

> <r_epik_Ionization_Penalty>
2.14971

> <r_epik_Ionization_Penalty_Charging>
2.14971

> <r_epik_Ionization_Penalty_Neutral>
1.65229e-07

> <r_epik_State_Penalty>
2.28946

> <r_epik_Charging_Adjusted_Penalty>
4.43917

> <i_epik_Tot_Q>
1

> <i_epik_Tot_abs_Q>
1

> <r_epik_Metal_State_Penalty>
2.30508

> <b_epik_Metal_Only>
0

> <s_lp_Force_Field>
OPLS_2005

> <r_lp_Energy>
19.7283

> <b_lp_Chiralities_Consistent>
1

> <s_lp_Variant>
AV-unprocessed.smi:651-6

> <Gold.Version>
5.8.1

> <Gold.Id.Protein>
6NUR|6NUR_protein|mol2

> <Gold.PLP.Fitness>
44.9110

> <Gold.PLP.PLP>
-28.6402

> <Gold.PLP.part.hbond>
-4.8760

> <Gold.PLP.part.metal>
0.0000

> <Gold.PLP.part.buried>
-3.9165

> <Gold.PLP.part.nonpolar>
-19.5789

> <Gold.PLP.part.repulsive>
0.2250

> <Gold.PLP.ligand.clash>
0.0000

> <Gold.PLP.ligand.torsion>
0.4762

> <Gold.PLP.Chemscore.Hbond>
5.7280

> <Gold.PLP.Chemscore.CHOScore>
0.0000

> <Gold.PLP.Chemscore.Metal>
0.0000

> <Gold.Chemscore.Hbonds>
donor molecule, donor type, donor heavy atom, donor atom, acceptor molecule, acceptor atom, score
      L1  H     9    27       P1  7948  0.93
      L1  H    16    36       P1  7957  1.00
      L1  H    16    37       P1  7948  0.78
      L1  H    19    39       P1 10186  2.00
      P1  H  7989  7998       L1    17  1.00

> <Gold.PLP.Chemscore.Internal.Correction>
0.0393

> <Gold.Rescore>
     Score         DG    S(hbond)    S(metal)    S(lipo)     H(rot)  DE(clash)    DE(int)     intcor
     19.24     -21.53       4.27        0.00      59.87       2.04       0.03       2.25       ----

> <Gold.Chemscore.Fitness>
19.2437

> <Gold.Chemscore.DG>
-21.5262

> <Gold.Chemscore.ZeroCoef>
-5.4800

> <Gold.Chemscore.Hbond>
4.2695

> <Gold.Chemscore.Metal>
0.0000

> <Gold.Chemscore.Lipo>
59.8718

> <Gold.Chemscore.Internal_Hbond>
0.0000

> <Gold.Chemscore.DEClash>
0.0339

> <Gold.Chemscore.DEInternal>
2.2486

> <Gold.Chemscore.Rot>
2.0386

> <Gold.Chemscore.Internal.Correction>
   9.000000E+99

> <Gold.Chemscore.Hbonds>
donor molecule, donor type, donor heavy atom, donor atom, acceptor molecule, acceptor atom, score
      L1  H     9    27       P1  7948  0.89
      L1  H    16    36       P1  7957  0.48
      L1  H    16    37       P1  7948  0.77
      L1  H    19    39       P1 10186  0.55
      P1  H  7989  7998       L1    17  1.00

> <Gold.Chemscore.Hbond.Weighted>
-14.2600

> <Gold.Chemscore.Metal.Weighted>
-0.0000

> <Gold.Chemscore.Lipo.Weighted>
-7.0050

> <Gold.Chemscore.Internal_Hbond.Weighted>
0.0000

> <Gold.Chemscore.DEClash.Weighted>
0.0339

> <Gold.Chemscore.DEInternal.Weighted>
2.2486

> <Gold.Chemscore.Rot.Weighted>
5.2188

> <Gold.Chemscore.Internal.Correction.Weighted>
   9.000000E+99

> <Gold.Protein.RotatedTorsions>
[ 6907 6896 6895 6894 ] final -110.82 input  -60.11 | X-H torsion
[ 7974 7965 7964 7962 ] final  165.53 input  175.53 | X-H torsion
[ 8008 7997 7996 7995 ] final -139.92 input   59.86 | X-H torsion
[ 10167 10162 10161 10158 ] final  158.61 input  -65.29 | X-H torsion
[ 10718 10713 10712 10709 ] final  -22.60 input   66.30 | X-H torsion
[ 10763 10752 10751 10750 ] final  -67.92 input  -60.55 | X-H torsion
[ 11005 11000 10999 10996 ] final    9.89 input  -57.11 | X-H torsion

> <Gold.Protein.ActiveResidues>
 VAL166  LYS551  ARG553  GLY616  TRP617  ASP618  TYR619  PRO620  LYS621  CYS622 
 ASP623  PHE694  ASN695  SER759  ASP760  ASP761  ALA762  ILE779  LEU786  VAL792 
 PHE793  MET794  SER795  GLU796  ALA797  LYS798  CYS799  TRP800  GLU811  SER814 

> <Gold.Protein.RotatedAtoms>
  150.7649  133.9326  159.3431 H   0  0  0  0  0  0  0  0  0  0  0  0  # atno 6907 bound_to 6896
  151.7226  135.0889  160.0296 H   0  0  0  0  0  0  0  0  0  0  0  0  # atno 6908 bound_to 6896
  152.3640  133.6295  159.6072 H   0  0  0  0  0  0  0  0  0  0  0  0  # atno 6909 bound_to 6896
  144.7499  139.8484  143.6370 H   0  0  0  0  0  0  0  0  0  0  0  0  # atno 7974 bound_to 7965
  155.4528  140.0540  157.2999 H   0  0  0  0  0  0  0  0  0  0  0  0  # atno 8008 bound_to 7997
  154.4770  140.2065  155.9811 H   0  0  0  0  0  0  0  0  0  0  0  0  # atno 8009 bound_to 7997
  156.1147  140.3198  155.8126 H   0  0  0  0  0  0  0  0  0  0  0  0  # atno 8010 bound_to 7997
  139.4827  144.4809  151.8446 H   0  0  0  0  0  0  0  0  0  0  0  0  # atno 10167 bound_to 10162
  156.5024  130.4591  149.6693 H   0  0  0  0  0  0  0  0  0  0  0  0  # atno 10718 bound_to 10713
  154.3816  135.6073  153.5794 H   0  0  0  0  0  0  0  0  0  0  0  0  # atno 10763 bound_to 10752
  152.9788  135.5862  154.4404 H   0  0  0  0  0  0  0  0  0  0  0  0  # atno 10764 bound_to 10752
  154.4174  135.2845  155.1975 H   0  0  0  0  0  0  0  0  0  0  0  0  # atno 10765 bound_to 10752
  140.5206  134.0563  155.7844 H   0  0  0  0  0  0  0  0  0  0  0  0  # atno 11005 bound_to 11000
  146.1433  139.4496  143.0095 LP  0  0  0  0  0  0  0  0  0  0  0  0  # atno 17320 bound_to 7965
  145.6984  141.0143  143.1517 LP  0  0  0  0  0  0  0  0  0  0  0  0  # atno 17321 bound_to 7965
  140.4285  144.2148  150.5887 LP  0  0  0  0  0  0  0  0  0  0  0  0  # atno 17342 bound_to 10162
  140.4803  143.2381  151.8964 LP  0  0  0  0  0  0  0  0  0  0  0  0  # atno 17343 bound_to 10162
  156.3320  130.7336  151.2267 LP  0  0  0  0  0  0  0  0  0  0  0  0  # atno 17370 bound_to 10713
  157.7461  131.0427  150.4709 LP  0  0  0  0  0  0  0  0  0  0  0  0  # atno 17371 bound_to 10713
  141.1336  133.9260  157.2482 LP  0  0  0  0  0  0  0  0  0  0  0  0  # atno 17394 bound_to 11000
  139.9608  135.0154  156.9255 LP  0  0  0  0  0  0  0  0  0  0  0  0  # atno 17395 bound_to 11000

$$$$
