AV-unprocessed.smi:3032|AV-procd|sdf|11559|dock10
  -GOLD-   2272016523D 1   1.00000     0.00000
 Structure written by MMmdl.
 37 38  0  0  0  0  0  0  0  0  1 V2000
  154.0201  141.7681  160.4149 C   0  0  0  0  0  0  0  0  0  0  0  0
  153.1881  142.5618  159.3976 C   0  0  2  0  0  0  0  0  0  0  0  0
  152.5426  143.8030  160.0438 C   0  0  0  0  0  0  0  0  0  0  0  0
  151.7051  144.5962  159.0286 C   0  0  0  0  0  0  0  0  0  0  0  0
  150.6384  143.7074  158.3708 C   0  0  0  0  0  0  0  0  0  0  0  0
  151.2756  142.4685  157.7080 C   0  0  2  0  0  0  0  0  0  0  0  0
  150.1989  141.5809  157.0702 C   0  0  0  0  0  0  0  0  0  0  0  0
  150.1420  140.3805  157.3387 O   0  0  0  0  0  0  0  0  0  0  0  0
  149.3394  142.1882  156.2380 N   0  0  0  0  0  0  0  0  0  0  0  0
  148.2102  141.5416  155.5756 C   0  0  0  0  0  0  0  0  0  0  0  0
  148.5852  140.9221  154.2137 C   0  0  0  0  0  0  0  0  0  0  0  0
  149.7015  139.9284  154.2886 C   0  0  0  0  0  0  0  0  0  0  0  0
  149.5589  138.6639  153.8859 N   0  0  0  0  0  0  0  0  0  0  0  0
  150.7285  138.0103  154.0463 N   0  0  0  0  0  0  0  0  0  0  0  0
  151.5116  138.9616  154.5518 C   0  0  0  0  0  0  0  0  0  0  0  0
  150.9293  140.1861  154.7261 N   0  0  0  0  0  0  0  0  0  0  0  0
  152.1113  141.6778  158.7376 C   0  0  0  0  0  0  0  0  0  0  0  0
  148.7289  138.2279  153.5093 H   0  0  0  0  0  0  0  0  0  0  0  0
  153.3997  141.3955  161.2305 H   0  0  0  0  0  0  0  0  0  0  0  0
  154.8042  142.3884  160.8498 H   0  0  0  0  0  0  0  0  0  0  0  0
  154.5020  140.9106  159.9443 H   0  0  0  0  0  0  0  0  0  0  0  0
  153.8674  142.9047  158.6158 H   0  0  0  0  0  0  0  0  0  0  0  0
  151.9084  143.4971  160.8772 H   0  0  0  0  0  0  0  0  0  0  0  0
  153.3140  144.4491  160.4643 H   0  0  0  0  0  0  0  0  0  0  0  0
  151.2289  145.4438  159.5221 H   0  0  0  0  0  0  0  0  0  0  0  0
  152.3587  145.0128  158.2612 H   0  0  0  0  0  0  0  0  0  0  0  0
  149.9120  143.4005  159.1251 H   0  0  0  0  0  0  0  0  0  0  0  0
  150.0867  144.2888  157.6304 H   0  0  0  0  0  0  0  0  0  0  0  0
  151.9471  142.8138  156.9195 H   0  0  0  0  0  0  0  0  0  0  0  0
  149.4584  143.1776  156.0727 H   0  0  0  0  0  0  0  0  0  0  0  0
  147.8534  140.7558  156.2420 H   0  0  0  0  0  0  0  0  0  0  0  0
  147.3855  142.2463  155.4607 H   0  0  0  0  0  0  0  0  0  0  0  0
  147.7120  140.4335  153.7801 H   0  0  0  0  0  0  0  0  0  0  0  0
  148.8673  141.7103  153.5143 H   0  0  0  0  0  0  0  0  0  0  0  0
  152.5439  138.7672  154.8036 H   0  0  0  0  0  0  0  0  0  0  0  0
  152.5874  140.8258  158.2495 H   0  0  0  0  0  0  0  0  0  0  0  0
  151.4608  141.2643  159.5107 H   0  0  0  0  0  0  0  0  0  0  0  0
  1  2  1  0  0  0  0
  1 19  1  0  0  0  0
  1 20  1  0  0  0  0
  1 21  1  0  0  0  0
  2 17  1  0  0  0  0
  2  3  1  0  0  0  0
  2 22  1  0  0  0  0
  3  4  1  0  0  0  0
  3 23  1  0  0  0  0
  3 24  1  0  0  0  0
  4  5  1  0  0  0  0
  4 25  1  0  0  0  0
  4 26  1  0  0  0  0
  5  6  1  0  0  0  0
  5 27  1  0  0  0  0
  5 28  1  0  0  0  0
  6  7  1  0  0  0  0
  6 17  1  0  0  0  0
  6 29  1  0  0  0  0
  7  8  2  0  0  0  0
  7  9  1  0  0  0  0
  9 10  1  0  0  0  0
  9 30  1  0  0  0  0
 10 11  1  0  0  0  0
 10 31  1  0  0  0  0
 10 32  1  0  0  0  0
 11 33  1  0  0  0  0
 11 34  1  0  0  0  0
 11 12  1  0  0  0  0
 12 16  2  0  0  0  0
 12 13  1  0  0  0  0
 13 18  1  0  0  0  0
 13 14  1  0  0  0  0
 14 15  2  0  0  0  0
 15 16  1  0  0  0  0
 15 35  1  0  0  0  0
 17 36  1  0  0  0  0
 17 37  1  0  0  0  0
M  END
> <s_m_source_file>
AV-unprocessed.smi

> <i_m_source_file_index>
3032

> <i_lp_mmshare_version>
43012

> <i_f3d_flags>
0

> <s_epik_input>
W0NIM11bQ0BASF0xW0NIMl1bQ0gyXVtDSDJdW0NASF0oW0NIMl0xKUMoPU8pW05IXVtDSDJdW0NIMl1jMm5uW2NIXVtuSF0y

> <s_epik_cmdline>
J2VwaWtfcHl0aG9uJywgJy1waCcsICc3LjAnLCAnLXRuJywgJzgnLCAnLW1hJywgJzIwMCcsICctbWV0YWxfYmluZGluZycsICctaW1hZScsICc8aW5maWxlLm1hZT4nLCAnLW9tYWUnLCAnPG91dGZpbGUubWFlPic=

> <r_lp_tautomer_probability>
0.948284

> <r_epik_Ionization_Penalty>
0.000474052

> <r_epik_Ionization_Penalty_Charging>
0

> <r_epik_Ionization_Penalty_Neutral>
0.000474052

> <r_epik_State_Penalty>
0.271807

> <r_epik_Charging_Adjusted_Penalty>
0.271807

> <i_epik_Tot_Q>
0

> <i_epik_Tot_abs_Q>
0

> <r_epik_Metal_State_Penalty>
0.397201

> <b_epik_Metal_Only>
0

> <s_lp_Force_Field>
OPLS_2005

> <r_lp_Energy>
10.6887

> <b_lp_Chiralities_Consistent>
1

> <s_lp_Variant>
AV-unprocessed.smi:3032-3

> <Gold.Version>
5.8.1

> <Gold.Id.Protein>
6NUR|6NUR_protein|mol2

> <Gold.PLP.Fitness>
44.4877

> <Gold.PLP.PLP>
-39.0418

> <Gold.PLP.part.hbond>
-2.9553

> <Gold.PLP.part.metal>
0.0000

> <Gold.PLP.part.buried>
-4.6776

> <Gold.PLP.part.nonpolar>
-32.1335

> <Gold.PLP.part.repulsive>
0.4381

> <Gold.PLP.ligand.clash>
0.0000

> <Gold.PLP.ligand.torsion>
0.2743

> <Gold.PLP.Chemscore.Hbond>
1.9920

> <Gold.PLP.Chemscore.CHOScore>
0.0000

> <Gold.PLP.Chemscore.Metal>
0.0000

> <Gold.Chemscore.Hbonds>
donor molecule, donor type, donor heavy atom, donor atom, acceptor molecule, acceptor atom, score
      L1  H     9    30       P1  8028  1.00
      P1  H  7989  7998       L1    16  0.80

> <Gold.PLP.Chemscore.Internal.Correction>
0.0186

> <Gold.Rescore>
     Score         DG    S(hbond)    S(metal)    S(lipo)     H(rot)  DE(clash)    DE(int)     intcor
     16.10     -16.70       1.98        0.00      88.72       2.25       0.01       0.59       ----

> <Gold.Chemscore.Fitness>
16.0962

> <Gold.Chemscore.DG>
-16.6973

> <Gold.Chemscore.ZeroCoef>
-5.4800

> <Gold.Chemscore.Hbond>
1.9753

> <Gold.Chemscore.Metal>
0.0000

> <Gold.Chemscore.Lipo>
88.7178

> <Gold.Chemscore.Internal_Hbond>
0.0000

> <Gold.Chemscore.DEClash>
0.0077

> <Gold.Chemscore.DEInternal>
0.5934

> <Gold.Chemscore.Rot>
2.2501

> <Gold.Chemscore.Internal.Correction>
   9.000000E+99

> <Gold.Chemscore.Hbonds>
donor molecule, donor type, donor heavy atom, donor atom, acceptor molecule, acceptor atom, score
      L1  H     9    30       P1  8028  0.97
      P1  H  7989  7998       L1    16  0.05

> <Gold.Chemscore.Hbond.Weighted>
-6.5976

> <Gold.Chemscore.Metal.Weighted>
-0.0000

> <Gold.Chemscore.Lipo.Weighted>
-10.3800

> <Gold.Chemscore.Internal_Hbond.Weighted>
0.0000

> <Gold.Chemscore.DEClash.Weighted>
0.0077

> <Gold.Chemscore.DEInternal.Weighted>
0.5934

> <Gold.Chemscore.Rot.Weighted>
5.7603

> <Gold.Chemscore.Internal.Correction.Weighted>
   9.000000E+99

> <Gold.Protein.RotatedTorsions>
[ 6907 6896 6895 6894 ] final   42.74 input  -60.11 | X-H torsion
[ 7974 7965 7964 7962 ] final  -64.01 input  175.53 | X-H torsion
[ 8008 7997 7996 7995 ] final  147.20 input   59.86 | X-H torsion
[ 10167 10162 10161 10158 ] final  151.10 input  -65.29 | X-H torsion
[ 10718 10713 10712 10709 ] final   62.18 input   66.30 | X-H torsion
[ 10763 10752 10751 10750 ] final -126.14 input  -60.55 | X-H torsion
[ 11005 11000 10999 10996 ] final  171.54 input  -57.11 | X-H torsion

> <Gold.Protein.ActiveResidues>
 VAL166  LYS551  ARG553  GLY616  TRP617  ASP618  TYR619  PRO620  LYS621  CYS622 
 ASP623  PHE694  ASN695  SER759  ASP760  ASP761  ALA762  ILE779  LEU786  VAL792 
 PHE793  MET794  SER795  GLU796  ALA797  LYS798  CYS799  TRP800  GLU811  SER814 

> <Gold.Protein.RotatedAtoms>
  152.2117  134.8495  160.0496 H   0  0  0  0  0  0  0  0  0  0  0  0  # atno 6907 bound_to 6896
  151.9312  133.3606  159.3939 H   0  0  0  0  0  0  0  0  0  0  0  0  # atno 6908 bound_to 6896
  150.6978  134.4461  159.5358 H   0  0  0  0  0  0  0  0  0  0  0  0  # atno 6909 bound_to 6896
  145.7721  140.8807  143.0375 H   0  0  0  0  0  0  0  0  0  0  0  0  # atno 7974 bound_to 7965
  156.2832  140.2162  156.5499 H   0  0  0  0  0  0  0  0  0  0  0  0  # atno 8008 bound_to 7997
  154.7299  140.0496  157.0740 H   0  0  0  0  0  0  0  0  0  0  0  0  # atno 8009 bound_to 7997
  155.0367  140.3141  155.4742 H   0  0  0  0  0  0  0  0  0  0  0  0  # atno 8010 bound_to 7997
  139.4843  144.5468  151.7469 H   0  0  0  0  0  0  0  0  0  0  0  0  # atno 10167 bound_to 10162
  157.5882  130.9036  149.9554 H   0  0  0  0  0  0  0  0  0  0  0  0  # atno 10718 bound_to 10713
  154.8743  135.4005  154.3383 H   0  0  0  0  0  0  0  0  0  0  0  0  # atno 10763 bound_to 10752
  153.4186  135.7022  153.6315 H   0  0  0  0  0  0  0  0  0  0  0  0  # atno 10764 bound_to 10752
  153.4987  135.3732  155.2499 H   0  0  0  0  0  0  0  0  0  0  0  0  # atno 10765 bound_to 10752
  140.3201  134.7445  157.4057 H   0  0  0  0  0  0  0  0  0  0  0  0  # atno 11005 bound_to 11000
  144.6811  139.9869  143.7484 LP  0  0  0  0  0  0  0  0  0  0  0  0  # atno 17320 bound_to 7965
  146.0160  139.3210  143.0842 LP  0  0  0  0  0  0  0  0  0  0  0  0  # atno 17321 bound_to 7965
  140.5016  144.1160  150.5972 LP  0  0  0  0  0  0  0  0  0  0  0  0  # atno 17342 bound_to 10162
  140.4055  143.2682  151.9896 LP  0  0  0  0  0  0  0  0  0  0  0  0  # atno 17343 bound_to 10162
  156.0933  130.3661  150.0354 LP  0  0  0  0  0  0  0  0  0  0  0  0  # atno 17370 bound_to 10713
  156.8481  130.9449  151.3627 LP  0  0  0  0  0  0  0  0  0  0  0  0  # atno 17371 bound_to 10713
  140.0949  134.5550  155.8408 LP  0  0  0  0  0  0  0  0  0  0  0  0  # atno 17394 bound_to 11000
  141.2088  133.6678  156.6399 LP  0  0  0  0  0  0  0  0  0  0  0  0  # atno 17395 bound_to 11000

$$$$
