AV-unprocessed.smi:832|AV-procd|sdf|3879|dock2
  -GOLD-   22720 1333D 1   1.00000     0.00000
 Structure written by MMmdl.
 42 43  0  0  0  0  0  0  0  0  2 V2000
  150.1230  141.7569  155.8289 C   0  0  0  0  0  0  0  0  0  0  0  0
  150.3685  140.3772  155.3216 C   0  0  0  0  0  0  0  0  0  0  0  0
  149.5580  139.2897  155.1534 C   0  0  0  0  0  0  0  0  0  0  0  0
  150.4426  138.3098  154.6293 C   0  0  0  0  0  0  0  0  0  0  0  0
  149.9816  137.0063  154.3129 N   0  0  0  0  0  0  0  0  0  0  0  0
  150.1046  135.8930  155.0555 C   0  0  0  0  0  0  0  0  0  0  0  0
  150.6606  135.8298  156.1524 O   0  0  0  0  0  0  0  0  0  0  0  0
  149.5351  134.8381  154.4539 N   0  0  0  0  0  0  0  0  0  0  0  0
  149.5126  133.4760  154.9788 C   0  0  0  0  0  0  0  0  0  0  0  0
  149.2445  132.4289  153.8798 C   0  0  1  0  0  0  0  0  0  0  0  0
  149.3582  130.9864  154.3682 C   0  0  0  0  0  0  0  0  0  0  0  0
  148.4945  130.1716  153.3961 C   0  0  0  0  0  0  0  0  0  0  0  0
  147.6661  131.1375  152.6312 N   0  3  1  0  0  0  0  0  0  0  0  0
  146.2571  130.7162  152.3906 C   0  0  0  0  0  0  0  0  0  0  0  0
  146.1869  129.2414  151.9510 C   0  0  0  0  0  0  0  0  0  0  0  0
  145.5684  131.6017  151.3339 C   0  0  0  0  0  0  0  0  0  0  0  0
  147.8353  132.4523  153.2863 C   0  0  0  0  0  0  0  0  0  0  0  0
  151.6809  138.7581  154.4909 N   0  0  0  0  0  0  0  0  0  0  0  0
  151.6394  140.0859  154.9322 O   0  0  0  0  0  0  0  0  0  0  0  0
  149.1776  141.8107  156.3688 H   0  0  0  0  0  0  0  0  0  0  0  0
  150.0834  142.4692  155.0049 H   0  0  0  0  0  0  0  0  0  0  0  0
  150.9174  142.0677  156.5077 H   0  0  0  0  0  0  0  0  0  0  0  0
  148.5031  139.2119  155.3711 H   0  0  0  0  0  0  0  0  0  0  0  0
  149.5070  136.9133  153.4271 H   0  0  0  0  0  0  0  0  0  0  0  0
  149.1021  134.9832  153.5533 H   0  0  0  0  0  0  0  0  0  0  0  0
  150.4856  133.2838  155.4313 H   0  0  0  0  0  0  0  0  0  0  0  0
  148.7810  133.3870  155.7840 H   0  0  0  0  0  0  0  0  0  0  0  0
  149.9616  132.5703  153.0691 H   0  0  0  0  0  0  0  0  0  0  0  0
  150.3911  130.6381  154.4035 H   0  0  0  0  0  0  0  0  0  0  0  0
  148.9471  130.9001  155.3752 H   0  0  0  0  0  0  0  0  0  0  0  0
  149.1116  129.6046  152.6983 H   0  0  0  0  0  0  0  0  0  0  0  0
  147.8844  129.4599  153.9544 H   0  0  0  0  0  0  0  0  0  0  0  0
  145.7073  130.8217  153.3272 H   0  0  0  0  0  0  0  0  0  0  0  0
  145.1565  128.9405  151.7591 H   0  0  0  0  0  0  0  0  0  0  0  0
  146.5764  128.5657  152.7123 H   0  0  0  0  0  0  0  0  0  0  0  0
  146.7546  129.0738  151.0351 H   0  0  0  0  0  0  0  0  0  0  0  0
  144.5575  131.2483  151.1276 H   0  0  0  0  0  0  0  0  0  0  0  0
  146.1173  131.5968  150.3916 H   0  0  0  0  0  0  0  0  0  0  0  0
  145.4770  132.6367  151.6639 H   0  0  0  0  0  0  0  0  0  0  0  0
  147.0959  132.5618  154.0817 H   0  0  0  0  0  0  0  0  0  0  0  0
  147.7013  133.2717  152.5792 H   0  0  0  0  0  0  0  0  0  0  0  0
  148.1066  131.2244  151.7264 H   0  0  0  0  0  0  0  0  0  0  0  0
  1  2  1  0  0  0  0
  1 20  1  0  0  0  0
  1 21  1  0  0  0  0
  1 22  1  0  0  0  0
  2 19  1  0  0  0  0
  2  3  2  0  0  0  0
  3  4  1  0  0  0  0
  3 23  1  0  0  0  0
  4  5  1  0  0  0  0
  4 18  2  0  0  0  0
  5  6  1  0  0  0  0
  5 24  1  0  0  0  0
  6  7  2  0  0  0  0
  6  8  1  0  0  0  0
  8  9  1  0  0  0  0
  8 25  1  0  0  0  0
  9 10  1  0  0  0  0
  9 26  1  0  0  0  0
  9 27  1  0  0  0  0
 10 17  1  0  0  0  0
 10 11  1  0  0  0  0
 10 28  1  0  0  0  0
 11 12  1  0  0  0  0
 11 29  1  0  0  0  0
 11 30  1  0  0  0  0
 12 13  1  0  0  0  0
 12 31  1  0  0  0  0
 12 32  1  0  0  0  0
 13 14  1  0  0  0  0
 13 17  1  0  0  0  0
 13 42  1  0  0  0  0
 14 15  1  0  0  0  0
 14 16  1  0  0  0  0
 14 33  1  0  0  0  0
 15 34  1  0  0  0  0
 15 35  1  0  0  0  0
 15 36  1  0  0  0  0
 16 37  1  0  0  0  0
 16 38  1  0  0  0  0
 16 39  1  0  0  0  0
 17 40  1  0  0  0  0
 17 41  1  0  0  0  0
 18 19  1  0  0  0  0
M  CHG  1  13   1
M  END
> <s_m_source_file>
AV-unprocessed.smi

> <i_m_source_file_index>
832

> <i_lp_mmshare_version>
43012

> <i_f3d_flags>
0

> <s_epik_input>
W0NIM11jMVtjSF1jKG5vMSlbTkhdQyg9TylbTkhdW0NIMl1bQ0BASF0yW0NIMl1bQ0gyXU4oW0NIMl0yKVtDSF0oW0NIM10pW0NIM10=

> <s_epik_cmdline>
J2VwaWtfcHl0aG9uJywgJy1waCcsICc3LjAnLCAnLXRuJywgJzgnLCAnLW1hJywgJzIwMCcsICctbWV0YWxfYmluZGluZycsICctaW1hZScsICc8aW5maWxlLm1hZT4nLCAnLW9tYWUnLCAnPG91dGZpbGUubWFlPic=

> <r_lp_tautomer_probability>
1

> <r_epik_Ionization_Penalty>
0.000242791

> <r_epik_Ionization_Penalty_Charging>
0.000220876

> <r_epik_Ionization_Penalty_Neutral>
2.19143e-05

> <r_epik_State_Penalty>
-0

> <r_epik_Charging_Adjusted_Penalty>
0.000220876

> <i_epik_Tot_Q>
1

> <i_epik_Tot_abs_Q>
1

> <r_epik_Metal_State_Penalty>
-0

> <b_epik_Metal_Only>
0

> <s_lp_Force_Field>
OPLS_2005

> <r_lp_Energy>
26.1652

> <b_lp_Chiralities_Consistent>
1

> <s_lp_Variant>
AV-unprocessed.smi:832-4

> <Gold.Version>
5.8.1

> <Gold.Id.Protein>
6NUR|6NUR_protein|mol2

> <Gold.PLP.Fitness>
45.5006

> <Gold.PLP.PLP>
-35.9028

> <Gold.PLP.part.hbond>
-4.8148

> <Gold.PLP.part.metal>
0.0000

> <Gold.PLP.part.buried>
-3.5562

> <Gold.PLP.part.nonpolar>
-28.1582

> <Gold.PLP.part.repulsive>
0.2852

> <Gold.PLP.ligand.clash>
0.0000

> <Gold.PLP.ligand.torsion>
1.0454

> <Gold.PLP.Chemscore.Hbond>
3.8864

> <Gold.PLP.Chemscore.CHOScore>
0.0000

> <Gold.PLP.Chemscore.Metal>
0.0000

> <Gold.Chemscore.Hbonds>
donor molecule, donor type, donor heavy atom, donor atom, acceptor molecule, acceptor atom, score
      L1  H     5    24       P1  7948  1.00
      L1  H     8    25       P1  7948  0.84
      L1  H    13    42       P1 10747  1.00
      P1  H  7989  7998       L1    19  0.95

> <Gold.PLP.Chemscore.Internal.Correction>
0.0294

> <Gold.Rescore>
     Score         DG    S(hbond)    S(metal)    S(lipo)     H(rot)  DE(clash)    DE(int)     intcor
     17.04     -18.32       2.42        0.00      73.87       1.51       0.13       1.15       ----

> <Gold.Chemscore.Fitness>
17.0395

> <Gold.Chemscore.DG>
-18.3164

> <Gold.Chemscore.ZeroCoef>
-5.4800

> <Gold.Chemscore.Hbond>
2.4166

> <Gold.Chemscore.Metal>
0.0000

> <Gold.Chemscore.Lipo>
73.8674

> <Gold.Chemscore.Internal_Hbond>
0.0000

> <Gold.Chemscore.DEClash>
0.1303

> <Gold.Chemscore.DEInternal>
1.1466

> <Gold.Chemscore.Rot>
1.5146

> <Gold.Chemscore.Internal.Correction>
   9.000000E+99

> <Gold.Chemscore.Hbonds>
donor molecule, donor type, donor heavy atom, donor atom, acceptor molecule, acceptor atom, score
      L1  H     5    24       P1  7948  0.82
      L1  H     8    25       P1  7948  0.20
      L1  H    13    42       P1 10747  1.00
      P1  H  7989  7998       L1    19  0.05

> <Gold.Chemscore.Hbond.Weighted>
-8.0713

> <Gold.Chemscore.Metal.Weighted>
-0.0000

> <Gold.Chemscore.Lipo.Weighted>
-8.6425

> <Gold.Chemscore.Internal_Hbond.Weighted>
0.0000

> <Gold.Chemscore.DEClash.Weighted>
0.1303

> <Gold.Chemscore.DEInternal.Weighted>
1.1466

> <Gold.Chemscore.Rot.Weighted>
3.8774

> <Gold.Chemscore.Internal.Correction.Weighted>
   9.000000E+99

> <Gold.Protein.RotatedTorsions>
[ 6907 6896 6895 6894 ] final  -76.76 input  -60.11 | X-H torsion
[ 7974 7965 7964 7962 ] final -131.63 input  175.53 | X-H torsion
[ 8008 7997 7996 7995 ] final -119.97 input   59.86 | X-H torsion
[ 10167 10162 10161 10158 ] final  109.26 input  -65.29 | X-H torsion
[ 10718 10713 10712 10709 ] final   82.84 input   66.30 | X-H torsion
[ 10763 10752 10751 10750 ] final -104.44 input  -60.55 | X-H torsion
[ 11005 11000 10999 10996 ] final  -76.88 input  -57.11 | X-H torsion

> <Gold.Protein.ActiveResidues>
 VAL166  LYS551  ARG553  GLY616  TRP617  ASP618  TYR619  PRO620  LYS621  CYS622 
 ASP623  PHE694  ASN695  SER759  ASP760  ASP761  ALA762  ILE779  LEU786  VAL792 
 PHE793  MET794  SER795  GLU796  ALA797  LYS798  CYS799  TRP800  GLU811  SER814 

> <Gold.Protein.RotatedAtoms>
  150.7018  134.4524  159.5342 H   0  0  0  0  0  0  0  0  0  0  0  0  # atno 6907 bound_to 6896
  152.2214  134.8406  160.0494 H   0  0  0  0  0  0  0  0  0  0  0  0  # atno 6908 bound_to 6896
  151.9255  133.3562  159.3949 H   0  0  0  0  0  0  0  0  0  0  0  0  # atno 6909 bound_to 6896
  144.9361  140.7185  143.4875 H   0  0  0  0  0  0  0  0  0  0  0  0  # atno 7974 bound_to 7965
  155.1243  140.0399  157.2758 H   0  0  0  0  0  0  0  0  0  0  0  0  # atno 8008 bound_to 7997
  154.6590  140.2586  155.7104 H   0  0  0  0  0  0  0  0  0  0  0  0  # atno 8009 bound_to 7997
  156.2611  140.2821  156.1054 H   0  0  0  0  0  0  0  0  0  0  0  0  # atno 8010 bound_to 7997
  139.6780  144.7120  151.1566 H   0  0  0  0  0  0  0  0  0  0  0  0  # atno 10167 bound_to 10162
  157.6866  131.0065  150.2434 H   0  0  0  0  0  0  0  0  0  0  0  0  # atno 10718 bound_to 10713
  154.7878  135.4786  153.9985 H   0  0  0  0  0  0  0  0  0  0  0  0  # atno 10763 bound_to 10752
  153.1586  135.6804  153.8782 H   0  0  0  0  0  0  0  0  0  0  0  0  # atno 10764 bound_to 10752
  153.8404  135.3180  155.3403 H   0  0  0  0  0  0  0  0  0  0  0  0  # atno 10765 bound_to 10752
  141.1657  133.7001  156.7736 H   0  0  0  0  0  0  0  0  0  0  0  0  # atno 11005 bound_to 11000
  145.3064  139.1833  143.4662 LP  0  0  0  0  0  0  0  0  0  0  0  0  # atno 17320 bound_to 7965
  146.3267  140.3062  142.8624 LP  0  0  0  0  0  0  0  0  0  0  0  0  # atno 17321 bound_to 7965
  140.7642  143.5742  150.8964 LP  0  0  0  0  0  0  0  0  0  0  0  0  # atno 17342 bound_to 10162
  139.9412  143.6380  152.3053 LP  0  0  0  0  0  0  0  0  0  0  0  0  # atno 17343 bound_to 10162
  156.3044  130.3763  149.7720 LP  0  0  0  0  0  0  0  0  0  0  0  0  # atno 17370 bound_to 10713
  156.5340  130.8270  151.3246 LP  0  0  0  0  0  0  0  0  0  0  0  0  # atno 17371 bound_to 10713
  140.2446  134.8587  157.3607 LP  0  0  0  0  0  0  0  0  0  0  0  0  # atno 17394 bound_to 11000
  140.1762  134.4546  155.7800 LP  0  0  0  0  0  0  0  0  0  0  0  0  # atno 17395 bound_to 11000

$$$$
