AV-unprocessed.smi:749|AV-procd|sdf|3584|dock1
  -GOLD-   22720 0583D 1   1.00000     0.00000
 Structure written by MMmdl.
 43 44  0  0  0  0  0  0  0  0  1 V2000
  152.1390  144.6703  160.9840 C   0  0  0  0  0  0  0  0  0  0  0  0
  151.9511  143.8452  159.7896 N   0  0  0  0  0  0  0  0  0  0  0  0
  152.2630  142.4186  159.9685 C   0  0  0  0  0  0  0  0  0  0  0  0
  152.4024  141.6324  158.6506 C   0  0  1  0  0  0  0  0  0  0  0  0
  152.3753  140.1947  158.8978 N   0  0  0  0  0  0  0  0  0  0  0  0
  153.0769  139.5510  159.8456 C   0  0  0  0  0  0  0  0  0  0  0  0
  153.8365  140.1305  160.6200 O   0  0  0  0  0  0  0  0  0  0  0  0
  152.9100  138.2129  159.9043 N   0  0  0  0  0  0  0  0  0  0  0  0
  153.4864  137.2385  160.7678 C   0  0  0  0  0  0  0  0  0  0  0  0
  153.7182  137.5410  162.1359 C   0  0  0  0  0  0  0  0  0  0  0  0
  154.2552  136.3836  162.6313 C   0  0  0  0  0  0  0  0  0  0  0  0
  154.7385  135.9661  163.9922 C   0  0  0  0  0  0  0  0  0  0  0  0
  153.9778  134.7194  164.4864 C   0  0  0  0  0  0  0  0  0  0  0  0
  154.5130  137.1050  165.0042 C   0  0  0  0  0  0  0  0  0  0  0  0
  156.2400  135.6271  163.9354 C   0  0  0  0  0  0  0  0  0  0  0  0
  154.3375  135.4512  161.6412 O   0  0  0  0  0  0  0  0  0  0  0  0
  153.8448  136.0028  160.4538 N   0  0  0  0  0  0  0  0  0  0  0  0
  151.2667  142.0142  157.6998 C   0  0  0  0  0  0  0  0  0  0  0  0
  151.3038  143.5172  157.3996 C   0  0  0  0  0  0  0  0  0  0  0  0
  151.4536  144.3916  158.6537 C   0  0  0  0  0  0  0  0  0  0  0  0
  151.1418  145.5801  158.5723 O   0  0  0  0  0  0  0  0  0  0  0  0
  152.8873  145.4426  160.8004 H   0  0  0  0  0  0  0  0  0  0  0  0
  152.4717  144.0843  161.8418 H   0  0  0  0  0  0  0  0  0  0  0  0
  151.2056  145.1586  161.2677 H   0  0  0  0  0  0  0  0  0  0  0  0
  153.1813  142.3116  160.5481 H   0  0  0  0  0  0  0  0  0  0  0  0
  151.4627  141.9862  160.5714 H   0  0  0  0  0  0  0  0  0  0  0  0
  153.3486  141.8961  158.1735 H   0  0  0  0  0  0  0  0  0  0  0  0
  151.7737  139.6423  158.3031 H   0  0  0  0  0  0  0  0  0  0  0  0
  152.2876  137.8357  159.2044 H   0  0  0  0  0  0  0  0  0  0  0  0
  153.5220  138.4588  162.6697 H   0  0  0  0  0  0  0  0  0  0  0  0
  154.3229  134.4078  165.4730 H   0  0  0  0  0  0  0  0  0  0  0  0
  154.1158  133.8738  163.8114 H   0  0  0  0  0  0  0  0  0  0  0  0
  152.9064  134.9101  164.5615 H   0  0  0  0  0  0  0  0  0  0  0  0
  153.4572  137.3700  165.0730 H   0  0  0  0  0  0  0  0  0  0  0  0
  155.0589  138.0057  164.7212 H   0  0  0  0  0  0  0  0  0  0  0  0
  154.8467  136.8224  166.0035 H   0  0  0  0  0  0  0  0  0  0  0  0
  156.6154  135.3128  164.9100 H   0  0  0  0  0  0  0  0  0  0  0  0
  156.8324  136.4867  163.6195 H   0  0  0  0  0  0  0  0  0  0  0  0
  156.4360  134.8177  163.2310 H   0  0  0  0  0  0  0  0  0  0  0  0
  151.3501  141.4538  156.7676 H   0  0  0  0  0  0  0  0  0  0  0  0
  150.3030  141.7479  158.1372 H   0  0  0  0  0  0  0  0  0  0  0  0
  152.1466  143.7362  156.7428 H   0  0  0  0  0  0  0  0  0  0  0  0
  150.4035  143.8096  156.8583 H   0  0  0  0  0  0  0  0  0  0  0  0
  1  2  1  0  0  0  0
  1 22  1  0  0  0  0
  1 23  1  0  0  0  0
  1 24  1  0  0  0  0
  2 20  1  0  0  0  0
  2  3  1  0  0  0  0
  3  4  1  0  0  0  0
  3 25  1  0  0  0  0
  3 26  1  0  0  0  0
  4  5  1  0  0  0  0
  4 18  1  0  0  0  0
  4 27  1  0  0  0  0
  5  6  1  0  0  0  0
  5 28  1  0  0  0  0
  6  7  2  0  0  0  0
  6  8  1  0  0  0  0
  8  9  1  0  0  0  0
  8 29  1  0  0  0  0
  9 17  2  0  0  0  0
  9 10  1  0  0  0  0
 10 11  2  0  0  0  0
 10 30  1  0  0  0  0
 11 12  1  0  0  0  0
 11 16  1  0  0  0  0
 12 13  1  0  0  0  0
 12 14  1  0  0  0  0
 12 15  1  0  0  0  0
 13 31  1  0  0  0  0
 13 32  1  0  0  0  0
 13 33  1  0  0  0  0
 14 34  1  0  0  0  0
 14 35  1  0  0  0  0
 14 36  1  0  0  0  0
 15 37  1  0  0  0  0
 15 38  1  0  0  0  0
 15 39  1  0  0  0  0
 16 17  1  0  0  0  0
 18 19  1  0  0  0  0
 18 40  1  0  0  0  0
 18 41  1  0  0  0  0
 19 20  1  0  0  0  0
 19 42  1  0  0  0  0
 19 43  1  0  0  0  0
 20 21  2  0  0  0  0
M  END
> <s_m_source_file>
AV-unprocessed.smi

> <i_m_source_file_index>
749

> <i_lp_mmshare_version>
43012

> <i_f3d_flags>
0

> <s_epik_input>
Tz1DMVtDSDJdW0NIMl1bQ0BASF0oW0NIMl1OMVtDSDNdKVtOSF1DKD1PKVtOSF1jMltjSF1jKG9uMilDKFtDSDNdKShbQ0gzXSlbQ0gzXQ==

> <s_epik_cmdline>
J2VwaWtfcHl0aG9uJywgJy1waCcsICc3LjAnLCAnLXRuJywgJzgnLCAnLW1hJywgJzIwMCcsICctbWV0YWxfYmluZGluZycsICctaW1hZScsICc8aW5maWxlLm1hZT4nLCAnLW9tYWUnLCAnPG91dGZpbGUubWFlPic=

> <r_lp_tautomer_probability>
1

> <r_epik_Ionization_Penalty>
2.91905e-05

> <r_epik_Ionization_Penalty_Charging>
0

> <r_epik_Ionization_Penalty_Neutral>
2.91905e-05

> <r_epik_State_Penalty>
-0

> <r_epik_Charging_Adjusted_Penalty>
0

> <i_epik_Tot_Q>
0

> <i_epik_Tot_abs_Q>
0

> <r_epik_Metal_State_Penalty>
0.0102923

> <b_epik_Metal_Only>
0

> <s_lp_Force_Field>
OPLS_2005

> <r_lp_Energy>
15.3283

> <b_lp_Chiralities_Consistent>
1

> <s_lp_Variant>
AV-unprocessed.smi:749-1

> <Gold.Version>
5.8.1

> <Gold.Id.Protein>
6NUR|6NUR_protein|mol2

> <Gold.PLP.Fitness>
40.8942

> <Gold.PLP.PLP>
-38.7290

> <Gold.PLP.part.hbond>
-1.7322

> <Gold.PLP.part.metal>
0.0000

> <Gold.PLP.part.buried>
-3.4087

> <Gold.PLP.part.nonpolar>
-33.3459

> <Gold.PLP.part.repulsive>
0.3473

> <Gold.PLP.ligand.clash>
0.0000

> <Gold.PLP.ligand.torsion>
0.4235

> <Gold.PLP.Chemscore.Hbond>
1.0000

> <Gold.PLP.Chemscore.CHOScore>
0.0000

> <Gold.PLP.Chemscore.Metal>
0.0000

> <Gold.Chemscore.Hbonds>
donor molecule, donor type, donor heavy atom, donor atom, acceptor molecule, acceptor atom, score
      P1  H  6896  6909       L1    17  1.00

> <Gold.PLP.Chemscore.Internal.Correction>
0.0121

> <Gold.Rescore>
     Score         DG    S(hbond)    S(metal)    S(lipo)     H(rot)  DE(clash)    DE(int)     intcor
     12.23     -15.35       0.90        0.00      85.70       1.23       0.30       2.82       ----

> <Gold.Chemscore.Fitness>
12.2339

> <Gold.Chemscore.DG>
-15.3535

> <Gold.Chemscore.ZeroCoef>
-5.4800

> <Gold.Chemscore.Hbond>
0.8981

> <Gold.Chemscore.Metal>
0.0000

> <Gold.Chemscore.Lipo>
85.7007

> <Gold.Chemscore.Internal_Hbond>
0.0000

> <Gold.Chemscore.DEClash>
0.3043

> <Gold.Chemscore.DEInternal>
2.8153

> <Gold.Chemscore.Rot>
1.2317

> <Gold.Chemscore.Internal.Correction>
   9.000000E+99

> <Gold.Chemscore.Hbonds>
donor molecule, donor type, donor heavy atom, donor atom, acceptor molecule, acceptor atom, score
      P1  H  6896  6909       L1    17  0.28

> <Gold.Chemscore.Hbond.Weighted>
-2.9995

> <Gold.Chemscore.Metal.Weighted>
-0.0000

> <Gold.Chemscore.Lipo.Weighted>
-10.0270

> <Gold.Chemscore.Internal_Hbond.Weighted>
0.0000

> <Gold.Chemscore.DEClash.Weighted>
0.3043

> <Gold.Chemscore.DEInternal.Weighted>
2.8153

> <Gold.Chemscore.Rot.Weighted>
3.1531

> <Gold.Chemscore.Internal.Correction.Weighted>
   9.000000E+99

> <Gold.Protein.RotatedTorsions>
[ 6907 6896 6895 6894 ] final  175.55 input  -60.11 | X-H torsion
[ 7974 7965 7964 7962 ] final  -13.59 input  175.53 | X-H torsion
[ 8008 7997 7996 7995 ] final -155.01 input   59.86 | X-H torsion
[ 10167 10162 10161 10158 ] final  -69.86 input  -65.29 | X-H torsion
[ 10718 10713 10712 10709 ] final   -6.92 input   66.30 | X-H torsion
[ 10763 10752 10751 10750 ] final  -94.61 input  -60.55 | X-H torsion
[ 11005 11000 10999 10996 ] final  170.31 input  -57.11 | X-H torsion

> <Gold.Protein.ActiveResidues>
 VAL166  LYS551  ARG553  GLY616  TRP617  ASP618  TYR619  PRO620  LYS621  CYS622 
 ASP623  PHE694  ASN695  SER759  ASP760  ASP761  ALA762  ILE779  LEU786  VAL792 
 PHE793  MET794  SER795  GLU796  ALA797  LYS798  CYS799  TRP800  GLU811  SER814 

> <Gold.Protein.RotatedAtoms>
  151.7344  133.3319  159.3348 H   0  0  0  0  0  0  0  0  0  0  0  0  # atno 6907 bound_to 6896
  150.7599  134.6334  159.6208 H   0  0  0  0  0  0  0  0  0  0  0  0  # atno 6908 bound_to 6896
  152.3571  134.6927  160.0270 H   0  0  0  0  0  0  0  0  0  0  0  0  # atno 6909 bound_to 6896
  146.2108  140.3225  142.8391 H   0  0  0  0  0  0  0  0  0  0  0  0  # atno 7974 bound_to 7965
  155.6953  140.0760  157.2432 H   0  0  0  0  0  0  0  0  0  0  0  0  # atno 8008 bound_to 7997
  154.4082  140.1657  156.2183 H   0  0  0  0  0  0  0  0  0  0  0  0  # atno 8009 bound_to 7997
  155.9416  140.3384  155.6335 H   0  0  0  0  0  0  0  0  0  0  0  0  # atno 8010 bound_to 7997
  140.5397  143.2315  151.7111 H   0  0  0  0  0  0  0  0  0  0  0  0  # atno 10167 bound_to 10162
  156.7248  130.5162  149.5859 H   0  0  0  0  0  0  0  0  0  0  0  0  # atno 10718 bound_to 10713
  154.7071  135.5151  153.8611 H   0  0  0  0  0  0  0  0  0  0  0  0  # atno 10763 bound_to 10752
  153.0750  135.6613  154.0174 H   0  0  0  0  0  0  0  0  0  0  0  0  # atno 10764 bound_to 10752
  154.0023  135.3009  155.3381 H   0  0  0  0  0  0  0  0  0  0  0  0  # atno 10765 bound_to 10752
  140.3070  134.7548  157.3961 H   0  0  0  0  0  0  0  0  0  0  0  0  # atno 11005 bound_to 11000
  144.8910  140.7523  143.5927 LP  0  0  0  0  0  0  0  0  0  0  0  0  # atno 17320 bound_to 7965
  145.3147  139.1807  143.4620 LP  0  0  0  0  0  0  0  0  0  0  0  0  # atno 17321 bound_to 7965
  139.4984  144.3987  152.0204 LP  0  0  0  0  0  0  0  0  0  0  0  0  # atno 17342 bound_to 10162
  140.3095  144.3554  150.6038 LP  0  0  0  0  0  0  0  0  0  0  0  0  # atno 17343 bound_to 10162
  156.1569  130.6348  151.0669 LP  0  0  0  0  0  0  0  0  0  0  0  0  # atno 17370 bound_to 10713
  157.6883  131.0818  150.7180 LP  0  0  0  0  0  0  0  0  0  0  0  0  # atno 17371 bound_to 10713
  140.1058  134.5411  155.8311 LP  0  0  0  0  0  0  0  0  0  0  0  0  # atno 17394 bound_to 11000
  141.2116  133.6709  156.6596 LP  0  0  0  0  0  0  0  0  0  0  0  0  # atno 17395 bound_to 11000

$$$$
