AV-unprocessed.smi:2239|AV-procd|sdf|9056|dock6
  -GOLD-   2272012263D 1   1.00000     0.00000
 Structure written by MMmdl.
 33 34  0  0  0  0  0  0  0  0  1 V2000
  152.7686  142.6860  161.8066 C   0  0  0  0  0  0  0  0  0  0  0  0
  152.2490  143.3577  160.5529 C   0  0  0  0  0  0  0  0  0  0  0  0
  153.1139  143.6729  159.4869 C   0  0  0  0  0  0  0  0  0  0  0  0
  152.5668  144.3002  158.3533 C   0  0  0  0  0  0  0  0  0  0  0  0
  151.1876  144.5846  158.3324 C   0  0  0  0  0  0  0  0  0  0  0  0
  150.3890  144.2349  159.4445 C   0  0  0  0  0  0  0  0  0  0  0  0
  149.0131  144.5672  159.3274 N   0  0  0  0  0  0  0  0  0  0  0  0
  148.0516  144.4637  160.2619 C   0  0  0  0  0  0  0  0  0  0  0  0
  148.2099  144.0281  161.4028 O   0  0  0  0  0  0  0  0  0  0  0  0
  146.8729  144.9024  159.7966 N   0  0  0  0  0  0  0  0  0  0  0  0
  145.6312  144.9399  160.5629 C   0  0  0  0  0  0  0  0  0  0  0  0
  144.6744  143.7908  160.1956 C   0  0  0  0  0  0  0  0  0  0  0  0
  143.9187  143.2309  161.3872 C   0  0  0  0  0  0  0  0  0  0  0  0
  142.8864  144.0546  162.1220 C   0  0  0  0  0  0  0  0  0  0  0  0
  144.2053  143.7297  162.7835 C   0  0  0  0  0  0  0  0  0  0  0  0
  150.9266  143.6305  160.5333 N   0  0  0  0  0  0  0  0  0  0  0  0
  153.8015  142.3600  161.6810 H   0  0  0  0  0  0  0  0  0  0  0  0
  152.1641  141.8116  162.0499 H   0  0  0  0  0  0  0  0  0  0  0  0
  152.7285  143.3773  162.6487 H   0  0  0  0  0  0  0  0  0  0  0  0
  154.1681  143.4424  159.5340 H   0  0  0  0  0  0  0  0  0  0  0  0
  153.1939  144.5599  157.5132 H   0  0  0  0  0  0  0  0  0  0  0  0
  150.7519  145.0661  157.4691 H   0  0  0  0  0  0  0  0  0  0  0  0
  148.7300  144.9332  158.4307 H   0  0  0  0  0  0  0  0  0  0  0  0
  146.8315  145.2421  158.8469 H   0  0  0  0  0  0  0  0  0  0  0  0
  145.8838  144.8860  161.6221 H   0  0  0  0  0  0  0  0  0  0  0  0
  145.1361  145.9009  160.4151 H   0  0  0  0  0  0  0  0  0  0  0  0
  143.9449  144.1493  159.4690 H   0  0  0  0  0  0  0  0  0  0  0  0
  145.2229  142.9857  159.7049 H   0  0  0  0  0  0  0  0  0  0  0  0
  143.7062  142.1667  161.3049 H   0  0  0  0  0  0  0  0  0  0  0  0
  142.7286  145.0809  161.7961 H   0  0  0  0  0  0  0  0  0  0  0  0
  141.9999  143.5391  162.4855 H   0  0  0  0  0  0  0  0  0  0  0  0
  144.1976  142.9987  163.5896 H   0  0  0  0  0  0  0  0  0  0  0  0
  144.9207  144.5417  162.8975 H   0  0  0  0  0  0  0  0  0  0  0  0
  1  2  1  0  0  0  0
  1 17  1  0  0  0  0
  1 18  1  0  0  0  0
  1 19  1  0  0  0  0
  2 16  1  0  0  0  0
  2  3  2  0  0  0  0
  3  4  1  0  0  0  0
  3 20  1  0  0  0  0
  4  5  2  0  0  0  0
  4 21  1  0  0  0  0
  5  6  1  0  0  0  0
  5 22  1  0  0  0  0
  6  7  1  0  0  0  0
  6 16  2  0  0  0  0
  7  8  1  0  0  0  0
  7 23  1  0  0  0  0
  8  9  2  0  0  0  0
  8 10  1  0  0  0  0
 10 11  1  0  0  0  0
 10 24  1  0  0  0  0
 11 12  1  0  0  0  0
 11 25  1  0  0  0  0
 11 26  1  0  0  0  0
 12 13  1  0  0  0  0
 12 27  1  0  0  0  0
 12 28  1  0  0  0  0
 13 15  1  0  0  0  0
 13 14  1  0  0  0  0
 13 29  1  0  0  0  0
 14 15  1  0  0  0  0
 14 30  1  0  0  0  0
 14 31  1  0  0  0  0
 15 32  1  0  0  0  0
 15 33  1  0  0  0  0
M  END
> <s_m_source_file>
AV-unprocessed.smi

> <i_m_source_file_index>
2239

> <i_lp_mmshare_version>
43012

> <i_f3d_flags>
0

> <s_epik_input>
W0NIM11jMVtjSF1bY0hdW2NIXWMobjEpW05IXUMoPU8pW05IXVtDSDJdW0NIMl1bQ0hdMltDSDJdW0NIMl0y

> <s_epik_cmdline>
J2VwaWtfcHl0aG9uJywgJy1waCcsICc3LjAnLCAnLXRuJywgJzgnLCAnLW1hJywgJzIwMCcsICctbWV0YWxfYmluZGluZycsICctaW1hZScsICc8aW5maWxlLm1hZT4nLCAnLW9tYWUnLCAnPG91dGZpbGUubWFlPic=

> <r_lp_tautomer_probability>
1

> <r_epik_Ionization_Penalty>
8.79162e-05

> <r_epik_Ionization_Penalty_Charging>
0

> <r_epik_Ionization_Penalty_Neutral>
8.79162e-05

> <r_epik_State_Penalty>
-0

> <r_epik_Charging_Adjusted_Penalty>
0

> <i_epik_Tot_Q>
0

> <i_epik_Tot_abs_Q>
0

> <r_epik_Metal_State_Penalty>
-0

> <b_epik_Metal_Only>
0

> <s_lp_Force_Field>
OPLS_2005

> <r_lp_Energy>
14.6393

> <b_lp_Chiralities_Consistent>
1

> <s_lp_Variant>
AV-unprocessed.smi:2239-1

> <Gold.Version>
5.8.1

> <Gold.Id.Protein>
6NUR|6NUR_protein|mol2

> <Gold.PLP.Fitness>
48.1436

> <Gold.PLP.PLP>
-40.3860

> <Gold.PLP.part.hbond>
-4.0000

> <Gold.PLP.part.metal>
0.0000

> <Gold.PLP.part.buried>
-6.2842

> <Gold.PLP.part.nonpolar>
-31.4945

> <Gold.PLP.part.repulsive>
0.5151

> <Gold.PLP.ligand.clash>
0.0000

> <Gold.PLP.ligand.torsion>
0.7676

> <Gold.PLP.Chemscore.Hbond>
2.9200

> <Gold.PLP.Chemscore.CHOScore>
0.0000

> <Gold.PLP.Chemscore.Metal>
0.0000

> <Gold.Chemscore.Hbonds>
donor molecule, donor type, donor heavy atom, donor atom, acceptor molecule, acceptor atom, score
      L1  H     7    23       P1  8029  1.00
      L1  H    10    24       P1  8029  0.94
      P1  H  6933  6944       L1     9  1.00

> <Gold.PLP.Chemscore.Internal.Correction>
0.5327

> <Gold.Rescore>
     Score         DG    S(hbond)    S(metal)    S(lipo)     H(rot)  DE(clash)    DE(int)     intcor
     20.82     -22.81       2.86        0.00      96.55       1.37       0.04       1.95       ----

> <Gold.Chemscore.Fitness>
20.8155

> <Gold.Chemscore.DG>
-22.8124

> <Gold.Chemscore.ZeroCoef>
-5.4800

> <Gold.Chemscore.Hbond>
2.8559

> <Gold.Chemscore.Metal>
0.0000

> <Gold.Chemscore.Lipo>
96.5495

> <Gold.Chemscore.Internal_Hbond>
0.0000

> <Gold.Chemscore.DEClash>
0.0438

> <Gold.Chemscore.DEInternal>
1.9531

> <Gold.Chemscore.Rot>
1.3682

> <Gold.Chemscore.Internal.Correction>
   9.000000E+99

> <Gold.Chemscore.Hbonds>
donor molecule, donor type, donor heavy atom, donor atom, acceptor molecule, acceptor atom, score
      L1  H     7    23       P1  8029  0.88
      L1  H    10    24       P1  8029  0.87
      P1  H  6933  6944       L1     9  0.83

> <Gold.Chemscore.Hbond.Weighted>
-9.5388

> <Gold.Chemscore.Metal.Weighted>
-0.0000

> <Gold.Chemscore.Lipo.Weighted>
-11.2963

> <Gold.Chemscore.Internal_Hbond.Weighted>
0.0000

> <Gold.Chemscore.DEClash.Weighted>
0.0438

> <Gold.Chemscore.DEInternal.Weighted>
1.9531

> <Gold.Chemscore.Rot.Weighted>
3.5027

> <Gold.Chemscore.Internal.Correction.Weighted>
   9.000000E+99

> <Gold.Protein.RotatedTorsions>
[ 6907 6896 6895 6894 ] final  -36.62 input  -60.11 | X-H torsion
[ 7974 7965 7964 7962 ] final  -57.37 input  175.53 | X-H torsion
[ 8008 7997 7996 7995 ] final  -31.73 input   59.86 | X-H torsion
[ 10167 10162 10161 10158 ] final  -59.68 input  -65.29 | X-H torsion
[ 10718 10713 10712 10709 ] final   70.31 input   66.30 | X-H torsion
[ 10763 10752 10751 10750 ] final  -15.28 input  -60.55 | X-H torsion
[ 11005 11000 10999 10996 ] final -173.60 input  -57.11 | X-H torsion

> <Gold.Protein.ActiveResidues>
 VAL166  LYS551  ARG553  GLY616  TRP617  ASP618  TYR619  PRO620  LYS621  CYS622 
 ASP623  PHE694  ASN695  SER759  ASP760  ASP761  ALA762  ILE779  LEU786  VAL792 
 PHE793  MET794  SER795  GLU796  ALA797  LYS798  CYS799  TRP800  GLU811  SER814 

> <Gold.Protein.RotatedAtoms>
  151.0249  134.9496  159.8079 H   0  0  0  0  0  0  0  0  0  0  0  0  # atno 6907 bound_to 6896
  152.5333  134.2855  159.9033 H   0  0  0  0  0  0  0  0  0  0  0  0  # atno 6908 bound_to 6896
  151.2863  133.4144  159.2664 H   0  0  0  0  0  0  0  0  0  0  0  0  # atno 6909 bound_to 6896
  145.8518  140.8347  142.9981 H   0  0  0  0  0  0  0  0  0  0  0  0  # atno 7974 bound_to 7965
  154.4204  140.1756  156.1614 H   0  0  0  0  0  0  0  0  0  0  0  0  # atno 8008 bound_to 7997
  155.9835  140.3375  155.6661 H   0  0  0  0  0  0  0  0  0  0  0  0  # atno 8009 bound_to 7997
  155.6468  140.0686  157.2591 H   0  0  0  0  0  0  0  0  0  0  0  0  # atno 8010 bound_to 7997
  140.6120  143.2390  151.5687 H   0  0  0  0  0  0  0  0  0  0  0  0  # atno 10167 bound_to 10162
  157.6393  130.9470  150.0633 H   0  0  0  0  0  0  0  0  0  0  0  0  # atno 10718 bound_to 10713
  153.5410  135.7013  153.5637 H   0  0  0  0  0  0  0  0  0  0  0  0  # atno 10763 bound_to 10752
  153.3602  135.3972  155.1713 H   0  0  0  0  0  0  0  0  0  0  0  0  # atno 10764 bound_to 10752
  154.8673  135.3787  154.4914 H   0  0  0  0  0  0  0  0  0  0  0  0  # atno 10765 bound_to 10752
  140.4839  134.6049  157.4930 H   0  0  0  0  0  0  0  0  0  0  0  0  # atno 11005 bound_to 11000
  144.6729  140.0965  143.7462 LP  0  0  0  0  0  0  0  0  0  0  0  0  # atno 17320 bound_to 7965
  145.9348  139.2630  143.1303 LP  0  0  0  0  0  0  0  0  0  0  0  0  # atno 17321 bound_to 7965
  139.5368  144.2757  152.1269 LP  0  0  0  0  0  0  0  0  0  0  0  0  # atno 17342 bound_to 10162
  140.1958  144.4706  150.6456 LP  0  0  0  0  0  0  0  0  0  0  0  0  # atno 17343 bound_to 10162
  156.1659  130.3645  149.9233 LP  0  0  0  0  0  0  0  0  0  0  0  0  # atno 17370 bound_to 10713
  156.7220  130.9010  151.3619 LP  0  0  0  0  0  0  0  0  0  0  0  0  # atno 17371 bound_to 10713
  139.9810  134.7138  155.9860 LP  0  0  0  0  0  0  0  0  0  0  0  0  # atno 17394 bound_to 11000
  141.1517  133.6547  156.4035 LP  0  0  0  0  0  0  0  0  0  0  0  0  # atno 17395 bound_to 11000

$$$$
