AV-unprocessed.smi:1008|AV-procd|sdf|4410|dock1
  -GOLD-   22720 2353D 1   1.00000     0.00000
 Structure written by MMmdl.
 23 23  0  0  0  0  0  0  0  0  1 V2000
  150.2793  141.6398  155.9778 C   0  0  0  0  0  0  0  0  0  0  0  0
  150.2362  140.3358  155.2007 C   0  0  0  0  0  0  0  0  0  0  0  0
  149.0883  140.1307  154.4232 N   0  0  0  0  0  0  0  0  0  0  0  0
  148.9696  139.0449  153.7307 C   0  0  0  0  0  0  0  0  0  0  0  0
  147.8989  138.7135  152.9262 N   0  0  0  0  0  0  0  0  0  0  0  0
  149.9672  138.0699  153.7410 N   0  0  0  0  0  0  0  0  0  0  0  0
  151.1113  138.1780  154.4533 C   0  0  0  0  0  0  0  0  0  0  0  0
  151.9568  137.2853  154.4140 O   0  0  0  0  0  0  0  0  0  0  0  0
  151.2417  139.4159  155.2412 C   0  0  0  0  0  0  0  0  0  0  0  0
  152.5008  139.5910  156.0857 C   0  0  0  0  0  0  0  0  0  0  0  0
  152.1769  139.7902  157.5733 C   0  0  0  0  0  0  0  0  0  0  0  0
  153.3718  139.8183  158.3228 O   0  0  0  0  0  0  0  0  0  0  0  0
  149.8374  137.2360  153.1873 H   0  0  0  0  0  0  0  0  0  0  0  0
  151.2056  142.1785  155.7770 H   0  0  0  0  0  0  0  0  0  0  0  0
  150.2148  141.4456  157.0486 H   0  0  0  0  0  0  0  0  0  0  0  0
  149.4490  142.2919  155.7042 H   0  0  0  0  0  0  0  0  0  0  0  0
  147.0919  139.3086  152.8057 H   0  0  0  0  0  0  0  0  0  0  0  0
  147.8380  137.8551  152.3980 H   0  0  0  0  0  0  0  0  0  0  0  0
  153.1554  138.7280  155.9667 H   0  0  0  0  0  0  0  0  0  0  0  0
  153.0765  140.4387  155.7107 H   0  0  0  0  0  0  0  0  0  0  0  0
  151.6374  140.7245  157.7312 H   0  0  0  0  0  0  0  0  0  0  0  0
  151.5459  138.9813  157.9427 H   0  0  0  0  0  0  0  0  0  0  0  0
  153.2508  139.2963  159.1012 H   0  0  0  0  0  0  0  0  0  0  0  0
  1  2  1  0  0  0  0
  1 14  1  0  0  0  0
  1 15  1  0  0  0  0
  1 16  1  0  0  0  0
  2  9  2  0  0  0  0
  2  3  1  0  0  0  0
  3  4  2  0  0  0  0
  4  5  1  0  0  0  0
  4  6  1  0  0  0  0
  5 17  1  0  0  0  0
  5 18  1  0  0  0  0
  6 13  1  0  0  0  0
  6  7  1  0  0  0  0
  7  8  2  0  0  0  0
  7  9  1  0  0  0  0
  9 10  1  0  0  0  0
 10 11  1  0  0  0  0
 10 19  1  0  0  0  0
 10 20  1  0  0  0  0
 11 12  1  0  0  0  0
 11 21  1  0  0  0  0
 11 22  1  0  0  0  0
 12 23  1  0  0  0  0
M  END
> <s_m_source_file>
AV-unprocessed.smi

> <i_m_source_file_index>
1008

> <i_lp_mmshare_version>
43012

> <i_f3d_flags>
0

> <s_epik_input>
W0NIM11jMW5jKFtOSDJdKVtuSF1jKD1PKWMxW0NIMl1bQ0gyXVtPSF0=

> <s_epik_cmdline>
J2VwaWtfcHl0aG9uJywgJy1waCcsICc3LjAnLCAnLXRuJywgJzgnLCAnLW1hJywgJzIwMCcsICctbWV0YWxfYmluZGluZycsICctaW1hZScsICc8aW5maWxlLm1hZT4nLCAnLW9tYWUnLCAnPG91dGZpbGUubWFlPic=

> <r_lp_tautomer_probability>
0.878315

> <r_epik_Ionization_Penalty>
0.000554322

> <r_epik_Ionization_Penalty_Charging>
3.57358e-05

> <r_epik_Ionization_Penalty_Neutral>
0.000518586

> <r_epik_State_Penalty>
0.0663044

> <r_epik_Charging_Adjusted_Penalty>
0.0663402

> <i_epik_Tot_Q>
0

> <i_epik_Tot_abs_Q>
0

> <r_epik_Metal_State_Penalty>
0.196169

> <b_epik_Metal_Only>
0

> <s_lp_Force_Field>
OPLS_2005

> <r_lp_Energy>
7.47934

> <b_lp_Chiralities_Consistent>
1

> <s_lp_Variant>
AV-unprocessed.smi:1008-1

> <Gold.Version>
5.8.1

> <Gold.Id.Protein>
6NUR|6NUR_protein|mol2

> <Gold.PLP.Fitness>
32.5269

> <Gold.PLP.PLP>
-21.1783

> <Gold.PLP.part.hbond>
-5.4167

> <Gold.PLP.part.metal>
0.0000

> <Gold.PLP.part.buried>
1.7554

> <Gold.PLP.part.nonpolar>
-17.2793

> <Gold.PLP.part.repulsive>
0.3733

> <Gold.PLP.ligand.clash>
0.0000

> <Gold.PLP.ligand.torsion>
0.0141

> <Gold.PLP.Chemscore.Hbond>
3.7920

> <Gold.PLP.Chemscore.CHOScore>
0.0000

> <Gold.PLP.Chemscore.Metal>
0.0000

> <Gold.Chemscore.Hbonds>
donor molecule, donor type, donor heavy atom, donor atom, acceptor molecule, acceptor atom, score
      L1  H     5    18       P1  7948  0.83
      L1  H     6    13       P1  7948  1.00
      P1  H  7997  8008       L1    12  1.00
      P1  H 10752 10765       L1     8  0.96

> <Gold.PLP.Chemscore.Internal.Correction>
0.0008

> <Gold.Rescore>
     Score         DG    S(hbond)    S(metal)    S(lipo)     H(rot)  DE(clash)    DE(int)     intcor
     13.27     -13.76       2.96        0.00      31.40       2.06       0.47       0.03       ----

> <Gold.Chemscore.Fitness>
13.2654

> <Gold.Chemscore.DG>
-13.7627

> <Gold.Chemscore.ZeroCoef>
-5.4800

> <Gold.Chemscore.Hbond>
2.9584

> <Gold.Chemscore.Metal>
0.0000

> <Gold.Chemscore.Lipo>
31.4020

> <Gold.Chemscore.Internal_Hbond>
0.0000

> <Gold.Chemscore.DEClash>
0.4720

> <Gold.Chemscore.DEInternal>
0.0253

> <Gold.Chemscore.Rot>
2.0595

> <Gold.Chemscore.Internal.Correction>
   9.000000E+99

> <Gold.Chemscore.Hbonds>
donor molecule, donor type, donor heavy atom, donor atom, acceptor molecule, acceptor atom, score
      L1  H     5    18       P1  7948  0.77
      L1  H     6    13       P1  7948  0.38
      P1  H  7997  8008       L1    12  0.71
      P1  H 10752 10765       L1     8  0.92

> <Gold.Chemscore.Hbond.Weighted>
-9.8810

> <Gold.Chemscore.Metal.Weighted>
-0.0000

> <Gold.Chemscore.Lipo.Weighted>
-3.6740

> <Gold.Chemscore.Internal_Hbond.Weighted>
0.0000

> <Gold.Chemscore.DEClash.Weighted>
0.4720

> <Gold.Chemscore.DEInternal.Weighted>
0.0253

> <Gold.Chemscore.Rot.Weighted>
5.2724

> <Gold.Chemscore.Internal.Correction.Weighted>
   9.000000E+99

> <Gold.Protein.RotatedTorsions>
[ 6907 6896 6895 6894 ] final  127.72 input  -60.11 | X-H torsion
[ 7974 7965 7964 7962 ] final   28.79 input  175.53 | X-H torsion
[ 8008 7997 7996 7995 ] final -102.98 input   59.86 | X-H torsion
[ 10167 10162 10161 10158 ] final  -25.08 input  -65.29 | X-H torsion
[ 10718 10713 10712 10709 ] final -127.10 input   66.30 | X-H torsion
[ 10763 10752 10751 10750 ] final  156.76 input  -60.55 | X-H torsion
[ 11005 11000 10999 10996 ] final  -61.59 input  -57.11 | X-H torsion

> <Gold.Protein.ActiveResidues>
 VAL166  LYS551  ARG553  GLY616  TRP617  ASP618  TYR619  PRO620  LYS621  CYS622 
 ASP623  PHE694  ASN695  SER759  ASP760  ASP761  ALA762  ILE779  LEU786  VAL792 
 PHE793  MET794  SER795  GLU796  ALA797  LYS798  CYS799  TRP800  GLU811  SER814 

> <Gold.Protein.RotatedAtoms>
  152.3787  133.6516  159.6143 H   0  0  0  0  0  0  0  0  0  0  0  0  # atno 6907 bound_to 6896
  150.7724  133.9151  159.3390 H   0  0  0  0  0  0  0  0  0  0  0  0  # atno 6908 bound_to 6896
  151.6960  135.0939  160.0293 H   0  0  0  0  0  0  0  0  0  0  0  0  # atno 6909 bound_to 6896
  146.1709  139.7009  142.8968 H   0  0  0  0  0  0  0  0  0  0  0  0  # atno 7974 bound_to 7965
  154.8644  140.0425  157.1685 H   0  0  0  0  0  0  0  0  0  0  0  0  # atno 8008 bound_to 7997
  154.8805  140.2972  155.5407 H   0  0  0  0  0  0  0  0  0  0  0  0  # atno 8009 bound_to 7997
  156.2999  140.2412  156.3807 H   0  0  0  0  0  0  0  0  0  0  0  0  # atno 8010 bound_to 7997
  140.7287  143.4296  151.0823 H   0  0  0  0  0  0  0  0  0  0  0  0  # atno 10167 bound_to 10162
  156.1826  130.6742  151.0324 H   0  0  0  0  0  0  0  0  0  0  0  0  # atno 10718 bound_to 10713
  154.1895  135.2795  155.3026 H   0  0  0  0  0  0  0  0  0  0  0  0  # atno 10763 bound_to 10752
  154.5940  135.5551  153.7310 H   0  0  0  0  0  0  0  0  0  0  0  0  # atno 10764 bound_to 10752
  153.0116  135.6375  154.2033 H   0  0  0  0  0  0  0  0  0  0  0  0  # atno 10765 bound_to 10752
  141.1330  133.6631  156.5398 H   0  0  0  0  0  0  0  0  0  0  0  0  # atno 11005 bound_to 11000
  145.4343  141.0417  143.2893 LP  0  0  0  0  0  0  0  0  0  0  0  0  # atno 17320 bound_to 7965
  144.8161  139.5874  143.7007 LP  0  0  0  0  0  0  0  0  0  0  0  0  # atno 17321 bound_to 7965
  139.7951  143.8163  152.3156 LP  0  0  0  0  0  0  0  0  0  0  0  0  # atno 17342 bound_to 10162
  139.8160  144.7316  150.9635 LP  0  0  0  0  0  0  0  0  0  0  0  0  # atno 17343 bound_to 10162
  157.6878  131.0819  150.7194 LP  0  0  0  0  0  0  0  0  0  0  0  0  # atno 17370 bound_to 10713
  156.7251  130.4692  149.5513 LP  0  0  0  0  0  0  0  0  0  0  0  0  # atno 17371 bound_to 10713
  140.4149  134.7239  157.4857 LP  0  0  0  0  0  0  0  0  0  0  0  0  # atno 17394 bound_to 11000
  140.0401  134.6280  155.8992 LP  0  0  0  0  0  0  0  0  0  0  0  0  # atno 17395 bound_to 11000

$$$$
