AV-unprocessed.smi:1035|AV-procd|sdf|4515|dock7
  -GOLD-   22720 2523D 1   1.00000     0.00000
 Structure written by MMmdl.
 42 43  0  0  0  0  0  0  0  0  1 V2000
  149.8708  134.1453  155.8625 C   0  0  0  0  0  0  0  0  0  0  0  0
  150.3260  135.5932  155.8095 C   0  0  0  0  0  0  0  0  0  0  0  0
  150.6646  136.1834  154.6426 C   0  0  0  0  0  0  0  0  0  0  0  0
  151.1008  137.5579  154.6014 C   0  0  0  0  0  0  0  0  0  0  0  0
  151.1607  138.2382  155.7548 C   0  0  0  0  0  0  0  0  0  0  0  0
  150.8109  137.6481  156.9836 N   0  0  0  0  0  0  0  0  0  0  0  0
  150.9217  138.4937  158.1849 C   0  0  0  0  0  0  0  0  0  0  0  0
  152.3146  139.1125  158.3736 C   0  0  0  0  0  0  0  0  0  0  0  0
  153.2524  138.8076  157.6351 O   0  0  0  0  0  0  0  0  0  0  0  0
  152.4291  139.9997  159.3714 N   0  0  0  0  0  0  0  0  0  0  0  0
  153.6617  140.6961  159.7189 C   0  0  0  0  0  0  0  0  0  0  0  0
  153.4071  141.8125  160.7463 C   0  0  0  0  0  0  0  0  0  0  0  0
  152.7999  143.0712  160.1439 C   0  0  0  0  0  0  0  0  0  0  0  0
  152.7995  143.2988  158.8158 C   0  0  0  0  0  0  0  0  0  0  0  0
  152.1905  144.5262  158.1607 C   0  0  0  0  0  0  0  0  0  0  0  0
  151.2781  145.3101  159.1192 C   0  0  0  0  0  0  0  0  0  0  0  0
  151.9150  145.4388  160.5084 C   0  0  0  0  0  0  0  0  0  0  0  0
  152.1856  144.0574  161.1308 C   0  0  0  0  0  0  0  0  0  0  0  0
  150.3925  136.3473  157.0754 C   0  0  0  0  0  0  0  0  0  0  0  0
  150.0911  135.8439  158.1595 O   0  0  0  0  0  0  0  0  0  0  0  0
  149.8540  133.6962  154.8689 H   0  0  0  0  0  0  0  0  0  0  0  0
  148.8659  134.0760  156.2801 H   0  0  0  0  0  0  0  0  0  0  0  0
  150.5447  133.5569  156.4861 H   0  0  0  0  0  0  0  0  0  0  0  0
  150.6136  135.6228  153.7203 H   0  0  0  0  0  0  0  0  0  0  0  0
  151.3760  138.0247  153.6671 H   0  0  0  0  0  0  0  0  0  0  0  0
  151.4838  139.2677  155.8120 H   0  0  0  0  0  0  0  0  0  0  0  0
  150.1920  139.3040  158.1496 H   0  0  0  0  0  0  0  0  0  0  0  0
  150.6626  137.9178  159.0755 H   0  0  0  0  0  0  0  0  0  0  0  0
  151.6144  140.1984  159.9340 H   0  0  0  0  0  0  0  0  0  0  0  0
  154.3823  139.9778  160.1129 H   0  0  0  0  0  0  0  0  0  0  0  0
  154.1040  141.1229  158.8174 H   0  0  0  0  0  0  0  0  0  0  0  0
  152.7428  141.4466  161.5296 H   0  0  0  0  0  0  0  0  0  0  0  0
  154.3465  142.0645  161.2405 H   0  0  0  0  0  0  0  0  0  0  0  0
  153.2596  142.5853  158.1479 H   0  0  0  0  0  0  0  0  0  0  0  0
  153.0056  145.1614  157.8125 H   0  0  0  0  0  0  0  0  0  0  0  0
  151.6267  144.2214  157.2787 H   0  0  0  0  0  0  0  0  0  0  0  0
  151.0629  146.2962  158.7063 H   0  0  0  0  0  0  0  0  0  0  0  0
  150.3196  144.7976  159.2117 H   0  0  0  0  0  0  0  0  0  0  0  0
  152.8529  145.9892  160.4221 H   0  0  0  0  0  0  0  0  0  0  0  0
  151.2735  146.0245  161.1675 H   0  0  0  0  0  0  0  0  0  0  0  0
  151.2520  143.6312  161.4998 H   0  0  0  0  0  0  0  0  0  0  0  0
  152.8439  144.1701  161.9929 H   0  0  0  0  0  0  0  0  0  0  0  0
  1  2  1  0  0  0  0
  1 21  1  0  0  0  0
  1 22  1  0  0  0  0
  1 23  1  0  0  0  0
  2 19  1  0  0  0  0
  2  3  2  0  0  0  0
  3  4  1  0  0  0  0
  3 24  1  0  0  0  0
  4  5  2  0  0  0  0
  4 25  1  0  0  0  0
  5  6  1  0  0  0  0
  5 26  1  0  0  0  0
  6  7  1  0  0  0  0
  6 19  1  0  0  0  0
  7  8  1  0  0  0  0
  7 27  1  0  0  0  0
  7 28  1  0  0  0  0
  8  9  2  0  0  0  0
  8 10  1  0  0  0  0
 10 11  1  0  0  0  0
 10 29  1  0  0  0  0
 11 12  1  0  0  0  0
 11 30  1  0  0  0  0
 11 31  1  0  0  0  0
 12 13  1  0  0  0  0
 12 32  1  0  0  0  0
 12 33  1  0  0  0  0
 13 18  1  0  0  0  0
 13 14  2  0  0  0  0
 14 15  1  0  0  0  0
 14 34  1  0  0  0  0
 15 16  1  0  0  0  0
 15 35  1  0  0  0  0
 15 36  1  0  0  0  0
 16 17  1  0  0  0  0
 16 37  1  0  0  0  0
 16 38  1  0  0  0  0
 17 18  1  0  0  0  0
 17 39  1  0  0  0  0
 17 40  1  0  0  0  0
 18 41  1  0  0  0  0
 18 42  1  0  0  0  0
 19 20  2  0  0  0  0
M  END
> <s_m_source_file>
AV-unprocessed.smi

> <i_m_source_file_index>
1035

> <i_lp_mmshare_version>
43012

> <i_f3d_flags>
0

> <s_epik_input>
W0NIM11jMVtjSF1bY0hdW2NIXW4oYzE9TylbQ0gyXUMoPU8pW05IXVtDSDJdW0NIMl1DMj1bQ0hdW0NIMl1bQ0gyXVtDSDJdW0NIMl0y

> <s_epik_cmdline>
J2VwaWtfcHl0aG9uJywgJy1waCcsICc3LjAnLCAnLXRuJywgJzgnLCAnLW1hJywgJzIwMCcsICctbWV0YWxfYmluZGluZycsICctaW1hZScsICc8aW5maWxlLm1hZT4nLCAnLW9tYWUnLCAnPG91dGZpbGUubWFlPic=

> <r_lp_tautomer_probability>
1

> <r_epik_Ionization_Penalty>
7.80073e-07

> <r_epik_Ionization_Penalty_Charging>
7.6197e-07

> <r_epik_Ionization_Penalty_Neutral>
1.81035e-08

> <r_epik_State_Penalty>
-0

> <r_epik_Charging_Adjusted_Penalty>
7.6197e-07

> <i_epik_Tot_Q>
0

> <i_epik_Tot_abs_Q>
0

> <r_epik_Metal_State_Penalty>
-0

> <b_epik_Metal_Only>
0

> <s_lp_Force_Field>
OPLS_2005

> <r_lp_Energy>
17.5966

> <b_lp_Chiralities_Consistent>
1

> <s_lp_Variant>
AV-unprocessed.smi:1035-1

> <Gold.Version>
5.8.1

> <Gold.Id.Protein>
6NUR|6NUR_protein|mol2

> <Gold.PLP.Fitness>
50.4675

> <Gold.PLP.PLP>
-45.5030

> <Gold.PLP.part.hbond>
-2.0000

> <Gold.PLP.part.metal>
0.0000

> <Gold.PLP.part.buried>
-4.8121

> <Gold.PLP.part.nonpolar>
-38.2416

> <Gold.PLP.part.repulsive>
0.1313

> <Gold.PLP.ligand.clash>
0.0000

> <Gold.PLP.ligand.torsion>
0.3808

> <Gold.PLP.Chemscore.Hbond>
1.8960

> <Gold.PLP.Chemscore.CHOScore>
0.0000

> <Gold.PLP.Chemscore.Metal>
0.0000

> <Gold.Chemscore.Hbonds>
donor molecule, donor type, donor heavy atom, donor atom, acceptor molecule, acceptor atom, score
      P1  H  6896  6909       L1    20  0.90
      P1  H  7997  8008       L1     9  1.00

> <Gold.PLP.Chemscore.Internal.Correction>
0.0381

> <Gold.Rescore>
     Score         DG    S(hbond)    S(metal)    S(lipo)     H(rot)  DE(clash)    DE(int)     intcor
     20.55     -22.35       1.93        0.00     124.90       1.63       0.05       1.75       ----

> <Gold.Chemscore.Fitness>
20.5517

> <Gold.Chemscore.DG>
-22.3474

> <Gold.Chemscore.ZeroCoef>
-5.4800

> <Gold.Chemscore.Hbond>
1.9253

> <Gold.Chemscore.Metal>
0.0000

> <Gold.Chemscore.Lipo>
124.8951

> <Gold.Chemscore.Internal_Hbond>
0.0000

> <Gold.Chemscore.DEClash>
0.0451

> <Gold.Chemscore.DEInternal>
1.7507

> <Gold.Chemscore.Rot>
1.6311

> <Gold.Chemscore.Internal.Correction>
   9.000000E+99

> <Gold.Chemscore.Hbonds>
donor molecule, donor type, donor heavy atom, donor atom, acceptor molecule, acceptor atom, score
      P1  H  6896  6909       L1    20  0.86
      P1  H  7997  8008       L1     9  0.99

> <Gold.Chemscore.Hbond.Weighted>
-6.4305

> <Gold.Chemscore.Metal.Weighted>
-0.0000

> <Gold.Chemscore.Lipo.Weighted>
-14.6127

> <Gold.Chemscore.Internal_Hbond.Weighted>
0.0000

> <Gold.Chemscore.DEClash.Weighted>
0.0451

> <Gold.Chemscore.DEInternal.Weighted>
1.7507

> <Gold.Chemscore.Rot.Weighted>
4.1757

> <Gold.Chemscore.Internal.Correction.Weighted>
   9.000000E+99

> <Gold.Protein.RotatedTorsions>
[ 6907 6896 6895 6894 ] final   52.07 input  -60.11 | X-H torsion
[ 7974 7965 7964 7962 ] final -109.20 input  175.53 | X-H torsion
[ 8008 7997 7996 7995 ] final  -84.76 input   59.86 | X-H torsion
[ 10167 10162 10161 10158 ] final  -45.01 input  -65.29 | X-H torsion
[ 10718 10713 10712 10709 ] final -173.54 input   66.30 | X-H torsion
[ 10763 10752 10751 10750 ] final  -10.08 input  -60.55 | X-H torsion
[ 11005 11000 10999 10996 ] final  -50.78 input  -57.11 | X-H torsion

> <Gold.Protein.ActiveResidues>
 VAL166  LYS551  ARG553  GLY616  TRP617  ASP618  TYR619  PRO620  LYS621  CYS622 
 ASP623  PHE694  ASN695  SER759  ASP760  ASP761  ALA762  ILE779  LEU786  VAL792 
 PHE793  MET794  SER795  GLU796  ALA797  LYS798  CYS799  TRP800  GLU811  SER814 

> <Gold.Protein.RotatedAtoms>
  152.3194  134.7399  160.0317 H   0  0  0  0  0  0  0  0  0  0  0  0  # atno 6907 bound_to 6896
  151.7853  133.3348  159.3491 H   0  0  0  0  0  0  0  0  0  0  0  0  # atno 6908 bound_to 6896
  150.7361  134.5824  159.5990 H   0  0  0  0  0  0  0  0  0  0  0  0  # atno 6909 bound_to 6896
  145.1834  140.8981  143.3466 H   0  0  0  0  0  0  0  0  0  0  0  0  # atno 7974 bound_to 7965
  154.6333  140.0600  156.9758 H   0  0  0  0  0  0  0  0  0  0  0  0  # atno 8008 bound_to 7997
  155.1631  140.3284  155.4389 H   0  0  0  0  0  0  0  0  0  0  0  0  # atno 8009 bound_to 7997
  156.2494  140.1927  156.6737 H   0  0  0  0  0  0  0  0  0  0  0  0  # atno 8010 bound_to 7997
  140.6875  143.2901  151.3578 H   0  0  0  0  0  0  0  0  0  0  0  0  # atno 10167 bound_to 10162
  156.7718  130.9451  151.3120 H   0  0  0  0  0  0  0  0  0  0  0  0  # atno 10718 bound_to 10713
  153.4640  135.7016  153.6033 H   0  0  0  0  0  0  0  0  0  0  0  0  # atno 10763 bound_to 10752
  153.4315  135.3801  155.2173 H   0  0  0  0  0  0  0  0  0  0  0  0  # atno 10764 bound_to 10752
  154.8727  135.3952  154.4070 H   0  0  0  0  0  0  0  0  0  0  0  0  # atno 10765 bound_to 10752
  141.0835  133.6648  156.3781 H   0  0  0  0  0  0  0  0  0  0  0  0  # atno 11005 bound_to 11000
  145.0113  139.3507  143.6118 LP  0  0  0  0  0  0  0  0  0  0  0  0  # atno 17320 bound_to 7965
  146.3449  139.9377  142.8745 LP  0  0  0  0  0  0  0  0  0  0  0  0  # atno 17321 bound_to 7965
  139.6246  144.0840  152.2422 LP  0  0  0  0  0  0  0  0  0  0  0  0  # atno 17342 bound_to 10162
  140.0295  144.6092  150.7500 LP  0  0  0  0  0  0  0  0  0  0  0  0  # atno 17343 bound_to 10162
  157.6687  130.9031  149.9991 LP  0  0  0  0  0  0  0  0  0  0  0  0  # atno 17370 bound_to 10713
  156.1273  130.3644  149.9788 LP  0  0  0  0  0  0  0  0  0  0  0  0  # atno 17371 bound_to 10713
  140.5416  134.6115  157.5381 LP  0  0  0  0  0  0  0  0  0  0  0  0  # atno 17394 bound_to 11000
  139.9651  134.7387  156.0156 LP  0  0  0  0  0  0  0  0  0  0  0  0  # atno 17395 bound_to 11000

$$$$
