AV-unprocessed.smi:3335|AV-procd|sdf|12848|dock1
  -GOLD-   2272019233D 1   1.00000     0.00000
 Structure written by MMmdl.
 46 47  0  0  0  0  0  0  0  0  1 V2000
  146.1834  138.1029  151.8916 C   0  0  0  0  0  0  0  0  0  0  0  0
  146.9347  138.9556  152.8729 C   0  0  0  0  0  0  0  0  0  0  0  0
  148.1034  138.6145  153.6105 C   0  0  0  0  0  0  0  0  0  0  0  0
  148.5208  139.5945  154.3947 N   0  0  0  0  0  0  0  0  0  0  0  0
  147.6353  140.5953  154.1893 N   0  0  0  0  0  0  0  0  0  0  0  0
  147.7823  141.8646  154.8912 C   0  0  1  0  0  0  0  0  0  0  0  0
  146.6540  142.8295  154.4779 C   0  0  0  0  0  0  0  0  0  0  0  0
  147.8774  141.6687  156.4292 C   0  0  1  0  0  0  0  0  0  0  0  0
  146.5873  141.1066  157.0561 C   0  0  0  0  0  0  0  0  0  0  0  0
  148.9490  140.7179  156.7286 N   0  0  0  0  0  0  0  0  0  0  0  0
  150.3130  141.2554  156.5673 C   0  0  2  0  0  0  0  0  0  0  0  0
  151.1106  140.3594  155.6081 C   0  0  0  0  0  0  0  0  0  0  0  0
  151.0695  141.3924  157.9081 C   0  0  0  0  0  0  0  0  0  0  0  0
  151.2090  140.3908  158.6122 O   0  0  0  0  0  0  0  0  0  0  0  0
  151.5560  142.5965  158.2807 N   0  0  0  0  0  0  0  0  0  0  0  0
  152.2534  142.9051  159.5289 C   0  0  0  0  0  0  0  0  0  0  0  0
  152.3667  144.4288  159.5783 C   0  0  0  0  0  0  0  0  0  0  0  0
  152.3161  144.8533  158.1180 C   0  0  0  0  0  0  0  0  0  0  0  0
  151.4316  143.7971  157.4553 C   0  0  0  0  0  0  0  0  0  0  0  0
  146.6686  140.2342  153.2739 C   0  0  0  0  0  0  0  0  0  0  0  0
  145.5112  137.4090  152.3963 H   0  0  0  0  0  0  0  0  0  0  0  0
  146.8576  137.5078  151.2754 H   0  0  0  0  0  0  0  0  0  0  0  0
  145.5765  138.7037  151.2139 H   0  0  0  0  0  0  0  0  0  0  0  0
  148.6583  137.6879  153.5985 H   0  0  0  0  0  0  0  0  0  0  0  0
  148.7233  142.2973  154.5473 H   0  0  0  0  0  0  0  0  0  0  0  0
  146.8315  143.8354  154.8575 H   0  0  0  0  0  0  0  0  0  0  0  0
  145.6858  142.4985  154.8542 H   0  0  0  0  0  0  0  0  0  0  0  0
  146.5817  142.9046  153.3923 H   0  0  0  0  0  0  0  0  0  0  0  0
  148.0701  142.6395  156.8881 H   0  0  0  0  0  0  0  0  0  0  0  0
  145.7542  141.8019  156.9534 H   0  0  0  0  0  0  0  0  0  0  0  0
  146.7132  140.9215  158.1233 H   0  0  0  0  0  0  0  0  0  0  0  0
  146.2945  140.1663  156.5879 H   0  0  0  0  0  0  0  0  0  0  0  0
  148.8141  140.3289  157.6510 H   0  0  0  0  0  0  0  0  0  0  0  0
  150.2122  142.2289  156.0915 H   0  0  0  0  0  0  0  0  0  0  0  0
  152.1100  140.7593  155.4318 H   0  0  0  0  0  0  0  0  0  0  0  0
  150.6146  140.2851  154.6400 H   0  0  0  0  0  0  0  0  0  0  0  0
  151.2215  139.3482  156.0018 H   0  0  0  0  0  0  0  0  0  0  0  0
  151.7223  142.5265  160.4033 H   0  0  0  0  0  0  0  0  0  0  0  0
  153.2452  142.4508  159.5047 H   0  0  0  0  0  0  0  0  0  0  0  0
  151.5070  144.8421  160.1074 H   0  0  0  0  0  0  0  0  0  0  0  0
  153.2681  144.7701  160.0879 H   0  0  0  0  0  0  0  0  0  0  0  0
  151.9382  145.8671  157.9835 H   0  0  0  0  0  0  0  0  0  0  0  0
  153.3189  144.8107  157.6910 H   0  0  0  0  0  0  0  0  0  0  0  0
  151.7356  143.6189  156.4225 H   0  0  0  0  0  0  0  0  0  0  0  0
  150.3890  144.1186  157.4514 H   0  0  0  0  0  0  0  0  0  0  0  0
  145.8792  140.9121  152.9836 H   0  0  0  0  0  0  0  0  0  0  0  0
  1  2  1  0  0  0  0
  1 21  1  0  0  0  0
  1 22  1  0  0  0  0
  1 23  1  0  0  0  0
  2 20  2  0  0  0  0
  2  3  1  0  0  0  0
  3  4  2  0  0  0  0
  3 24  1  0  0  0  0
  4  5  1  0  0  0  0
  5  6  1  0  0  0  0
  5 20  1  0  0  0  0
  6  7  1  0  0  0  0
  6  8  1  0  0  0  0
  6 25  1  0  0  0  0
  7 26  1  0  0  0  0
  7 27  1  0  0  0  0
  7 28  1  0  0  0  0
  8  9  1  0  0  0  0
  8 10  1  0  0  0  0
  8 29  1  0  0  0  0
  9 30  1  0  0  0  0
  9 31  1  0  0  0  0
  9 32  1  0  0  0  0
 10 11  1  0  0  0  0
 10 33  1  0  0  0  0
 11 12  1  0  0  0  0
 11 13  1  0  0  0  0
 11 34  1  0  0  0  0
 12 35  1  0  0  0  0
 12 36  1  0  0  0  0
 12 37  1  0  0  0  0
 13 14  2  0  0  0  0
 13 15  1  0  0  0  0
 15 19  1  0  0  0  0
 15 16  1  0  0  0  0
 16 17  1  0  0  0  0
 16 38  1  0  0  0  0
 16 39  1  0  0  0  0
 17 18  1  0  0  0  0
 17 40  1  0  0  0  0
 17 41  1  0  0  0  0
 18 19  1  0  0  0  0
 18 42  1  0  0  0  0
 18 43  1  0  0  0  0
 19 44  1  0  0  0  0
 19 45  1  0  0  0  0
 20 46  1  0  0  0  0
M  END
> <s_m_source_file>
AV-unprocessed.smi

> <i_m_source_file_index>
3335

> <i_lp_mmshare_version>
43012

> <i_f3d_flags>
0

> <s_epik_input>
W0NIM11jMVtjSF1ubihbY0hdMSlbQ0BIXShbQ0gzXSlbQ0BIXShbQ0gzXSlbTkhdW0NASF0oW0NIM10pQyg9TylOMltDSDJdW0NIMl1bQ0gyXVtDSDJdMg==

> <s_epik_cmdline>
J2VwaWtfcHl0aG9uJywgJy1waCcsICc3LjAnLCAnLXRuJywgJzgnLCAnLW1hJywgJzIwMCcsICctbWV0YWxfYmluZGluZycsICctaW1hZScsICc8aW5maWxlLm1hZT4nLCAnLW9tYWUnLCAnPG91dGZpbGUubWFlPic=

> <r_lp_tautomer_probability>
1

> <r_epik_Ionization_Penalty>
0.918803

> <r_epik_Ionization_Penalty_Charging>
0

> <r_epik_Ionization_Penalty_Neutral>
0.918803

> <r_epik_State_Penalty>
0.958258

> <r_epik_Charging_Adjusted_Penalty>
0.958258

> <i_epik_Tot_Q>
0

> <i_epik_Tot_abs_Q>
0

> <r_epik_Metal_State_Penalty>
0.956786

> <b_epik_Metal_Only>
0

> <s_lp_Force_Field>
OPLS_2005

> <r_lp_Energy>
37.1843

> <b_lp_Chiralities_Consistent>
1

> <s_lp_Variant>
AV-unprocessed.smi:3335-12

> <Gold.Version>
5.8.1

> <Gold.Id.Protein>
6NUR|6NUR_protein|mol2

> <Gold.PLP.Fitness>
43.1499

> <Gold.PLP.PLP>
-39.2444

> <Gold.PLP.part.hbond>
0.0000

> <Gold.PLP.part.metal>
0.0000

> <Gold.PLP.part.buried>
4.2391

> <Gold.PLP.part.nonpolar>
-42.5139

> <Gold.PLP.part.repulsive>
0.1292

> <Gold.PLP.ligand.clash>
0.0000

> <Gold.PLP.ligand.torsion>
0.9501

> <Gold.PLP.Chemscore.Hbond>
0.0000

> <Gold.PLP.Chemscore.CHOScore>
1.9029

> <Gold.PLP.Chemscore.Metal>
0.0000

> <Gold.Chemscore.Hbonds>
donor molecule, donor type, donor heavy atom, donor atom, acceptor molecule, acceptor atom, score
      L1  C     3    24       P1  7948  0.97
      L1  C    20    46       P1 10175  1.00

> <Gold.PLP.Chemscore.Internal.Correction>
0.0968

> <Gold.Rescore>
     Score         DG    S(hbond)    S(metal)    S(lipo)     H(rot)  DE(clash)    DE(int)     intcor
     12.36     -13.79       0.00        0.00     106.51       1.62       0.54       0.89       ----

> <Gold.Chemscore.Fitness>
12.3587

> <Gold.Chemscore.DG>
-13.7931

> <Gold.Chemscore.ZeroCoef>
-5.4800

> <Gold.Chemscore.Hbond>
0.0000

> <Gold.Chemscore.Metal>
0.0000

> <Gold.Chemscore.Lipo>
106.5071

> <Gold.Chemscore.Internal_Hbond>
0.0000

> <Gold.Chemscore.DEClash>
0.5429

> <Gold.Chemscore.DEInternal>
0.8915

> <Gold.Chemscore.Rot>
1.6204

> <Gold.Chemscore.Internal.Correction>
   9.000000E+99

> <Gold.Chemscore.Hbond.Weighted>
-0.0000

> <Gold.Chemscore.Metal.Weighted>
-0.0000

> <Gold.Chemscore.Lipo.Weighted>
-12.4613

> <Gold.Chemscore.Internal_Hbond.Weighted>
0.0000

> <Gold.Chemscore.DEClash.Weighted>
0.5429

> <Gold.Chemscore.DEInternal.Weighted>
0.8915

> <Gold.Chemscore.Rot.Weighted>
4.1482

> <Gold.Chemscore.Internal.Correction.Weighted>
   9.000000E+99

> <Gold.Protein.RotatedTorsions>
[ 6907 6896 6895 6894 ] final  -31.89 input  -60.11 | X-H torsion
[ 7974 7965 7964 7962 ] final -137.99 input  175.53 | X-H torsion
[ 8008 7997 7996 7995 ] final -177.59 input   59.86 | X-H torsion
[ 10167 10162 10161 10158 ] final  -39.91 input  -65.29 | X-H torsion
[ 10718 10713 10712 10709 ] final  -48.65 input   66.30 | X-H torsion
[ 10763 10752 10751 10750 ] final   23.16 input  -60.55 | X-H torsion
[ 11005 11000 10999 10996 ] final  136.76 input  -57.11 | X-H torsion

> <Gold.Protein.ActiveResidues>
 VAL166  LYS551  ARG553  GLY616  TRP617  ASP618  TYR619  PRO620  LYS621  CYS622 
 ASP623  PHE694  ASN695  SER759  ASP760  ASP761  ALA762  ILE779  LEU786  VAL792 
 PHE793  MET794  SER795  GLU796  ALA797  LYS798  CYS799  TRP800  GLU811  SER814 

> <Gold.Protein.RotatedAtoms>
  151.0861  134.9888  159.8379 H   0  0  0  0  0  0  0  0  0  0  0  0  # atno 6907 bound_to 6896
  152.5424  134.2122  159.8765 H   0  0  0  0  0  0  0  0  0  0  0  0  # atno 6908 bound_to 6896
  151.2156  133.4487  159.2633 H   0  0  0  0  0  0  0  0  0  0  0  0  # atno 6909 bound_to 6896
  144.8795  140.6487  143.5215 H   0  0  0  0  0  0  0  0  0  0  0  0  # atno 7974 bound_to 7965
  156.0088  140.1236  157.0474 H   0  0  0  0  0  0  0  0  0  0  0  0  # atno 8008 bound_to 7997
  154.4268  140.1092  156.5869 H   0  0  0  0  0  0  0  0  0  0  0  0  # atno 8009 bound_to 7997
  155.6109  140.3471  155.4624 H   0  0  0  0  0  0  0  0  0  0  0  0  # atno 8010 bound_to 7997
  140.7050  143.3185  151.2850 H   0  0  0  0  0  0  0  0  0  0  0  0  # atno 10167 bound_to 10162
  156.1967  130.4154  149.9296 H   0  0  0  0  0  0  0  0  0  0  0  0  # atno 10718 bound_to 10713
  153.0859  135.6633  153.9950 H   0  0  0  0  0  0  0  0  0  0  0  0  # atno 10763 bound_to 10752
  153.9559  135.2979  155.3437 H   0  0  0  0  0  0  0  0  0  0  0  0  # atno 10764 bound_to 10752
  154.7267  135.5141  153.8970 H   0  0  0  0  0  0  0  0  0  0  0  0  # atno 10765 bound_to 10752
  140.0068  134.9456  157.0192 H   0  0  0  0  0  0  0  0  0  0  0  0  # atno 11005 bound_to 11000
  145.3980  139.1603  143.4193 LP  0  0  0  0  0  0  0  0  0  0  0  0  # atno 17320 bound_to 7965
  146.2985  140.4074  142.8713 LP  0  0  0  0  0  0  0  0  0  0  0  0  # atno 17321 bound_to 7965
  139.6631  144.0153  152.2705 LP  0  0  0  0  0  0  0  0  0  0  0  0  # atno 17342 bound_to 10162
  139.9727  144.6483  150.7974 LP  0  0  0  0  0  0  0  0  0  0  0  0  # atno 17343 bound_to 10162
  156.7019  130.8936  151.3600 LP  0  0  0  0  0  0  0  0  0  0  0  0  # atno 17370 bound_to 10713
  157.6962  130.9284  150.0651 LP  0  0  0  0  0  0  0  0  0  0  0  0  # atno 17371 bound_to 10713
  140.4626  134.1468  155.7193 LP  0  0  0  0  0  0  0  0  0  0  0  0  # atno 17394 bound_to 11000
  141.1683  133.8660  157.1649 LP  0  0  0  0  0  0  0  0  0  0  0  0  # atno 17395 bound_to 11000

$$$$
