AV-unprocessed.smi:38|AV-procd|sdf|349|dock10
  -GOLD-   2262016193D 1   1.00000     0.00000
 Structure written by MMmdl.
 27 28  0  0  0  0  0  0  0  0  2 V2000
  152.4629  139.6679  156.0262 O   0  0  0  0  0  0  0  0  0  0  0  0
  151.3399  139.7337  155.5288 C   0  0  0  0  0  0  0  0  0  0  0  0
  150.5087  140.7987  155.7196 N   0  5  0  0  0  0  0  0  0  0  0  0
  149.2617  140.8688  155.1678 C   0  0  0  0  0  0  0  0  0  0  0  0
  148.5100  141.8315  155.3239 O   0  0  0  0  0  0  0  0  0  0  0  0
  148.8013  139.7867  154.3689 N   0  0  0  0  0  0  0  0  0  0  0  0
  147.4220  139.8671  153.7512 C   0  0  1  0  0  0  0  0  0  0  0  0
  147.5039  139.6720  152.2281 C   0  0  0  0  0  0  0  0  0  0  0  0
  146.3397  138.7399  151.9546 C   0  0  1  0  0  0  0  0  0  0  0  0
  146.5742  137.9540  150.8040 O   0  0  0  0  0  0  0  0  0  0  0  0
  146.3197  137.9074  153.2380 C   0  0  2  0  0  0  0  0  0  0  0  0
  145.0288  137.1312  153.5554 C   0  0  0  0  0  0  0  0  0  0  0  0
  143.8983  137.9763  153.6160 O   0  0  0  0  0  0  0  0  0  0  0  0
  146.6165  138.8442  154.2668 O   0  0  0  0  0  0  0  0  0  0  0  0
  149.6280  138.6968  154.1499 C   0  0  0  0  0  0  0  0  0  0  0  0
  150.8606  138.6342  154.6936 C   0  0  0  0  0  0  0  0  0  0  0  0
  151.6402  137.5638  154.4626 F   0  0  0  0  0  0  0  0  0  0  0  0
  147.0017  140.8268  154.0560 H   0  0  0  0  0  0  0  0  0  0  0  0
  145.4253  139.3220  151.8369 H   0  0  0  0  0  0  0  0  0  0  0  0
  147.1504  137.1995  153.2155 H   0  0  0  0  0  0  0  0  0  0  0  0
  147.4358  140.6254  151.7032 H   0  0  0  0  0  0  0  0  0  0  0  0
  148.4519  139.1945  151.9716 H   0  0  0  0  0  0  0  0  0  0  0  0
  145.8378  138.0521  150.2199 H   0  0  0  0  0  0  0  0  0  0  0  0
  144.8472  136.3905  152.7764 H   0  0  0  0  0  0  0  0  0  0  0  0
  145.1307  136.5871  154.4946 H   0  0  0  0  0  0  0  0  0  0  0  0
  144.0928  138.7729  153.1463 H   0  0  0  0  0  0  0  0  0  0  0  0
  149.2965  137.8751  153.5343 H   0  0  0  0  0  0  0  0  0  0  0  0
  1  2  2  0  0  0  0
  2 16  1  0  0  0  0
  2  3  1  0  0  0  0
  3  4  1  0  0  0  0
  4  5  2  0  0  0  0
  4  6  1  0  0  0  0
  6  7  1  0  0  0  0
  6 15  1  0  0  0  0
  7 18  1  0  0  0  0
  7 14  1  0  0  0  0
  7  8  1  0  0  0  0
  8  9  1  0  0  0  0
  8 21  1  0  0  0  0
  8 22  1  0  0  0  0
  9 19  1  0  0  0  0
  9 10  1  0  0  0  0
  9 11  1  0  0  0  0
 10 23  1  0  0  0  0
 11 20  1  0  0  0  0
 11 12  1  0  0  0  0
 11 14  1  0  0  0  0
 12 13  1  0  0  0  0
 12 24  1  0  0  0  0
 12 25  1  0  0  0  0
 13 26  1  0  0  0  0
 15 16  2  0  0  0  0
 15 27  1  0  0  0  0
 16 17  1  0  0  0  0
M  CHG  1   3  -1
M  END
> <s_m_source_file>
AV-unprocessed.smi

> <i_m_source_file_index>
38

> <i_lp_mmshare_version>
43012

> <i_f3d_flags>
0

> <s_epik_input>
Tz1jMVtuSF1jKD1PKW4oW2NIXWMxRilbQ0BIXTJbQ0gyXVtDQEhdKFtPSF0pW0NASF0oTzIpW0NIMl1bT0hd

> <s_epik_cmdline>
J2VwaWtfcHl0aG9uJywgJy1waCcsICc3LjAnLCAnLXRuJywgJzgnLCAnLW1hJywgJzIwMCcsICctbWV0YWxfYmluZGluZycsICctaW1hZScsICc8aW5maWxlLm1hZT4nLCAnLW9tYWUnLCAnPG91dGZpbGUubWFlPic=

> <r_epik_Ionization_Penalty>
1.68146

> <r_epik_Ionization_Penalty_Charging>
3.4211e-08

> <r_epik_Ionization_Penalty_Neutral>
1.68146

> <r_epik_State_Penalty>
1.78593

> <r_epik_Charging_Adjusted_Penalty>
1.78593

> <i_epik_Tot_Q>
-1

> <i_epik_Tot_abs_Q>
1

> <r_epik_Metal_State_Penalty>
0.0113696

> <b_epik_Metal_Only>
0

> <s_epik_Chemistry_Notes>
This compound contains an acetal/aminal-like group ( X-CH(R)-Y where X, Y are N, S, or O) that may be acid/base labile, releasing an aldehyde.

> <s_lp_Force_Field>
OPLS_2005

> <r_lp_Energy>
38.28

> <b_lp_Chiralities_Consistent>
1

> <s_lp_Variant>
AV-unprocessed.smi:38-15

> <Gold.Version>
5.8.1

> <Gold.Id.Protein>
6NUR|6NUR_protein|mol2

> <Gold.PLP.Fitness>
41.6590

> <Gold.PLP.PLP>
-26.7800

> <Gold.PLP.part.hbond>
-5.0201

> <Gold.PLP.part.metal>
0.0000

> <Gold.PLP.part.buried>
1.3426

> <Gold.PLP.part.nonpolar>
-26.4810

> <Gold.PLP.part.repulsive>
1.6618

> <Gold.PLP.ligand.clash>
0.0000

> <Gold.PLP.ligand.torsion>
0.0496

> <Gold.PLP.Chemscore.Hbond>
3.9913

> <Gold.PLP.Chemscore.CHOScore>
1.0000

> <Gold.PLP.Chemscore.Metal>
0.0000

> <Gold.Chemscore.Hbonds>
donor molecule, donor type, donor heavy atom, donor atom, acceptor molecule, acceptor atom, score
      L1  H    10    23       P1 10171  0.93
      L1  H    13    26       P1 10175  1.00
      P1  H  7954  7966       L1    10  1.00
      P1  H  7997  8008       L1     1  1.00
      L1  C    15    27       P1  7948  1.00

> <Gold.PLP.Chemscore.Internal.Correction>
0.0045

> <Gold.Rescore>
     Score         DG    S(hbond)    S(metal)    S(lipo)     H(rot)  DE(clash)    DE(int)     intcor
     14.16     -16.00       3.88        0.00      42.10       2.88       1.77       0.07       ----

> <Gold.Chemscore.Fitness>
14.1612

> <Gold.Chemscore.DG>
-15.9958

> <Gold.Chemscore.ZeroCoef>
-5.4800

> <Gold.Chemscore.Hbond>
3.8821

> <Gold.Chemscore.Metal>
0.0000

> <Gold.Chemscore.Lipo>
42.1024

> <Gold.Chemscore.Internal_Hbond>
0.0000

> <Gold.Chemscore.DEClash>
1.7652

> <Gold.Chemscore.DEInternal>
0.0693

> <Gold.Chemscore.Rot>
2.8815

> <Gold.Chemscore.Internal.Correction>
   9.000000E+99

> <Gold.Chemscore.Hbonds>
donor molecule, donor type, donor heavy atom, donor atom, acceptor molecule, acceptor atom, score
      L1  H    10    23       P1 10171  0.86
      L1  H    13    26       P1 10175  0.97
      P1  H  7954  7966       L1    10  0.77
      P1  H  7997  8008       L1     1  0.99

> <Gold.Chemscore.Hbond.Weighted>
-12.9663

> <Gold.Chemscore.Metal.Weighted>
-0.0000

> <Gold.Chemscore.Lipo.Weighted>
-4.9260

> <Gold.Chemscore.Internal_Hbond.Weighted>
0.0000

> <Gold.Chemscore.DEClash.Weighted>
1.7652

> <Gold.Chemscore.DEInternal.Weighted>
0.0693

> <Gold.Chemscore.Rot.Weighted>
7.3765

> <Gold.Chemscore.Internal.Correction.Weighted>
   9.000000E+99

> <Gold.Protein.RotatedTorsions>
[ 6907 6896 6895 6894 ] final    4.90 input  -60.11 | X-H torsion
[ 7974 7965 7964 7962 ] final -134.18 input  175.53 | X-H torsion
[ 8008 7997 7996 7995 ] final  -39.19 input   59.86 | X-H torsion
[ 10167 10162 10161 10158 ] final  -48.01 input  -65.29 | X-H torsion
[ 10718 10713 10712 10709 ] final  -26.95 input   66.30 | X-H torsion
[ 10763 10752 10751 10750 ] final -104.98 input  -60.55 | X-H torsion
[ 11005 11000 10999 10996 ] final   55.94 input  -57.11 | X-H torsion

> <Gold.Protein.ActiveResidues>
 VAL166  LYS551  ARG553  GLY616  TRP617  ASP618  TYR619  PRO620  LYS621  CYS622 
 ASP623  PHE694  ASN695  SER759  ASP760  ASP761  ALA762  ILE779  LEU786  VAL792 
 PHE793  MET794  SER795  GLU796  ALA797  LYS798  CYS799  TRP800  GLU811  SER814 

> <Gold.Protein.RotatedAtoms>
  151.6488  135.1004  160.0156 H   0  0  0  0  0  0  0  0  0  0  0  0  # atno 6907 bound_to 6896
  152.4012  133.6817  159.6327 H   0  0  0  0  0  0  0  0  0  0  0  0  # atno 6908 bound_to 6896
  150.7912  133.8704  159.3298 H   0  0  0  0  0  0  0  0  0  0  0  0  # atno 6909 bound_to 6896
  144.9126  140.6914  143.5015 H   0  0  0  0  0  0  0  0  0  0  0  0  # atno 7974 bound_to 7965
  154.4026  140.1558  156.2822 H   0  0  0  0  0  0  0  0  0  0  0  0  # atno 8008 bound_to 7997
  155.8859  140.3441  155.5899 H   0  0  0  0  0  0  0  0  0  0  0  0  # atno 8009 bound_to 7997
  155.7614  140.0818  157.2144 H   0  0  0  0  0  0  0  0  0  0  0  0  # atno 8010 bound_to 7997
  140.6750  143.2759  151.4009 H   0  0  0  0  0  0  0  0  0  0  0  0  # atno 10167 bound_to 10162
  156.4445  130.4471  149.7030 H   0  0  0  0  0  0  0  0  0  0  0  0  # atno 10718 bound_to 10713
  154.7916  135.4766  154.0065 H   0  0  0  0  0  0  0  0  0  0  0  0  # atno 10763 bound_to 10752
  153.1639  135.6813  153.8710 H   0  0  0  0  0  0  0  0  0  0  0  0  # atno 10764 bound_to 10752
  153.8314  135.3191  155.3397 H   0  0  0  0  0  0  0  0  0  0  0  0  # atno 10765 bound_to 10752
  140.0567  134.5659  155.9199 H   0  0  0  0  0  0  0  0  0  0  0  0  # atno 11005 bound_to 11000
  145.3429  139.1727  143.4476 LP  0  0  0  0  0  0  0  0  0  0  0  0  # atno 17320 bound_to 7965
  146.3166  140.3472  142.8653 LP  0  0  0  0  0  0  0  0  0  0  0  0  # atno 17321 bound_to 7965
  139.6037  144.1241  152.2226 LP  0  0  0  0  0  0  0  0  0  0  0  0  # atno 17342 bound_to 10162
  140.0633  144.5838  150.7246 LP  0  0  0  0  0  0  0  0  0  0  0  0  # atno 17343 bound_to 10162
  156.3881  130.7613  151.2612 LP  0  0  0  0  0  0  0  0  0  0  0  0  # atno 17370 bound_to 10713
  157.7505  131.0276  150.4011 LP  0  0  0  0  0  0  0  0  0  0  0  0  # atno 17371 bound_to 10713
  141.1955  133.6587  156.5647 LP  0  0  0  0  0  0  0  0  0  0  0  0  # atno 17394 bound_to 11000
  140.3832  134.7505  157.4675 LP  0  0  0  0  0  0  0  0  0  0  0  0  # atno 17395 bound_to 11000

$$$$
