AV-unprocessed.smi:2344|AV-procd|sdf|9357|dock2
  -GOLD-   2272012583D 1   1.00000     0.00000
 Structure written by MMmdl.
 35 36  0  0  0  0  0  0  0  0  1 V2000
  136.8755  138.6958  154.8240 C   0  0  0  0  0  0  0  0  0  0  0  0
  138.1597  138.0557  154.3402 C   0  0  0  0  0  0  0  0  0  0  0  0
  138.8912  138.6202  153.2787 C   0  0  0  0  0  0  0  0  0  0  0  0
  140.0814  137.9919  152.8646 C   0  0  0  0  0  0  0  0  0  0  0  0
  140.5121  136.8165  153.5204 C   0  0  0  0  0  0  0  0  0  0  0  0
  141.7224  136.2615  153.0261 N   0  0  0  0  0  0  0  0  0  0  0  0
  142.0333  134.9645  152.8553 C   0  0  0  0  0  0  0  0  0  0  0  0
  141.2976  134.0132  153.1199 O   0  0  0  0  0  0  0  0  0  0  0  0
  143.2663  134.8238  152.3478 N   0  0  0  0  0  0  0  0  0  0  0  0
  143.8967  133.5465  152.0343 C   0  0  2  0  0  0  0  0  0  0  0  0
  145.2193  133.7659  151.3525 C   0  0  0  0  0  0  0  0  0  0  0  0
  145.2972  133.1547  150.1728 C   0  0  0  0  0  0  0  0  0  0  0  0
  144.0383  132.4057  149.8169 C   0  0  2  0  0  0  0  0  0  0  0  0
  143.4586  132.8237  148.4545 C   0  0  0  0  0  0  0  0  0  0  0  0
  143.5043  134.2271  148.3043 O   0  0  0  0  0  0  0  0  0  0  0  0
  143.0892  132.7147  151.0027 C   0  0  0  0  0  0  0  0  0  0  0  0
  139.8006  136.2807  154.5433 N   0  0  0  0  0  0  0  0  0  0  0  0
  138.6603  136.8835  154.9399 C   0  0  0  0  0  0  0  0  0  0  0  0
  144.0701  132.9749  152.9475 H   0  0  0  0  0  0  0  0  0  0  0  0
  144.2723  131.3401  149.8064 H   0  0  0  0  0  0  0  0  0  0  0  0
  136.2587  139.0026  153.9788 H   0  0  0  0  0  0  0  0  0  0  0  0
  137.0980  139.5769  155.4260 H   0  0  0  0  0  0  0  0  0  0  0  0
  136.2954  138.0015  155.4327 H   0  0  0  0  0  0  0  0  0  0  0  0
  138.5484  139.5193  152.7881 H   0  0  0  0  0  0  0  0  0  0  0  0
  140.6548  138.4119  152.0509 H   0  0  0  0  0  0  0  0  0  0  0  0
  142.4311  136.9306  152.7646 H   0  0  0  0  0  0  0  0  0  0  0  0
  143.8049  135.6564  152.1589 H   0  0  0  0  0  0  0  0  0  0  0  0
  146.0095  134.3486  151.8027 H   0  0  0  0  0  0  0  0  0  0  0  0
  146.1602  133.1688  149.5235 H   0  0  0  0  0  0  0  0  0  0  0  0
  144.0322  132.3715  147.6450 H   0  0  0  0  0  0  0  0  0  0  0  0
  142.4274  132.4847  148.3493 H   0  0  0  0  0  0  0  0  0  0  0  0
  144.3586  134.4677  147.9793 H   0  0  0  0  0  0  0  0  0  0  0  0
  142.7208  131.7930  151.4548 H   0  0  0  0  0  0  0  0  0  0  0  0
  142.2105  133.2628  150.6581 H   0  0  0  0  0  0  0  0  0  0  0  0
  138.1354  136.4149  155.7593 H   0  0  0  0  0  0  0  0  0  0  0  0
  1  2  1  0  0  0  0
  1 21  1  0  0  0  0
  1 22  1  0  0  0  0
  1 23  1  0  0  0  0
  2 18  1  0  0  0  0
  2  3  2  0  0  0  0
  3  4  1  0  0  0  0
  3 24  1  0  0  0  0
  4  5  2  0  0  0  0
  4 25  1  0  0  0  0
  5  6  1  0  0  0  0
  5 17  1  0  0  0  0
  6  7  1  0  0  0  0
  6 26  1  0  0  0  0
  7  8  2  0  0  0  0
  7  9  1  0  0  0  0
  9 10  1  0  0  0  0
  9 27  1  0  0  0  0
 10 19  1  0  0  0  0
 10 16  1  0  0  0  0
 10 11  1  0  0  0  0
 11 12  2  0  0  0  0
 11 28  1  0  0  0  0
 12 13  1  0  0  0  0
 12 29  1  0  0  0  0
 13 20  1  0  0  0  0
 13 14  1  0  0  0  0
 13 16  1  0  0  0  0
 14 15  1  0  0  0  0
 14 30  1  0  0  0  0
 14 31  1  0  0  0  0
 15 32  1  0  0  0  0
 16 33  1  0  0  0  0
 16 34  1  0  0  0  0
 17 18  2  0  0  0  0
 18 35  1  0  0  0  0
M  END
> <s_m_source_file>
AV-unprocessed.smi

> <i_m_source_file_index>
2344

> <i_lp_mmshare_version>
43012

> <i_f3d_flags>
0

> <s_epik_input>
W0NIM11jMVtjSF1bY0hdYyhuW2NIXTEpW05IXUMoPU8pW05IXVtDQEBIXTJbQ0hdPVtDSF1bQ0BASF0oW0NIMl0yKVtDSDJdW09IXQ==

> <s_epik_cmdline>
J2VwaWtfcHl0aG9uJywgJy1waCcsICc3LjAnLCAnLXRuJywgJzgnLCAnLW1hJywgJzIwMCcsICctbWV0YWxfYmluZGluZycsICctaW1hZScsICc8aW5maWxlLm1hZT4nLCAnLW9tYWUnLCAnPG91dGZpbGUubWFlPic=

> <r_lp_tautomer_probability>
1

> <r_epik_Ionization_Penalty>
5.7643e-05

> <r_epik_Ionization_Penalty_Charging>
0

> <r_epik_Ionization_Penalty_Neutral>
5.7643e-05

> <r_epik_State_Penalty>
-0

> <r_epik_Charging_Adjusted_Penalty>
0

> <i_epik_Tot_Q>
0

> <i_epik_Tot_abs_Q>
0

> <r_epik_Metal_State_Penalty>
-0

> <b_epik_Metal_Only>
0

> <s_lp_Force_Field>
OPLS_2005

> <r_lp_Energy>
16.9507

> <b_lp_Chiralities_Consistent>
1

> <s_lp_Variant>
AV-unprocessed.smi:2344-1

> <Gold.Version>
5.8.1

> <Gold.Id.Protein>
6NUR|6NUR_protein|mol2

> <Gold.PLP.Fitness>
43.5784

> <Gold.PLP.PLP>
-35.9965

> <Gold.PLP.part.hbond>
-3.9440

> <Gold.PLP.part.metal>
0.0000

> <Gold.PLP.part.buried>
-4.2624

> <Gold.PLP.part.nonpolar>
-28.9147

> <Gold.PLP.part.repulsive>
1.1065

> <Gold.PLP.ligand.clash>
0.0000

> <Gold.PLP.ligand.torsion>
0.4369

> <Gold.PLP.Chemscore.Hbond>
2.8125

> <Gold.PLP.Chemscore.CHOScore>
0.0000

> <Gold.PLP.Chemscore.Metal>
0.0000

> <Gold.Chemscore.Hbonds>
donor molecule, donor type, donor heavy atom, donor atom, acceptor molecule, acceptor atom, score
      L1  H    15    32       P1  7921  1.00
      P1  H 10192 10197       L1    15  0.83
      P1  H 11000 11005       L1    17  0.76

> <Gold.PLP.Chemscore.Internal.Correction>
0.0182

> <Gold.Rescore>
     Score         DG    S(hbond)    S(metal)    S(lipo)     H(rot)  DE(clash)    DE(int)     intcor
     17.86     -20.62       2.82        0.00      88.68       1.82       0.99       1.77       ----

> <Gold.Chemscore.Fitness>
17.8577

> <Gold.Chemscore.DG>
-20.6157

> <Gold.Chemscore.ZeroCoef>
-5.4800

> <Gold.Chemscore.Hbond>
2.8188

> <Gold.Chemscore.Metal>
0.0000

> <Gold.Chemscore.Lipo>
88.6845

> <Gold.Chemscore.Internal_Hbond>
0.0000

> <Gold.Chemscore.DEClash>
0.9896

> <Gold.Chemscore.DEInternal>
1.7684

> <Gold.Chemscore.Rot>
1.8184

> <Gold.Chemscore.Internal.Correction>
   9.000000E+99

> <Gold.Chemscore.Hbonds>
donor molecule, donor type, donor heavy atom, donor atom, acceptor molecule, acceptor atom, score
      L1  H    15    32       P1  7921  1.00
      P1  H 10192 10197       L1    15  0.58
      P1  H 11000 11005       L1    17  0.27

> <Gold.Chemscore.Hbond.Weighted>
-9.4147

> <Gold.Chemscore.Metal.Weighted>
-0.0000

> <Gold.Chemscore.Lipo.Weighted>
-10.3761

> <Gold.Chemscore.Internal_Hbond.Weighted>
0.0000

> <Gold.Chemscore.DEClash.Weighted>
0.9896

> <Gold.Chemscore.DEInternal.Weighted>
1.7684

> <Gold.Chemscore.Rot.Weighted>
4.6551

> <Gold.Chemscore.Internal.Correction.Weighted>
   9.000000E+99

> <Gold.Protein.RotatedTorsions>
[ 6907 6896 6895 6894 ] final -143.72 input  -60.11 | X-H torsion
[ 7974 7965 7964 7962 ] final   -9.73 input  175.53 | X-H torsion
[ 8008 7997 7996 7995 ] final   22.03 input   59.86 | X-H torsion
[ 10167 10162 10161 10158 ] final   65.01 input  -65.29 | X-H torsion
[ 10718 10713 10712 10709 ] final -114.10 input   66.30 | X-H torsion
[ 10763 10752 10751 10750 ] final  137.45 input  -60.55 | X-H torsion
[ 11005 11000 10999 10996 ] final   65.92 input  -57.11 | X-H torsion

> <Gold.Protein.ActiveResidues>
 VAL166  LYS551  ARG553  GLY616  TRP617  ASP618  TYR619  PRO620  LYS621  CYS622 
 ASP623  PHE694  ASN695  SER759  ASP760  ASP761  ALA762  ILE779  LEU786  VAL792 
 PHE793  MET794  SER795  GLU796  ALA797  LYS798  CYS799  TRP800  GLU811  SER814 

> <Gold.Protein.RotatedAtoms>
  151.1043  133.5220  159.2608 H   0  0  0  0  0  0  0  0  0  0  0  0  # atno 6907 bound_to 6896
  151.2039  135.0453  159.8893 H   0  0  0  0  0  0  0  0  0  0  0  0  # atno 6908 bound_to 6896
  152.5445  134.0867  159.8312 H   0  0  0  0  0  0  0  0  0  0  0  0  # atno 6909 bound_to 6896
  146.2243  140.2659  142.8354 H   0  0  0  0  0  0  0  0  0  0  0  0  # atno 7974 bound_to 7965
  154.9596  140.3076  155.5037 H   0  0  0  0  0  0  0  0  0  0  0  0  # atno 8008 bound_to 7997
  156.2978  140.2304  156.4619 H   0  0  0  0  0  0  0  0  0  0  0  0  # atno 8009 bound_to 7997
  154.7977  140.0436  157.1238 H   0  0  0  0  0  0  0  0  0  0  0  0  # atno 8010 bound_to 7997
  140.1159  144.4776  150.6949 H   0  0  0  0  0  0  0  0  0  0  0  0  # atno 10167 bound_to 10162
  156.0808  130.6008  150.8730 H   0  0  0  0  0  0  0  0  0  0  0  0  # atno 10718 bound_to 10713
  153.8732  135.3053  155.3443 H   0  0  0  0  0  0  0  0  0  0  0  0  # atno 10763 bound_to 10752
  154.7796  135.4843  153.9819 H   0  0  0  0  0  0  0  0  0  0  0  0  # atno 10764 bound_to 10752
  153.1394  135.6821  153.9148 H   0  0  0  0  0  0  0  0  0  0  0  0  # atno 10765 bound_to 10752
  139.9864  134.6661  156.0169 H   0  0  0  0  0  0  0  0  0  0  0  0  # atno 11005 bound_to 11000
  144.9304  140.7969  143.5692 LP  0  0  0  0  0  0  0  0  0  0  0  0  # atno 17320 bound_to 7965
  145.2602  139.1995  143.4896 LP  0  0  0  0  0  0  0  0  0  0  0  0  # atno 17321 bound_to 7965
  140.6899  143.2370  151.5158 LP  0  0  0  0  0  0  0  0  0  0  0  0  # atno 17342 bound_to 10162
  139.5594  144.2194  152.1667 LP  0  0  0  0  0  0  0  0  0  0  0  0  # atno 17343 bound_to 10162
  157.5924  131.0944  150.9097 LP  0  0  0  0  0  0  0  0  0  0  0  0  # atno 17370 bound_to 10713
  156.9270  130.5336  149.5279 LP  0  0  0  0  0  0  0  0  0  0  0  0  # atno 17371 bound_to 10713
  141.1528  133.6546  156.4067 LP  0  0  0  0  0  0  0  0  0  0  0  0  # atno 17394 bound_to 11000
  140.4994  134.6500  157.5242 LP  0  0  0  0  0  0  0  0  0  0  0  0  # atno 17395 bound_to 11000

$$$$
