AV-unprocessed.smi:99|AV-procd|sdf|865|dock2
  -GOLD-   2262017313D 1   1.00000     0.00000
 Structure written by MMmdl.
 53 56  0  0  0  0  0  0  0  0  1 V2000
  151.6442  134.2468  156.2841 O   0  0  0  0  0  0  0  0  0  0  0  0
  150.9901  134.9534  155.5152 C   0  0  0  0  0  0  0  0  0  0  0  0
  150.0694  134.4723  154.6576 O   0  0  0  0  0  0  0  0  0  0  0  0
  149.5034  133.1855  154.8494 C   0  0  0  0  0  0  0  0  0  0  0  0
  148.0155  133.2388  154.4803 C   0  0  2  0  0  0  0  0  0  0  0  0
  147.8499  133.8755  153.2168 O   0  0  0  0  0  0  0  0  0  0  0  0
  146.5768  134.4552  153.1317 C   0  0  1  0  0  0  0  0  0  0  0  0
  145.7707  133.7475  152.0607 N   0  0  0  0  0  0  0  0  0  0  0  0
  146.2642  132.6523  151.3623 C   0  0  0  0  0  0  0  0  0  0  0  0
  145.5533  132.0043  150.4091 C   0  0  0  0  0  0  0  0  0  0  0  0
  144.2021  132.4382  150.0684 C   0  0  0  0  0  0  0  0  0  0  0  0
  143.4837  131.9175  149.2179 O   0  0  0  0  0  0  0  0  0  0  0  0
  143.7428  133.5355  150.8022 N   0  0  0  0  0  0  0  0  0  0  0  0
  144.4642  134.2085  151.7893 C   0  0  0  0  0  0  0  0  0  0  0  0
  143.9571  135.1572  152.3869 O   0  0  0  0  0  0  0  0  0  0  0  0
  145.9311  134.3675  154.5351 C   0  0  1  0  0  0  0  0  0  0  0  0
  144.9914  133.3079  154.6463 O   0  0  0  0  0  0  0  0  0  0  0  0
  147.1593  134.1137  155.3946 C   0  0  1  0  0  0  0  0  0  0  0  0
  146.8243  133.5227  156.6480 O   0  0  0  0  0  0  0  0  0  0  0  0
  146.4031  134.2753  157.6890 C   0  0  0  0  0  0  0  0  0  0  0  0
  145.7846  135.3340  157.5653 O   0  0  0  0  0  0  0  0  0  0  0  0
  146.8046  133.7108  159.0086 C   0  0  0  0  0  0  0  0  0  0  0  0
  146.6218  134.4863  160.1771 C   0  0  0  0  0  0  0  0  0  0  0  0
  147.0157  133.9909  161.4352 C   0  0  0  0  0  0  0  0  0  0  0  0
  147.5942  132.7129  161.5401 C   0  0  0  0  0  0  0  0  0  0  0  0
  147.7783  131.9305  160.3854 C   0  0  0  0  0  0  0  0  0  0  0  0
  147.3868  132.4248  159.1260 C   0  0  0  0  0  0  0  0  0  0  0  0
  151.1540  136.4325  155.4117 C   0  0  0  0  0  0  0  0  0  0  0  0
  150.1072  137.2100  154.8645 C   0  0  0  0  0  0  0  0  0  0  0  0
  150.2245  138.6109  154.7774 C   0  0  0  0  0  0  0  0  0  0  0  0
  151.3908  139.2514  155.2349 C   0  0  0  0  0  0  0  0  0  0  0  0
  152.4414  138.4888  155.7768 C   0  0  0  0  0  0  0  0  0  0  0  0
  152.3261  137.0879  155.8640 C   0  0  0  0  0  0  0  0  0  0  0  0
  142.8092  133.8656  150.6045 H   0  0  0  0  0  0  0  0  0  0  0  0
  150.0088  132.4324  154.2429 H   0  0  0  0  0  0  0  0  0  0  0  0
  149.6248  132.9018  155.8952 H   0  0  0  0  0  0  0  0  0  0  0  0
  147.6020  132.2307  154.4181 H   0  0  0  0  0  0  0  0  0  0  0  0
  146.7153  135.4804  152.7831 H   0  0  0  0  0  0  0  0  0  0  0  0
  147.2546  132.2800  151.5756 H   0  0  0  0  0  0  0  0  0  0  0  0
  145.9861  131.1578  149.8959 H   0  0  0  0  0  0  0  0  0  0  0  0
  145.4407  135.3090  154.7839 H   0  0  0  0  0  0  0  0  0  0  0  0
  144.1243  133.6635  154.5252 H   0  0  0  0  0  0  0  0  0  0  0  0
  147.6648  135.0711  155.5310 H   0  0  0  0  0  0  0  0  0  0  0  0
  146.1881  135.4742  160.1203 H   0  0  0  0  0  0  0  0  0  0  0  0
  146.8767  134.5947  162.3198 H   0  0  0  0  0  0  0  0  0  0  0  0
  147.8972  132.3336  162.5049 H   0  0  0  0  0  0  0  0  0  0  0  0
  148.2225  130.9493  160.4646 H   0  0  0  0  0  0  0  0  0  0  0  0
  147.5452  131.7999  158.2594 H   0  0  0  0  0  0  0  0  0  0  0  0
  149.1994  136.7412  154.5127 H   0  0  0  0  0  0  0  0  0  0  0  0
  149.4167  139.1948  154.3613 H   0  0  0  0  0  0  0  0  0  0  0  0
  151.4789  140.3259  155.1707 H   0  0  0  0  0  0  0  0  0  0  0  0
  153.3360  138.9788  156.1320 H   0  0  0  0  0  0  0  0  0  0  0  0
  153.1485  136.5341  156.2926 H   0  0  0  0  0  0  0  0  0  0  0  0
  1  2  2  0  0  0  0
  2  3  1  0  0  0  0
  2 28  1  0  0  0  0
  3  4  1  0  0  0  0
  4  5  1  0  0  0  0
  4 35  1  0  0  0  0
  4 36  1  0  0  0  0
  5 18  1  0  0  0  0
  5  6  1  0  0  0  0
  5 37  1  0  0  0  0
  6  7  1  0  0  0  0
  7  8  1  0  0  0  0
  7 16  1  0  0  0  0
  7 38  1  0  0  0  0
  8 14  1  0  0  0  0
  8  9  1  0  0  0  0
  9 10  2  0  0  0  0
  9 39  1  0  0  0  0
 10 11  1  0  0  0  0
 10 40  1  0  0  0  0
 11 12  2  0  0  0  0
 11 13  1  0  0  0  0
 13 34  1  0  0  0  0
 13 14  1  0  0  0  0
 14 15  2  0  0  0  0
 16 17  1  0  0  0  0
 16 18  1  0  0  0  0
 16 41  1  0  0  0  0
 17 42  1  0  0  0  0
 18 19  1  0  0  0  0
 18 43  1  0  0  0  0
 19 20  1  0  0  0  0
 20 21  2  0  0  0  0
 20 22  1  0  0  0  0
 22 27  1  0  0  0  0
 22 23  2  0  0  0  0
 23 24  1  0  0  0  0
 23 44  1  0  0  0  0
 24 25  2  0  0  0  0
 24 45  1  0  0  0  0
 25 26  1  0  0  0  0
 25 46  1  0  0  0  0
 26 27  2  0  0  0  0
 26 47  1  0  0  0  0
 27 48  1  0  0  0  0
 28 33  1  0  0  0  0
 28 29  2  0  0  0  0
 29 30  1  0  0  0  0
 29 49  1  0  0  0  0
 30 31  2  0  0  0  0
 30 50  1  0  0  0  0
 31 32  1  0  0  0  0
 31 51  1  0  0  0  0
 32 33  2  0  0  0  0
 32 52  1  0  0  0  0
 33 53  1  0  0  0  0
M  END
> <s_m_source_file>
AV-unprocessed.smi

> <i_m_source_file_index>
99

> <i_lp_mmshare_version>
43012

> <i_f3d_flags>
0

> <s_epik_input>
W2NIXTFbY0hdW2NIXVtjSF1bY0hdYzFDKD1PKU9bQ0gyXVtDQEBIXTJPW0NAQEhdKG4zW2NIXVtjSF1jKD1PKVtuSF1jMz1PKVtDQEBIXShbT0hdKVtDQEhdMk9DKD1PKWM0W2NIXVtjSF1bY0hdW2NIXVtjSF00

> <s_epik_cmdline>
J2VwaWtfcHl0aG9uJywgJy1waCcsICc3LjAnLCAnLXRuJywgJzgnLCAnLW1hJywgJzIwMCcsICctbWV0YWxfYmluZGluZycsICctaW1hZScsICc8aW5maWxlLm1hZT4nLCAnLW9tYWUnLCAnPG91dGZpbGUubWFlPic=

> <r_lp_tautomer_probability>
1

> <r_epik_Ionization_Penalty>
0.00454555

> <r_epik_Ionization_Penalty_Charging>
0.0045191

> <r_epik_Ionization_Penalty_Neutral>
2.64449e-05

> <r_epik_State_Penalty>
-0

> <r_epik_Charging_Adjusted_Penalty>
0.0045191

> <i_epik_Tot_Q>
0

> <i_epik_Tot_abs_Q>
0

> <r_epik_Metal_State_Penalty>
1.27877

> <b_epik_Metal_Only>
0

> <s_epik_Chemistry_Notes>
This compound has an ester and may undergo hydrolysis at high or low pH. This compound contains an acetal/aminal-like group ( X-CH(R)-Y where X, Y are N, S, or O) that may be acid/base labile, releasing an aldehyde.

> <s_lp_Force_Field>
OPLS_2005

> <r_lp_Energy>
44.6164

> <b_lp_Chiralities_Consistent>
1

> <s_lp_Variant>
AV-unprocessed.smi:99-1

> <Gold.Version>
5.8.1

> <Gold.Id.Protein>
6NUR|6NUR_protein|mol2

> <Gold.PLP.Fitness>
46.7662

> <Gold.PLP.PLP>
-40.4569

> <Gold.PLP.part.hbond>
-3.7728

> <Gold.PLP.part.metal>
0.0000

> <Gold.PLP.part.buried>
-3.9695

> <Gold.PLP.part.nonpolar>
-36.1630

> <Gold.PLP.part.repulsive>
4.3037

> <Gold.PLP.ligand.clash>
0.0000

> <Gold.PLP.ligand.torsion>
1.3672

> <Gold.PLP.Chemscore.Hbond>
2.3595

> <Gold.PLP.Chemscore.CHOScore>
0.5614

> <Gold.PLP.Chemscore.Metal>
0.0000

> <Gold.Chemscore.Hbonds>
donor molecule, donor type, donor heavy atom, donor atom, acceptor molecule, acceptor atom, score
      L1  H    13    34       P1 10186  0.68
      L1  H    17    42       P1 10957  0.01
      P1  H 10785 10796       L1    12  0.96
      L1  C     9    39       P1 10747  0.87

> <Gold.PLP.Chemscore.Internal.Correction>
0.2812

> <Gold.Rescore>
     Score         DG    S(hbond)    S(metal)    S(lipo)     H(rot)  DE(clash)    DE(int)     intcor
     11.00     -14.04       1.81        0.00      91.32       3.19       1.63       1.41       ----

> <Gold.Chemscore.Fitness>
11.0047

> <Gold.Chemscore.DG>
-14.0433

> <Gold.Chemscore.ZeroCoef>
-5.4800

> <Gold.Chemscore.Hbond>
1.8101

> <Gold.Chemscore.Metal>
0.0000

> <Gold.Chemscore.Lipo>
91.3211

> <Gold.Chemscore.Internal_Hbond>
0.0000

> <Gold.Chemscore.DEClash>
1.6311

> <Gold.Chemscore.DEInternal>
1.4075

> <Gold.Chemscore.Rot>
3.1903

> <Gold.Chemscore.Internal.Correction>
   9.000000E+99

> <Gold.Chemscore.Hbonds>
donor molecule, donor type, donor heavy atom, donor atom, acceptor molecule, acceptor atom, score
      L1  H    13    34       P1 10186  0.62
      L1  H    17    42       P1 10957  0.01
      P1  H 10785 10796       L1    12  0.92

> <Gold.Chemscore.Hbond.Weighted>
-6.0458

> <Gold.Chemscore.Metal.Weighted>
-0.0000

> <Gold.Chemscore.Lipo.Weighted>
-10.6846

> <Gold.Chemscore.Internal_Hbond.Weighted>
0.0000

> <Gold.Chemscore.DEClash.Weighted>
1.6311

> <Gold.Chemscore.DEInternal.Weighted>
1.4075

> <Gold.Chemscore.Rot.Weighted>
8.1671

> <Gold.Chemscore.Internal.Correction.Weighted>
   9.000000E+99

> <Gold.Protein.RotatedTorsions>
[ 6907 6896 6895 6894 ] final   62.03 input  -60.11 | X-H torsion
[ 7974 7965 7964 7962 ] final  170.96 input  175.53 | X-H torsion
[ 8008 7997 7996 7995 ] final   30.81 input   59.86 | X-H torsion
[ 10167 10162 10161 10158 ] final -137.33 input  -65.29 | X-H torsion
[ 10718 10713 10712 10709 ] final -151.22 input   66.30 | X-H torsion
[ 10763 10752 10751 10750 ] final  103.20 input  -60.55 | X-H torsion
[ 11005 11000 10999 10996 ] final  147.73 input  -57.11 | X-H torsion

> <Gold.Protein.ActiveResidues>
 VAL166  LYS551  ARG553  GLY616  TRP617  ASP618  TYR619  PRO620  LYS621  CYS622 
 ASP623  PHE694  ASN695  SER759  ASP760  ASP761  ALA762  ILE779  LEU786  VAL792 
 PHE793  MET794  SER795  GLU796  ALA797  LYS798  CYS799  TRP800  GLU811  SER814 

> <Gold.Protein.RotatedAtoms>
  152.4138  134.6077  160.0017 H   0  0  0  0  0  0  0  0  0  0  0  0  # atno 6907 bound_to 6896
  151.6247  133.3331  159.3103 H   0  0  0  0  0  0  0  0  0  0  0  0  # atno 6908 bound_to 6896
  150.8028  134.7172  159.6682 H   0  0  0  0  0  0  0  0  0  0  0  0  # atno 6909 bound_to 6896
  144.7308  139.9279  143.6423 H   0  0  0  0  0  0  0  0  0  0  0  0  # atno 7974 bound_to 7965
  155.0963  140.3225  155.4559 H   0  0  0  0  0  0  0  0  0  0  0  0  # atno 8008 bound_to 7997
  156.2729  140.2069  156.6036 H   0  0  0  0  0  0  0  0  0  0  0  0  # atno 8009 bound_to 7997
  154.6864  140.0521  157.0306 H   0  0  0  0  0  0  0  0  0  0  0  0  # atno 8010 bound_to 7997
  139.8589  143.7103  152.2652 H   0  0  0  0  0  0  0  0  0  0  0  0  # atno 10167 bound_to 10162
  156.4564  130.8192  151.2423 H   0  0  0  0  0  0  0  0  0  0  0  0  # atno 10718 bound_to 10713
  153.3495  135.3985  155.1635 H   0  0  0  0  0  0  0  0  0  0  0  0  # atno 10763 bound_to 10752
  154.8659  135.3653  154.5241 H   0  0  0  0  0  0  0  0  0  0  0  0  # atno 10764 bound_to 10752
  153.5691  135.7079  153.5572 H   0  0  0  0  0  0  0  0  0  0  0  0  # atno 10765 bound_to 10752
  140.0900  134.9046  157.1636 H   0  0  0  0  0  0  0  0  0  0  0  0  # atno 11005 bound_to 11000
  146.0880  139.3869  143.0423 LP  0  0  0  0  0  0  0  0  0  0  0  0  # atno 17320 bound_to 7965
  145.7750  140.9880  143.1129 LP  0  0  0  0  0  0  0  0  0  0  0  0  # atno 17321 bound_to 7965
  139.7393  144.7563  151.0678 LP  0  0  0  0  0  0  0  0  0  0  0  0  # atno 17342 bound_to 10162
  140.7778  143.4992  150.9793 LP  0  0  0  0  0  0  0  0  0  0  0  0  # atno 17343 bound_to 10162
  157.7500  131.0121  150.3373 LP  0  0  0  0  0  0  0  0  0  0  0  0  # atno 17370 bound_to 10713
  156.3762  130.3872  149.7136 LP  0  0  0  0  0  0  0  0  0  0  0  0  # atno 17371 bound_to 10713
  140.3365  134.2751  155.7219 LP  0  0  0  0  0  0  0  0  0  0  0  0  # atno 17394 bound_to 11000
  141.2075  133.7804  157.0116 LP  0  0  0  0  0  0  0  0  0  0  0  0  # atno 17395 bound_to 11000

$$$$
