AV-unprocessed.smi:2510|AV-procd|sdf|9878|dock6
  -GOLD-   2272013513D 1   1.00000     0.00000
 Structure written by MMmdl.
 48 49  0  0  0  0  0  0  0  0  1 V2000
  149.9140  136.4486  154.9423 C   0  0  0  0  0  0  0  0  0  0  0  0
  149.0807  137.6472  155.4231 C   0  0  0  0  0  0  0  0  0  0  0  0
  149.3659  138.9865  154.6914 C   0  0  0  0  0  0  0  0  0  0  0  0
  150.8802  139.0576  154.3753 C   0  0  0  0  0  0  0  0  0  0  0  0
  151.7954  139.2701  155.5932 C   0  0  0  0  0  0  0  0  0  0  0  0
  148.4564  139.3792  153.4855 C   0  0  1  0  0  0  0  0  0  0  0  0
  147.1269  138.7739  153.5248 N   0  0  0  0  0  0  0  0  0  0  0  0
  146.4344  138.3453  152.4596 C   0  0  0  0  0  0  0  0  0  0  0  0
  146.7963  138.5231  151.2972 O   0  0  0  0  0  0  0  0  0  0  0  0
  145.1527  137.5659  152.7600 C   0  0  0  0  0  0  0  0  0  0  0  0
  145.1244  136.2864  151.9832 C   0  0  0  0  0  0  0  0  0  0  0  0
  144.1132  135.3959  151.7499 C   0  0  0  0  0  0  0  0  0  0  0  0
  144.7290  134.3510  151.0017 C   0  0  0  0  0  0  0  0  0  0  0  0
  144.1049  133.0852  150.4939 C   0  0  0  0  0  0  0  0  0  0  0  0
  146.0119  134.5841  150.7685 N   0  0  0  0  0  0  0  0  0  0  0  0
  146.2414  135.7663  151.3696 N   0  0  0  0  0  0  0  0  0  0  0  0
  148.4311  140.8273  154.0063 C   0  0  1  0  0  0  0  0  0  0  0  0
  147.1993  141.7133  153.8291 C   0  0  0  0  0  0  0  0  0  0  0  0
  148.8142  140.2616  155.3864 C   0  0  1  0  0  0  0  0  0  0  0  0
  147.6756  139.9732  156.1921 O   0  0  0  0  0  0  0  0  0  0  0  0
  147.1076  141.1230  156.7938 C   0  0  0  0  0  0  0  0  0  0  0  0
  147.1569  136.1934  151.3669 H   0  0  0  0  0  0  0  0  0  0  0  0
  149.7487  135.5875  155.5897 H   0  0  0  0  0  0  0  0  0  0  0  0
  150.9806  136.6724  154.9604 H   0  0  0  0  0  0  0  0  0  0  0  0
  149.6470  136.1436  153.9311 H   0  0  0  0  0  0  0  0  0  0  0  0
  148.0215  137.3961  155.3789 H   0  0  0  0  0  0  0  0  0  0  0  0
  149.2865  137.7464  156.4878 H   0  0  0  0  0  0  0  0  0  0  0  0
  151.2007  138.1334  153.8949 H   0  0  0  0  0  0  0  0  0  0  0  0
  151.0862  139.8273  153.6325 H   0  0  0  0  0  0  0  0  0  0  0  0
  152.8421  139.1784  155.3028 H   0  0  0  0  0  0  0  0  0  0  0  0
  151.6059  138.5337  156.3738 H   0  0  0  0  0  0  0  0  0  0  0  0
  151.6715  140.2616  156.0275 H   0  0  0  0  0  0  0  0  0  0  0  0
  148.9421  139.3000  152.5120 H   0  0  0  0  0  0  0  0  0  0  0  0
  146.7489  138.5793  154.4409 H   0  0  0  0  0  0  0  0  0  0  0  0
  145.1036  137.3579  153.8292 H   0  0  0  0  0  0  0  0  0  0  0  0
  144.2827  138.1772  152.5164 H   0  0  0  0  0  0  0  0  0  0  0  0
  143.0902  135.4668  152.0881 H   0  0  0  0  0  0  0  0  0  0  0  0
  143.0441  133.0425  150.7416 H   0  0  0  0  0  0  0  0  0  0  0  0
  144.5825  132.2097  150.9345 H   0  0  0  0  0  0  0  0  0  0  0  0
  144.1970  133.0073  149.4106 H   0  0  0  0  0  0  0  0  0  0  0  0
  149.2996  141.3462  153.5976 H   0  0  0  0  0  0  0  0  0  0  0  0
  146.3125  141.2817  154.2935 H   0  0  0  0  0  0  0  0  0  0  0  0
  146.9750  141.8649  152.7732 H   0  0  0  0  0  0  0  0  0  0  0  0
  147.3559  142.6958  154.2742 H   0  0  0  0  0  0  0  0  0  0  0  0
  149.5859  140.8290  155.9102 H   0  0  0  0  0  0  0  0  0  0  0  0
  146.2230  140.8362  157.3623 H   0  0  0  0  0  0  0  0  0  0  0  0
  146.8070  141.8598  156.0489 H   0  0  0  0  0  0  0  0  0  0  0  0
  147.8123  141.5905  157.4822 H   0  0  0  0  0  0  0  0  0  0  0  0
  1  2  1  0  0  0  0
  1 23  1  0  0  0  0
  1 24  1  0  0  0  0
  1 25  1  0  0  0  0
  2  3  1  0  0  0  0
  2 26  1  0  0  0  0
  2 27  1  0  0  0  0
  3 19  1  0  0  0  0
  3  4  1  0  0  0  0
  3  6  1  0  0  0  0
  4  5  1  0  0  0  0
  4 28  1  0  0  0  0
  4 29  1  0  0  0  0
  5 30  1  0  0  0  0
  5 31  1  0  0  0  0
  5 32  1  0  0  0  0
  6  7  1  0  0  0  0
  6 17  1  0  0  0  0
  6 33  1  0  0  0  0
  7  8  1  0  0  0  0
  7 34  1  0  0  0  0
  8  9  2  0  0  0  0
  8 10  1  0  0  0  0
 10 35  1  0  0  0  0
 10 36  1  0  0  0  0
 10 11  1  0  0  0  0
 11 16  1  0  0  0  0
 11 12  2  0  0  0  0
 12 13  1  0  0  0  0
 12 37  1  0  0  0  0
 13 14  1  0  0  0  0
 13 15  2  0  0  0  0
 14 38  1  0  0  0  0
 14 39  1  0  0  0  0
 14 40  1  0  0  0  0
 15 16  1  0  0  0  0
 16 22  1  0  0  0  0
 17 18  1  0  0  0  0
 17 19  1  0  0  0  0
 17 41  1  0  0  0  0
 18 42  1  0  0  0  0
 18 43  1  0  0  0  0
 18 44  1  0  0  0  0
 19 20  1  0  0  0  0
 19 45  1  0  0  0  0
 20 21  1  0  0  0  0
 21 46  1  0  0  0  0
 21 47  1  0  0  0  0
 21 48  1  0  0  0  0
M  END
> <s_m_source_file>
AV-unprocessed.smi

> <i_m_source_file_index>
2510

> <i_lp_mmshare_version>
43012

> <i_f3d_flags>
0

> <s_epik_input>
W0NIM11PW0NAQEhdMVtDQEhdKFtDSDNdKVtDQEBIXShDMShbQ0gyXVtDSDNdKVtDSDJdW0NIM10pW05IXUMoPU8pW0NIMl1jMltjSF1jKFtDSDNdKVtuSF1uMg==

> <s_epik_cmdline>
J2VwaWtfcHl0aG9uJywgJy1waCcsICc3LjAnLCAnLXRuJywgJzgnLCAnLW1hJywgJzIwMCcsICctbWV0YWxfYmluZGluZycsICctaW1hZScsICc8aW5maWxlLm1hZT4nLCAnLW9tYWUnLCAnPG91dGZpbGUubWFlPic=

> <r_lp_tautomer_probability>
0.5

> <r_epik_Ionization_Penalty>
0.000134763

> <r_epik_Ionization_Penalty_Charging>
0

> <r_epik_Ionization_Penalty_Neutral>
0.000134763

> <r_epik_State_Penalty>
0.41068

> <r_epik_Charging_Adjusted_Penalty>
0.41068

> <i_epik_Tot_Q>
0

> <i_epik_Tot_abs_Q>
0

> <r_epik_Metal_State_Penalty>
0.410661

> <b_epik_Metal_Only>
0

> <s_lp_Force_Field>
OPLS_2005

> <r_lp_Energy>
25.663

> <b_lp_Chiralities_Consistent>
1

> <s_lp_Variant>
AV-unprocessed.smi:2510-9

> <Gold.Version>
5.8.1

> <Gold.Id.Protein>
6NUR|6NUR_protein|mol2

> <Gold.PLP.Fitness>
36.5096

> <Gold.PLP.PLP>
-32.0735

> <Gold.PLP.part.hbond>
-2.0000

> <Gold.PLP.part.metal>
0.0000

> <Gold.PLP.part.buried>
-1.6138

> <Gold.PLP.part.nonpolar>
-29.6546

> <Gold.PLP.part.repulsive>
0.8485

> <Gold.PLP.ligand.clash>
0.0000

> <Gold.PLP.ligand.torsion>
1.1105

> <Gold.PLP.Chemscore.Hbond>
2.0000

> <Gold.PLP.Chemscore.CHOScore>
0.0000

> <Gold.PLP.Chemscore.Metal>
0.0000

> <Gold.Chemscore.Hbonds>
donor molecule, donor type, donor heavy atom, donor atom, acceptor molecule, acceptor atom, score
      L1  H    16    22       P1  7948  1.00
      P1  H  7954  7966       L1     9  0.93

> <Gold.PLP.Chemscore.Internal.Correction>
0.6571

> <Gold.Rescore>
     Score         DG    S(hbond)    S(metal)    S(lipo)     H(rot)  DE(clash)    DE(int)     intcor
     14.63     -17.11       1.97        0.00      82.64       1.81       1.55       0.93       ----

> <Gold.Chemscore.Fitness>
14.6328

> <Gold.Chemscore.DG>
-17.1095

> <Gold.Chemscore.ZeroCoef>
-5.4800

> <Gold.Chemscore.Hbond>
1.9745

> <Gold.Chemscore.Metal>
0.0000

> <Gold.Chemscore.Lipo>
82.6403

> <Gold.Chemscore.Internal_Hbond>
0.0000

> <Gold.Chemscore.DEClash>
1.5476

> <Gold.Chemscore.DEInternal>
0.9292

> <Gold.Chemscore.Rot>
1.8102

> <Gold.Chemscore.Internal.Correction>
   9.000000E+99

> <Gold.Chemscore.Hbonds>
donor molecule, donor type, donor heavy atom, donor atom, acceptor molecule, acceptor atom, score
      L1  H    16    22       P1  7948  0.96
      P1  H  7954  7966       L1     9  0.87

> <Gold.Chemscore.Hbond.Weighted>
-6.5947

> <Gold.Chemscore.Metal.Weighted>
-0.0000

> <Gold.Chemscore.Lipo.Weighted>
-9.6689

> <Gold.Chemscore.Internal_Hbond.Weighted>
0.0000

> <Gold.Chemscore.DEClash.Weighted>
1.5476

> <Gold.Chemscore.DEInternal.Weighted>
0.9292

> <Gold.Chemscore.Rot.Weighted>
4.6341

> <Gold.Chemscore.Internal.Correction.Weighted>
   9.000000E+99

> <Gold.Protein.RotatedTorsions>
[ 6907 6896 6895 6894 ] final   74.71 input  -60.11 | X-H torsion
[ 7974 7965 7964 7962 ] final   38.59 input  175.53 | X-H torsion
[ 8008 7997 7996 7995 ] final  124.07 input   59.86 | X-H torsion
[ 10167 10162 10161 10158 ] final -144.11 input  -65.29 | X-H torsion
[ 10718 10713 10712 10709 ] final  -53.45 input   66.30 | X-H torsion
[ 10763 10752 10751 10750 ] final  -13.33 input  -60.55 | X-H torsion
[ 11005 11000 10999 10996 ] final  -34.72 input  -57.11 | X-H torsion

> <Gold.Protein.ActiveResidues>
 VAL166  LYS551  ARG553  GLY616  TRP617  ASP618  TYR619  PRO620  LYS621  CYS622 
 ASP623  PHE694  ASN695  SER759  ASP760  ASP761  ALA762  ILE779  LEU786  VAL792 
 PHE793  MET794  SER795  GLU796  ALA797  LYS798  CYS799  TRP800  GLU811  SER814 

> <Gold.Protein.RotatedAtoms>
  152.4989  134.4230  159.9486 H   0  0  0  0  0  0  0  0  0  0  0  0  # atno 6907 bound_to 6896
  151.4204  133.3694  159.2763 H   0  0  0  0  0  0  0  0  0  0  0  0  # atno 6908 bound_to 6896
  150.9226  134.8666  159.7559 H   0  0  0  0  0  0  0  0  0  0  0  0  # atno 6909 bound_to 6896
  146.1050  139.5754  142.9389 H   0  0  0  0  0  0  0  0  0  0  0  0  # atno 7974 bound_to 7965
  156.2788  140.2748  156.1729 H   0  0  0  0  0  0  0  0  0  0  0  0  # atno 8008 bound_to 7997
  155.0636  140.0387  157.2603 H   0  0  0  0  0  0  0  0  0  0  0  0  # atno 8009 bound_to 7997
  154.7097  140.2666  155.6647 H   0  0  0  0  0  0  0  0  0  0  0  0  # atno 8010 bound_to 7997
  139.7930  143.7939  152.2651 H   0  0  0  0  0  0  0  0  0  0  0  0  # atno 10167 bound_to 10162
  156.1534  130.4151  149.9908 H   0  0  0  0  0  0  0  0  0  0  0  0  # atno 10718 bound_to 10713
  153.5116  135.7016  153.5778 H   0  0  0  0  0  0  0  0  0  0  0  0  # atno 10763 bound_to 10752
  153.3865  135.3907  155.1893 H   0  0  0  0  0  0  0  0  0  0  0  0  # atno 10764 bound_to 10752
  154.8702  135.3848  154.4597 H   0  0  0  0  0  0  0  0  0  0  0  0  # atno 10765 bound_to 10752
  140.9739  133.7094  156.1569 H   0  0  0  0  0  0  0  0  0  0  0  0  # atno 11005 bound_to 11000
  145.5778  141.0386  143.2139 LP  0  0  0  0  0  0  0  0  0  0  0  0  # atno 17320 bound_to 7965
  144.7464  139.7310  143.7290 LP  0  0  0  0  0  0  0  0  0  0  0  0  # atno 17321 bound_to 7965
  139.8036  144.7364  150.9791 LP  0  0  0  0  0  0  0  0  0  0  0  0  # atno 17342 bound_to 10162
  140.7820  143.4320  151.0680 LP  0  0  0  0  0  0  0  0  0  0  0  0  # atno 17343 bound_to 10162
  156.7759  130.9203  151.3645 LP  0  0  0  0  0  0  0  0  0  0  0  0  # atno 17370 bound_to 10713
  157.6675  130.9021  149.9966 LP  0  0  0  0  0  0  0  0  0  0  0  0  # atno 17371 bound_to 10713
  140.7289  134.4277  157.5568 LP  0  0  0  0  0  0  0  0  0  0  0  0  # atno 17394 bound_to 11000
  139.8923  134.8759  156.2279 LP  0  0  0  0  0  0  0  0  0  0  0  0  # atno 17395 bound_to 11000

$$$$
