AV-unprocessed.smi:1570|AV-procd|sdf|6313|dock6
  -GOLD-   22720 6513D 1   1.00000     0.00000
 Structure written by MMmdl.
 51 53  0  0  0  0  0  0  0  0  1 V2000
  155.0710  140.6613  160.9023 C   0  0  0  0  0  0  0  0  0  0  0  0
  153.7002  140.0798  160.5347 C   0  0  0  0  0  0  0  0  0  0  0  0
  152.9412  141.0037  159.6954 N   0  0  0  0  0  0  0  0  0  0  0  0
  152.5308  140.7858  158.4241 C   0  0  0  0  0  0  0  0  0  0  0  0
  152.7337  139.7664  157.7645 O   0  0  0  0  0  0  0  0  0  0  0  0
  151.8523  141.8807  158.0056 N   0  0  0  0  0  0  0  0  0  0  0  0
  151.2522  142.0759  156.6837 C   0  0  0  0  0  0  0  0  0  0  0  0
  149.7948  141.5648  156.6082 C   0  0  1  0  0  0  0  0  0  0  0  0
  148.9525  142.3853  157.3909 O   0  0  0  0  0  0  0  0  0  0  0  0
  149.2181  141.3983  155.1819 C   0  0  0  0  0  0  0  0  0  0  0  0
  148.2475  140.3190  154.9890 N   0  0  0  0  0  0  0  0  0  0  0  0
  148.5776  139.1119  155.7406 C   0  0  0  0  0  0  0  0  0  0  0  0
  147.5435  137.9918  155.5148 C   0  0  2  0  0  0  0  0  0  0  0  0
  147.9340  136.6919  156.2256 C   0  0  0  0  0  0  0  0  0  0  0  0
  147.4363  137.7249  154.1191 O   0  0  0  0  0  0  0  0  0  0  0  0
  147.0677  138.8689  153.3541 C   0  0  2  0  0  0  0  0  0  0  0  0
  146.9681  138.4553  151.8823 C   0  0  0  0  0  0  0  0  0  0  0  0
  148.1125  139.9776  153.5786 C   0  0  0  0  0  0  0  0  0  0  0  0
  151.7983  142.8135  159.0548 C   0  0  0  0  0  0  0  0  0  0  0  0
  151.2005  144.0841  159.1412 C   0  0  0  0  0  0  0  0  0  0  0  0
  151.3404  144.7866  160.3605 C   0  0  0  0  0  0  0  0  0  0  0  0
  152.0525  144.2190  161.4480 C   0  0  0  0  0  0  0  0  0  0  0  0
  152.6396  142.9371  161.3388 C   0  0  0  0  0  0  0  0  0  0  0  0
  152.4893  142.2627  160.1142 C   0  0  0  0  0  0  0  0  0  0  0  0
  155.6357  139.9621  161.5191 H   0  0  0  0  0  0  0  0  0  0  0  0
  154.9678  141.5906  161.4638 H   0  0  0  0  0  0  0  0  0  0  0  0
  155.6631  140.8715  160.0111 H   0  0  0  0  0  0  0  0  0  0  0  0
  153.8242  139.1292  160.0152 H   0  0  0  0  0  0  0  0  0  0  0  0
  153.1376  139.8556  161.4421 H   0  0  0  0  0  0  0  0  0  0  0  0
  151.2806  143.1404  156.4458 H   0  0  0  0  0  0  0  0  0  0  0  0
  151.8584  141.5893  155.9201 H   0  0  0  0  0  0  0  0  0  0  0  0
  149.7503  140.5854  157.0852 H   0  0  0  0  0  0  0  0  0  0  0  0
  148.8172  143.1999  156.9309 H   0  0  0  0  0  0  0  0  0  0  0  0
  148.7199  142.3391  154.9435 H   0  0  0  0  0  0  0  0  0  0  0  0
  150.0285  141.3123  154.4564 H   0  0  0  0  0  0  0  0  0  0  0  0
  149.5691  138.7585  155.4529 H   0  0  0  0  0  0  0  0  0  0  0  0
  148.6202  139.3324  156.8063 H   0  0  0  0  0  0  0  0  0  0  0  0
  146.5697  138.3143  155.8867 H   0  0  0  0  0  0  0  0  0  0  0  0
  148.0177  136.8435  157.3020 H   0  0  0  0  0  0  0  0  0  0  0  0
  148.8922  136.3172  155.8643 H   0  0  0  0  0  0  0  0  0  0  0  0
  147.1873  135.9160  156.0563 H   0  0  0  0  0  0  0  0  0  0  0  0
  146.0880  139.2166  153.6866 H   0  0  0  0  0  0  0  0  0  0  0  0
  146.6749  139.2990  151.2570 H   0  0  0  0  0  0  0  0  0  0  0  0
  146.2251  137.6686  151.7485 H   0  0  0  0  0  0  0  0  0  0  0  0
  147.9224  138.0791  151.5124 H   0  0  0  0  0  0  0  0  0  0  0  0
  147.8212  140.8631  153.0122 H   0  0  0  0  0  0  0  0  0  0  0  0
  149.0774  139.6566  153.1830 H   0  0  0  0  0  0  0  0  0  0  0  0
  150.6613  144.5181  158.3130 H   0  0  0  0  0  0  0  0  0  0  0  0
  150.9002  145.7676  160.4635 H   0  0  0  0  0  0  0  0  0  0  0  0
  152.1467  144.7720  162.3710 H   0  0  0  0  0  0  0  0  0  0  0  0
  153.1798  142.4990  162.1647 H   0  0  0  0  0  0  0  0  0  0  0  0
  1  2  1  0  0  0  0
  1 25  1  0  0  0  0
  1 26  1  0  0  0  0
  1 27  1  0  0  0  0
  2  3  1  0  0  0  0
  2 28  1  0  0  0  0
  2 29  1  0  0  0  0
  3 24  1  0  0  0  0
  3  4  1  0  0  0  0
  4  5  2  0  0  0  0
  4  6  1  0  0  0  0
  6  7  1  0  0  0  0
  6 19  1  0  0  0  0
  7  8  1  0  0  0  0
  7 30  1  0  0  0  0
  7 31  1  0  0  0  0
  8  9  1  0  0  0  0
  8 10  1  0  0  0  0
  8 32  1  0  0  0  0
  9 33  1  0  0  0  0
 10 11  1  0  0  0  0
 10 34  1  0  0  0  0
 10 35  1  0  0  0  0
 11 18  1  0  0  0  0
 11 12  1  0  0  0  0
 12 13  1  0  0  0  0
 12 36  1  0  0  0  0
 12 37  1  0  0  0  0
 13 14  1  0  0  0  0
 13 15  1  0  0  0  0
 13 38  1  0  0  0  0
 14 39  1  0  0  0  0
 14 40  1  0  0  0  0
 14 41  1  0  0  0  0
 15 16  1  0  0  0  0
 16 17  1  0  0  0  0
 16 18  1  0  0  0  0
 16 42  1  0  0  0  0
 17 43  1  0  0  0  0
 17 44  1  0  0  0  0
 17 45  1  0  0  0  0
 18 46  1  0  0  0  0
 18 47  1  0  0  0  0
 19 24  2  0  0  0  0
 19 20  1  0  0  0  0
 20 21  2  0  0  0  0
 20 48  1  0  0  0  0
 21 22  1  0  0  0  0
 21 49  1  0  0  0  0
 22 23  2  0  0  0  0
 22 50  1  0  0  0  0
 23 24  1  0  0  0  0
 23 51  1  0  0  0  0
M  END
> <s_m_source_file>
AV-unprocessed.smi

> <i_m_source_file_index>
1570

> <i_lp_mmshare_version>
43012

> <i_f3d_flags>
0

> <s_epik_input>
W2NIXTFbY0hdW2NIXVtjSF1jKGMxMiluKFtDSDJdW0NIM10pYyg9TyluMltDSDJdW0NASF0oW09IXSlbQ0gyXU4zW0NIMl1bQ0BASF0oW0NIM10pT1tDQEBIXShbQ0gzXSlbQ0gyXTM=

> <s_epik_cmdline>
J2VwaWtfcHl0aG9uJywgJy1waCcsICc3LjAnLCAnLXRuJywgJzgnLCAnLW1hJywgJzIwMCcsICctbWV0YWxfYmluZGluZycsICctaW1hZScsICc8aW5maWxlLm1hZT4nLCAnLW9tYWUnLCAnPG91dGZpbGUubWFlPic=

> <r_epik_Ionization_Penalty>
0.214359

> <r_epik_Ionization_Penalty_Charging>
2.30976e-09

> <r_epik_Ionization_Penalty_Neutral>
0.214359

> <r_epik_State_Penalty>
0.204533

> <r_epik_Charging_Adjusted_Penalty>
0.204533

> <i_epik_Tot_Q>
0

> <i_epik_Tot_abs_Q>
0

> <r_epik_Metal_State_Penalty>
0.204533

> <b_epik_Metal_Only>
0

> <s_lp_Force_Field>
OPLS_2005

> <r_lp_Energy>
59.6928

> <b_lp_Chiralities_Consistent>
1

> <s_lp_Variant>
AV-unprocessed.smi:1570-2

> <Gold.Version>
5.8.1

> <Gold.Id.Protein>
6NUR|6NUR_protein|mol2

> <Gold.PLP.Fitness>
50.1459

> <Gold.PLP.PLP>
-46.0790

> <Gold.PLP.part.hbond>
-2.0000

> <Gold.PLP.part.metal>
0.0000

> <Gold.PLP.part.buried>
-4.6978

> <Gold.PLP.part.nonpolar>
-40.7009

> <Gold.PLP.part.repulsive>
0.2078

> <Gold.PLP.ligand.clash>
0.0000

> <Gold.PLP.ligand.torsion>
1.0209

> <Gold.PLP.Chemscore.Hbond>
2.0000

> <Gold.PLP.Chemscore.CHOScore>
0.0000

> <Gold.PLP.Chemscore.Metal>
0.0000

> <Gold.Chemscore.Hbonds>
donor molecule, donor type, donor heavy atom, donor atom, acceptor molecule, acceptor atom, score
      L1  H     9    33       P1  8028  1.00
      P1  H  7997  8010       L1     5  1.00

> <Gold.PLP.Chemscore.Internal.Correction>
0.1088

> <Gold.Rescore>
     Score         DG    S(hbond)    S(metal)    S(lipo)     H(rot)  DE(clash)    DE(int)     intcor
     18.66     -20.40       1.46        0.00     130.77       2.06       0.89       0.85       ----

> <Gold.Chemscore.Fitness>
18.6565

> <Gold.Chemscore.DG>
-20.4005

> <Gold.Chemscore.ZeroCoef>
-5.4800

> <Gold.Chemscore.Hbond>
1.4634

> <Gold.Chemscore.Metal>
0.0000

> <Gold.Chemscore.Lipo>
130.7659

> <Gold.Chemscore.Internal_Hbond>
0.0000

> <Gold.Chemscore.DEClash>
0.8912

> <Gold.Chemscore.DEInternal>
0.8528

> <Gold.Chemscore.Rot>
2.0574

> <Gold.Chemscore.Internal.Correction>
   9.000000E+99

> <Gold.Chemscore.Hbonds>
donor molecule, donor type, donor heavy atom, donor atom, acceptor molecule, acceptor atom, score
      L1  H     9    33       P1  8028  0.68
      P1  H  7997  8010       L1     5  0.49

> <Gold.Chemscore.Hbond.Weighted>
-4.8878

> <Gold.Chemscore.Metal.Weighted>
-0.0000

> <Gold.Chemscore.Lipo.Weighted>
-15.2996

> <Gold.Chemscore.Internal_Hbond.Weighted>
0.0000

> <Gold.Chemscore.DEClash.Weighted>
0.8912

> <Gold.Chemscore.DEInternal.Weighted>
0.8528

> <Gold.Chemscore.Rot.Weighted>
5.2669

> <Gold.Chemscore.Internal.Correction.Weighted>
   9.000000E+99

> <Gold.Protein.RotatedTorsions>
[ 6907 6896 6895 6894 ] final -174.24 input  -60.11 | X-H torsion
[ 7974 7965 7964 7962 ] final  -60.72 input  175.53 | X-H torsion
[ 8008 7997 7996 7995 ] final   45.43 input   59.86 | X-H torsion
[ 10167 10162 10161 10158 ] final  -41.13 input  -65.29 | X-H torsion
[ 10718 10713 10712 10709 ] final  120.60 input   66.30 | X-H torsion
[ 10763 10752 10751 10750 ] final  -98.40 input  -60.55 | X-H torsion
[ 11005 11000 10999 10996 ] final   57.39 input  -57.11 | X-H torsion

> <Gold.Protein.ActiveResidues>
 VAL166  LYS551  ARG553  GLY616  TRP617  ASP618  TYR619  PRO620  LYS621  CYS622 
 ASP623  PHE694  ASN695  SER759  ASP760  ASP761  ALA762  ILE779  LEU786  VAL792 
 PHE793  MET794  SER795  GLU796  ALA797  LYS798  CYS799  TRP800  GLU811  SER814 

> <Gold.Protein.RotatedAtoms>
  151.5691  133.3392  159.2985 H   0  0  0  0  0  0  0  0  0  0  0  0  # atno 6907 bound_to 6896
  150.8378  134.7661  159.6918 H   0  0  0  0  0  0  0  0  0  0  0  0  # atno 6908 bound_to 6896
  152.4451  134.5518  159.9920 H   0  0  0  0  0  0  0  0  0  0  0  0  # atno 6909 bound_to 6896
  145.8121  140.8592  143.0176 H   0  0  0  0  0  0  0  0  0  0  0  0  # atno 7974 bound_to 7965
  155.3357  140.3405  155.4239 H   0  0  0  0  0  0  0  0  0  0  0  0  # atno 8008 bound_to 7997
  156.1839  140.1673  156.8259 H   0  0  0  0  0  0  0  0  0  0  0  0  # atno 8009 bound_to 7997
  154.5364  140.0734  156.8418 H   0  0  0  0  0  0  0  0  0  0  0  0  # atno 8010 bound_to 7997
  140.7012  143.3112  151.3023 H   0  0  0  0  0  0  0  0  0  0  0  0  # atno 10167 bound_to 10162
  157.5879  131.1068  150.8057 H   0  0  0  0  0  0  0  0  0  0  0  0  # atno 10718 bound_to 10713
  154.7411  135.5011  153.9124 H   0  0  0  0  0  0  0  0  0  0  0  0  # atno 10763 bound_to 10752
  153.1044  135.6693  153.9621 H   0  0  0  0  0  0  0  0  0  0  0  0  # atno 10764 bound_to 10752
  153.9398  135.3069  155.3422 H   0  0  0  0  0  0  0  0  0  0  0  0  # atno 10765 bound_to 10752
  140.0456  134.5810  155.9326 H   0  0  0  0  0  0  0  0  0  0  0  0  # atno 11005 bound_to 11000
  144.6756  140.0411  143.7481 LP  0  0  0  0  0  0  0  0  0  0  0  0  # atno 17320 bound_to 7965
  145.9766  139.2909  143.1067 LP  0  0  0  0  0  0  0  0  0  0  0  0  # atno 17321 bound_to 7965
  139.6536  144.0318  152.2643 LP  0  0  0  0  0  0  0  0  0  0  0  0  # atno 17342 bound_to 10162
  139.9862  144.6394  150.7856 LP  0  0  0  0  0  0  0  0  0  0  0  0  # atno 17343 bound_to 10162
  156.8486  130.5073  149.5314 LP  0  0  0  0  0  0  0  0  0  0  0  0  # atno 17370 bound_to 10713
  156.0930  130.5911  150.9766 LP  0  0  0  0  0  0  0  0  0  0  0  0  # atno 17371 bound_to 10713
  141.1905  133.6569  156.5416 LP  0  0  0  0  0  0  0  0  0  0  0  0  # atno 17394 bound_to 11000
  140.3998  134.7366  157.4773 LP  0  0  0  0  0  0  0  0  0  0  0  0  # atno 17395 bound_to 11000

$$$$
