AV-unprocessed.smi:763|AV-procd|sdf|3641|dock1
  -GOLD-   22720 1 43D 1   1.00000     0.00000
 Structure written by MMmdl.
 43 44  0  0  0  0  0  0  0  0  2 V2000
  153.7550  137.1455  163.0627 C   0  0  0  0  0  0  0  0  0  0  0  0
  154.5708  137.2998  161.9147 O   0  0  0  0  0  0  0  0  0  0  0  0
  153.9546  136.7981  160.7403 C   0  0  0  0  0  0  0  0  0  0  0  0
  152.8721  137.7792  160.2829 C   0  0  0  0  0  0  0  0  0  0  0  0
  151.8188  137.0377  159.6768 O   0  0  0  0  0  0  0  0  0  0  0  0
  151.4938  137.2919  158.3566 C   0  0  0  0  0  0  0  0  0  0  0  0
  152.3270  138.0866  157.6380 N   0  0  0  0  0  0  0  0  0  0  0  0
  152.0216  138.3418  156.3513 C   0  0  0  0  0  0  0  0  0  0  0  0
  150.8800  137.8235  155.7183 C   0  0  0  0  0  0  0  0  0  0  0  0
  150.0199  137.0005  156.4673 C   0  0  0  0  0  0  0  0  0  0  0  0
  150.3139  136.7140  157.8231 C   0  0  0  0  0  0  0  0  0  0  0  0
  149.5351  135.9373  158.5949 N   0  5  0  0  0  0  0  0  0  0  0  0
  148.0174  135.4725  158.2769 S   0  0  0  0  0  0  0  0  0  0  0  0
  147.2530  136.5406  157.6141 O   0  0  0  0  0  0  0  0  0  0  0  0
  147.9801  134.1389  157.6570 O   0  0  0  0  0  0  0  0  0  0  0  0
  147.3087  135.2824  159.9874 C   0  0  1  0  0  0  0  0  0  0  0  0
  148.0011  134.1174  160.7267 C   0  0  0  0  0  0  0  0  0  0  0  0
  147.4493  133.9341  162.1484 C   0  0  0  0  0  0  0  0  0  0  0  0
  147.5571  135.2369  162.9534 C   0  0  0  0  0  0  0  0  0  0  0  0
  146.8245  136.3826  162.2408 C   0  0  0  0  0  0  0  0  0  0  0  0
  147.3560  136.5954  160.8109 C   0  0  2  0  0  0  0  0  0  0  0  0
  146.5644  137.5995  160.2092 O   0  0  0  0  0  0  0  0  0  0  0  0
  154.2714  137.5436  163.9361 H   0  0  0  0  0  0  0  0  0  0  0  0
  153.5355  136.0939  163.2520 H   0  0  0  0  0  0  0  0  0  0  0  0
  152.8135  137.6853  162.9529 H   0  0  0  0  0  0  0  0  0  0  0  0
  154.6985  136.6722  159.9518 H   0  0  0  0  0  0  0  0  0  0  0  0
  153.5119  135.8201  160.9359 H   0  0  0  0  0  0  0  0  0  0  0  0
  152.4990  138.3420  161.1399 H   0  0  0  0  0  0  0  0  0  0  0  0
  153.2962  138.4873  159.5691 H   0  0  0  0  0  0  0  0  0  0  0  0
  152.7072  138.9777  155.8110 H   0  0  0  0  0  0  0  0  0  0  0  0
  150.6674  138.0501  154.6842 H   0  0  0  0  0  0  0  0  0  0  0  0
  149.1407  136.5975  155.9870 H   0  0  0  0  0  0  0  0  0  0  0  0
  146.2636  135.0053  159.8454 H   0  0  0  0  0  0  0  0  0  0  0  0
  147.8768  133.1900  160.1674 H   0  0  0  0  0  0  0  0  0  0  0  0
  149.0747  134.2995  160.7825 H   0  0  0  0  0  0  0  0  0  0  0  0
  146.4067  133.6173  162.0994 H   0  0  0  0  0  0  0  0  0  0  0  0
  147.9919  133.1368  162.6570 H   0  0  0  0  0  0  0  0  0  0  0  0
  147.1406  135.0935  163.9507 H   0  0  0  0  0  0  0  0  0  0  0  0
  148.6068  135.5001  163.0891 H   0  0  0  0  0  0  0  0  0  0  0  0
  145.7570  136.1588  162.2086 H   0  0  0  0  0  0  0  0  0  0  0  0
  146.9295  137.3017  162.8185 H   0  0  0  0  0  0  0  0  0  0  0  0
  148.3816  136.9603  160.8702 H   0  0  0  0  0  0  0  0  0  0  0  0
  146.1242  137.2217  159.4617 H   0  0  0  0  0  0  0  0  0  0  0  0
  1  2  1  0  0  0  0
  1 23  1  0  0  0  0
  1 24  1  0  0  0  0
  1 25  1  0  0  0  0
  2  3  1  0  0  0  0
  3  4  1  0  0  0  0
  3 26  1  0  0  0  0
  3 27  1  0  0  0  0
  4  5  1  0  0  0  0
  4 28  1  0  0  0  0
  4 29  1  0  0  0  0
  5  6  1  0  0  0  0
  6 11  1  0  0  0  0
  6  7  2  0  0  0  0
  7  8  1  0  0  0  0
  8  9  2  0  0  0  0
  8 30  1  0  0  0  0
  9 10  1  0  0  0  0
  9 31  1  0  0  0  0
 10 11  2  0  0  0  0
 10 32  1  0  0  0  0
 11 12  1  0  0  0  0
 12 13  1  0  0  0  0
 13 14  2  0  0  0  0
 13 15  2  0  0  0  0
 13 16  1  0  0  0  0
 16 21  1  0  0  0  0
 16 17  1  0  0  0  0
 16 33  1  0  0  0  0
 17 18  1  0  0  0  0
 17 34  1  0  0  0  0
 17 35  1  0  0  0  0
 18 19  1  0  0  0  0
 18 36  1  0  0  0  0
 18 37  1  0  0  0  0
 19 20  1  0  0  0  0
 19 38  1  0  0  0  0
 19 39  1  0  0  0  0
 20 21  1  0  0  0  0
 20 40  1  0  0  0  0
 20 41  1  0  0  0  0
 21 22  1  0  0  0  0
 21 42  1  0  0  0  0
 22 43  1  0  0  0  0
M  CHG  1  12  -1
M  END
> <s_m_source_file>
AV-unprocessed.smi

> <i_m_source_file_index>
763

> <i_lp_mmshare_version>
43012

> <i_f3d_flags>
0

> <s_epik_input>
W0NIM11PW0NIMl1bQ0gyXU9jMW5bY0hdW2NIXVtjSF1jMVtOSF1TKD1PKSg9TylbQ0BASF0yW0NIMl1bQ0gyXVtDSDJdW0NIMl1bQ0BIXTJbT0hd

> <s_epik_cmdline>
J2VwaWtfcHl0aG9uJywgJy1waCcsICc3LjAnLCAnLXRuJywgJzgnLCAnLW1hJywgJzIwMCcsICctbWV0YWxfYmluZGluZycsICctaW1hZScsICc8aW5maWxlLm1hZT4nLCAnLW9tYWUnLCAnPG91dGZpbGUubWFlPic=

> <r_epik_Ionization_Penalty>
0.985866

> <r_epik_Ionization_Penalty_Charging>
0.984689

> <r_epik_Ionization_Penalty_Neutral>
0.00117669

> <r_epik_State_Penalty>
1.03185

> <r_epik_Charging_Adjusted_Penalty>
2.01654

> <i_epik_Tot_Q>
-1

> <i_epik_Tot_abs_Q>
1

> <r_epik_Metal_State_Penalty>
0.379327

> <b_epik_Metal_Only>
0

> <s_lp_Force_Field>
OPLS_2005

> <r_lp_Energy>
12.3321

> <b_lp_Chiralities_Consistent>
1

> <s_lp_Variant>
AV-unprocessed.smi:763-8

> <Gold.Version>
5.8.1

> <Gold.Id.Protein>
6NUR|6NUR_protein|mol2

> <Gold.PLP.Fitness>
39.6829

> <Gold.PLP.PLP>
-30.3583

> <Gold.PLP.part.hbond>
-3.0000

> <Gold.PLP.part.metal>
0.0000

> <Gold.PLP.part.buried>
-5.0099

> <Gold.PLP.part.nonpolar>
-23.7672

> <Gold.PLP.part.repulsive>
0.0000

> <Gold.PLP.ligand.clash>
0.0000

> <Gold.PLP.ligand.torsion>
1.4633

> <Gold.PLP.Chemscore.Hbond>
3.6240

> <Gold.PLP.Chemscore.CHOScore>
0.0000

> <Gold.PLP.Chemscore.Metal>
0.0000

> <Gold.Chemscore.Hbonds>
donor molecule, donor type, donor heavy atom, donor atom, acceptor molecule, acceptor atom, score
      P1  H  6896  6907       L1     5  0.44
      P1  H  6896  6909       L1    12  1.81
      P1  H  6934  6947       L1    22  1.00

> <Gold.PLP.Chemscore.Internal.Correction>
1.3791

> <Gold.Rescore>
     Score         DG    S(hbond)    S(metal)    S(lipo)     H(rot)  DE(clash)    DE(int)     intcor
     14.10     -15.52       2.03        0.00      79.44       2.35       0.02       1.40       ----

> <Gold.Chemscore.Fitness>
14.1020

> <Gold.Chemscore.DG>
-15.5200

> <Gold.Chemscore.ZeroCoef>
-5.4800

> <Gold.Chemscore.Hbond>
2.0252

> <Gold.Chemscore.Metal>
0.0000

> <Gold.Chemscore.Lipo>
79.4377

> <Gold.Chemscore.Internal_Hbond>
0.0000

> <Gold.Chemscore.DEClash>
0.0202

> <Gold.Chemscore.DEInternal>
1.3978

> <Gold.Chemscore.Rot>
2.3509

> <Gold.Chemscore.Internal.Correction>
   9.000000E+99

> <Gold.Chemscore.Hbonds>
donor molecule, donor type, donor heavy atom, donor atom, acceptor molecule, acceptor atom, score
      P1  H  6896  6907       L1     5  0.26
      P1  H  6896  6909       L1    12  0.54
      P1  H  6934  6947       L1    22  0.40

> <Gold.Chemscore.Hbond.Weighted>
-6.7641

> <Gold.Chemscore.Metal.Weighted>
-0.0000

> <Gold.Chemscore.Lipo.Weighted>
-9.2942

> <Gold.Chemscore.Internal_Hbond.Weighted>
0.0000

> <Gold.Chemscore.DEClash.Weighted>
0.0202

> <Gold.Chemscore.DEInternal.Weighted>
1.3978

> <Gold.Chemscore.Rot.Weighted>
6.0182

> <Gold.Chemscore.Internal.Correction.Weighted>
   9.000000E+99

> <Gold.Protein.RotatedTorsions>
[ 6907 6896 6895 6894 ] final   39.08 input  -60.11 | X-H torsion
[ 7974 7965 7964 7962 ] final   92.74 input  175.53 | X-H torsion
[ 8008 7997 7996 7995 ] final  112.77 input   59.86 | X-H torsion
[ 10167 10162 10161 10158 ] final   48.11 input  -65.29 | X-H torsion
[ 10718 10713 10712 10709 ] final   47.47 input   66.30 | X-H torsion
[ 10763 10752 10751 10750 ] final   77.06 input  -60.55 | X-H torsion
[ 11005 11000 10999 10996 ] final   59.97 input  -57.11 | X-H torsion

> <Gold.Protein.ActiveResidues>
 VAL166  LYS551  ARG553  GLY616  TRP617  ASP618  TYR619  PRO620  LYS621  CYS622 
 ASP623  PHE694  ASN695  SER759  ASP760  ASP761  ALA762  ILE779  LEU786  VAL792 
 PHE793  MET794  SER795  GLU796  ALA797  LYS798  CYS799  TRP800  GLU811  SER814 

> <Gold.Protein.RotatedAtoms>
  152.1649  134.8882  160.0538 H   0  0  0  0  0  0  0  0  0  0  0  0  # atno 6907 bound_to 6896
  151.9863  133.3770  159.4135 H   0  0  0  0  0  0  0  0  0  0  0  0  # atno 6908 bound_to 6896
  150.6893  134.3907  159.5119 H   0  0  0  0  0  0  0  0  0  0  0  0  # atno 6909 bound_to 6896
  145.4883  139.2277  143.2844 H   0  0  0  0  0  0  0  0  0  0  0  0  # atno 7974 bound_to 7965
  156.2214  140.2993  155.9961 H   0  0  0  0  0  0  0  0  0  0  0  0  # atno 8008 bound_to 7997
  155.2471  140.0424  157.2999 H   0  0  0  0  0  0  0  0  0  0  0  0  # atno 8009 bound_to 7997
  154.5846  140.2385  155.8013 H   0  0  0  0  0  0  0  0  0  0  0  0  # atno 8010 bound_to 7997
  140.2967  144.2982  150.6228 H   0  0  0  0  0  0  0  0  0  0  0  0  # atno 10167 bound_to 10162
  157.4588  130.8183  149.7864 H   0  0  0  0  0  0  0  0  0  0  0  0  # atno 10718 bound_to 10713
  153.0771  135.4928  154.8426 H   0  0  0  0  0  0  0  0  0  0  0  0  # atno 10763 bound_to 10752
  154.7102  135.3018  154.9211 H   0  0  0  0  0  0  0  0  0  0  0  0  # atno 10764 bound_to 10752
  153.9908  135.6778  153.4807 H   0  0  0  0  0  0  0  0  0  0  0  0  # atno 10765 bound_to 10752
  140.0265  134.6074  155.9565 H   0  0  0  0  0  0  0  0  0  0  0  0  # atno 11005 bound_to 11000
  146.2300  140.5675  142.8980 LP  0  0  0  0  0  0  0  0  0  0  0  0  # atno 17320 bound_to 7965
  144.7849  140.5915  143.6581 LP  0  0  0  0  0  0  0  0  0  0  0  0  # atno 17321 bound_to 7965
  140.5686  143.2183  151.7639 LP  0  0  0  0  0  0  0  0  0  0  0  0  # atno 17342 bound_to 10162
  139.4925  144.4248  151.9937 LP  0  0  0  0  0  0  0  0  0  0  0  0  # atno 17343 bound_to 10162
  156.0019  130.3875  150.2573 LP  0  0  0  0  0  0  0  0  0  0  0  0  # atno 17370 bound_to 10713
  157.0749  131.0127  151.3177 LP  0  0  0  0  0  0  0  0  0  0  0  0  # atno 17371 bound_to 10713
  141.1806  133.6546  156.5004 LP  0  0  0  0  0  0  0  0  0  0  0  0  # atno 17394 bound_to 11000
  140.4297  134.7113  157.4935 LP  0  0  0  0  0  0  0  0  0  0  0  0  # atno 17395 bound_to 11000

$$$$
