AV-unprocessed.smi:2724|AV-procd|sdf|10513|dock9
  -GOLD-   2272014553D 1   1.00000     0.00000
 Structure written by MMmdl.
 26 27  0  0  0  0  0  0  0  0  2 V2000
  151.9858  140.2885  155.4171 O   0  0  0  0  0  0  0  0  0  0  0  0
  151.8607  139.3488  156.4678 C   0  0  2  0  0  0  0  0  0  0  0  0
  150.6962  138.3891  156.1771 C   0  0  0  0  0  0  0  0  0  0  0  0
  150.0827  138.0801  157.5416 C   0  0  0  0  0  0  0  0  0  0  0  0
  150.2085  139.3999  158.2988 C   0  0  0  0  0  0  0  0  0  0  0  0
  151.5721  139.9620  157.8630 C   0  0  2  0  0  0  0  0  0  0  0  0
  151.6949  141.4805  157.9748 C   0  0  0  0  0  0  0  0  0  0  0  0
  152.6948  142.0540  158.7931 C   0  0  0  0  0  0  0  0  0  0  0  0
  152.7987  143.4575  158.8865 C   0  0  0  0  0  0  0  0  0  0  0  0
  151.8997  144.2624  158.1585 C   0  0  0  0  0  0  0  0  0  0  0  0
  150.9568  143.6834  157.3841 N   0  3  0  0  0  0  0  0  0  0  0  0
  150.8246  142.3439  157.2692 C   0  0  0  0  0  0  0  0  0  0  0  0
  152.4096  141.0629  155.7543 H   0  0  0  0  0  0  0  0  0  0  0  0
  152.7938  138.7855  156.5159 H   0  0  0  0  0  0  0  0  0  0  0  0
  149.9432  138.8811  155.5587 H   0  0  0  0  0  0  0  0  0  0  0  0
  151.0168  137.4907  155.6487 H   0  0  0  0  0  0  0  0  0  0  0  0
  149.0516  137.7332  157.4691 H   0  0  0  0  0  0  0  0  0  0  0  0
  150.6632  137.3053  158.0442 H   0  0  0  0  0  0  0  0  0  0  0  0
  149.3947  140.0517  157.9806 H   0  0  0  0  0  0  0  0  0  0  0  0
  150.1277  139.2810  159.3798 H   0  0  0  0  0  0  0  0  0  0  0  0
  152.3070  139.5306  158.5449 H   0  0  0  0  0  0  0  0  0  0  0  0
  153.3796  141.4275  159.3461 H   0  0  0  0  0  0  0  0  0  0  0  0
  153.5581  143.9095  159.5078 H   0  0  0  0  0  0  0  0  0  0  0  0
  151.9072  145.3426  158.1706 H   0  0  0  0  0  0  0  0  0  0  0  0
  150.0364  142.0068  156.6119 H   0  0  0  0  0  0  0  0  0  0  0  0
  150.3172  144.2832  156.8620 H   0  0  0  0  0  0  0  0  0  0  0  0
  1  2  1  0  0  0  0
  1 13  1  0  0  0  0
  2  6  1  0  0  0  0
  2  3  1  0  0  0  0
  2 14  1  0  0  0  0
  3  4  1  0  0  0  0
  3 15  1  0  0  0  0
  3 16  1  0  0  0  0
  4  5  1  0  0  0  0
  4 17  1  0  0  0  0
  4 18  1  0  0  0  0
  5  6  1  0  0  0  0
  5 19  1  0  0  0  0
  5 20  1  0  0  0  0
  6  7  1  0  0  0  0
  6 21  1  0  0  0  0
  7 12  1  0  0  0  0
  7  8  2  0  0  0  0
  8  9  1  0  0  0  0
  8 22  1  0  0  0  0
  9 10  2  0  0  0  0
  9 23  1  0  0  0  0
 10 11  1  0  0  0  0
 10 24  1  0  0  0  0
 11 12  2  0  0  0  0
 11 26  1  0  0  0  0
 12 25  1  0  0  0  0
M  CHG  1  11   1
M  END
> <s_m_source_file>
AV-unprocessed.smi

> <i_m_source_file_index>
2724

> <i_lp_mmshare_version>
43012

> <i_f3d_flags>
0

> <s_epik_input>
W09IXVtDQEBIXTFbQ0gyXVtDSDJdW0NIMl1bQ0BIXTFjMltjSF1bY0hdW2NIXW5bY0hdMg==

> <s_epik_cmdline>
J2VwaWtfcHl0aG9uJywgJy1waCcsICc3LjAnLCAnLXRuJywgJzgnLCAnLW1hJywgJzIwMCcsICctbWV0YWxfYmluZGluZycsICctaW1hZScsICc8aW5maWxlLm1hZT4nLCAnLW9tYWUnLCAnPG91dGZpbGUubWFlPic=

> <r_epik_Ionization_Penalty>
2.09455

> <r_epik_Ionization_Penalty_Charging>
2.09455

> <r_epik_Ionization_Penalty_Neutral>
5.26757e-08

> <r_epik_State_Penalty>
2.23025

> <r_epik_Charging_Adjusted_Penalty>
4.3248

> <i_epik_Tot_Q>
1

> <i_epik_Tot_abs_Q>
1

> <r_epik_Metal_State_Penalty>
6.30911

> <b_epik_Metal_Only>
0

> <s_lp_Force_Field>
OPLS_2005

> <r_lp_Energy>
31.8011

> <b_lp_Chiralities_Consistent>
1

> <s_lp_Variant>
AV-unprocessed.smi:2724-7

> <Gold.Version>
5.8.1

> <Gold.Id.Protein>
6NUR|6NUR_protein|mol2

> <Gold.PLP.Fitness>
31.9674

> <Gold.PLP.PLP>
-23.7909

> <Gold.PLP.part.hbond>
-2.0000

> <Gold.PLP.part.metal>
0.0000

> <Gold.PLP.part.buried>
-3.2453

> <Gold.PLP.part.nonpolar>
-18.7531

> <Gold.PLP.part.repulsive>
0.0002

> <Gold.PLP.ligand.clash>
0.0000

> <Gold.PLP.ligand.torsion>
0.0250

> <Gold.PLP.Chemscore.Hbond>
2.7360

> <Gold.PLP.Chemscore.CHOScore>
0.0000

> <Gold.PLP.Chemscore.Metal>
0.0000

> <Gold.Chemscore.Hbonds>
donor molecule, donor type, donor heavy atom, donor atom, acceptor molecule, acceptor atom, score
      L1  H    11    26       P1  8028  2.00
      P1  H  7989  7998       L1     1  0.70

> <Gold.PLP.Chemscore.Internal.Correction>
0.0185

> <Gold.Rescore>
     Score         DG    S(hbond)    S(metal)    S(lipo)     H(rot)  DE(clash)    DE(int)     intcor
     13.56     -14.80       1.25        0.00      73.48       1.35       0.21       1.03       ----

> <Gold.Chemscore.Fitness>
13.5596

> <Gold.Chemscore.DG>
-14.7951

> <Gold.Chemscore.ZeroCoef>
-5.4800

> <Gold.Chemscore.Hbond>
1.2493

> <Gold.Chemscore.Metal>
0.0000

> <Gold.Chemscore.Lipo>
73.4811

> <Gold.Chemscore.Internal_Hbond>
0.0000

> <Gold.Chemscore.DEClash>
0.2096

> <Gold.Chemscore.DEInternal>
1.0259

> <Gold.Chemscore.Rot>
1.3496

> <Gold.Chemscore.Internal.Correction>
   9.000000E+99

> <Gold.Chemscore.Hbonds>
donor molecule, donor type, donor heavy atom, donor atom, acceptor molecule, acceptor atom, score
      L1  H    11    26       P1  8028  0.95
      P1  H  7989  7998       L1     1  0.15

> <Gold.Chemscore.Hbond.Weighted>
-4.1728

> <Gold.Chemscore.Metal.Weighted>
-0.0000

> <Gold.Chemscore.Lipo.Weighted>
-8.5973

> <Gold.Chemscore.Internal_Hbond.Weighted>
0.0000

> <Gold.Chemscore.DEClash.Weighted>
0.2096

> <Gold.Chemscore.DEInternal.Weighted>
1.0259

> <Gold.Chemscore.Rot.Weighted>
3.4550

> <Gold.Chemscore.Internal.Correction.Weighted>
   9.000000E+99

> <Gold.Protein.RotatedTorsions>
[ 6907 6896 6895 6894 ] final -113.41 input  -60.11 | X-H torsion
[ 7974 7965 7964 7962 ] final  120.70 input  175.53 | X-H torsion
[ 8008 7997 7996 7995 ] final  -45.94 input   59.86 | X-H torsion
[ 10167 10162 10161 10158 ] final  179.44 input  -65.29 | X-H torsion
[ 10718 10713 10712 10709 ] final  -69.84 input   66.30 | X-H torsion
[ 10763 10752 10751 10750 ] final  -64.58 input  -60.55 | X-H torsion
[ 11005 11000 10999 10996 ] final  -70.35 input  -57.11 | X-H torsion

> <Gold.Protein.ActiveResidues>
 VAL166  LYS551  ARG553  GLY616  TRP617  ASP618  TYR619  PRO620  LYS621  CYS622 
 ASP623  PHE694  ASN695  SER759  ASP760  ASP761  ALA762  ILE779  LEU786  VAL792 
 PHE793  MET794  SER795  GLU796  ALA797  LYS798  CYS799  TRP800  GLU811  SER814 

> <Gold.Protein.RotatedAtoms>
  150.7827  133.8949  159.3324 H   0  0  0  0  0  0  0  0  0  0  0  0  # atno 6907 bound_to 6896
  151.6808  135.0960  160.0225 H   0  0  0  0  0  0  0  0  0  0  0  0  # atno 6908 bound_to 6896
  152.3882  133.6603  159.6252 H   0  0  0  0  0  0  0  0  0  0  0  0  # atno 6909 bound_to 6896
  145.1281  139.3345  143.4679 H   0  0  0  0  0  0  0  0  0  0  0  0  # atno 7974 bound_to 7965
  154.4004  140.1384  156.3929 H   0  0  0  0  0  0  0  0  0  0  0  0  # atno 8008 bound_to 7997
  155.7897  140.3479  155.5322 H   0  0  0  0  0  0  0  0  0  0  0  0  # atno 8009 bound_to 7997
  155.8591  140.0953  157.1615 H   0  0  0  0  0  0  0  0  0  0  0  0  # atno 8010 bound_to 7997
  139.5337  144.2560  152.0746 H   0  0  0  0  0  0  0  0  0  0  0  0  # atno 10167 bound_to 10162
  156.0436  130.4320  150.2207 H   0  0  0  0  0  0  0  0  0  0  0  0  # atno 10718 bound_to 10713
  154.3322  135.6174  153.5556 H   0  0  0  0  0  0  0  0  0  0  0  0  # atno 10763 bound_to 10752
  152.9810  135.5749  154.4949 H   0  0  0  0  0  0  0  0  0  0  0  0  # atno 10764 bound_to 10752
  154.4637  135.2857  155.1670 H   0  0  0  0  0  0  0  0  0  0  0  0  # atno 10765 bound_to 10752
  141.1572  133.6788  156.6739 H   0  0  0  0  0  0  0  0  0  0  0  0  # atno 11005 bound_to 11000
  146.3516  140.1268  142.8598 LP  0  0  0  0  0  0  0  0  0  0  0  0  # atno 17320 bound_to 7965
  145.0666  140.9125  143.4907 LP  0  0  0  0  0  0  0  0  0  0  0  0  # atno 17321 bound_to 7965
  140.2027  144.4641  150.6423 LP  0  0  0  0  0  0  0  0  0  0  0  0  # atno 17342 bound_to 10162
  140.6530  143.2230  151.6033 LP  0  0  0  0  0  0  0  0  0  0  0  0  # atno 17343 bound_to 10162
  157.0299  131.0004  151.3315 LP  0  0  0  0  0  0  0  0  0  0  0  0  # atno 17370 bound_to 10713
  157.5285  130.8043  149.7889 LP  0  0  0  0  0  0  0  0  0  0  0  0  # atno 17371 bound_to 10713
  140.3154  134.8052  157.4210 LP  0  0  0  0  0  0  0  0  0  0  0  0  # atno 17394 bound_to 11000
  140.1143  134.5304  155.8239 LP  0  0  0  0  0  0  0  0  0  0  0  0  # atno 17395 bound_to 11000

$$$$
