AV-unprocessed.smi:2258|AV-procd|sdf|9129|dock10
  -GOLD-   2272012333D 1   1.00000     0.00000
 Structure written by MMmdl.
 40 42  0  0  0  0  0  0  0  0  1 V2000
  146.1715  130.5131  151.6893 C   0  0  0  0  0  0  0  0  0  0  0  0
  145.5506  131.8281  151.5266 N   0  0  0  0  0  0  0  0  0  0  0  0
  144.1930  131.8879  151.1828 C   0  0  0  0  0  0  0  0  0  0  0  0
  143.5763  133.0728  151.0254 C   0  0  0  0  0  0  0  0  0  0  0  0
  144.2718  134.2692  151.1991 N   0  0  0  0  0  0  0  0  0  0  0  0
  145.5387  134.2901  151.5084 C   0  0  0  0  0  0  0  0  0  0  0  0
  146.2717  135.4734  151.7041 N   0  0  0  0  0  0  0  0  0  0  0  0
  145.8630  136.7413  151.9461 C   0  0  0  0  0  0  0  0  0  0  0  0
  144.6679  136.9980  152.0789 O   0  0  0  0  0  0  0  0  0  0  0  0
  146.8218  137.6745  152.0902 N   0  0  0  0  0  0  0  0  0  0  0  0
  146.6078  139.0961  152.3471 C   0  0  0  0  0  0  0  0  0  0  0  0
  147.3012  139.5875  153.6309 C   0  0  0  0  0  0  0  0  0  0  0  0
  147.4839  141.1079  153.5138 C   0  0  0  0  0  0  0  0  0  0  0  0
  147.6248  141.9911  154.7286 C   0  0  0  0  0  0  0  0  0  0  0  0
  146.4122  142.1275  153.8296 C   0  0  0  0  0  0  0  0  0  0  0  0
  146.6794  139.1103  154.9630 C   0  0  0  0  0  0  0  0  0  0  0  0
  148.0765  138.8203  155.5045 C   0  0  0  0  0  0  0  0  0  0  0  0
  148.5358  138.7516  154.0493 C   0  0  0  0  0  0  0  0  0  0  0  0
  146.2779  132.9635  151.7100 C   0  0  0  0  0  0  0  0  0  0  0  0
  147.4708  132.9596  152.0204 O   0  0  0  0  0  0  0  0  0  0  0  0
  145.4861  129.6968  151.4589 H   0  0  0  0  0  0  0  0  0  0  0  0
  146.5118  130.3767  152.7166 H   0  0  0  0  0  0  0  0  0  0  0  0
  147.0336  130.4103  151.0285 H   0  0  0  0  0  0  0  0  0  0  0  0
  143.6974  130.9359  151.0591 H   0  0  0  0  0  0  0  0  0  0  0  0
  142.5317  133.1512  150.7615 H   0  0  0  0  0  0  0  0  0  0  0  0
  147.2753  135.3613  151.7136 H   0  0  0  0  0  0  0  0  0  0  0  0
  147.7809  137.3758  151.9847 H   0  0  0  0  0  0  0  0  0  0  0  0
  146.9286  139.6810  151.4834 H   0  0  0  0  0  0  0  0  0  0  0  0
  145.5317  139.2557  152.4197 H   0  0  0  0  0  0  0  0  0  0  0  0
  148.1098  141.3860  152.6677 H   0  0  0  0  0  0  0  0  0  0  0  0
  147.4768  141.5379  155.7065 H   0  0  0  0  0  0  0  0  0  0  0  0
  148.3743  142.7790  154.6893 H   0  0  0  0  0  0  0  0  0  0  0  0
  146.3588  143.0089  153.1938 H   0  0  0  0  0  0  0  0  0  0  0  0
  145.4594  141.7963  154.2346 H   0  0  0  0  0  0  0  0  0  0  0  0
  146.1317  139.8766  155.5125 H   0  0  0  0  0  0  0  0  0  0  0  0
  146.0850  138.2011  154.8585 H   0  0  0  0  0  0  0  0  0  0  0  0
  148.5021  139.6582  156.0572 H   0  0  0  0  0  0  0  0  0  0  0  0
  148.1665  137.8839  156.0554 H   0  0  0  0  0  0  0  0  0  0  0  0
  148.5065  137.7312  153.6632 H   0  0  0  0  0  0  0  0  0  0  0  0
  149.5078  139.2037  153.8544 H   0  0  0  0  0  0  0  0  0  0  0  0
  1  2  1  0  0  0  0
  1 21  1  0  0  0  0
  1 22  1  0  0  0  0
  1 23  1  0  0  0  0
  2 19  1  0  0  0  0
  2  3  1  0  0  0  0
  3  4  2  0  0  0  0
  3 24  1  0  0  0  0
  4  5  1  0  0  0  0
  4 25  1  0  0  0  0
  5  6  2  0  0  0  0
  6  7  1  0  0  0  0
  6 19  1  0  0  0  0
  7  8  1  0  0  0  0
  7 26  1  0  0  0  0
  8  9  2  0  0  0  0
  8 10  1  0  0  0  0
 10 11  1  0  0  0  0
 10 27  1  0  0  0  0
 11 12  1  0  0  0  0
 11 28  1  0  0  0  0
 11 29  1  0  0  0  0
 12 18  1  0  0  0  0
 12 13  1  0  0  0  0
 12 16  1  0  0  0  0
 13 15  1  0  0  0  0
 13 14  1  0  0  0  0
 13 30  1  0  0  0  0
 14 15  1  0  0  0  0
 14 31  1  0  0  0  0
 14 32  1  0  0  0  0
 15 33  1  0  0  0  0
 15 34  1  0  0  0  0
 16 17  1  0  0  0  0
 16 35  1  0  0  0  0
 16 36  1  0  0  0  0
 17 18  1  0  0  0  0
 17 37  1  0  0  0  0
 17 38  1  0  0  0  0
 18 39  1  0  0  0  0
 18 40  1  0  0  0  0
 19 20  2  0  0  0  0
M  END
> <s_m_source_file>
AV-unprocessed.smi

> <i_m_source_file_index>
2258

> <i_lp_mmshare_version>
43012

> <i_f3d_flags>
0

> <s_epik_input>
W0NIM11uMVtjSF1bY0hdbmMoYzE9TylbTkhdQyg9TylbTkhdW0NIMl1DMihbQ0hdM1tDSDJdW0NIMl0zKVtDSDJdW0NIMl1bQ0gyXTI=

> <s_epik_cmdline>
J2VwaWtfcHl0aG9uJywgJy1waCcsICc3LjAnLCAnLXRuJywgJzgnLCAnLW1hJywgJzIwMCcsICctbWV0YWxfYmluZGluZycsICctaW1hZScsICc8aW5maWxlLm1hZT4nLCAnLW9tYWUnLCAnPG91dGZpbGUubWFlPic=

> <r_lp_tautomer_probability>
1

> <r_epik_Ionization_Penalty>
0.000665538

> <r_epik_Ionization_Penalty_Charging>
1.64466e-07

> <r_epik_Ionization_Penalty_Neutral>
0.000665373

> <r_epik_State_Penalty>
-0

> <r_epik_Charging_Adjusted_Penalty>
1.64466e-07

> <i_epik_Tot_Q>
0

> <i_epik_Tot_abs_Q>
0

> <r_epik_Metal_State_Penalty>
-0

> <b_epik_Metal_Only>
0

> <s_lp_Force_Field>
OPLS_2005

> <r_lp_Energy>
52.1357

> <b_lp_Chiralities_Consistent>
1

> <s_lp_Variant>
AV-unprocessed.smi:2258-1

> <Gold.Version>
5.8.1

> <Gold.Id.Protein>
6NUR|6NUR_protein|mol2

> <Gold.PLP.Fitness>
41.1500

> <Gold.PLP.PLP>
-33.1406

> <Gold.PLP.part.hbond>
-1.9711

> <Gold.PLP.part.metal>
0.0000

> <Gold.PLP.part.buried>
-3.5932

> <Gold.PLP.part.nonpolar>
-29.5793

> <Gold.PLP.part.repulsive>
2.3823

> <Gold.PLP.ligand.clash>
0.0000

> <Gold.PLP.ligand.torsion>
1.2275

> <Gold.PLP.Chemscore.Hbond>
1.9280

> <Gold.PLP.Chemscore.CHOScore>
1.0000

> <Gold.PLP.Chemscore.Metal>
0.0000

> <Gold.Chemscore.Hbonds>
donor molecule, donor type, donor heavy atom, donor atom, acceptor molecule, acceptor atom, score
      L1  H     7    26       P1  7948  0.94
      L1  H    10    27       P1  7948  1.00
      L1  C     4    25       P1 10186  1.00

> <Gold.PLP.Chemscore.Internal.Correction>
1.6803

> <Gold.Rescore>
     Score         DG    S(hbond)    S(metal)    S(lipo)     H(rot)  DE(clash)    DE(int)     intcor
     13.30     -15.82       1.91        0.00      66.13       1.47       0.20       2.32       ----

> <Gold.Chemscore.Fitness>
13.2960

> <Gold.Chemscore.DG>
-15.8157

> <Gold.Chemscore.ZeroCoef>
-5.4800

> <Gold.Chemscore.Hbond>
1.9078

> <Gold.Chemscore.Metal>
0.0000

> <Gold.Chemscore.Lipo>
66.1340

> <Gold.Chemscore.Internal_Hbond>
0.0000

> <Gold.Chemscore.DEClash>
0.1967

> <Gold.Chemscore.DEInternal>
2.3230

> <Gold.Chemscore.Rot>
1.4742

> <Gold.Chemscore.Internal.Correction>
   9.000000E+99

> <Gold.Chemscore.Hbonds>
donor molecule, donor type, donor heavy atom, donor atom, acceptor molecule, acceptor atom, score
      L1  H     7    26       P1  7948  0.89
      L1  H    10    27       P1  7948  0.97

> <Gold.Chemscore.Hbond.Weighted>
-6.3720

> <Gold.Chemscore.Metal.Weighted>
-0.0000

> <Gold.Chemscore.Lipo.Weighted>
-7.7377

> <Gold.Chemscore.Internal_Hbond.Weighted>
0.0000

> <Gold.Chemscore.DEClash.Weighted>
0.1967

> <Gold.Chemscore.DEInternal.Weighted>
2.3230

> <Gold.Chemscore.Rot.Weighted>
3.7740

> <Gold.Chemscore.Internal.Correction.Weighted>
   9.000000E+99

> <Gold.Protein.RotatedTorsions>
[ 6907 6896 6895 6894 ] final  119.44 input  -60.11 | X-H torsion
[ 7974 7965 7964 7962 ] final   89.68 input  175.53 | X-H torsion
[ 8008 7997 7996 7995 ] final  -68.55 input   59.86 | X-H torsion
[ 10167 10162 10161 10158 ] final   61.34 input  -65.29 | X-H torsion
[ 10718 10713 10712 10709 ] final  -26.46 input   66.30 | X-H torsion
[ 10763 10752 10751 10750 ] final   20.36 input  -60.55 | X-H torsion
[ 11005 11000 10999 10996 ] final   97.03 input  -57.11 | X-H torsion

> <Gold.Protein.ActiveResidues>
 VAL166  LYS551  ARG553  GLY616  TRP617  ASP618  TYR619  PRO620  LYS621  CYS622 
 ASP623  PHE694  ASN695  SER759  ASP760  ASP761  ALA762  ILE779  LEU786  VAL792 
 PHE793  MET794  SER795  GLU796  ALA797  LYS798  CYS799  TRP800  GLU811  SER814 

> <Gold.Protein.RotatedAtoms>
  152.4471  133.7558  159.6718 H   0  0  0  0  0  0  0  0  0  0  0  0  # atno 6907 bound_to 6896
  150.8374  133.7981  159.3080 H   0  0  0  0  0  0  0  0  0  0  0  0  # atno 6908 bound_to 6896
  151.5616  135.1068  160.0026 H   0  0  0  0  0  0  0  0  0  0  0  0  # atno 6909 bound_to 6896
  145.5291  139.2282  143.2629 H   0  0  0  0  0  0  0  0  0  0  0  0  # atno 7974 bound_to 7965
  154.4876  140.0870  156.7521 H   0  0  0  0  0  0  0  0  0  0  0  0  # atno 8008 bound_to 7997
  155.4311  140.3450  155.4262 H   0  0  0  0  0  0  0  0  0  0  0  0  # atno 8009 bound_to 7997
  156.1284  140.1494  156.9091 H   0  0  0  0  0  0  0  0  0  0  0  0  # atno 8010 bound_to 7997
  140.1558  144.4418  150.6735 H   0  0  0  0  0  0  0  0  0  0  0  0  # atno 10167 bound_to 10162
  156.4509  130.4483  149.6990 H   0  0  0  0  0  0  0  0  0  0  0  0  # atno 10718 bound_to 10713
  153.1084  135.6690  153.9545 H   0  0  0  0  0  0  0  0  0  0  0  0  # atno 10763 bound_to 10752
  153.9096  135.3026  155.3450 H   0  0  0  0  0  0  0  0  0  0  0  0  # atno 10764 bound_to 10752
  154.7504  135.5037  153.9356 H   0  0  0  0  0  0  0  0  0  0  0  0  # atno 10765 bound_to 10752
  139.8778  134.8980  156.4246 H   0  0  0  0  0  0  0  0  0  0  0  0  # atno 11005 bound_to 11000
  146.2056  140.6106  142.9082 LP  0  0  0  0  0  0  0  0  0  0  0  0  # atno 17320 bound_to 7965
  144.7635  140.5478  143.6719 LP  0  0  0  0  0  0  0  0  0  0  0  0  # atno 17321 bound_to 7965
  140.6674  143.2273  151.5709 LP  0  0  0  0  0  0  0  0  0  0  0  0  # atno 17342 bound_to 10162
  139.5404  144.2663  152.1339 LP  0  0  0  0  0  0  0  0  0  0  0  0  # atno 17343 bound_to 10162
  156.3817  130.7582  151.2576 LP  0  0  0  0  0  0  0  0  0  0  0  0  # atno 17370 bound_to 10713
  157.7503  131.0293  150.4089 LP  0  0  0  0  0  0  0  0  0  0  0  0  # atno 17371 bound_to 10713
  140.9109  133.7712  155.9791 LP  0  0  0  0  0  0  0  0  0  0  0  0  # atno 17394 bound_to 11000
  140.8547  134.2912  157.5260 LP  0  0  0  0  0  0  0  0  0  0  0  0  # atno 17395 bound_to 11000

$$$$
