AV-unprocessed.smi:2568|AV-procd|sdf|10093|dock6
  -GOLD-   2272014113D 1   1.00000     0.00000
 Structure written by MMmdl.
 25 26  0  0  0  0  0  0  0  0  2 V2000
  150.9638  140.1369  156.5766 C   0  0  0  0  0  0  0  0  0  0  0  0
  150.0278  139.8886  155.4434 C   0  0  0  0  0  0  0  0  0  0  0  0
  150.3717  140.1660  154.1867 N   0  0  0  0  0  0  0  0  0  0  0  0
  149.2648  139.8018  153.5059 N   0  0  0  0  0  0  0  0  0  0  0  0
  148.3485  139.3451  154.3630 C   0  0  0  0  0  0  0  0  0  0  0  0
  147.0101  138.8516  153.9115 C   0  0  1  0  0  0  0  0  0  0  0  0
  146.8041  139.0160  152.3932 C   0  0  0  0  0  0  0  0  0  0  0  0
  145.5134  138.4230  151.9924 N   0  3  0  0  0  0  0  0  0  0  0  0
  145.4082  137.0150  152.4244 C   0  0  0  0  0  0  0  0  0  0  0  0
  145.6645  136.9039  153.9378 C   0  0  0  0  0  0  0  0  0  0  0  0
  146.9325  137.4699  154.2536 O   0  0  0  0  0  0  0  0  0  0  0  0
  148.7759  139.3702  155.6222 N   0  0  0  0  0  0  0  0  0  0  0  0
  149.1850  139.8827  152.5023 H   0  0  0  0  0  0  0  0  0  0  0  0
  151.9603  140.3878  156.2113 H   0  0  0  0  0  0  0  0  0  0  0  0
  151.0414  139.2487  157.2041 H   0  0  0  0  0  0  0  0  0  0  0  0
  150.6017  140.9634  157.1884 H   0  0  0  0  0  0  0  0  0  0  0  0
  146.2379  139.3991  154.4555 H   0  0  0  0  0  0  0  0  0  0  0  0
  146.8218  140.0694  152.1126 H   0  0  0  0  0  0  0  0  0  0  0  0
  147.6066  138.5223  151.8429 H   0  0  0  0  0  0  0  0  0  0  0  0
  144.7665  138.9501  152.4220 H   0  0  0  0  0  0  0  0  0  0  0  0
  144.4196  136.6311  152.1721 H   0  0  0  0  0  0  0  0  0  0  0  0
  146.1358  136.4163  151.8747 H   0  0  0  0  0  0  0  0  0  0  0  0
  144.8787  137.4066  154.5038 H   0  0  0  0  0  0  0  0  0  0  0  0
  145.6577  135.8578  154.2443 H   0  0  0  0  0  0  0  0  0  0  0  0
  145.4174  138.4744  150.9881 H   0  0  0  0  0  0  0  0  0  0  0  0
  1  2  1  0  0  0  0
  1 14  1  0  0  0  0
  1 15  1  0  0  0  0
  1 16  1  0  0  0  0
  2 12  1  0  0  0  0
  2  3  2  0  0  0  0
  3  4  1  0  0  0  0
  4 13  1  0  0  0  0
  4  5  1  0  0  0  0
  5  6  1  0  0  0  0
  5 12  2  0  0  0  0
  6 11  1  0  0  0  0
  6  7  1  0  0  0  0
  6 17  1  0  0  0  0
  7  8  1  0  0  0  0
  7 18  1  0  0  0  0
  7 19  1  0  0  0  0
  8  9  1  0  0  0  0
  8 20  1  0  0  0  0
  8 25  1  0  0  0  0
  9 10  1  0  0  0  0
  9 21  1  0  0  0  0
  9 22  1  0  0  0  0
 10 11  1  0  0  0  0
 10 23  1  0  0  0  0
 10 24  1  0  0  0  0
M  CHG  1   8   1
M  END
> <s_m_source_file>
AV-unprocessed.smi

> <i_m_source_file_index>
2568

> <i_lp_mmshare_version>
43012

> <i_f3d_flags>
0

> <s_epik_input>
W0NIM11jMW5bbkhdYyhuMSlbQ0BASF0yW0NIMl1bTkhdW0NIMl1bQ0gyXU8y

> <s_epik_cmdline>
J2VwaWtfcHl0aG9uJywgJy1waCcsICc3LjAnLCAnLXRuJywgJzgnLCAnLW1hJywgJzIwMCcsICctbWV0YWxfYmluZGluZycsICctaW1hZScsICc8aW5maWxlLm1hZT4nLCAnLW9tYWUnLCAnPG91dGZpbGUubWFlPic=

> <r_epik_Ionization_Penalty>
0.166663

> <r_epik_Ionization_Penalty_Charging>
0.125708

> <r_epik_Ionization_Penalty_Neutral>
0.0409555

> <r_epik_State_Penalty>
1.3004

> <r_epik_Charging_Adjusted_Penalty>
1.42611

> <i_epik_Tot_Q>
1

> <i_epik_Tot_abs_Q>
1

> <r_epik_Metal_State_Penalty>
1.60166

> <b_epik_Metal_Only>
0

> <s_lp_Force_Field>
OPLS_2005

> <r_lp_Energy>
12.4533

> <b_lp_Chiralities_Consistent>
1

> <s_lp_Variant>
AV-unprocessed.smi:2568-6

> <Gold.Version>
5.8.1

> <Gold.Id.Protein>
6NUR|6NUR_protein|mol2

> <Gold.PLP.Fitness>
29.1946

> <Gold.PLP.PLP>
-16.0652

> <Gold.PLP.part.hbond>
-3.5023

> <Gold.PLP.part.metal>
0.0000

> <Gold.PLP.part.buried>
-3.9880

> <Gold.PLP.part.nonpolar>
-9.7496

> <Gold.PLP.part.repulsive>
0.5425

> <Gold.PLP.ligand.clash>
0.0000

> <Gold.PLP.ligand.torsion>
0.0163

> <Gold.PLP.Chemscore.Hbond>
4.3870

> <Gold.PLP.Chemscore.CHOScore>
0.0000

> <Gold.PLP.Chemscore.Metal>
0.0000

> <Gold.Chemscore.Hbonds>
donor molecule, donor type, donor heavy atom, donor atom, acceptor molecule, acceptor atom, score
      L1  H     4    13       P1  7957  0.71
      L1  H     8    20       P1 10175  1.98
      L1  H     8    25       P1 10171  0.67
      P1  H  7989  7998       L1     3  1.00

> <Gold.PLP.Chemscore.Internal.Correction>
0.0010

> <Gold.Rescore>
     Score         DG    S(hbond)    S(metal)    S(lipo)     H(rot)  DE(clash)    DE(int)     intcor
     17.61     -17.66       3.60        0.00      23.29       1.00       0.05       0.00       ----

> <Gold.Chemscore.Fitness>
17.6053

> <Gold.Chemscore.DG>
-17.6581

> <Gold.Chemscore.ZeroCoef>
-5.4800

> <Gold.Chemscore.Hbond>
3.5966

> <Gold.Chemscore.Metal>
0.0000

> <Gold.Chemscore.Lipo>
23.2943

> <Gold.Chemscore.Internal_Hbond>
0.0000

> <Gold.Chemscore.DEClash>
0.0515

> <Gold.Chemscore.DEInternal>
0.0013

> <Gold.Chemscore.Rot>
1.0000

> <Gold.Chemscore.Internal.Correction>
   9.000000E+99

> <Gold.Chemscore.Hbonds>
donor molecule, donor type, donor heavy atom, donor atom, acceptor molecule, acceptor atom, score
      L1  H     4    13       P1  7957  0.70
      L1  H     8    20       P1 10175  0.94
      L1  H     8    25       P1 10171  0.66
      P1  H  7989  7998       L1     3  0.94

> <Gold.Chemscore.Hbond.Weighted>
-12.0126

> <Gold.Chemscore.Metal.Weighted>
-0.0000

> <Gold.Chemscore.Lipo.Weighted>
-2.7254

> <Gold.Chemscore.Internal_Hbond.Weighted>
0.0000

> <Gold.Chemscore.DEClash.Weighted>
0.0515

> <Gold.Chemscore.DEInternal.Weighted>
0.0013

> <Gold.Chemscore.Rot.Weighted>
2.5600

> <Gold.Chemscore.Internal.Correction.Weighted>
   9.000000E+99

> <Gold.Protein.RotatedTorsions>
[ 6907 6896 6895 6894 ] final  -97.89 input  -60.11 | X-H torsion
[ 7974 7965 7964 7962 ] final -130.60 input  175.53 | X-H torsion
[ 8008 7997 7996 7995 ] final -132.23 input   59.86 | X-H torsion
[ 10167 10162 10161 10158 ] final -142.21 input  -65.29 | X-H torsion
[ 10718 10713 10712 10709 ] final  -24.78 input   66.30 | X-H torsion
[ 10763 10752 10751 10750 ] final -146.30 input  -60.55 | X-H torsion
[ 11005 11000 10999 10996 ] final -101.93 input  -57.11 | X-H torsion

> <Gold.Protein.ActiveResidues>
 VAL166  LYS551  ARG553  GLY616  TRP617  ASP618  TYR619  PRO620  LYS621  CYS622 
 ASP623  PHE694  ASN695  SER759  ASP760  ASP761  ALA762  ILE779  LEU786  VAL792 
 PHE793  MET794  SER795  GLU796  ALA797  LYS798  CYS799  TRP800  GLU811  SER814 

> <Gold.Protein.RotatedAtoms>
  150.7030  134.1279  159.4058 H   0  0  0  0  0  0  0  0  0  0  0  0  # atno 6907 bound_to 6896
  151.9265  135.0273  160.0535 H   0  0  0  0  0  0  0  0  0  0  0  0  # atno 6908 bound_to 6896
  152.2212  133.4949  159.5200 H   0  0  0  0  0  0  0  0  0  0  0  0  # atno 6909 bound_to 6896
  144.9459  140.7291  143.4817 H   0  0  0  0  0  0  0  0  0  0  0  0  # atno 7974 bound_to 7965
  155.3255  140.0464  157.3041 H   0  0  0  0  0  0  0  0  0  0  0  0  # atno 8008 bound_to 7997
  154.5357  140.2271  155.8693 H   0  0  0  0  0  0  0  0  0  0  0  0  # atno 8009 bound_to 7997
  156.1832  140.3069  155.9195 H   0  0  0  0  0  0  0  0  0  0  0  0  # atno 8010 bound_to 7997
  139.8110  143.7702  152.2663 H   0  0  0  0  0  0  0  0  0  0  0  0  # atno 10167 bound_to 10162
  156.4731  130.4529  149.6857 H   0  0  0  0  0  0  0  0  0  0  0  0  # atno 10718 bound_to 10713
  154.8342  135.3390  154.6640 H   0  0  0  0  0  0  0  0  0  0  0  0  # atno 10763 bound_to 10752
  153.7257  135.6955  153.5006 H   0  0  0  0  0  0  0  0  0  0  0  0  # atno 10764 bound_to 10752
  153.2349  135.4404  155.0588 H   0  0  0  0  0  0  0  0  0  0  0  0  # atno 10765 bound_to 10752
  141.1210  133.8517  157.1295 H   0  0  0  0  0  0  0  0  0  0  0  0  # atno 11005 bound_to 11000
  145.2918  139.1881  143.4736 LP  0  0  0  0  0  0  0  0  0  0  0  0  # atno 17320 bound_to 7965
  146.3303  140.2896  142.8614 LP  0  0  0  0  0  0  0  0  0  0  0  0  # atno 17321 bound_to 7965
  139.7851  144.7430  151.0033 LP  0  0  0  0  0  0  0  0  0  0  0  0  # atno 17342 bound_to 10162
  140.7818  143.4500  151.0426 LP  0  0  0  0  0  0  0  0  0  0  0  0  # atno 17343 bound_to 10162
  156.3598  130.7475  151.2446 LP  0  0  0  0  0  0  0  0  0  0  0  0  # atno 17370 bound_to 10713
  157.7489  131.0353  150.4359 LP  0  0  0  0  0  0  0  0  0  0  0  0  # atno 17371 bound_to 10713
  140.0168  134.9964  157.0510 LP  0  0  0  0  0  0  0  0  0  0  0  0  # atno 17394 bound_to 11000
  140.4506  134.1586  155.7181 LP  0  0  0  0  0  0  0  0  0  0  0  0  # atno 17395 bound_to 11000

$$$$
