AV-unprocessed.smi:3038|AV-procd|sdf|11588|dock5
  -GOLD-   2272016563D 1   1.00000     0.00000
 Structure written by MMmdl.
 37 39  0  0  0  0  0  0  0  0  2 V2000
  147.6393  140.3925  155.8085 O   0  0  0  0  0  0  0  0  0  0  0  0
  148.2829  140.6113  154.7828 C   0  0  0  0  0  0  0  0  0  0  0  0
  149.4240  141.6304  154.7989 C   0  0  0  0  0  0  0  0  0  0  0  0
  150.5004  141.2003  155.6720 N   0  0  0  0  0  0  0  0  0  0  0  0
  150.7977  141.5358  156.9291 C   0  0  0  0  0  0  0  0  0  0  0  0
  151.8893  140.9182  157.3540 N   0  0  0  0  0  0  0  0  0  0  0  0
  152.2658  140.1554  156.2611 N   0  0  0  0  0  0  0  0  0  0  0  0
  151.4458  140.3189  155.2597 N   0  0  0  0  0  0  0  0  0  0  0  0
  148.0464  139.9917  153.6153 N   0  0  0  0  0  0  0  0  0  0  0  0
  146.9959  139.0064  153.3807 C   0  0  2  0  0  0  0  0  0  0  0  0
  147.3357  137.6698  154.0658 C   0  0  0  0  0  0  0  0  0  0  0  0
  146.2883  136.5937  153.7337 C   0  0  0  0  0  0  0  0  0  0  0  0
  146.1510  136.4154  152.2668 N   0  3  1  0  0  0  0  0  0  0  0  0
  145.2288  135.3110  151.9238 C   0  0  0  0  0  0  0  0  0  0  0  0
  144.6813  135.3906  150.5178 C   0  0  0  0  0  0  0  0  0  0  0  0
  143.8036  135.7570  151.6937 C   0  0  0  0  0  0  0  0  0  0  0  0
  145.7802  137.6839  151.5913 C   0  0  0  0  0  0  0  0  0  0  0  0
  146.8201  138.7820  151.8700 C   0  0  0  0  0  0  0  0  0  0  0  0
  149.8228  141.7636  153.7922 H   0  0  0  0  0  0  0  0  0  0  0  0
  149.0525  142.6012  155.1300 H   0  0  0  0  0  0  0  0  0  0  0  0
  150.2232  142.2299  157.5245 H   0  0  0  0  0  0  0  0  0  0  0  0
  148.6286  140.2363  152.8267 H   0  0  0  0  0  0  0  0  0  0  0  0
  146.0527  139.3830  153.7817 H   0  0  0  0  0  0  0  0  0  0  0  0
  148.3206  137.3278  153.7437 H   0  0  0  0  0  0  0  0  0  0  0  0
  147.3929  137.8040  155.1468 H   0  0  0  0  0  0  0  0  0  0  0  0
  146.5807  135.6479  154.1915 H   0  0  0  0  0  0  0  0  0  0  0  0
  145.3215  136.8658  154.1606 H   0  0  0  0  0  0  0  0  0  0  0  0
  145.4371  134.3457  152.3825 H   0  0  0  0  0  0  0  0  0  0  0  0
  145.0222  136.2005  149.8751 H   0  0  0  0  0  0  0  0  0  0  0  0
  144.4665  134.4528  150.0093 H   0  0  0  0  0  0  0  0  0  0  0  0
  143.0111  135.0604  151.9599 H   0  0  0  0  0  0  0  0  0  0  0  0
  143.5631  136.8098  151.8323 H   0  0  0  0  0  0  0  0  0  0  0  0
  145.7059  137.5182  150.5159 H   0  0  0  0  0  0  0  0  0  0  0  0
  144.7941  138.0047  151.9308 H   0  0  0  0  0  0  0  0  0  0  0  0
  146.5151  139.7106  151.3860 H   0  0  0  0  0  0  0  0  0  0  0  0
  147.7740  138.4986  151.4220 H   0  0  0  0  0  0  0  0  0  0  0  0
  147.0613  136.1521  151.9171 H   0  0  0  0  0  0  0  0  0  0  0  0
  1  2  2  0  0  0  0
  2  3  1  0  0  0  0
  2  9  1  0  0  0  0
  3  4  1  0  0  0  0
  3 19  1  0  0  0  0
  3 20  1  0  0  0  0
  4  8  1  0  0  0  0
  4  5  1  0  0  0  0
  5  6  2  0  0  0  0
  5 21  1  0  0  0  0
  6  7  1  0  0  0  0
  7  8  2  0  0  0  0
  9 10  1  0  0  0  0
  9 22  1  0  0  0  0
 10 18  1  0  0  0  0
 10 11  1  0  0  0  0
 10 23  1  0  0  0  0
 11 12  1  0  0  0  0
 11 24  1  0  0  0  0
 11 25  1  0  0  0  0
 12 13  1  0  0  0  0
 12 26  1  0  0  0  0
 12 27  1  0  0  0  0
 13 14  1  0  0  0  0
 13 17  1  0  0  0  0
 13 37  1  0  0  0  0
 14 16  1  0  0  0  0
 14 15  1  0  0  0  0
 14 28  1  0  0  0  0
 15 16  1  0  0  0  0
 15 29  1  0  0  0  0
 15 30  1  0  0  0  0
 16 31  1  0  0  0  0
 16 32  1  0  0  0  0
 17 18  1  0  0  0  0
 17 33  1  0  0  0  0
 17 34  1  0  0  0  0
 18 35  1  0  0  0  0
 18 36  1  0  0  0  0
M  CHG  1  13   1
M  END
> <s_m_source_file>
AV-unprocessed.smi

> <i_m_source_file_index>
3038

> <i_lp_mmshare_version>
43012

> <i_f3d_flags>
0

> <s_epik_input>
bjFubltjSF1uMVtDSDJdQyg9TylbTkhdW0NIXTJbQ0gyXVtDSDJdTihbQ0gyXVtDSDJdMilbQ0hdM1tDSDJdW0NIMl0z

> <s_epik_cmdline>
J2VwaWtfcHl0aG9uJywgJy1waCcsICc3LjAnLCAnLXRuJywgJzgnLCAnLW1hJywgJzIwMCcsICctbWV0YWxfYmluZGluZycsICctaW1hZScsICc8aW5maWxlLm1hZT4nLCAnLW9tYWUnLCAnPG91dGZpbGUubWFlPic=

> <r_lp_tautomer_probability>
1

> <r_epik_Ionization_Penalty>
0.284275

> <r_epik_Ionization_Penalty_Charging>
0.284273

> <r_epik_Ionization_Penalty_Neutral>
2.31262e-06

> <r_epik_State_Penalty>
0.277002

> <r_epik_Charging_Adjusted_Penalty>
0.561274

> <i_epik_Tot_Q>
1

> <i_epik_Tot_abs_Q>
1

> <r_epik_Metal_State_Penalty>
0.277002

> <b_epik_Metal_Only>
0

> <s_lp_Force_Field>
OPLS_2005

> <r_lp_Energy>
27.0237

> <b_lp_Chiralities_Consistent>
1

> <s_lp_Variant>
AV-unprocessed.smi:3038-1

> <Gold.Version>
5.8.1

> <Gold.Id.Protein>
6NUR|6NUR_protein|mol2

> <Gold.PLP.Fitness>
41.2717

> <Gold.PLP.PLP>
-27.5191

> <Gold.PLP.part.hbond>
-4.0000

> <Gold.PLP.part.metal>
0.0000

> <Gold.PLP.part.buried>
3.2813

> <Gold.PLP.part.nonpolar>
-26.3155

> <Gold.PLP.part.repulsive>
0.1503

> <Gold.PLP.ligand.clash>
0.0000

> <Gold.PLP.ligand.torsion>
1.1082

> <Gold.PLP.Chemscore.Hbond>
4.9025

> <Gold.PLP.Chemscore.CHOScore>
0.0000

> <Gold.PLP.Chemscore.Metal>
0.0000

> <Gold.Chemscore.Hbonds>
donor molecule, donor type, donor heavy atom, donor atom, acceptor molecule, acceptor atom, score
      L1  H     9    22       P1  7957  1.00
      L1  H    13    37       P1  7948  2.00
      P1  H  7989  7998       L1     8  0.96
      P1  H  7997  8009       L1     7  0.91

> <Gold.PLP.Chemscore.Internal.Correction>
1.2615

> <Gold.Rescore>
     Score         DG    S(hbond)    S(metal)    S(lipo)     H(rot)  DE(clash)    DE(int)     intcor
     13.23     -15.62       2.99        0.00      50.66       2.25       1.20       1.19       ----

> <Gold.Chemscore.Fitness>
13.2267

> <Gold.Chemscore.DG>
-15.6229

> <Gold.Chemscore.ZeroCoef>
-5.4800

> <Gold.Chemscore.Hbond>
2.9888

> <Gold.Chemscore.Metal>
0.0000

> <Gold.Chemscore.Lipo>
50.6639

> <Gold.Chemscore.Internal_Hbond>
0.0000

> <Gold.Chemscore.DEClash>
1.2023

> <Gold.Chemscore.DEInternal>
1.1939

> <Gold.Chemscore.Rot>
2.2528

> <Gold.Chemscore.Internal.Correction>
   9.000000E+99

> <Gold.Chemscore.Hbonds>
donor molecule, donor type, donor heavy atom, donor atom, acceptor molecule, acceptor atom, score
      L1  H     9    22       P1  7957  0.99
      L1  H    13    37       P1  7948  0.98
      P1  H  7989  7998       L1     8  0.24
      P1  H  7997  8009       L1     7  0.34

> <Gold.Chemscore.Hbond.Weighted>
-9.9825

> <Gold.Chemscore.Metal.Weighted>
-0.0000

> <Gold.Chemscore.Lipo.Weighted>
-5.9277

> <Gold.Chemscore.Internal_Hbond.Weighted>
0.0000

> <Gold.Chemscore.DEClash.Weighted>
1.2023

> <Gold.Chemscore.DEInternal.Weighted>
1.1939

> <Gold.Chemscore.Rot.Weighted>
5.7672

> <Gold.Chemscore.Internal.Correction.Weighted>
   9.000000E+99

> <Gold.Protein.RotatedTorsions>
[ 6907 6896 6895 6894 ] final  -38.49 input  -60.11 | X-H torsion
[ 7974 7965 7964 7962 ] final  119.50 input  175.53 | X-H torsion
[ 8008 7997 7996 7995 ] final -165.66 input   59.86 | X-H torsion
[ 10167 10162 10161 10158 ] final -108.35 input  -65.29 | X-H torsion
[ 10718 10713 10712 10709 ] final  -13.60 input   66.30 | X-H torsion
[ 10763 10752 10751 10750 ] final   87.65 input  -60.55 | X-H torsion
[ 11005 11000 10999 10996 ] final  -86.51 input  -57.11 | X-H torsion

> <Gold.Protein.ActiveResidues>
 VAL166  LYS551  ARG553  GLY616  TRP617  ASP618  TYR619  PRO620  LYS621  CYS622 
 ASP623  PHE694  ASN695  SER759  ASP760  ASP761  ALA762  ILE779  LEU786  VAL792 
 PHE793  MET794  SER795  GLU796  ALA797  LYS798  CYS799  TRP800  GLU811  SER814 

> <Gold.Protein.RotatedAtoms>
  151.0018  134.9328  159.7957 H   0  0  0  0  0  0  0  0  0  0  0  0  # atno 6907 bound_to 6896
  152.5280  134.3144  159.9135 H   0  0  0  0  0  0  0  0  0  0  0  0  # atno 6908 bound_to 6896
  151.3150  133.4023  159.2684 H   0  0  0  0  0  0  0  0  0  0  0  0  # atno 6909 bound_to 6896
  145.1424  139.3259  143.4609 H   0  0  0  0  0  0  0  0  0  0  0  0  # atno 7974 bound_to 7965
  155.8529  140.0966  157.1663 H   0  0  0  0  0  0  0  0  0  0  0  0  # atno 8008 bound_to 7997
  154.3986  140.1379  156.3928 H   0  0  0  0  0  0  0  0  0  0  0  0  # atno 8009 bound_to 7997
  155.7941  140.3455  155.5368 H   0  0  0  0  0  0  0  0  0  0  0  0  # atno 8010 bound_to 7997
  140.1670  143.4073  152.1383 H   0  0  0  0  0  0  0  0  0  0  0  0  # atno 10167 bound_to 10162
  156.6280  130.4893  149.6140 H   0  0  0  0  0  0  0  0  0  0  0  0  # atno 10718 bound_to 10713
  153.1690  135.4535  154.9876 H   0  0  0  0  0  0  0  0  0  0  0  0  # atno 10763 bound_to 10752
  154.7952  135.3235  154.7685 H   0  0  0  0  0  0  0  0  0  0  0  0  # atno 10764 bound_to 10752
  153.8164  135.6950  153.4888 H   0  0  0  0  0  0  0  0  0  0  0  0  # atno 10765 bound_to 10752
  141.1629  133.7459  156.9172 H   0  0  0  0  0  0  0  0  0  0  0  0  # atno 11005 bound_to 11000
  146.3503  140.1467  142.8593 LP  0  0  0  0  0  0  0  0  0  0  0  0  # atno 17320 bound_to 7965
  145.0517  140.9023  143.4991 LP  0  0  0  0  0  0  0  0  0  0  0  0  # atno 17321 bound_to 7965
  139.5355  144.7205  151.4909 LP  0  0  0  0  0  0  0  0  0  0  0  0  # atno 17342 bound_to 10162
  140.6606  143.8506  150.6884 LP  0  0  0  0  0  0  0  0  0  0  0  0  # atno 17343 bound_to 10162
  156.2258  130.6764  151.1414 LP  0  0  0  0  0  0  0  0  0  0  0  0  # atno 17370 bound_to 10713
  157.7208  131.0682  150.6142 LP  0  0  0  0  0  0  0  0  0  0  0  0  # atno 17371 bound_to 10713
  140.1476  134.9252  157.2550 LP  0  0  0  0  0  0  0  0  0  0  0  0  # atno 17394 bound_to 11000
  140.2761  134.3404  155.7358 LP  0  0  0  0  0  0  0  0  0  0  0  0  # atno 17395 bound_to 11000

$$$$
