AV-unprocessed.smi:1076|AV-procd|sdf|4699|dock1
  -GOLD-   22720 3223D 1   1.00000     0.00000
 Structure written by MMmdl.
 44 45  0  0  0  0  0  0  0  0  1 V2000
  151.9312  144.6768  159.5383 C   0  0  0  0  0  0  0  0  0  0  0  0
  151.6321  143.3302  158.9463 C   0  0  0  0  0  0  0  0  0  0  0  0
  151.8338  142.0493  159.5350 C   0  0  0  0  0  0  0  0  0  0  0  0
  151.4511  141.0552  158.7502 N   0  0  0  0  0  0  0  0  0  0  0  0
  150.9907  141.6642  157.6371 N   0  0  0  0  0  0  0  0  0  0  0  0
  150.4452  140.8696  156.5496 C   0  0  0  0  0  0  0  0  0  0  0  0
  150.5820  139.3568  156.8138 C   0  0  2  0  0  0  0  0  0  0  0  0
  150.8915  138.5808  155.5236 C   0  0  0  0  0  0  0  0  0  0  0  0
  149.3352  138.8729  157.3950 N   0  0  0  0  0  0  0  0  0  0  0  0
  149.4366  137.5054  157.8880 C   0  0  0  0  0  0  0  0  0  0  0  0
  148.3671  137.2293  158.9654 C   0  0  0  0  0  0  0  0  0  0  0  0
  147.6449  135.8714  158.8362 C   0  0  0  0  0  0  0  0  0  0  0  0
  148.0578  135.0482  158.0171 O   0  0  0  0  0  0  0  0  0  0  0  0
  146.5733  135.6187  159.6260 N   0  0  0  0  0  0  0  0  0  0  0  0
  146.0508  136.5848  160.5973 C   0  0  0  0  0  0  0  0  0  0  0  0
  146.2570  136.0150  162.0120 C   0  0  0  0  0  0  0  0  0  0  0  0
  145.6007  134.7544  162.1188 O   0  0  0  0  0  0  0  0  0  0  0  0
  146.0701  133.7992  161.1707 C   0  0  0  0  0  0  0  0  0  0  0  0
  145.8678  134.3378  159.7424 C   0  0  0  0  0  0  0  0  0  0  0  0
  151.0954  143.0362  157.7252 C   0  0  0  0  0  0  0  0  0  0  0  0
  152.0211  144.6307  160.6239 H   0  0  0  0  0  0  0  0  0  0  0  0
  151.1456  145.3986  159.3127 H   0  0  0  0  0  0  0  0  0  0  0  0
  152.8658  145.0854  159.1543 H   0  0  0  0  0  0  0  0  0  0  0  0
  152.2410  141.8140  160.5072 H   0  0  0  0  0  0  0  0  0  0  0  0
  149.3998  141.1463  156.4035 H   0  0  0  0  0  0  0  0  0  0  0  0
  150.9701  141.1410  155.6324 H   0  0  0  0  0  0  0  0  0  0  0  0
  151.3979  139.2120  157.5238 H   0  0  0  0  0  0  0  0  0  0  0  0
  151.8086  138.9475  155.0620 H   0  0  0  0  0  0  0  0  0  0  0  0
  150.0890  138.6864  154.7928 H   0  0  0  0  0  0  0  0  0  0  0  0
  151.0307  137.5169  155.7166 H   0  0  0  0  0  0  0  0  0  0  0  0
  148.5726  138.9670  156.7396 H   0  0  0  0  0  0  0  0  0  0  0  0
  149.3179  136.8089  157.0581 H   0  0  0  0  0  0  0  0  0  0  0  0
  150.4282  137.3333  158.3093 H   0  0  0  0  0  0  0  0  0  0  0  0
  148.8458  137.2908  159.9434 H   0  0  0  0  0  0  0  0  0  0  0  0
  147.6149  138.0182  158.9282 H   0  0  0  0  0  0  0  0  0  0  0  0
  146.5224  137.5655  160.5210 H   0  0  0  0  0  0  0  0  0  0  0  0
  144.9885  136.7473  160.4086 H   0  0  0  0  0  0  0  0  0  0  0  0
  147.3192  135.9034  162.2360 H   0  0  0  0  0  0  0  0  0  0  0  0
  145.8421  136.6935  162.7574 H   0  0  0  0  0  0  0  0  0  0  0  0
  147.1221  133.5758  161.3560 H   0  0  0  0  0  0  0  0  0  0  0  0
  145.5176  132.8692  161.3044 H   0  0  0  0  0  0  0  0  0  0  0  0
  144.8061  134.4943  159.5471 H   0  0  0  0  0  0  0  0  0  0  0  0
  146.1953  133.5843  159.0287 H   0  0  0  0  0  0  0  0  0  0  0  0
  150.7672  143.6837  156.9254 H   0  0  0  0  0  0  0  0  0  0  0  0
  1  2  1  0  0  0  0
  1 21  1  0  0  0  0
  1 22  1  0  0  0  0
  1 23  1  0  0  0  0
  2 20  2  0  0  0  0
  2  3  1  0  0  0  0
  3  4  2  0  0  0  0
  3 24  1  0  0  0  0
  4  5  1  0  0  0  0
  5  6  1  0  0  0  0
  5 20  1  0  0  0  0
  6  7  1  0  0  0  0
  6 25  1  0  0  0  0
  6 26  1  0  0  0  0
  7  8  1  0  0  0  0
  7  9  1  0  0  0  0
  7 27  1  0  0  0  0
  8 28  1  0  0  0  0
  8 29  1  0  0  0  0
  8 30  1  0  0  0  0
  9 10  1  0  0  0  0
  9 31  1  0  0  0  0
 10 11  1  0  0  0  0
 10 32  1  0  0  0  0
 10 33  1  0  0  0  0
 11 12  1  0  0  0  0
 11 34  1  0  0  0  0
 11 35  1  0  0  0  0
 12 13  2  0  0  0  0
 12 14  1  0  0  0  0
 14 19  1  0  0  0  0
 14 15  1  0  0  0  0
 15 16  1  0  0  0  0
 15 36  1  0  0  0  0
 15 37  1  0  0  0  0
 16 17  1  0  0  0  0
 16 38  1  0  0  0  0
 16 39  1  0  0  0  0
 17 18  1  0  0  0  0
 18 19  1  0  0  0  0
 18 40  1  0  0  0  0
 18 41  1  0  0  0  0
 19 42  1  0  0  0  0
 19 43  1  0  0  0  0
 20 44  1  0  0  0  0
M  END
> <s_m_source_file>
AV-unprocessed.smi

> <i_m_source_file_index>
1076

> <i_lp_mmshare_version>
43012

> <i_f3d_flags>
0

> <s_epik_input>
W0NIM11jMVtjSF1ubihbY0hdMSlbQ0gyXVtDQEhdKFtDSDNdKVtOSF1bQ0gyXVtDSDJdQyg9TylOMltDSDJdW0NIMl1PW0NIMl1bQ0gyXTI=

> <s_epik_cmdline>
J2VwaWtfcHl0aG9uJywgJy1waCcsICc3LjAnLCAnLXRuJywgJzgnLCAnLW1hJywgJzIwMCcsICctbWV0YWxfYmluZGluZycsICctaW1hZScsICc8aW5maWxlLm1hZT4nLCAnLW9tYWUnLCAnPG91dGZpbGUubWFlPic=

> <r_lp_tautomer_probability>
1

> <r_epik_Ionization_Penalty>
2.55707

> <r_epik_Ionization_Penalty_Charging>
0

> <r_epik_Ionization_Penalty_Neutral>
2.55707

> <r_epik_State_Penalty>
2.726

> <r_epik_Charging_Adjusted_Penalty>
2.726

> <i_epik_Tot_Q>
0

> <i_epik_Tot_abs_Q>
0

> <r_epik_Metal_State_Penalty>
2.72594

> <b_epik_Metal_Only>
0

> <s_lp_Force_Field>
OPLS_2005

> <r_lp_Energy>
21.3245

> <b_lp_Chiralities_Consistent>
1

> <s_lp_Variant>
AV-unprocessed.smi:1076-3

> <Gold.Version>
5.8.1

> <Gold.Id.Protein>
6NUR|6NUR_protein|mol2

> <Gold.PLP.Fitness>
46.3341

> <Gold.PLP.PLP>
-42.2938

> <Gold.PLP.part.hbond>
-1.2199

> <Gold.PLP.part.metal>
0.0000

> <Gold.PLP.part.buried>
-5.8318

> <Gold.PLP.part.nonpolar>
-35.8363

> <Gold.PLP.part.repulsive>
0.0000

> <Gold.PLP.ligand.clash>
0.0000

> <Gold.PLP.ligand.torsion>
1.0589

> <Gold.PLP.Chemscore.Hbond>
1.0000

> <Gold.PLP.Chemscore.CHOScore>
1.0000

> <Gold.PLP.Chemscore.Metal>
0.0000

> <Gold.Chemscore.Hbonds>
donor molecule, donor type, donor heavy atom, donor atom, acceptor molecule, acceptor atom, score
      L1  C    20    44       P1  8028  1.00

> <Gold.PLP.Chemscore.Internal.Correction>
0.1580

> <Gold.Rescore>
     Score         DG    S(hbond)    S(metal)    S(lipo)     H(rot)  DE(clash)    DE(int)     intcor
     15.04     -15.92       0.98        0.00     102.98       1.91       0.09       0.79       ----

> <Gold.Chemscore.Fitness>
15.0445

> <Gold.Chemscore.DG>
-15.9219

> <Gold.Chemscore.ZeroCoef>
-5.4800

> <Gold.Chemscore.Hbond>
0.9826

> <Gold.Chemscore.Metal>
0.0000

> <Gold.Chemscore.Lipo>
102.9833

> <Gold.Chemscore.Internal_Hbond>
0.0000

> <Gold.Chemscore.DEClash>
0.0871

> <Gold.Chemscore.DEInternal>
0.7904

> <Gold.Chemscore.Rot>
1.9098

> <Gold.Chemscore.Internal.Correction>
   9.000000E+99

> <Gold.Chemscore.Hbond.Weighted>
-3.2819

> <Gold.Chemscore.Metal.Weighted>
-0.0000

> <Gold.Chemscore.Lipo.Weighted>
-12.0490

> <Gold.Chemscore.Internal_Hbond.Weighted>
0.0000

> <Gold.Chemscore.DEClash.Weighted>
0.0871

> <Gold.Chemscore.DEInternal.Weighted>
0.7904

> <Gold.Chemscore.Rot.Weighted>
4.8891

> <Gold.Chemscore.Internal.Correction.Weighted>
   9.000000E+99

> <Gold.Protein.RotatedTorsions>
[ 6907 6896 6895 6894 ] final   23.87 input  -60.11 | X-H torsion
[ 7974 7965 7964 7962 ] final   85.35 input  175.53 | X-H torsion
[ 8008 7997 7996 7995 ] final -126.85 input   59.86 | X-H torsion
[ 10167 10162 10161 10158 ] final -167.92 input  -65.29 | X-H torsion
[ 10718 10713 10712 10709 ] final   67.97 input   66.30 | X-H torsion
[ 10763 10752 10751 10750 ] final -163.44 input  -60.55 | X-H torsion
[ 11005 11000 10999 10996 ] final  -83.84 input  -57.11 | X-H torsion

> <Gold.Protein.ActiveResidues>
 VAL166  LYS551  ARG553  GLY616  TRP617  ASP618  TYR619  PRO620  LYS621  CYS622 
 ASP623  PHE694  ASN695  SER759  ASP760  ASP761  ALA762  ILE779  LEU786  VAL792 
 PHE793  MET794  SER795  GLU796  ALA797  LYS798  CYS799  TRP800  GLU811  SER814 

> <Gold.Protein.RotatedAtoms>
  151.9489  135.0178  160.0540 H   0  0  0  0  0  0  0  0  0  0  0  0  # atno 6907 bound_to 6896
  152.1971  133.4809  159.5047 H   0  0  0  0  0  0  0  0  0  0  0  0  # atno 6908 bound_to 6896
  150.6947  134.1555  159.4199 H   0  0  0  0  0  0  0  0  0  0  0  0  # atno 6909 bound_to 6896
  145.5866  139.2332  143.2322 H   0  0  0  0  0  0  0  0  0  0  0  0  # atno 7974 bound_to 7965
  155.2364  140.0427  157.2969 H   0  0  0  0  0  0  0  0  0  0  0  0  # atno 8008 bound_to 7997
  154.5856  140.2412  155.7963 H   0  0  0  0  0  0  0  0  0  0  0  0  # atno 8009 bound_to 7997
  156.2223  140.2965  155.9991 H   0  0  0  0  0  0  0  0  0  0  0  0  # atno 8010 bound_to 7997
  139.6018  144.0994  152.1751 H   0  0  0  0  0  0  0  0  0  0  0  0  # atno 10167 bound_to 10162
  157.6262  130.9349  150.0314 H   0  0  0  0  0  0  0  0  0  0  0  0  # atno 10718 bound_to 10713
  154.7122  135.3008  154.9179 H   0  0  0  0  0  0  0  0  0  0  0  0  # atno 10763 bound_to 10752
  154.0078  135.6699  153.4767 H   0  0  0  0  0  0  0  0  0  0  0  0  # atno 10764 bound_to 10752
  153.0764  135.5032  154.8327 H   0  0  0  0  0  0  0  0  0  0  0  0  # atno 10765 bound_to 10752
  141.1655  133.7315  156.8779 H   0  0  0  0  0  0  0  0  0  0  0  0  # atno 11005 bound_to 11000
  146.1677  140.6693  142.9248 LP  0  0  0  0  0  0  0  0  0  0  0  0  # atno 17320 bound_to 7965
  144.7370  140.4835  143.6897 LP  0  0  0  0  0  0  0  0  0  0  0  0  # atno 17321 bound_to 7965
  140.0592  144.5870  150.7276 LP  0  0  0  0  0  0  0  0  0  0  0  0  # atno 17342 bound_to 10162
  140.7255  143.2632  151.4133 LP  0  0  0  0  0  0  0  0  0  0  0  0  # atno 17343 bound_to 10162
  156.1435  130.3642  149.9546 LP  0  0  0  0  0  0  0  0  0  0  0  0  # atno 17370 bound_to 10713
  156.7582  130.9141  151.3640 LP  0  0  0  0  0  0  0  0  0  0  0  0  # atno 17371 bound_to 10713
  140.1735  134.9083  157.2863 LP  0  0  0  0  0  0  0  0  0  0  0  0  # atno 17394 bound_to 11000
  140.2475  134.3723  155.7455 LP  0  0  0  0  0  0  0  0  0  0  0  0  # atno 17395 bound_to 11000

$$$$
