AV-unprocessed.smi:2401|AV-procd|sdf|9503|dock4
  -GOLD-   2272013133D 1   1.00000     0.00000
 Structure written by MMmdl.
 34 35  0  0  0  0  0  0  0  0  1 V2000
  148.1178  138.7217  154.0785 C   0  0  0  0  0  0  0  0  0  0  0  0
  149.2154  139.4796  154.8042 C   0  0  0  0  0  0  0  0  0  0  0  0
  148.8726  140.7594  155.2491 N   0  0  0  0  0  0  0  0  0  0  0  0
  149.7444  141.4781  155.8772 C   0  0  0  0  0  0  0  0  0  0  0  0
  151.0436  141.0081  156.1335 N   0  0  0  0  0  0  0  0  0  0  0  0
  151.9408  141.9277  156.8544 C   0  0  0  0  0  0  0  0  0  0  0  0
  151.1668  142.9445  157.7243 C   0  0  2  0  0  0  0  0  0  0  0  0
  151.0960  144.1788  157.0392 O   0  0  0  0  0  0  0  0  0  0  0  0
  151.8275  143.1135  159.0841 C   0  0  0  0  0  0  0  0  0  0  0  0
  152.7275  142.1354  159.5591 C   0  0  0  0  0  0  0  0  0  0  0  0
  153.3457  142.2900  160.8153 C   0  0  0  0  0  0  0  0  0  0  0  0
  153.0699  143.4245  161.6027 C   0  0  0  0  0  0  0  0  0  0  0  0
  153.8280  143.6132  163.1410 Cl  0  0  0  0  0  0  0  0  0  0  0  0
  152.1755  144.4054  161.1324 C   0  0  0  0  0  0  0  0  0  0  0  0
  151.5567  144.2509  159.8768 C   0  0  0  0  0  0  0  0  0  0  0  0
  151.4603  139.7720  155.7333 C   0  0  0  0  0  0  0  0  0  0  0  0
  152.6017  139.3670  155.9607 O   0  0  0  0  0  0  0  0  0  0  0  0
  150.4576  138.9660  155.0177 C   0  0  0  0  0  0  0  0  0  0  0  0
  150.8877  137.5794  154.5550 C   0  0  0  0  0  0  0  0  0  0  0  0
  148.4307  138.4736  153.0639 H   0  0  0  0  0  0  0  0  0  0  0  0
  147.2041  139.3138  154.0105 H   0  0  0  0  0  0  0  0  0  0  0  0
  147.8785  137.7979  154.6060 H   0  0  0  0  0  0  0  0  0  0  0  0
  149.5301  142.4849  156.2402 H   0  0  0  0  0  0  0  0  0  0  0  0
  152.5937  141.3346  157.4987 H   0  0  0  0  0  0  0  0  0  0  0  0
  152.6293  142.4418  156.1808 H   0  0  0  0  0  0  0  0  0  0  0  0
  150.1448  142.5971  157.8814 H   0  0  0  0  0  0  0  0  0  0  0  0
  150.2185  144.2874  156.7060 H   0  0  0  0  0  0  0  0  0  0  0  0
  152.9482  141.2621  158.9629 H   0  0  0  0  0  0  0  0  0  0  0  0
  154.0322  141.5369  161.1731 H   0  0  0  0  0  0  0  0  0  0  0  0
  151.9629  145.2777  161.7331 H   0  0  0  0  0  0  0  0  0  0  0  0
  150.8737  145.0094  159.5226 H   0  0  0  0  0  0  0  0  0  0  0  0
  151.1845  136.9727  155.4112 H   0  0  0  0  0  0  0  0  0  0  0  0
  151.7422  137.6563  153.8819 H   0  0  0  0  0  0  0  0  0  0  0  0
  150.1033  137.0396  154.0273 H   0  0  0  0  0  0  0  0  0  0  0  0
  1  2  1  0  0  0  0
  1 20  1  0  0  0  0
  1 21  1  0  0  0  0
  1 22  1  0  0  0  0
  2 18  2  0  0  0  0
  2  3  1  0  0  0  0
  3  4  2  0  0  0  0
  4  5  1  0  0  0  0
  4 23  1  0  0  0  0
  5  6  1  0  0  0  0
  5 16  1  0  0  0  0
  6  7  1  0  0  0  0
  6 24  1  0  0  0  0
  6 25  1  0  0  0  0
  7  8  1  0  0  0  0
  7  9  1  0  0  0  0
  7 26  1  0  0  0  0
  8 27  1  0  0  0  0
  9 15  1  0  0  0  0
  9 10  2  0  0  0  0
 10 11  1  0  0  0  0
 10 28  1  0  0  0  0
 11 12  2  0  0  0  0
 11 29  1  0  0  0  0
 12 13  1  0  0  0  0
 12 14  1  0  0  0  0
 14 15  2  0  0  0  0
 14 30  1  0  0  0  0
 15 31  1  0  0  0  0
 16 17  2  0  0  0  0
 16 18  1  0  0  0  0
 18 19  1  0  0  0  0
 19 32  1  0  0  0  0
 19 33  1  0  0  0  0
 19 34  1  0  0  0  0
M  END
> <s_m_source_file>
AV-unprocessed.smi

> <i_m_source_file_index>
2401

> <i_lp_mmshare_version>
43012

> <i_f3d_flags>
0

> <s_epik_input>
W0NIM11jMW5bY0hdbihjKD1PKWMxW0NIM10pW0NIMl1bQ0BIXShbT0hdKWMyW2NIXVtjSF1jKENsKVtjSF1bY0hdMg==

> <s_epik_cmdline>
J2VwaWtfcHl0aG9uJywgJy1waCcsICc3LjAnLCAnLXRuJywgJzgnLCAnLW1hJywgJzIwMCcsICctbWV0YWxfYmluZGluZycsICctaW1hZScsICc8aW5maWxlLm1hZT4nLCAnLW9tYWUnLCAnPG91dGZpbGUubWFlPic=

> <r_lp_tautomer_probability>
1

> <r_epik_Ionization_Penalty>
5.07713e-05

> <r_epik_Ionization_Penalty_Charging>
7.56727e-08

> <r_epik_Ionization_Penalty_Neutral>
5.06957e-05

> <r_epik_State_Penalty>
-0

> <r_epik_Charging_Adjusted_Penalty>
7.56727e-08

> <i_epik_Tot_Q>
0

> <i_epik_Tot_abs_Q>
0

> <r_epik_Metal_State_Penalty>
-0

> <b_epik_Metal_Only>
0

> <s_lp_Force_Field>
OPLS_2005

> <r_lp_Energy>
19.2898

> <b_lp_Chiralities_Consistent>
1

> <s_lp_Variant>
AV-unprocessed.smi:2401-1

> <Gold.Version>
5.8.1

> <Gold.Id.Protein>
6NUR|6NUR_protein|mol2

> <Gold.PLP.Fitness>
52.0772

> <Gold.PLP.PLP>
-46.0312

> <Gold.PLP.part.hbond>
-2.0000

> <Gold.PLP.part.metal>
0.0000

> <Gold.PLP.part.buried>
-4.4187

> <Gold.PLP.part.nonpolar>
-39.2917

> <Gold.PLP.part.repulsive>
0.1109

> <Gold.PLP.ligand.clash>
0.0000

> <Gold.PLP.ligand.torsion>
1.4912

> <Gold.PLP.Chemscore.Hbond>
2.0000

> <Gold.PLP.Chemscore.CHOScore>
1.0000

> <Gold.PLP.Chemscore.Metal>
0.0000

> <Gold.Chemscore.Hbonds>
donor molecule, donor type, donor heavy atom, donor atom, acceptor molecule, acceptor atom, score
      L1  H     8    27       P1  8028  1.00
      P1  H  7997  8009       L1    17  1.00
      L1  C     4    23       P1  8028  1.00

> <Gold.PLP.Chemscore.Internal.Correction>
0.0284

> <Gold.Rescore>
     Score         DG    S(hbond)    S(metal)    S(lipo)     H(rot)  DE(clash)    DE(int)     intcor
     17.67     -22.18       1.99        0.00     128.04       1.93       2.93       1.58       ----

> <Gold.Chemscore.Fitness>
17.6694

> <Gold.Chemscore.DG>
-22.1808

> <Gold.Chemscore.ZeroCoef>
-5.4800

> <Gold.Chemscore.Hbond>
1.9915

> <Gold.Chemscore.Metal>
0.0000

> <Gold.Chemscore.Lipo>
128.0432

> <Gold.Chemscore.Internal_Hbond>
0.0000

> <Gold.Chemscore.DEClash>
2.9298

> <Gold.Chemscore.DEInternal>
1.5816

> <Gold.Chemscore.Rot>
1.9265

> <Gold.Chemscore.Internal.Correction>
   9.000000E+99

> <Gold.Chemscore.Hbonds>
donor molecule, donor type, donor heavy atom, donor atom, acceptor molecule, acceptor atom, score
      L1  H     8    27       P1  8028  0.97
      P1  H  7997  8009       L1    17  1.00

> <Gold.Chemscore.Hbond.Weighted>
-6.6515

> <Gold.Chemscore.Metal.Weighted>
-0.0000

> <Gold.Chemscore.Lipo.Weighted>
-14.9811

> <Gold.Chemscore.Internal_Hbond.Weighted>
0.0000

> <Gold.Chemscore.DEClash.Weighted>
2.9298

> <Gold.Chemscore.DEInternal.Weighted>
1.5816

> <Gold.Chemscore.Rot.Weighted>
4.9317

> <Gold.Chemscore.Internal.Correction.Weighted>
   9.000000E+99

> <Gold.Protein.RotatedTorsions>
[ 6907 6896 6895 6894 ] final -175.54 input  -60.11 | X-H torsion
[ 7974 7965 7964 7962 ] final -139.10 input  175.53 | X-H torsion
[ 8008 7997 7996 7995 ] final -155.61 input   59.86 | X-H torsion
[ 10167 10162 10161 10158 ] final -138.21 input  -65.29 | X-H torsion
[ 10718 10713 10712 10709 ] final  -82.78 input   66.30 | X-H torsion
[ 10763 10752 10751 10750 ] final -137.48 input  -60.55 | X-H torsion
[ 11005 11000 10999 10996 ] final -142.62 input  -57.11 | X-H torsion

> <Gold.Protein.ActiveResidues>
 VAL166  LYS551  ARG553  GLY616  TRP617  ASP618  TYR619  PRO620  LYS621  CYS622 
 ASP623  PHE694  ASN695  SER759  ASP760  ASP761  ALA762  ILE779  LEU786  VAL792 
 PHE793  MET794  SER795  GLU796  ALA797  LYS798  CYS799  TRP800  GLU811  SER814 

> <Gold.Protein.RotatedAtoms>
  151.5902  133.3367  159.3025 H   0  0  0  0  0  0  0  0  0  0  0  0  # atno 6907 bound_to 6896
  150.8264  134.7501  159.6828 H   0  0  0  0  0  0  0  0  0  0  0  0  # atno 6908 bound_to 6896
  152.4353  134.5704  159.9971 H   0  0  0  0  0  0  0  0  0  0  0  0  # atno 6909 bound_to 6896
  144.8704  140.6358  143.5270 H   0  0  0  0  0  0  0  0  0  0  0  0  # atno 7974 bound_to 7965
  155.7045  140.0771  157.2396 H   0  0  0  0  0  0  0  0  0  0  0  0  # atno 8008 bound_to 7997
  154.4068  140.1641  156.2281 H   0  0  0  0  0  0  0  0  0  0  0  0  # atno 8009 bound_to 7997
  155.9338  140.3389  155.6274 H   0  0  0  0  0  0  0  0  0  0  0  0  # atno 8010 bound_to 7997
  139.8501  143.7210  152.2658 H   0  0  0  0  0  0  0  0  0  0  0  0  # atno 10167 bound_to 10162
  156.0028  130.4645  150.4158 H   0  0  0  0  0  0  0  0  0  0  0  0  # atno 10718 bound_to 10713
  154.8661  135.3641  154.5229 H   0  0  0  0  0  0  0  0  0  0  0  0  # atno 10763 bound_to 10752
  153.5858  135.7017  153.5448 H   0  0  0  0  0  0  0  0  0  0  0  0  # atno 10764 bound_to 10752
  153.3416  135.4096  155.1539 H   0  0  0  0  0  0  0  0  0  0  0  0  # atno 10765 bound_to 10752
  140.8207  134.2635  157.4901 H   0  0  0  0  0  0  0  0  0  0  0  0  # atno 11005 bound_to 11000
  145.4141  139.1575  143.4110 LP  0  0  0  0  0  0  0  0  0  0  0  0  # atno 17320 bound_to 7965
  146.2926  140.4247  142.8734 LP  0  0  0  0  0  0  0  0  0  0  0  0  # atno 17321 bound_to 7965
  139.7474  144.7543  151.0559 LP  0  0  0  0  0  0  0  0  0  0  0  0  # atno 17342 bound_to 10162
  140.7788  143.4900  150.9905 LP  0  0  0  0  0  0  0  0  0  0  0  0  # atno 17343 bound_to 10162
  157.2217  131.0484  151.2542 LP  0  0  0  0  0  0  0  0  0  0  0  0  # atno 17370 bound_to 10713
  157.3794  130.7223  149.6619 LP  0  0  0  0  0  0  0  0  0  0  0  0  # atno 17371 bound_to 10713
  139.8708  134.9533  156.4143 LP  0  0  0  0  0  0  0  0  0  0  0  0  # atno 17394 bound_to 11000
  140.9102  133.7717  155.9782 LP  0  0  0  0  0  0  0  0  0  0  0  0  # atno 17395 bound_to 11000

$$$$
