AV-unprocessed.smi:103|AV-procd|sdf|977|dock8
  -GOLD-   2262017533D 1   1.00000     0.00000
 Structure written by MMmdl.
 53 55  0  0  0  0  0  0  0  0  1 V2000
  151.0638  145.3867  159.1915 C   0  0  0  0  0  0  0  0  0  0  0  0
  151.2578  143.8903  159.3994 C   0  0  0  0  0  0  0  0  0  0  0  0
  152.1666  143.4561  160.1080 O   0  0  0  0  0  0  0  0  0  0  0  0
  150.3450  143.1535  158.7382 O   0  0  0  0  0  0  0  0  0  0  0  0
  150.3617  141.7353  158.8295 C   0  0  0  0  0  0  0  0  0  0  0  0
  150.0448  141.0931  157.4650 C   0  0  2  0  0  0  0  0  0  0  0  0
  148.6417  141.0868  157.2333 O   0  0  0  0  0  0  0  0  0  0  0  0
  148.0736  139.9822  157.8605 C   0  0  1  0  0  0  0  0  0  0  0  0
  146.9137  139.5205  157.0306 N   0  0  0  0  0  0  0  0  0  0  0  0
  145.6023  139.3015  157.4003 C   0  0  0  0  0  0  0  0  0  0  0  0
  144.8961  139.5829  159.0194 S   0  0  0  0  0  0  0  0  0  0  0  0
  143.0972  139.6366  158.6415 C   0  0  0  0  0  0  0  0  0  0  0  0
  145.1897  138.3904  159.8299 O   0  0  0  0  0  0  0  0  0  0  0  0
  145.3371  140.9144  159.4619 O   0  0  0  0  0  0  0  0  0  0  0  0
  144.7775  138.9463  156.4530 N   0  0  0  0  0  0  0  0  0  0  0  0
  145.6005  138.8522  155.3394 C   0  0  0  0  0  0  0  0  0  0  0  0
  145.3881  138.4921  153.9848 C   0  0  0  0  0  0  0  0  0  0  0  0
  144.1901  138.1338  153.5030 N   0  0  0  0  0  0  0  0  0  0  0  0
  146.4432  138.5083  153.1374 N   0  0  0  0  0  0  0  0  0  0  0  0
  147.6484  138.8638  153.5933 C   0  0  0  0  0  0  0  0  0  0  0  0
  147.9987  139.2292  154.8288 N   0  0  0  0  0  0  0  0  0  0  0  0
  146.9355  139.2080  155.6852 C   0  0  0  0  0  0  0  0  0  0  0  0
  149.1804  138.9171  158.0178 C   0  0  1  0  0  0  0  0  0  0  0  0
  148.8823  137.6827  157.3659 O   0  0  0  0  0  0  0  0  0  0  0  0
  149.6169  136.5837  157.6004 C   0  0  0  0  0  0  0  0  0  0  0  0
  149.1671  135.4008  156.7542 C   0  0  0  0  0  0  0  0  0  0  0  0
  150.5488  136.4867  158.3979 O   0  0  0  0  0  0  0  0  0  0  0  0
  150.4083  139.6032  157.4215 C   0  0  1  0  0  0  0  0  0  0  0  0
  150.6155  139.2027  156.0699 O   0  0  0  0  0  0  0  0  0  0  0  0
  151.8443  139.2154  155.5300 C   0  0  0  0  0  0  0  0  0  0  0  0
  151.8592  138.6434  154.1191 C   0  0  0  0  0  0  0  0  0  0  0  0
  152.8691  139.6352  156.0675 O   0  0  0  0  0  0  0  0  0  0  0  0
  150.6742  145.8445  160.1008 H   0  0  0  0  0  0  0  0  0  0  0  0
  150.3626  145.5804  158.3794 H   0  0  0  0  0  0  0  0  0  0  0  0
  152.0143  145.8603  158.9454 H   0  0  0  0  0  0  0  0  0  0  0  0
  151.3686  141.4464  159.1312 H   0  0  0  0  0  0  0  0  0  0  0  0
  149.6933  141.3737  159.6124 H   0  0  0  0  0  0  0  0  0  0  0  0
  150.5540  141.6532  156.6797 H   0  0  0  0  0  0  0  0  0  0  0  0
  147.6511  140.2975  158.8119 H   0  0  0  0  0  0  0  0  0  0  0  0
  142.5392  139.8106  159.5610 H   0  0  0  0  0  0  0  0  0  0  0  0
  142.7896  138.6870  158.2041 H   0  0  0  0  0  0  0  0  0  0  0  0
  142.8942  140.4421  157.9363 H   0  0  0  0  0  0  0  0  0  0  0  0
  143.3879  138.1125  154.1162 H   0  0  0  0  0  0  0  0  0  0  0  0
  144.0913  137.8867  152.5290 H   0  0  0  0  0  0  0  0  0  0  0  0
  148.4461  138.8559  152.8654 H   0  0  0  0  0  0  0  0  0  0  0  0
  149.3468  138.7786  159.0870 H   0  0  0  0  0  0  0  0  0  0  0  0
  148.1185  135.1747  156.9489 H   0  0  0  0  0  0  0  0  0  0  0  0
  149.7600  134.5158  156.9857 H   0  0  0  0  0  0  0  0  0  0  0  0
  149.2831  135.6281  155.6944 H   0  0  0  0  0  0  0  0  0  0  0  0
  151.2956  139.3793  158.0159 H   0  0  0  0  0  0  0  0  0  0  0  0
  151.5267  137.6053  154.1283 H   0  0  0  0  0  0  0  0  0  0  0  0
  152.8646  138.6815  153.6994 H   0  0  0  0  0  0  0  0  0  0  0  0
  151.1925  139.2150  153.4732 H   0  0  0  0  0  0  0  0  0  0  0  0
  1  2  1  0  0  0  0
  1 33  1  0  0  0  0
  1 34  1  0  0  0  0
  1 35  1  0  0  0  0
  2  3  2  0  0  0  0
  2  4  1  0  0  0  0
  4  5  1  0  0  0  0
  5  6  1  0  0  0  0
  5 36  1  0  0  0  0
  5 37  1  0  0  0  0
  6 28  1  0  0  0  0
  6  7  1  0  0  0  0
  6 38  1  0  0  0  0
  7  8  1  0  0  0  0
  8  9  1  0  0  0  0
  8 23  1  0  0  0  0
  8 39  1  0  0  0  0
  9 22  1  0  0  0  0
  9 10  1  0  0  0  0
 10 11  1  0  0  0  0
 10 15  2  0  0  0  0
 11 12  1  0  0  0  0
 11 13  2  0  0  0  0
 11 14  2  0  0  0  0
 12 40  1  0  0  0  0
 12 41  1  0  0  0  0
 12 42  1  0  0  0  0
 15 16  1  0  0  0  0
 16 22  2  0  0  0  0
 16 17  1  0  0  0  0
 17 18  1  0  0  0  0
 17 19  2  0  0  0  0
 18 43  1  0  0  0  0
 18 44  1  0  0  0  0
 19 20  1  0  0  0  0
 20 21  2  0  0  0  0
 20 45  1  0  0  0  0
 21 22  1  0  0  0  0
 23 24  1  0  0  0  0
 23 28  1  0  0  0  0
 23 46  1  0  0  0  0
 24 25  1  0  0  0  0
 25 26  1  0  0  0  0
 25 27  2  0  0  0  0
 26 47  1  0  0  0  0
 26 48  1  0  0  0  0
 26 49  1  0  0  0  0
 28 29  1  0  0  0  0
 28 50  1  0  0  0  0
 29 30  1  0  0  0  0
 30 31  1  0  0  0  0
 30 32  2  0  0  0  0
 31 51  1  0  0  0  0
 31 52  1  0  0  0  0
 31 53  1  0  0  0  0
M  END
> <s_m_source_file>
AV-unprocessed.smi

> <i_m_source_file_index>
103

> <i_lp_mmshare_version>
43012

> <i_f3d_flags>
0

> <s_epik_input>
W0NIM11DKD1PKU9bQ0gyXVtDQEBIXTFPW0NASF0oW0NAQEhdKE9DKD1PKVtDSDNdKVtDQEhdMU9DKD1PKVtDSDNdKW4oYyhuMilTKD1PKSg9TylbQ0gzXSljKGMyMyluW2NIXW5jM1tOSDJd

> <s_epik_cmdline>
J2VwaWtfcHl0aG9uJywgJy1waCcsICc3LjAnLCAnLXRuJywgJzgnLCAnLW1hJywgJzIwMCcsICctbWV0YWxfYmluZGluZycsICctaW1hZScsICc8aW5maWxlLm1hZT4nLCAnLW9tYWUnLCAnPG91dGZpbGUubWFlPic=

> <r_lp_tautomer_probability>
1

> <r_epik_Ionization_Penalty>
1.51338e-05

> <r_epik_Ionization_Penalty_Charging>
0

> <r_epik_Ionization_Penalty_Neutral>
1.51338e-05

> <r_epik_State_Penalty>
-0

> <r_epik_Charging_Adjusted_Penalty>
0

> <i_epik_Tot_Q>
0

> <i_epik_Tot_abs_Q>
0

> <r_epik_Metal_State_Penalty>
-0

> <b_epik_Metal_Only>
0

> <s_epik_Chemistry_Notes>
This compound has an ester and may undergo hydrolysis at high or low pH. This compound contains an acetal/aminal-like group ( X-CH(R)-Y where X, Y are N, S, or O) that may be acid/base labile, releasing an aldehyde.

> <s_lp_Force_Field>
OPLS_2005

> <r_lp_Energy>
14.6626

> <b_lp_Chiralities_Consistent>
1

> <s_lp_Variant>
AV-unprocessed.smi:103-1

> <Gold.Version>
5.8.1

> <Gold.Id.Protein>
6NUR|6NUR_protein|mol2

> <Gold.PLP.Fitness>
40.3040

> <Gold.PLP.PLP>
-27.8558

> <Gold.PLP.part.hbond>
-4.8850

> <Gold.PLP.part.metal>
0.0000

> <Gold.PLP.part.buried>
-4.1135

> <Gold.PLP.part.nonpolar>
-20.2270

> <Gold.PLP.part.repulsive>
0.5146

> <Gold.PLP.ligand.clash>
0.0000

> <Gold.PLP.ligand.torsion>
2.2327

> <Gold.PLP.Chemscore.Hbond>
3.1251

> <Gold.PLP.Chemscore.CHOScore>
1.7447

> <Gold.PLP.Chemscore.Metal>
0.0000

> <Gold.Chemscore.Hbonds>
donor molecule, donor type, donor heavy atom, donor atom, acceptor molecule, acceptor atom, score
      P1  H  6896  6909       L1    27  0.80
      P1  H  6934  6946       L1    14  0.66
      P1  H  6934  6947       L1    13  0.16
      P1  H  7997  8010       L1    32  1.00
      L1  C    20    45       P1  7948  0.17
      L1  C    20    45       P1  7957  1.00

> <Gold.PLP.Chemscore.Internal.Correction>
2.3045

> <Gold.Rescore>
     Score         DG    S(hbond)    S(metal)    S(lipo)     H(rot)  DE(clash)    DE(int)     intcor
      1.32      -6.75       2.32        0.00      37.54       4.25       0.31       5.12       ----

> <Gold.Chemscore.Fitness>
1.3197

> <Gold.Chemscore.DG>
-6.7489

> <Gold.Chemscore.ZeroCoef>
-5.4800

> <Gold.Chemscore.Hbond>
2.3189

> <Gold.Chemscore.Metal>
0.0000

> <Gold.Chemscore.Lipo>
37.5415

> <Gold.Chemscore.Internal_Hbond>
0.0000

> <Gold.Chemscore.DEClash>
0.3075

> <Gold.Chemscore.DEInternal>
5.1218

> <Gold.Chemscore.Rot>
4.2456

> <Gold.Chemscore.Internal.Correction>
   9.000000E+99

> <Gold.Chemscore.Hbonds>
donor molecule, donor type, donor heavy atom, donor atom, acceptor molecule, acceptor atom, score
      P1  H  6896  6909       L1    27  0.75
      P1  H  6934  6946       L1    14  0.53
      P1  H  6934  6947       L1    13  0.05
      P1  H  7997  8010       L1    32  0.97

> <Gold.Chemscore.Hbond.Weighted>
-7.7453

> <Gold.Chemscore.Metal.Weighted>
-0.0000

> <Gold.Chemscore.Lipo.Weighted>
-4.3924

> <Gold.Chemscore.Internal_Hbond.Weighted>
0.0000

> <Gold.Chemscore.DEClash.Weighted>
0.3075

> <Gold.Chemscore.DEInternal.Weighted>
5.1218

> <Gold.Chemscore.Rot.Weighted>
10.8687

> <Gold.Chemscore.Internal.Correction.Weighted>
   9.000000E+99

> <Gold.Protein.RotatedTorsions>
[ 6907 6896 6895 6894 ] final   85.43 input  -60.11 | X-H torsion
[ 7974 7965 7964 7962 ] final -137.21 input  175.53 | X-H torsion
[ 8008 7997 7996 7995 ] final   88.16 input   59.86 | X-H torsion
[ 10167 10162 10161 10158 ] final -154.72 input  -65.29 | X-H torsion
[ 10718 10713 10712 10709 ] final   81.68 input   66.30 | X-H torsion
[ 10763 10752 10751 10750 ] final  172.05 input  -60.55 | X-H torsion
[ 11005 11000 10999 10996 ] final    6.65 input  -57.11 | X-H torsion

> <Gold.Protein.ActiveResidues>
 VAL166  LYS551  ARG553  GLY616  TRP617  ASP618  TYR619  PRO620  LYS621  CYS622 
 ASP623  PHE694  ASN695  SER759  ASP760  ASP761  ALA762  ILE779  LEU786  VAL792 
 PHE793  MET794  SER795  GLU796  ALA797  LYS798  CYS799  TRP800  GLU811  SER814 

> <Gold.Protein.RotatedAtoms>
  152.5374  134.2587  159.8926 H   0  0  0  0  0  0  0  0  0  0  0  0  # atno 6907 bound_to 6896
  151.2548  133.4325  159.2621 H   0  0  0  0  0  0  0  0  0  0  0  0  # atno 6908 bound_to 6896
  151.0506  134.9684  159.8266 H   0  0  0  0  0  0  0  0  0  0  0  0  # atno 6909 bound_to 6896
  144.8861  140.6577  143.5175 H   0  0  0  0  0  0  0  0  0  0  0  0  # atno 7974 bound_to 7965
  155.9843  140.3374  155.6693 H   0  0  0  0  0  0  0  0  0  0  0  0  # atno 8008 bound_to 7997
  155.6506  140.0705  157.2606 H   0  0  0  0  0  0  0  0  0  0  0  0  # atno 8009 bound_to 7997
  154.4201  140.1726  156.1658 H   0  0  0  0  0  0  0  0  0  0  0  0  # atno 8010 bound_to 7997
  139.6990  143.9294  152.2420 H   0  0  0  0  0  0  0  0  0  0  0  0  # atno 10167 bound_to 10162
  157.6839  131.0015  150.2263 H   0  0  0  0  0  0  0  0  0  0  0  0  # atno 10718 bound_to 10713
  154.4206  135.2758  155.1978 H   0  0  0  0  0  0  0  0  0  0  0  0  # atno 10763 bound_to 10752
  154.3925  135.6063  153.5855 H   0  0  0  0  0  0  0  0  0  0  0  0  # atno 10764 bound_to 10752
  152.9833  135.5907  154.4502 H   0  0  0  0  0  0  0  0  0  0  0  0  # atno 10765 bound_to 10752
  140.5571  134.0228  155.7958 H   0  0  0  0  0  0  0  0  0  0  0  0  # atno 11005 bound_to 11000
  145.3866  139.1625  143.4251 LP  0  0  0  0  0  0  0  0  0  0  0  0  # atno 17320 bound_to 7965
  146.3025  140.3952  142.8699 LP  0  0  0  0  0  0  0  0  0  0  0  0  # atno 17321 bound_to 7965
  139.9131  144.6844  150.8541 LP  0  0  0  0  0  0  0  0  0  0  0  0  # atno 17342 bound_to 10162
  140.7704  143.3429  151.2171 LP  0  0  0  0  0  0  0  0  0  0  0  0  # atno 17343 bound_to 10162
  156.2904  130.3745  149.7847 LP  0  0  0  0  0  0  0  0  0  0  0  0  # atno 17370 bound_to 10713
  156.5508  130.8341  151.3299 LP  0  0  0  0  0  0  0  0  0  0  0  0  # atno 17371 bound_to 10713
  141.1137  133.9575  157.2863 LP  0  0  0  0  0  0  0  0  0  0  0  0  # atno 17394 bound_to 11000
  139.9426  135.0189  156.8755 LP  0  0  0  0  0  0  0  0  0  0  0  0  # atno 17395 bound_to 11000

$$$$
