AV-unprocessed.smi:1774|AV-procd|sdf|7169|dock10
  -GOLD-   22720 8403D 1   1.00000     0.00000
 Structure written by MMmdl.
 46 47  0  0  0  0  0  0  0  0  2 V2000
  147.8307  133.0017  152.3348 C   0  0  0  0  0  0  0  0  0  0  0  0
  146.4416  133.0613  151.7206 C   0  0  0  0  0  0  0  0  0  0  0  0
  145.8641  131.8819  151.2039 C   0  0  0  0  0  0  0  0  0  0  0  0
  144.5794  131.9388  150.6373 C   0  0  0  0  0  0  0  0  0  0  0  0
  143.9225  133.1809  150.6106 C   0  0  0  0  0  0  0  0  0  0  0  0
  144.4668  134.3126  151.1023 N   0  0  0  0  0  0  0  0  0  0  0  0
  145.7056  134.2745  151.6544 C   0  0  0  0  0  0  0  0  0  0  0  0
  146.3399  135.4287  152.1955 N   0  0  0  0  0  0  0  0  0  0  0  0
  145.7697  136.5022  152.7707 C   0  0  0  0  0  0  0  0  0  0  0  0
  144.5593  136.6803  152.9110 O   0  0  0  0  0  0  0  0  0  0  0  0
  146.6933  137.3793  153.1904 N   0  0  0  0  0  0  0  0  0  0  0  0
  146.3945  138.6228  153.8911 C   0  0  0  0  0  0  0  0  0  0  0  0
  147.3356  139.7622  153.4556 C   0  0  0  0  0  0  0  0  0  0  0  0
  148.4824  139.9221  154.3831 N   0  3  1  0  0  0  0  0  0  0  0  0
  149.6081  139.0152  154.0621 C   0  0  0  0  0  0  0  0  0  0  0  0
  150.7196  139.1451  155.1196 C   0  0  1  0  0  0  0  0  0  0  0  0
  151.9422  138.2866  154.7775 C   0  0  0  0  0  0  0  0  0  0  0  0
  151.1456  140.5031  155.1980 O   0  0  0  0  0  0  0  0  0  0  0  0
  150.1136  141.4403  155.5056 C   0  0  2  0  0  0  0  0  0  0  0  0
  149.6475  141.3369  156.9688 C   0  0  0  0  0  0  0  0  0  0  0  0
  148.9653  141.3215  154.4846 C   0  0  0  0  0  0  0  0  0  0  0  0
  148.2242  131.9851  152.3282 H   0  0  0  0  0  0  0  0  0  0  0  0
  147.8070  133.3445  153.3696 H   0  0  0  0  0  0  0  0  0  0  0  0
  148.5216  133.6331  151.7756 H   0  0  0  0  0  0  0  0  0  0  0  0
  146.3963  130.9428  151.2406 H   0  0  0  0  0  0  0  0  0  0  0  0
  144.1096  131.0542  150.2336 H   0  0  0  0  0  0  0  0  0  0  0  0
  142.9345  133.2692  150.1836 H   0  0  0  0  0  0  0  0  0  0  0  0
  147.3483  135.4224  152.1578 H   0  0  0  0  0  0  0  0  0  0  0  0
  147.6671  137.1609  153.0366 H   0  0  0  0  0  0  0  0  0  0  0  0
  145.3484  138.8822  153.7253 H   0  0  0  0  0  0  0  0  0  0  0  0
  146.5014  138.4429  154.9612 H   0  0  0  0  0  0  0  0  0  0  0  0
  147.7079  139.5281  152.4570 H   0  0  0  0  0  0  0  0  0  0  0  0
  146.8003  140.7092  153.3692 H   0  0  0  0  0  0  0  0  0  0  0  0
  149.2542  137.9839  154.0318 H   0  0  0  0  0  0  0  0  0  0  0  0
  149.9950  139.2517  153.0693 H   0  0  0  0  0  0  0  0  0  0  0  0
  150.3418  138.8217  156.0896 H   0  0  0  0  0  0  0  0  0  0  0  0
  151.6754  137.2315  154.7109 H   0  0  0  0  0  0  0  0  0  0  0  0
  152.7134  138.3855  155.5416 H   0  0  0  0  0  0  0  0  0  0  0  0
  152.3794  138.5824  153.8234 H   0  0  0  0  0  0  0  0  0  0  0  0
  150.5600  142.4281  155.3877 H   0  0  0  0  0  0  0  0  0  0  0  0
  148.9605  142.1474  157.2131 H   0  0  0  0  0  0  0  0  0  0  0  0
  150.4943  141.4076  157.6517 H   0  0  0  0  0  0  0  0  0  0  0  0
  149.1290  140.4009  157.1744 H   0  0  0  0  0  0  0  0  0  0  0  0
  149.3165  141.6472  153.5039 H   0  0  0  0  0  0  0  0  0  0  0  0
  148.1553  141.9945  154.7639 H   0  0  0  0  0  0  0  0  0  0  0  0
  148.1530  139.6518  155.2988 H   0  0  0  0  0  0  0  0  0  0  0  0
  1  2  1  0  0  0  0
  1 22  1  0  0  0  0
  1 23  1  0  0  0  0
  1 24  1  0  0  0  0
  2  7  1  0  0  0  0
  2  3  2  0  0  0  0
  3  4  1  0  0  0  0
  3 25  1  0  0  0  0
  4  5  2  0  0  0  0
  4 26  1  0  0  0  0
  5  6  1  0  0  0  0
  5 27  1  0  0  0  0
  6  7  2  0  0  0  0
  7  8  1  0  0  0  0
  8  9  1  0  0  0  0
  8 28  1  0  0  0  0
  9 10  2  0  0  0  0
  9 11  1  0  0  0  0
 11 12  1  0  0  0  0
 11 29  1  0  0  0  0
 12 13  1  0  0  0  0
 12 30  1  0  0  0  0
 12 31  1  0  0  0  0
 13 14  1  0  0  0  0
 13 32  1  0  0  0  0
 13 33  1  0  0  0  0
 14 21  1  0  0  0  0
 14 15  1  0  0  0  0
 14 46  1  0  0  0  0
 15 16  1  0  0  0  0
 15 34  1  0  0  0  0
 15 35  1  0  0  0  0
 16 17  1  0  0  0  0
 16 18  1  0  0  0  0
 16 36  1  0  0  0  0
 17 37  1  0  0  0  0
 17 38  1  0  0  0  0
 17 39  1  0  0  0  0
 18 19  1  0  0  0  0
 19 20  1  0  0  0  0
 19 21  1  0  0  0  0
 19 40  1  0  0  0  0
 20 41  1  0  0  0  0
 20 42  1  0  0  0  0
 20 43  1  0  0  0  0
 21 44  1  0  0  0  0
 21 45  1  0  0  0  0
M  CHG  1  14   1
M  END
> <s_m_source_file>
AV-unprocessed.smi

> <i_m_source_file_index>
1774

> <i_lp_mmshare_version>
43012

> <i_f3d_flags>
0

> <s_epik_input>
W0NIM11jMVtjSF1bY0hdW2NIXW5jMVtOSF1DKD1PKVtOSF1bQ0gyXVtDSDJdTjJbQ0gyXVtDQEBIXShbQ0gzXSlPW0NAQEhdKFtDSDNdKVtDSDJdMg==

> <s_epik_cmdline>
J2VwaWtfcHl0aG9uJywgJy1waCcsICc3LjAnLCAnLXRuJywgJzgnLCAnLW1hJywgJzIwMCcsICctbWV0YWxfYmluZGluZycsICctaW1hZScsICc8aW5maWxlLm1hZT4nLCAnLW9tYWUnLCAnPG91dGZpbGUubWFlPic=

> <r_epik_Ionization_Penalty>
0.602573

> <r_epik_Ionization_Penalty_Charging>
0.602531

> <r_epik_Ionization_Penalty_Neutral>
4.21996e-05

> <r_epik_State_Penalty>
0.617039

> <r_epik_Charging_Adjusted_Penalty>
1.21957

> <i_epik_Tot_Q>
1

> <i_epik_Tot_abs_Q>
1

> <r_epik_Metal_State_Penalty>
0.617042

> <b_epik_Metal_Only>
0

> <s_lp_Force_Field>
OPLS_2005

> <r_lp_Energy>
18.7656

> <b_lp_Chiralities_Consistent>
1

> <s_lp_Variant>
AV-unprocessed.smi:1774-6

> <Gold.Version>
5.8.1

> <Gold.Id.Protein>
6NUR|6NUR_protein|mol2

> <Gold.PLP.Fitness>
47.8427

> <Gold.PLP.PLP>
-38.1788

> <Gold.PLP.part.hbond>
-3.0000

> <Gold.PLP.part.metal>
0.0000

> <Gold.PLP.part.buried>
-4.8738

> <Gold.PLP.part.nonpolar>
-31.1354

> <Gold.PLP.part.repulsive>
0.4410

> <Gold.PLP.ligand.clash>
0.0000

> <Gold.PLP.ligand.torsion>
0.9378

> <Gold.PLP.Chemscore.Hbond>
2.8400

> <Gold.PLP.Chemscore.CHOScore>
1.0000

> <Gold.PLP.Chemscore.Metal>
0.0000

> <Gold.Chemscore.Hbonds>
donor molecule, donor type, donor heavy atom, donor atom, acceptor molecule, acceptor atom, score
      L1  H     8    28       P1  7948  1.00
      L1  H    11    29       P1  7948  0.90
      P1  H  7989  7998       L1    18  0.96
      L1  C     5    27       P1 10186  1.00

> <Gold.PLP.Chemscore.Internal.Correction>
0.0196

> <Gold.Rescore>
     Score         DG    S(hbond)    S(metal)    S(lipo)     H(rot)  DE(clash)    DE(int)     intcor
     17.46     -20.01       2.26        0.00      92.30       1.49       0.49       2.05       ----

> <Gold.Chemscore.Fitness>
17.4625

> <Gold.Chemscore.DG>
-20.0080

> <Gold.Chemscore.ZeroCoef>
-5.4800

> <Gold.Chemscore.Hbond>
2.2620

> <Gold.Chemscore.Metal>
0.0000

> <Gold.Chemscore.Lipo>
92.2996

> <Gold.Chemscore.Internal_Hbond>
0.0000

> <Gold.Chemscore.DEClash>
0.4929

> <Gold.Chemscore.DEInternal>
2.0527

> <Gold.Chemscore.Rot>
1.4946

> <Gold.Chemscore.Internal.Correction>
   9.000000E+99

> <Gold.Chemscore.Hbonds>
donor molecule, donor type, donor heavy atom, donor atom, acceptor molecule, acceptor atom, score
      L1  H     8    28       P1  7948  0.97
      L1  H    11    29       P1  7948  0.87
      P1  H  7989  7998       L1    18  0.21

> <Gold.Chemscore.Hbond.Weighted>
-7.5550

> <Gold.Chemscore.Metal.Weighted>
-0.0000

> <Gold.Chemscore.Lipo.Weighted>
-10.7991

> <Gold.Chemscore.Internal_Hbond.Weighted>
0.0000

> <Gold.Chemscore.DEClash.Weighted>
0.4929

> <Gold.Chemscore.DEInternal.Weighted>
2.0527

> <Gold.Chemscore.Rot.Weighted>
3.8261

> <Gold.Chemscore.Internal.Correction.Weighted>
   9.000000E+99

> <Gold.Protein.RotatedTorsions>
[ 6907 6896 6895 6894 ] final   46.41 input  -60.11 | X-H torsion
[ 7974 7965 7964 7962 ] final -154.91 input  175.53 | X-H torsion
[ 8008 7997 7996 7995 ] final -178.22 input   59.86 | X-H torsion
[ 10167 10162 10161 10158 ] final  -96.28 input  -65.29 | X-H torsion
[ 10718 10713 10712 10709 ] final  175.31 input   66.30 | X-H torsion
[ 10763 10752 10751 10750 ] final  122.95 input  -60.55 | X-H torsion
[ 11005 11000 10999 10996 ] final -159.13 input  -57.11 | X-H torsion

> <Gold.Protein.ActiveResidues>
 VAL166  LYS551  ARG553  GLY616  TRP617  ASP618  TYR619  PRO620  LYS621  CYS622 
 ASP623  PHE694  ASN695  SER759  ASP760  ASP761  ALA762  ILE779  LEU786  VAL792 
 PHE793  MET794  SER795  GLU796  ALA797  LYS798  CYS799  TRP800  GLU811  SER814 

> <Gold.Protein.RotatedAtoms>
  152.2561  134.8082  160.0437 H   0  0  0  0  0  0  0  0  0  0  0  0  # atno 6907 bound_to 6896
  151.8745  133.3477  159.3754 H   0  0  0  0  0  0  0  0  0  0  0  0  # atno 6908 bound_to 6896
  150.7100  134.5006  159.5604 H   0  0  0  0  0  0  0  0  0  0  0  0  # atno 6909 bound_to 6896
  144.7666  140.4323  143.5937 H   0  0  0  0  0  0  0  0  0  0  0  0  # atno 7974 bound_to 7965
  156.0163  140.1251  157.0403 H   0  0  0  0  0  0  0  0  0  0  0  0  # atno 8008 bound_to 7997
  154.4294  140.1078  156.5970 H   0  0  0  0  0  0  0  0  0  0  0  0  # atno 8009 bound_to 7997
  155.6009  140.3470  155.4596 H   0  0  0  0  0  0  0  0  0  0  0  0  # atno 8010 bound_to 7997
  140.2954  143.3195  152.0302 H   0  0  0  0  0  0  0  0  0  0  0  0  # atno 10167 bound_to 10162
  156.9368  130.9988  151.2976 H   0  0  0  0  0  0  0  0  0  0  0  0  # atno 10718 bound_to 10713
  153.6378  135.3384  155.3062 H   0  0  0  0  0  0  0  0  0  0  0  0  # atno 10763 bound_to 10752
  154.8566  135.4311  154.2037 H   0  0  0  0  0  0  0  0  0  0  0  0  # atno 10764 bound_to 10752
  153.2949  135.7020  153.7332 H   0  0  0  0  0  0  0  0  0  0  0  0  # atno 10765 bound_to 10752
  140.6460  134.4501  157.5234 H   0  0  0  0  0  0  0  0  0  0  0  0  # atno 11005 bound_to 11000
  145.6451  139.1556  143.2893 LP  0  0  0  0  0  0  0  0  0  0  0  0  # atno 17320 bound_to 7965
  146.1778  140.6545  142.9203 LP  0  0  0  0  0  0  0  0  0  0  0  0  # atno 17321 bound_to 7965
  139.4927  144.6494  151.6708 LP  0  0  0  0  0  0  0  0  0  0  0  0  # atno 17342 bound_to 10162
  140.5696  144.0131  150.6210 LP  0  0  0  0  0  0  0  0  0  0  0  0  # atno 17343 bound_to 10162
  157.5811  130.8377  149.8524 LP  0  0  0  0  0  0  0  0  0  0  0  0  # atno 17370 bound_to 10713
  156.0422  130.3736  150.1406 LP  0  0  0  0  0  0  0  0  0  0  0  0  # atno 17371 bound_to 10713
  139.9063  134.8442  156.1695 LP  0  0  0  0  0  0  0  0  0  0  0  0  # atno 17394 bound_to 11000
  141.0572  133.6859  156.1883 LP  0  0  0  0  0  0  0  0  0  0  0  0  # atno 17395 bound_to 11000

$$$$
