AV-unprocessed.smi:1207|AV-procd|sdf|5056|dock6
  -GOLD-   22720 4 93D 1   1.00000     0.00000
 Structure written by MMmdl.
 52 54  0  0  0  0  0  0  0  0  2 V2000
  152.1873  143.5189  160.4270 C   0  0  0  0  0  0  0  0  0  0  0  0
  151.9715  142.6140  159.2257 C   0  0  0  0  0  0  0  0  0  0  0  0
  150.8050  142.7926  158.4476 C   0  0  0  0  0  0  0  0  0  0  0  0
  150.6329  141.9455  157.3593 C   0  0  0  0  0  0  0  0  0  0  0  0
  149.6065  141.8632  156.4154 N   0  3  0  0  0  0  0  0  0  0  0  0
  149.8804  140.8631  155.5323 C   0  0  0  0  0  0  0  0  0  0  0  0
  151.0673  140.3078  155.8982 N   0  0  0  0  0  0  0  0  0  0  0  0
  151.8169  139.1978  155.2961 C   0  0  0  0  0  0  0  0  0  0  0  0
  150.9550  137.9369  155.0929 C   0  0  1  0  0  0  0  0  0  0  0  0
  151.5779  137.1037  154.1347 O   0  0  0  0  0  0  0  0  0  0  0  0
  150.7965  137.1433  156.4050 C   0  0  0  0  0  0  0  0  0  0  0  0
  149.6917  136.1811  156.4339 N   0  0  0  0  0  0  0  0  0  0  0  0
  148.4013  136.8424  156.6329 C   0  0  0  0  0  0  0  0  0  0  0  0
  149.9239  135.1674  157.4639 C   0  0  0  0  0  0  0  0  0  0  0  0
  149.5192  135.6248  158.8423 C   0  0  0  0  0  0  0  0  0  0  0  0
  150.1415  136.6118  159.6588 C   0  0  0  0  0  0  0  0  0  0  0  0
  151.3522  137.4461  159.3540 C   0  0  0  0  0  0  0  0  0  0  0  0
  149.5175  136.7615  160.8153 N   0  0  0  0  0  0  0  0  0  0  0  0
  148.4460  135.8632  160.7916 O   0  0  0  0  0  0  0  0  0  0  0  0
  148.4690  135.1989  159.6083 C   0  0  0  0  0  0  0  0  0  0  0  0
  147.3938  134.1899  159.3861 C   0  0  0  0  0  0  0  0  0  0  0  0
  151.5737  140.9501  157.0322 C   0  0  0  0  0  0  0  0  0  0  0  0
  152.7296  140.7622  157.7855 C   0  0  0  0  0  0  0  0  0  0  0  0
  152.9213  141.6117  158.8985 C   0  0  0  0  0  0  0  0  0  0  0  0
  154.1709  141.4275  159.7425 C   0  0  0  0  0  0  0  0  0  0  0  0
  151.3865  144.2527  160.5231 H   0  0  0  0  0  0  0  0  0  0  0  0
  153.1273  144.0635  160.3352 H   0  0  0  0  0  0  0  0  0  0  0  0
  152.2140  142.9328  161.3459 H   0  0  0  0  0  0  0  0  0  0  0  0
  150.0775  143.5531  158.6907 H   0  0  0  0  0  0  0  0  0  0  0  0
  149.2660  140.5615  154.6962 H   0  0  0  0  0  0  0  0  0  0  0  0
  152.2103  139.5481  154.3406 H   0  0  0  0  0  0  0  0  0  0  0  0
  152.6806  138.9842  155.9268 H   0  0  0  0  0  0  0  0  0  0  0  0
  149.9848  138.2411  154.7040 H   0  0  0  0  0  0  0  0  0  0  0  0
  150.9080  136.7541  153.5666 H   0  0  0  0  0  0  0  0  0  0  0  0
  151.7370  136.6220  156.5903 H   0  0  0  0  0  0  0  0  0  0  0  0
  150.6798  137.8415  157.2352 H   0  0  0  0  0  0  0  0  0  0  0  0
  147.5860  136.1193  156.6597 H   0  0  0  0  0  0  0  0  0  0  0  0
  148.1739  137.5314  155.8214 H   0  0  0  0  0  0  0  0  0  0  0  0
  148.3851  137.4003  157.5699 H   0  0  0  0  0  0  0  0  0  0  0  0
  149.3578  134.2690  157.2147 H   0  0  0  0  0  0  0  0  0  0  0  0
  150.9706  134.8613  157.4447 H   0  0  0  0  0  0  0  0  0  0  0  0
  151.2899  137.8715  158.3523 H   0  0  0  0  0  0  0  0  0  0  0  0
  152.2607  136.8456  159.4043 H   0  0  0  0  0  0  0  0  0  0  0  0
  151.4609  138.2735  160.0566 H   0  0  0  0  0  0  0  0  0  0  0  0
  147.6990  133.4528  158.6431 H   0  0  0  0  0  0  0  0  0  0  0  0
  146.4836  134.6717  159.0295 H   0  0  0  0  0  0  0  0  0  0  0  0
  147.1592  133.6601  160.3093 H   0  0  0  0  0  0  0  0  0  0  0  0
  153.4513  139.9985  157.5356 H   0  0  0  0  0  0  0  0  0  0  0  0
  154.7883  140.6099  159.3690 H   0  0  0  0  0  0  0  0  0  0  0  0
  153.9058  141.1995  160.7752 H   0  0  0  0  0  0  0  0  0  0  0  0
  154.7765  142.3340  159.7313 H   0  0  0  0  0  0  0  0  0  0  0  0
  148.7783  142.4433  156.3753 H   0  0  0  0  0  0  0  0  0  0  0  0
  1  2  1  0  0  0  0
  1 26  1  0  0  0  0
  1 27  1  0  0  0  0
  1 28  1  0  0  0  0
  2 24  1  0  0  0  0
  2  3  2  0  0  0  0
  3  4  1  0  0  0  0
  3 29  1  0  0  0  0
  4 22  2  0  0  0  0
  4  5  1  0  0  0  0
  5  6  2  0  0  0  0
  5 52  1  0  0  0  0
  6  7  1  0  0  0  0
  6 30  1  0  0  0  0
  7  8  1  0  0  0  0
  7 22  1  0  0  0  0
  8  9  1  0  0  0  0
  8 31  1  0  0  0  0
  8 32  1  0  0  0  0
  9 10  1  0  0  0  0
  9 11  1  0  0  0  0
  9 33  1  0  0  0  0
 10 34  1  0  0  0  0
 11 12  1  0  0  0  0
 11 35  1  0  0  0  0
 11 36  1  0  0  0  0
 12 13  1  0  0  0  0
 12 14  1  0  0  0  0
 13 37  1  0  0  0  0
 13 38  1  0  0  0  0
 13 39  1  0  0  0  0
 14 15  1  0  0  0  0
 14 40  1  0  0  0  0
 14 41  1  0  0  0  0
 15 20  2  0  0  0  0
 15 16  1  0  0  0  0
 16 17  1  0  0  0  0
 16 18  2  0  0  0  0
 17 42  1  0  0  0  0
 17 43  1  0  0  0  0
 17 44  1  0  0  0  0
 18 19  1  0  0  0  0
 19 20  1  0  0  0  0
 20 21  1  0  0  0  0
 21 45  1  0  0  0  0
 21 46  1  0  0  0  0
 21 47  1  0  0  0  0
 22 23  1  0  0  0  0
 23 24  2  0  0  0  0
 23 48  1  0  0  0  0
 24 25  1  0  0  0  0
 25 49  1  0  0  0  0
 25 50  1  0  0  0  0
 25 51  1  0  0  0  0
M  CHG  1   5   1
M  END
> <s_m_source_file>
AV-unprocessed.smi

> <i_m_source_file_index>
1207

> <i_lp_mmshare_version>
43012

> <i_f3d_flags>
0

> <s_epik_input>
W0NIM11jKFtjSF0xKWMoW0NIM10pW2NIXWMoYzEyKW4oW2NIXW4yKVtDSDJdW0NASF0oW09IXSlbQ0gyXU4oW0NIM10pW0NIMl1jM2MoW0NIM10pbm9jM1tDSDNd

> <s_epik_cmdline>
J2VwaWtfcHl0aG9uJywgJy1waCcsICc3LjAnLCAnLXRuJywgJzgnLCAnLW1hJywgJzIwMCcsICctbWV0YWxfYmluZGluZycsICctaW1hZScsICc8aW5maWxlLm1hZT4nLCAnLW9tYWUnLCAnPG91dGZpbGUubWFlPic=

> <r_epik_Ionization_Penalty>
1.48114

> <r_epik_Ionization_Penalty_Charging>
1.21121

> <r_epik_Ionization_Penalty_Neutral>
0.269933

> <r_epik_State_Penalty>
1.53013

> <r_epik_Charging_Adjusted_Penalty>
2.74134

> <i_epik_Tot_Q>
1

> <i_epik_Tot_abs_Q>
1

> <r_epik_Metal_State_Penalty>
1.60462

> <b_epik_Metal_Only>
0

> <s_lp_Force_Field>
OPLS_2005

> <r_lp_Energy>
20.0432

> <b_lp_Chiralities_Consistent>
1

> <s_lp_Variant>
AV-unprocessed.smi:1207-8

> <Gold.Version>
5.8.1

> <Gold.Id.Protein>
6NUR|6NUR_protein|mol2

> <Gold.PLP.Fitness>
51.5898

> <Gold.PLP.PLP>
-39.9420

> <Gold.PLP.part.hbond>
-5.0000

> <Gold.PLP.part.metal>
0.0000

> <Gold.PLP.part.buried>
-3.9900

> <Gold.PLP.part.nonpolar>
-30.4578

> <Gold.PLP.part.repulsive>
0.1387

> <Gold.PLP.ligand.clash>
0.0000

> <Gold.PLP.ligand.torsion>
0.8601

> <Gold.PLP.Chemscore.Hbond>
4.3736

> <Gold.PLP.Chemscore.CHOScore>
0.0000

> <Gold.PLP.Chemscore.Metal>
0.0000

> <Gold.Chemscore.Hbonds>
donor molecule, donor type, donor heavy atom, donor atom, acceptor molecule, acceptor atom, score
      L1  H     5    52       P1  8028  0.10
      L1  H    10    34       P1  7949  0.25
      P1  H  6931  6943       L1    18  0.69
      P1  H 10752 10765       L1    10  1.00

> <Gold.PLP.Chemscore.Internal.Correction>
0.2471

> <Gold.Rescore>
     Score         DG    S(hbond)    S(metal)    S(lipo)     H(rot)  DE(clash)    DE(int)     intcor
     17.28     -19.21       2.58        0.00      97.30       2.46       0.13       1.80       ----

> <Gold.Chemscore.Fitness>
17.2776

> <Gold.Chemscore.DG>
-19.2117

> <Gold.Chemscore.ZeroCoef>
-5.4800

> <Gold.Chemscore.Hbond>
2.5848

> <Gold.Chemscore.Metal>
0.0000

> <Gold.Chemscore.Lipo>
97.3046

> <Gold.Chemscore.Internal_Hbond>
0.0000

> <Gold.Chemscore.DEClash>
0.1324

> <Gold.Chemscore.DEInternal>
1.8016

> <Gold.Chemscore.Rot>
2.4555

> <Gold.Chemscore.Internal.Correction>
   9.000000E+99

> <Gold.Chemscore.Hbonds>
donor molecule, donor type, donor heavy atom, donor atom, acceptor molecule, acceptor atom, score
      L1  H     5    52       P1  8028  0.06
      L1  H    10    34       P1  7949  0.05
      P1  H  6931  6943       L1    18  0.51
      P1  H 10752 10765       L1    10  0.49

> <Gold.Chemscore.Hbond.Weighted>
-8.6331

> <Gold.Chemscore.Metal.Weighted>
-0.0000

> <Gold.Chemscore.Lipo.Weighted>
-11.3846

> <Gold.Chemscore.Internal_Hbond.Weighted>
0.0000

> <Gold.Chemscore.DEClash.Weighted>
0.1324

> <Gold.Chemscore.DEInternal.Weighted>
1.8016

> <Gold.Chemscore.Rot.Weighted>
6.2861

> <Gold.Chemscore.Internal.Correction.Weighted>
   9.000000E+99

> <Gold.Protein.RotatedTorsions>
[ 6907 6896 6895 6894 ] final    9.98 input  -60.11 | X-H torsion
[ 7974 7965 7964 7962 ] final   80.46 input  175.53 | X-H torsion
[ 8008 7997 7996 7995 ] final  -49.80 input   59.86 | X-H torsion
[ 10167 10162 10161 10158 ] final -173.36 input  -65.29 | X-H torsion
[ 10718 10713 10712 10709 ] final -173.18 input   66.30 | X-H torsion
[ 10763 10752 10751 10750 ] final  158.12 input  -60.55 | X-H torsion
[ 11005 11000 10999 10996 ] final  -45.10 input  -57.11 | X-H torsion

> <Gold.Protein.ActiveResidues>
 VAL166  LYS551  ARG553  GLY616  TRP617  ASP618  TYR619  PRO620  LYS621  CYS622 
 ASP623  PHE694  ASN695  SER759  ASP760  ASP761  ALA762  ILE779  LEU786  VAL792 
 PHE793  MET794  SER795  GLU796  ALA797  LYS798  CYS799  TRP800  GLU811  SER814 

> <Gold.Protein.RotatedAtoms>
  151.7310  135.0875  160.0299 H   0  0  0  0  0  0  0  0  0  0  0  0  # atno 6907 bound_to 6896
  152.3541  133.6211  159.5975 H   0  0  0  0  0  0  0  0  0  0  0  0  # atno 6908 bound_to 6896
  150.7559  133.9444  159.3507 H   0  0  0  0  0  0  0  0  0  0  0  0  # atno 6909 bound_to 6896
  145.6509  139.2447  143.1977 H   0  0  0  0  0  0  0  0  0  0  0  0  # atno 7974 bound_to 7965
  154.4050  140.1288  156.4561 H   0  0  0  0  0  0  0  0  0  0  0  0  # atno 8008 bound_to 7997
  155.7318  140.3491  155.5043 H   0  0  0  0  0  0  0  0  0  0  0  0  # atno 8009 bound_to 7997
  155.9120  140.1037  157.1262 H   0  0  0  0  0  0  0  0  0  0  0  0  # atno 8010 bound_to 7997
  139.5692  144.1681  152.1359 H   0  0  0  0  0  0  0  0  0  0  0  0  # atno 10167 bound_to 10162
  156.7665  130.9433  151.3119 H   0  0  0  0  0  0  0  0  0  0  0  0  # atno 10718 bound_to 10713
  154.2110  135.2786  155.2958 H   0  0  0  0  0  0  0  0  0  0  0  0  # atno 10763 bound_to 10752
  154.5779  135.5598  153.7160 H   0  0  0  0  0  0  0  0  0  0  0  0  # atno 10764 bound_to 10752
  153.0064  135.6337  154.2249 H   0  0  0  0  0  0  0  0  0  0  0  0  # atno 10765 bound_to 10752
  141.0494  133.6749  156.2966 H   0  0  0  0  0  0  0  0  0  0  0  0  # atno 11005 bound_to 11000
  146.1204  140.7315  142.9460 LP  0  0  0  0  0  0  0  0  0  0  0  0  # atno 17320 bound_to 7965
  144.7123  140.4084  143.7071 LP  0  0  0  0  0  0  0  0  0  0  0  0  # atno 17321 bound_to 7965
  140.1210  144.5373  150.6862 LP  0  0  0  0  0  0  0  0  0  0  0  0  # atno 17342 bound_to 10162
  140.6977  143.2414  151.4955 LP  0  0  0  0  0  0  0  0  0  0  0  0  # atno 17343 bound_to 10162
  157.6711  130.9051  150.0041 LP  0  0  0  0  0  0  0  0  0  0  0  0  # atno 17370 bound_to 10713
  156.1305  130.3643  149.9739 LP  0  0  0  0  0  0  0  0  0  0  0  0  # atno 17371 bound_to 10713
  140.6085  134.5483  157.5529 LP  0  0  0  0  0  0  0  0  0  0  0  0  # atno 17394 bound_to 11000
  139.9338  134.7914  156.0859 LP  0  0  0  0  0  0  0  0  0  0  0  0  # atno 17395 bound_to 11000

$$$$
