AV-unprocessed.smi:1056|AV-procd|sdf|4646|dock7
  -GOLD-   22720 3153D 1   1.00000     0.00000
 Structure written by MMmdl.
 45 47  0  0  0  0  0  0  0  0  4 V2000
  152.6573  142.1759  160.0340 C   0  0  0  0  0  0  0  0  0  0  0  0
  151.9880  141.7050  158.7538 C   0  0  0  0  0  0  0  0  0  0  0  0
  152.3316  140.4336  158.2419 C   0  0  0  0  0  0  0  0  0  0  0  0
  151.7006  140.0295  157.0713 C   0  0  0  0  0  0  0  0  0  0  0  0
  151.8193  138.8517  156.3313 N   0  3  0  0  0  0  0  0  0  0  0  0
  150.9937  138.9095  155.2508 C   0  0  0  0  0  0  0  0  0  0  0  0
  150.3523  140.1099  155.2853 N   0  0  0  0  0  0  0  0  0  0  0  0
  149.3529  140.6625  154.3553 C   0  0  0  0  0  0  0  0  0  0  0  0
  148.2043  139.6870  154.0163 C   0  0  2  0  0  0  0  0  0  0  0  0
  148.7361  138.5884  153.3003 O   0  0  0  0  0  0  0  0  0  0  0  0
  147.0777  140.3339  153.1802 C   0  0  0  0  0  0  0  0  0  0  0  0
  146.0944  141.0834  154.0043 N   0  3  2  0  0  0  0  0  0  0  0  0
  146.3679  142.5439  154.0291 C   0  0  0  0  0  0  0  0  0  0  0  0
  145.1656  143.3058  154.6187 C   0  0  0  0  0  0  0  0  0  0  0  0
  144.7139  142.6644  155.8588 N   0  5  0  0  0  0  0  0  0  0  0  0
  144.9256  141.3619  156.2249 C   0  0  0  0  0  0  0  0  0  0  0  0
  144.4178  140.8017  157.1938 O   0  0  0  0  0  0  0  0  0  0  0  0
  145.9290  140.5315  155.3804 C   0  0  0  0  0  0  0  0  0  0  0  0
  150.7581  140.8411  156.4092 C   0  0  0  0  0  0  0  0  0  0  0  0
  150.4092  142.0973  156.9014 C   0  0  0  0  0  0  0  0  0  0  0  0
  151.0391  142.5262  158.0916 C   0  0  0  0  0  0  0  0  0  0  0  0
  150.6755  143.8905  158.6525 C   0  0  0  0  0  0  0  0  0  0  0  0
  153.3210  141.4127  160.4412 H   0  0  0  0  0  0  0  0  0  0  0  0
  151.9116  142.4071  160.7948 H   0  0  0  0  0  0  0  0  0  0  0  0
  153.2518  143.0705  159.8476 H   0  0  0  0  0  0  0  0  0  0  0  0
  153.0521  139.8023  158.7414 H   0  0  0  0  0  0  0  0  0  0  0  0
  150.8713  138.1431  154.4986 H   0  0  0  0  0  0  0  0  0  0  0  0
  148.9468  141.5616  154.8209 H   0  0  0  0  0  0  0  0  0  0  0  0
  149.8520  140.9996  153.4473 H   0  0  0  0  0  0  0  0  0  0  0  0
  147.8122  139.3102  154.9598 H   0  0  0  0  0  0  0  0  0  0  0  0
  149.1895  138.9112  152.5362 H   0  0  0  0  0  0  0  0  0  0  0  0
  147.4981  141.0096  152.4343 H   0  0  0  0  0  0  0  0  0  0  0  0
  146.5619  139.5494  152.6246 H   0  0  0  0  0  0  0  0  0  0  0  0
  147.2689  142.7362  154.6144 H   0  0  0  0  0  0  0  0  0  0  0  0
  146.5592  142.9158  153.0218 H   0  0  0  0  0  0  0  0  0  0  0  0
  145.4403  144.3485  154.7747 H   0  0  0  0  0  0  0  0  0  0  0  0
  144.3658  143.3164  153.8778 H   0  0  0  0  0  0  0  0  0  0  0  0
  145.5731  139.5028  155.3396 H   0  0  0  0  0  0  0  0  0  0  0  0
  146.8903  140.5217  155.8962 H   0  0  0  0  0  0  0  0  0  0  0  0
  149.6871  142.7260  156.4026 H   0  0  0  0  0  0  0  0  0  0  0  0
  149.9615  144.4084  158.0113 H   0  0  0  0  0  0  0  0  0  0  0  0
  151.5617  144.5197  158.7391 H   0  0  0  0  0  0  0  0  0  0  0  0
  150.2240  143.7893  159.6398 H   0  0  0  0  0  0  0  0  0  0  0  0
  145.1985  140.9917  153.5477 H   0  0  0  0  0  0  0  0  0  0  0  0
  152.4157  138.0629  156.5474 H   0  0  0  0  0  0  0  0  0  0  0  0
  1  2  1  0  0  0  0
  1 23  1  0  0  0  0
  1 24  1  0  0  0  0
  1 25  1  0  0  0  0
  2 21  1  0  0  0  0
  2  3  2  0  0  0  0
  3  4  1  0  0  0  0
  3 26  1  0  0  0  0
  4 19  2  0  0  0  0
  4  5  1  0  0  0  0
  5  6  2  0  0  0  0
  5 45  1  0  0  0  0
  6  7  1  0  0  0  0
  6 27  1  0  0  0  0
  7  8  1  0  0  0  0
  7 19  1  0  0  0  0
  8  9  1  0  0  0  0
  8 28  1  0  0  0  0
  8 29  1  0  0  0  0
  9 10  1  0  0  0  0
  9 11  1  0  0  0  0
  9 30  1  0  0  0  0
 10 31  1  0  0  0  0
 11 12  1  0  0  0  0
 11 32  1  0  0  0  0
 11 33  1  0  0  0  0
 12 18  1  0  0  0  0
 12 13  1  0  0  0  0
 12 44  1  0  0  0  0
 13 14  1  0  0  0  0
 13 34  1  0  0  0  0
 13 35  1  0  0  0  0
 14 15  1  0  0  0  0
 14 36  1  0  0  0  0
 14 37  1  0  0  0  0
 15 16  1  0  0  0  0
 16 17  2  0  0  0  0
 16 18  1  0  0  0  0
 18 38  1  0  0  0  0
 18 39  1  0  0  0  0
 19 20  1  0  0  0  0
 20 21  2  0  0  0  0
 20 40  1  0  0  0  0
 21 22  1  0  0  0  0
 22 41  1  0  0  0  0
 22 42  1  0  0  0  0
 22 43  1  0  0  0  0
M  CHG  1   5   1
M  CHG  1  12   1
M  CHG  1  15  -1
M  END
> <s_m_source_file>
AV-unprocessed.smi

> <i_m_source_file_index>
1056

> <i_lp_mmshare_version>
43012

> <i_f3d_flags>
0

> <s_epik_input>
W0NIM11jKFtjSF0xKWMoW0NIM10pW2NIXWMoYzEyKW4oW2NIXW4yKVtDSDJdW0NASF0oW09IXSlbQ0gyXU4zW0NIMl1bQ0gyXVtOSF1DKD1PKVtDSDJdMw==

> <s_epik_cmdline>
J2VwaWtfcHl0aG9uJywgJy1waCcsICc3LjAnLCAnLXRuJywgJzgnLCAnLW1hJywgJzIwMCcsICctbWV0YWxfYmluZGluZycsICctaW1hZScsICc8aW5maWxlLm1hZT4nLCAnLW9tYWUnLCAnPG91dGZpbGUubWFlPic=

> <r_epik_Ionization_Penalty>
6.22415

> <r_epik_Ionization_Penalty_Charging>
6.22415

> <r_epik_Ionization_Penalty_Neutral>
4.02797e-07

> <r_epik_State_Penalty>
6.37716

> <r_epik_Charging_Adjusted_Penalty>
12.6013

> <i_epik_Tot_Q>
1

> <i_epik_Tot_abs_Q>
3

> <r_epik_Metal_State_Penalty>
2.53509

> <b_epik_Metal_Only>
1

> <s_lp_Force_Field>
OPLS_2005

> <r_lp_Energy>
27.0798

> <b_lp_Chiralities_Consistent>
1

> <s_lp_Variant>
AV-unprocessed.smi:1056-17

> <Gold.Version>
5.8.1

> <Gold.Id.Protein>
6NUR|6NUR_protein|mol2

> <Gold.PLP.Fitness>
49.0399

> <Gold.PLP.PLP>
-41.6909

> <Gold.PLP.part.hbond>
-3.0000

> <Gold.PLP.part.metal>
0.0000

> <Gold.PLP.part.buried>
-2.3107

> <Gold.PLP.part.nonpolar>
-36.2169

> <Gold.PLP.part.repulsive>
0.2648

> <Gold.PLP.ligand.clash>
0.0000

> <Gold.PLP.ligand.torsion>
0.8356

> <Gold.PLP.Chemscore.Hbond>
3.0000

> <Gold.PLP.Chemscore.CHOScore>
0.0000

> <Gold.PLP.Chemscore.Metal>
0.0000

> <Gold.Chemscore.Hbonds>
donor molecule, donor type, donor heavy atom, donor atom, acceptor molecule, acceptor atom, score
      L1  H    10    31       P1  7957  1.00
      L1  H    12    44       P1 10175  2.00

> <Gold.PLP.Chemscore.Internal.Correction>
0.0202

> <Gold.Rescore>
     Score         DG    S(hbond)    S(metal)    S(lipo)     H(rot)  DE(clash)    DE(int)     intcor
     15.14     -17.27       1.83        0.00     100.43       2.37       0.42       1.71       ----

> <Gold.Chemscore.Fitness>
15.1440

> <Gold.Chemscore.DG>
-17.2727

> <Gold.Chemscore.ZeroCoef>
-5.4800

> <Gold.Chemscore.Hbond>
1.8311

> <Gold.Chemscore.Metal>
0.0000

> <Gold.Chemscore.Lipo>
100.4286

> <Gold.Chemscore.Internal_Hbond>
0.0000

> <Gold.Chemscore.DEClash>
0.4151

> <Gold.Chemscore.DEInternal>
1.7135

> <Gold.Chemscore.Rot>
2.3724

> <Gold.Chemscore.Internal.Correction>
   9.000000E+99

> <Gold.Chemscore.Hbonds>
donor molecule, donor type, donor heavy atom, donor atom, acceptor molecule, acceptor atom, score
      L1  H    10    31       P1  7957  0.95
      L1  H    12    44       P1 10175  0.70

> <Gold.Chemscore.Hbond.Weighted>
-6.1159

> <Gold.Chemscore.Metal.Weighted>
-0.0000

> <Gold.Chemscore.Lipo.Weighted>
-11.7501

> <Gold.Chemscore.Internal_Hbond.Weighted>
0.0000

> <Gold.Chemscore.DEClash.Weighted>
0.4151

> <Gold.Chemscore.DEInternal.Weighted>
1.7135

> <Gold.Chemscore.Rot.Weighted>
6.0734

> <Gold.Chemscore.Internal.Correction.Weighted>
   9.000000E+99

> <Gold.Protein.RotatedTorsions>
[ 6907 6896 6895 6894 ] final -122.49 input  -60.11 | X-H torsion
[ 7974 7965 7964 7962 ] final   20.25 input  175.53 | X-H torsion
[ 8008 7997 7996 7995 ] final   60.40 input   59.86 | X-H torsion
[ 10167 10162 10161 10158 ] final  -47.33 input  -65.29 | X-H torsion
[ 10718 10713 10712 10709 ] final  -40.80 input   66.30 | X-H torsion
[ 10763 10752 10751 10750 ] final   37.78 input  -60.55 | X-H torsion
[ 11005 11000 10999 10996 ] final  -66.74 input  -57.11 | X-H torsion

> <Gold.Protein.ActiveResidues>
 VAL166  LYS551  ARG553  GLY616  TRP617  ASP618  TYR619  PRO620  LYS621  CYS622 
 ASP623  PHE694  ASN695  SER759  ASP760  ASP761  ALA762  ILE779  LEU786  VAL792 
 PHE793  MET794  SER795  GLU796  ALA797  LYS798  CYS799  TRP800  GLU811  SER814 

> <Gold.Protein.RotatedAtoms>
  150.8581  133.7685  159.3001 H   0  0  0  0  0  0  0  0  0  0  0  0  # atno 6907 bound_to 6896
  151.5335  135.1067  159.9918 H   0  0  0  0  0  0  0  0  0  0  0  0  # atno 6908 bound_to 6896
  152.4605  133.7769  159.6885 H   0  0  0  0  0  0  0  0  0  0  0  0  # atno 6909 bound_to 6896
  146.2118  139.8196  142.8682 H   0  0  0  0  0  0  0  0  0  0  0  0  # atno 7974 bound_to 7965
  155.5817  140.3491  155.4542 H   0  0  0  0  0  0  0  0  0  0  0  0  # atno 8008 bound_to 7997
  156.0368  140.1287  157.0224 H   0  0  0  0  0  0  0  0  0  0  0  0  # atno 8009 bound_to 7997
  154.4375  140.1032  156.6165 H   0  0  0  0  0  0  0  0  0  0  0  0  # atno 8010 bound_to 7997
  140.6780  143.2789  151.3911 H   0  0  0  0  0  0  0  0  0  0  0  0  # atno 10167 bound_to 10162
  156.2773  130.4213  149.8373 H   0  0  0  0  0  0  0  0  0  0  0  0  # atno 10718 bound_to 10713
  153.0025  135.6268  154.2200 H   0  0  0  0  0  0  0  0  0  0  0  0  # atno 10763 bound_to 10752
  154.1943  135.2807  155.3013 H   0  0  0  0  0  0  0  0  0  0  0  0  # atno 10764 bound_to 10752
  154.5735  135.5669  153.7176 H   0  0  0  0  0  0  0  0  0  0  0  0  # atno 10765 bound_to 10752
  141.1490  133.6705  156.6186 H   0  0  0  0  0  0  0  0  0  0  0  0  # atno 11005 bound_to 11000
  145.3110  141.0220  143.3554 LP  0  0  0  0  0  0  0  0  0  0  0  0  # atno 17320 bound_to 7965
  144.8936  139.4742  143.6666 LP  0  0  0  0  0  0  0  0  0  0  0  0  # atno 17321 bound_to 7965
  139.6083  144.1150  152.2272 LP  0  0  0  0  0  0  0  0  0  0  0  0  # atno 17342 bound_to 10162
  140.0556  144.5897  150.7302 LP  0  0  0  0  0  0  0  0  0  0  0  0  # atno 17343 bound_to 10162
  156.5833  130.8475  151.3389 LP  0  0  0  0  0  0  0  0  0  0  0  0  # atno 17370 bound_to 10713
  157.7303  130.9684  150.1828 LP  0  0  0  0  0  0  0  0  0  0  0  0  # atno 17371 bound_to 10713
  140.3558  134.7729  157.4499 LP  0  0  0  0  0  0  0  0  0  0  0  0  # atno 17394 bound_to 11000
  140.0824  134.5713  155.8527 LP  0  0  0  0  0  0  0  0  0  0  0  0  # atno 17395 bound_to 11000

$$$$
