AV-unprocessed.smi:1665|AV-procd|sdf|6670|dock2
  -GOLD-   22720 7383D 1   1.00000     0.00000
 Structure written by MMmdl.
 37 38  0  0  0  0  0  0  0  0  1 V2000
  145.8424  137.0836  153.0044 C   0  0  0  0  0  0  0  0  0  0  0  0
  145.6993  135.5919  152.6606 C   0  0  1  0  0  0  0  0  0  0  0  0
  145.2860  135.3383  151.1947 C   0  0  0  0  0  0  0  0  0  0  0  0
  145.1513  133.9274  150.8802 N   0  0  0  0  0  0  0  0  0  0  0  0
  144.0073  133.2228  150.5688 C   0  0  0  0  0  0  0  0  0  0  0  0
  144.3768  131.9277  150.3431 C   0  0  0  0  0  0  0  0  0  0  0  0
  145.7863  131.9393  150.5386 C   0  0  0  0  0  0  0  0  0  0  0  0
  146.2472  133.1382  150.8563 N   0  0  0  0  0  0  0  0  0  0  0  0
  146.9593  134.9151  152.9503 N   0  0  0  0  0  0  0  0  0  0  0  0
  147.1114  133.8874  153.7997 C   0  0  0  0  0  0  0  0  0  0  0  0
  146.1772  133.3455  154.3895 O   0  0  0  0  0  0  0  0  0  0  0  0
  148.5448  133.4073  154.0357 C   0  0  0  0  0  0  0  0  0  0  0  0
  148.9580  133.4298  155.5234 C   0  0  0  0  0  0  0  0  0  0  0  0
  149.9197  132.3760  155.8573 N   0  0  0  0  0  0  0  0  0  0  0  0
  149.8170  131.0847  155.1930 C   0  0  0  0  0  0  0  0  0  0  0  0
  151.1302  130.3378  155.4337 C   0  0  0  0  0  0  0  0  0  0  0  0
  151.8601  130.9975  156.9466 S   0  0  0  0  0  0  0  0  0  0  0  0
  150.8671  132.4920  156.8670 C   0  0  0  0  0  0  0  0  0  0  0  0
  151.0562  133.4455  157.6199 O   0  0  0  0  0  0  0  0  0  0  0  0
  144.8968  137.6135  152.8870 H   0  0  0  0  0  0  0  0  0  0  0  0
  146.5795  137.5696  152.3645 H   0  0  0  0  0  0  0  0  0  0  0  0
  146.1603  137.2163  154.0395 H   0  0  0  0  0  0  0  0  0  0  0  0
  144.9267  135.1849  153.3159 H   0  0  0  0  0  0  0  0  0  0  0  0
  144.3353  135.8294  150.9816 H   0  0  0  0  0  0  0  0  0  0  0  0
  146.0189  135.7703  150.5115 H   0  0  0  0  0  0  0  0  0  0  0  0
  143.0368  133.6959  150.5357 H   0  0  0  0  0  0  0  0  0  0  0  0
  143.7380  131.0985  150.0775 H   0  0  0  0  0  0  0  0  0  0  0  0
  146.4839  131.1187  150.4577 H   0  0  0  0  0  0  0  0  0  0  0  0
  147.7867  135.2896  152.5094 H   0  0  0  0  0  0  0  0  0  0  0  0
  148.6203  132.3871  153.6582 H   0  0  0  0  0  0  0  0  0  0  0  0
  149.2417  134.0011  153.4420 H   0  0  0  0  0  0  0  0  0  0  0  0
  149.3615  134.4086  155.7892 H   0  0  0  0  0  0  0  0  0  0  0  0
  148.0703  133.3017  156.1441 H   0  0  0  0  0  0  0  0  0  0  0  0
  148.9827  130.5365  155.6328 H   0  0  0  0  0  0  0  0  0  0  0  0
  149.6148  131.1983  154.1272 H   0  0  0  0  0  0  0  0  0  0  0  0
  150.9859  129.2591  155.5009 H   0  0  0  0  0  0  0  0  0  0  0  0
  151.8236  130.5314  154.6146 H   0  0  0  0  0  0  0  0  0  0  0  0
  1  2  1  0  0  0  0
  1 20  1  0  0  0  0
  1 21  1  0  0  0  0
  1 22  1  0  0  0  0
  2  3  1  0  0  0  0
  2  9  1  0  0  0  0
  2 23  1  0  0  0  0
  3  4  1  0  0  0  0
  3 24  1  0  0  0  0
  3 25  1  0  0  0  0
  4  8  1  0  0  0  0
  4  5  1  0  0  0  0
  5  6  2  0  0  0  0
  5 26  1  0  0  0  0
  6  7  1  0  0  0  0
  6 27  1  0  0  0  0
  7  8  2  0  0  0  0
  7 28  1  0  0  0  0
  9 10  1  0  0  0  0
  9 29  1  0  0  0  0
 10 11  2  0  0  0  0
 10 12  1  0  0  0  0
 12 13  1  0  0  0  0
 12 30  1  0  0  0  0
 12 31  1  0  0  0  0
 13 14  1  0  0  0  0
 13 32  1  0  0  0  0
 13 33  1  0  0  0  0
 14 18  1  0  0  0  0
 14 15  1  0  0  0  0
 15 16  1  0  0  0  0
 15 34  1  0  0  0  0
 15 35  1  0  0  0  0
 16 17  1  0  0  0  0
 16 36  1  0  0  0  0
 16 37  1  0  0  0  0
 17 18  1  0  0  0  0
 18 19  2  0  0  0  0
M  END
> <s_m_source_file>
AV-unprocessed.smi

> <i_m_source_file_index>
1665

> <i_lp_mmshare_version>
43012

> <i_f3d_flags>
0

> <s_epik_input>
bjFbY0hdW2NIXVtjSF1uMVtDSDJdW0NAQEhdKFtDSDNdKVtOSF1DKD1PKVtDSDJdW0NIMl1OMltDSDJdW0NIMl1TQzI9Tw==

> <s_epik_cmdline>
J2VwaWtfcHl0aG9uJywgJy1waCcsICc3LjAnLCAnLXRuJywgJzgnLCAnLW1hJywgJzIwMCcsICctbWV0YWxfYmluZGluZycsICctaW1hZScsICc8aW5maWxlLm1hZT4nLCAnLW9tYWUnLCAnPG91dGZpbGUubWFlPic=

> <r_lp_tautomer_probability>
1

> <r_epik_Ionization_Penalty>
0.000300775

> <r_epik_Ionization_Penalty_Charging>
0

> <r_epik_Ionization_Penalty_Neutral>
0.000300775

> <r_epik_State_Penalty>
-0

> <r_epik_Charging_Adjusted_Penalty>
0

> <i_epik_Tot_Q>
0

> <i_epik_Tot_abs_Q>
0

> <r_epik_Metal_State_Penalty>
-0

> <b_epik_Metal_Only>
0

> <s_lp_Force_Field>
OPLS_2005

> <r_lp_Energy>
3.63181

> <b_lp_Chiralities_Consistent>
1

> <s_lp_Variant>
AV-unprocessed.smi:1665-2

> <Gold.Version>
5.8.1

> <Gold.Id.Protein>
6NUR|6NUR_protein|mol2

> <Gold.PLP.Fitness>
45.5612

> <Gold.PLP.PLP>
-34.7290

> <Gold.PLP.part.hbond>
-2.0000

> <Gold.PLP.part.metal>
0.0000

> <Gold.PLP.part.buried>
-5.3956

> <Gold.PLP.part.nonpolar>
-28.5075

> <Gold.PLP.part.repulsive>
0.3008

> <Gold.PLP.ligand.clash>
0.0000

> <Gold.PLP.ligand.torsion>
0.6597

> <Gold.PLP.Chemscore.Hbond>
2.0000

> <Gold.PLP.Chemscore.CHOScore>
2.0000

> <Gold.PLP.Chemscore.Metal>
0.0000

> <Gold.Chemscore.Hbonds>
donor molecule, donor type, donor heavy atom, donor atom, acceptor molecule, acceptor atom, score
      L1  H     9    29       P1  7948  1.00
      P1  H  6896  6907       L1    19  0.70
      L1  C     5    26       P1 10186  1.00
      L1  C     7    28       P1 10747  1.00

> <Gold.PLP.Chemscore.Internal.Correction>
0.1516

> <Gold.Rescore>
     Score         DG    S(hbond)    S(metal)    S(lipo)     H(rot)  DE(clash)    DE(int)     intcor
     13.83     -14.60       1.98        0.00      69.48       2.20       0.01       0.76       ----

> <Gold.Chemscore.Fitness>
13.8268

> <Gold.Chemscore.DG>
-14.5964

> <Gold.Chemscore.ZeroCoef>
-5.4800

> <Gold.Chemscore.Hbond>
1.9838

> <Gold.Chemscore.Metal>
0.0000

> <Gold.Chemscore.Lipo>
69.4790

> <Gold.Chemscore.Internal_Hbond>
0.0000

> <Gold.Chemscore.DEClash>
0.0118

> <Gold.Chemscore.DEInternal>
0.7578

> <Gold.Chemscore.Rot>
2.2026

> <Gold.Chemscore.Internal.Correction>
   9.000000E+99

> <Gold.Chemscore.Hbonds>
donor molecule, donor type, donor heavy atom, donor atom, acceptor molecule, acceptor atom, score
      L1  H     9    29       P1  7948  0.99
      P1  H  6896  6907       L1    19  0.69

> <Gold.Chemscore.Hbond.Weighted>
-6.6260

> <Gold.Chemscore.Metal.Weighted>
-0.0000

> <Gold.Chemscore.Lipo.Weighted>
-8.1290

> <Gold.Chemscore.Internal_Hbond.Weighted>
0.0000

> <Gold.Chemscore.DEClash.Weighted>
0.0118

> <Gold.Chemscore.DEInternal.Weighted>
0.7578

> <Gold.Chemscore.Rot.Weighted>
5.6387

> <Gold.Chemscore.Internal.Correction.Weighted>
   9.000000E+99

> <Gold.Protein.RotatedTorsions>
[ 6907 6896 6895 6894 ] final -157.26 input  -60.11 | X-H torsion
[ 7974 7965 7964 7962 ] final   43.34 input  175.53 | X-H torsion
[ 8008 7997 7996 7995 ] final   -6.67 input   59.86 | X-H torsion
[ 10167 10162 10161 10158 ] final -110.80 input  -65.29 | X-H torsion
[ 10718 10713 10712 10709 ] final  -83.48 input   66.30 | X-H torsion
[ 10763 10752 10751 10750 ] final -108.95 input  -60.55 | X-H torsion
[ 11005 11000 10999 10996 ] final  -42.17 input  -57.11 | X-H torsion

> <Gold.Protein.ActiveResidues>
 VAL166  LYS551  ARG553  GLY616  TRP617  ASP618  TYR619  PRO620  LYS621  CYS622 
 ASP623  PHE694  ASN695  SER759  ASP760  ASP761  ALA762  ILE779  LEU786  VAL792 
 PHE793  MET794  SER795  GLU796  ALA797  LYS798  CYS799  TRP800  GLU811  SER814 

> <Gold.Protein.RotatedAtoms>
  151.3002  133.4126  159.2638 H   0  0  0  0  0  0  0  0  0  0  0  0  # atno 6907 bound_to 6896
  151.0202  134.9464  159.8065 H   0  0  0  0  0  0  0  0  0  0  0  0  # atno 6908 bound_to 6896
  152.5322  134.2965  159.9115 H   0  0  0  0  0  0  0  0  0  0  0  0  # atno 6909 bound_to 6896
  146.0663  139.5197  142.9626 H   0  0  0  0  0  0  0  0  0  0  0  0  # atno 7974 bound_to 7965
  154.5915  140.2427  155.7915 H   0  0  0  0  0  0  0  0  0  0  0  0  # atno 8008 bound_to 7997
  156.2250  140.2985  155.9999 H   0  0  0  0  0  0  0  0  0  0  0  0  # atno 8009 bound_to 7997
  155.2366  140.0405  157.2960 H   0  0  0  0  0  0  0  0  0  0  0  0  # atno 8010 bound_to 7997
  140.1405  143.4283  152.1565 H   0  0  0  0  0  0  0  0  0  0  0  0  # atno 10167 bound_to 10162
  156.0018  130.4667  150.4264 H   0  0  0  0  0  0  0  0  0  0  0  0  # atno 10718 bound_to 10713
  154.8165  135.4619  154.0658 H   0  0  0  0  0  0  0  0  0  0  0  0  # atno 10763 bound_to 10752
  153.2047  135.6873  153.8194 H   0  0  0  0  0  0  0  0  0  0  0  0  # atno 10764 bound_to 10752
  153.7667  135.3276  155.3322 H   0  0  0  0  0  0  0  0  0  0  0  0  # atno 10765 bound_to 10752
  141.0297  133.6825  156.2558 H   0  0  0  0  0  0  0  0  0  0  0  0  # atno 11005 bound_to 11000
  145.6471  141.0271  143.1780 LP  0  0  0  0  0  0  0  0  0  0  0  0  # atno 17320 bound_to 7965
  144.7205  139.8048  143.7384 LP  0  0  0  0  0  0  0  0  0  0  0  0  # atno 17321 bound_to 7965
  139.5474  144.7310  151.4539 LP  0  0  0  0  0  0  0  0  0  0  0  0  # atno 17342 bound_to 10162
  140.6763  143.8182  150.7063 LP  0  0  0  0  0  0  0  0  0  0  0  0  # atno 17343 bound_to 10162
  157.2316  131.0505  151.2489 LP  0  0  0  0  0  0  0  0  0  0  0  0  # atno 17370 bound_to 10713
  157.3706  130.7179  149.6562 LP  0  0  0  0  0  0  0  0  0  0  0  0  # atno 17371 bound_to 10713
  140.6428  134.5148  157.5571 LP  0  0  0  0  0  0  0  0  0  0  0  0  # atno 17394 bound_to 11000
  139.9199  134.8169  156.1243 LP  0  0  0  0  0  0  0  0  0  0  0  0  # atno 17395 bound_to 11000

$$$$
