AV-unprocessed.smi:1056|AV-procd|sdf|4643|dock6
  -GOLD-   22720 3153D 1   1.00000     0.00000
 Structure written by MMmdl.
 44 46  0  0  0  0  0  0  0  0  3 V2000
  146.8524  129.0068  152.8380 C   0  0  0  0  0  0  0  0  0  0  0  0
  146.1817  130.3042  152.4223 C   0  0  0  0  0  0  0  0  0  0  0  0
  145.2809  130.2936  151.3336 C   0  0  0  0  0  0  0  0  0  0  0  0
  144.6363  131.4781  150.9154 C   0  0  0  0  0  0  0  0  0  0  0  0
  143.7326  131.6967  149.8898 N   0  0  0  0  0  0  0  0  0  0  0  0
  143.5013  133.0007  150.0083 C   0  0  0  0  0  0  0  0  0  0  0  0
  144.1552  133.6555  150.9871 N   0  0  0  0  0  0  0  0  0  0  0  0
  144.0707  135.0690  151.3073 C   0  0  0  0  0  0  0  0  0  0  0  0
  145.4120  135.7970  151.1005 C   0  0  1  0  0  0  0  0  0  0  0  0
  145.4889  136.2638  149.7673 O   0  0  0  0  0  0  0  0  0  0  0  0
  145.5656  136.9972  152.0544 C   0  0  0  0  0  0  0  0  0  0  0  0
  146.5491  136.7346  153.1343 N   0  3  2  0  0  0  0  0  0  0  0  0
  146.2163  135.5499  153.9682 C   0  0  0  0  0  0  0  0  0  0  0  0
  147.4226  135.1604  154.8430 C   0  0  0  0  0  0  0  0  0  0  0  0
  147.9670  136.3466  155.5150 N   0  5  0  0  0  0  0  0  0  0  0  0
  147.8241  137.6477  155.1109 C   0  0  0  0  0  0  0  0  0  0  0  0
  148.3981  138.6148  155.6061 O   0  0  0  0  0  0  0  0  0  0  0  0
  146.8148  137.9399  153.9674 C   0  0  0  0  0  0  0  0  0  0  0  0
  144.9202  132.6832  151.6217 C   0  0  0  0  0  0  0  0  0  0  0  0
  145.8138  132.7069  152.7070 C   0  0  0  0  0  0  0  0  0  0  0  0
  146.4497  131.5143  153.1112 C   0  0  0  0  0  0  0  0  0  0  0  0
  147.4146  131.5495  154.2830 C   0  0  0  0  0  0  0  0  0  0  0  0
  146.5304  128.1735  152.2128 H   0  0  0  0  0  0  0  0  0  0  0  0
  146.6063  128.7631  153.8718 H   0  0  0  0  0  0  0  0  0  0  0  0
  147.9357  129.0915  152.7499 H   0  0  0  0  0  0  0  0  0  0  0  0
  145.0766  129.3719  150.8088 H   0  0  0  0  0  0  0  0  0  0  0  0
  142.8214  133.5108  149.3415 H   0  0  0  0  0  0  0  0  0  0  0  0
  143.2894  135.5226  150.6953 H   0  0  0  0  0  0  0  0  0  0  0  0
  143.7479  135.1611  152.3451 H   0  0  0  0  0  0  0  0  0  0  0  0
  146.2213  135.0842  151.2545 H   0  0  0  0  0  0  0  0  0  0  0  0
  144.9110  137.0064  149.6750 H   0  0  0  0  0  0  0  0  0  0  0  0
  145.8757  137.8670  151.4726 H   0  0  0  0  0  0  0  0  0  0  0  0
  144.6063  137.2593  152.5036 H   0  0  0  0  0  0  0  0  0  0  0  0
  145.3506  135.7775  154.5927 H   0  0  0  0  0  0  0  0  0  0  0  0
  145.9380  134.6978  153.3497 H   0  0  0  0  0  0  0  0  0  0  0  0
  147.1192  134.3920  155.5536 H   0  0  0  0  0  0  0  0  0  0  0  0
  148.1773  134.6965  154.2074 H   0  0  0  0  0  0  0  0  0  0  0  0
  147.2113  138.7380  153.3382 H   0  0  0  0  0  0  0  0  0  0  0  0
  145.8836  138.3019  154.4059 H   0  0  0  0  0  0  0  0  0  0  0  0
  146.0087  133.6352  153.2231 H   0  0  0  0  0  0  0  0  0  0  0  0
  147.5082  132.5560  154.6917 H   0  0  0  0  0  0  0  0  0  0  0  0
  148.4064  131.2215  153.9710 H   0  0  0  0  0  0  0  0  0  0  0  0
  147.0685  130.8943  155.0826 H   0  0  0  0  0  0  0  0  0  0  0  0
  147.4250  136.5220  152.6785 H   0  0  0  0  0  0  0  0  0  0  0  0
  1  2  1  0  0  0  0
  1 23  1  0  0  0  0
  1 24  1  0  0  0  0
  1 25  1  0  0  0  0
  2 21  1  0  0  0  0
  2  3  2  0  0  0  0
  3  4  1  0  0  0  0
  3 26  1  0  0  0  0
  4 19  2  0  0  0  0
  4  5  1  0  0  0  0
  5  6  2  0  0  0  0
  6  7  1  0  0  0  0
  6 27  1  0  0  0  0
  7  8  1  0  0  0  0
  7 19  1  0  0  0  0
  8  9  1  0  0  0  0
  8 28  1  0  0  0  0
  8 29  1  0  0  0  0
  9 10  1  0  0  0  0
  9 11  1  0  0  0  0
  9 30  1  0  0  0  0
 10 31  1  0  0  0  0
 11 12  1  0  0  0  0
 11 32  1  0  0  0  0
 11 33  1  0  0  0  0
 12 18  1  0  0  0  0
 12 13  1  0  0  0  0
 12 44  1  0  0  0  0
 13 14  1  0  0  0  0
 13 34  1  0  0  0  0
 13 35  1  0  0  0  0
 14 15  1  0  0  0  0
 14 36  1  0  0  0  0
 14 37  1  0  0  0  0
 15 16  1  0  0  0  0
 16 17  2  0  0  0  0
 16 18  1  0  0  0  0
 18 38  1  0  0  0  0
 18 39  1  0  0  0  0
 19 20  1  0  0  0  0
 20 21  2  0  0  0  0
 20 40  1  0  0  0  0
 21 22  1  0  0  0  0
 22 41  1  0  0  0  0
 22 42  1  0  0  0  0
 22 43  1  0  0  0  0
M  CHG  1  12   1
M  CHG  1  15  -1
M  END
> <s_m_source_file>
AV-unprocessed.smi

> <i_m_source_file_index>
1056

> <i_lp_mmshare_version>
43012

> <i_f3d_flags>
0

> <s_epik_input>
W0NIM11jKFtjSF0xKWMoW0NIM10pW2NIXWMoYzEyKW4oW2NIXW4yKVtDSDJdW0NASF0oW09IXSlbQ0gyXU4zW0NIMl1bQ0gyXVtOSF1DKD1PKVtDSDJdMw==

> <s_epik_cmdline>
J2VwaWtfcHl0aG9uJywgJy1waCcsICc3LjAnLCAnLXRuJywgJzgnLCAnLW1hJywgJzIwMCcsICctbWV0YWxfYmluZGluZycsICctaW1hZScsICc8aW5maWxlLm1hZT4nLCAnLW9tYWUnLCAnPG91dGZpbGUubWFlPic=

> <r_epik_Ionization_Penalty>
5.13411

> <r_epik_Ionization_Penalty_Charging>
5.04792

> <r_epik_Ionization_Penalty_Neutral>
0.0861879

> <r_epik_State_Penalty>
5.18224

> <r_epik_Charging_Adjusted_Penalty>
10.2302

> <i_epik_Tot_Q>
0

> <i_epik_Tot_abs_Q>
2

> <r_epik_Metal_State_Penalty>
1.33873

> <b_epik_Metal_Only>
1

> <s_lp_Force_Field>
OPLS_2005

> <r_lp_Energy>
15.7703

> <b_lp_Chiralities_Consistent>
1

> <s_lp_Variant>
AV-unprocessed.smi:1056-14

> <Gold.Version>
5.8.1

> <Gold.Id.Protein>
6NUR|6NUR_protein|mol2

> <Gold.PLP.Fitness>
46.3730

> <Gold.PLP.PLP>
-33.8923

> <Gold.PLP.part.hbond>
-4.0000

> <Gold.PLP.part.metal>
0.0000

> <Gold.PLP.part.buried>
-4.7368

> <Gold.PLP.part.nonpolar>
-26.2566

> <Gold.PLP.part.repulsive>
0.3173

> <Gold.PLP.ligand.clash>
0.0000

> <Gold.PLP.ligand.torsion>
1.0615

> <Gold.PLP.Chemscore.Hbond>
3.8480

> <Gold.PLP.Chemscore.CHOScore>
1.0000

> <Gold.PLP.Chemscore.Metal>
0.0000

> <Gold.Chemscore.Hbonds>
donor molecule, donor type, donor heavy atom, donor atom, acceptor molecule, acceptor atom, score
      L1  H    10    31       P1 10171  1.00
      L1  H    12    44       P1  7948  2.00
      P1  H 10785 10796       L1     5  0.88
      L1  C     6    27       P1 10186  1.00

> <Gold.PLP.Chemscore.Internal.Correction>
0.0599

> <Gold.Rescore>
     Score         DG    S(hbond)    S(metal)    S(lipo)     H(rot)  DE(clash)    DE(int)     intcor
     16.25     -17.60       2.72        0.00      76.63       2.31       0.21       1.15       ----

> <Gold.Chemscore.Fitness>
16.2458

> <Gold.Chemscore.DG>
-17.6046

> <Gold.Chemscore.ZeroCoef>
-5.4800

> <Gold.Chemscore.Hbond>
2.7201

> <Gold.Chemscore.Metal>
0.0000

> <Gold.Chemscore.Lipo>
76.6250

> <Gold.Chemscore.Internal_Hbond>
0.0000

> <Gold.Chemscore.DEClash>
0.2083

> <Gold.Chemscore.DEInternal>
1.1505

> <Gold.Chemscore.Rot>
2.3147

> <Gold.Chemscore.Internal.Correction>
   9.000000E+99

> <Gold.Chemscore.Hbonds>
donor molecule, donor type, donor heavy atom, donor atom, acceptor molecule, acceptor atom, score
      L1  H    10    31       P1 10171  1.00
      L1  H    12    44       P1  7948  1.00
      P1  H 10785 10796       L1     5  0.80

> <Gold.Chemscore.Hbond.Weighted>
-9.0851

> <Gold.Chemscore.Metal.Weighted>
-0.0000

> <Gold.Chemscore.Lipo.Weighted>
-8.9651

> <Gold.Chemscore.Internal_Hbond.Weighted>
0.0000

> <Gold.Chemscore.DEClash.Weighted>
0.2083

> <Gold.Chemscore.DEInternal.Weighted>
1.1505

> <Gold.Chemscore.Rot.Weighted>
5.9256

> <Gold.Chemscore.Internal.Correction.Weighted>
   9.000000E+99

> <Gold.Protein.RotatedTorsions>
[ 6907 6896 6895 6894 ] final  -29.99 input  -60.11 | X-H torsion
[ 7974 7965 7964 7962 ] final -147.97 input  175.53 | X-H torsion
[ 8008 7997 7996 7995 ] final -102.40 input   59.86 | X-H torsion
[ 10167 10162 10161 10158 ] final -151.70 input  -65.29 | X-H torsion
[ 10718 10713 10712 10709 ] final  -37.67 input   66.30 | X-H torsion
[ 10763 10752 10751 10750 ] final -164.61 input  -60.55 | X-H torsion
[ 11005 11000 10999 10996 ] final   -9.36 input  -57.11 | X-H torsion

> <Gold.Protein.ActiveResidues>
 VAL166  LYS551  ARG553  GLY616  TRP617  ASP618  TYR619  PRO620  LYS621  CYS622 
 ASP623  PHE694  ASN695  SER759  ASP760  ASP761  ALA762  ILE779  LEU786  VAL792 
 PHE793  MET794  SER795  GLU796  ALA797  LYS798  CYS799  TRP800  GLU811  SER814 

> <Gold.Protein.RotatedAtoms>
  151.1117  135.0030  159.8496 H   0  0  0  0  0  0  0  0  0  0  0  0  # atno 6907 bound_to 6896
  152.5443  134.1828  159.8652 H   0  0  0  0  0  0  0  0  0  0  0  0  # atno 6908 bound_to 6896
  151.1879  133.4640  159.2628 H   0  0  0  0  0  0  0  0  0  0  0  0  # atno 6909 bound_to 6896
  144.8059  140.5258  143.5675 H   0  0  0  0  0  0  0  0  0  0  0  0  # atno 7974 bound_to 7965
  154.8562  140.0428  157.1636 H   0  0  0  0  0  0  0  0  0  0  0  0  # atno 8008 bound_to 7997
  154.8890  140.2983  155.5361 H   0  0  0  0  0  0  0  0  0  0  0  0  # atno 8009 bound_to 7997
  156.2997  140.2397  156.3903 H   0  0  0  0  0  0  0  0  0  0  0  0  # atno 8010 bound_to 7997
  139.7245  143.8905  152.2514 H   0  0  0  0  0  0  0  0  0  0  0  0  # atno 10167 bound_to 10162
  156.3125  130.4254  149.8037 H   0  0  0  0  0  0  0  0  0  0  0  0  # atno 10718 bound_to 10713
  154.7012  135.2988  154.9338 H   0  0  0  0  0  0  0  0  0  0  0  0  # atno 10763 bound_to 10752
  154.0270  135.6675  153.4781 H   0  0  0  0  0  0  0  0  0  0  0  0  # atno 10764 bound_to 10752
  153.0683  135.5075  154.8157 H   0  0  0  0  0  0  0  0  0  0  0  0  # atno 10765 bound_to 10752
  140.7333  133.8731  155.8910 H   0  0  0  0  0  0  0  0  0  0  0  0  # atno 11005 bound_to 11000
  145.5439  139.1475  143.3432 LP  0  0  0  0  0  0  0  0  0  0  0  0  # atno 17320 bound_to 7965
  146.2350  140.5578  142.8958 LP  0  0  0  0  0  0  0  0  0  0  0  0  # atno 17321 bound_to 7965
  139.8810  144.7017  150.8877 LP  0  0  0  0  0  0  0  0  0  0  0  0  # atno 17342 bound_to 10162
  140.7760  143.3661  151.1736 LP  0  0  0  0  0  0  0  0  0  0  0  0  # atno 17343 bound_to 10162
  156.5374  130.8285  151.3258 LP  0  0  0  0  0  0  0  0  0  0  0  0  # atno 17370 bound_to 10713
  157.7394  130.9831  150.2312 LP  0  0  0  0  0  0  0  0  0  0  0  0  # atno 17371 bound_to 10713
  140.9901  134.1289  157.4415 LP  0  0  0  0  0  0  0  0  0  0  0  0  # atno 17394 bound_to 11000
  139.8821  135.0038  156.6208 LP  0  0  0  0  0  0  0  0  0  0  0  0  # atno 17395 bound_to 11000

$$$$
