AV-unprocessed.smi:1521|AV-procd|sdf|6133|dock10
  -GOLD-   22720 6273D 1   1.00000     0.00000
 Structure written by MMmdl.
 35 36  0  0  0  0  0  0  0  0  2 V2000
  149.2124  133.1173  158.0772 O   0  0  0  0  0  0  0  0  0  0  0  0
  149.0814  134.1779  157.4674 C   0  0  0  0  0  0  0  0  0  0  0  0
  149.5419  134.3694  156.2231 N   0  0  0  0  0  0  0  0  0  0  0  0
  150.2220  133.3659  155.4107 C   0  0  0  0  0  0  0  0  0  0  0  0
  149.3926  132.9850  154.1722 C   0  0  1  0  0  0  0  0  0  0  0  0
  148.8471  131.5459  154.2640 C   0  0  0  0  0  0  0  0  0  0  0  0
  148.0638  131.2659  153.1110 O   0  0  0  0  0  0  0  0  0  0  0  0
  146.9633  132.1588  153.0052 C   0  0  0  0  0  0  0  0  0  0  0  0
  147.4938  133.5990  152.9189 C   0  0  0  0  0  0  0  0  0  0  0  0
  148.2807  133.8687  154.0706 O   0  0  0  0  0  0  0  0  0  0  0  0
  148.4676  135.2862  157.9207 N   0  0  0  0  0  0  0  0  0  0  0  0
  147.8300  135.5318  159.1501 C   0  0  0  0  0  0  0  0  0  0  0  0
  146.8465  134.7623  159.6949 C   0  0  0  0  0  0  0  0  0  0  0  0
  146.2268  135.0786  160.9759 C   0  0  0  0  0  0  0  0  0  0  0  0
  145.1881  134.1995  161.6500 C   0  0  0  0  0  0  0  0  0  0  0  0
  145.7153  133.0325  162.0211 F   0  0  0  0  0  0  0  0  0  0  0  0
  144.7173  134.8068  162.7385 F   0  0  0  0  0  0  0  0  0  0  0  0
  144.1632  133.9568  160.8326 F   0  0  0  0  0  0  0  0  0  0  0  0
  146.7677  136.2097  161.5553 C   0  0  0  0  0  0  0  0  0  0  0  0
  147.7278  137.0323  161.0802 N   0  5  0  0  0  0  0  0  0  0  0  0
  148.2964  136.7303  159.8790 C   0  0  0  0  0  0  0  0  0  0  0  0
  149.1842  137.4328  159.3937 O   0  0  0  0  0  0  0  0  0  0  0  0
  149.3906  135.2718  155.7970 H   0  0  0  0  0  0  0  0  0  0  0  0
  151.1739  133.7945  155.0959 H   0  0  0  0  0  0  0  0  0  0  0  0
  150.4645  132.4809  156.0013 H   0  0  0  0  0  0  0  0  0  0  0  0
  150.0167  133.0787  153.2814 H   0  0  0  0  0  0  0  0  0  0  0  0
  149.6682  130.8306  154.3115 H   0  0  0  0  0  0  0  0  0  0  0  0
  148.2492  131.4092  155.1666 H   0  0  0  0  0  0  0  0  0  0  0  0
  146.3867  131.9119  152.1139 H   0  0  0  0  0  0  0  0  0  0  0  0
  146.2985  132.0404  153.8622 H   0  0  0  0  0  0  0  0  0  0  0  0
  148.0855  133.7447  152.0138 H   0  0  0  0  0  0  0  0  0  0  0  0
  146.6661  134.3071  152.8802 H   0  0  0  0  0  0  0  0  0  0  0  0
  148.4365  136.0675  157.2823 H   0  0  0  0  0  0  0  0  0  0  0  0
  146.4851  133.8802  159.1948 H   0  0  0  0  0  0  0  0  0  0  0  0
  146.3717  136.4941  162.5536 H   0  0  0  0  0  0  0  0  0  0  0  0
  1  2  2  0  0  0  0
  2  3  1  0  0  0  0
  2 11  1  0  0  0  0
  3  4  1  0  0  0  0
  3 23  1  0  0  0  0
  4  5  1  0  0  0  0
  4 24  1  0  0  0  0
  4 25  1  0  0  0  0
  5 10  1  0  0  0  0
  5  6  1  0  0  0  0
  5 26  1  0  0  0  0
  6  7  1  0  0  0  0
  6 27  1  0  0  0  0
  6 28  1  0  0  0  0
  7  8  1  0  0  0  0
  8  9  1  0  0  0  0
  8 29  1  0  0  0  0
  8 30  1  0  0  0  0
  9 10  1  0  0  0  0
  9 31  1  0  0  0  0
  9 32  1  0  0  0  0
 11 12  1  0  0  0  0
 11 33  1  0  0  0  0
 12 21  1  0  0  0  0
 12 13  2  0  0  0  0
 13 14  1  0  0  0  0
 13 34  1  0  0  0  0
 14 15  1  0  0  0  0
 14 19  2  0  0  0  0
 15 16  1  0  0  0  0
 15 17  1  0  0  0  0
 15 18  1  0  0  0  0
 19 20  1  0  0  0  0
 19 35  1  0  0  0  0
 20 21  1  0  0  0  0
 21 22  2  0  0  0  0
M  CHG  1  20  -1
M  END
> <s_m_source_file>
AV-unprocessed.smi

> <i_m_source_file_index>
1521

> <i_lp_mmshare_version>
43012

> <i_f3d_flags>
0

> <s_epik_input>
Tz1jMVtuSF1bY0hdYyhDKEYpKEYpRilbY0hdYzFbTkhdQyg9TylbTkhdW0NIMl1bQ0BASF0yW0NIMl1PW0NIMl1bQ0gyXU8y

> <s_epik_cmdline>
J2VwaWtfcHl0aG9uJywgJy1waCcsICc3LjAnLCAnLXRuJywgJzgnLCAnLW1hJywgJzIwMCcsICctbWV0YWxfYmluZGluZycsICctaW1hZScsICc8aW5maWxlLm1hZT4nLCAnLW9tYWUnLCAnPG91dGZpbGUubWFlPic=

> <r_lp_tautomer_probability>
1

> <r_epik_Ionization_Penalty>
3.1412

> <r_epik_Ionization_Penalty_Charging>
0.17015

> <r_epik_Ionization_Penalty_Neutral>
2.97105

> <r_epik_State_Penalty>
2.96707

> <r_epik_Charging_Adjusted_Penalty>
3.13722

> <i_epik_Tot_Q>
-1

> <i_epik_Tot_abs_Q>
1

> <r_epik_Metal_State_Penalty>
0.451298

> <b_epik_Metal_Only>
1

> <s_lp_Force_Field>
OPLS_2005

> <r_lp_Energy>
21.3

> <b_lp_Chiralities_Consistent>
1

> <s_lp_Variant>
AV-unprocessed.smi:1521-4

> <Gold.Version>
5.8.1

> <Gold.Id.Protein>
6NUR|6NUR_protein|mol2

> <Gold.PLP.Fitness>
40.2215

> <Gold.PLP.PLP>
-28.8959

> <Gold.PLP.part.hbond>
-4.3758

> <Gold.PLP.part.metal>
0.0000

> <Gold.PLP.part.buried>
-4.4253

> <Gold.PLP.part.nonpolar>
-21.6539

> <Gold.PLP.part.repulsive>
0.7219

> <Gold.PLP.ligand.clash>
0.0000

> <Gold.PLP.ligand.torsion>
1.4289

> <Gold.PLP.Chemscore.Hbond>
4.7120

> <Gold.PLP.Chemscore.CHOScore>
0.0000

> <Gold.PLP.Chemscore.Metal>
0.0000

> <Gold.Chemscore.Hbonds>
donor molecule, donor type, donor heavy atom, donor atom, acceptor molecule, acceptor atom, score
      P1  H  6896  6908       L1     1  0.56
      P1  H  6931  6943       L1    20  1.98
      P1  H  6934  6947       L1    20  1.60

> <Gold.PLP.Chemscore.Internal.Correction>
0.0474

> <Gold.Rescore>
     Score         DG    S(hbond)    S(metal)    S(lipo)     H(rot)  DE(clash)    DE(int)     intcor
     13.56     -15.23       2.13        0.00      52.47       1.36       0.28       1.39       ----

> <Gold.Chemscore.Fitness>
13.5608

> <Gold.Chemscore.DG>
-15.2272

> <Gold.Chemscore.ZeroCoef>
-5.4800

> <Gold.Chemscore.Hbond>
2.1258

> <Gold.Chemscore.Metal>
0.0000

> <Gold.Chemscore.Lipo>
52.4677

> <Gold.Chemscore.Internal_Hbond>
0.0000

> <Gold.Chemscore.DEClash>
0.2758

> <Gold.Chemscore.DEInternal>
1.3905

> <Gold.Chemscore.Rot>
1.3640

> <Gold.Chemscore.Internal.Correction>
   9.000000E+99

> <Gold.Chemscore.Hbonds>
donor molecule, donor type, donor heavy atom, donor atom, acceptor molecule, acceptor atom, score
      P1  H  6896  6908       L1     1  0.05
      P1  H  6931  6943       L1    20  0.37
      P1  H  6934  6947       L1    20  0.34

> <Gold.Chemscore.Hbond.Weighted>
-7.1002

> <Gold.Chemscore.Metal.Weighted>
-0.0000

> <Gold.Chemscore.Lipo.Weighted>
-6.1387

> <Gold.Chemscore.Internal_Hbond.Weighted>
0.0000

> <Gold.Chemscore.DEClash.Weighted>
0.2758

> <Gold.Chemscore.DEInternal.Weighted>
1.3905

> <Gold.Chemscore.Rot.Weighted>
3.4918

> <Gold.Chemscore.Internal.Correction.Weighted>
   9.000000E+99

> <Gold.Protein.RotatedTorsions>
[ 6907 6896 6895 6894 ] final  125.92 input  -60.11 | X-H torsion
[ 7974 7965 7964 7962 ] final  -22.48 input  175.53 | X-H torsion
[ 8008 7997 7996 7995 ] final   55.52 input   59.86 | X-H torsion
[ 10167 10162 10161 10158 ] final   34.82 input  -65.29 | X-H torsion
[ 10718 10713 10712 10709 ] final  -18.90 input   66.30 | X-H torsion
[ 10763 10752 10751 10750 ] final -163.05 input  -60.55 | X-H torsion
[ 11005 11000 10999 10996 ] final  131.36 input  -57.11 | X-H torsion

> <Gold.Protein.ActiveResidues>
 VAL166  LYS551  ARG553  GLY616  TRP617  ASP618  TYR619  PRO620  LYS621  CYS622 
 ASP623  PHE694  ASN695  SER759  ASP760  ASP761  ALA762  ILE779  LEU786  VAL792 
 PHE793  MET794  SER795  GLU796  ALA797  LYS798  CYS799  TRP800  GLU811  SER814 

> <Gold.Protein.RotatedAtoms>
  152.3949  133.6733  159.6267 H   0  0  0  0  0  0  0  0  0  0  0  0  # atno 6907 bound_to 6896
  150.7850  133.8891  159.3317 H   0  0  0  0  0  0  0  0  0  0  0  0  # atno 6908 bound_to 6896
  151.6669  135.0983  160.0242 H   0  0  0  0  0  0  0  0  0  0  0  0  # atno 6909 bound_to 6896
  146.1673  140.4485  142.8547 H   0  0  0  0  0  0  0  0  0  0  0  0  # atno 7974 bound_to 7965
  155.5025  140.3475  155.4373 H   0  0  0  0  0  0  0  0  0  0  0  0  # atno 8008 bound_to 7997
  156.0904  140.1409  156.9627 H   0  0  0  0  0  0  0  0  0  0  0  0  # atno 8009 bound_to 7997
  154.4631  140.0927  156.6925 H   0  0  0  0  0  0  0  0  0  0  0  0  # atno 8010 bound_to 7997
  140.4280  144.1365  150.6155 H   0  0  0  0  0  0  0  0  0  0  0  0  # atno 10167 bound_to 10162
  156.5531  130.4706  149.6442 H   0  0  0  0  0  0  0  0  0  0  0  0  # atno 10718 bound_to 10713
  154.7158  135.3015  154.9125 H   0  0  0  0  0  0  0  0  0  0  0  0  # atno 10763 bound_to 10752
  154.0013  135.6706  153.4763 H   0  0  0  0  0  0  0  0  0  0  0  0  # atno 10764 bound_to 10752
  153.0792  135.5018  154.8384 H   0  0  0  0  0  0  0  0  0  0  0  0  # atno 10765 bound_to 10752
  139.9726  134.9573  156.9427 H   0  0  0  0  0  0  0  0  0  0  0  0  # atno 11005 bound_to 11000
  144.8111  140.6387  143.6415 LP  0  0  0  0  0  0  0  0  0  0  0  0  # atno 17320 bound_to 7965
  145.4434  139.1532  143.3958 LP  0  0  0  0  0  0  0  0  0  0  0  0  # atno 17321 bound_to 7965
  140.4459  143.2506  151.9411 LP  0  0  0  0  0  0  0  0  0  0  0  0  # atno 17342 bound_to 10162
  139.4784  144.5609  151.8240 LP  0  0  0  0  0  0  0  0  0  0  0  0  # atno 17343 bound_to 10162
  156.2867  130.7101  151.1939 LP  0  0  0  0  0  0  0  0  0  0  0  0  # atno 17370 bound_to 10713
  157.7383  131.0542  150.5300 LP  0  0  0  0  0  0  0  0  0  0  0  0  # atno 17371 bound_to 10713
  140.5262  134.0858  155.7304 LP  0  0  0  0  0  0  0  0  0  0  0  0  # atno 17394 bound_to 11000
  141.1405  133.9147  157.2337 LP  0  0  0  0  0  0  0  0  0  0  0  0  # atno 17395 bound_to 11000

$$$$
