AV-unprocessed.smi:610|AV-procd|sdf|3058|dock10
  -GOLD-   2262023583D 1   1.00000     0.00000
 Structure written by MMmdl.
 38 39  0  0  0  0  0  0  0  0  2 V2000
  148.6505  138.2489  154.7075 C   0  0  0  0  0  0  0  0  0  0  0  0
  147.2734  138.2144  154.0290 C   0  0  1  0  0  0  0  0  0  0  0  0
  147.1129  139.3553  153.0072 C   0  0  0  0  0  0  0  0  0  0  0  0
  147.0042  140.6683  153.6522 N   0  0  0  0  0  0  0  0  0  0  0  0
  146.0216  141.0919  154.5096 C   0  0  0  0  0  0  0  0  0  0  0  0
  146.3302  142.3837  154.8502 C   0  0  0  0  0  0  0  0  0  0  0  0
  147.4886  142.6928  154.1888 N   0  3  0  0  0  0  0  0  0  0  0  0
  147.8977  141.6479  153.4618 C   0  0  0  0  0  0  0  0  0  0  0  0
  147.0803  136.9251  153.3694 N   0  0  0  0  0  0  0  0  0  0  0  0
  146.0822  136.0572  153.6091 C   0  0  0  0  0  0  0  0  0  0  0  0
  145.2193  136.2654  154.4631 O   0  0  0  0  0  0  0  0  0  0  0  0
  146.0443  134.7531  152.7727 C   0  0  0  0  0  0  0  0  0  0  0  0
  147.2871  134.0009  152.8947 N   0  0  0  0  0  0  0  0  0  0  0  0
  144.8534  133.8562  153.2027 C   0  0  0  0  0  0  0  0  0  0  0  0
  143.9704  133.6577  151.9648 C   0  0  0  0  0  0  0  0  0  0  0  0
  144.3056  134.8265  151.0452 C   0  0  0  0  0  0  0  0  0  0  0  0
  145.8006  135.0471  151.2718 C   0  0  0  0  0  0  0  0  0  0  0  0
  148.8134  139.2002  155.2146 H   0  0  0  0  0  0  0  0  0  0  0  0
  149.4548  138.1157  153.9831 H   0  0  0  0  0  0  0  0  0  0  0  0
  148.7411  137.4599  155.4551 H   0  0  0  0  0  0  0  0  0  0  0  0
  146.5152  138.3490  154.8027 H   0  0  0  0  0  0  0  0  0  0  0  0
  147.9762  139.3939  152.3414 H   0  0  0  0  0  0  0  0  0  0  0  0
  146.2344  139.1991  152.3786 H   0  0  0  0  0  0  0  0  0  0  0  0
  145.1958  140.4599  154.8032 H   0  0  0  0  0  0  0  0  0  0  0  0
  145.8256  143.0871  155.4965 H   0  0  0  0  0  0  0  0  0  0  0  0
  148.7745  141.6063  152.8402 H   0  0  0  0  0  0  0  0  0  0  0  0
  147.7578  136.6645  152.6670 H   0  0  0  0  0  0  0  0  0  0  0  0
  147.2004  133.1370  152.3785 H   0  0  0  0  0  0  0  0  0  0  0  0
  148.0302  134.5199  152.4499 H   0  0  0  0  0  0  0  0  0  0  0  0
  145.1698  132.8927  153.6058 H   0  0  0  0  0  0  0  0  0  0  0  0
  144.2609  134.3304  153.9873 H   0  0  0  0  0  0  0  0  0  0  0  0
  144.2383  132.7216  151.4731 H   0  0  0  0  0  0  0  0  0  0  0  0
  142.9091  133.6095  152.2105 H   0  0  0  0  0  0  0  0  0  0  0  0
  144.0641  134.6230  150.0017 H   0  0  0  0  0  0  0  0  0  0  0  0
  143.7460  135.7114  151.3513 H   0  0  0  0  0  0  0  0  0  0  0  0
  146.1095  136.0486  150.9676 H   0  0  0  0  0  0  0  0  0  0  0  0
  146.3538  134.3485  150.6413 H   0  0  0  0  0  0  0  0  0  0  0  0
  147.9687  143.5826  154.2418 H   0  0  0  0  0  0  0  0  0  0  0  0
  1  2  1  0  0  0  0
  1 18  1  0  0  0  0
  1 19  1  0  0  0  0
  1 20  1  0  0  0  0
  2  3  1  0  0  0  0
  2  9  1  0  0  0  0
  2 21  1  0  0  0  0
  3  4  1  0  0  0  0
  3 22  1  0  0  0  0
  3 23  1  0  0  0  0
  4  8  1  0  0  0  0
  4  5  1  0  0  0  0
  5  6  2  0  0  0  0
  5 24  1  0  0  0  0
  6  7  1  0  0  0  0
  6 25  1  0  0  0  0
  7  8  2  0  0  0  0
  7 38  1  0  0  0  0
  8 26  1  0  0  0  0
  9 10  1  0  0  0  0
  9 27  1  0  0  0  0
 10 11  2  0  0  0  0
 10 12  1  0  0  0  0
 12 17  1  0  0  0  0
 12 13  1  0  0  0  0
 12 14  1  0  0  0  0
 13 28  1  0  0  0  0
 13 29  1  0  0  0  0
 14 15  1  0  0  0  0
 14 30  1  0  0  0  0
 14 31  1  0  0  0  0
 15 16  1  0  0  0  0
 15 32  1  0  0  0  0
 15 33  1  0  0  0  0
 16 17  1  0  0  0  0
 16 34  1  0  0  0  0
 16 35  1  0  0  0  0
 17 36  1  0  0  0  0
 17 37  1  0  0  0  0
M  CHG  1   7   1
M  END
> <s_m_source_file>
AV-unprocessed.smi

> <i_m_source_file_index>
610

> <i_lp_mmshare_version>
43012

> <i_f3d_flags>
0

> <s_epik_input>
W2NIXTFuW2NIXVtjSF1uMVtDSDJdW0NAQEhdKFtDSDNdKVtOSF1DKD1PKUMyKFtOSDJdKVtDSDJdW0NIMl1bQ0gyXVtDSDJdMg==

> <s_epik_cmdline>
J2VwaWtfcHl0aG9uJywgJy1waCcsICc3LjAnLCAnLXRuJywgJzgnLCAnLW1hJywgJzIwMCcsICctbWV0YWxfYmluZGluZycsICctaW1hZScsICc8aW5maWxlLm1hZT4nLCAnLW9tYWUnLCAnPG91dGZpbGUubWFlPic=

> <r_epik_Ionization_Penalty>
1.50287

> <r_epik_Ionization_Penalty_Charging>
0

> <r_epik_Ionization_Penalty_Neutral>
1.50287

> <r_epik_State_Penalty>
1.57152

> <r_epik_Charging_Adjusted_Penalty>
1.57152

> <i_epik_Tot_Q>
1

> <i_epik_Tot_abs_Q>
1

> <r_epik_Metal_State_Penalty>
1.8522

> <b_epik_Metal_Only>
0

> <s_lp_Force_Field>
OPLS_2005

> <r_lp_Energy>
23.5797

> <b_lp_Chiralities_Consistent>
1

> <s_lp_Variant>
AV-unprocessed.smi:610-6

> <Gold.Version>
5.8.1

> <Gold.Id.Protein>
6NUR|6NUR_protein|mol2

> <Gold.PLP.Fitness>
40.7731

> <Gold.PLP.PLP>
-24.4229

> <Gold.PLP.part.hbond>
-2.9874

> <Gold.PLP.part.metal>
0.0000

> <Gold.PLP.part.buried>
-1.4602

> <Gold.PLP.part.nonpolar>
-20.5122

> <Gold.PLP.part.repulsive>
0.2424

> <Gold.PLP.ligand.clash>
0.0000

> <Gold.PLP.ligand.torsion>
0.1273

> <Gold.PLP.Chemscore.Hbond>
4.0000

> <Gold.PLP.Chemscore.CHOScore>
1.5238

> <Gold.PLP.Chemscore.Metal>
0.0000

> <Gold.Chemscore.Hbonds>
donor molecule, donor type, donor heavy atom, donor atom, acceptor molecule, acceptor atom, score
      L1  H     7    38       P1  8028  1.57
      L1  H     9    27       P1  7948  0.93
      L1  H    13    29       P1  7948  1.00
      L1  C     5    24       P1 10175  0.17
      L1  C     8    26       P1  7957  1.00

> <Gold.PLP.Chemscore.Internal.Correction>
0.0335

> <Gold.Rescore>
     Score         DG    S(hbond)    S(metal)    S(lipo)     H(rot)  DE(clash)    DE(int)     intcor
     14.06     -14.27       2.59        0.00      45.25       2.02       0.04       0.17       ----

> <Gold.Chemscore.Fitness>
14.0583

> <Gold.Chemscore.DG>
-14.2686

> <Gold.Chemscore.ZeroCoef>
-5.4800

> <Gold.Chemscore.Hbond>
2.5910

> <Gold.Chemscore.Metal>
0.0000

> <Gold.Chemscore.Lipo>
45.2459

> <Gold.Chemscore.Internal_Hbond>
0.0000

> <Gold.Chemscore.DEClash>
0.0398

> <Gold.Chemscore.DEInternal>
0.1705

> <Gold.Chemscore.Rot>
2.0152

> <Gold.Chemscore.Internal.Correction>
   9.000000E+99

> <Gold.Chemscore.Hbonds>
donor molecule, donor type, donor heavy atom, donor atom, acceptor molecule, acceptor atom, score
      L1  H     7    38       P1  8028  0.56
      L1  H     9    27       P1  7948  0.89
      L1  H    13    29       P1  7948  0.38

> <Gold.Chemscore.Hbond.Weighted>
-8.6538

> <Gold.Chemscore.Metal.Weighted>
-0.0000

> <Gold.Chemscore.Lipo.Weighted>
-5.2938

> <Gold.Chemscore.Internal_Hbond.Weighted>
0.0000

> <Gold.Chemscore.DEClash.Weighted>
0.0398

> <Gold.Chemscore.DEInternal.Weighted>
0.1705

> <Gold.Chemscore.Rot.Weighted>
5.1589

> <Gold.Chemscore.Internal.Correction.Weighted>
   9.000000E+99

> <Gold.Protein.RotatedTorsions>
[ 6907 6896 6895 6894 ] final  151.72 input  -60.11 | X-H torsion
[ 7974 7965 7964 7962 ] final   12.42 input  175.53 | X-H torsion
[ 8008 7997 7996 7995 ] final  147.14 input   59.86 | X-H torsion
[ 10167 10162 10161 10158 ] final -102.55 input  -65.29 | X-H torsion
[ 10718 10713 10712 10709 ] final -148.70 input   66.30 | X-H torsion
[ 10763 10752 10751 10750 ] final  143.23 input  -60.55 | X-H torsion
[ 11005 11000 10999 10996 ] final   54.04 input  -57.11 | X-H torsion

> <Gold.Protein.ActiveResidues>
 VAL166  LYS551  ARG553  GLY616  TRP617  ASP618  TYR619  PRO620  LYS621  CYS622 
 ASP623  PHE694  ASN695  SER759  ASP760  ASP761  ALA762  ILE779  LEU786  VAL792 
 PHE793  MET794  SER795  GLU796  ALA797  LYS798  CYS799  TRP800  GLU811  SER814 

> <Gold.Protein.RotatedAtoms>
  152.0967  133.4228  159.4567 H   0  0  0  0  0  0  0  0  0  0  0  0  # atno 6907 bound_to 6896
  150.6863  134.2809  159.4636 H   0  0  0  0  0  0  0  0  0  0  0  0  # atno 6908 bound_to 6896
  152.0665  134.9560  160.0625 H   0  0  0  0  0  0  0  0  0  0  0  0  # atno 6909 bound_to 6896
  146.2351  139.9339  142.8492 H   0  0  0  0  0  0  0  0  0  0  0  0  # atno 7974 bound_to 7965
  156.2834  140.2163  156.5489 H   0  0  0  0  0  0  0  0  0  0  0  0  # atno 8008 bound_to 7997
  154.7307  140.0495  157.0746 H   0  0  0  0  0  0  0  0  0  0  0  0  # atno 8009 bound_to 7997
  155.0357  140.3140  155.4745 H   0  0  0  0  0  0  0  0  0  0  0  0  # atno 8010 bound_to 7997
  140.2295  143.3617  152.0899 H   0  0  0  0  0  0  0  0  0  0  0  0  # atno 10167 bound_to 10162
  156.4236  130.8041  151.2265 H   0  0  0  0  0  0  0  0  0  0  0  0  # atno 10718 bound_to 10713
  153.9689  135.2952  155.3428 H   0  0  0  0  0  0  0  0  0  0  0  0  # atno 10763 bound_to 10752
  154.7333  135.5058  153.9003 H   0  0  0  0  0  0  0  0  0  0  0  0  # atno 10764 bound_to 10752
  153.0910  135.6707  153.9967 H   0  0  0  0  0  0  0  0  0  0  0  0  # atno 10765 bound_to 10752
  140.0718  134.5458  155.9038 H   0  0  0  0  0  0  0  0  0  0  0  0  # atno 11005 bound_to 11000
  145.2017  140.9857  143.4152 LP  0  0  0  0  0  0  0  0  0  0  0  0  # atno 17320 bound_to 7965
  144.9768  139.3824  143.6282 LP  0  0  0  0  0  0  0  0  0  0  0  0  # atno 17321 bound_to 7965
  139.5115  144.6902  151.5781 LP  0  0  0  0  0  0  0  0  0  0  0  0  # atno 17342 bound_to 10162
  140.6196  143.9284  150.6515 LP  0  0  0  0  0  0  0  0  0  0  0  0  # atno 17343 bound_to 10162
  157.7508  131.0220  150.3775 LP  0  0  0  0  0  0  0  0  0  0  0  0  # atno 17370 bound_to 10713
  156.4097  130.3932  149.6900 LP  0  0  0  0  0  0  0  0  0  0  0  0  # atno 17371 bound_to 10713
  141.2015  133.6619  156.5953 LP  0  0  0  0  0  0  0  0  0  0  0  0  # atno 17394 bound_to 11000
  140.3615  134.7683  157.4537 LP  0  0  0  0  0  0  0  0  0  0  0  0  # atno 17395 bound_to 11000

$$$$
