AV-unprocessed.smi:1534|AV-procd|sdf|6168|dock10
  -GOLD-   22720 6313D 1   1.00000     0.00000
 Structure written by MMmdl.
 37 38  0  0  0  0  0  0  0  0  2 V2000
  146.6820  137.5709  154.5838 O   0  0  0  0  0  0  0  0  0  0  0  0
  147.1211  138.0449  153.5378 C   0  0  0  0  0  0  0  0  0  0  0  0
  146.5999  137.7743  152.3288 N   0  0  0  0  0  0  0  0  0  0  0  0
  145.4571  136.9013  152.0884 C   0  0  0  0  0  0  0  0  0  0  0  0
  145.6418  136.0655  150.8105 C   0  0  0  0  0  0  0  0  0  0  0  0
  145.7601  134.5833  151.1064 C   0  0  0  0  0  0  0  0  0  0  0  0
  144.8076  133.6486  150.6454 C   0  0  0  0  0  0  0  0  0  0  0  0
  144.9724  132.2838  150.9614 C   0  0  0  0  0  0  0  0  0  0  0  0
  146.0840  131.8830  151.7314 C   0  0  0  0  0  0  0  0  0  0  0  0
  147.0033  132.8591  152.1675 C   0  0  0  0  0  0  0  0  0  0  0  0
  146.8103  134.1572  151.8449 N   0  3  0  0  0  0  0  0  0  0  0  0
  148.1646  138.8931  153.5259 N   0  0  0  0  0  0  0  0  0  0  0  0
  148.9448  139.3830  154.6631 C   0  0  2  0  0  0  0  0  0  0  0  0
  149.2758  140.8781  154.4990 C   0  0  0  0  0  0  0  0  0  0  0  0
  150.3725  141.2565  155.5029 C   0  0  0  0  0  0  0  0  0  0  0  0
  151.3707  139.7414  155.7666 S   0  0  0  0  0  0  0  0  0  0  0  0
  152.6573  139.8648  155.0651 O   0  0  0  0  0  0  0  0  0  0  0  0
  151.3151  139.3784  157.1908 O   0  0  0  0  0  0  0  0  0  0  0  0
  150.2739  138.6255  154.8157 C   0  0  0  0  0  0  0  0  0  0  0  0
  147.0239  138.2065  151.5207 H   0  0  0  0  0  0  0  0  0  0  0  0
  145.3440  136.2458  152.9523 H   0  0  0  0  0  0  0  0  0  0  0  0
  144.5438  137.4960  152.0276 H   0  0  0  0  0  0  0  0  0  0  0  0
  144.8025  136.2204  150.1309 H   0  0  0  0  0  0  0  0  0  0  0  0
  146.5339  136.3935  150.2749 H   0  0  0  0  0  0  0  0  0  0  0  0
  143.9593  133.9718  150.0592 H   0  0  0  0  0  0  0  0  0  0  0  0
  144.2540  131.5537  150.6182 H   0  0  0  0  0  0  0  0  0  0  0  0
  146.2285  130.8427  151.9846 H   0  0  0  0  0  0  0  0  0  0  0  0
  147.8801  132.6426  152.7600 H   0  0  0  0  0  0  0  0  0  0  0  0
  148.4361  139.2545  152.6226 H   0  0  0  0  0  0  0  0  0  0  0  0
  148.3682  139.2751  155.5836 H   0  0  0  0  0  0  0  0  0  0  0  0
  149.6541  141.0532  153.4907 H   0  0  0  0  0  0  0  0  0  0  0  0
  148.3918  141.5052  154.6191 H   0  0  0  0  0  0  0  0  0  0  0  0
  151.0071  142.0700  155.1509 H   0  0  0  0  0  0  0  0  0  0  0  0
  149.9386  141.5443  156.4608 H   0  0  0  0  0  0  0  0  0  0  0  0
  150.1733  137.6715  155.3331 H   0  0  0  0  0  0  0  0  0  0  0  0
  150.7407  138.4485  153.8461 H   0  0  0  0  0  0  0  0  0  0  0  0
  147.4880  134.8464  152.1720 H   0  0  0  0  0  0  0  0  0  0  0  0
  1  2  2  0  0  0  0
  2  3  1  0  0  0  0
  2 12  1  0  0  0  0
  3  4  1  0  0  0  0
  3 20  1  0  0  0  0
  4  5  1  0  0  0  0
  4 21  1  0  0  0  0
  4 22  1  0  0  0  0
  5  6  1  0  0  0  0
  5 23  1  0  0  0  0
  5 24  1  0  0  0  0
  6 11  1  0  0  0  0
  6  7  2  0  0  0  0
  7  8  1  0  0  0  0
  7 25  1  0  0  0  0
  8  9  2  0  0  0  0
  8 26  1  0  0  0  0
  9 10  1  0  0  0  0
  9 27  1  0  0  0  0
 10 11  2  0  0  0  0
 10 28  1  0  0  0  0
 11 37  1  0  0  0  0
 12 13  1  0  0  0  0
 12 29  1  0  0  0  0
 13 19  1  0  0  0  0
 13 14  1  0  0  0  0
 13 30  1  0  0  0  0
 14 15  1  0  0  0  0
 14 31  1  0  0  0  0
 14 32  1  0  0  0  0
 15 16  1  0  0  0  0
 15 33  1  0  0  0  0
 15 34  1  0  0  0  0
 16 17  2  0  0  0  0
 16 18  2  0  0  0  0
 16 19  1  0  0  0  0
 19 35  1  0  0  0  0
 19 36  1  0  0  0  0
M  CHG  1  11   1
M  END
> <s_m_source_file>
AV-unprocessed.smi

> <i_m_source_file_index>
1534

> <i_lp_mmshare_version>
43012

> <i_f3d_flags>
0

> <s_epik_input>
Tz1TMSg9TylbQ0gyXVtDSDJdW0NASF0oW0NIMl0xKVtOSF1DKD1PKVtOSF1bQ0gyXVtDSDJdYzJbY0hdW2NIXVtjSF1bY0hdbjI=

> <s_epik_cmdline>
J2VwaWtfcHl0aG9uJywgJy1waCcsICc3LjAnLCAnLXRuJywgJzgnLCAnLW1hJywgJzIwMCcsICctbWV0YWxfYmluZGluZycsICctaW1hZScsICc8aW5maWxlLm1hZT4nLCAnLW9tYWUnLCAnPG91dGZpbGUubWFlPic=

> <r_epik_Ionization_Penalty>
1.58466

> <r_epik_Ionization_Penalty_Charging>
1.58462

> <r_epik_Ionization_Penalty_Neutral>
3.4911e-05

> <r_epik_State_Penalty>
1.6815

> <r_epik_Charging_Adjusted_Penalty>
3.26612

> <i_epik_Tot_Q>
1

> <i_epik_Tot_abs_Q>
1

> <r_epik_Metal_State_Penalty>
1.72144

> <b_epik_Metal_Only>
0

> <s_lp_Force_Field>
OPLS_2005

> <r_lp_Energy>
16.0644

> <b_lp_Chiralities_Consistent>
1

> <s_lp_Variant>
AV-unprocessed.smi:1534-3

> <Gold.Version>
5.8.1

> <Gold.Id.Protein>
6NUR|6NUR_protein|mol2

> <Gold.PLP.Fitness>
45.6677

> <Gold.PLP.PLP>
-34.4873

> <Gold.PLP.part.hbond>
-5.3256

> <Gold.PLP.part.metal>
0.0000

> <Gold.PLP.part.buried>
-2.2997

> <Gold.PLP.part.nonpolar>
-27.2748

> <Gold.PLP.part.repulsive>
0.2319

> <Gold.PLP.ligand.clash>
0.0000

> <Gold.PLP.ligand.torsion>
0.8102

> <Gold.PLP.Chemscore.Hbond>
4.2640

> <Gold.PLP.Chemscore.CHOScore>
0.0000

> <Gold.PLP.Chemscore.Metal>
0.0000

> <Gold.Chemscore.Hbonds>
donor molecule, donor type, donor heavy atom, donor atom, acceptor molecule, acceptor atom, score
      L1  H    11    37       P1  7948  2.00
      L1  H    12    29       P1  7957  1.00
      P1  H  7989  7998       L1    17  0.23
      P1  H  7997  8010       L1    17  1.00

> <Gold.PLP.Chemscore.Internal.Correction>
0.0087

> <Gold.Rescore>
     Score         DG    S(hbond)    S(metal)    S(lipo)     H(rot)  DE(clash)    DE(int)     intcor
     18.17     -19.39       2.86        0.00      77.07       1.82       0.49       0.73       ----

> <Gold.Chemscore.Fitness>
18.1696

> <Gold.Chemscore.DG>
-19.3882

> <Gold.Chemscore.ZeroCoef>
-5.4800

> <Gold.Chemscore.Hbond>
2.8608

> <Gold.Chemscore.Metal>
0.0000

> <Gold.Chemscore.Lipo>
77.0721

> <Gold.Chemscore.Internal_Hbond>
0.0000

> <Gold.Chemscore.DEClash>
0.4865

> <Gold.Chemscore.DEInternal>
0.7322

> <Gold.Chemscore.Rot>
1.8220

> <Gold.Chemscore.Internal.Correction>
   9.000000E+99

> <Gold.Chemscore.Hbonds>
donor molecule, donor type, donor heavy atom, donor atom, acceptor molecule, acceptor atom, score
      L1  H    11    37       P1  7948  0.81
      L1  H    12    29       P1  7957  0.94
      P1  H  7989  7998       L1    17  0.01
      P1  H  7997  8010       L1    17  0.96

> <Gold.Chemscore.Hbond.Weighted>
-9.5550

> <Gold.Chemscore.Metal.Weighted>
-0.0000

> <Gold.Chemscore.Lipo.Weighted>
-9.0174

> <Gold.Chemscore.Internal_Hbond.Weighted>
0.0000

> <Gold.Chemscore.DEClash.Weighted>
0.4865

> <Gold.Chemscore.DEInternal.Weighted>
0.7322

> <Gold.Chemscore.Rot.Weighted>
4.6642

> <Gold.Chemscore.Internal.Correction.Weighted>
   9.000000E+99

> <Gold.Protein.RotatedTorsions>
[ 6907 6896 6895 6894 ] final    2.74 input  -60.11 | X-H torsion
[ 7974 7965 7964 7962 ] final  111.42 input  175.53 | X-H torsion
[ 8008 7997 7996 7995 ] final  103.06 input   59.86 | X-H torsion
[ 10167 10162 10161 10158 ] final   54.47 input  -65.29 | X-H torsion
[ 10718 10713 10712 10709 ] final  172.86 input   66.30 | X-H torsion
[ 10763 10752 10751 10750 ] final   51.99 input  -60.55 | X-H torsion
[ 11005 11000 10999 10996 ] final -103.15 input  -57.11 | X-H torsion

> <Gold.Protein.ActiveResidues>
 VAL166  LYS551  ARG553  GLY616  TRP617  ASP618  TYR619  PRO620  LYS621  CYS622 
 ASP623  PHE694  ASN695  SER759  ASP760  ASP761  ALA762  ILE779  LEU786  VAL792 
 PHE793  MET794  SER795  GLU796  ALA797  LYS798  CYS799  TRP800  GLU811  SER814 

> <Gold.Protein.RotatedAtoms>
  151.6137  135.1038  160.0086 H   0  0  0  0  0  0  0  0  0  0  0  0  # atno 6907 bound_to 6896
  152.4195  133.7088  159.6477 H   0  0  0  0  0  0  0  0  0  0  0  0  # atno 6908 bound_to 6896
  150.8082  133.8397  159.3216 H   0  0  0  0  0  0  0  0  0  0  0  0  # atno 6909 bound_to 6896
  145.2424  139.2773  143.4110 H   0  0  0  0  0  0  0  0  0  0  0  0  # atno 7974 bound_to 7965
  156.1450  140.3171  155.8555 H   0  0  0  0  0  0  0  0  0  0  0  0  # atno 8008 bound_to 7997
  155.4082  140.0504  157.3050 H   0  0  0  0  0  0  0  0  0  0  0  0  # atno 8009 bound_to 7997
  154.5008  140.2128  155.9362 H   0  0  0  0  0  0  0  0  0  0  0  0  # atno 8010 bound_to 7997
  140.2297  144.3700  150.6419 H   0  0  0  0  0  0  0  0  0  0  0  0  # atno 10167 bound_to 10162
  156.9727  131.0095  151.2901 H   0  0  0  0  0  0  0  0  0  0  0  0  # atno 10718 bound_to 10713
  152.9787  135.5827  154.4505 H   0  0  0  0  0  0  0  0  0  0  0  0  # atno 10763 bound_to 10752
  154.4094  135.2770  155.2048 H   0  0  0  0  0  0  0  0  0  0  0  0  # atno 10764 bound_to 10752
  154.3844  135.6139  153.5863 H   0  0  0  0  0  0  0  0  0  0  0  0  # atno 10765 bound_to 10752
  141.1158  133.8617  157.1450 H   0  0  0  0  0  0  0  0  0  0  0  0  # atno 11005 bound_to 11000
  146.3325  140.2791  142.8609 LP  0  0  0  0  0  0  0  0  0  0  0  0  # atno 17320 bound_to 7965
  144.9577  140.8243  143.5533 LP  0  0  0  0  0  0  0  0  0  0  0  0  # atno 17321 bound_to 7965
  140.6194  143.2175  151.6725 LP  0  0  0  0  0  0  0  0  0  0  0  0  # atno 17342 bound_to 10162
  139.5114  144.3510  152.0652 LP  0  0  0  0  0  0  0  0  0  0  0  0  # atno 17343 bound_to 10162
  157.5581  130.8227  149.8231 LP  0  0  0  0  0  0  0  0  0  0  0  0  # atno 17370 bound_to 10713
  156.0276  130.3774  150.1778 LP  0  0  0  0  0  0  0  0  0  0  0  0  # atno 17371 bound_to 10713
  140.0080  135.0000  157.0334 LP  0  0  0  0  0  0  0  0  0  0  0  0  # atno 17394 bound_to 11000
  140.4649  134.1446  155.7196 LP  0  0  0  0  0  0  0  0  0  0  0  0  # atno 17395 bound_to 11000

$$$$
