AV-unprocessed.smi:1824|AV-procd|sdf|7396|dock1
  -GOLD-   22720 9 63D 1   1.00000     0.00000
 Structure written by MMmdl.
 44 46  0  0  0  0  0  0  0  0  1 V2000
  144.6600  144.9963  153.9203 C   0  0  0  0  0  0  0  0  0  0  0  0
  145.4857  144.0345  154.7809 C   0  0  2  0  0  0  0  0  0  0  0  0
  146.5488  143.2818  153.9583 C   0  0  0  0  0  0  0  0  0  0  0  0
  147.2783  142.3124  154.7669 N   0  0  0  0  0  0  0  0  0  0  0  0
  148.2986  141.6246  153.9742 C   0  0  0  0  0  0  0  0  0  0  0  0
  149.4167  140.9456  154.7897 C   0  0  1  0  0  0  0  0  0  0  0  0
  150.1274  140.0785  153.9293 O   0  0  0  0  0  0  0  0  0  0  0  0
  150.4001  141.9581  155.4096 C   0  0  0  0  0  0  0  0  0  0  0  0
  151.2258  141.3576  156.4400 N   0  0  0  0  0  0  0  0  0  0  0  0
  151.7592  140.1208  156.4467 C   0  0  0  0  0  0  0  0  0  0  0  0
  152.4886  139.7797  157.5056 N   0  0  0  0  0  0  0  0  0  0  0  0
  152.4250  140.9305  158.2730 C   0  0  0  0  0  0  0  0  0  0  0  0
  152.9951  141.2289  159.5312 C   0  0  0  0  0  0  0  0  0  0  0  0
  152.7906  142.4908  160.1279 C   0  0  0  0  0  0  0  0  0  0  0  0
  153.3446  142.7603  161.3337 F   0  0  0  0  0  0  0  0  0  0  0  0
  152.0135  143.4721  159.4765 C   0  0  0  0  0  0  0  0  0  0  0  0
  151.8216  144.6807  160.0563 F   0  0  0  0  0  0  0  0  0  0  0  0
  151.4356  143.1976  158.2224 C   0  0  0  0  0  0  0  0  0  0  0  0
  151.6426  141.9374  157.6323 C   0  0  0  0  0  0  0  0  0  0  0  0
  146.3224  141.3945  155.3820 C   0  0  0  0  0  0  0  0  0  0  0  0
  145.2590  142.1423  156.2079 C   0  0  2  0  0  0  0  0  0  0  0  0
  144.2068  141.1939  156.7915 C   0  0  0  0  0  0  0  0  0  0  0  0
  144.5988  143.0882  155.3716 O   0  0  0  0  0  0  0  0  0  0  0  0
  145.2956  145.7490  153.4530 H   0  0  0  0  0  0  0  0  0  0  0  0
  143.9161  145.5172  154.5233 H   0  0  0  0  0  0  0  0  0  0  0  0
  144.1333  144.4638  153.1277 H   0  0  0  0  0  0  0  0  0  0  0  0
  145.9733  144.6044  155.5737 H   0  0  0  0  0  0  0  0  0  0  0  0
  146.0683  142.7747  153.1198 H   0  0  0  0  0  0  0  0  0  0  0  0
  147.2464  144.0013  153.5281 H   0  0  0  0  0  0  0  0  0  0  0  0
  147.8171  140.8830  153.3346 H   0  0  0  0  0  0  0  0  0  0  0  0
  148.7656  142.3423  153.2980 H   0  0  0  0  0  0  0  0  0  0  0  0
  148.9834  140.3223  155.5713 H   0  0  0  0  0  0  0  0  0  0  0  0
  149.6398  139.9888  153.1248 H   0  0  0  0  0  0  0  0  0  0  0  0
  151.0438  142.3925  154.6434 H   0  0  0  0  0  0  0  0  0  0  0  0
  149.8566  142.7869  155.8647 H   0  0  0  0  0  0  0  0  0  0  0  0
  151.6004  139.4317  155.6300 H   0  0  0  0  0  0  0  0  0  0  0  0
  153.5917  140.4857  160.0389 H   0  0  0  0  0  0  0  0  0  0  0  0
  150.8407  143.9463  157.7205 H   0  0  0  0  0  0  0  0  0  0  0  0
  145.8337  140.7981  154.6099 H   0  0  0  0  0  0  0  0  0  0  0  0
  146.8369  140.6950  156.0391 H   0  0  0  0  0  0  0  0  0  0  0  0
  145.7438  142.6739  157.0286 H   0  0  0  0  0  0  0  0  0  0  0  0
  144.6667  140.4536  157.4469 H   0  0  0  0  0  0  0  0  0  0  0  0
  143.6756  140.6599  156.0031 H   0  0  0  0  0  0  0  0  0  0  0  0
  143.4692  141.7433  157.3773 H   0  0  0  0  0  0  0  0  0  0  0  0
  1  2  1  0  0  0  0
  1 24  1  0  0  0  0
  1 25  1  0  0  0  0
  1 26  1  0  0  0  0
  2 23  1  0  0  0  0
  2  3  1  0  0  0  0
  2 27  1  0  0  0  0
  3  4  1  0  0  0  0
  3 28  1  0  0  0  0
  3 29  1  0  0  0  0
  4  5  1  0  0  0  0
  4 20  1  0  0  0  0
  5  6  1  0  0  0  0
  5 30  1  0  0  0  0
  5 31  1  0  0  0  0
  6  7  1  0  0  0  0
  6  8  1  0  0  0  0
  6 32  1  0  0  0  0
  7 33  1  0  0  0  0
  8  9  1  0  0  0  0
  8 34  1  0  0  0  0
  8 35  1  0  0  0  0
  9 19  1  0  0  0  0
  9 10  1  0  0  0  0
 10 11  2  0  0  0  0
 10 36  1  0  0  0  0
 11 12  1  0  0  0  0
 12 19  2  0  0  0  0
 12 13  1  0  0  0  0
 13 14  2  0  0  0  0
 13 37  1  0  0  0  0
 14 15  1  0  0  0  0
 14 16  1  0  0  0  0
 16 17  1  0  0  0  0
 16 18  2  0  0  0  0
 18 19  1  0  0  0  0
 18 38  1  0  0  0  0
 20 21  1  0  0  0  0
 20 39  1  0  0  0  0
 20 40  1  0  0  0  0
 21 22  1  0  0  0  0
 21 23  1  0  0  0  0
 21 41  1  0  0  0  0
 22 42  1  0  0  0  0
 22 43  1  0  0  0  0
 22 44  1  0  0  0  0
M  END
> <s_m_source_file>
AV-unprocessed.smi

> <i_m_source_file_index>
1824

> <i_lp_mmshare_version>
43012

> <i_f3d_flags>
0

> <s_epik_input>
W0NIM11bQ0BASF0xW0NIMl1OKFtDSDJdW0NASF0oTzEpW0NIM10pW0NIMl1bQ0BIXShbT0hdKVtDSDJdbihbY0hdbjIpYyhjMjMpW2NIXWMoRiljKEYpW2NIXTM=

> <s_epik_cmdline>
J2VwaWtfcHl0aG9uJywgJy1waCcsICc3LjAnLCAnLXRuJywgJzgnLCAnLW1hJywgJzIwMCcsICctbWV0YWxfYmluZGluZycsICctaW1hZScsICc8aW5maWxlLm1hZT4nLCAnLW9tYWUnLCAnPG91dGZpbGUubWFlPic=

> <r_epik_Ionization_Penalty>
0.273778

> <r_epik_Ionization_Penalty_Charging>
0

> <r_epik_Ionization_Penalty_Neutral>
0.273778

> <r_epik_State_Penalty>
0.246794

> <r_epik_Charging_Adjusted_Penalty>
0.246794

> <i_epik_Tot_Q>
0

> <i_epik_Tot_abs_Q>
0

> <r_epik_Metal_State_Penalty>
0.238234

> <b_epik_Metal_Only>
0

> <s_lp_Force_Field>
OPLS_2005

> <r_lp_Energy>
23.1411

> <b_lp_Chiralities_Consistent>
1

> <s_lp_Variant>
AV-unprocessed.smi:1824-4

> <Gold.Version>
5.8.1

> <Gold.Id.Protein>
6NUR|6NUR_protein|mol2

> <Gold.PLP.Fitness>
56.0039

> <Gold.PLP.PLP>
-48.2124

> <Gold.PLP.part.hbond>
-3.0000

> <Gold.PLP.part.metal>
0.0000

> <Gold.PLP.part.buried>
-6.3658

> <Gold.PLP.part.nonpolar>
-38.6813

> <Gold.PLP.part.repulsive>
0.2677

> <Gold.PLP.ligand.clash>
0.0000

> <Gold.PLP.ligand.torsion>
0.6652

> <Gold.PLP.Chemscore.Hbond>
2.9833

> <Gold.PLP.Chemscore.CHOScore>
0.0000

> <Gold.PLP.Chemscore.Metal>
0.0000

> <Gold.Chemscore.Hbonds>
donor molecule, donor type, donor heavy atom, donor atom, acceptor molecule, acceptor atom, score
      L1  H     7    33       P1  7957  0.98
      P1  H  7989  7998       L1     7  0.90
      P1  H  7997  8008       L1    11  0.68

> <Gold.PLP.Chemscore.Internal.Correction>
0.1721

> <Gold.Rescore>
     Score         DG    S(hbond)    S(metal)    S(lipo)     H(rot)  DE(clash)    DE(int)     intcor
     15.92     -17.50       1.93        0.00      97.14       2.26       0.87       0.71       ----

> <Gold.Chemscore.Fitness>
15.9175

> <Gold.Chemscore.DG>
-17.5006

> <Gold.Chemscore.ZeroCoef>
-5.4800

> <Gold.Chemscore.Hbond>
1.9298

> <Gold.Chemscore.Metal>
0.0000

> <Gold.Chemscore.Lipo>
97.1397

> <Gold.Chemscore.Internal_Hbond>
0.0000

> <Gold.Chemscore.DEClash>
0.8727

> <Gold.Chemscore.DEInternal>
0.7103

> <Gold.Chemscore.Rot>
2.2619

> <Gold.Chemscore.Internal.Correction>
   9.000000E+99

> <Gold.Chemscore.Hbonds>
donor molecule, donor type, donor heavy atom, donor atom, acceptor molecule, acceptor atom, score
      L1  H     7    33       P1  7957  0.92
      P1  H  7989  7998       L1     7  0.29
      P1  H  7997  8008       L1    11  0.03

> <Gold.Chemscore.Hbond.Weighted>
-6.4456

> <Gold.Chemscore.Metal.Weighted>
-0.0000

> <Gold.Chemscore.Lipo.Weighted>
-11.3653

> <Gold.Chemscore.Internal_Hbond.Weighted>
0.0000

> <Gold.Chemscore.DEClash.Weighted>
0.8727

> <Gold.Chemscore.DEInternal.Weighted>
0.7103

> <Gold.Chemscore.Rot.Weighted>
5.7904

> <Gold.Chemscore.Internal.Correction.Weighted>
   9.000000E+99

> <Gold.Protein.RotatedTorsions>
[ 6907 6896 6895 6894 ] final  125.60 input  -60.11 | X-H torsion
[ 7974 7965 7964 7962 ] final -168.43 input  175.53 | X-H torsion
[ 8008 7997 7996 7995 ] final  -71.38 input   59.86 | X-H torsion
[ 10167 10162 10161 10158 ] final  -76.84 input  -65.29 | X-H torsion
[ 10718 10713 10712 10709 ] final   32.38 input   66.30 | X-H torsion
[ 10763 10752 10751 10750 ] final  -83.86 input  -60.55 | X-H torsion
[ 11005 11000 10999 10996 ] final  -43.39 input  -57.11 | X-H torsion

> <Gold.Protein.ActiveResidues>
 VAL166  LYS551  ARG553  GLY616  TRP617  ASP618  TYR619  PRO620  LYS621  CYS622 
 ASP623  PHE694  ASN695  SER759  ASP760  ASP761  ALA762  ILE779  LEU786  VAL792 
 PHE793  MET794  SER795  GLU796  ALA797  LYS798  CYS799  TRP800  GLU811  SER814 

> <Gold.Protein.RotatedAtoms>
  152.3977  133.6771  159.6289 H   0  0  0  0  0  0  0  0  0  0  0  0  # atno 6907 bound_to 6896
  150.7873  133.8845  159.3304 H   0  0  0  0  0  0  0  0  0  0  0  0  # atno 6908 bound_to 6896
  151.6618  135.0990  160.0232 H   0  0  0  0  0  0  0  0  0  0  0  0  # atno 6909 bound_to 6896
  144.7203  140.2372  143.6296 H   0  0  0  0  0  0  0  0  0  0  0  0  # atno 7974 bound_to 7965
  154.5084  140.0816  156.7940 H   0  0  0  0  0  0  0  0  0  0  0  0  # atno 8008 bound_to 7997
  155.3842  140.3429  155.4230 H   0  0  0  0  0  0  0  0  0  0  0  0  # atno 8009 bound_to 7997
  156.1543  140.1568  156.8706 H   0  0  0  0  0  0  0  0  0  0  0  0  # atno 8010 bound_to 7997
  140.4822  143.2399  151.8040 H   0  0  0  0  0  0  0  0  0  0  0  0  # atno 10167 bound_to 10162
  157.2845  130.7271  149.6575 H   0  0  0  0  0  0  0  0  0  0  0  0  # atno 10718 bound_to 10713
  154.5928  135.5541  153.7295 H   0  0  0  0  0  0  0  0  0  0  0  0  # atno 10763 bound_to 10752
  153.0123  135.6347  154.1825 H   0  0  0  0  0  0  0  0  0  0  0  0  # atno 10764 bound_to 10752
  154.1766  135.2889  155.3045 H   0  0  0  0  0  0  0  0  0  0  0  0  # atno 10765 bound_to 10752
  141.0380  133.6791  156.2726 H   0  0  0  0  0  0  0  0  0  0  0  0  # atno 11005 bound_to 11000
  145.8355  139.2105  143.1858 LP  0  0  0  0  0  0  0  0  0  0  0  0  # atno 17320 bound_to 7965
  146.0393  140.8181  142.9836 LP  0  0  0  0  0  0  0  0  0  0  0  0  # atno 17321 bound_to 7965
  139.4835  144.4758  151.9369 LP  0  0  0  0  0  0  0  0  0  0  0  0  # atno 17342 bound_to 10162
  140.3844  144.2696  150.5905 LP  0  0  0  0  0  0  0  0  0  0  0  0  # atno 17343 bound_to 10162
  155.9665  130.4328  150.4978 LP  0  0  0  0  0  0  0  0  0  0  0  0  # atno 17370 bound_to 10713
  157.2928  131.0630  151.2122 LP  0  0  0  0  0  0  0  0  0  0  0  0  # atno 17371 bound_to 10713
  140.6286  134.5287  157.5557 LP  0  0  0  0  0  0  0  0  0  0  0  0  # atno 17394 bound_to 11000
  139.9255  134.8065  156.1082 LP  0  0  0  0  0  0  0  0  0  0  0  0  # atno 17395 bound_to 11000

$$$$
