AV-unprocessed.smi:1725|AV-procd|sdf|6955|dock1
  -GOLD-   22720 8163D 1   1.00000     0.00000
 Structure written by MMmdl.
 35 36  0  0  0  0  0  0  0  0  2 V2000
  151.8473  138.1403  154.1958 C   0  0  0  0  0  0  0  0  0  0  0  0
  151.2025  138.1454  155.5904 C   0  0  2  0  0  0  0  0  0  0  0  0
  149.9111  138.7362  155.4664 O   0  0  0  0  0  0  0  0  0  0  0  0
  149.8639  139.9501  154.7259 C   0  0  0  0  0  0  0  0  0  0  0  0
  148.4471  140.4809  154.7484 C   0  0  0  0  0  0  0  0  0  0  0  0
  147.6117  140.5013  153.4884 C   0  0  0  0  0  0  0  0  0  0  0  0
  148.1152  141.7946  154.0773 C   0  0  0  0  0  0  0  0  0  0  0  0
  152.0536  138.9242  156.6080 C   0  0  0  0  0  0  0  0  0  0  0  0
  153.2562  138.6803  156.7089 O   0  0  0  0  0  0  0  0  0  0  0  0
  151.3935  139.8695  157.3052 N   0  0  0  0  0  0  0  0  0  0  0  0
  151.8774  140.7505  158.2860 C   0  0  0  0  0  0  0  0  0  0  0  0
  151.5702  142.0752  158.3555 C   0  0  0  0  0  0  0  0  0  0  0  0
  152.1136  142.9478  159.3887 C   0  0  0  0  0  0  0  0  0  0  0  0
  151.7194  144.4044  159.5572 C   0  0  0  0  0  0  0  0  0  0  0  0
  152.2077  144.9035  160.6931 F   0  0  0  0  0  0  0  0  0  0  0  0
  152.2026  145.1251  158.5462 F   0  0  0  0  0  0  0  0  0  0  0  0
  150.3938  144.5434  159.5718 F   0  0  0  0  0  0  0  0  0  0  0  0
  152.9462  142.2729  160.2603 C   0  0  0  0  0  0  0  0  0  0  0  0
  153.3238  140.9756  160.2440 N   0  5  0  0  0  0  0  0  0  0  0  0
  152.8096  140.1685  159.2733 C   0  0  0  0  0  0  0  0  0  0  0  0
  153.1042  138.9746  159.2039 O   0  0  0  0  0  0  0  0  0  0  0  0
  152.8525  137.7184  154.2254 H   0  0  0  0  0  0  0  0  0  0  0  0
  151.9168  139.1466  153.7810 H   0  0  0  0  0  0  0  0  0  0  0  0
  151.2592  137.5400  153.5016 H   0  0  0  0  0  0  0  0  0  0  0  0
  151.0961  137.1089  155.9166 H   0  0  0  0  0  0  0  0  0  0  0  0
  150.5247  140.6925  155.1751 H   0  0  0  0  0  0  0  0  0  0  0  0
  150.1784  139.8038  153.6919 H   0  0  0  0  0  0  0  0  0  0  0  0
  147.9162  140.2785  155.6767 H   0  0  0  0  0  0  0  0  0  0  0  0
  148.0759  140.1543  152.5671 H   0  0  0  0  0  0  0  0  0  0  0  0
  146.5504  140.2822  153.5874 H   0  0  0  0  0  0  0  0  0  0  0  0
  147.3890  142.4400  154.5675 H   0  0  0  0  0  0  0  0  0  0  0  0
  148.9133  142.3096  153.5459 H   0  0  0  0  0  0  0  0  0  0  0  0
  150.4262  140.0158  157.0551 H   0  0  0  0  0  0  0  0  0  0  0  0
  150.9229  142.5294  157.6229 H   0  0  0  0  0  0  0  0  0  0  0  0
  153.3704  142.8647  161.0997 H   0  0  0  0  0  0  0  0  0  0  0  0
  1  2  1  0  0  0  0
  1 22  1  0  0  0  0
  1 23  1  0  0  0  0
  1 24  1  0  0  0  0
  2  3  1  0  0  0  0
  2  8  1  0  0  0  0
  2 25  1  0  0  0  0
  3  4  1  0  0  0  0
  4  5  1  0  0  0  0
  4 26  1  0  0  0  0
  4 27  1  0  0  0  0
  5  7  1  0  0  0  0
  5  6  1  0  0  0  0
  5 28  1  0  0  0  0
  6  7  1  0  0  0  0
  6 29  1  0  0  0  0
  6 30  1  0  0  0  0
  7 31  1  0  0  0  0
  7 32  1  0  0  0  0
  8  9  2  0  0  0  0
  8 10  1  0  0  0  0
 10 11  1  0  0  0  0
 10 33  1  0  0  0  0
 11 20  1  0  0  0  0
 11 12  2  0  0  0  0
 12 13  1  0  0  0  0
 12 34  1  0  0  0  0
 13 14  1  0  0  0  0
 13 18  2  0  0  0  0
 14 15  1  0  0  0  0
 14 16  1  0  0  0  0
 14 17  1  0  0  0  0
 18 19  1  0  0  0  0
 18 35  1  0  0  0  0
 19 20  1  0  0  0  0
 20 21  2  0  0  0  0
M  CHG  1  19  -1
M  END
> <s_m_source_file>
AV-unprocessed.smi

> <i_m_source_file_index>
1725

> <i_lp_mmshare_version>
43012

> <i_f3d_flags>
0

> <s_epik_input>
W0NIMl0xW0NIMl1bQ0hdMVtDSDJdT1tDQEBIXShbQ0gzXSlDKD1PKVtOSF1jMltjSF1jKEMoRikoRilGKVtjSF1bbkhdYzI9Tw==

> <s_epik_cmdline>
J2VwaWtfcHl0aG9uJywgJy1waCcsICc3LjAnLCAnLXRuJywgJzgnLCAnLW1hJywgJzIwMCcsICctbWV0YWxfYmluZGluZycsICctaW1hZScsICc8aW5maWxlLm1hZT4nLCAnLW9tYWUnLCAnPG91dGZpbGUubWFlPic=

> <r_lp_tautomer_probability>
0.999

> <r_epik_Ionization_Penalty>
2.64397

> <r_epik_Ionization_Penalty_Charging>
0.0618254

> <r_epik_Ionization_Penalty_Neutral>
2.58215

> <r_epik_State_Penalty>
2.58023

> <r_epik_Charging_Adjusted_Penalty>
2.64205

> <i_epik_Tot_Q>
-1

> <i_epik_Tot_abs_Q>
1

> <r_epik_Metal_State_Penalty>
0.429101

> <b_epik_Metal_Only>
1

> <s_lp_Force_Field>
OPLS_2005

> <r_lp_Energy>
29.6692

> <b_lp_Chiralities_Consistent>
1

> <s_lp_Variant>
AV-unprocessed.smi:1725-3

> <Gold.Version>
5.8.1

> <Gold.Id.Protein>
6NUR|6NUR_protein|mol2

> <Gold.PLP.Fitness>
45.9012

> <Gold.PLP.PLP>
-44.7826

> <Gold.PLP.part.hbond>
-1.0000

> <Gold.PLP.part.metal>
0.0000

> <Gold.PLP.part.buried>
-6.3865

> <Gold.PLP.part.nonpolar>
-37.0433

> <Gold.PLP.part.repulsive>
0.1074

> <Gold.PLP.ligand.clash>
0.4837

> <Gold.PLP.ligand.torsion>
1.1399

> <Gold.PLP.Chemscore.Hbond>
1.0000

> <Gold.PLP.Chemscore.CHOScore>
0.0000

> <Gold.PLP.Chemscore.Metal>
0.0000

> <Gold.Chemscore.Hbonds>
donor molecule, donor type, donor heavy atom, donor atom, acceptor molecule, acceptor atom, score
      P1  H  7997  8008       L1     9  1.00

> <Gold.PLP.Chemscore.Internal.Correction>
0.8822

> <Gold.Rescore>
     Score         DG    S(hbond)    S(metal)    S(lipo)     H(rot)  DE(clash)    DE(int)     intcor
     10.60     -14.99       0.94        0.00      93.00       1.76       0.62       3.77       ----

> <Gold.Chemscore.Fitness>
10.5981

> <Gold.Chemscore.DG>
-14.9897

> <Gold.Chemscore.ZeroCoef>
-5.4800

> <Gold.Chemscore.Hbond>
0.9388

> <Gold.Chemscore.Metal>
0.0000

> <Gold.Chemscore.Lipo>
92.9985

> <Gold.Chemscore.Internal_Hbond>
0.0000

> <Gold.Chemscore.DEClash>
0.6199

> <Gold.Chemscore.DEInternal>
3.7718

> <Gold.Chemscore.Rot>
1.7604

> <Gold.Chemscore.Internal.Correction>
   9.000000E+99

> <Gold.Chemscore.Hbonds>
donor molecule, donor type, donor heavy atom, donor atom, acceptor molecule, acceptor atom, score
      P1  H  7997  8008       L1     9  0.93

> <Gold.Chemscore.Hbond.Weighted>
-3.1355

> <Gold.Chemscore.Metal.Weighted>
-0.0000

> <Gold.Chemscore.Lipo.Weighted>
-10.8808

> <Gold.Chemscore.Internal_Hbond.Weighted>
0.0000

> <Gold.Chemscore.DEClash.Weighted>
0.6199

> <Gold.Chemscore.DEInternal.Weighted>
3.7718

> <Gold.Chemscore.Rot.Weighted>
4.5065

> <Gold.Chemscore.Internal.Correction.Weighted>
   9.000000E+99

> <Gold.Protein.RotatedTorsions>
[ 6907 6896 6895 6894 ] final   13.26 input  -60.11 | X-H torsion
[ 7974 7965 7964 7962 ] final  168.18 input  175.53 | X-H torsion
[ 8008 7997 7996 7995 ] final  -59.06 input   59.86 | X-H torsion
[ 10167 10162 10161 10158 ] final   26.32 input  -65.29 | X-H torsion
[ 10718 10713 10712 10709 ] final  102.99 input   66.30 | X-H torsion
[ 10763 10752 10751 10750 ] final  -58.25 input  -60.55 | X-H torsion
[ 11005 11000 10999 10996 ] final  170.32 input  -57.11 | X-H torsion

> <Gold.Protein.ActiveResidues>
 VAL166  LYS551  ARG553  GLY616  TRP617  ASP618  TYR619  PRO620  LYS621  CYS622 
 ASP623  PHE694  ASN695  SER759  ASP760  ASP761  ALA762  ILE779  LEU786  VAL792 
 PHE793  MET794  SER795  GLU796  ALA797  LYS798  CYS799  TRP800  GLU811  SER814 

> <Gold.Protein.RotatedAtoms>
  151.7835  135.0755  160.0376 H   0  0  0  0  0  0  0  0  0  0  0  0  # atno 6907 bound_to 6896
  152.3206  133.5845  159.5750 H   0  0  0  0  0  0  0  0  0  0  0  0  # atno 6908 bound_to 6896
  150.7368  133.9932  159.3656 H   0  0  0  0  0  0  0  0  0  0  0  0  # atno 6909 bound_to 6896
  144.7398  139.8869  143.6400 H   0  0  0  0  0  0  0  0  0  0  0  0  # atno 7974 bound_to 7965
  154.4335  140.1070  156.6055 H   0  0  0  0  0  0  0  0  0  0  0  0  # atno 8008 bound_to 7997
  155.5865  140.3491  155.4536 H   0  0  0  0  0  0  0  0  0  0  0  0  # atno 8009 bound_to 7997
  156.0279  140.1254  157.0279 H   0  0  0  0  0  0  0  0  0  0  0  0  # atno 8010 bound_to 7997
  140.5032  144.0281  150.6341 H   0  0  0  0  0  0  0  0  0  0  0  0  # atno 10167 bound_to 10162
  157.6786  131.0767  150.5488 H   0  0  0  0  0  0  0  0  0  0  0  0  # atno 10718 bound_to 10713
  154.2352  135.6353  153.5188 H   0  0  0  0  0  0  0  0  0  0  0  0  # atno 10763 bound_to 10752
  152.9941  135.5529  154.5969 H   0  0  0  0  0  0  0  0  0  0  0  0  # atno 10764 bound_to 10752
  154.5462  135.2898  155.1025 H   0  0  0  0  0  0  0  0  0  0  0  0  # atno 10765 bound_to 10752
  140.3071  134.7548  157.3962 H   0  0  0  0  0  0  0  0  0  0  0  0  # atno 11005 bound_to 11000
  146.1170  139.4182  143.0252 LP  0  0  0  0  0  0  0  0  0  0  0  0  # atno 17320 bound_to 7965
  145.7360  141.0025  143.1326 LP  0  0  0  0  0  0  0  0  0  0  0  0  # atno 17321 bound_to 7965
  140.3583  143.2923  152.0412 LP  0  0  0  0  0  0  0  0  0  0  0  0  # atno 17342 bound_to 10162
  139.4877  144.6322  151.7047 LP  0  0  0  0  0  0  0  0  0  0  0  0  # atno 17343 bound_to 10162
  156.5793  130.4300  149.5984 LP  0  0  0  0  0  0  0  0  0  0  0  0  # atno 17370 bound_to 10713
  156.2675  130.6998  151.1785 LP  0  0  0  0  0  0  0  0  0  0  0  0  # atno 17371 bound_to 10713
  140.1058  134.5412  155.8311 LP  0  0  0  0  0  0  0  0  0  0  0  0  # atno 17394 bound_to 11000
  141.2116  133.6709  156.6596 LP  0  0  0  0  0  0  0  0  0  0  0  0  # atno 17395 bound_to 11000

$$$$
