AV-unprocessed.smi:2167|AV-procd|sdf|8817|dock2
  -GOLD-   2272012 03D 1   1.00000     0.00000
 Structure written by MMmdl.
 41 42  0  0  0  0  0  0  0  0  1 V2000
  150.6500  145.2145  160.2151 C   0  0  0  0  0  0  0  0  0  0  0  0
  152.0137  144.7775  159.6607 C   0  0  0  0  0  0  0  0  0  0  0  0
  152.0463  144.7102  158.1270 C   0  0  0  0  0  0  0  0  0  0  0  0
  152.4971  143.5083  160.2893 C   0  0  0  0  0  0  0  0  0  0  0  0
  152.7696  142.3961  159.6003 N   0  0  0  0  0  0  0  0  0  0  0  0
  153.2181  141.3502  160.4139 C   0  0  0  0  0  0  0  0  0  0  0  0
  153.5886  140.0260  159.8064 C   0  0  0  0  0  0  0  0  0  0  0  0
  152.4799  139.5050  158.8858 C   0  0  0  0  0  0  0  0  0  0  0  0
  151.7735  138.5650  159.2490 O   0  0  0  0  0  0  0  0  0  0  0  0
  152.3462  140.1084  157.6922 N   0  0  0  0  0  0  0  0  0  0  0  0
  151.3643  139.7575  156.6648 C   0  0  1  0  0  0  0  0  0  0  0  0
  150.6374  141.0587  156.2544 C   0  0  0  0  0  0  0  0  0  0  0  0
  149.2597  140.8235  155.6113 C   0  0  0  0  0  0  0  0  0  0  0  0
  149.2889  140.0877  154.2629 C   0  0  0  0  0  0  0  0  0  0  0  0
  149.8589  138.6616  154.3489 C   0  0  0  0  0  0  0  0  0  0  0  0
  151.3136  138.6572  154.4313 N   0  0  0  0  0  0  0  0  0  0  0  0
  152.0655  139.1551  155.4247 C   0  0  0  0  0  0  0  0  0  0  0  0
  153.2938  139.1359  155.3434 O   0  0  0  0  0  0  0  0  0  0  0  0
  153.2658  141.6854  161.7446 C   0  0  0  0  0  0  0  0  0  0  0  0
  152.7675  143.3315  162.0196 S   0  0  0  0  0  0  0  0  0  0  0  0
  150.6869  145.3324  161.2985 H   0  0  0  0  0  0  0  0  0  0  0  0
  149.8755  144.4819  159.9852 H   0  0  0  0  0  0  0  0  0  0  0  0
  150.3409  146.1693  159.7894 H   0  0  0  0  0  0  0  0  0  0  0  0
  152.7247  145.5527  159.9492 H   0  0  0  0  0  0  0  0  0  0  0  0
  153.0486  144.4778  157.7658 H   0  0  0  0  0  0  0  0  0  0  0  0
  151.7485  145.6616  157.6857 H   0  0  0  0  0  0  0  0  0  0  0  0
  151.3697  143.9427  157.7493 H   0  0  0  0  0  0  0  0  0  0  0  0
  154.5083  140.1106  159.2266 H   0  0  0  0  0  0  0  0  0  0  0  0
  153.7840  139.2908  160.5881 H   0  0  0  0  0  0  0  0  0  0  0  0
  152.9769  140.8661  157.4747 H   0  0  0  0  0  0  0  0  0  0  0  0
  150.6511  139.0423  157.0788 H   0  0  0  0  0  0  0  0  0  0  0  0
  150.4720  141.6686  157.1444 H   0  0  0  0  0  0  0  0  0  0  0  0
  151.2626  141.6666  155.5978 H   0  0  0  0  0  0  0  0  0  0  0  0
  148.6243  140.2761  156.3087 H   0  0  0  0  0  0  0  0  0  0  0  0
  148.7754  141.7898  155.4665 H   0  0  0  0  0  0  0  0  0  0  0  0
  148.2662  140.0286  153.8890 H   0  0  0  0  0  0  0  0  0  0  0  0
  149.8426  140.6709  153.5258 H   0  0  0  0  0  0  0  0  0  0  0  0
  149.4254  138.1124  155.1859 H   0  0  0  0  0  0  0  0  0  0  0  0
  149.5871  138.1119  153.4477 H   0  0  0  0  0  0  0  0  0  0  0  0
  151.8030  138.2639  153.6405 H   0  0  0  0  0  0  0  0  0  0  0  0
  153.5687  141.0669  162.5766 H   0  0  0  0  0  0  0  0  0  0  0  0
  1  2  1  0  0  0  0
  1 21  1  0  0  0  0
  1 22  1  0  0  0  0
  1 23  1  0  0  0  0
  2  3  1  0  0  0  0
  2  4  1  0  0  0  0
  2 24  1  0  0  0  0
  3 25  1  0  0  0  0
  3 26  1  0  0  0  0
  3 27  1  0  0  0  0
  4 20  1  0  0  0  0
  4  5  2  0  0  0  0
  5  6  1  0  0  0  0
  6  7  1  0  0  0  0
  6 19  2  0  0  0  0
  7  8  1  0  0  0  0
  7 28  1  0  0  0  0
  7 29  1  0  0  0  0
  8  9  2  0  0  0  0
  8 10  1  0  0  0  0
 10 11  1  0  0  0  0
 10 30  1  0  0  0  0
 11 17  1  0  0  0  0
 11 12  1  0  0  0  0
 11 31  1  0  0  0  0
 12 13  1  0  0  0  0
 12 32  1  0  0  0  0
 12 33  1  0  0  0  0
 13 14  1  0  0  0  0
 13 34  1  0  0  0  0
 13 35  1  0  0  0  0
 14 15  1  0  0  0  0
 14 36  1  0  0  0  0
 14 37  1  0  0  0  0
 15 16  1  0  0  0  0
 15 38  1  0  0  0  0
 15 39  1  0  0  0  0
 16 17  1  0  0  0  0
 16 40  1  0  0  0  0
 17 18  2  0  0  0  0
 19 20  1  0  0  0  0
 19 41  1  0  0  0  0
M  END
> <s_m_source_file>
AV-unprocessed.smi

> <i_m_source_file_index>
2167

> <i_lp_mmshare_version>
43012

> <i_f3d_flags>
0

> <s_epik_input>
W0NIM11bQ0hdKFtDSDNdKWMxbmMoW2NIXXMxKVtDSDJdQyg9TylbTkhdW0NAQEhdMltDSDJdW0NIMl1bQ0gyXVtDSDJdW05IXUMyPU8=

> <s_epik_cmdline>
J2VwaWtfcHl0aG9uJywgJy1waCcsICc3LjAnLCAnLXRuJywgJzgnLCAnLW1hJywgJzIwMCcsICctbWV0YWxfYmluZGluZycsICctaW1hZScsICc8aW5maWxlLm1hZT4nLCAnLW9tYWUnLCAnPG91dGZpbGUubWFlPic=

> <r_lp_tautomer_probability>
1

> <r_epik_Ionization_Penalty>
3.1619e-05

> <r_epik_Ionization_Penalty_Charging>
0

> <r_epik_Ionization_Penalty_Neutral>
3.1619e-05

> <r_epik_State_Penalty>
-0

> <r_epik_Charging_Adjusted_Penalty>
0

> <i_epik_Tot_Q>
0

> <i_epik_Tot_abs_Q>
0

> <r_epik_Metal_State_Penalty>
-0

> <b_epik_Metal_Only>
0

> <s_lp_Force_Field>
OPLS_2005

> <r_lp_Energy>
3.21442

> <b_lp_Chiralities_Consistent>
1

> <s_lp_Variant>
AV-unprocessed.smi:2167-2

> <Gold.Version>
5.8.1

> <Gold.Id.Protein>
6NUR|6NUR_protein|mol2

> <Gold.PLP.Fitness>
50.5202

> <Gold.PLP.PLP>
-48.1876

> <Gold.PLP.part.hbond>
-1.0000

> <Gold.PLP.part.metal>
0.0000

> <Gold.PLP.part.buried>
-5.1634

> <Gold.PLP.part.nonpolar>
-42.0217

> <Gold.PLP.part.repulsive>
0.2438

> <Gold.PLP.ligand.clash>
0.0000

> <Gold.PLP.ligand.torsion>
0.3701

> <Gold.PLP.Chemscore.Hbond>
1.0000

> <Gold.PLP.Chemscore.CHOScore>
0.0000

> <Gold.PLP.Chemscore.Metal>
0.0000

> <Gold.Chemscore.Hbonds>
donor molecule, donor type, donor heavy atom, donor atom, acceptor molecule, acceptor atom, score
      P1  H  7997  8008       L1    18  1.00

> <Gold.PLP.Chemscore.Internal.Correction>
0.0729

> <Gold.Rescore>
     Score         DG    S(hbond)    S(metal)    S(lipo)     H(rot)  DE(clash)    DE(int)     intcor
     18.75     -19.06       0.99        0.00     122.12       1.57       0.03       0.28       ----

> <Gold.Chemscore.Fitness>
18.7492

> <Gold.Chemscore.DG>
-19.0613

> <Gold.Chemscore.ZeroCoef>
-5.4800

> <Gold.Chemscore.Hbond>
0.9944

> <Gold.Chemscore.Metal>
0.0000

> <Gold.Chemscore.Lipo>
122.1169

> <Gold.Chemscore.Internal_Hbond>
0.0000

> <Gold.Chemscore.DEClash>
0.0296

> <Gold.Chemscore.DEInternal>
0.2826

> <Gold.Chemscore.Rot>
1.5733

> <Gold.Chemscore.Internal.Correction>
   9.000000E+99

> <Gold.Chemscore.Hbonds>
donor molecule, donor type, donor heavy atom, donor atom, acceptor molecule, acceptor atom, score
      P1  H  7997  8008       L1    18  0.99

> <Gold.Chemscore.Hbond.Weighted>
-3.3212

> <Gold.Chemscore.Metal.Weighted>
-0.0000

> <Gold.Chemscore.Lipo.Weighted>
-14.2877

> <Gold.Chemscore.Internal_Hbond.Weighted>
0.0000

> <Gold.Chemscore.DEClash.Weighted>
0.0296

> <Gold.Chemscore.DEInternal.Weighted>
0.2826

> <Gold.Chemscore.Rot.Weighted>
4.0276

> <Gold.Chemscore.Internal.Correction.Weighted>
   9.000000E+99

> <Gold.Protein.RotatedTorsions>
[ 6907 6896 6895 6894 ] final   40.62 input  -60.11 | X-H torsion
[ 7974 7965 7964 7962 ] final  -91.00 input  175.53 | X-H torsion
[ 8008 7997 7996 7995 ] final  -27.86 input   59.86 | X-H torsion
[ 10167 10162 10161 10158 ] final -172.13 input  -65.29 | X-H torsion
[ 10718 10713 10712 10709 ] final  -71.92 input   66.30 | X-H torsion
[ 10763 10752 10751 10750 ] final -170.20 input  -60.55 | X-H torsion
[ 11005 11000 10999 10996 ] final -133.70 input  -57.11 | X-H torsion

> <Gold.Protein.ActiveResidues>
 VAL166  LYS551  ARG553  GLY616  TRP617  ASP618  TYR619  PRO620  LYS621  CYS622 
 ASP623  PHE694  ASN695  SER759  ASP760  ASP761  ALA762  ILE779  LEU786  VAL792 
 PHE793  MET794  SER795  GLU796  ALA797  LYS798  CYS799  TRP800  GLU811  SER814 

> <Gold.Protein.RotatedAtoms>
  152.1848  134.8723  160.0522 H   0  0  0  0  0  0  0  0  0  0  0  0  # atno 6907 bound_to 6896
  151.9634  133.3697  159.4052 H   0  0  0  0  0  0  0  0  0  0  0  0  # atno 6908 bound_to 6896
  150.6924  134.4140  159.5218 H   0  0  0  0  0  0  0  0  0  0  0  0  # atno 6909 bound_to 6896
  145.4190  140.9550  143.2191 H   0  0  0  0  0  0  0  0  0  0  0  0  # atno 7974 bound_to 7965
  154.4358  140.1861  156.0999 H   0  0  0  0  0  0  0  0  0  0  0  0  # atno 8008 bound_to 7997
  156.0300  140.3331  155.7104 H   0  0  0  0  0  0  0  0  0  0  0  0  # atno 8009 bound_to 7997
  155.5853  140.0625  157.2763 H   0  0  0  0  0  0  0  0  0  0  0  0  # atno 8010 bound_to 7997
  139.5762  144.1527  152.1453 H   0  0  0  0  0  0  0  0  0  0  0  0  # atno 10167 bound_to 10162
  156.0342  130.4361  150.2515 H   0  0  0  0  0  0  0  0  0  0  0  0  # atno 10718 bound_to 10713
  154.6441  135.2902  155.0067 H   0  0  0  0  0  0  0  0  0  0  0  0  # atno 10763 bound_to 10752
  154.1184  135.6552  153.4902 H   0  0  0  0  0  0  0  0  0  0  0  0  # atno 10764 bound_to 10752
  153.0342  135.5282  154.7321 H   0  0  0  0  0  0  0  0  0  0  0  0  # atno 10765 bound_to 10752
  140.9057  134.1633  157.4427 H   0  0  0  0  0  0  0  0  0  0  0  0  # atno 11005 bound_to 11000
  144.8258  139.5713  143.6966 LP  0  0  0  0  0  0  0  0  0  0  0  0  # atno 17320 bound_to 7965
  146.2666  139.6535  142.9325 LP  0  0  0  0  0  0  0  0  0  0  0  0  # atno 17321 bound_to 7965
  140.1071  144.5490  150.6950 LP  0  0  0  0  0  0  0  0  0  0  0  0  # atno 17342 bound_to 10162
  140.7044  143.2457  151.4769 LP  0  0  0  0  0  0  0  0  0  0  0  0  # atno 17343 bound_to 10162
  157.0616  131.0091  151.3220 LP  0  0  0  0  0  0  0  0  0  0  0  0  # atno 17370 bound_to 10713
  157.5066  130.7913  149.7661 LP  0  0  0  0  0  0  0  0  0  0  0  0  # atno 17371 bound_to 10713
  139.8749  134.9916  156.5556 LP  0  0  0  0  0  0  0  0  0  0  0  0  # atno 17394 bound_to 11000
  140.8174  133.8381  155.8864 LP  0  0  0  0  0  0  0  0  0  0  0  0  # atno 17395 bound_to 11000

$$$$
