AV-unprocessed.smi:281|AV-procd|sdf|2112|dock9
  -GOLD-   2262021403D 1   1.00000     0.00000
 Structure written by MMmdl.
 55 59  0  0  0  0  0  0  0  0  1 V2000
  150.0909  137.4150  159.2747 C   0  0  0  0  0  0  0  0  0  0  0  0
  150.2463  137.2690  157.7577 C   0  0  1  0  0  0  0  0  0  0  0  0
  149.5517  136.0066  157.2281 C   0  0  0  0  0  0  0  0  0  0  0  0
  149.6519  135.9532  155.7732 N   0  0  0  0  0  0  0  0  0  0  0  0
  149.3038  134.7906  155.1616 C   0  0  0  0  0  0  0  0  0  0  0  0
  150.1024  133.6953  155.2815 N   0  0  0  0  0  0  0  0  0  0  0  0
  149.7670  132.5434  154.6940 C   0  0  0  0  0  0  0  0  0  0  0  0
  148.6951  132.2682  153.9500 N   0  0  0  0  0  0  0  0  0  0  0  0
  147.8900  133.3609  153.8205 C   0  0  0  0  0  0  0  0  0  0  0  0
  148.1186  134.6490  154.3836 C   0  0  0  0  0  0  0  0  0  0  0  0
  147.0920  135.5103  154.0152 N   0  0  0  0  0  0  0  0  0  0  0  0
  146.2996  134.7736  153.2864 C   0  0  0  0  0  0  0  0  0  0  0  0
  146.6960  133.4653  153.1281 N   0  0  0  0  0  0  0  0  0  0  0  0
  146.0088  132.4300  152.3716 C   0  0  0  0  0  0  0  0  0  0  0  0
  145.8678  132.7445  150.8599 C   0  0  2  0  0  0  0  0  0  0  0  0
  147.1206  133.1379  150.3321 O   0  0  0  0  0  0  0  0  0  0  0  0
  144.8451  133.8377  150.5961 C   0  0  0  0  0  0  0  0  0  0  0  0
  143.5299  133.0649  150.5479 C   0  0  0  0  0  0  0  0  0  0  0  0
  143.8605  131.7635  150.0730 O   0  0  0  0  0  0  0  0  0  0  0  0
  145.2749  131.5978  150.0293 C   0  0  0  0  0  0  0  0  0  0  0  0
  149.1373  137.1560  155.1251 C   0  0  0  0  0  0  0  0  0  0  0  0
  149.7672  138.4467  155.7122 C   0  0  2  0  0  0  0  0  0  0  0  0
  148.9833  139.6739  155.2554 C   0  0  0  0  0  0  0  0  0  0  0  0
  150.0309  140.7736  155.2224 C   0  0  0  0  0  0  0  0  0  0  0  0
  151.1459  140.0950  154.6781 O   0  0  0  0  0  0  0  0  0  0  0  0
  151.2229  138.8105  155.2869 C   0  0  2  0  0  0  0  0  0  0  0  0
  151.9319  137.8574  154.3142 C   0  0  0  0  0  0  0  0  0  0  0  0
  149.6651  138.4168  157.1400 O   0  0  0  0  0  0  0  0  0  0  0  0
  150.5283  136.5638  159.7973 H   0  0  0  0  0  0  0  0  0  0  0  0
  149.0404  137.4795  159.5599 H   0  0  0  0  0  0  0  0  0  0  0  0
  150.5893  138.3162  159.6323 H   0  0  0  0  0  0  0  0  0  0  0  0
  151.3107  137.2170  157.5269 H   0  0  0  0  0  0  0  0  0  0  0  0
  150.0153  135.1228  157.6684 H   0  0  0  0  0  0  0  0  0  0  0  0
  148.5007  136.0059  157.5215 H   0  0  0  0  0  0  0  0  0  0  0  0
  150.4557  131.7248  154.8426 H   0  0  0  0  0  0  0  0  0  0  0  0
  145.3956  135.1669  152.8443 H   0  0  0  0  0  0  0  0  0  0  0  0
  146.5468  131.4927  152.5188 H   0  0  0  0  0  0  0  0  0  0  0  0
  145.0231  132.2854  152.8162 H   0  0  0  0  0  0  0  0  0  0  0  0
  147.5973  132.3621  150.0793 H   0  0  0  0  0  0  0  0  0  0  0  0
  144.8485  134.6308  151.3447 H   0  0  0  0  0  0  0  0  0  0  0  0
  145.0216  134.2992  149.6230 H   0  0  0  0  0  0  0  0  0  0  0  0
  143.1012  132.9723  151.5463 H   0  0  0  0  0  0  0  0  0  0  0  0
  142.7902  133.5461  149.9077 H   0  0  0  0  0  0  0  0  0  0  0  0
  145.5754  131.6897  148.9843 H   0  0  0  0  0  0  0  0  0  0  0  0
  145.5744  130.6051  150.3621 H   0  0  0  0  0  0  0  0  0  0  0  0
  149.2747  137.1275  154.0451 H   0  0  0  0  0  0  0  0  0  0  0  0
  148.0590  137.1777  155.2890 H   0  0  0  0  0  0  0  0  0  0  0  0
  148.5993  139.5244  154.2451 H   0  0  0  0  0  0  0  0  0  0  0  0
  148.1360  139.9114  155.8998 H   0  0  0  0  0  0  0  0  0  0  0  0
  149.7346  141.6233  154.6072 H   0  0  0  0  0  0  0  0  0  0  0  0
  150.2629  141.1315  156.2269 H   0  0  0  0  0  0  0  0  0  0  0  0
  151.8477  138.9310  156.1725 H   0  0  0  0  0  0  0  0  0  0  0  0
  152.0427  136.8609  154.7407 H   0  0  0  0  0  0  0  0  0  0  0  0
  152.9320  138.2227  154.0803 H   0  0  0  0  0  0  0  0  0  0  0  0
  151.3894  137.7717  153.3730 H   0  0  0  0  0  0  0  0  0  0  0  0
  1  2  1  0  0  0  0
  1 29  1  0  0  0  0
  1 30  1  0  0  0  0
  1 31  1  0  0  0  0
  2 28  1  0  0  0  0
  2  3  1  0  0  0  0
  2 32  1  0  0  0  0
  3  4  1  0  0  0  0
  3 33  1  0  0  0  0
  3 34  1  0  0  0  0
  4  5  1  0  0  0  0
  4 21  1  0  0  0  0
  5 10  1  0  0  0  0
  5  6  2  0  0  0  0
  6  7  1  0  0  0  0
  7  8  2  0  0  0  0
  7 35  1  0  0  0  0
  8  9  1  0  0  0  0
  9 13  1  0  0  0  0
  9 10  2  0  0  0  0
 10 11  1  0  0  0  0
 11 12  2  0  0  0  0
 12 13  1  0  0  0  0
 12 36  1  0  0  0  0
 13 14  1  0  0  0  0
 14 15  1  0  0  0  0
 14 37  1  0  0  0  0
 14 38  1  0  0  0  0
 15 20  1  0  0  0  0
 15 16  1  0  0  0  0
 15 17  1  0  0  0  0
 16 39  1  0  0  0  0
 17 18  1  0  0  0  0
 17 40  1  0  0  0  0
 17 41  1  0  0  0  0
 18 19  1  0  0  0  0
 18 42  1  0  0  0  0
 18 43  1  0  0  0  0
 19 20  1  0  0  0  0
 20 44  1  0  0  0  0
 20 45  1  0  0  0  0
 21 22  1  0  0  0  0
 21 46  1  0  0  0  0
 21 47  1  0  0  0  0
 22 26  1  0  0  0  0
 22 23  1  0  0  0  0
 22 28  1  0  0  0  0
 23 24  1  0  0  0  0
 23 48  1  0  0  0  0
 23 49  1  0  0  0  0
 24 25  1  0  0  0  0
 24 50  1  0  0  0  0
 24 51  1  0  0  0  0
 25 26  1  0  0  0  0
 26 27  1  0  0  0  0
 26 52  1  0  0  0  0
 27 53  1  0  0  0  0
 27 54  1  0  0  0  0
 27 55  1  0  0  0  0
M  END
> <s_m_source_file>
AV-unprocessed.smi

> <i_m_source_file_index>
281

> <i_lp_mmshare_version>
43012

> <i_f3d_flags>
0

> <s_epik_input>
W0NIM11bQ0BASF0xT1tDSDJdW0NIMl1bQ0BAXTEyW0NIMl1OKFtDSDJdW0NASF0oTzIpW0NIM10pYyhuW2NIXW4zKWMoYzM0KW5bY0hdbjRbQ0gyXVtDQEBdNShbT0hdKVtDSDJdW0NIMl1PW0NIMl01

> <s_epik_cmdline>
J2VwaWtfcHl0aG9uJywgJy1waCcsICc3LjAnLCAnLXRuJywgJzgnLCAnLW1hJywgJzIwMCcsICctbWV0YWxfYmluZGluZycsICctaW1hZScsICc8aW5maWxlLm1hZT4nLCAnLW9tYWUnLCAnPG91dGZpbGUubWFlPic=

> <r_lp_tautomer_probability>
1

> <r_epik_Ionization_Penalty>
0.00571331

> <r_epik_Ionization_Penalty_Charging>
0

> <r_epik_Ionization_Penalty_Neutral>
0.00571331

> <r_epik_State_Penalty>
0.00399586

> <r_epik_Charging_Adjusted_Penalty>
0.00399586

> <i_epik_Tot_Q>
0

> <i_epik_Tot_abs_Q>
0

> <r_epik_Metal_State_Penalty>
-0

> <b_epik_Metal_Only>
0

> <s_lp_Force_Field>
OPLS_2005

> <r_lp_Energy>
53.9998

> <b_lp_Chiralities_Consistent>
1

> <s_lp_Variant>
AV-unprocessed.smi:281-12

> <Gold.Version>
5.8.1

> <Gold.Id.Protein>
6NUR|6NUR_protein|mol2

> <Gold.PLP.Fitness>
43.1294

> <Gold.PLP.PLP>
-36.0002

> <Gold.PLP.part.hbond>
-3.5921

> <Gold.PLP.part.metal>
0.0000

> <Gold.PLP.part.buried>
-5.6549

> <Gold.PLP.part.nonpolar>
-28.8889

> <Gold.PLP.part.repulsive>
1.2320

> <Gold.PLP.ligand.clash>
0.0000

> <Gold.PLP.ligand.torsion>
0.5604

> <Gold.PLP.Chemscore.Hbond>
2.6614

> <Gold.PLP.Chemscore.CHOScore>
0.0000

> <Gold.PLP.Chemscore.Metal>
0.0000

> <Gold.Chemscore.Hbonds>
donor molecule, donor type, donor heavy atom, donor atom, acceptor molecule, acceptor atom, score
      L1  H    16    39       P1 10747  0.99
      P1  H  7989  7998       L1    25  0.91
      P1  H 10785 10796       L1    19  0.48

> <Gold.PLP.Chemscore.Internal.Correction>
0.2657

> <Gold.Rescore>
     Score         DG    S(hbond)    S(metal)    S(lipo)     H(rot)  DE(clash)    DE(int)     intcor
     15.66     -17.56       2.25        0.00      84.68       2.09       0.05       1.85       ----

> <Gold.Chemscore.Fitness>
15.6614

> <Gold.Chemscore.DG>
-17.5597

> <Gold.Chemscore.ZeroCoef>
-5.4800

> <Gold.Chemscore.Hbond>
2.2544

> <Gold.Chemscore.Metal>
0.0000

> <Gold.Chemscore.Lipo>
84.6790

> <Gold.Chemscore.Internal_Hbond>
0.0000

> <Gold.Chemscore.DEClash>
0.0484

> <Gold.Chemscore.DEInternal>
1.8499

> <Gold.Chemscore.Rot>
2.0927

> <Gold.Chemscore.Internal.Correction>
   9.000000E+99

> <Gold.Chemscore.Hbonds>
donor molecule, donor type, donor heavy atom, donor atom, acceptor molecule, acceptor atom, score
      L1  H    16    39       P1 10747  0.91
      P1  H  7989  7998       L1    25  0.57
      P1  H 10785 10796       L1    19  0.14

> <Gold.Chemscore.Hbond.Weighted>
-7.5296

> <Gold.Chemscore.Metal.Weighted>
-0.0000

> <Gold.Chemscore.Lipo.Weighted>
-9.9074

> <Gold.Chemscore.Internal_Hbond.Weighted>
0.0000

> <Gold.Chemscore.DEClash.Weighted>
0.0484

> <Gold.Chemscore.DEInternal.Weighted>
1.8499

> <Gold.Chemscore.Rot.Weighted>
5.3573

> <Gold.Chemscore.Internal.Correction.Weighted>
   9.000000E+99

> <Gold.Protein.RotatedTorsions>
[ 6907 6896 6895 6894 ] final  -53.88 input  -60.11 | X-H torsion
[ 7974 7965 7964 7962 ] final   15.40 input  175.53 | X-H torsion
[ 8008 7997 7996 7995 ] final   69.12 input   59.86 | X-H torsion
[ 10167 10162 10161 10158 ] final -104.86 input  -65.29 | X-H torsion
[ 10718 10713 10712 10709 ] final  107.27 input   66.30 | X-H torsion
[ 10763 10752 10751 10750 ] final   60.62 input  -60.55 | X-H torsion
[ 11005 11000 10999 10996 ] final   21.89 input  -57.11 | X-H torsion

> <Gold.Protein.ActiveResidues>
 VAL166  LYS551  ARG553  GLY616  TRP617  ASP618  TYR619  PRO620  LYS621  CYS622 
 ASP623  PHE694  ASN695  SER759  ASP760  ASP761  ALA762  ILE779  LEU786  VAL792 
 PHE793  MET794  SER795  GLU796  ALA797  LYS798  CYS799  TRP800  GLU811  SER814 

> <Gold.Protein.RotatedAtoms>
  150.8387  134.7671  159.6914 H   0  0  0  0  0  0  0  0  0  0  0  0  # atno 6907 bound_to 6896
  152.4479  134.5453  159.9861 H   0  0  0  0  0  0  0  0  0  0  0  0  # atno 6908 bound_to 6896
  151.5597  133.3367  159.3004 H   0  0  0  0  0  0  0  0  0  0  0  0  # atno 6909 bound_to 6896
  146.2279  139.8899  142.8556 H   0  0  0  0  0  0  0  0  0  0  0  0  # atno 7974 bound_to 7965
  155.7188  140.3493  155.5006 H   0  0  0  0  0  0  0  0  0  0  0  0  # atno 8008 bound_to 7997
  155.9289  140.1080  157.1170 H   0  0  0  0  0  0  0  0  0  0  0  0  # atno 8009 bound_to 7997
  154.4082  140.1235  156.4763 H   0  0  0  0  0  0  0  0  0  0  0  0  # atno 8010 bound_to 7997
  140.2048  143.3791  152.1100 H   0  0  0  0  0  0  0  0  0  0  0  0  # atno 10167 bound_to 10162
  157.6635  131.0869  150.6132 H   0  0  0  0  0  0  0  0  0  0  0  0  # atno 10718 bound_to 10713
  152.9926  135.5530  154.5903 H   0  0  0  0  0  0  0  0  0  0  0  0  # atno 10763 bound_to 10752
  154.5266  135.2811  155.1219 H   0  0  0  0  0  0  0  0  0  0  0  0  # atno 10764 bound_to 10752
  154.2551  135.6391  153.5307 H   0  0  0  0  0  0  0  0  0  0  0  0  # atno 10765 bound_to 10752
  140.3866  134.1864  155.7663 H   0  0  0  0  0  0  0  0  0  0  0  0  # atno 11005 bound_to 11000
  145.2428  141.0015  143.3926 LP  0  0  0  0  0  0  0  0  0  0  0  0  # atno 17320 bound_to 7965
  144.9438  139.4159  143.6436 LP  0  0  0  0  0  0  0  0  0  0  0  0  # atno 17321 bound_to 7965
  139.5203  144.7031  151.5435 LP  0  0  0  0  0  0  0  0  0  0  0  0  # atno 17342 bound_to 10162
  140.6365  143.8973  150.6652 LP  0  0  0  0  0  0  0  0  0  0  0  0  # atno 17343 bound_to 10162
  156.6434  130.4464  149.5744 LP  0  0  0  0  0  0  0  0  0  0  0  0  # atno 17370 bound_to 10713
  156.2192  130.6727  151.1351 LP  0  0  0  0  0  0  0  0  0  0  0  0  # atno 17371 bound_to 10713
  141.1905  133.8215  157.0914 LP  0  0  0  0  0  0  0  0  0  0  0  0  # atno 17394 bound_to 11000
  140.0438  134.9841  157.1011 LP  0  0  0  0  0  0  0  0  0  0  0  0  # atno 17395 bound_to 11000

$$$$
