AV-unprocessed.smi:101|AV-procd|sdf|924|dock5
  -GOLD-   2262017433D 1   1.00000     0.00000
 Structure written by MMmdl.
 44 46  0  0  0  0  0  0  0  0  1 V2000
  151.5853  144.3186  159.1361 C   0  0  0  0  0  0  0  0  0  0  0  0
  152.0138  142.8637  159.2378 C   0  0  0  0  0  0  0  0  0  0  0  0
  151.7177  141.9486  158.2792 C   0  0  0  0  0  0  0  0  0  0  0  0
  152.0980  140.6119  158.3419 N   0  0  0  0  0  0  0  0  0  0  0  0
  151.7328  139.5970  157.2704 C   0  0  1  0  0  0  0  0  0  0  0  0
  150.8695  138.6354  157.7965 O   0  0  0  0  0  0  0  0  0  0  0  0
  149.5286  139.0011  157.5072 C   0  0  2  0  0  0  0  0  0  0  0  0
  148.5979  137.7896  157.6560 C   0  0  0  0  0  0  0  0  0  0  0  0
  148.6667  137.2807  158.9788 O   0  0  0  0  0  0  0  0  0  0  0  0
  148.7597  135.9549  159.1914 C   0  0  0  0  0  0  0  0  0  0  0  0
  149.2517  135.1664  158.3817 O   0  0  0  0  0  0  0  0  0  0  0  0
  148.2035  135.5411  160.5119 C   0  0  0  0  0  0  0  0  0  0  0  0
  148.0017  136.5167  161.5160 C   0  0  0  0  0  0  0  0  0  0  0  0
  147.4791  136.1550  162.7728 C   0  0  0  0  0  0  0  0  0  0  0  0
  147.1508  134.8133  163.0407 C   0  0  0  0  0  0  0  0  0  0  0  0
  147.3457  133.8334  162.0500 C   0  0  0  0  0  0  0  0  0  0  0  0
  147.8694  134.1929  160.7928 C   0  0  0  0  0  0  0  0  0  0  0  0
  149.6078  139.6083  156.1053 C   0  0  1  0  0  0  0  0  0  0  0  0
  148.5874  140.5713  155.9336 O   0  0  0  0  0  0  0  0  0  0  0  0
  150.9860  140.2685  156.0900 C   0  0  2  0  0  0  0  0  0  0  0  0
  151.6309  140.0212  154.8569 O   0  0  0  0  0  0  0  0  0  0  0  0
  152.7836  140.1504  159.4858 C   0  0  0  0  0  0  0  0  0  0  0  0
  153.1075  138.9727  159.6375 O   0  0  0  0  0  0  0  0  0  0  0  0
  153.0933  141.0899  160.4665 N   0  0  0  0  0  0  0  0  0  0  0  0
  152.7626  142.4456  160.4256 C   0  0  0  0  0  0  0  0  0  0  0  0
  153.0983  143.1810  161.3524 O   0  0  0  0  0  0  0  0  0  0  0  0
  153.5946  140.7618  161.2792 H   0  0  0  0  0  0  0  0  0  0  0  0
  151.0360  144.5173  158.2153 H   0  0  0  0  0  0  0  0  0  0  0  0
  152.4569  144.9741  159.1526 H   0  0  0  0  0  0  0  0  0  0  0  0
  150.9403  144.5851  159.9740 H   0  0  0  0  0  0  0  0  0  0  0  0
  151.1482  142.2995  157.4325 H   0  0  0  0  0  0  0  0  0  0  0  0
  152.6802  139.1255  157.0009 H   0  0  0  0  0  0  0  0  0  0  0  0
  149.2269  139.7697  158.2206 H   0  0  0  0  0  0  0  0  0  0  0  0
  147.5720  138.0787  157.4245 H   0  0  0  0  0  0  0  0  0  0  0  0
  148.8862  137.0111  156.9485 H   0  0  0  0  0  0  0  0  0  0  0  0
  148.2454  137.5533  161.3332 H   0  0  0  0  0  0  0  0  0  0  0  0
  147.3300  136.9084  163.5320 H   0  0  0  0  0  0  0  0  0  0  0  0
  146.7496  134.5364  164.0045 H   0  0  0  0  0  0  0  0  0  0  0  0
  147.0936  132.8033  162.2541 H   0  0  0  0  0  0  0  0  0  0  0  0
  148.0065  133.4157  160.0551 H   0  0  0  0  0  0  0  0  0  0  0  0
  149.5348  138.8370  155.3371 H   0  0  0  0  0  0  0  0  0  0  0  0
  148.0893  140.6234  156.7351 H   0  0  0  0  0  0  0  0  0  0  0  0
  150.9104  141.3447  156.2541 H   0  0  0  0  0  0  0  0  0  0  0  0
  151.3446  139.1795  154.5354 H   0  0  0  0  0  0  0  0  0  0  0  0
  1  2  1  0  0  0  0
  1 28  1  0  0  0  0
  1 29  1  0  0  0  0
  1 30  1  0  0  0  0
  2 25  1  0  0  0  0
  2  3  2  0  0  0  0
  3  4  1  0  0  0  0
  3 31  1  0  0  0  0
  4  5  1  0  0  0  0
  4 22  1  0  0  0  0
  5 20  1  0  0  0  0
  5  6  1  0  0  0  0
  5 32  1  0  0  0  0
  6  7  1  0  0  0  0
  7  8  1  0  0  0  0
  7 18  1  0  0  0  0
  7 33  1  0  0  0  0
  8  9  1  0  0  0  0
  8 34  1  0  0  0  0
  8 35  1  0  0  0  0
  9 10  1  0  0  0  0
 10 11  2  0  0  0  0
 10 12  1  0  0  0  0
 12 17  1  0  0  0  0
 12 13  2  0  0  0  0
 13 14  1  0  0  0  0
 13 36  1  0  0  0  0
 14 15  2  0  0  0  0
 14 37  1  0  0  0  0
 15 16  1  0  0  0  0
 15 38  1  0  0  0  0
 16 17  2  0  0  0  0
 16 39  1  0  0  0  0
 17 40  1  0  0  0  0
 18 19  1  0  0  0  0
 18 20  1  0  0  0  0
 18 41  1  0  0  0  0
 19 42  1  0  0  0  0
 20 21  1  0  0  0  0
 20 43  1  0  0  0  0
 21 44  1  0  0  0  0
 22 23  2  0  0  0  0
 22 24  1  0  0  0  0
 24 27  1  0  0  0  0
 24 25  1  0  0  0  0
 25 26  2  0  0  0  0
M  END
> <s_m_source_file>
AV-unprocessed.smi

> <i_m_source_file_index>
101

> <i_lp_mmshare_version>
43012

> <i_f3d_flags>
0

> <s_epik_input>
Tz1jMVtuSF1jKD1PKW4oW2NIXWMxW0NIM10pW0NAQEhdMk9bQ0BIXShbQ0BASF0oW09IXSlbQ0BIXTJbT0hdKVtDSDJdT0MoPU8pYzNbY0hdW2NIXVtjSF1bY0hdW2NIXTM=

> <s_epik_cmdline>
J2VwaWtfcHl0aG9uJywgJy1waCcsICc3LjAnLCAnLXRuJywgJzgnLCAnLW1hJywgJzIwMCcsICctbWV0YWxfYmluZGluZycsICctaW1hZScsICc8aW5maWxlLm1hZT4nLCAnLW9tYWUnLCAnPG91dGZpbGUubWFlPic=

> <r_lp_tautomer_probability>
0.999537

> <r_epik_Ionization_Penalty>
0.00263537

> <r_epik_Ionization_Penalty_Charging>
0.00263428

> <r_epik_Ionization_Penalty_Neutral>
1.09111e-06

> <r_epik_State_Penalty>
0.00183335

> <r_epik_Charging_Adjusted_Penalty>
0.00446763

> <i_epik_Tot_Q>
0

> <i_epik_Tot_abs_Q>
0

> <r_epik_Metal_State_Penalty>
1.00528

> <b_epik_Metal_Only>
0

> <s_epik_Chemistry_Notes>
This compound has an ester and may undergo hydrolysis at high or low pH. This compound contains an acetal/aminal-like group ( X-CH(R)-Y where X, Y are N, S, or O) that may be acid/base labile, releasing an aldehyde.

> <s_lp_Force_Field>
OPLS_2005

> <r_lp_Energy>
29.5421

> <b_lp_Chiralities_Consistent>
1

> <s_lp_Variant>
AV-unprocessed.smi:101-12

> <Gold.Version>
5.8.1

> <Gold.Id.Protein>
6NUR|6NUR_protein|mol2

> <Gold.PLP.Fitness>
49.0145

> <Gold.PLP.PLP>
-44.6322

> <Gold.PLP.part.hbond>
-1.9456

> <Gold.PLP.part.metal>
0.0000

> <Gold.PLP.part.buried>
-4.6943

> <Gold.PLP.part.nonpolar>
-38.8849

> <Gold.PLP.part.repulsive>
0.1524

> <Gold.PLP.ligand.clash>
0.0000

> <Gold.PLP.ligand.torsion>
0.8426

> <Gold.PLP.Chemscore.Hbond>
2.0000

> <Gold.PLP.Chemscore.CHOScore>
0.0000

> <Gold.PLP.Chemscore.Metal>
0.0000

> <Gold.Chemscore.Hbonds>
donor molecule, donor type, donor heavy atom, donor atom, acceptor molecule, acceptor atom, score
      P1  H  6896  6907       L1    11  1.00
      P1  H  7989  7998       L1    21  1.00

> <Gold.PLP.Chemscore.Internal.Correction>
0.0675

> <Gold.Rescore>
     Score         DG    S(hbond)    S(metal)    S(lipo)     H(rot)  DE(clash)    DE(int)     intcor
     12.16     -14.27       1.93        0.00      92.59       3.32       0.09       2.02       ----

> <Gold.Chemscore.Fitness>
12.1554

> <Gold.Chemscore.DG>
-14.2668

> <Gold.Chemscore.ZeroCoef>
-5.4800

> <Gold.Chemscore.Hbond>
1.9299

> <Gold.Chemscore.Metal>
0.0000

> <Gold.Chemscore.Lipo>
92.5899

> <Gold.Chemscore.Internal_Hbond>
0.0000

> <Gold.Chemscore.DEClash>
0.0867

> <Gold.Chemscore.DEInternal>
2.0247

> <Gold.Chemscore.Rot>
3.3172

> <Gold.Chemscore.Internal.Correction>
   9.000000E+99

> <Gold.Chemscore.Hbonds>
donor molecule, donor type, donor heavy atom, donor atom, acceptor molecule, acceptor atom, score
      P1  H  6896  6907       L1    11  0.49
      P1  H  7989  7998       L1    21  0.29

> <Gold.Chemscore.Hbond.Weighted>
-6.4458

> <Gold.Chemscore.Metal.Weighted>
-0.0000

> <Gold.Chemscore.Lipo.Weighted>
-10.8330

> <Gold.Chemscore.Internal_Hbond.Weighted>
0.0000

> <Gold.Chemscore.DEClash.Weighted>
0.0867

> <Gold.Chemscore.DEInternal.Weighted>
2.0247

> <Gold.Chemscore.Rot.Weighted>
8.4920

> <Gold.Chemscore.Internal.Correction.Weighted>
   9.000000E+99

> <Gold.Protein.RotatedTorsions>
[ 6907 6896 6895 6894 ] final  -94.06 input  -60.11 | X-H torsion
[ 7974 7965 7964 7962 ] final  -69.65 input  175.53 | X-H torsion
[ 8008 7997 7996 7995 ] final  -53.90 input   59.86 | X-H torsion
[ 10167 10162 10161 10158 ] final  -19.53 input  -65.29 | X-H torsion
[ 10718 10713 10712 10709 ] final   24.00 input   66.30 | X-H torsion
[ 10763 10752 10751 10750 ] final   95.73 input  -60.55 | X-H torsion
[ 11005 11000 10999 10996 ] final   88.22 input  -57.11 | X-H torsion

> <Gold.Protein.ActiveResidues>
 VAL166  LYS551  ARG553  GLY616  TRP617  ASP618  TYR619  PRO620  LYS621  CYS622 
 ASP623  PHE694  ASN695  SER759  ASP760  ASP761  ALA762  ILE779  LEU786  VAL792 
 PHE793  MET794  SER795  GLU796  ALA797  LYS798  CYS799  TRP800  GLU811  SER814 

> <Gold.Protein.RotatedAtoms>
  150.6934  134.1871  159.4270 H   0  0  0  0  0  0  0  0  0  0  0  0  # atno 6907 bound_to 6896
  151.9844  135.0010  160.0568 H   0  0  0  0  0  0  0  0  0  0  0  0  # atno 6908 bound_to 6896
  152.1726  133.4618  159.4953 H   0  0  0  0  0  0  0  0  0  0  0  0  # atno 6909 bound_to 6896
  145.7010  140.9116  143.0731 H   0  0  0  0  0  0  0  0  0  0  0  0  # atno 7974 bound_to 7965
  154.4146  140.1189  156.5228 H   0  0  0  0  0  0  0  0  0  0  0  0  # atno 8008 bound_to 7997
  155.6685  140.3496  155.4790 H   0  0  0  0  0  0  0  0  0  0  0  0  # atno 8009 bound_to 7997
  155.9653  140.1131  157.0850 H   0  0  0  0  0  0  0  0  0  0  0  0  # atno 8010 bound_to 7997
  140.7269  143.4810  151.0117 H   0  0  0  0  0  0  0  0  0  0  0  0  # atno 10167 bound_to 10162
  157.1738  130.6771  149.6087 H   0  0  0  0  0  0  0  0  0  0  0  0  # atno 10718 bound_to 10713
  153.2566  135.4243  155.0852 H   0  0  0  0  0  0  0  0  0  0  0  0  # atno 10763 bound_to 10752
  154.8403  135.3439  154.6436 H   0  0  0  0  0  0  0  0  0  0  0  0  # atno 10764 bound_to 10752
  153.6857  135.7036  153.5162 H   0  0  0  0  0  0  0  0  0  0  0  0  # atno 10765 bound_to 10752
  139.8901  134.8473  156.2970 H   0  0  0  0  0  0  0  0  0  0  0  0  # atno 11005 bound_to 11000
  144.6968  139.8947  143.7455 LP  0  0  0  0  0  0  0  0  0  0  0  0  # atno 17320 bound_to 7965
  146.0798  139.3785  143.0472 LP  0  0  0  0  0  0  0  0  0  0  0  0  # atno 17321 bound_to 7965
  139.8509  143.7440  152.3178 LP  0  0  0  0  0  0  0  0  0  0  0  0  # atno 17342 bound_to 10162
  139.7621  144.7503  151.0348 LP  0  0  0  0  0  0  0  0  0  0  0  0  # atno 17343 bound_to 10162
  155.9734  130.4670  150.6309 LP  0  0  0  0  0  0  0  0  0  0  0  0  # atno 17370 bound_to 10713
  157.4018  131.0811  151.1301 LP  0  0  0  0  0  0  0  0  0  0  0  0  # atno 17371 bound_to 10713
  140.9939  133.7192  156.0855 LP  0  0  0  0  0  0  0  0  0  0  0  0  # atno 17394 bound_to 11000
  140.7589  134.3962  157.5529 LP  0  0  0  0  0  0  0  0  0  0  0  0  # atno 17395 bound_to 11000

$$$$
