AV-unprocessed.smi:261|AV-procd|sdf|1986|dock2
  -GOLD-   2262021163D 1   1.00000     0.00000
 Structure written by MMmdl.
 51 54  0  0  0  0  0  0  0  0  1 V2000
  150.9622  141.5064  157.0053 C   0  0  0  0  0  0  0  0  0  0  0  0
  150.2600  140.2877  157.1907 O   0  0  0  0  0  0  0  0  0  0  0  0
  151.0831  139.2051  157.6081 C   0  0  2  0  0  0  0  0  0  0  0  0
  152.2040  138.9096  156.6023 C   0  0  0  0  0  0  0  0  0  0  0  0
  151.5559  138.0123  155.5358 C   0  0  2  0  0  0  0  0  0  0  0  0
  150.9837  138.8398  154.3642 C   0  0  0  0  0  0  0  0  0  0  0  0
  150.3814  138.2023  153.3543 N   0  0  0  0  0  0  0  0  0  0  0  0
  151.0980  140.0634  154.3720 O   0  0  0  0  0  0  0  0  0  0  0  0
  150.5507  137.2745  156.3019 N   0  0  0  0  0  0  0  0  0  0  0  0
  149.9862  136.0912  155.9318 C   0  0  0  0  0  0  0  0  0  0  0  0
  150.6928  134.9532  156.1657 N   0  0  0  0  0  0  0  0  0  0  0  0
  150.1966  133.7584  155.8359 C   0  0  0  0  0  0  0  0  0  0  0  0
  149.0251  133.4714  155.2700 N   0  0  0  0  0  0  0  0  0  0  0  0
  148.3049  134.6033  155.0292 C   0  0  0  0  0  0  0  0  0  0  0  0
  148.7029  135.9409  155.3217 C   0  0  0  0  0  0  0  0  0  0  0  0
  147.6944  136.8148  154.9275 N   0  0  0  0  0  0  0  0  0  0  0  0
  146.7583  136.0445  154.4472 C   0  0  0  0  0  0  0  0  0  0  0  0
  147.0397  134.6994  154.4769 N   0  0  0  0  0  0  0  0  0  0  0  0
  146.1799  133.6177  154.0267 C   0  0  0  0  0  0  0  0  0  0  0  0
  145.1941  134.0235  152.9077 C   0  0  2  0  0  0  0  0  0  0  0  0
  143.9604  134.4467  153.4559 O   0  0  0  0  0  0  0  0  0  0  0  0
  144.9631  132.9539  151.8146 C   0  0  2  0  0  0  0  0  0  0  0  0
  146.2184  132.3845  151.1544 C   0  0  0  0  0  0  0  0  0  0  0  0
  145.6884  131.8125  149.8478 C   0  0  0  0  0  0  0  0  0  0  0  0
  144.3137  132.4689  149.6724 C   0  0  0  0  0  0  0  0  0  0  0  0
  144.2183  133.4367  150.7076 O   0  0  0  0  0  0  0  0  0  0  0  0
  150.2419  137.9246  157.5722 C   0  0  0  0  0  0  0  0  0  0  0  0
  151.4660  139.3878  158.6136 H   0  0  0  0  0  0  0  0  0  0  0  0
  152.3195  137.3393  155.1467 H   0  0  0  0  0  0  0  0  0  0  0  0
  150.2620  142.2852  156.7035 H   0  0  0  0  0  0  0  0  0  0  0  0
  151.7218  141.4249  156.2280 H   0  0  0  0  0  0  0  0  0  0  0  0
  151.4417  141.8292  157.9303 H   0  0  0  0  0  0  0  0  0  0  0  0
  152.6762  139.8040  156.1956 H   0  0  0  0  0  0  0  0  0  0  0  0
  152.9896  138.3450  157.1067 H   0  0  0  0  0  0  0  0  0  0  0  0
  150.0062  138.7296  152.5791 H   0  0  0  0  0  0  0  0  0  0  0  0
  150.3084  137.1954  153.3697 H   0  0  0  0  0  0  0  0  0  0  0  0
  150.8285  132.9116  156.0594 H   0  0  0  0  0  0  0  0  0  0  0  0
  145.8282  136.4383  154.0643 H   0  0  0  0  0  0  0  0  0  0  0  0
  146.8119  132.7935  153.6934 H   0  0  0  0  0  0  0  0  0  0  0  0
  145.6225  133.2430  154.8859 H   0  0  0  0  0  0  0  0  0  0  0  0
  145.6158  134.9011  152.4167 H   0  0  0  0  0  0  0  0  0  0  0  0
  143.4334  133.6832  153.6347 H   0  0  0  0  0  0  0  0  0  0  0  0
  144.3984  132.1289  152.2540 H   0  0  0  0  0  0  0  0  0  0  0  0
  146.9374  133.1747  150.9363 H   0  0  0  0  0  0  0  0  0  0  0  0
  146.7171  131.6383  151.7734 H   0  0  0  0  0  0  0  0  0  0  0  0
  146.3579  132.0439  149.0186 H   0  0  0  0  0  0  0  0  0  0  0  0
  145.5873  130.7282  149.9040 H   0  0  0  0  0  0  0  0  0  0  0  0
  144.1943  132.9351  148.6943 H   0  0  0  0  0  0  0  0  0  0  0  0
  143.5178  131.7334  149.7973 H   0  0  0  0  0  0  0  0  0  0  0  0
  150.5364  137.2611  158.3868 H   0  0  0  0  0  0  0  0  0  0  0  0
  149.1764  138.1354  157.6758 H   0  0  0  0  0  0  0  0  0  0  0  0
  1  2  1  0  0  0  0
  1 30  1  0  0  0  0
  1 31  1  0  0  0  0
  1 32  1  0  0  0  0
  2  3  1  0  0  0  0
  3 28  1  0  0  0  0
  3 27  1  0  0  0  0
  3  4  1  0  0  0  0
  4  5  1  0  0  0  0
  4 33  1  0  0  0  0
  4 34  1  0  0  0  0
  5 29  1  0  0  0  0
  5  6  1  0  0  0  0
  5  9  1  0  0  0  0
  6  7  1  0  0  0  0
  6  8  2  0  0  0  0
  7 35  1  0  0  0  0
  7 36  1  0  0  0  0
  9 10  1  0  0  0  0
  9 27  1  0  0  0  0
 10 15  1  0  0  0  0
 10 11  2  0  0  0  0
 11 12  1  0  0  0  0
 12 13  2  0  0  0  0
 12 37  1  0  0  0  0
 13 14  1  0  0  0  0
 14 18  1  0  0  0  0
 14 15  2  0  0  0  0
 15 16  1  0  0  0  0
 16 17  2  0  0  0  0
 17 18  1  0  0  0  0
 17 38  1  0  0  0  0
 18 19  1  0  0  0  0
 19 20  1  0  0  0  0
 19 39  1  0  0  0  0
 19 40  1  0  0  0  0
 20 21  1  0  0  0  0
 20 22  1  0  0  0  0
 20 41  1  0  0  0  0
 21 42  1  0  0  0  0
 22 26  1  0  0  0  0
 22 23  1  0  0  0  0
 22 43  1  0  0  0  0
 23 24  1  0  0  0  0
 23 44  1  0  0  0  0
 23 45  1  0  0  0  0
 24 25  1  0  0  0  0
 24 46  1  0  0  0  0
 24 47  1  0  0  0  0
 25 26  1  0  0  0  0
 25 48  1  0  0  0  0
 25 49  1  0  0  0  0
 27 50  1  0  0  0  0
 27 51  1  0  0  0  0
M  END
> <s_m_source_file>
AV-unprocessed.smi

> <i_m_source_file_index>
261

> <i_lp_mmshare_version>
43012

> <i_f3d_flags>
0

> <s_epik_input>
W0NIM11PW0NASF0xW0NIMl1bQ0BASF0oQyg9TylbTkgyXSlOKFtDSDJdMSljKG5bY0hdbjIpYyhjMjMpbltjSF1uM1tDSDJdW0NASF0oW09IXSlbQ0BASF00W0NIMl1bQ0gyXVtDSDJdTzQ=

> <s_epik_cmdline>
J2VwaWtfcHl0aG9uJywgJy1waCcsICc3LjAnLCAnLXRuJywgJzgnLCAnLW1hJywgJzIwMCcsICctbWV0YWxfYmluZGluZycsICctaW1hZScsICc8aW5maWxlLm1hZT4nLCAnLW9tYWUnLCAnPG91dGZpbGUubWFlPic=

> <r_lp_tautomer_probability>
1

> <r_epik_Ionization_Penalty>
0.000713824

> <r_epik_Ionization_Penalty_Charging>
0

> <r_epik_Ionization_Penalty_Neutral>
0.000713824

> <r_epik_State_Penalty>
0.000402132

> <r_epik_Charging_Adjusted_Penalty>
0.000402132

> <i_epik_Tot_Q>
0

> <i_epik_Tot_abs_Q>
0

> <r_epik_Metal_State_Penalty>
-0

> <b_epik_Metal_Only>
0

> <s_lp_Force_Field>
OPLS_2005

> <r_lp_Energy>
46.7805

> <b_lp_Chiralities_Consistent>
1

> <s_lp_Variant>
AV-unprocessed.smi:261-4

> <Gold.Version>
5.8.1

> <Gold.Id.Protein>
6NUR|6NUR_protein|mol2

> <Gold.PLP.Fitness>
42.8946

> <Gold.PLP.PLP>
-35.5795

> <Gold.PLP.part.hbond>
-5.2107

> <Gold.PLP.part.metal>
0.0000

> <Gold.PLP.part.buried>
-7.1009

> <Gold.PLP.part.nonpolar>
-23.0085

> <Gold.PLP.part.repulsive>
0.5628

> <Gold.PLP.ligand.clash>
0.0000

> <Gold.PLP.ligand.torsion>
2.3785

> <Gold.PLP.Chemscore.Hbond>
3.9655

> <Gold.PLP.Chemscore.CHOScore>
0.0000

> <Gold.PLP.Chemscore.Metal>
0.0000

> <Gold.Chemscore.Hbonds>
donor molecule, donor type, donor heavy atom, donor atom, acceptor molecule, acceptor atom, score
      L1  H     7    35       P1  7957  1.00
      L1  H     7    36       P1  7948  0.15
      L1  H    21    42       P1 10957  0.16
      P1  H  7989  7998       L1     8  0.42

> <Gold.PLP.Chemscore.Internal.Correction>
0.1756

> <Gold.Rescore>
     Score         DG    S(hbond)    S(metal)    S(lipo)     H(rot)  DE(clash)    DE(int)     intcor
     12.80     -16.08       3.21        0.00      68.49       3.18       0.09       3.19       ----

> <Gold.Chemscore.Fitness>
12.7958

> <Gold.Chemscore.DG>
-16.0783

> <Gold.Chemscore.ZeroCoef>
-5.4800

> <Gold.Chemscore.Hbond>
3.2138

> <Gold.Chemscore.Metal>
0.0000

> <Gold.Chemscore.Lipo>
68.4865

> <Gold.Chemscore.Internal_Hbond>
0.0000

> <Gold.Chemscore.DEClash>
0.0942

> <Gold.Chemscore.DEInternal>
3.1883

> <Gold.Chemscore.Rot>
3.1831

> <Gold.Chemscore.Internal.Correction>
   9.000000E+99

> <Gold.Chemscore.Hbonds>
donor molecule, donor type, donor heavy atom, donor atom, acceptor molecule, acceptor atom, score
      L1  H     7    35       P1  7957  0.39
      L1  H     7    36       P1  7948  0.02
      L1  H    21    42       P1 10957  0.17
      P1  H  7989  7998       L1     8  0.44

> <Gold.Chemscore.Hbond.Weighted>
-10.7340

> <Gold.Chemscore.Metal.Weighted>
-0.0000

> <Gold.Chemscore.Lipo.Weighted>
-8.0129

> <Gold.Chemscore.Internal_Hbond.Weighted>
0.0000

> <Gold.Chemscore.DEClash.Weighted>
0.0942

> <Gold.Chemscore.DEInternal.Weighted>
3.1883

> <Gold.Chemscore.Rot.Weighted>
8.1486

> <Gold.Chemscore.Internal.Correction.Weighted>
   9.000000E+99

> <Gold.Protein.RotatedTorsions>
[ 6907 6896 6895 6894 ] final   27.41 input  -60.11 | X-H torsion
[ 7974 7965 7964 7962 ] final   22.03 input  175.53 | X-H torsion
[ 8008 7997 7996 7995 ] final  -28.40 input   59.86 | X-H torsion
[ 10167 10162 10161 10158 ] final  138.67 input  -65.29 | X-H torsion
[ 10718 10713 10712 10709 ] final    7.44 input   66.30 | X-H torsion
[ 10763 10752 10751 10750 ] final  -39.93 input  -60.55 | X-H torsion
[ 11005 11000 10999 10996 ] final   16.09 input  -57.11 | X-H torsion

> <Gold.Protein.ActiveResidues>
 VAL166  LYS551  ARG553  GLY616  TRP617  ASP618  TYR619  PRO620  LYS621  CYS622 
 ASP623  PHE694  ASN695  SER759  ASP760  ASP761  ALA762  ILE779  LEU786  VAL792 
 PHE793  MET794  SER795  GLU796  ALA797  LYS798  CYS799  TRP800  GLU811  SER814 

> <Gold.Protein.RotatedAtoms>
  152.0019  134.9923  160.0565 H   0  0  0  0  0  0  0  0  0  0  0  0  # atno 6907 bound_to 6896
  152.1511  133.4518  159.4822 H   0  0  0  0  0  0  0  0  0  0  0  0  # atno 6908 bound_to 6896
  150.6875  134.2106  159.4401 H   0  0  0  0  0  0  0  0  0  0  0  0  # atno 6909 bound_to 6896
  146.2046  139.7943  142.8735 H   0  0  0  0  0  0  0  0  0  0  0  0  # atno 7974 bound_to 7965
  154.4334  140.1846  156.1083 H   0  0  0  0  0  0  0  0  0  0  0  0  # atno 8008 bound_to 7997
  156.0238  140.3338  155.7041 H   0  0  0  0  0  0  0  0  0  0  0  0  # atno 8009 bound_to 7997
  155.5938  140.0633  157.2742 H   0  0  0  0  0  0  0  0  0  0  0  0  # atno 8010 bound_to 7997
  139.5103  144.6339  151.5746 H   0  0  0  0  0  0  0  0  0  0  0  0  # atno 10167 bound_to 10162
  156.9369  130.5847  149.5651 H   0  0  0  0  0  0  0  0  0  0  0  0  # atno 10718 bound_to 10713
  153.9375  135.6765  153.4744 H   0  0  0  0  0  0  0  0  0  0  0  0  # atno 10763 bound_to 10752
  153.0948  135.4857  154.8755 H   0  0  0  0  0  0  0  0  0  0  0  0  # atno 10764 bound_to 10752
  154.7395  135.3157  154.8711 H   0  0  0  0  0  0  0  0  0  0  0  0  # atno 10765 bound_to 10752
  140.4510  134.1224  155.7702 H   0  0  0  0  0  0  0  0  0  0  0  0  # atno 11005 bound_to 11000
  145.3364  141.0278  143.3417 LP  0  0  0  0  0  0  0  0  0  0  0  0  # atno 17320 bound_to 7965
  144.8763  139.4967  143.6744 LP  0  0  0  0  0  0  0  0  0  0  0  0  # atno 17321 bound_to 7965
  140.6082  143.9485  150.6434 LP  0  0  0  0  0  0  0  0  0  0  0  0  # atno 17342 bound_to 10162
  140.2719  143.3450  152.1230 LP  0  0  0  0  0  0  0  0  0  0  0  0  # atno 17343 bound_to 10162
  156.0422  130.5503  150.8797 LP  0  0  0  0  0  0  0  0  0  0  0  0  # atno 17370 bound_to 10713
  157.5810  131.0946  150.9270 LP  0  0  0  0  0  0  0  0  0  0  0  0  # atno 17371 bound_to 10713
  141.1664  133.8695  157.1702 LP  0  0  0  0  0  0  0  0  0  0  0  0  # atno 17394 bound_to 11000
  140.0007  135.0029  157.0182 LP  0  0  0  0  0  0  0  0  0  0  0  0  # atno 17395 bound_to 11000

$$$$
