AV-unprocessed.smi:189|AV-procd|sdf|1480|dock9
  -GOLD-   2262019303D 1   1.00000     0.00000
 Structure written by MMmdl.
 53 57  0  0  0  0  0  0  0  0  1 V2000
  154.5271  139.1361  159.1021 C   0  0  0  0  0  0  0  0  0  0  0  0
  153.1927  139.7736  159.5423 C   0  0  1  0  0  0  0  0  0  0  0  0
  153.4391  141.1103  160.2843 C   0  0  0  0  0  0  0  0  0  0  0  0
  152.3900  142.0477  159.6937 C   0  0  1  0  0  0  0  0  0  0  0  0
  152.6518  143.5582  159.7190 C   0  0  0  0  0  0  0  0  0  0  0  0
  151.4954  144.2806  158.9960 C   0  0  0  0  0  0  0  0  0  0  0  0
  151.2439  143.7180  157.5783 C   0  0  0  0  0  0  0  0  0  0  0  0
  151.0765  142.1836  157.5714 C   0  0  0  0  0  0  0  0  0  0  0  0
  152.2949  141.5433  158.2616 C   0  0  2  0  0  0  0  0  0  0  0  0
  152.2817  140.0990  158.4348 N   0  0  0  0  0  0  0  0  0  0  0  0
  152.1823  139.2431  157.3868 C   0  0  0  0  0  0  0  0  0  0  0  0
  152.8995  139.4683  156.2549 N   0  0  0  0  0  0  0  0  0  0  0  0
  152.8231  138.6160  155.2287 C   0  0  0  0  0  0  0  0  0  0  0  0
  152.1069  137.4945  155.1270 N   0  0  0  0  0  0  0  0  0  0  0  0
  151.3827  137.2651  156.2595 C   0  0  0  0  0  0  0  0  0  0  0  0
  151.3633  138.0810  157.4256 C   0  0  0  0  0  0  0  0  0  0  0  0
  150.5104  137.5315  158.3751 N   0  0  0  0  0  0  0  0  0  0  0  0
  150.0558  136.4494  157.8053 C   0  0  0  0  0  0  0  0  0  0  0  0
  150.5223  136.2152  156.5313 N   0  0  0  0  0  0  0  0  0  0  0  0
  150.1801  135.0889  155.6763 C   0  0  0  0  0  0  0  0  0  0  0  0
  148.7145  135.1107  155.1838 C   0  0  1  0  0  0  0  0  0  0  0  0
  148.4629  136.3455  154.5344 O   0  0  0  0  0  0  0  0  0  0  0  0
  148.3590  133.9777  154.2254 C   0  0  0  0  0  0  0  0  0  0  0  0
  146.8901  133.7236  154.5324 C   0  0  0  0  0  0  0  0  0  0  0  0
  146.8457  133.8540  155.9429 O   0  0  0  0  0  0  0  0  0  0  0  0
  147.6864  134.9395  156.3205 C   0  0  0  0  0  0  0  0  0  0  0  0
  155.1877  138.9952  159.9578 H   0  0  0  0  0  0  0  0  0  0  0  0
  155.0493  139.7649  158.3800 H   0  0  0  0  0  0  0  0  0  0  0  0
  154.3813  138.1563  158.6477 H   0  0  0  0  0  0  0  0  0  0  0  0
  152.6670  139.0918  160.2115 H   0  0  0  0  0  0  0  0  0  0  0  0
  153.3492  141.0113  161.3664 H   0  0  0  0  0  0  0  0  0  0  0  0
  154.4367  141.4970  160.0687 H   0  0  0  0  0  0  0  0  0  0  0  0
  151.4454  141.8500  160.2053 H   0  0  0  0  0  0  0  0  0  0  0  0
  152.7349  143.9125  160.7467 H   0  0  0  0  0  0  0  0  0  0  0  0
  153.5988  143.7847  159.2276 H   0  0  0  0  0  0  0  0  0  0  0  0
  150.5842  144.1769  159.5866 H   0  0  0  0  0  0  0  0  0  0  0  0
  151.7024  145.3497  158.9404 H   0  0  0  0  0  0  0  0  0  0  0  0
  150.3612  144.1885  157.1442 H   0  0  0  0  0  0  0  0  0  0  0  0
  152.0819  143.9879  156.9341 H   0  0  0  0  0  0  0  0  0  0  0  0
  150.1591  141.9056  158.0917 H   0  0  0  0  0  0  0  0  0  0  0  0
  150.9718  141.8339  156.5449 H   0  0  0  0  0  0  0  0  0  0  0  0
  153.2016  141.8107  157.7149 H   0  0  0  0  0  0  0  0  0  0  0  0
  153.4233  138.8677  154.3669 H   0  0  0  0  0  0  0  0  0  0  0  0
  149.3584  135.7890  158.3004 H   0  0  0  0  0  0  0  0  0  0  0  0
  150.8637  135.0835  154.8264 H   0  0  0  0  0  0  0  0  0  0  0  0
  150.3759  134.1694  156.2298 H   0  0  0  0  0  0  0  0  0  0  0  0
  148.6518  136.2428  153.6140 H   0  0  0  0  0  0  0  0  0  0  0  0
  148.5486  134.2085  153.1762 H   0  0  0  0  0  0  0  0  0  0  0  0
  148.9242  133.0794  154.4753 H   0  0  0  0  0  0  0  0  0  0  0  0
  146.2548  134.4804  154.0699 H   0  0  0  0  0  0  0  0  0  0  0  0
  146.5526  132.7397  154.2070 H   0  0  0  0  0  0  0  0  0  0  0  0
  148.1581  134.7072  157.2759 H   0  0  0  0  0  0  0  0  0  0  0  0
  147.0812  135.8361  156.4660 H   0  0  0  0  0  0  0  0  0  0  0  0
  1  2  1  0  0  0  0
  1 27  1  0  0  0  0
  1 28  1  0  0  0  0
  1 29  1  0  0  0  0
  2 10  1  0  0  0  0
  2  3  1  0  0  0  0
  2 30  1  0  0  0  0
  3  4  1  0  0  0  0
  3 31  1  0  0  0  0
  3 32  1  0  0  0  0
  4  9  1  0  0  0  0
  4  5  1  0  0  0  0
  4 33  1  0  0  0  0
  5  6  1  0  0  0  0
  5 34  1  0  0  0  0
  5 35  1  0  0  0  0
  6  7  1  0  0  0  0
  6 36  1  0  0  0  0
  6 37  1  0  0  0  0
  7  8  1  0  0  0  0
  7 38  1  0  0  0  0
  7 39  1  0  0  0  0
  8  9  1  0  0  0  0
  8 40  1  0  0  0  0
  8 41  1  0  0  0  0
  9 10  1  0  0  0  0
  9 42  1  0  0  0  0
 10 11  1  0  0  0  0
 11 16  1  0  0  0  0
 11 12  2  0  0  0  0
 12 13  1  0  0  0  0
 13 14  2  0  0  0  0
 13 43  1  0  0  0  0
 14 15  1  0  0  0  0
 15 19  1  0  0  0  0
 15 16  2  0  0  0  0
 16 17  1  0  0  0  0
 17 18  2  0  0  0  0
 18 19  1  0  0  0  0
 18 44  1  0  0  0  0
 19 20  1  0  0  0  0
 20 21  1  0  0  0  0
 20 45  1  0  0  0  0
 20 46  1  0  0  0  0
 21 26  1  0  0  0  0
 21 22  1  0  0  0  0
 21 23  1  0  0  0  0
 22 47  1  0  0  0  0
 23 24  1  0  0  0  0
 23 48  1  0  0  0  0
 23 49  1  0  0  0  0
 24 25  1  0  0  0  0
 24 50  1  0  0  0  0
 24 51  1  0  0  0  0
 25 26  1  0  0  0  0
 26 52  1  0  0  0  0
 26 53  1  0  0  0  0
M  END
> <s_m_source_file>
AV-unprocessed.smi

> <i_m_source_file_index>
189

> <i_lp_mmshare_version>
43012

> <i_f3d_flags>
0

> <s_epik_input>
W0NIMl0xW0NIMl1bQ0gyXVtDSDJdW0NASF0oW0NASF0xMilOKFtDQEhdKFtDSDNdKVtDSDJdMiljKG5bY0hdbjMpYyhjMzQpbltjSF1uNFtDSDJdW0NAQF01KFtPSF0pW0NIMl1bQ0gyXU9bQ0gyXTU=

> <s_epik_cmdline>
J2VwaWtfcHl0aG9uJywgJy1waCcsICc3LjAnLCAnLXRuJywgJzgnLCAnLW1hJywgJzIwMCcsICctbWV0YWxfYmluZGluZycsICctaW1hZScsICc8aW5maWxlLm1hZT4nLCAnLW9tYWUnLCAnPG91dGZpbGUubWFlPic=

> <r_lp_tautomer_probability>
1

> <r_epik_Ionization_Penalty>
0.00594261

> <r_epik_Ionization_Penalty_Charging>
0

> <r_epik_Ionization_Penalty_Neutral>
0.00594261

> <r_epik_State_Penalty>
0.00429776

> <r_epik_Charging_Adjusted_Penalty>
0.00429776

> <i_epik_Tot_Q>
0

> <i_epik_Tot_abs_Q>
0

> <r_epik_Metal_State_Penalty>
-0

> <b_epik_Metal_Only>
0

> <s_lp_Force_Field>
OPLS_2005

> <r_lp_Energy>
58.915

> <b_lp_Chiralities_Consistent>
1

> <s_lp_Variant>
AV-unprocessed.smi:189-6

> <Gold.Version>
5.8.1

> <Gold.Id.Protein>
6NUR|6NUR_protein|mol2

> <Gold.PLP.Fitness>
46.4713

> <Gold.PLP.PLP>
-39.0258

> <Gold.PLP.part.hbond>
-2.9541

> <Gold.PLP.part.metal>
0.0000

> <Gold.PLP.part.buried>
-5.5217

> <Gold.PLP.part.nonpolar>
-29.8466

> <Gold.PLP.part.repulsive>
0.0585

> <Gold.PLP.ligand.clash>
0.0000

> <Gold.PLP.ligand.torsion>
0.6419

> <Gold.PLP.Chemscore.Hbond>
2.7840

> <Gold.PLP.Chemscore.CHOScore>
0.0000

> <Gold.PLP.Chemscore.Metal>
0.0000

> <Gold.Chemscore.Hbonds>
donor molecule, donor type, donor heavy atom, donor atom, acceptor molecule, acceptor atom, score
      L1  H    22    47       P1  7948  1.00
      P1  H  7997  8009       L1    12  1.00
      P1  H 10752 10764       L1    14  0.59

> <Gold.PLP.Chemscore.Internal.Correction>
0.3774

> <Gold.Rescore>
     Score         DG    S(hbond)    S(metal)    S(lipo)     H(rot)  DE(clash)    DE(int)     intcor
     20.67     -21.29       2.66        0.00     103.66       2.03       0.04       0.58       ----

> <Gold.Chemscore.Fitness>
20.6725

> <Gold.Chemscore.DG>
-21.2914

> <Gold.Chemscore.ZeroCoef>
-5.4800

> <Gold.Chemscore.Hbond>
2.6584

> <Gold.Chemscore.Metal>
0.0000

> <Gold.Chemscore.Lipo>
103.6597

> <Gold.Chemscore.Internal_Hbond>
0.0000

> <Gold.Chemscore.DEClash>
0.0373

> <Gold.Chemscore.DEInternal>
0.5815

> <Gold.Chemscore.Rot>
2.0297

> <Gold.Chemscore.Internal.Correction>
   9.000000E+99

> <Gold.Chemscore.Hbonds>
donor molecule, donor type, donor heavy atom, donor atom, acceptor molecule, acceptor atom, score
      L1  H    22    47       P1  7948  1.00
      P1  H  7997  8009       L1    12  0.64
      P1  H 10752 10764       L1    14  0.26

> <Gold.Chemscore.Hbond.Weighted>
-8.8792

> <Gold.Chemscore.Metal.Weighted>
-0.0000

> <Gold.Chemscore.Lipo.Weighted>
-12.1282

> <Gold.Chemscore.Internal_Hbond.Weighted>
0.0000

> <Gold.Chemscore.DEClash.Weighted>
0.0373

> <Gold.Chemscore.DEInternal.Weighted>
0.5815

> <Gold.Chemscore.Rot.Weighted>
5.1960

> <Gold.Chemscore.Internal.Correction.Weighted>
   9.000000E+99

> <Gold.Protein.RotatedTorsions>
[ 6907 6896 6895 6894 ] final   15.72 input  -60.11 | X-H torsion
[ 7974 7965 7964 7962 ] final  148.06 input  175.53 | X-H torsion
[ 8008 7997 7996 7995 ] final -155.10 input   59.86 | X-H torsion
[ 10167 10162 10161 10158 ] final  -88.14 input  -65.29 | X-H torsion
[ 10718 10713 10712 10709 ] final -109.91 input   66.30 | X-H torsion
[ 10763 10752 10751 10750 ] final  -55.13 input  -60.55 | X-H torsion
[ 11005 11000 10999 10996 ] final   41.85 input  -57.11 | X-H torsion

> <Gold.Protein.ActiveResidues>
 VAL166  LYS551  ARG553  GLY616  TRP617  ASP618  TYR619  PRO620  LYS621  CYS622 
 ASP623  PHE694  ASN695  SER759  ASP760  ASP761  ALA762  ILE779  LEU786  VAL792 
 PHE793  MET794  SER795  GLU796  ALA797  LYS798  CYS799  TRP800  GLU811  SER814 

> <Gold.Protein.RotatedAtoms>
  151.8226  135.0647  160.0426 H   0  0  0  0  0  0  0  0  0  0  0  0  # atno 6907 bound_to 6896
  152.2940  133.5584  159.5584 H   0  0  0  0  0  0  0  0  0  0  0  0  # atno 6908 bound_to 6896
  150.7243  134.0304  159.3773 H   0  0  0  0  0  0  0  0  0  0  0  0  # atno 6909 bound_to 6896
  144.8543  139.6107  143.5960 H   0  0  0  0  0  0  0  0  0  0  0  0  # atno 7974 bound_to 7965
  155.6966  140.0762  157.2427 H   0  0  0  0  0  0  0  0  0  0  0  0  # atno 8008 bound_to 7997
  154.4080  140.1655  156.2198 H   0  0  0  0  0  0  0  0  0  0  0  0  # atno 8009 bound_to 7997
  155.9405  140.3385  155.6326 H   0  0  0  0  0  0  0  0  0  0  0  0  # atno 8010 bound_to 7997
  140.3775  143.2764  151.9424 H   0  0  0  0  0  0  0  0  0  0  0  0  # atno 10167 bound_to 10162
  156.0562  130.5788  150.8165 H   0  0  0  0  0  0  0  0  0  0  0  0  # atno 10718 bound_to 10713
  154.1858  135.6435  153.5046 H   0  0  0  0  0  0  0  0  0  0  0  0  # atno 10763 bound_to 10752
  153.0047  135.5417  154.6466 H   0  0  0  0  0  0  0  0  0  0  0  0  # atno 10764 bound_to 10752
  154.5842  135.2928  155.0674 H   0  0  0  0  0  0  0  0  0  0  0  0  # atno 10765 bound_to 10752
  140.1795  134.4121  155.8208 H   0  0  0  0  0  0  0  0  0  0  0  0  # atno 11005 bound_to 11000
  146.2810  139.6877  142.9229 LP  0  0  0  0  0  0  0  0  0  0  0  0  # atno 17320 bound_to 7965
  145.4438  141.0424  143.2842 LP  0  0  0  0  0  0  0  0  0  0  0  0  # atno 17321 bound_to 7965
  139.4798  144.5849  151.7870 LP  0  0  0  0  0  0  0  0  0  0  0  0  # atno 17342 bound_to 10162
  140.4971  144.1225  150.5962 LP  0  0  0  0  0  0  0  0  0  0  0  0  # atno 17343 bound_to 10162
  157.5534  131.0944  150.9663 LP  0  0  0  0  0  0  0  0  0  0  0  0  # atno 17370 bound_to 10713
  156.9918  130.5566  149.5304 LP  0  0  0  0  0  0  0  0  0  0  0  0  # atno 17371 bound_to 10713
  141.2222  133.6994  156.7906 LP  0  0  0  0  0  0  0  0  0  0  0  0  # atno 17394 bound_to 11000
  140.2284  134.8705  157.3450 LP  0  0  0  0  0  0  0  0  0  0  0  0  # atno 17395 bound_to 11000

$$$$
