AV-unprocessed.smi:3011|AV-procd|sdf|11457|dock9
  -GOLD-   2272016393D 1   1.00000     0.00000
 Structure written by MMmdl.
 46 48  0  0  0  0  0  0  0  0  1 V2000
  155.1671  139.4221  160.8262 C   0  0  0  0  0  0  0  0  0  0  0  0
  154.2795  139.8272  159.7954 O   0  0  0  0  0  0  0  0  0  0  0  0
  153.5547  140.9881  159.9728 C   0  0  0  0  0  0  0  0  0  0  0  0
  153.6432  141.8038  161.1291 C   0  0  0  0  0  0  0  0  0  0  0  0
  152.8662  142.9715  161.2395 C   0  0  0  0  0  0  0  0  0  0  0  0
  151.9950  143.3376  160.1991 C   0  0  0  0  0  0  0  0  0  0  0  0
  151.9000  142.5361  159.0470 C   0  0  0  0  0  0  0  0  0  0  0  0
  152.6778  141.3576  158.9276 C   0  0  0  0  0  0  0  0  0  0  0  0
  152.6408  140.5259  157.8306 O   0  0  0  0  0  0  0  0  0  0  0  0
  151.5648  140.6484  156.9111 C   0  0  0  0  0  0  0  0  0  0  0  0
  151.8033  139.6591  155.7620 C   0  0  0  0  0  0  0  0  0  0  0  0
  150.5495  139.1876  155.1881 N   0  0  0  0  0  0  0  0  0  0  0  0
  150.1391  137.9104  154.9712 C   0  0  0  0  0  0  0  0  0  0  0  0
  150.9867  136.7100  155.3129 C   0  0  2  0  0  0  0  0  0  0  0  0
  150.3663  135.4016  154.8039 C   0  0  0  0  0  0  0  0  0  0  0  0
  151.1602  136.6612  156.7612 N   0  0  0  0  0  0  0  0  0  0  0  0
  152.3485  136.5819  157.3730 C   0  0  0  0  0  0  0  0  0  0  0  0
  153.4162  136.5444  156.7668 O   0  0  0  0  0  0  0  0  0  0  0  0
  148.9273  137.7821  154.4238 N   0  0  0  0  0  0  0  0  0  0  0  0
  148.5270  139.0909  154.2476 C   0  0  0  0  0  0  0  0  0  0  0  0
  147.3390  139.6213  153.6956 C   0  0  0  0  0  0  0  0  0  0  0  0
  147.1543  141.0164  153.6064 C   0  0  0  0  0  0  0  0  0  0  0  0
  148.1524  141.8988  154.0677 C   0  0  0  0  0  0  0  0  0  0  0  0
  149.3414  141.3905  154.6249 C   0  0  0  0  0  0  0  0  0  0  0  0
  149.5208  139.9966  154.7124 C   0  0  0  0  0  0  0  0  0  0  0  0
  155.6428  138.4840  160.5404 H   0  0  0  0  0  0  0  0  0  0  0  0
  154.6385  139.2503  161.7648 H   0  0  0  0  0  0  0  0  0  0  0  0
  155.9565  140.1582  160.9835 H   0  0  0  0  0  0  0  0  0  0  0  0
  154.3009  141.5545  161.9477 H   0  0  0  0  0  0  0  0  0  0  0  0
  152.9397  143.5869  162.1241 H   0  0  0  0  0  0  0  0  0  0  0  0
  151.3994  144.2345  160.2837 H   0  0  0  0  0  0  0  0  0  0  0  0
  151.2255  142.8483  158.2645 H   0  0  0  0  0  0  0  0  0  0  0  0
  150.6169  140.4217  157.4011 H   0  0  0  0  0  0  0  0  0  0  0  0
  151.5108  141.6656  156.5214 H   0  0  0  0  0  0  0  0  0  0  0  0
  152.4271  140.0968  154.9831 H   0  0  0  0  0  0  0  0  0  0  0  0
  152.3586  138.7975  156.1331 H   0  0  0  0  0  0  0  0  0  0  0  0
  151.9709  136.7951  154.8547 H   0  0  0  0  0  0  0  0  0  0  0  0
  150.2388  135.4261  153.7213 H   0  0  0  0  0  0  0  0  0  0  0  0
  149.3868  135.2237  155.2492 H   0  0  0  0  0  0  0  0  0  0  0  0
  151.0007  134.5474  155.0425 H   0  0  0  0  0  0  0  0  0  0  0  0
  150.3277  136.7166  157.3301 H   0  0  0  0  0  0  0  0  0  0  0  0
  152.2454  136.5573  158.4695 H   0  0  0  0  0  0  0  0  0  0  0  0
  146.5704  138.9531  153.3362 H   0  0  0  0  0  0  0  0  0  0  0  0
  146.2439  141.4115  153.1801 H   0  0  0  0  0  0  0  0  0  0  0  0
  148.0055  142.9664  153.9931 H   0  0  0  0  0  0  0  0  0  0  0  0
  150.1089  142.0650  154.9740 H   0  0  0  0  0  0  0  0  0  0  0  0
  1  2  1  0  0  0  0
  1 26  1  0  0  0  0
  1 27  1  0  0  0  0
  1 28  1  0  0  0  0
  2  3  1  0  0  0  0
  3  8  1  0  0  0  0
  3  4  2  0  0  0  0
  4  5  1  0  0  0  0
  4 29  1  0  0  0  0
  5  6  2  0  0  0  0
  5 30  1  0  0  0  0
  6  7  1  0  0  0  0
  6 31  1  0  0  0  0
  7  8  2  0  0  0  0
  7 32  1  0  0  0  0
  8  9  1  0  0  0  0
  9 10  1  0  0  0  0
 10 11  1  0  0  0  0
 10 33  1  0  0  0  0
 10 34  1  0  0  0  0
 11 12  1  0  0  0  0
 11 35  1  0  0  0  0
 11 36  1  0  0  0  0
 12 25  1  0  0  0  0
 12 13  1  0  0  0  0
 13 14  1  0  0  0  0
 13 19  2  0  0  0  0
 14 15  1  0  0  0  0
 14 16  1  0  0  0  0
 14 37  1  0  0  0  0
 15 38  1  0  0  0  0
 15 39  1  0  0  0  0
 15 40  1  0  0  0  0
 16 17  1  0  0  0  0
 16 41  1  0  0  0  0
 17 18  2  0  0  0  0
 17 42  1  0  0  0  0
 19 20  1  0  0  0  0
 20 25  2  0  0  0  0
 20 21  1  0  0  0  0
 21 22  2  0  0  0  0
 21 43  1  0  0  0  0
 22 23  1  0  0  0  0
 22 44  1  0  0  0  0
 23 24  2  0  0  0  0
 23 45  1  0  0  0  0
 24 25  1  0  0  0  0
 24 46  1  0  0  0  0
M  END
> <s_m_source_file>
AV-unprocessed.smi

> <i_m_source_file_index>
3011

> <i_lp_mmshare_version>
43012

> <i_f3d_flags>
0

> <s_epik_input>
W0NIM11PYzFbY0hdW2NIXVtjSF1bY0hdYzFPW0NIMl1bQ0gyXW4oYyhuMilbQ0BIXShbQ0gzXSlbTkhdW0NIXT1PKWMoYzIzKVtjSF1bY0hdW2NIXVtjSF0z

> <s_epik_cmdline>
J2VwaWtfcHl0aG9uJywgJy1waCcsICc3LjAnLCAnLXRuJywgJzgnLCAnLW1hJywgJzIwMCcsICctbWV0YWxfYmluZGluZycsICctaW1hZScsICc8aW5maWxlLm1hZT4nLCAnLW9tYWUnLCAnPG91dGZpbGUubWFlPic=

> <r_lp_tautomer_probability>
1

> <r_epik_Ionization_Penalty>
0.0924205

> <r_epik_Ionization_Penalty_Charging>
0

> <r_epik_Ionization_Penalty_Neutral>
0.0924205

> <r_epik_State_Penalty>
0.0827154

> <r_epik_Charging_Adjusted_Penalty>
0.0827154

> <i_epik_Tot_Q>
0

> <i_epik_Tot_abs_Q>
0

> <r_epik_Metal_State_Penalty>
0.071464

> <b_epik_Metal_Only>
0

> <s_lp_Force_Field>
OPLS_2005

> <r_lp_Energy>
15.3464

> <b_lp_Chiralities_Consistent>
1

> <s_lp_Variant>
AV-unprocessed.smi:3011-1

> <Gold.Version>
5.8.1

> <Gold.Id.Protein>
6NUR|6NUR_protein|mol2

> <Gold.PLP.Fitness>
51.9354

> <Gold.PLP.PLP>
-47.6413

> <Gold.PLP.part.hbond>
-2.0000

> <Gold.PLP.part.metal>
0.0000

> <Gold.PLP.part.buried>
-2.8159

> <Gold.PLP.part.nonpolar>
-43.6419

> <Gold.PLP.part.repulsive>
1.4366

> <Gold.PLP.ligand.clash>
0.0000

> <Gold.PLP.ligand.torsion>
0.5824

> <Gold.PLP.Chemscore.Hbond>
1.7637

> <Gold.PLP.Chemscore.CHOScore>
0.0000

> <Gold.PLP.Chemscore.Metal>
0.0000

> <Gold.Chemscore.Hbonds>
donor molecule, donor type, donor heavy atom, donor atom, acceptor molecule, acceptor atom, score
      P1  H  7997  8009       L1     9  0.66
      P1  H 10752 10765       L1    18  1.00

> <Gold.PLP.Chemscore.Internal.Correction>
0.1679

> <Gold.Rescore>
     Score         DG    S(hbond)    S(metal)    S(lipo)     H(rot)  DE(clash)    DE(int)     intcor
     19.00     -19.68       1.57        0.00     133.22       2.59       0.17       0.52       ----

> <Gold.Chemscore.Fitness>
19.0016

> <Gold.Chemscore.DG>
-19.6840

> <Gold.Chemscore.ZeroCoef>
-5.4800

> <Gold.Chemscore.Hbond>
1.5721

> <Gold.Chemscore.Metal>
0.0000

> <Gold.Chemscore.Lipo>
133.2241

> <Gold.Chemscore.Internal_Hbond>
0.0000

> <Gold.Chemscore.DEClash>
0.1661

> <Gold.Chemscore.DEInternal>
0.5163

> <Gold.Chemscore.Rot>
2.5914

> <Gold.Chemscore.Internal.Correction>
   9.000000E+99

> <Gold.Chemscore.Hbonds>
donor molecule, donor type, donor heavy atom, donor atom, acceptor molecule, acceptor atom, score
      P1  H  7997  8009       L1     9  0.50
      P1  H 10752 10765       L1    18  0.93

> <Gold.Chemscore.Hbond.Weighted>
-5.2508

> <Gold.Chemscore.Metal.Weighted>
-0.0000

> <Gold.Chemscore.Lipo.Weighted>
-15.5872

> <Gold.Chemscore.Internal_Hbond.Weighted>
0.0000

> <Gold.Chemscore.DEClash.Weighted>
0.1661

> <Gold.Chemscore.DEInternal.Weighted>
0.5163

> <Gold.Chemscore.Rot.Weighted>
6.6340

> <Gold.Chemscore.Internal.Correction.Weighted>
   9.000000E+99

> <Gold.Protein.RotatedTorsions>
[ 6907 6896 6895 6894 ] final  149.90 input  -60.11 | X-H torsion
[ 7974 7965 7964 7962 ] final  -94.05 input  175.53 | X-H torsion
[ 8008 7997 7996 7995 ] final  169.94 input   59.86 | X-H torsion
[ 10167 10162 10161 10158 ] final   -3.53 input  -65.29 | X-H torsion
[ 10718 10713 10712 10709 ] final  -41.66 input   66.30 | X-H torsion
[ 10763 10752 10751 10750 ] final -117.59 input  -60.55 | X-H torsion
[ 11005 11000 10999 10996 ] final -178.16 input  -57.11 | X-H torsion

> <Gold.Protein.ActiveResidues>
 VAL166  LYS551  ARG553  GLY616  TRP617  ASP618  TYR619  PRO620  LYS621  CYS622 
 ASP623  PHE694  ASN695  SER759  ASP760  ASP761  ALA762  ILE779  LEU786  VAL792 
 PHE793  MET794  SER795  GLU796  ALA797  LYS798  CYS799  TRP800  GLU811  SER814 

> <Gold.Protein.RotatedAtoms>
  152.1217  133.4357  159.4678 H   0  0  0  0  0  0  0  0  0  0  0  0  # atno 6907 bound_to 6896
  150.6872  134.2527  159.4526 H   0  0  0  0  0  0  0  0  0  0  0  0  # atno 6908 bound_to 6896
  152.0404  134.9714  160.0624 H   0  0  0  0  0  0  0  0  0  0  0  0  # atno 6909 bound_to 6896
  145.3784  140.9514  143.2407 H   0  0  0  0  0  0  0  0  0  0  0  0  # atno 7974 bound_to 7965
  156.1411  140.1551  156.8918 H   0  0  0  0  0  0  0  0  0  0  0  0  # atno 8008 bound_to 7997
  154.4988  140.0831  156.7793 H   0  0  0  0  0  0  0  0  0  0  0  0  # atno 8009 bound_to 7997
  155.4076  140.3417  155.4263 H   0  0  0  0  0  0  0  0  0  0  0  0  # atno 8010 bound_to 7997
  140.6893  143.6529  150.8334 H   0  0  0  0  0  0  0  0  0  0  0  0  # atno 10167 bound_to 10162
  156.2680  130.4203  149.8469 H   0  0  0  0  0  0  0  0  0  0  0  0  # atno 10718 bound_to 10713
  154.8560  135.4304  154.2004 H   0  0  0  0  0  0  0  0  0  0  0  0  # atno 10763 bound_to 10752
  153.3052  135.6972  153.7172 H   0  0  0  0  0  0  0  0  0  0  0  0  # atno 10764 bound_to 10752
  153.6287  135.3489  155.3009 H   0  0  0  0  0  0  0  0  0  0  0  0  # atno 10765 bound_to 10752
  140.4328  134.6503  157.4720 H   0  0  0  0  0  0  0  0  0  0  0  0  # atno 11005 bound_to 11000
  144.8525  139.5300  143.6850 LP  0  0  0  0  0  0  0  0  0  0  0  0  # atno 17320 bound_to 7965
  146.2853  139.6987  142.9200 LP  0  0  0  0  0  0  0  0  0  0  0  0  # atno 17321 bound_to 7965
  140.0240  143.5513  152.2788 LP  0  0  0  0  0  0  0  0  0  0  0  0  # atno 17342 bound_to 10162
  139.6281  144.7640  151.2595 LP  0  0  0  0  0  0  0  0  0  0  0  0  # atno 17343 bound_to 10162
  156.5961  130.8527  151.3420 LP  0  0  0  0  0  0  0  0  0  0  0  0  # atno 17370 bound_to 10713
  157.7274  130.9642  150.1697 LP  0  0  0  0  0  0  0  0  0  0  0  0  # atno 17371 bound_to 10713
  140.0122  134.6673  155.9363 LP  0  0  0  0  0  0  0  0  0  0  0  0  # atno 17394 bound_to 11000
  141.1738  133.6539  156.4751 LP  0  0  0  0  0  0  0  0  0  0  0  0  # atno 17395 bound_to 11000

$$$$
