AV-unprocessed.smi:1879|AV-procd|sdf|7633|dock2
  -GOLD-   22720 9353D 1   1.00000     0.00000
 Structure written by MMmdl.
 47 49  0  0  0  0  0  0  0  0  2 V2000
  147.2651  132.0710  153.0722 O   0  0  0  0  0  0  0  0  0  0  0  0
  147.8038  133.1564  152.8556 C   0  0  0  0  0  0  0  0  0  0  0  0
  148.8910  133.6217  153.4939 N   0  0  0  0  0  0  0  0  0  0  0  0
  149.6378  132.9984  154.5346 C   0  0  0  0  0  0  0  0  0  0  0  0
  149.8998  131.6037  154.5247 C   0  0  0  0  0  0  0  0  0  0  0  0
  150.6206  131.0155  155.5809 C   0  0  0  0  0  0  0  0  0  0  0  0
  151.0743  131.8307  156.6314 C   0  0  0  0  0  0  0  0  0  0  0  0
  150.8285  133.1567  156.6020 N   0  3  0  0  0  0  0  0  0  0  0  0
  150.1542  133.7844  155.6061 C   0  0  0  0  0  0  0  0  0  0  0  0
  149.9889  135.1851  155.7022 N   0  0  0  0  0  0  0  0  0  0  0  0
  150.6578  136.0738  154.7589 C   0  0  0  0  0  0  0  0  0  0  0  0
  149.9698  137.4251  154.9322 C   0  0  0  0  0  0  0  0  0  0  0  0
  148.5268  137.0218  155.2204 C   0  0  0  0  0  0  0  0  0  0  0  0
  148.6669  135.7192  156.0151 C   0  0  0  0  0  0  0  0  0  0  0  0
  147.3559  134.0405  151.9527 N   0  0  0  0  0  0  0  0  0  0  0  0
  146.1927  133.8504  151.0909 C   0  0  2  0  0  0  0  0  0  0  0  0
  144.9307  133.6851  151.9591 C   0  0  0  0  0  0  0  0  0  0  0  0
  143.6846  133.4229  151.0978 C   0  0  0  0  0  0  0  0  0  0  0  0
  143.8882  132.1999  150.1872 C   0  0  1  0  0  0  0  0  0  0  0  0
  142.7544  132.0295  149.3634 O   0  0  0  0  0  0  0  0  0  0  0  0
  145.1412  132.3659  149.3105 C   0  0  0  0  0  0  0  0  0  0  0  0
  146.3886  132.6275  150.1702 C   0  0  0  0  0  0  0  0  0  0  0  0
  149.1585  134.5701  153.2757 H   0  0  0  0  0  0  0  0  0  0  0  0
  149.5638  130.9714  153.7171 H   0  0  0  0  0  0  0  0  0  0  0  0
  150.8200  129.9538  155.5841 H   0  0  0  0  0  0  0  0  0  0  0  0
  151.6308  131.4682  157.4836 H   0  0  0  0  0  0  0  0  0  0  0  0
  151.7279  136.1355  154.9588 H   0  0  0  0  0  0  0  0  0  0  0  0
  150.5174  135.7224  153.7359 H   0  0  0  0  0  0  0  0  0  0  0  0
  150.3881  137.9510  155.7918 H   0  0  0  0  0  0  0  0  0  0  0  0
  150.0690  138.0687  154.0577 H   0  0  0  0  0  0  0  0  0  0  0  0
  147.9685  137.7887  155.7582 H   0  0  0  0  0  0  0  0  0  0  0  0
  148.0078  136.8252  154.2812 H   0  0  0  0  0  0  0  0  0  0  0  0
  147.8695  135.0171  155.7678 H   0  0  0  0  0  0  0  0  0  0  0  0
  148.6178  135.9289  157.0839 H   0  0  0  0  0  0  0  0  0  0  0  0
  147.8576  134.9101  151.8474 H   0  0  0  0  0  0  0  0  0  0  0  0
  146.0619  134.7401  150.4715 H   0  0  0  0  0  0  0  0  0  0  0  0
  145.0665  132.8571  152.6565 H   0  0  0  0  0  0  0  0  0  0  0  0
  144.7748  134.5776  152.5662 H   0  0  0  0  0  0  0  0  0  0  0  0
  142.8173  133.2710  151.7413 H   0  0  0  0  0  0  0  0  0  0  0  0
  143.4714  134.3058  150.4933 H   0  0  0  0  0  0  0  0  0  0  0  0
  143.9927  131.3050  150.8020 H   0  0  0  0  0  0  0  0  0  0  0  0
  142.2484  132.8276  149.3790 H   0  0  0  0  0  0  0  0  0  0  0  0
  145.2935  131.4743  148.7009 H   0  0  0  0  0  0  0  0  0  0  0  0
  145.0018  133.1958  148.6161 H   0  0  0  0  0  0  0  0  0  0  0  0
  147.2517  132.7775  149.5206 H   0  0  0  0  0  0  0  0  0  0  0  0
  146.6048  131.7431  150.7711 H   0  0  0  0  0  0  0  0  0  0  0  0
  151.1807  133.7235  157.3735 H   0  0  0  0  0  0  0  0  0  0  0  0
  1  2  2  0  0  0  0
  2  3  1  0  0  0  0
  2 15  1  0  0  0  0
  3  4  1  0  0  0  0
  3 23  1  0  0  0  0
  4  9  1  0  0  0  0
  4  5  2  0  0  0  0
  5  6  1  0  0  0  0
  5 24  1  0  0  0  0
  6  7  2  0  0  0  0
  6 25  1  0  0  0  0
  7  8  1  0  0  0  0
  7 26  1  0  0  0  0
  8  9  2  0  0  0  0
  8 47  1  0  0  0  0
  9 10  1  0  0  0  0
 10 14  1  0  0  0  0
 10 11  1  0  0  0  0
 11 12  1  0  0  0  0
 11 27  1  0  0  0  0
 11 28  1  0  0  0  0
 12 13  1  0  0  0  0
 12 29  1  0  0  0  0
 12 30  1  0  0  0  0
 13 14  1  0  0  0  0
 13 31  1  0  0  0  0
 13 32  1  0  0  0  0
 14 33  1  0  0  0  0
 14 34  1  0  0  0  0
 15 16  1  0  0  0  0
 15 35  1  0  0  0  0
 16 22  1  0  0  0  0
 16 17  1  0  0  0  0
 16 36  1  0  0  0  0
 17 18  1  0  0  0  0
 17 37  1  0  0  0  0
 17 38  1  0  0  0  0
 18 19  1  0  0  0  0
 18 39  1  0  0  0  0
 18 40  1  0  0  0  0
 19 20  1  0  0  0  0
 19 21  1  0  0  0  0
 19 41  1  0  0  0  0
 20 42  1  0  0  0  0
 21 22  1  0  0  0  0
 21 43  1  0  0  0  0
 21 44  1  0  0  0  0
 22 45  1  0  0  0  0
 22 46  1  0  0  0  0
M  CHG  1   8   1
M  END
> <s_m_source_file>
AV-unprocessed.smi

> <i_m_source_file_index>
1879

> <i_lp_mmshare_version>
43012

> <i_f3d_flags>
0

> <s_epik_input>
W0NIMl0xW0NIMl1bQ0BIXShbT0hdKVtDSDJdW0NIMl1bQ0BIXTFbTkhdQyg9TylbTkhdYzJbY0hdW2NIXVtjSF1uYzJOM1tDSDJdW0NIMl1bQ0gyXVtDSDJdMw==

> <s_epik_cmdline>
J2VwaWtfcHl0aG9uJywgJy1waCcsICc3LjAnLCAnLXRuJywgJzgnLCAnLW1hJywgJzIwMCcsICctbWV0YWxfYmluZGluZycsICctaW1hZScsICc8aW5maWxlLm1hZT4nLCAnLW9tYWUnLCAnPG91dGZpbGUubWFlPic=

> <r_lp_tautomer_probability>
0.999994

> <r_epik_Ionization_Penalty>
1.08454

> <r_epik_Ionization_Penalty_Charging>
1.08452

> <r_epik_Ionization_Penalty_Neutral>
2.17987e-05

> <r_epik_State_Penalty>
1.14025

> <r_epik_Charging_Adjusted_Penalty>
2.22477

> <i_epik_Tot_Q>
1

> <i_epik_Tot_abs_Q>
1

> <r_epik_Metal_State_Penalty>
1.22973

> <b_epik_Metal_Only>
0

> <s_lp_Force_Field>
OPLS_2005

> <r_lp_Energy>
43.9381

> <b_lp_Chiralities_Consistent>
1

> <s_lp_Variant>
AV-unprocessed.smi:1879-3

> <Gold.Version>
5.8.1

> <Gold.Id.Protein>
6NUR|6NUR_protein|mol2

> <Gold.PLP.Fitness>
46.1357

> <Gold.PLP.PLP>
-37.0983

> <Gold.PLP.part.hbond>
-4.9952

> <Gold.PLP.part.metal>
0.0000

> <Gold.PLP.part.buried>
-1.9734

> <Gold.PLP.part.nonpolar>
-29.4760

> <Gold.PLP.part.repulsive>
0.3381

> <Gold.PLP.ligand.clash>
0.0000

> <Gold.PLP.ligand.torsion>
0.4832

> <Gold.PLP.Chemscore.Hbond>
3.2094

> <Gold.PLP.Chemscore.CHOScore>
0.0000

> <Gold.PLP.Chemscore.Metal>
0.0000

> <Gold.Chemscore.Hbonds>
donor molecule, donor type, donor heavy atom, donor atom, acceptor molecule, acceptor atom, score
      L1  H     3    23       P1  7948  0.37
      L1  H    15    35       P1  7948  1.00
      L1  H    20    42       P1 10186  1.00
      P1  H 10785 10796       L1    20  0.84

> <Gold.PLP.Chemscore.Internal.Correction>
0.3756

> <Gold.Rescore>
     Score         DG    S(hbond)    S(metal)    S(lipo)     H(rot)  DE(clash)    DE(int)     intcor
     15.42     -17.76       2.04        0.00      83.61       1.69       0.02       2.32       ----

> <Gold.Chemscore.Fitness>
15.4181

> <Gold.Chemscore.DG>
-17.7570

> <Gold.Chemscore.ZeroCoef>
-5.4800

> <Gold.Chemscore.Hbond>
2.0446

> <Gold.Chemscore.Metal>
0.0000

> <Gold.Chemscore.Lipo>
83.6056

> <Gold.Chemscore.Internal_Hbond>
0.0000

> <Gold.Chemscore.DEClash>
0.0185

> <Gold.Chemscore.DEInternal>
2.3203

> <Gold.Chemscore.Rot>
1.6929

> <Gold.Chemscore.Internal.Correction>
   9.000000E+99

> <Gold.Chemscore.Hbonds>
donor molecule, donor type, donor heavy atom, donor atom, acceptor molecule, acceptor atom, score
      L1  H     3    23       P1  7948  0.02
      L1  H    15    35       P1  7948  0.45
      L1  H    20    42       P1 10186  0.94
      P1  H 10785 10796       L1    20  0.14

> <Gold.Chemscore.Hbond.Weighted>
-6.8288

> <Gold.Chemscore.Metal.Weighted>
-0.0000

> <Gold.Chemscore.Lipo.Weighted>
-9.7819

> <Gold.Chemscore.Internal_Hbond.Weighted>
0.0000

> <Gold.Chemscore.DEClash.Weighted>
0.0185

> <Gold.Chemscore.DEInternal.Weighted>
2.3203

> <Gold.Chemscore.Rot.Weighted>
4.3338

> <Gold.Chemscore.Internal.Correction.Weighted>
   9.000000E+99

> <Gold.Protein.RotatedTorsions>
[ 6907 6896 6895 6894 ] final  117.16 input  -60.11 | X-H torsion
[ 7974 7965 7964 7962 ] final   61.14 input  175.53 | X-H torsion
[ 8008 7997 7996 7995 ] final  138.77 input   59.86 | X-H torsion
[ 10167 10162 10161 10158 ] final -111.58 input  -65.29 | X-H torsion
[ 10718 10713 10712 10709 ] final  116.55 input   66.30 | X-H torsion
[ 10763 10752 10751 10750 ] final  -55.53 input  -60.55 | X-H torsion
[ 11005 11000 10999 10996 ] final   91.76 input  -57.11 | X-H torsion

> <Gold.Protein.ActiveResidues>
 VAL166  LYS551  ARG553  GLY616  TRP617  ASP618  TYR619  PRO620  LYS621  CYS622 
 ASP623  PHE694  ASN695  SER759  ASP760  ASP761  ALA762  ILE779  LEU786  VAL792 
 PHE793  MET794  SER795  GLU796  ALA797  LYS798  CYS799  TRP800  GLU811  SER814 

> <Gold.Protein.RotatedAtoms>
  152.4630  133.7862  159.6877 H   0  0  0  0  0  0  0  0  0  0  0  0  # atno 6907 bound_to 6896
  150.8582  133.7674  159.3008 H   0  0  0  0  0  0  0  0  0  0  0  0  # atno 6908 bound_to 6896
  151.5247  135.1070  159.9939 H   0  0  0  0  0  0  0  0  0  0  0  0  # atno 6909 bound_to 6896
  145.8882  139.3491  143.0665 H   0  0  0  0  0  0  0  0  0  0  0  0  # atno 7974 bound_to 7965
  156.2995  140.2385  156.4128 H   0  0  0  0  0  0  0  0  0  0  0  0  # atno 8008 bound_to 7997
  154.8426  140.0427  157.1571 H   0  0  0  0  0  0  0  0  0  0  0  0  # atno 8009 bound_to 7997
  154.9086  140.2987  155.5282 H   0  0  0  0  0  0  0  0  0  0  0  0  # atno 8010 bound_to 7997
  140.1320  143.4352  152.1621 H   0  0  0  0  0  0  0  0  0  0  0  0  # atno 10167 bound_to 10162
  157.6153  131.1026  150.7488 H   0  0  0  0  0  0  0  0  0  0  0  0  # atno 10718 bound_to 10713
  154.1923  135.6425  153.5063 H   0  0  0  0  0  0  0  0  0  0  0  0  # atno 10763 bound_to 10752
  153.0032  135.5431  154.6402 H   0  0  0  0  0  0  0  0  0  0  0  0  # atno 10764 bound_to 10752
  154.5794  135.2924  155.0721 H   0  0  0  0  0  0  0  0  0  0  0  0  # atno 10765 bound_to 10752
  139.8834  134.8693  156.3474 H   0  0  0  0  0  0  0  0  0  0  0  0  # atno 11005 bound_to 11000
  145.8941  140.9285  143.0537 LP  0  0  0  0  0  0  0  0  0  0  0  0  # atno 17320 bound_to 7965
  144.6729  140.0945  143.7463 LP  0  0  0  0  0  0  0  0  0  0  0  0  # atno 17321 bound_to 7965
  139.5515  144.7341  151.4422 LP  0  0  0  0  0  0  0  0  0  0  0  0  # atno 17342 bound_to 10162
  140.6811  143.8079  150.7123 LP  0  0  0  0  0  0  0  0  0  0  0  0  # atno 17343 bound_to 10162
  156.7857  130.4873  149.5393 LP  0  0  0  0  0  0  0  0  0  0  0  0  # atno 17370 bound_to 10713
  156.1273  130.6153  151.0282 LP  0  0  0  0  0  0  0  0  0  0  0  0  # atno 17371 bound_to 10713
  140.9617  133.7384  156.0411 LP  0  0  0  0  0  0  0  0  0  0  0  0  # atno 17394 bound_to 11000
  140.7981  134.3540  157.5447 LP  0  0  0  0  0  0  0  0  0  0  0  0  # atno 17395 bound_to 11000

$$$$
