AV-unprocessed.smi:1697|AV-procd|sdf|6804|dock2
  -GOLD-   22720 7573D 1   1.00000     0.00000
 Structure written by MMmdl.
 54 56  0  0  0  0  0  0  0  0  2 V2000
  144.3920  134.3520  150.5405 C   0  0  0  0  0  0  0  0  0  0  0  0
  145.2511  135.5817  150.8662 C   0  0  0  0  0  0  0  0  0  0  0  0
  144.9206  136.1494  152.1279 O   0  0  0  0  0  0  0  0  0  0  0  0
  145.8472  137.1059  152.6273 C   0  0  2  0  0  0  0  0  0  0  0  0
  145.2060  137.8275  153.8208 C   0  0  0  0  0  0  0  0  0  0  0  0
  146.1037  138.9720  154.3206 C   0  0  0  0  0  0  0  0  0  0  0  0
  146.4024  139.9355  153.2295 N   0  3  1  0  0  0  0  0  0  0  0  0
  147.1531  141.1234  153.7114 C   0  0  0  0  0  0  0  0  0  0  0  0
  148.5266  140.7479  154.3004 C   0  0  1  0  0  0  0  0  0  0  0  0
  149.5263  141.0124  153.3344 O   0  0  0  0  0  0  0  0  0  0  0  0
  148.8402  141.5372  155.5858 C   0  0  0  0  0  0  0  0  0  0  0  0
  150.0007  141.0128  156.2824 N   0  0  0  0  0  0  0  0  0  0  0  0
  150.6240  139.8384  156.0655 C   0  0  0  0  0  0  0  0  0  0  0  0
  151.6734  139.5561  156.8321 N   0  0  0  0  0  0  0  0  0  0  0  0
  151.7408  140.6792  157.6389 C   0  0  0  0  0  0  0  0  0  0  0  0
  152.6371  141.0105  158.6784 C   0  0  0  0  0  0  0  0  0  0  0  0
  152.5147  142.2317  159.3792 C   0  0  0  0  0  0  0  0  0  0  0  0
  153.4986  142.5461  160.4923 C   0  0  0  0  0  0  0  0  0  0  0  0
  151.4833  143.1448  159.0418 C   0  0  0  0  0  0  0  0  0  0  0  0
  151.3323  144.4624  159.7812 C   0  0  0  0  0  0  0  0  0  0  0  0
  150.5799  142.8299  158.0054 C   0  0  0  0  0  0  0  0  0  0  0  0
  150.7107  141.6106  157.3177 C   0  0  0  0  0  0  0  0  0  0  0  0
  147.0471  139.2641  152.0686 C   0  0  0  0  0  0  0  0  0  0  0  0
  146.1639  138.1293  151.5259 C   0  0  0  0  0  0  0  0  0  0  0  0
  144.7250  133.8841  149.6140 H   0  0  0  0  0  0  0  0  0  0  0  0
  143.3422  134.6152  150.4134 H   0  0  0  0  0  0  0  0  0  0  0  0
  144.4600  133.6061  151.3328 H   0  0  0  0  0  0  0  0  0  0  0  0
  146.2979  135.2801  150.9079 H   0  0  0  0  0  0  0  0  0  0  0  0
  145.1773  136.3315  150.0773 H   0  0  0  0  0  0  0  0  0  0  0  0
  146.7721  136.6326  152.9635 H   0  0  0  0  0  0  0  0  0  0  0  0
  144.2330  138.2275  153.5316 H   0  0  0  0  0  0  0  0  0  0  0  0
  145.0211  137.1183  154.6284 H   0  0  0  0  0  0  0  0  0  0  0  0
  145.5998  139.4872  155.1393 H   0  0  0  0  0  0  0  0  0  0  0  0
  147.0370  138.5730  154.7217 H   0  0  0  0  0  0  0  0  0  0  0  0
  147.3085  141.8271  152.8917 H   0  0  0  0  0  0  0  0  0  0  0  0
  146.5487  141.6510  154.4509 H   0  0  0  0  0  0  0  0  0  0  0  0
  148.5580  139.6841  154.5330 H   0  0  0  0  0  0  0  0  0  0  0  0
  149.5111  140.3256  152.6850 H   0  0  0  0  0  0  0  0  0  0  0  0
  149.0085  142.5915  155.3611 H   0  0  0  0  0  0  0  0  0  0  0  0
  147.9913  141.4950  156.2694 H   0  0  0  0  0  0  0  0  0  0  0  0
  150.2853  139.1490  155.3059 H   0  0  0  0  0  0  0  0  0  0  0  0
  153.4223  140.3148  158.9357 H   0  0  0  0  0  0  0  0  0  0  0  0
  152.9762  142.6572  161.4427 H   0  0  0  0  0  0  0  0  0  0  0  0
  154.0341  143.4716  160.2803 H   0  0  0  0  0  0  0  0  0  0  0  0
  154.2373  141.7525  160.6074 H   0  0  0  0  0  0  0  0  0  0  0  0
  150.4885  145.0380  159.4000 H   0  0  0  0  0  0  0  0  0  0  0  0
  152.2301  145.0700  159.6670 H   0  0  0  0  0  0  0  0  0  0  0  0
  151.1650  144.2873  160.8440 H   0  0  0  0  0  0  0  0  0  0  0  0
  149.7901  143.5160  157.7380 H   0  0  0  0  0  0  0  0  0  0  0  0
  147.2320  139.9783  151.2674 H   0  0  0  0  0  0  0  0  0  0  0  0
  148.0196  138.8698  152.3677 H   0  0  0  0  0  0  0  0  0  0  0  0
  146.6619  137.6423  150.6876 H   0  0  0  0  0  0  0  0  0  0  0  0
  145.2364  138.5469  151.1318 H   0  0  0  0  0  0  0  0  0  0  0  0
  145.5080  140.2813  152.9103 H   0  0  0  0  0  0  0  0  0  0  0  0
  1  2  1  0  0  0  0
  1 25  1  0  0  0  0
  1 26  1  0  0  0  0
  1 27  1  0  0  0  0
  2  3  1  0  0  0  0
  2 28  1  0  0  0  0
  2 29  1  0  0  0  0
  3  4  1  0  0  0  0
  4 24  1  0  0  0  0
  4  5  1  0  0  0  0
  4 30  1  0  0  0  0
  5  6  1  0  0  0  0
  5 31  1  0  0  0  0
  5 32  1  0  0  0  0
  6  7  1  0  0  0  0
  6 33  1  0  0  0  0
  6 34  1  0  0  0  0
  7  8  1  0  0  0  0
  7 23  1  0  0  0  0
  7 54  1  0  0  0  0
  8  9  1  0  0  0  0
  8 35  1  0  0  0  0
  8 36  1  0  0  0  0
  9 10  1  0  0  0  0
  9 11  1  0  0  0  0
  9 37  1  0  0  0  0
 10 38  1  0  0  0  0
 11 12  1  0  0  0  0
 11 39  1  0  0  0  0
 11 40  1  0  0  0  0
 12 22  1  0  0  0  0
 12 13  1  0  0  0  0
 13 14  2  0  0  0  0
 13 41  1  0  0  0  0
 14 15  1  0  0  0  0
 15 22  2  0  0  0  0
 15 16  1  0  0  0  0
 16 17  2  0  0  0  0
 16 42  1  0  0  0  0
 17 18  1  0  0  0  0
 17 19  1  0  0  0  0
 18 43  1  0  0  0  0
 18 44  1  0  0  0  0
 18 45  1  0  0  0  0
 19 20  1  0  0  0  0
 19 21  2  0  0  0  0
 20 46  1  0  0  0  0
 20 47  1  0  0  0  0
 20 48  1  0  0  0  0
 21 22  1  0  0  0  0
 21 49  1  0  0  0  0
 23 24  1  0  0  0  0
 23 50  1  0  0  0  0
 23 51  1  0  0  0  0
 24 52  1  0  0  0  0
 24 53  1  0  0  0  0
M  CHG  1   7   1
M  END
> <s_m_source_file>
AV-unprocessed.smi

> <i_m_source_file_index>
1697

> <i_lp_mmshare_version>
43012

> <i_f3d_flags>
0

> <s_epik_input>
W0NIM11bQ0gyXU9bQ0hdMVtDSDJdW0NIMl1OKFtDSDJdW0NIMl0xKVtDSDJdW0NASF0oW09IXSlbQ0gyXW4oW2NIXW4yKWMoYzIzKVtjSF1jKFtDSDNdKWMoW2NIXTMpW0NIM10=

> <s_epik_cmdline>
J2VwaWtfcHl0aG9uJywgJy1waCcsICc3LjAnLCAnLXRuJywgJzgnLCAnLW1hJywgJzIwMCcsICctbWV0YWxfYmluZGluZycsICctaW1hZScsICc8aW5maWxlLm1hZT4nLCAnLW9tYWUnLCAnPG91dGZpbGUubWFlPic=

> <r_epik_Ionization_Penalty>
0.112476

> <r_epik_Ionization_Penalty_Charging>
0.0244612

> <r_epik_Ionization_Penalty_Neutral>
0.0880147

> <r_epik_State_Penalty>
0.0961447

> <r_epik_Charging_Adjusted_Penalty>
0.120606

> <i_epik_Tot_Q>
1

> <i_epik_Tot_abs_Q>
1

> <r_epik_Metal_State_Penalty>
0.0206204

> <b_epik_Metal_Only>
0

> <s_lp_Force_Field>
OPLS_2005

> <r_lp_Energy>
24.3812

> <b_lp_Chiralities_Consistent>
1

> <s_lp_Variant>
AV-unprocessed.smi:1697-2

> <Gold.Version>
5.8.1

> <Gold.Id.Protein>
6NUR|6NUR_protein|mol2

> <Gold.PLP.Fitness>
57.8410

> <Gold.PLP.PLP>
-47.3497

> <Gold.PLP.part.hbond>
-3.4910

> <Gold.PLP.part.metal>
0.0000

> <Gold.PLP.part.buried>
-0.7774

> <Gold.PLP.part.nonpolar>
-44.2971

> <Gold.PLP.part.repulsive>
0.1650

> <Gold.PLP.ligand.clash>
0.0000

> <Gold.PLP.ligand.torsion>
0.9034

> <Gold.PLP.Chemscore.Hbond>
4.0038

> <Gold.PLP.Chemscore.CHOScore>
0.0000

> <Gold.PLP.Chemscore.Metal>
0.0000

> <Gold.Chemscore.Hbonds>
donor molecule, donor type, donor heavy atom, donor atom, acceptor molecule, acceptor atom, score
      L1  H     7    54       P1 10175  2.00
      L1  H    10    38       P1  7957  0.86
      P1  H  7989  7998       L1    10  0.09
      P1  H  8011  8017       L1    10  1.00

> <Gold.PLP.Chemscore.Internal.Correction>
0.2867

> <Gold.Rescore>
     Score         DG    S(hbond)    S(metal)    S(lipo)     H(rot)  DE(clash)    DE(int)     intcor
     21.73     -22.97       2.37        0.00     131.46       2.27       0.16       1.09       ----

> <Gold.Chemscore.Fitness>
21.7273

> <Gold.Chemscore.DG>
-22.9724

> <Gold.Chemscore.ZeroCoef>
-5.4800

> <Gold.Chemscore.Hbond>
2.3728

> <Gold.Chemscore.Metal>
0.0000

> <Gold.Chemscore.Lipo>
131.4607

> <Gold.Chemscore.Internal_Hbond>
0.0000

> <Gold.Chemscore.DEClash>
0.1598

> <Gold.Chemscore.DEInternal>
1.0853

> <Gold.Chemscore.Rot>
2.2710

> <Gold.Chemscore.Internal.Correction>
   9.000000E+99

> <Gold.Chemscore.Hbonds>
donor molecule, donor type, donor heavy atom, donor atom, acceptor molecule, acceptor atom, score
      L1  H     7    54       P1 10175  0.94
      L1  H    10    38       P1  7957  0.81
      P1  H  7989  7998       L1    10  0.01
      P1  H  8011  8017       L1    10  0.30

> <Gold.Chemscore.Hbond.Weighted>
-7.9252

> <Gold.Chemscore.Metal.Weighted>
-0.0000

> <Gold.Chemscore.Lipo.Weighted>
-15.3809

> <Gold.Chemscore.Internal_Hbond.Weighted>
0.0000

> <Gold.Chemscore.DEClash.Weighted>
0.1598

> <Gold.Chemscore.DEInternal.Weighted>
1.0853

> <Gold.Chemscore.Rot.Weighted>
5.8137

> <Gold.Chemscore.Internal.Correction.Weighted>
   9.000000E+99

> <Gold.Protein.RotatedTorsions>
[ 6907 6896 6895 6894 ] final  111.29 input  -60.11 | X-H torsion
[ 7974 7965 7964 7962 ] final  113.73 input  175.53 | X-H torsion
[ 8008 7997 7996 7995 ] final   61.01 input   59.86 | X-H torsion
[ 10167 10162 10161 10158 ] final   -3.46 input  -65.29 | X-H torsion
[ 10718 10713 10712 10709 ] final  -27.58 input   66.30 | X-H torsion
[ 10763 10752 10751 10750 ] final   11.01 input  -60.55 | X-H torsion
[ 11005 11000 10999 10996 ] final  139.52 input  -57.11 | X-H torsion

> <Gold.Protein.ActiveResidues>
 VAL166  LYS551  ARG553  GLY616  TRP617  ASP618  TYR619  PRO620  LYS621  CYS622 
 ASP623  PHE694  ASN695  SER759  ASP760  ASP761  ALA762  ILE779  LEU786  VAL792 
 PHE793  MET794  SER795  GLU796  ALA797  LYS798  CYS799  TRP800  GLU811  SER814 

> <Gold.Protein.RotatedAtoms>
  152.4977  133.8679  159.7283 H   0  0  0  0  0  0  0  0  0  0  0  0  # atno 6907 bound_to 6896
  150.9173  133.6914  159.2847 H   0  0  0  0  0  0  0  0  0  0  0  0  # atno 6908 bound_to 6896
  151.4303  135.1013  159.9692 H   0  0  0  0  0  0  0  0  0  0  0  0  # atno 6909 bound_to 6896
  145.2133  139.2896  143.4257 H   0  0  0  0  0  0  0  0  0  0  0  0  # atno 7974 bound_to 7965
  155.5916  140.3493  155.4568 H   0  0  0  0  0  0  0  0  0  0  0  0  # atno 8008 bound_to 7997
  156.0297  140.1272  157.0296 H   0  0  0  0  0  0  0  0  0  0  0  0  # atno 8009 bound_to 7997
  154.4347  140.1046  156.6068 H   0  0  0  0  0  0  0  0  0  0  0  0  # atno 8010 bound_to 7997
  140.6891  143.6537  150.8327 H   0  0  0  0  0  0  0  0  0  0  0  0  # atno 10167 bound_to 10162
  156.4364  130.4455  149.7082 H   0  0  0  0  0  0  0  0  0  0  0  0  # atno 10718 bound_to 10713
  153.1971  135.6851  153.8278 H   0  0  0  0  0  0  0  0  0  0  0  0  # atno 10763 bound_to 10752
  153.7557  135.3217  155.3330 H   0  0  0  0  0  0  0  0  0  0  0  0  # atno 10764 bound_to 10752
  154.8151  135.4691  154.0720 H   0  0  0  0  0  0  0  0  0  0  0  0  # atno 10765 bound_to 10752
  140.0261  134.9374  157.0571 H   0  0  0  0  0  0  0  0  0  0  0  0  # atno 11005 bound_to 11000
  146.3393  140.2415  142.8596 LP  0  0  0  0  0  0  0  0  0  0  0  0  # atno 17320 bound_to 7965
  144.9835  140.8481  143.5382 LP  0  0  0  0  0  0  0  0  0  0  0  0  # atno 17321 bound_to 7965
  140.0248  143.5505  152.2785 LP  0  0  0  0  0  0  0  0  0  0  0  0  # atno 17342 bound_to 10162
  139.6276  144.7639  151.2605 LP  0  0  0  0  0  0  0  0  0  0  0  0  # atno 17343 bound_to 10162
  156.3965  130.7653  151.2658 LP  0  0  0  0  0  0  0  0  0  0  0  0  # atno 17370 bound_to 10713
  157.7507  131.0252  150.3911 LP  0  0  0  0  0  0  0  0  0  0  0  0  # atno 17371 bound_to 10713
  140.4304  134.1786  155.7168 LP  0  0  0  0  0  0  0  0  0  0  0  0  # atno 17394 bound_to 11000
  141.1803  133.8427  157.1279 LP  0  0  0  0  0  0  0  0  0  0  0  0  # atno 17395 bound_to 11000

$$$$
