AV-unprocessed.smi:317|AV-procd|sdf|2327|dock3
  -GOLD-   2262022233D 1   1.00000     0.00000
 Structure written by MMmdl.
 39 40  0  0  0  0  0  0  0  0  1 V2000
  146.5508  142.7895  153.9653 C   0  0  0  0  0  0  0  0  0  0  0  0
  147.1654  141.6866  154.8393 C   0  0  1  0  0  0  0  0  0  0  0  0
  147.6744  140.5076  153.9824 C   0  0  0  0  0  0  0  0  0  0  0  0
  148.7424  140.9192  153.1563 O   0  0  0  0  0  0  0  0  0  0  0  0
  148.2662  142.2704  155.6011 N   0  0  0  0  0  0  0  0  0  0  0  0
  149.0736  141.6004  156.4352 C   0  0  0  0  0  0  0  0  0  0  0  0
  148.9721  140.3954  156.6653 O   0  0  0  0  0  0  0  0  0  0  0  0
  150.0067  142.4118  156.9597 N   0  0  0  0  0  0  0  0  0  0  0  0
  151.0622  142.0703  157.8510 C   0  0  0  0  0  0  0  0  0  0  0  0
  151.4688  142.9499  158.8839 C   0  0  0  0  0  0  0  0  0  0  0  0
  152.5642  142.6038  159.6935 C   0  0  0  0  0  0  0  0  0  0  0  0
  153.2275  141.3936  159.4317 C   0  0  0  0  0  0  0  0  0  0  0  0
  152.8610  140.5515  158.4448 N   0  0  0  0  0  0  0  0  0  0  0  0
  151.7969  140.8641  157.6644 C   0  0  0  0  0  0  0  0  0  0  0  0
  151.4479  139.9344  156.6578 N   0  0  0  0  0  0  0  0  0  0  0  0
  152.2243  139.8531  155.4251 C   0  0  0  0  0  0  0  0  0  0  0  0
  151.8152  138.5286  154.7875 C   0  0  0  0  0  0  0  0  0  0  0  0
  151.6056  137.6324  156.0042 C   0  0  0  0  0  0  0  0  0  0  0  0
  151.0632  138.5881  157.0723 C   0  0  0  0  0  0  0  0  0  0  0  0
  145.6996  142.4120  153.3977 H   0  0  0  0  0  0  0  0  0  0  0  0
  147.2764  143.1851  153.2535 H   0  0  0  0  0  0  0  0  0  0  0  0
  146.1933  143.6201  154.5747 H   0  0  0  0  0  0  0  0  0  0  0  0
  146.3798  141.3440  155.5163 H   0  0  0  0  0  0  0  0  0  0  0  0
  148.0599  139.7110  154.6195 H   0  0  0  0  0  0  0  0  0  0  0  0
  146.8784  140.0689  153.3794 H   0  0  0  0  0  0  0  0  0  0  0  0
  148.8159  140.3140  152.4345 H   0  0  0  0  0  0  0  0  0  0  0  0
  148.4296  143.2585  155.4757 H   0  0  0  0  0  0  0  0  0  0  0  0
  150.0311  143.3551  156.6009 H   0  0  0  0  0  0  0  0  0  0  0  0
  150.9738  143.8943  159.0519 H   0  0  0  0  0  0  0  0  0  0  0  0
  152.8956  143.2576  160.4866 H   0  0  0  0  0  0  0  0  0  0  0  0
  154.0787  141.0959  160.0255 H   0  0  0  0  0  0  0  0  0  0  0  0
  152.0192  140.6995  154.7691 H   0  0  0  0  0  0  0  0  0  0  0  0
  153.2937  139.8364  155.6402 H   0  0  0  0  0  0  0  0  0  0  0  0
  150.8759  138.6482  154.2458 H   0  0  0  0  0  0  0  0  0  0  0  0
  152.5623  138.1417  154.0940 H   0  0  0  0  0  0  0  0  0  0  0  0
  150.9359  136.7949  155.8067 H   0  0  0  0  0  0  0  0  0  0  0  0
  152.5649  137.2265  156.3283 H   0  0  0  0  0  0  0  0  0  0  0  0
  151.4476  138.3369  158.0622 H   0  0  0  0  0  0  0  0  0  0  0  0
  149.9751  138.5267  157.1065 H   0  0  0  0  0  0  0  0  0  0  0  0
  1  2  1  0  0  0  0
  1 20  1  0  0  0  0
  1 21  1  0  0  0  0
  1 22  1  0  0  0  0
  2  3  1  0  0  0  0
  2  5  1  0  0  0  0
  2 23  1  0  0  0  0
  3  4  1  0  0  0  0
  3 24  1  0  0  0  0
  3 25  1  0  0  0  0
  4 26  1  0  0  0  0
  5  6  1  0  0  0  0
  5 27  1  0  0  0  0
  6  7  2  0  0  0  0
  6  8  1  0  0  0  0
  8  9  1  0  0  0  0
  8 28  1  0  0  0  0
  9 14  1  0  0  0  0
  9 10  2  0  0  0  0
 10 11  1  0  0  0  0
 10 29  1  0  0  0  0
 11 12  2  0  0  0  0
 11 30  1  0  0  0  0
 12 13  1  0  0  0  0
 12 31  1  0  0  0  0
 13 14  2  0  0  0  0
 14 15  1  0  0  0  0
 15 19  1  0  0  0  0
 15 16  1  0  0  0  0
 16 17  1  0  0  0  0
 16 32  1  0  0  0  0
 16 33  1  0  0  0  0
 17 18  1  0  0  0  0
 17 34  1  0  0  0  0
 17 35  1  0  0  0  0
 18 19  1  0  0  0  0
 18 36  1  0  0  0  0
 18 37  1  0  0  0  0
 19 38  1  0  0  0  0
 19 39  1  0  0  0  0
M  END
> <s_m_source_file>
AV-unprocessed.smi

> <i_m_source_file_index>
317

> <i_lp_mmshare_version>
43012

> <i_f3d_flags>
0

> <s_epik_input>
W09IXVtDSDJdW0NAQEhdKFtDSDNdKVtOSF1DKD1PKVtOSF1jMVtjSF1bY0hdW2NIXW5jMU4yW0NIMl1bQ0gyXVtDSDJdW0NIMl0y

> <s_epik_cmdline>
J2VwaWtfcHl0aG9uJywgJy1waCcsICc3LjAnLCAnLXRuJywgJzgnLCAnLW1hJywgJzIwMCcsICctbWV0YWxfYmluZGluZycsICctaW1hZScsICc8aW5maWxlLm1hZT4nLCAnLW9tYWUnLCAnPG91dGZpbGUubWFlPic=

> <r_lp_tautomer_probability>
1

> <r_epik_Ionization_Penalty>
0.098371

> <r_epik_Ionization_Penalty_Charging>
0

> <r_epik_Ionization_Penalty_Neutral>
0.098371

> <r_epik_State_Penalty>
0.0879016

> <r_epik_Charging_Adjusted_Penalty>
0.0879016

> <i_epik_Tot_Q>
0

> <i_epik_Tot_abs_Q>
0

> <r_epik_Metal_State_Penalty>
0.0753294

> <b_epik_Metal_Only>
0

> <s_lp_Force_Field>
OPLS_2005

> <r_lp_Energy>
32.3253

> <b_lp_Chiralities_Consistent>
1

> <s_lp_Variant>
AV-unprocessed.smi:317-2

> <Gold.Version>
5.8.1

> <Gold.Id.Protein>
6NUR|6NUR_protein|mol2

> <Gold.PLP.Fitness>
44.0812

> <Gold.PLP.PLP>
-33.5764

> <Gold.PLP.part.hbond>
-4.0613

> <Gold.PLP.part.metal>
0.0000

> <Gold.PLP.part.buried>
-3.7777

> <Gold.PLP.part.nonpolar>
-25.9122

> <Gold.PLP.part.repulsive>
0.1436

> <Gold.PLP.ligand.clash>
0.0000

> <Gold.PLP.ligand.torsion>
0.5511

> <Gold.PLP.Chemscore.Hbond>
3.7609

> <Gold.PLP.Chemscore.CHOScore>
0.0000

> <Gold.PLP.Chemscore.Metal>
0.0000

> <Gold.Chemscore.Hbonds>
donor molecule, donor type, donor heavy atom, donor atom, acceptor molecule, acceptor atom, score
      L1  H     4    26       P1  7957  0.83
      L1  H     5    27       P1  8028  0.99
      L1  H     8    28       P1  8028  0.85
      P1  H  7997  8010       L1    13  0.19
      P1  H  8011  8017       L1     4  0.85

> <Gold.PLP.Chemscore.Internal.Correction>
0.3244

> <Gold.Rescore>
     Score         DG    S(hbond)    S(metal)    S(lipo)     H(rot)  DE(clash)    DE(int)     intcor
     12.42     -19.04       2.84        0.00      80.32       2.08       0.03       6.60       ----

> <Gold.Chemscore.Fitness>
12.4198

> <Gold.Chemscore.DG>
-19.0432

> <Gold.Chemscore.ZeroCoef>
-5.4800

> <Gold.Chemscore.Hbond>
2.8394

> <Gold.Chemscore.Metal>
0.0000

> <Gold.Chemscore.Lipo>
80.3202

> <Gold.Chemscore.Internal_Hbond>
0.0000

> <Gold.Chemscore.DEClash>
0.0262

> <Gold.Chemscore.DEInternal>
6.5972

> <Gold.Chemscore.Rot>
2.0773

> <Gold.Chemscore.Internal.Correction>
   9.000000E+99

> <Gold.Chemscore.Hbonds>
donor molecule, donor type, donor heavy atom, donor atom, acceptor molecule, acceptor atom, score
      L1  H     4    26       P1  7957  0.77
      L1  H     5    27       P1  8028  0.91
      L1  H     8    28       P1  8028  0.79
      P1  H  7997  8010       L1    13  0.11
      P1  H  8011  8017       L1     4  0.14

> <Gold.Chemscore.Hbond.Weighted>
-9.4836

> <Gold.Chemscore.Metal.Weighted>
-0.0000

> <Gold.Chemscore.Lipo.Weighted>
-9.3975

> <Gold.Chemscore.Internal_Hbond.Weighted>
0.0000

> <Gold.Chemscore.DEClash.Weighted>
0.0262

> <Gold.Chemscore.DEInternal.Weighted>
6.5972

> <Gold.Chemscore.Rot.Weighted>
5.3178

> <Gold.Chemscore.Internal.Correction.Weighted>
   9.000000E+99

> <Gold.Protein.RotatedTorsions>
[ 6907 6896 6895 6894 ] final  -26.80 input  -60.11 | X-H torsion
[ 7974 7965 7964 7962 ] final  128.01 input  175.53 | X-H torsion
[ 8008 7997 7996 7995 ] final   22.62 input   59.86 | X-H torsion
[ 10167 10162 10161 10158 ] final   15.48 input  -65.29 | X-H torsion
[ 10718 10713 10712 10709 ] final  -73.38 input   66.30 | X-H torsion
[ 10763 10752 10751 10750 ] final   99.25 input  -60.55 | X-H torsion
[ 11005 11000 10999 10996 ] final    5.51 input  -57.11 | X-H torsion

> <Gold.Protein.ActiveResidues>
 VAL166  LYS551  ARG553  GLY616  TRP617  ASP618  TYR619  PRO620  LYS621  CYS622 
 ASP623  PHE694  ASN695  SER759  ASP760  ASP761  ALA762  ILE779  LEU786  VAL792 
 PHE793  MET794  SER795  GLU796  ALA797  LYS798  CYS799  TRP800  GLU811  SER814 

> <Gold.Protein.RotatedAtoms>
  151.1558  135.0249  159.8688 H   0  0  0  0  0  0  0  0  0  0  0  0  # atno 6907 bound_to 6896
  152.5452  134.1336  159.8459 H   0  0  0  0  0  0  0  0  0  0  0  0  # atno 6908 bound_to 6896
  151.1426  133.4915  159.2629 H   0  0  0  0  0  0  0  0  0  0  0  0  # atno 6909 bound_to 6896
  145.0442  139.3937  143.5086 H   0  0  0  0  0  0  0  0  0  0  0  0  # atno 7974 bound_to 7965
  154.9685  140.3087  155.4998 H   0  0  0  0  0  0  0  0  0  0  0  0  # atno 8008 bound_to 7997
  156.2968  140.2288  156.4715 H   0  0  0  0  0  0  0  0  0  0  0  0  # atno 8009 bound_to 7997
  154.7898  140.0440  157.1181 H   0  0  0  0  0  0  0  0  0  0  0  0  # atno 8010 bound_to 7997
  140.5864  143.8881  150.6834 H   0  0  0  0  0  0  0  0  0  0  0  0  # atno 10167 bound_to 10162
  156.0282  130.4393  150.2734 H   0  0  0  0  0  0  0  0  0  0  0  0  # atno 10718 bound_to 10713
  153.2991  135.4120  155.1237 H   0  0  0  0  0  0  0  0  0  0  0  0  # atno 10763 bound_to 10752
  154.8544  135.3537  154.5876 H   0  0  0  0  0  0  0  0  0  0  0  0  # atno 10764 bound_to 10752
  153.6300  135.7061  153.5337 H   0  0  0  0  0  0  0  0  0  0  0  0  # atno 10765 bound_to 10752
  140.5699  134.0112  155.8004 H   0  0  0  0  0  0  0  0  0  0  0  0  # atno 11005 bound_to 11000
  146.3512  140.0059  142.8671 LP  0  0  0  0  0  0  0  0  0  0  0  0  # atno 17320 bound_to 7965
  145.1609  140.9672  143.4378 LP  0  0  0  0  0  0  0  0  0  0  0  0  # atno 17321 bound_to 7965
  140.2393  143.3676  152.1500 LP  0  0  0  0  0  0  0  0  0  0  0  0  # atno 17342 bound_to 10162
  139.5200  144.7027  151.5445 LP  0  0  0  0  0  0  0  0  0  0  0  0  # atno 17343 bound_to 10162
  157.0837  131.0150  151.3147 LP  0  0  0  0  0  0  0  0  0  0  0  0  # atno 17370 bound_to 10713
  157.4908  130.7821  149.7505 LP  0  0  0  0  0  0  0  0  0  0  0  0  # atno 17371 bound_to 10713
  141.1063  133.9689  157.2991 LP  0  0  0  0  0  0  0  0  0  0  0  0  # atno 17394 bound_to 11000
  139.9367  135.0195  156.8578 LP  0  0  0  0  0  0  0  0  0  0  0  0  # atno 17395 bound_to 11000

$$$$
