AV-unprocessed.smi:2933|AV-procd|sdf|11252|dock2
  -GOLD-   2272016143D 1   1.00000     0.00000
 Structure written by MMmdl.
 49 51  0  0  0  0  0  0  0  0  1 V2000
  151.1332  137.9214  154.3408 C   0  0  0  0  0  0  0  0  0  0  0  0
  150.4126  139.1673  154.8247 C   0  0  0  0  0  0  0  0  0  0  0  0
  151.1049  139.9367  155.6929 N   0  0  0  0  0  0  0  0  0  0  0  0
  150.5387  141.0701  156.1738 C   0  0  0  0  0  0  0  0  0  0  0  0
  151.2800  141.8556  157.0828 N   0  0  0  0  0  0  0  0  0  0  0  0
  150.8843  143.2506  157.2663 C   0  0  0  0  0  0  0  0  0  0  0  0
  151.9684  144.0149  158.0445 C   0  0  0  0  0  0  0  0  0  0  0  0
  152.2271  143.3531  159.2782 O   0  0  0  0  0  0  0  0  0  0  0  0
  152.7152  142.0306  159.0774 C   0  0  0  0  0  0  0  0  0  0  0  0
  151.6655  141.1932  158.3264 C   0  0  0  0  0  0  0  0  0  0  0  0
  149.2380  141.4665  155.7874 C   0  0  0  0  0  0  0  0  0  0  0  0
  148.5146  140.6656  154.8845 C   0  0  0  0  0  0  0  0  0  0  0  0
  149.1016  139.4766  154.3930 C   0  0  0  0  0  0  0  0  0  0  0  0
  148.4511  138.6154  153.4662 N   0  0  0  0  0  0  0  0  0  0  0  0
  147.1364  138.5256  153.2031 C   0  0  0  0  0  0  0  0  0  0  0  0
  146.2582  139.2038  153.7362 O   0  0  0  0  0  0  0  0  0  0  0  0
  146.8882  137.5744  152.2913 N   0  0  0  0  0  0  0  0  0  0  0  0
  145.5659  137.2010  151.7969 C   0  0  2  0  0  0  0  0  0  0  0  0
  144.5882  137.0337  152.9711 C   0  0  0  0  0  0  0  0  0  0  0  0
  145.6831  135.9287  150.9603 C   0  0  0  0  0  0  0  0  0  0  0  0
  144.4158  135.2451  150.4239 C   0  0  0  0  0  0  0  0  0  0  0  0
  145.1133  133.8968  150.6247 C   0  0  0  0  0  0  0  0  0  0  0  0
  146.0268  134.5930  151.6372 C   0  0  0  0  0  0  0  0  0  0  0  0
  150.5660  137.0288  154.6062 H   0  0  0  0  0  0  0  0  0  0  0  0
  152.1256  137.8334  154.7849 H   0  0  0  0  0  0  0  0  0  0  0  0
  151.2502  137.9467  153.2571 H   0  0  0  0  0  0  0  0  0  0  0  0
  150.7279  143.7294  156.2989 H   0  0  0  0  0  0  0  0  0  0  0  0
  149.9380  143.2903  157.8074 H   0  0  0  0  0  0  0  0  0  0  0  0
  152.8870  144.0908  157.4602 H   0  0  0  0  0  0  0  0  0  0  0  0
  151.6367  145.0329  158.2489 H   0  0  0  0  0  0  0  0  0  0  0  0
  153.6565  142.0589  158.5260 H   0  0  0  0  0  0  0  0  0  0  0  0
  152.9290  141.5808  160.0471 H   0  0  0  0  0  0  0  0  0  0  0  0
  150.7773  141.0664  158.9464 H   0  0  0  0  0  0  0  0  0  0  0  0
  152.0696  140.1981  158.1458 H   0  0  0  0  0  0  0  0  0  0  0  0
  148.7832  142.3638  156.1796 H   0  0  0  0  0  0  0  0  0  0  0  0
  147.5292  140.9825  154.5794 H   0  0  0  0  0  0  0  0  0  0  0  0
  149.0429  137.9302  153.0199 H   0  0  0  0  0  0  0  0  0  0  0  0
  147.6729  137.0658  151.9110 H   0  0  0  0  0  0  0  0  0  0  0  0
  145.1906  138.0020  151.1571 H   0  0  0  0  0  0  0  0  0  0  0  0
  143.5892  136.7783  152.6170 H   0  0  0  0  0  0  0  0  0  0  0  0
  144.5028  137.9544  153.5494 H   0  0  0  0  0  0  0  0  0  0  0  0
  144.9131  136.2434  153.6488 H   0  0  0  0  0  0  0  0  0  0  0  0
  146.3744  136.0773  150.1274 H   0  0  0  0  0  0  0  0  0  0  0  0
  143.5536  135.3750  151.0803 H   0  0  0  0  0  0  0  0  0  0  0  0
  144.1724  135.4855  149.3886 H   0  0  0  0  0  0  0  0  0  0  0  0
  144.4816  133.1126  151.0429 H   0  0  0  0  0  0  0  0  0  0  0  0
  145.6469  133.5591  149.7348 H   0  0  0  0  0  0  0  0  0  0  0  0
  147.0777  134.3085  151.5773 H   0  0  0  0  0  0  0  0  0  0  0  0
  145.6497  134.5253  152.6590 H   0  0  0  0  0  0  0  0  0  0  0  0
  1  2  1  0  0  0  0
  1 24  1  0  0  0  0
  1 25  1  0  0  0  0
  1 26  1  0  0  0  0
  2 13  1  0  0  0  0
  2  3  2  0  0  0  0
  3  4  1  0  0  0  0
  4  5  1  0  0  0  0
  4 11  2  0  0  0  0
  5 10  1  0  0  0  0
  5  6  1  0  0  0  0
  6  7  1  0  0  0  0
  6 27  1  0  0  0  0
  6 28  1  0  0  0  0
  7  8  1  0  0  0  0
  7 29  1  0  0  0  0
  7 30  1  0  0  0  0
  8  9  1  0  0  0  0
  9 10  1  0  0  0  0
  9 31  1  0  0  0  0
  9 32  1  0  0  0  0
 10 33  1  0  0  0  0
 10 34  1  0  0  0  0
 11 12  1  0  0  0  0
 11 35  1  0  0  0  0
 12 13  2  0  0  0  0
 12 36  1  0  0  0  0
 13 14  1  0  0  0  0
 14 15  1  0  0  0  0
 14 37  1  0  0  0  0
 15 16  2  0  0  0  0
 15 17  1  0  0  0  0
 17 18  1  0  0  0  0
 17 38  1  0  0  0  0
 18 19  1  0  0  0  0
 18 20  1  0  0  0  0
 18 39  1  0  0  0  0
 19 40  1  0  0  0  0
 19 41  1  0  0  0  0
 19 42  1  0  0  0  0
 20 23  1  0  0  0  0
 20 21  1  0  0  0  0
 20 43  1  0  0  0  0
 21 22  1  0  0  0  0
 21 44  1  0  0  0  0
 21 45  1  0  0  0  0
 22 23  1  0  0  0  0
 22 46  1  0  0  0  0
 22 47  1  0  0  0  0
 23 48  1  0  0  0  0
 23 49  1  0  0  0  0
M  END
> <s_m_source_file>
AV-unprocessed.smi

> <i_m_source_file_index>
2933

> <i_lp_mmshare_version>
43012

> <i_f3d_flags>
0

> <s_epik_input>
W0NIMl0xW0NIMl1PW0NIMl1bQ0gyXU4xYyhuYzJbQ0gzXSlbY0hdW2NIXWMyW05IXUMoPU8pW05IXVtDQEhdKFtDSDNdKVtDSF0zW0NIMl1bQ0gyXVtDSDJdMw==

> <s_epik_cmdline>
J2VwaWtfcHl0aG9uJywgJy1waCcsICc3LjAnLCAnLXRuJywgJzgnLCAnLW1hJywgJzIwMCcsICctbWV0YWxfYmluZGluZycsICctaW1hZScsICc8aW5maWxlLm1hZT4nLCAnLW9tYWUnLCAnPG91dGZpbGUubWFlPic=

> <r_lp_tautomer_probability>
1

> <r_epik_Ionization_Penalty>
0.00789884

> <r_epik_Ionization_Penalty_Charging>
0

> <r_epik_Ionization_Penalty_Neutral>
0.00789884

> <r_epik_State_Penalty>
0.00589145

> <r_epik_Charging_Adjusted_Penalty>
0.00589145

> <i_epik_Tot_Q>
0

> <i_epik_Tot_abs_Q>
0

> <r_epik_Metal_State_Penalty>
-0

> <b_epik_Metal_Only>
0

> <s_lp_Force_Field>
OPLS_2005

> <r_lp_Energy>
30.1585

> <b_lp_Chiralities_Consistent>
1

> <s_lp_Variant>
AV-unprocessed.smi:2933-1

> <Gold.Version>
5.8.1

> <Gold.Id.Protein>
6NUR|6NUR_protein|mol2

> <Gold.PLP.Fitness>
47.7181

> <Gold.PLP.PLP>
-42.5981

> <Gold.PLP.part.hbond>
-3.0000

> <Gold.PLP.part.metal>
0.0000

> <Gold.PLP.part.buried>
-2.7945

> <Gold.PLP.part.nonpolar>
-39.9376

> <Gold.PLP.part.repulsive>
0.5133

> <Gold.PLP.ligand.clash>
0.0000

> <Gold.PLP.ligand.torsion>
0.5338

> <Gold.PLP.Chemscore.Hbond>
1.8960

> <Gold.PLP.Chemscore.CHOScore>
0.0000

> <Gold.PLP.Chemscore.Metal>
0.0000

> <Gold.Chemscore.Hbonds>
donor molecule, donor type, donor heavy atom, donor atom, acceptor molecule, acceptor atom, score
      L1  H    14    37       P1  7948  0.85
      L1  H    17    38       P1  7948  0.94

> <Gold.PLP.Chemscore.Internal.Correction>
0.4995

> <Gold.Rescore>
     Score         DG    S(hbond)    S(metal)    S(lipo)     H(rot)  DE(clash)    DE(int)     intcor
     17.36     -20.81       1.75        0.00     109.94       1.32       0.31       3.13       ----

> <Gold.Chemscore.Fitness>
17.3639

> <Gold.Chemscore.DG>
-20.8066

> <Gold.Chemscore.ZeroCoef>
-5.4800

> <Gold.Chemscore.Hbond>
1.7460

> <Gold.Chemscore.Metal>
0.0000

> <Gold.Chemscore.Lipo>
109.9409

> <Gold.Chemscore.Internal_Hbond>
0.0000

> <Gold.Chemscore.DEClash>
0.3098

> <Gold.Chemscore.DEInternal>
3.1328

> <Gold.Chemscore.Rot>
1.3157

> <Gold.Chemscore.Internal.Correction>
   9.000000E+99

> <Gold.Chemscore.Hbonds>
donor molecule, donor type, donor heavy atom, donor atom, acceptor molecule, acceptor atom, score
      L1  H    14    37       P1  7948  0.79
      L1  H    17    38       P1  7948  0.90

> <Gold.Chemscore.Hbond.Weighted>
-5.8317

> <Gold.Chemscore.Metal.Weighted>
-0.0000

> <Gold.Chemscore.Lipo.Weighted>
-12.8631

> <Gold.Chemscore.Internal_Hbond.Weighted>
0.0000

> <Gold.Chemscore.DEClash.Weighted>
0.3098

> <Gold.Chemscore.DEInternal.Weighted>
3.1328

> <Gold.Chemscore.Rot.Weighted>
3.3682

> <Gold.Chemscore.Internal.Correction.Weighted>
   9.000000E+99

> <Gold.Protein.RotatedTorsions>
[ 6907 6896 6895 6894 ] final  115.80 input  -60.11 | X-H torsion
[ 7974 7965 7964 7962 ] final   86.79 input  175.53 | X-H torsion
[ 8008 7997 7996 7995 ] final -108.12 input   59.86 | X-H torsion
[ 10167 10162 10161 10158 ] final   49.11 input  -65.29 | X-H torsion
[ 10718 10713 10712 10709 ] final   54.42 input   66.30 | X-H torsion
[ 10763 10752 10751 10750 ] final  109.38 input  -60.55 | X-H torsion
[ 11005 11000 10999 10996 ] final -101.37 input  -57.11 | X-H torsion

> <Gold.Protein.ActiveResidues>
 VAL166  LYS551  ARG553  GLY616  TRP617  ASP618  TYR619  PRO620  LYS621  CYS622 
 ASP623  PHE694  ASN695  SER759  ASP760  ASP761  ALA762  ILE779  LEU786  VAL792 
 PHE793  MET794  SER795  GLU796  ALA797  LYS798  CYS799  TRP800  GLU811  SER814 

> <Gold.Protein.RotatedAtoms>
  152.4718  133.8048  159.6971 H   0  0  0  0  0  0  0  0  0  0  0  0  # atno 6907 bound_to 6896
  150.8712  133.7493  159.2967 H   0  0  0  0  0  0  0  0  0  0  0  0  # atno 6908 bound_to 6896
  151.5027  135.1065  159.9885 H   0  0  0  0  0  0  0  0  0  0  0  0  # atno 6909 bound_to 6896
  145.5676  139.2310  143.2424 H   0  0  0  0  0  0  0  0  0  0  0  0  # atno 7974 bound_to 7965
  154.9396  140.0403  157.2090 H   0  0  0  0  0  0  0  0  0  0  0  0  # atno 8008 bound_to 7997
  154.8082  140.2863  155.5850 H   0  0  0  0  0  0  0  0  0  0  0  0  # atno 8009 bound_to 7997
  156.2969  140.2542  156.2965 H   0  0  0  0  0  0  0  0  0  0  0  0  # atno 8010 bound_to 7997
  140.2863  144.3098  150.6251 H   0  0  0  0  0  0  0  0  0  0  0  0  # atno 10167 bound_to 10162
  157.5255  130.8594  149.8616 H   0  0  0  0  0  0  0  0  0  0  0  0  # atno 10718 bound_to 10713
  153.4339  135.3782  155.2187 H   0  0  0  0  0  0  0  0  0  0  0  0  # atno 10763 bound_to 10752
  154.8751  135.3846  154.4234 H   0  0  0  0  0  0  0  0  0  0  0  0  # atno 10764 bound_to 10752
  153.4771  135.7088  153.6023 H   0  0  0  0  0  0  0  0  0  0  0  0  # atno 10765 bound_to 10752
  141.1233  133.8473  157.1223 H   0  0  0  0  0  0  0  0  0  0  0  0  # atno 11005 bound_to 11000
  146.1807  140.6502  142.9190 LP  0  0  0  0  0  0  0  0  0  0  0  0  # atno 17320 bound_to 7965
  144.7453  140.5051  143.6840 LP  0  0  0  0  0  0  0  0  0  0  0  0  # atno 17321 bound_to 7965
  140.5770  143.2175  151.7498 LP  0  0  0  0  0  0  0  0  0  0  0  0  # atno 17342 bound_to 10162
  139.4949  144.4136  152.0054 LP  0  0  0  0  0  0  0  0  0  0  0  0  # atno 17343 bound_to 10162
  156.0384  130.3745  150.1500 LP  0  0  0  0  0  0  0  0  0  0  0  0  # atno 17370 bound_to 10713
  156.9686  130.9827  151.3464 LP  0  0  0  0  0  0  0  0  0  0  0  0  # atno 17371 bound_to 10713
  140.0209  134.9946  157.0590 LP  0  0  0  0  0  0  0  0  0  0  0  0  # atno 17394 bound_to 11000
  140.4441  134.1650  155.7176 LP  0  0  0  0  0  0  0  0  0  0  0  0  # atno 17395 bound_to 11000

$$$$
