AV-unprocessed.smi:2019|AV-procd|sdf|8172|dock5
  -GOLD-   2272010423D 1   1.00000     0.00000
 Structure written by MMmdl.
 36 37  0  0  0  0  0  0  0  0  1 V2000
  150.8352  141.0572  157.7589 O   0  0  0  0  0  0  0  0  0  0  0  0
  150.7091  142.1142  157.1393 C   0  0  0  0  0  0  0  0  0  0  0  0
  151.4490  143.3805  157.5909 C   0  0  0  0  0  0  0  0  0  0  0  0
  151.9353  143.2975  158.9781 N   0  0  0  0  0  0  0  0  0  0  0  0
  152.8189  142.2443  159.2882 C   0  0  0  0  0  0  0  0  0  0  0  0
  153.3247  142.0815  160.5211 C   0  0  0  0  0  0  0  0  0  0  0  0
  152.9408  143.0231  161.5462 C   0  0  0  0  0  0  0  0  0  0  0  0
  152.0978  144.0351  161.2598 C   0  0  0  0  0  0  0  0  0  0  0  0
  151.5428  144.2172  159.9134 C   0  0  0  0  0  0  0  0  0  0  0  0
  150.7725  145.1389  159.6432 O   0  0  0  0  0  0  0  0  0  0  0  0
  149.9225  142.2445  156.0592 N   0  0  0  0  0  0  0  0  0  0  0  0
  149.1484  141.1680  155.4369 C   0  0  1  0  0  0  0  0  0  0  0  0
  148.3743  141.7766  154.2450 C   0  0  0  0  0  0  0  0  0  0  0  0
  147.1392  140.9603  153.8254 C   0  0  0  0  0  0  0  0  0  0  0  0
  147.4440  139.5606  153.2699 C   0  0  0  0  0  0  0  0  0  0  0  0
  148.1224  138.6262  154.2862 C   0  0  0  0  0  0  0  0  0  0  0  0
  149.5414  138.9202  154.4384 N   0  0  0  0  0  0  0  0  0  0  0  0
  150.0836  140.0495  154.9187 C   0  0  0  0  0  0  0  0  0  0  0  0
  151.3062  140.1910  154.9397 O   0  0  0  0  0  0  0  0  0  0  0  0
  152.2830  143.5801  156.9150 H   0  0  0  0  0  0  0  0  0  0  0  0
  150.7737  144.2283  157.4688 H   0  0  0  0  0  0  0  0  0  0  0  0
  153.0614  141.5884  158.4647 H   0  0  0  0  0  0  0  0  0  0  0  0
  154.0036  141.2702  160.7395 H   0  0  0  0  0  0  0  0  0  0  0  0
  153.3324  142.9166  162.5471 H   0  0  0  0  0  0  0  0  0  0  0  0
  151.8226  144.7306  162.0391 H   0  0  0  0  0  0  0  0  0  0  0  0
  149.8809  143.1486  155.6118 H   0  0  0  0  0  0  0  0  0  0  0  0
  148.4493  140.7629  156.1711 H   0  0  0  0  0  0  0  0  0  0  0  0
  148.0190  142.7703  154.5225 H   0  0  0  0  0  0  0  0  0  0  0  0
  149.0331  141.9325  153.3885 H   0  0  0  0  0  0  0  0  0  0  0  0
  146.4589  140.8728  154.6736 H   0  0  0  0  0  0  0  0  0  0  0  0
  146.5940  141.5216  153.0660 H   0  0  0  0  0  0  0  0  0  0  0  0
  146.5013  139.1074  152.9608 H   0  0  0  0  0  0  0  0  0  0  0  0
  148.0490  139.6367  152.3650 H   0  0  0  0  0  0  0  0  0  0  0  0
  147.6175  138.6585  155.2527 H   0  0  0  0  0  0  0  0  0  0  0  0
  148.0442  137.5973  153.9343 H   0  0  0  0  0  0  0  0  0  0  0  0
  150.1807  138.2066  154.1189 H   0  0  0  0  0  0  0  0  0  0  0  0
  1  2  2  0  0  0  0
  2  3  1  0  0  0  0
  2 11  1  0  0  0  0
  3  4  1  0  0  0  0
  3 20  1  0  0  0  0
  3 21  1  0  0  0  0
  4  9  1  0  0  0  0
  4  5  1  0  0  0  0
  5  6  2  0  0  0  0
  5 22  1  0  0  0  0
  6  7  1  0  0  0  0
  6 23  1  0  0  0  0
  7  8  2  0  0  0  0
  7 24  1  0  0  0  0
  8  9  1  0  0  0  0
  8 25  1  0  0  0  0
  9 10  2  0  0  0  0
 11 12  1  0  0  0  0
 11 26  1  0  0  0  0
 12 18  1  0  0  0  0
 12 13  1  0  0  0  0
 12 27  1  0  0  0  0
 13 14  1  0  0  0  0
 13 28  1  0  0  0  0
 13 29  1  0  0  0  0
 14 15  1  0  0  0  0
 14 30  1  0  0  0  0
 14 31  1  0  0  0  0
 15 16  1  0  0  0  0
 15 32  1  0  0  0  0
 15 33  1  0  0  0  0
 16 17  1  0  0  0  0
 16 34  1  0  0  0  0
 16 35  1  0  0  0  0
 17 18  1  0  0  0  0
 17 36  1  0  0  0  0
 18 19  2  0  0  0  0
M  END
> <s_m_source_file>
AV-unprocessed.smi

> <i_m_source_file_index>
2019

> <i_lp_mmshare_version>
43012

> <i_f3d_flags>
0

> <s_epik_input>
Tz1jMVtjSF1bY0hdW2NIXVtjSF1uMVtDSDJdQyg9TylbTkhdW0NAQEhdMltDSDJdW0NIMl1bQ0gyXVtDSDJdW05IXUMyPU8=

> <s_epik_cmdline>
J2VwaWtfcHl0aG9uJywgJy1waCcsICc3LjAnLCAnLXRuJywgJzgnLCAnLW1hJywgJzIwMCcsICctbWV0YWxfYmluZGluZycsICctaW1hZScsICc8aW5maWxlLm1hZT4nLCAnLW9tYWUnLCAnPG91dGZpbGUubWFlPic=

> <r_lp_tautomer_probability>
1

> <r_epik_Ionization_Penalty>
3.70786e-07

> <r_epik_Ionization_Penalty_Charging>
3.17464e-07

> <r_epik_Ionization_Penalty_Neutral>
5.33217e-08

> <r_epik_State_Penalty>
-0

> <r_epik_Charging_Adjusted_Penalty>
3.17464e-07

> <i_epik_Tot_Q>
0

> <i_epik_Tot_abs_Q>
0

> <r_epik_Metal_State_Penalty>
-0

> <b_epik_Metal_Only>
0

> <s_lp_Force_Field>
OPLS_2005

> <r_lp_Energy>
20.0442

> <b_lp_Chiralities_Consistent>
1

> <s_lp_Variant>
AV-unprocessed.smi:2019-2

> <Gold.Version>
5.8.1

> <Gold.Id.Protein>
6NUR|6NUR_protein|mol2

> <Gold.PLP.Fitness>
48.3849

> <Gold.PLP.PLP>
-43.4341

> <Gold.PLP.part.hbond>
-2.0000

> <Gold.PLP.part.metal>
0.0000

> <Gold.PLP.part.buried>
-4.5822

> <Gold.PLP.part.nonpolar>
-37.7723

> <Gold.PLP.part.repulsive>
0.4100

> <Gold.PLP.ligand.clash>
0.0000

> <Gold.PLP.ligand.torsion>
0.2491

> <Gold.PLP.Chemscore.Hbond>
1.8160

> <Gold.PLP.Chemscore.CHOScore>
0.0000

> <Gold.PLP.Chemscore.Metal>
0.0000

> <Gold.Chemscore.Hbonds>
donor molecule, donor type, donor heavy atom, donor atom, acceptor molecule, acceptor atom, score
      L1  H    11    26       P1  8028  0.82
      P1  H  7989  7998       L1    19  1.00

> <Gold.PLP.Chemscore.Internal.Correction>
0.0009

> <Gold.Rescore>
     Score         DG    S(hbond)    S(metal)    S(lipo)     H(rot)  DE(clash)    DE(int)     intcor
     15.92     -17.38       1.94        0.00      81.34       1.59       0.01       1.45       ----

> <Gold.Chemscore.Fitness>
15.9177

> <Gold.Chemscore.DG>
-17.3840

> <Gold.Chemscore.ZeroCoef>
-5.4800

> <Gold.Chemscore.Hbond>
1.9365

> <Gold.Chemscore.Metal>
0.0000

> <Gold.Chemscore.Lipo>
81.3388

> <Gold.Chemscore.Internal_Hbond>
0.0000

> <Gold.Chemscore.DEClash>
0.0126

> <Gold.Chemscore.DEInternal>
1.4538

> <Gold.Chemscore.Rot>
1.5939

> <Gold.Chemscore.Internal.Correction>
   9.000000E+99

> <Gold.Chemscore.Hbonds>
donor molecule, donor type, donor heavy atom, donor atom, acceptor molecule, acceptor atom, score
      L1  H    11    26       P1  8028  0.81
      P1  H  7989  7998       L1    19  0.44

> <Gold.Chemscore.Hbond.Weighted>
-6.4678

> <Gold.Chemscore.Metal.Weighted>
-0.0000

> <Gold.Chemscore.Lipo.Weighted>
-9.5166

> <Gold.Chemscore.Internal_Hbond.Weighted>
0.0000

> <Gold.Chemscore.DEClash.Weighted>
0.0126

> <Gold.Chemscore.DEInternal.Weighted>
1.4538

> <Gold.Chemscore.Rot.Weighted>
4.0804

> <Gold.Chemscore.Internal.Correction.Weighted>
   9.000000E+99

> <Gold.Protein.RotatedTorsions>
[ 6907 6896 6895 6894 ] final  103.43 input  -60.11 | X-H torsion
[ 7974 7965 7964 7962 ] final -104.51 input  175.53 | X-H torsion
[ 8008 7997 7996 7995 ] final -121.71 input   59.86 | X-H torsion
[ 10167 10162 10161 10158 ] final -122.65 input  -65.29 | X-H torsion
[ 10718 10713 10712 10709 ] final  -81.93 input   66.30 | X-H torsion
[ 10763 10752 10751 10750 ] final  -32.19 input  -60.55 | X-H torsion
[ 11005 11000 10999 10996 ] final  -91.29 input  -57.11 | X-H torsion

> <Gold.Protein.ActiveResidues>
 VAL166  LYS551  ARG553  GLY616  TRP617  ASP618  TYR619  PRO620  LYS621  CYS622 
 ASP623  PHE694  ASN695  SER759  ASP760  ASP761  ALA762  ILE779  LEU786  VAL792 
 PHE793  MET794  SER795  GLU796  ALA797  LYS798  CYS799  TRP800  GLU811  SER814 

> <Gold.Protein.RotatedAtoms>
  152.5295  133.9827  159.7813 H   0  0  0  0  0  0  0  0  0  0  0  0  # atno 6907 bound_to 6896
  151.0078  133.5986  159.2693 H   0  0  0  0  0  0  0  0  0  0  0  0  # atno 6908 bound_to 6896
  151.3072  135.0791  159.9313 H   0  0  0  0  0  0  0  0  0  0  0  0  # atno 6909 bound_to 6896
  145.2422  140.9209  143.3143 H   0  0  0  0  0  0  0  0  0  0  0  0  # atno 7974 bound_to 7965
  155.1525  140.0404  157.2824 H   0  0  0  0  0  0  0  0  0  0  0  0  # atno 8008 bound_to 7997
  154.6394  140.2543  155.7313 H   0  0  0  0  0  0  0  0  0  0  0  0  # atno 8009 bound_to 7997
  156.2525  140.2859  156.0781 H   0  0  0  0  0  0  0  0  0  0  0  0  # atno 8010 bound_to 7997
  140.0120  143.5432  152.2259 H   0  0  0  0  0  0  0  0  0  0  0  0  # atno 10167 bound_to 10162
  156.0042  130.4618  150.4027 H   0  0  0  0  0  0  0  0  0  0  0  0  # atno 10718 bound_to 10713
  153.8097  135.6883  153.4843 H   0  0  0  0  0  0  0  0  0  0  0  0  # atno 10763 bound_to 10752
  153.1636  135.4570  154.9805 H   0  0  0  0  0  0  0  0  0  0  0  0  # atno 10764 bound_to 10752
  154.7972  135.3324  154.7578 H   0  0  0  0  0  0  0  0  0  0  0  0  # atno 10765 bound_to 10752
  141.1548  133.7746  156.9858 H   0  0  0  0  0  0  0  0  0  0  0  0  # atno 11005 bound_to 11000
  144.9578  139.4012  143.6370 LP  0  0  0  0  0  0  0  0  0  0  0  0  # atno 17320 bound_to 7965
  146.3325  139.8617  142.8855 LP  0  0  0  0  0  0  0  0  0  0  0  0  # atno 17321 bound_to 7965
  139.6198  144.7627  151.2765 LP  0  0  0  0  0  0  0  0  0  0  0  0  # atno 17342 bound_to 10162
  140.7377  143.6669  150.8116 LP  0  0  0  0  0  0  0  0  0  0  0  0  # atno 17343 bound_to 10162
  157.2095  131.0457  151.2607 LP  0  0  0  0  0  0  0  0  0  0  0  0  # atno 17370 bound_to 10713
  157.3902  130.7278  149.6692 LP  0  0  0  0  0  0  0  0  0  0  0  0  # atno 17371 bound_to 10713
  140.1035  134.9520  157.1959 LP  0  0  0  0  0  0  0  0  0  0  0  0  # atno 17394 bound_to 11000
  140.3287  134.2835  155.7232 LP  0  0  0  0  0  0  0  0  0  0  0  0  # atno 17395 bound_to 11000

$$$$
