AV-unprocessed.smi:2992|AV-procd|sdf|11401|dock4
  -GOLD-   2272016323D 1   1.00000     0.00000
 Structure written by MMmdl.
 46 47  0  0  0  0  0  0  0  0  1 V2000
  151.5303  145.4014  160.2457 C   0  0  0  0  0  0  0  0  0  0  0  0
  151.8505  144.1607  159.3849 C   0  0  0  0  0  0  0  0  0  0  0  0
  152.7297  144.6074  158.2008 C   0  0  0  0  0  0  0  0  0  0  0  0
  152.6509  143.1486  160.2331 C   0  0  0  0  0  0  0  0  0  0  0  0
  150.5597  143.5113  158.8076 C   0  0  0  0  0  0  0  0  0  0  0  0
  150.7688  142.2080  158.0255 C   0  0  0  0  0  0  0  0  0  0  0  0
  151.2140  141.2099  158.5915 O   0  0  0  0  0  0  0  0  0  0  0  0
  150.4336  142.2334  156.7263 N   0  0  0  0  0  0  0  0  0  0  0  0
  150.6165  141.1381  155.7809 C   0  0  0  0  0  0  0  0  0  0  0  0
  149.3359  140.7946  155.0396 C   0  0  0  0  0  0  0  0  0  0  0  0
  149.2521  139.6399  154.2361 C   0  0  0  0  0  0  0  0  0  0  0  0
  148.0466  139.3834  153.5583 C   0  0  0  0  0  0  0  0  0  0  0  0
  146.9654  140.1861  153.6427 N   0  0  0  0  0  0  0  0  0  0  0  0
  147.0303  141.2961  154.4196 C   0  0  0  0  0  0  0  0  0  0  0  0
  145.8896  142.1248  154.4991 N   0  0  0  0  0  0  0  0  0  0  0  0
  146.0556  143.4840  153.9895 C   0  0  0  0  0  0  0  0  0  0  0  0
  144.6873  144.1725  153.8437 C   0  0  0  0  0  0  0  0  0  0  0  0
  143.9891  144.1278  155.0835 O   0  0  0  0  0  0  0  0  0  0  0  0
  143.7400  142.7901  155.5015 C   0  0  0  0  0  0  0  0  0  0  0  0
  145.0754  142.0569  155.7114 C   0  0  0  0  0  0  0  0  0  0  0  0
  148.2065  141.6342  155.1315 C   0  0  0  0  0  0  0  0  0  0  0  0
  152.4420  145.9139  160.5547 H   0  0  0  0  0  0  0  0  0  0  0  0
  150.9915  145.1396  161.1566 H   0  0  0  0  0  0  0  0  0  0  0  0
  150.9217  146.1198  159.6953 H   0  0  0  0  0  0  0  0  0  0  0  0
  152.2142  145.3386  157.5769 H   0  0  0  0  0  0  0  0  0  0  0  0
  152.9980  143.7641  157.5633 H   0  0  0  0  0  0  0  0  0  0  0  0
  153.6581  145.0665  158.5427 H   0  0  0  0  0  0  0  0  0  0  0  0
  153.5979  143.5743  160.5665 H   0  0  0  0  0  0  0  0  0  0  0  0
  152.8798  142.2471  159.6638 H   0  0  0  0  0  0  0  0  0  0  0  0
  152.1060  142.8434  161.1271 H   0  0  0  0  0  0  0  0  0  0  0  0
  149.8635  143.2987  159.6203 H   0  0  0  0  0  0  0  0  0  0  0  0
  150.0457  144.2267  158.1633 H   0  0  0  0  0  0  0  0  0  0  0  0
  150.0667  143.0961  156.3518 H   0  0  0  0  0  0  0  0  0  0  0  0
  151.3993  141.3680  155.0563 H   0  0  0  0  0  0  0  0  0  0  0  0
  150.9649  140.2673  156.3371 H   0  0  0  0  0  0  0  0  0  0  0  0
  150.0905  138.9667  154.1348 H   0  0  0  0  0  0  0  0  0  0  0  0
  147.9478  138.5105  152.9302 H   0  0  0  0  0  0  0  0  0  0  0  0
  146.6832  144.0449  154.6833 H   0  0  0  0  0  0  0  0  0  0  0  0
  146.5612  143.4962  153.0251 H   0  0  0  0  0  0  0  0  0  0  0  0
  144.8210  145.2137  153.5498 H   0  0  0  0  0  0  0  0  0  0  0  0
  144.0936  143.6954  153.0622 H   0  0  0  0  0  0  0  0  0  0  0  0
  143.1714  142.8079  156.4313 H   0  0  0  0  0  0  0  0  0  0  0  0
  143.1249  142.2747  154.7620 H   0  0  0  0  0  0  0  0  0  0  0  0
  144.8786  141.0177  155.9776 H   0  0  0  0  0  0  0  0  0  0  0  0
  145.6227  142.5092  156.5395 H   0  0  0  0  0  0  0  0  0  0  0  0
  148.2565  142.5334  155.7270 H   0  0  0  0  0  0  0  0  0  0  0  0
  1  2  1  0  0  0  0
  1 22  1  0  0  0  0
  1 23  1  0  0  0  0
  1 24  1  0  0  0  0
  2  3  1  0  0  0  0
  2  4  1  0  0  0  0
  2  5  1  0  0  0  0
  3 25  1  0  0  0  0
  3 26  1  0  0  0  0
  3 27  1  0  0  0  0
  4 28  1  0  0  0  0
  4 29  1  0  0  0  0
  4 30  1  0  0  0  0
  5  6  1  0  0  0  0
  5 31  1  0  0  0  0
  5 32  1  0  0  0  0
  6  7  2  0  0  0  0
  6  8  1  0  0  0  0
  8  9  1  0  0  0  0
  8 33  1  0  0  0  0
  9 10  1  0  0  0  0
  9 34  1  0  0  0  0
  9 35  1  0  0  0  0
 10 21  1  0  0  0  0
 10 11  2  0  0  0  0
 11 12  1  0  0  0  0
 11 36  1  0  0  0  0
 12 13  2  0  0  0  0
 12 37  1  0  0  0  0
 13 14  1  0  0  0  0
 14 15  1  0  0  0  0
 14 21  2  0  0  0  0
 15 20  1  0  0  0  0
 15 16  1  0  0  0  0
 16 17  1  0  0  0  0
 16 38  1  0  0  0  0
 16 39  1  0  0  0  0
 17 18  1  0  0  0  0
 17 40  1  0  0  0  0
 17 41  1  0  0  0  0
 18 19  1  0  0  0  0
 19 20  1  0  0  0  0
 19 42  1  0  0  0  0
 19 43  1  0  0  0  0
 20 44  1  0  0  0  0
 20 45  1  0  0  0  0
 21 46  1  0  0  0  0
M  END
> <s_m_source_file>
AV-unprocessed.smi

> <i_m_source_file_index>
2992

> <i_lp_mmshare_version>
43012

> <i_f3d_flags>
0

> <s_epik_input>
W0NIM11DKFtDSDNdKShbQ0gzXSlbQ0gyXUMoPU8pW05IXVtDSDJdYzFbY0hdW2NIXW5jKFtjSF0xKU4yW0NIMl1bQ0gyXU9bQ0gyXVtDSDJdMg==

> <s_epik_cmdline>
J2VwaWtfcHl0aG9uJywgJy1waCcsICc3LjAnLCAnLXRuJywgJzgnLCAnLW1hJywgJzIwMCcsICctbWV0YWxfYmluZGluZycsICctaW1hZScsICc8aW5maWxlLm1hZT4nLCAnLW9tYWUnLCAnPG91dGZpbGUubWFlPic=

> <r_lp_tautomer_probability>
1

> <r_epik_Ionization_Penalty>
0.00548609

> <r_epik_Ionization_Penalty_Charging>
0

> <r_epik_Ionization_Penalty_Neutral>
0.00548609

> <r_epik_State_Penalty>
0.00401348

> <r_epik_Charging_Adjusted_Penalty>
0.00401348

> <i_epik_Tot_Q>
0

> <i_epik_Tot_abs_Q>
0

> <r_epik_Metal_State_Penalty>
-0

> <b_epik_Metal_Only>
0

> <s_lp_Force_Field>
OPLS_2005

> <r_lp_Energy>
16.2272

> <b_lp_Chiralities_Consistent>
1

> <s_lp_Variant>
AV-unprocessed.smi:2992-1

> <Gold.Version>
5.8.1

> <Gold.Id.Protein>
6NUR|6NUR_protein|mol2

> <Gold.PLP.Fitness>
48.2368

> <Gold.PLP.PLP>
-43.8522

> <Gold.PLP.part.hbond>
-0.9601

> <Gold.PLP.part.metal>
0.0000

> <Gold.PLP.part.buried>
-1.3028

> <Gold.PLP.part.nonpolar>
-41.4891

> <Gold.PLP.part.repulsive>
0.5413

> <Gold.PLP.ligand.clash>
0.0000

> <Gold.PLP.ligand.torsion>
0.3760

> <Gold.PLP.Chemscore.Hbond>
0.9263

> <Gold.PLP.Chemscore.CHOScore>
0.6573

> <Gold.PLP.Chemscore.Metal>
0.0000

> <Gold.Chemscore.Hbonds>
donor molecule, donor type, donor heavy atom, donor atom, acceptor molecule, acceptor atom, score
      L1  H     8    33       P1  8028  0.78
      L1  C    12    37       P1  7948  0.60
      L1  C    12    37       P1  7957  0.01

> <Gold.PLP.Chemscore.Internal.Correction>
0.3859

> <Gold.Rescore>
     Score         DG    S(hbond)    S(metal)    S(lipo)     H(rot)  DE(clash)    DE(int)     intcor
     16.35     -18.17       0.99        0.00     115.43       1.62       0.50       1.32       ----

> <Gold.Chemscore.Fitness>
16.3491

> <Gold.Chemscore.DG>
-18.1681

> <Gold.Chemscore.ZeroCoef>
-5.4800

> <Gold.Chemscore.Hbond>
0.9944

> <Gold.Chemscore.Metal>
0.0000

> <Gold.Chemscore.Lipo>
115.4265

> <Gold.Chemscore.Internal_Hbond>
0.0000

> <Gold.Chemscore.DEClash>
0.4951

> <Gold.Chemscore.DEInternal>
1.3240

> <Gold.Chemscore.Rot>
1.6164

> <Gold.Chemscore.Internal.Correction>
   9.000000E+99

> <Gold.Chemscore.Hbonds>
donor molecule, donor type, donor heavy atom, donor atom, acceptor molecule, acceptor atom, score
      L1  H     8    33       P1  8028  0.77

> <Gold.Chemscore.Hbond.Weighted>
-3.3214

> <Gold.Chemscore.Metal.Weighted>
-0.0000

> <Gold.Chemscore.Lipo.Weighted>
-13.5049

> <Gold.Chemscore.Internal_Hbond.Weighted>
0.0000

> <Gold.Chemscore.DEClash.Weighted>
0.4951

> <Gold.Chemscore.DEInternal.Weighted>
1.3240

> <Gold.Chemscore.Rot.Weighted>
4.1381

> <Gold.Chemscore.Internal.Correction.Weighted>
   9.000000E+99

> <Gold.Protein.RotatedTorsions>
[ 6907 6896 6895 6894 ] final   96.55 input  -60.11 | X-H torsion
[ 7974 7965 7964 7962 ] final  128.50 input  175.53 | X-H torsion
[ 8008 7997 7996 7995 ] final   41.82 input   59.86 | X-H torsion
[ 10167 10162 10161 10158 ] final   -0.26 input  -65.29 | X-H torsion
[ 10718 10713 10712 10709 ] final  133.39 input   66.30 | X-H torsion
[ 10763 10752 10751 10750 ] final  132.99 input  -60.55 | X-H torsion
[ 11005 11000 10999 10996 ] final  -81.22 input  -57.11 | X-H torsion

> <Gold.Protein.ActiveResidues>
 VAL166  LYS551  ARG553  GLY616  TRP617  ASP618  TYR619  PRO620  LYS621  CYS622 
 ASP623  PHE694  ASN695  SER759  ASP760  ASP761  ALA762  ILE779  LEU786  VAL792 
 PHE793  MET794  SER795  GLU796  ALA797  LYS798  CYS799  TRP800  GLU811  SER814 

> <Gold.Protein.RotatedAtoms>
  152.5433  134.0868  159.8259 H   0  0  0  0  0  0  0  0  0  0  0  0  # atno 6907 bound_to 6896
  151.0963  133.5270  159.2619 H   0  0  0  0  0  0  0  0  0  0  0  0  # atno 6908 bound_to 6896
  151.2042  135.0464  159.8939 H   0  0  0  0  0  0  0  0  0  0  0  0  # atno 6909 bound_to 6896
  145.0389  139.3981  143.5112 H   0  0  0  0  0  0  0  0  0  0  0  0  # atno 7974 bound_to 7965
  155.2760  140.3369  155.4261 H   0  0  0  0  0  0  0  0  0  0  0  0  # atno 8008 bound_to 7997
  156.2111  140.1770  156.7733 H   0  0  0  0  0  0  0  0  0  0  0  0  # atno 8009 bound_to 7997
  154.5688  140.0674  156.8917 H   0  0  0  0  0  0  0  0  0  0  0  0  # atno 8010 bound_to 7997
  140.6760  143.6915  150.8023 H   0  0  0  0  0  0  0  0  0  0  0  0  # atno 10167 bound_to 10162
  157.4778  131.1084  150.9721 H   0  0  0  0  0  0  0  0  0  0  0  0  # atno 10718 bound_to 10713
  153.7998  135.3143  155.3389 H   0  0  0  0  0  0  0  0  0  0  0  0  # atno 10763 bound_to 10752
  154.8093  135.4677  154.0478 H   0  0  0  0  0  0  0  0  0  0  0  0  # atno 10764 bound_to 10752
  153.1822  135.6895  153.8550 H   0  0  0  0  0  0  0  0  0  0  0  0  # atno 10765 bound_to 10752
  141.1667  133.7186  156.8390 H   0  0  0  0  0  0  0  0  0  0  0  0  # atno 11005 bound_to 11000
  146.3507  139.9979  142.8679 LP  0  0  0  0  0  0  0  0  0  0  0  0  # atno 17320 bound_to 7965
  145.1674  140.9703  143.4342 LP  0  0  0  0  0  0  0  0  0  0  0  0  # atno 17321 bound_to 7965
  140.0608  143.5156  152.2628 LP  0  0  0  0  0  0  0  0  0  0  0  0  # atno 17342 bound_to 10162
  139.6052  144.7594  151.3078 LP  0  0  0  0  0  0  0  0  0  0  0  0  # atno 17343 bound_to 10162
  157.0465  130.5770  149.5364 LP  0  0  0  0  0  0  0  0  0  0  0  0  # atno 17370 bound_to 10713
  156.0105  130.5197  150.7974 LP  0  0  0  0  0  0  0  0  0  0  0  0  # atno 17371 bound_to 10713
  140.1997  134.8906  157.3154 LP  0  0  0  0  0  0  0  0  0  0  0  0  # atno 17394 bound_to 11000
  140.2201  134.4034  155.7570 LP  0  0  0  0  0  0  0  0  0  0  0  0  # atno 17395 bound_to 11000

$$$$
