AV-unprocessed.smi:2198|AV-procd|sdf|8914|dock8
  -GOLD-   2272012133D 1   1.00000     0.00000
 Structure written by MMmdl.
 43 44  0  0  0  0  0  0  0  0  1 V2000
  151.7206  143.1889  156.8833 C   0  0  0  0  0  0  0  0  0  0  0  0
  151.2276  141.9591  156.1501 C   0  0  0  0  0  0  0  0  0  0  0  0
  151.8717  140.8396  156.1055 N   0  0  0  0  0  0  0  0  0  0  0  0
  151.3163  139.7694  155.3898 C   0  0  0  0  0  0  0  0  0  0  0  0
  152.1368  138.4907  155.3835 C   0  0  0  0  0  0  0  0  0  0  0  0
  150.1175  139.8844  154.7459 C   0  0  0  0  0  0  0  0  0  0  0  0
  149.4867  138.7396  153.9555 C   0  0  0  0  0  0  0  0  0  0  0  0
  148.0324  138.4253  154.3090 C   0  0  0  0  0  0  0  0  0  0  0  0
  147.4523  139.0868  155.1696 O   0  0  0  0  0  0  0  0  0  0  0  0
  147.4590  137.4125  153.6412 N   0  0  0  0  0  0  0  0  0  0  0  0
  146.0862  136.9439  153.8191 C   0  0  1  0  0  0  0  0  0  0  0  0
  145.2236  137.2546  152.5778 C   0  0  0  0  0  0  0  0  0  0  0  0
  145.6139  136.3871  151.3692 C   0  0  0  0  0  0  0  0  0  0  0  0
  145.5666  134.8913  151.7173 C   0  0  0  0  0  0  0  0  0  0  0  0
  146.4616  134.5634  152.9276 C   0  0  2  0  0  0  0  0  0  0  0  0
  146.4091  133.0687  153.2740 C   0  0  0  0  0  0  0  0  0  0  0  0
  146.0730  135.4358  154.1402 C   0  0  0  0  0  0  0  0  0  0  0  0
  149.3887  141.1664  154.8070 C   0  0  0  0  0  0  0  0  0  0  0  0
  148.3018  141.3778  154.2716 O   0  0  0  0  0  0  0  0  0  0  0  0
  150.0002  142.1420  155.5155 N   0  0  0  0  0  0  0  0  0  0  0  0
  149.5409  143.0385  155.5858 H   0  0  0  0  0  0  0  0  0  0  0  0
  151.8416  142.9700  157.9444 H   0  0  0  0  0  0  0  0  0  0  0  0
  151.0255  144.0238  156.7834 H   0  0  0  0  0  0  0  0  0  0  0  0
  152.6864  143.5007  156.4854 H   0  0  0  0  0  0  0  0  0  0  0  0
  152.3813  138.1929  154.3641 H   0  0  0  0  0  0  0  0  0  0  0  0
  151.5874  137.6802  155.8623 H   0  0  0  0  0  0  0  0  0  0  0  0
  153.0751  138.6205  155.9241 H   0  0  0  0  0  0  0  0  0  0  0  0
  149.5367  138.9403  152.8848 H   0  0  0  0  0  0  0  0  0  0  0  0
  150.0940  137.8442  154.0915 H   0  0  0  0  0  0  0  0  0  0  0  0
  148.0168  136.9258  152.9547 H   0  0  0  0  0  0  0  0  0  0  0  0
  145.6580  137.4658  154.6769 H   0  0  0  0  0  0  0  0  0  0  0  0
  144.1757  137.0732  152.8196 H   0  0  0  0  0  0  0  0  0  0  0  0
  145.2939  138.3115  152.3180 H   0  0  0  0  0  0  0  0  0  0  0  0
  144.9439  136.5937  150.5342 H   0  0  0  0  0  0  0  0  0  0  0  0
  146.6161  136.6535  151.0312 H   0  0  0  0  0  0  0  0  0  0  0  0
  144.5367  134.6012  151.9301 H   0  0  0  0  0  0  0  0  0  0  0  0
  145.8788  134.3057  150.8518 H   0  0  0  0  0  0  0  0  0  0  0  0
  147.4922  134.7967  152.6563 H   0  0  0  0  0  0  0  0  0  0  0  0
  145.4008  132.7607  153.5528 H   0  0  0  0  0  0  0  0  0  0  0  0
  147.0711  132.8356  154.1083 H   0  0  0  0  0  0  0  0  0  0  0  0
  146.7205  132.4583  152.4258 H   0  0  0  0  0  0  0  0  0  0  0  0
  146.7384  135.2300  154.9798 H   0  0  0  0  0  0  0  0  0  0  0  0
  145.0728  135.1570  154.4744 H   0  0  0  0  0  0  0  0  0  0  0  0
  1  2  1  0  0  0  0
  1 22  1  0  0  0  0
  1 23  1  0  0  0  0
  1 24  1  0  0  0  0
  2 20  1  0  0  0  0
  2  3  2  0  0  0  0
  3  4  1  0  0  0  0
  4  5  1  0  0  0  0
  4  6  2  0  0  0  0
  5 25  1  0  0  0  0
  5 26  1  0  0  0  0
  5 27  1  0  0  0  0
  6  7  1  0  0  0  0
  6 18  1  0  0  0  0
  7  8  1  0  0  0  0
  7 28  1  0  0  0  0
  7 29  1  0  0  0  0
  8  9  2  0  0  0  0
  8 10  1  0  0  0  0
 10 11  1  0  0  0  0
 10 30  1  0  0  0  0
 11 17  1  0  0  0  0
 11 12  1  0  0  0  0
 11 31  1  0  0  0  0
 12 13  1  0  0  0  0
 12 32  1  0  0  0  0
 12 33  1  0  0  0  0
 13 14  1  0  0  0  0
 13 34  1  0  0  0  0
 13 35  1  0  0  0  0
 14 15  1  0  0  0  0
 14 36  1  0  0  0  0
 14 37  1  0  0  0  0
 15 16  1  0  0  0  0
 15 17  1  0  0  0  0
 15 38  1  0  0  0  0
 16 39  1  0  0  0  0
 16 40  1  0  0  0  0
 16 41  1  0  0  0  0
 17 42  1  0  0  0  0
 17 43  1  0  0  0  0
 18 19  2  0  0  0  0
 18 20  1  0  0  0  0
 20 21  1  0  0  0  0
M  END
> <s_m_source_file>
AV-unprocessed.smi

> <i_m_source_file_index>
2198

> <i_lp_mmshare_version>
43012

> <i_f3d_flags>
0

> <s_epik_input>
W0NIM11jMW5jKFtDSDNdKWMoYyg9TylbbkhdMSlbQ0gyXUMoPU8pW05IXVtDQEBIXTJbQ0gyXVtDSDJdW0NIMl1bQ0BASF0oW0NIM10pW0NIMl0y

> <s_epik_cmdline>
J2VwaWtfcHl0aG9uJywgJy1waCcsICc3LjAnLCAnLXRuJywgJzgnLCAnLW1hJywgJzIwMCcsICctbWV0YWxfYmluZGluZycsICctaW1hZScsICc8aW5maWxlLm1hZT4nLCAnLW9tYWUnLCAnPG91dGZpbGUubWFlPic=

> <r_lp_tautomer_probability>
0.839158

> <r_epik_Ionization_Penalty>
0.000372587

> <r_epik_Ionization_Penalty_Charging>
0.000337977

> <r_epik_Ionization_Penalty_Neutral>
3.46101e-05

> <r_epik_State_Penalty>
0.09125

> <r_epik_Charging_Adjusted_Penalty>
0.091588

> <i_epik_Tot_Q>
0

> <i_epik_Tot_abs_Q>
0

> <r_epik_Metal_State_Penalty>
0.25197

> <b_epik_Metal_Only>
0

> <s_lp_Force_Field>
OPLS_2005

> <r_lp_Energy>
10.5346

> <b_lp_Chiralities_Consistent>
1

> <s_lp_Variant>
AV-unprocessed.smi:2198-4

> <Gold.Version>
5.8.1

> <Gold.Id.Protein>
6NUR|6NUR_protein|mol2

> <Gold.PLP.Fitness>
35.4775

> <Gold.PLP.PLP>
-29.7188

> <Gold.PLP.part.hbond>
-2.0000

> <Gold.PLP.part.metal>
0.0000

> <Gold.PLP.part.buried>
-3.4747

> <Gold.PLP.part.nonpolar>
-24.5537

> <Gold.PLP.part.repulsive>
0.3023

> <Gold.PLP.ligand.clash>
0.0000

> <Gold.PLP.ligand.torsion>
0.1245

> <Gold.PLP.Chemscore.Hbond>
2.0000

> <Gold.PLP.Chemscore.CHOScore>
0.0000

> <Gold.PLP.Chemscore.Metal>
0.0000

> <Gold.Chemscore.Hbonds>
donor molecule, donor type, donor heavy atom, donor atom, acceptor molecule, acceptor atom, score
      L1  H    10    30       P1  7948  1.00
      L1  H    20    21       P1  8028  1.00

> <Gold.PLP.Chemscore.Internal.Correction>
0.0075

> <Gold.Rescore>
     Score         DG    S(hbond)    S(metal)    S(lipo)     H(rot)  DE(clash)    DE(int)     intcor
     15.45     -15.70       2.02        0.00      62.02       1.48       0.14       0.11       ----

> <Gold.Chemscore.Fitness>
15.4486

> <Gold.Chemscore.DG>
-15.6989

> <Gold.Chemscore.ZeroCoef>
-5.4800

> <Gold.Chemscore.Hbond>
2.0215

> <Gold.Chemscore.Metal>
0.0000

> <Gold.Chemscore.Lipo>
62.0180

> <Gold.Chemscore.Internal_Hbond>
0.0000

> <Gold.Chemscore.DEClash>
0.1406

> <Gold.Chemscore.DEInternal>
0.1097

> <Gold.Chemscore.Rot>
1.4801

> <Gold.Chemscore.Internal.Correction>
   9.000000E+99

> <Gold.Chemscore.Hbonds>
donor molecule, donor type, donor heavy atom, donor atom, acceptor molecule, acceptor atom, score
      L1  H    10    30       P1  7948  0.98
      L1  H    20    21       P1  8028  1.00

> <Gold.Chemscore.Hbond.Weighted>
-6.7519

> <Gold.Chemscore.Metal.Weighted>
-0.0000

> <Gold.Chemscore.Lipo.Weighted>
-7.2561

> <Gold.Chemscore.Internal_Hbond.Weighted>
0.0000

> <Gold.Chemscore.DEClash.Weighted>
0.1406

> <Gold.Chemscore.DEInternal.Weighted>
0.1097

> <Gold.Chemscore.Rot.Weighted>
3.7891

> <Gold.Chemscore.Internal.Correction.Weighted>
   9.000000E+99

> <Gold.Protein.RotatedTorsions>
[ 6907 6896 6895 6894 ] final  141.41 input  -60.11 | X-H torsion
[ 7974 7965 7964 7962 ] final   74.37 input  175.53 | X-H torsion
[ 8008 7997 7996 7995 ] final   28.59 input   59.86 | X-H torsion
[ 10167 10162 10161 10158 ] final -158.11 input  -65.29 | X-H torsion
[ 10718 10713 10712 10709 ] final  -50.48 input   66.30 | X-H torsion
[ 10763 10752 10751 10750 ] final -124.65 input  -60.55 | X-H torsion
[ 11005 11000 10999 10996 ] final  154.40 input  -57.11 | X-H torsion

> <Gold.Protein.ActiveResidues>
 VAL166  LYS551  ARG553  GLY616  TRP617  ASP618  TYR619  PRO620  LYS621  CYS622 
 ASP623  PHE694  ASN695  SER759  ASP760  ASP761  ALA762  ILE779  LEU786  VAL792 
 PHE793  MET794  SER795  GLU796  ALA797  LYS798  CYS799  TRP800  GLU811  SER814 

> <Gold.Protein.RotatedAtoms>
  152.2313  133.5060  159.5216 H   0  0  0  0  0  0  0  0  0  0  0  0  # atno 6907 bound_to 6896
  150.7038  134.1213  159.4045 H   0  0  0  0  0  0  0  0  0  0  0  0  # atno 6908 bound_to 6896
  151.9134  135.0329  160.0567 H   0  0  0  0  0  0  0  0  0  0  0  0  # atno 6909 bound_to 6896
  145.7292  139.2677  143.1551 H   0  0  0  0  0  0  0  0  0  0  0  0  # atno 7974 bound_to 7965
  155.0611  140.3190  155.4660 H   0  0  0  0  0  0  0  0  0  0  0  0  # atno 8008 bound_to 7997
  156.2813  140.2128  156.5683 H   0  0  0  0  0  0  0  0  0  0  0  0  # atno 8009 bound_to 7997
  154.7131  140.0496  157.0556 H   0  0  0  0  0  0  0  0  0  0  0  0  # atno 8010 bound_to 7997
  139.6718  143.9733  152.2288 H   0  0  0  0  0  0  0  0  0  0  0  0  # atno 10167 bound_to 10162
  156.1797  130.4150  149.9525 H   0  0  0  0  0  0  0  0  0  0  0  0  # atno 10718 bound_to 10713
  154.8726  135.4056  154.3140 H   0  0  0  0  0  0  0  0  0  0  0  0  # atno 10763 bound_to 10752
  153.3979  135.7017  153.6452 H   0  0  0  0  0  0  0  0  0  0  0  0  # atno 10764 bound_to 10752
  153.5207  135.3688  155.2601 H   0  0  0  0  0  0  0  0  0  0  0  0  # atno 10765 bound_to 10752
  140.1486  134.8690  157.2425 H   0  0  0  0  0  0  0  0  0  0  0  0  # atno 11005 bound_to 11000
  146.0554  140.8026  142.9761 LP  0  0  0  0  0  0  0  0  0  0  0  0  # atno 17320 bound_to 7965
  144.6897  140.3115  143.7247 LP  0  0  0  0  0  0  0  0  0  0  0  0  # atno 17321 bound_to 7965
  139.9499  144.6627  150.8182 LP  0  0  0  0  0  0  0  0  0  0  0  0  # atno 17342 bound_to 10162
  140.7621  143.3189  151.2668 LP  0  0  0  0  0  0  0  0  0  0  0  0  # atno 17343 bound_to 10162
  156.7299  130.9039  151.3625 LP  0  0  0  0  0  0  0  0  0  0  0  0  # atno 17370 bound_to 10713
  157.6860  130.9186  150.0387 LP  0  0  0  0  0  0  0  0  0  0  0  0  # atno 17371 bound_to 10713
  140.2633  134.3546  155.7399 LP  0  0  0  0  0  0  0  0  0  0  0  0  # atno 17394 bound_to 11000
  141.2196  133.7381  156.9112 LP  0  0  0  0  0  0  0  0  0  0  0  0  # atno 17395 bound_to 11000

$$$$
