AV-unprocessed.smi:39|AV-procd|sdf|361|dock1
  -GOLD-   2262016203D 1   1.00000     0.00000
 Structure written by MMmdl.
 31 32  0  0  0  0  0  0  0  0  4 V2000
  152.7003  143.6866  162.0804 C   0  0  0  0  0  0  0  0  0  0  0  0
  152.4482  142.9789  160.7606 C   0  0  0  0  0  0  0  0  0  0  0  0
  152.7938  141.6886  160.5560 C   0  0  0  0  0  0  0  0  0  0  0  0
  152.5630  141.0403  159.3546 N   0  0  0  0  0  0  0  0  0  0  0  0
  152.8916  139.5673  159.2109 C   0  0  1  0  0  0  0  0  0  0  0  0
  151.6663  138.6464  159.2189 C   0  0  0  0  0  0  0  0  0  0  0  0
  152.2199  137.4667  158.4399 C   0  0  1  0  0  0  0  0  0  0  0  0
  151.1942  136.5941  157.8589 N   0  0  0  0  0  0  0  0  0  0  0  0
  151.5963  135.6816  157.1255 N   0  3  0  0  0  0  0  0  0  0  0  0
  151.9242  134.7635  156.5383 N   0  5  0  0  0  0  0  0  0  0  0  0
  153.1371  138.1541  157.4072 C   0  0  1  0  0  0  0  0  0  0  0  0
  152.5754  138.4422  155.9962 C   0  0  0  0  0  0  0  0  0  0  0  0
  153.5504  138.9246  155.0945 O   0  0  0  0  0  0  0  0  0  0  0  0
  153.5585  139.3827  157.9999 O   0  0  0  0  0  0  0  0  0  0  0  0
  151.8466  141.7194  158.3302 C   0  0  0  0  0  0  0  0  0  0  0  0
  151.5603  141.1048  157.3028 O   0  0  0  0  0  0  0  0  0  0  0  0
  151.5098  143.0275  158.5200 N   0  5  0  0  0  0  0  0  0  0  0  0
  151.7883  143.7043  159.6702 C   0  0  0  0  0  0  0  0  0  0  0  0
  151.4989  144.8915  159.8181 O   0  0  0  0  0  0  0  0  0  0  0  0
  153.5665  139.2880  160.0193 H   0  0  0  0  0  0  0  0  0  0  0  0
  152.8598  136.8925  159.1139 H   0  0  0  0  0  0  0  0  0  0  0  0
  154.0299  137.5408  157.2786 H   0  0  0  0  0  0  0  0  0  0  0  0
  153.1916  143.0269  162.7963 H   0  0  0  0  0  0  0  0  0  0  0  0
  151.7595  144.0199  162.5191 H   0  0  0  0  0  0  0  0  0  0  0  0
  153.3392  144.5573  161.9299 H   0  0  0  0  0  0  0  0  0  0  0  0
  153.2478  141.1486  161.3709 H   0  0  0  0  0  0  0  0  0  0  0  0
  151.3694  138.4001  160.2386 H   0  0  0  0  0  0  0  0  0  0  0  0
  150.8170  139.0886  158.7018 H   0  0  0  0  0  0  0  0  0  0  0  0
  152.1175  137.5440  155.5816 H   0  0  0  0  0  0  0  0  0  0  0  0
  151.7881  139.1933  156.0626 H   0  0  0  0  0  0  0  0  0  0  0  0
  154.1203  138.2093  154.8575 H   0  0  0  0  0  0  0  0  0  0  0  0
  1  2  1  0  0  0  0
  1 23  1  0  0  0  0
  1 24  1  0  0  0  0
  1 25  1  0  0  0  0
  2 18  1  0  0  0  0
  2  3  2  0  0  0  0
  3  4  1  0  0  0  0
  3 26  1  0  0  0  0
  4  5  1  0  0  0  0
  4 15  1  0  0  0  0
  5 20  1  0  0  0  0
  5 14  1  0  0  0  0
  5  6  1  0  0  0  0
  6  7  1  0  0  0  0
  6 27  1  0  0  0  0
  6 28  1  0  0  0  0
  7 21  1  0  0  0  0
  7  8  1  0  0  0  0
  7 11  1  0  0  0  0
  8  9  2  0  0  0  0
  9 10  2  0  0  0  0
 11 22  1  0  0  0  0
 11 12  1  0  0  0  0
 11 14  1  0  0  0  0
 12 13  1  0  0  0  0
 12 29  1  0  0  0  0
 12 30  1  0  0  0  0
 13 31  1  0  0  0  0
 15 16  2  0  0  0  0
 15 17  1  0  0  0  0
 17 18  1  0  0  0  0
 18 19  2  0  0  0  0
M  CHG  1   9   1
M  CHG  1  10  -1
M  CHG  1  17  -1
M  END
> <s_m_source_file>
AV-unprocessed.smi

> <i_m_source_file_index>
39

> <i_lp_mmshare_version>
43012

> <i_f3d_flags>
0

> <s_epik_input>
Tz1jMVtuSF1jKD1PKW4oW2NIXWMxW0NIM10pW0NASF0yW0NIMl1bQ0BIXShOPVtOK109W04tXSlbQ0BIXShPMilbQ0gyXVtPSF0=

> <s_epik_cmdline>
J2VwaWtfcHl0aG9uJywgJy1waCcsICc3LjAnLCAnLXRuJywgJzgnLCAnLW1hJywgJzIwMCcsICctbWV0YWxfYmluZGluZycsICctaW1hZScsICc8aW5maWxlLm1hZT4nLCAnLW9tYWUnLCAnPG91dGZpbGUubWFlPic=

> <r_lp_tautomer_probability>
0.999537

> <r_epik_Ionization_Penalty>
3.6393

> <r_epik_Ionization_Penalty_Charging>
9.76484e-08

> <r_epik_Ionization_Penalty_Neutral>
3.6393

> <r_epik_State_Penalty>
3.63887

> <r_epik_Charging_Adjusted_Penalty>
3.63887

> <i_epik_Tot_Q>
-1

> <i_epik_Tot_abs_Q>
3

> <r_epik_Metal_State_Penalty>
0.225911

> <b_epik_Metal_Only>
1

> <s_epik_Chemistry_Notes>
This compound contains an acetal/aminal-like group ( X-CH(R)-Y where X, Y are N, S, or O) that may be acid/base labile, releasing an aldehyde.

> <s_lp_Force_Field>
OPLS_2005

> <r_lp_Energy>
41.1751

> <b_lp_Chiralities_Consistent>
1

> <s_lp_Variant>
AV-unprocessed.smi:39-11

> <Gold.Version>
5.8.1

> <Gold.Id.Protein>
6NUR|6NUR_protein|mol2

> <Gold.PLP.Fitness>
39.6368

> <Gold.PLP.PLP>
-32.4324

> <Gold.PLP.part.hbond>
-3.8556

> <Gold.PLP.part.metal>
0.0000

> <Gold.PLP.part.buried>
-5.8515

> <Gold.PLP.part.nonpolar>
-21.5256

> <Gold.PLP.part.repulsive>
0.1424

> <Gold.PLP.ligand.clash>
0.0000

> <Gold.PLP.ligand.torsion>
0.2599

> <Gold.PLP.Chemscore.Hbond>
2.5440

> <Gold.PLP.Chemscore.CHOScore>
0.0000

> <Gold.PLP.Chemscore.Metal>
0.0000

> <Gold.Chemscore.Hbonds>
donor molecule, donor type, donor heavy atom, donor atom, acceptor molecule, acceptor atom, score
      P1  H  7997  8008       L1    14  0.70
      P1  H  7997  8009       L1    13  0.88
      P1  H 10752 10763       L1    10  0.94

> <Gold.PLP.Chemscore.Internal.Correction>
0.0921

> <Gold.Rescore>
     Score         DG    S(hbond)    S(metal)    S(lipo)     H(rot)  DE(clash)    DE(int)     intcor
     10.22     -12.06       2.15        0.00      54.16       2.72       0.01       1.83       ----

> <Gold.Chemscore.Fitness>
10.2216

> <Gold.Chemscore.DG>
-12.0587

> <Gold.Chemscore.ZeroCoef>
-5.4800

> <Gold.Chemscore.Hbond>
2.1536

> <Gold.Chemscore.Metal>
0.0000

> <Gold.Chemscore.Lipo>
54.1614

> <Gold.Chemscore.Internal_Hbond>
0.0000

> <Gold.Chemscore.DEClash>
0.0077

> <Gold.Chemscore.DEInternal>
1.8293

> <Gold.Chemscore.Rot>
2.7153

> <Gold.Chemscore.Internal.Correction>
   9.000000E+99

> <Gold.Chemscore.Hbonds>
donor molecule, donor type, donor heavy atom, donor atom, acceptor molecule, acceptor atom, score
      P1  H  7997  8008       L1    14  0.60
      P1  H  7997  8009       L1    13  0.41
      P1  H 10752 10763       L1    10  0.52

> <Gold.Chemscore.Hbond.Weighted>
-7.1930

> <Gold.Chemscore.Metal.Weighted>
-0.0000

> <Gold.Chemscore.Lipo.Weighted>
-6.3369

> <Gold.Chemscore.Internal_Hbond.Weighted>
0.0000

> <Gold.Chemscore.DEClash.Weighted>
0.0077

> <Gold.Chemscore.DEInternal.Weighted>
1.8293

> <Gold.Chemscore.Rot.Weighted>
6.9512

> <Gold.Chemscore.Internal.Correction.Weighted>
   9.000000E+99

> <Gold.Protein.RotatedTorsions>
[ 6907 6896 6895 6894 ] final   25.26 input  -60.11 | X-H torsion
[ 7974 7965 7964 7962 ] final   24.56 input  175.53 | X-H torsion
[ 8008 7997 7996 7995 ] final -118.04 input   59.86 | X-H torsion
[ 10167 10162 10161 10158 ] final  -75.83 input  -65.29 | X-H torsion
[ 10718 10713 10712 10709 ] final  -31.97 input   66.30 | X-H torsion
[ 10763 10752 10751 10750 ] final   99.24 input  -60.55 | X-H torsion
[ 11005 11000 10999 10996 ] final -121.07 input  -57.11 | X-H torsion

> <Gold.Protein.ActiveResidues>
 VAL166  LYS551  ARG553  GLY616  TRP617  ASP618  TYR619  PRO620  LYS621  CYS622 
 ASP623  PHE694  ASN695  SER759  ASP760  ASP761  ALA762  ILE779  LEU786  VAL792 
 PHE793  MET794  SER795  GLU796  ALA797  LYS798  CYS799  TRP800  GLU811  SER814 

> <Gold.Protein.RotatedAtoms>
  151.9698  135.0082  160.0551 H   0  0  0  0  0  0  0  0  0  0  0  0  # atno 6907 bound_to 6896
  152.1793  133.4691  159.4958 H   0  0  0  0  0  0  0  0  0  0  0  0  # atno 6908 bound_to 6896
  150.6914  134.1771  159.4277 H   0  0  0  0  0  0  0  0  0  0  0  0  # atno 6909 bound_to 6896
  146.1931  139.7587  142.8817 H   0  0  0  0  0  0  0  0  0  0  0  0  # atno 7974 bound_to 7965
  155.0933  140.0395  157.2675 H   0  0  0  0  0  0  0  0  0  0  0  0  # atno 8008 bound_to 7997
  154.6814  140.2634  155.6879 H   0  0  0  0  0  0  0  0  0  0  0  0  # atno 8009 bound_to 7997
  156.2696  140.2777  156.1360 H   0  0  0  0  0  0  0  0  0  0  0  0  # atno 8010 bound_to 7997
  140.4909  143.2380  151.7909 H   0  0  0  0  0  0  0  0  0  0  0  0  # atno 10167 bound_to 10162
  156.3806  130.4355  149.7472 H   0  0  0  0  0  0  0  0  0  0  0  0  # atno 10718 bound_to 10713
  153.2990  135.4120  155.1235 H   0  0  0  0  0  0  0  0  0  0  0  0  # atno 10763 bound_to 10752
  154.8543  135.3536  154.5878 H   0  0  0  0  0  0  0  0  0  0  0  0  # atno 10764 bound_to 10752
  153.6303  135.7061  153.5336 H   0  0  0  0  0  0  0  0  0  0  0  0  # atno 10765 bound_to 10752
  141.0097  134.0282  157.3430 H   0  0  0  0  0  0  0  0  0  0  0  0  # atno 11005 bound_to 11000
  145.3729  141.0346  143.3221 LP  0  0  0  0  0  0  0  0  0  0  0  0  # atno 17320 bound_to 7965
  144.8526  139.5298  143.6849 LP  0  0  0  0  0  0  0  0  0  0  0  0  # atno 17321 bound_to 7965
  139.4851  144.4650  151.9494 LP  0  0  0  0  0  0  0  0  0  0  0  0  # atno 17342 bound_to 10162
  140.3737  144.2823  150.5916 LP  0  0  0  0  0  0  0  0  0  0  0  0  # atno 17343 bound_to 10162
  156.4564  130.7931  151.2952 LP  0  0  0  0  0  0  0  0  0  0  0  0  # atno 17370 bound_to 10713
  157.7492  131.0079  150.3210 LP  0  0  0  0  0  0  0  0  0  0  0  0  # atno 17371 bound_to 10713
  139.9083  135.0185  156.7582 LP  0  0  0  0  0  0  0  0  0  0  0  0  # atno 17394 bound_to 11000
  140.6754  133.9522  155.7880 LP  0  0  0  0  0  0  0  0  0  0  0  0  # atno 17395 bound_to 11000

$$$$
