AV-unprocessed.smi:3090|AV-procd|sdf|11775|dock7
  -GOLD-   2272017153D 1   1.00000     0.00000
 Structure written by MMmdl.
 22 22  0  0  0  0  0  0  0  0  2 V2000
  152.0273  142.2688  158.2357 C   0  0  0  0  0  0  0  0  0  0  0  0
  151.4285  141.3912  157.2532 N   0  0  0  0  0  0  0  0  0  0  0  0
  150.4036  141.6583  156.3718 C   0  0  0  0  0  0  0  0  0  0  0  0
  150.1808  140.5229  155.6422 C   0  0  0  0  0  0  0  0  0  0  0  0
  149.1818  140.2746  154.5428 C   0  0  1  0  0  0  0  0  0  0  0  0
  149.5114  140.9980  153.3733 O   0  0  0  0  0  0  0  0  0  0  0  0
  149.1245  138.7780  154.1899 C   0  0  0  0  0  0  0  0  0  0  0  0
  148.4057  138.5402  152.9259 N   0  3  0  0  0  0  0  0  0  0  0  0
  151.1391  139.6067  156.1634 C   0  0  0  0  0  0  0  0  0  0  0  0
  151.8827  140.1282  157.1249 N   0  0  0  0  0  0  0  0  0  0  0  0
  151.5473  143.2474  158.2058 H   0  0  0  0  0  0  0  0  0  0  0  0
  153.0903  142.3893  158.0247 H   0  0  0  0  0  0  0  0  0  0  0  0
  151.9050  141.8449  159.2329 H   0  0  0  0  0  0  0  0  0  0  0  0
  149.9220  142.6247  156.3357 H   0  0  0  0  0  0  0  0  0  0  0  0
  148.1913  140.6043  154.8592 H   0  0  0  0  0  0  0  0  0  0  0  0
  149.4182  140.4232  152.6282 H   0  0  0  0  0  0  0  0  0  0  0  0
  150.1285  138.3579  154.1153 H   0  0  0  0  0  0  0  0  0  0  0  0
  148.6071  138.2281  154.9769 H   0  0  0  0  0  0  0  0  0  0  0  0
  148.6648  139.2455  152.2510 H   0  0  0  0  0  0  0  0  0  0  0  0
  147.4111  138.5854  153.0971 H   0  0  0  0  0  0  0  0  0  0  0  0
  151.3158  138.5821  155.8703 H   0  0  0  0  0  0  0  0  0  0  0  0
  148.6439  137.6260  152.5690 H   0  0  0  0  0  0  0  0  0  0  0  0
  1  2  1  0  0  0  0
  1 11  1  0  0  0  0
  1 12  1  0  0  0  0
  1 13  1  0  0  0  0
  2 10  1  0  0  0  0
  2  3  1  0  0  0  0
  3  4  2  0  0  0  0
  3 14  1  0  0  0  0
  4  5  1  0  0  0  0
  4  9  1  0  0  0  0
  5  6  1  0  0  0  0
  5  7  1  0  0  0  0
  5 15  1  0  0  0  0
  6 16  1  0  0  0  0
  7  8  1  0  0  0  0
  7 17  1  0  0  0  0
  7 18  1  0  0  0  0
  8 19  1  0  0  0  0
  8 20  1  0  0  0  0
  8 22  1  0  0  0  0
  9 10  2  0  0  0  0
  9 21  1  0  0  0  0
M  CHG  1   8   1
M  END
> <s_m_source_file>
AV-unprocessed.smi

> <i_m_source_file_index>
3090

> <i_lp_mmshare_version>
43012

> <i_f3d_flags>
0

> <s_epik_input>
W0NIM11uMVtjSF1jKFtjSF1uMSlbQ0BIXShbT0hdKVtDSDJdW05IMl0=

> <s_epik_cmdline>
J2VwaWtfcHl0aG9uJywgJy1waCcsICc3LjAnLCAnLXRuJywgJzgnLCAnLW1hJywgJzIwMCcsICctbWV0YWxfYmluZGluZycsICctaW1hZScsICc8aW5maWxlLm1hZT4nLCAnLW9tYWUnLCAnPG91dGZpbGUubWFlPic=

> <r_lp_tautomer_probability>
1

> <r_epik_Ionization_Penalty>
0.014056

> <r_epik_Ionization_Penalty_Charging>
0.0140431

> <r_epik_Ionization_Penalty_Neutral>
1.29738e-05

> <r_epik_State_Penalty>
0.0109628

> <r_epik_Charging_Adjusted_Penalty>
0.0250059

> <i_epik_Tot_Q>
1

> <i_epik_Tot_abs_Q>
1

> <r_epik_Metal_State_Penalty>
0.0109636

> <b_epik_Metal_Only>
0

> <s_lp_Force_Field>
OPLS_2005

> <r_lp_Energy>
1.35566

> <b_lp_Chiralities_Consistent>
1

> <s_lp_Variant>
AV-unprocessed.smi:3090-2

> <Gold.Version>
5.8.1

> <Gold.Id.Protein>
6NUR|6NUR_protein|mol2

> <Gold.PLP.Fitness>
37.2286

> <Gold.PLP.PLP>
-20.3905

> <Gold.PLP.part.hbond>
-4.5832

> <Gold.PLP.part.metal>
0.0000

> <Gold.PLP.part.buried>
-3.7107

> <Gold.PLP.part.nonpolar>
-12.8312

> <Gold.PLP.part.repulsive>
0.0675

> <Gold.PLP.ligand.clash>
0.0000

> <Gold.PLP.ligand.torsion>
0.2939

> <Gold.PLP.Chemscore.Hbond>
4.8078

> <Gold.PLP.Chemscore.CHOScore>
1.0000

> <Gold.PLP.Chemscore.Metal>
0.0000

> <Gold.Chemscore.Hbonds>
donor molecule, donor type, donor heavy atom, donor atom, acceptor molecule, acceptor atom, score
      L1  H     6    16       P1  7957  0.99
      L1  H     8    19       P1  7957  1.00
      L1  H     8    22       P1  7948  2.00
      P1  H  7989  7998       L1     6  0.15
      P1  H  8011  8017       L1     6  0.60
      L1  C     3    14       P1  8028  1.00

> <Gold.PLP.Chemscore.Internal.Correction>
0.0024

> <Gold.Rescore>
     Score         DG    S(hbond)    S(metal)    S(lipo)     H(rot)  DE(clash)    DE(int)     intcor
     15.12     -15.36       2.98        0.00      42.10       1.96       0.02       0.22       ----

> <Gold.Chemscore.Fitness>
15.1201

> <Gold.Chemscore.DG>
-15.3590

> <Gold.Chemscore.ZeroCoef>
-5.4800

> <Gold.Chemscore.Hbond>
2.9817

> <Gold.Chemscore.Metal>
0.0000

> <Gold.Chemscore.Lipo>
42.0969

> <Gold.Chemscore.Internal_Hbond>
0.0000

> <Gold.Chemscore.DEClash>
0.0237

> <Gold.Chemscore.DEInternal>
0.2153

> <Gold.Chemscore.Rot>
1.9551

> <Gold.Chemscore.Internal.Correction>
   9.000000E+99

> <Gold.Chemscore.Hbonds>
donor molecule, donor type, donor heavy atom, donor atom, acceptor molecule, acceptor atom, score
      L1  H     6    16       P1  7957  0.90
      L1  H     8    19       P1  7957  0.99
      L1  H     8    22       P1  7948  0.97
      P1  H  7989  7998       L1     6  0.01
      P1  H  8011  8017       L1     6  0.04

> <Gold.Chemscore.Hbond.Weighted>
-9.9588

> <Gold.Chemscore.Metal.Weighted>
-0.0000

> <Gold.Chemscore.Lipo.Weighted>
-4.9253

> <Gold.Chemscore.Internal_Hbond.Weighted>
0.0000

> <Gold.Chemscore.DEClash.Weighted>
0.0237

> <Gold.Chemscore.DEInternal.Weighted>
0.2153

> <Gold.Chemscore.Rot.Weighted>
5.0051

> <Gold.Chemscore.Internal.Correction.Weighted>
   9.000000E+99

> <Gold.Protein.RotatedTorsions>
[ 6907 6896 6895 6894 ] final  -12.59 input  -60.11 | X-H torsion
[ 7974 7965 7964 7962 ] final  126.00 input  175.53 | X-H torsion
[ 8008 7997 7996 7995 ] final   92.63 input   59.86 | X-H torsion
[ 10167 10162 10161 10158 ] final  109.18 input  -65.29 | X-H torsion
[ 10718 10713 10712 10709 ] final  -87.37 input   66.30 | X-H torsion
[ 10763 10752 10751 10750 ] final -104.58 input  -60.55 | X-H torsion
[ 11005 11000 10999 10996 ] final   65.92 input  -57.11 | X-H torsion

> <Gold.Protein.ActiveResidues>
 VAL166  LYS551  ARG553  GLY616  TRP617  ASP618  TYR619  PRO620  LYS621  CYS622 
 ASP623  PHE694  ASN695  SER759  ASP760  ASP761  ALA762  ILE779  LEU786  VAL792 
 PHE793  MET794  SER795  GLU796  ALA797  LYS798  CYS799  TRP800  GLU811  SER814 

> <Gold.Protein.RotatedAtoms>
  151.3682  135.0917  159.9456 H   0  0  0  0  0  0  0  0  0  0  0  0  # atno 6907 bound_to 6896
  152.5143  133.9191  159.7536 H   0  0  0  0  0  0  0  0  0  0  0  0  # atno 6908 bound_to 6896
  150.9599  133.6402  159.2785 H   0  0  0  0  0  0  0  0  0  0  0  0  # atno 6909 bound_to 6896
  145.0667  139.3762  143.4978 H   0  0  0  0  0  0  0  0  0  0  0  0  # atno 7974 bound_to 7965
  156.0375  140.3323  155.7207 H   0  0  0  0  0  0  0  0  0  0  0  0  # atno 8008 bound_to 7997
  155.5794  140.0635  157.2804 H   0  0  0  0  0  0  0  0  0  0  0  0  # atno 8009 bound_to 7997
  154.4379  140.1846  156.0949 H   0  0  0  0  0  0  0  0  0  0  0  0  # atno 8010 bound_to 7997
  139.6787  144.7120  151.1555 H   0  0  0  0  0  0  0  0  0  0  0  0  # atno 10167 bound_to 10162
  155.9986  130.4797  150.4856 H   0  0  0  0  0  0  0  0  0  0  0  0  # atno 10718 bound_to 10713
  154.7888  135.4781  154.0006 H   0  0  0  0  0  0  0  0  0  0  0  0  # atno 10763 bound_to 10752
  153.1600  135.6807  153.8764 H   0  0  0  0  0  0  0  0  0  0  0  0  # atno 10764 bound_to 10752
  153.8381  135.3183  155.3402 H   0  0  0  0  0  0  0  0  0  0  0  0  # atno 10765 bound_to 10752
  139.9864  134.6661  156.0168 H   0  0  0  0  0  0  0  0  0  0  0  0  # atno 11005 bound_to 11000
  146.3527  140.0391  142.8644 LP  0  0  0  0  0  0  0  0  0  0  0  0  # atno 17320 bound_to 7965
  145.1343  140.9535  143.4526 LP  0  0  0  0  0  0  0  0  0  0  0  0  # atno 17321 bound_to 7965
  140.7644  143.5733  150.8973 LP  0  0  0  0  0  0  0  0  0  0  0  0  # atno 17342 bound_to 10162
  139.9403  143.6390  152.3055 LP  0  0  0  0  0  0  0  0  0  0  0  0  # atno 17343 bound_to 10162
  157.2857  131.0616  151.2168 LP  0  0  0  0  0  0  0  0  0  0  0  0  # atno 17370 bound_to 10713
  157.3198  130.6931  149.6263 LP  0  0  0  0  0  0  0  0  0  0  0  0  # atno 17371 bound_to 10713
  141.1528  133.6546  156.4068 LP  0  0  0  0  0  0  0  0  0  0  0  0  # atno 17394 bound_to 11000
  140.4993  134.6500  157.5242 LP  0  0  0  0  0  0  0  0  0  0  0  0  # atno 17395 bound_to 11000

$$$$
