AV-unprocessed.smi:2855|AV-procd|sdf|10987|dock1
  -GOLD-   2272015443D 1   1.00000     0.00000
 Structure written by MMmdl.
 46 47  0  0  0  0  0  0  0  0  2 V2000
  145.1449  132.0672  149.0921 C   0  0  0  0  0  0  0  0  0  0  0  0
  145.1211  131.6554  150.5750 C   0  0  2  0  0  0  0  0  0  0  0  0
  143.8321  132.0957  151.2933 C   0  0  0  0  0  0  0  0  0  0  0  0
  143.7943  133.6096  151.5618 C   0  0  0  0  0  0  0  0  0  0  0  0
  145.0315  134.0873  152.3586 C   0  0  2  0  0  0  0  0  0  0  0  0
  144.9810  135.6002  152.7311 C   0  0  0  0  0  0  0  0  0  0  0  0
  143.5868  136.0444  153.2056 C   0  0  0  0  0  0  0  0  0  0  0  0
  145.5056  136.5388  151.6288 C   0  0  0  0  0  0  0  0  0  0  0  0
  146.3315  133.6651  151.6206 C   0  0  1  0  0  0  0  0  0  0  0  0
  147.5112  134.0314  152.4013 N   0  0  0  0  0  0  0  0  0  0  0  0
  147.9906  133.3604  153.4594 C   0  0  0  0  0  0  0  0  0  0  0  0
  147.4382  132.3749  153.9491 O   0  0  0  0  0  0  0  0  0  0  0  0
  149.2906  133.8994  154.0677 C   0  0  0  0  0  0  0  0  0  0  0  0
  149.7258  133.1109  155.2308 N   0  0  0  0  0  0  0  0  0  0  0  0
  149.9517  131.7359  155.0444 C   0  0  0  0  0  0  0  0  0  0  0  0
  150.3580  130.9399  156.0518 C   0  0  0  0  0  0  0  0  0  0  0  0
  150.5645  131.5387  157.3646 C   0  0  0  0  0  0  0  0  0  0  0  0
  150.9312  130.8262  158.2971 O   0  0  0  0  0  0  0  0  0  0  0  0
  150.3370  132.8785  157.4939 N   0  5  0  0  0  0  0  0  0  0  0  0
  149.9251  133.6761  156.4602 C   0  0  0  0  0  0  0  0  0  0  0  0
  149.7262  134.8839  156.5986 O   0  0  0  0  0  0  0  0  0  0  0  0
  146.3597  132.1472  151.3480 C   0  0  0  0  0  0  0  0  0  0  0  0
  145.1226  133.1490  148.9640 H   0  0  0  0  0  0  0  0  0  0  0  0
  144.2874  131.6555  148.5594 H   0  0  0  0  0  0  0  0  0  0  0  0
  146.0440  131.6966  148.5992 H   0  0  0  0  0  0  0  0  0  0  0  0
  145.1434  130.5650  150.5881 H   0  0  0  0  0  0  0  0  0  0  0  0
  142.9578  131.7980  150.7136 H   0  0  0  0  0  0  0  0  0  0  0  0
  143.7563  131.5677  152.2448 H   0  0  0  0  0  0  0  0  0  0  0  0
  143.7258  134.1435  150.6143 H   0  0  0  0  0  0  0  0  0  0  0  0
  142.8786  133.8381  152.1057 H   0  0  0  0  0  0  0  0  0  0  0  0
  145.0223  133.5413  153.3038 H   0  0  0  0  0  0  0  0  0  0  0  0
  145.6311  135.7466  153.5940 H   0  0  0  0  0  0  0  0  0  0  0  0
  142.8617  136.0498  152.3921 H   0  0  0  0  0  0  0  0  0  0  0  0
  143.6213  137.0546  153.6147 H   0  0  0  0  0  0  0  0  0  0  0  0
  143.2083  135.3889  153.9902 H   0  0  0  0  0  0  0  0  0  0  0  0
  144.8979  136.4853  150.7259 H   0  0  0  0  0  0  0  0  0  0  0  0
  146.5355  136.3087  151.3574 H   0  0  0  0  0  0  0  0  0  0  0  0
  145.4933  137.5751  151.9675 H   0  0  0  0  0  0  0  0  0  0  0  0
  146.3570  134.1771  150.6585 H   0  0  0  0  0  0  0  0  0  0  0  0
  148.0368  134.8304  152.0780 H   0  0  0  0  0  0  0  0  0  0  0  0
  150.0811  133.9236  153.3151 H   0  0  0  0  0  0  0  0  0  0  0  0
  149.1288  134.9411  154.3471 H   0  0  0  0  0  0  0  0  0  0  0  0
  149.7824  131.3731  154.0413 H   0  0  0  0  0  0  0  0  0  0  0  0
  150.5297  129.8858  155.8913 H   0  0  0  0  0  0  0  0  0  0  0  0
  146.4142  131.6145  152.2988 H   0  0  0  0  0  0  0  0  0  0  0  0
  147.2661  131.8806  150.8026 H   0  0  0  0  0  0  0  0  0  0  0  0
  1  2  1  0  0  0  0
  1 23  1  0  0  0  0
  1 24  1  0  0  0  0
  1 25  1  0  0  0  0
  2 22  1  0  0  0  0
  2  3  1  0  0  0  0
  2 26  1  0  0  0  0
  3  4  1  0  0  0  0
  3 27  1  0  0  0  0
  3 28  1  0  0  0  0
  4  5  1  0  0  0  0
  4 29  1  0  0  0  0
  4 30  1  0  0  0  0
  5  6  1  0  0  0  0
  5  9  1  0  0  0  0
  5 31  1  0  0  0  0
  6  7  1  0  0  0  0
  6  8  1  0  0  0  0
  6 32  1  0  0  0  0
  7 33  1  0  0  0  0
  7 34  1  0  0  0  0
  7 35  1  0  0  0  0
  8 36  1  0  0  0  0
  8 37  1  0  0  0  0
  8 38  1  0  0  0  0
  9 10  1  0  0  0  0
  9 22  1  0  0  0  0
  9 39  1  0  0  0  0
 10 11  1  0  0  0  0
 10 40  1  0  0  0  0
 11 12  2  0  0  0  0
 11 13  1  0  0  0  0
 13 14  1  0  0  0  0
 13 41  1  0  0  0  0
 13 42  1  0  0  0  0
 14 20  1  0  0  0  0
 14 15  1  0  0  0  0
 15 16  2  0  0  0  0
 15 43  1  0  0  0  0
 16 17  1  0  0  0  0
 16 44  1  0  0  0  0
 17 18  2  0  0  0  0
 17 19  1  0  0  0  0
 19 20  1  0  0  0  0
 20 21  2  0  0  0  0
 22 45  1  0  0  0  0
 22 46  1  0  0  0  0
M  CHG  1  19  -1
M  END
> <s_m_source_file>
AV-unprocessed.smi

> <i_m_source_file_index>
2855

> <i_lp_mmshare_version>
43012

> <i_f3d_flags>
0

> <s_epik_input>
W0NIM11bQ0BASF0xW0NIMl1bQ0gyXVtDQEBIXShbQ0hdKFtDSDNdKVtDSDNdKVtDQEhdKFtDSDJdMSlbTkhdQyg9TylbQ0gyXW4yW2NIXVtjSF1jKD1PKVtuSF1jMj1P

> <s_epik_cmdline>
J2VwaWtfcHl0aG9uJywgJy1waCcsICc3LjAnLCAnLXRuJywgJzgnLCAnLW1hJywgJzIwMCcsICctbWV0YWxfYmluZGluZycsICctaW1hZScsICc8aW5maWxlLm1hZT4nLCAnLW9tYWUnLCAnPG91dGZpbGUubWFlPic=

> <r_lp_tautomer_probability>
0.999537

> <r_epik_Ionization_Penalty>
3.12102

> <r_epik_Ionization_Penalty_Charging>
2.9581e-08

> <r_epik_Ionization_Penalty_Neutral>
3.12102

> <r_epik_State_Penalty>
3.12011

> <r_epik_Charging_Adjusted_Penalty>
3.12011

> <i_epik_Tot_Q>
-1

> <i_epik_Tot_abs_Q>
1

> <r_epik_Metal_State_Penalty>
0.463583

> <b_epik_Metal_Only>
1

> <s_lp_Force_Field>
OPLS_2005

> <r_lp_Energy>
25.3875

> <b_lp_Chiralities_Consistent>
1

> <s_lp_Variant>
AV-unprocessed.smi:2855-11

> <Gold.Version>
5.8.1

> <Gold.Id.Protein>
6NUR|6NUR_protein|mol2

> <Gold.PLP.Fitness>
42.2039

> <Gold.PLP.PLP>
-34.2687

> <Gold.PLP.part.hbond>
-2.0000

> <Gold.PLP.part.metal>
0.0000

> <Gold.PLP.part.buried>
-1.9403

> <Gold.PLP.part.nonpolar>
-31.0493

> <Gold.PLP.part.repulsive>
0.0806

> <Gold.PLP.ligand.clash>
0.0000

> <Gold.PLP.ligand.torsion>
0.5702

> <Gold.PLP.Chemscore.Hbond>
3.0000

> <Gold.PLP.Chemscore.CHOScore>
0.0000

> <Gold.PLP.Chemscore.Metal>
0.0000

> <Gold.Chemscore.Hbonds>
donor molecule, donor type, donor heavy atom, donor atom, acceptor molecule, acceptor atom, score
      L1  H    10    40       P1  7948  1.00
      P1  H  6896  6907       L1    19  2.00

> <Gold.PLP.Chemscore.Internal.Correction>
0.0755

> <Gold.Rescore>
     Score         DG    S(hbond)    S(metal)    S(lipo)     H(rot)  DE(clash)    DE(int)     intcor
     13.02     -16.03       1.81        0.00      78.20       1.81       0.01       3.00       ----

> <Gold.Chemscore.Fitness>
13.0244

> <Gold.Chemscore.DG>
-16.0314

> <Gold.Chemscore.ZeroCoef>
-5.4800

> <Gold.Chemscore.Hbond>
1.8071

> <Gold.Chemscore.Metal>
0.0000

> <Gold.Chemscore.Lipo>
78.1968

> <Gold.Chemscore.Internal_Hbond>
0.0000

> <Gold.Chemscore.DEClash>
0.0110

> <Gold.Chemscore.DEInternal>
2.9959

> <Gold.Chemscore.Rot>
1.8100

> <Gold.Chemscore.Internal.Correction>
   9.000000E+99

> <Gold.Chemscore.Hbonds>
donor molecule, donor type, donor heavy atom, donor atom, acceptor molecule, acceptor atom, score
      L1  H    10    40       P1  7948  0.39
      P1  H  6896  6907       L1    19  0.64

> <Gold.Chemscore.Hbond.Weighted>
-6.0359

> <Gold.Chemscore.Metal.Weighted>
-0.0000

> <Gold.Chemscore.Lipo.Weighted>
-9.1490

> <Gold.Chemscore.Internal_Hbond.Weighted>
0.0000

> <Gold.Chemscore.DEClash.Weighted>
0.0110

> <Gold.Chemscore.DEInternal.Weighted>
2.9959

> <Gold.Chemscore.Rot.Weighted>
4.6335

> <Gold.Chemscore.Internal.Correction.Weighted>
   9.000000E+99

> <Gold.Protein.RotatedTorsions>
[ 6907 6896 6895 6894 ] final -146.08 input  -60.11 | X-H torsion
[ 7974 7965 7964 7962 ] final   39.64 input  175.53 | X-H torsion
[ 8008 7997 7996 7995 ] final  162.91 input   59.86 | X-H torsion
[ 10167 10162 10161 10158 ] final   85.57 input  -65.29 | X-H torsion
[ 10718 10713 10712 10709 ] final  107.63 input   66.30 | X-H torsion
[ 10763 10752 10751 10750 ] final  108.46 input  -60.55 | X-H torsion
[ 11005 11000 10999 10996 ] final   21.31 input  -57.11 | X-H torsion

> <Gold.Protein.ActiveResidues>
 VAL166  LYS551  ARG553  GLY616  TRP617  ASP618  TYR619  PRO620  LYS621  CYS622 
 ASP623  PHE694  ASN695  SER759  ASP760  ASP761  ALA762  ILE779  LEU786  VAL792 
 PHE793  MET794  SER795  GLU796  ALA797  LYS798  CYS799  TRP800  GLU811  SER814 

> <Gold.Protein.RotatedAtoms>
  151.1367  133.4999  159.2597 H   0  0  0  0  0  0  0  0  0  0  0  0  # atno 6907 bound_to 6896
  151.1699  135.0312  159.8757 H   0  0  0  0  0  0  0  0  0  0  0  0  # atno 6908 bound_to 6896
  152.5461  134.1231  159.8461 H   0  0  0  0  0  0  0  0  0  0  0  0  # atno 6909 bound_to 6896
  146.0968  139.5627  142.9440 H   0  0  0  0  0  0  0  0  0  0  0  0  # atno 7974 bound_to 7965
  156.1996  140.1737  156.7927 H   0  0  0  0  0  0  0  0  0  0  0  0  # atno 8008 bound_to 7997
  154.5574  140.0706  156.8796 H   0  0  0  0  0  0  0  0  0  0  0  0  # atno 8009 bound_to 7997
  155.2912  140.3355  155.4255 H   0  0  0  0  0  0  0  0  0  0  0  0  # atno 8010 bound_to 7997
  139.8964  144.6355  150.8684 H   0  0  0  0  0  0  0  0  0  0  0  0  # atno 10167 bound_to 10162
  157.6620  131.0877  150.6186 H   0  0  0  0  0  0  0  0  0  0  0  0  # atno 10718 bound_to 10713
  153.4209  135.3811  155.2110 H   0  0  0  0  0  0  0  0  0  0  0  0  # atno 10763 bound_to 10752
  154.8744  135.3817  154.4385 H   0  0  0  0  0  0  0  0  0  0  0  0  # atno 10764 bound_to 10752
  153.4905  135.7088  153.5949 H   0  0  0  0  0  0  0  0  0  0  0  0  # atno 10765 bound_to 10752
  140.3930  134.1799  155.7663 H   0  0  0  0  0  0  0  0  0  0  0  0  # atno 11005 bound_to 11000
  145.5932  141.0366  143.2058 LP  0  0  0  0  0  0  0  0  0  0  0  0  # atno 17320 bound_to 7965
  144.7401  139.7472  143.7314 LP  0  0  0  0  0  0  0  0  0  0  0  0  # atno 17321 bound_to 7965
  140.7716  143.3470  151.2090 LP  0  0  0  0  0  0  0  0  0  0  0  0  # atno 17342 bound_to 10162
  139.7064  143.9448  152.2928 LP  0  0  0  0  0  0  0  0  0  0  0  0  # atno 17343 bound_to 10162
  156.6488  130.4479  149.5726 LP  0  0  0  0  0  0  0  0  0  0  0  0  # atno 17370 bound_to 10713
  156.2153  130.6704  151.1312 LP  0  0  0  0  0  0  0  0  0  0  0  0  # atno 17371 bound_to 10713
  141.1884  133.8260  157.0995 LP  0  0  0  0  0  0  0  0  0  0  0  0  # atno 17394 bound_to 11000
  140.0393  134.9862  157.0931 LP  0  0  0  0  0  0  0  0  0  0  0  0  # atno 17395 bound_to 11000

$$$$
