AV-unprocessed.smi:1867|AV-procd|sdf|7560|dock9
  -GOLD-   22720 9273D 1   1.00000     0.00000
 Structure written by MMmdl.
 52 55  0  0  0  0  0  0  0  0  2 V2000
  147.1241  136.1888  156.0523 O   0  0  0  0  0  0  0  0  0  0  0  0
  147.5696  136.2289  154.9077 C   0  0  0  0  0  0  0  0  0  0  0  0
  148.4590  137.1373  154.4614 N   0  0  0  0  0  0  0  0  0  0  0  0
  149.1243  138.1561  155.1942 C   0  0  0  0  0  0  0  0  0  0  0  0
  149.1997  138.2007  156.6054 C   0  0  0  0  0  0  0  0  0  0  0  0
  149.9111  139.2500  157.2178 C   0  0  0  0  0  0  0  0  0  0  0  0
  150.5379  140.2257  156.4067 C   0  0  0  0  0  0  0  0  0  0  0  0
  151.2540  141.2965  156.9780 N   0  0  0  0  0  0  0  0  0  0  0  0
  150.9374  142.6861  156.6907 C   0  0  0  0  0  0  0  0  0  0  0  0
  151.8596  143.4931  157.6043 C   0  0  0  0  0  0  0  0  0  0  0  0
  152.0267  142.5855  158.8231 C   0  0  0  0  0  0  0  0  0  0  0  0
  151.9693  141.1690  158.2413 C   0  0  0  0  0  0  0  0  0  0  0  0
  150.4700  140.1758  155.0549 N   0  0  0  0  0  0  0  0  0  0  0  0
  149.7892  139.1670  154.4725 C   0  0  0  0  0  0  0  0  0  0  0  0
  147.1523  135.3591  153.9709 N   0  0  0  0  0  0  0  0  0  0  0  0
  146.1991  134.2597  154.1240 C   0  0  2  0  0  0  0  0  0  0  0  0
  146.7643  133.0356  154.8712 C   0  0  0  0  0  0  0  0  0  0  0  0
  146.1841  131.8068  154.1424 C   0  0  0  0  0  0  0  0  0  0  0  0
  145.2650  132.3540  153.1263 N   0  3  2  0  0  0  0  0  0  0  0  0
  144.9828  131.5108  151.9443 C   0  0  0  0  0  0  0  0  0  0  0  0
  143.9451  132.2205  151.0509 C   0  0  0  0  0  0  0  0  0  0  0  0
  144.3827  133.6563  150.6937 C   0  0  0  0  0  0  0  0  0  0  0  0
  144.7554  134.4557  151.9575 C   0  0  0  0  0  0  0  0  0  0  0  0
  145.8024  133.6751  152.7687 C   0  0  1  0  0  0  0  0  0  0  0  0
  148.6525  137.1210  153.4710 H   0  0  0  0  0  0  0  0  0  0  0  0
  148.7424  137.4476  157.2281 H   0  0  0  0  0  0  0  0  0  0  0  0
  149.9660  139.2865  158.2953 H   0  0  0  0  0  0  0  0  0  0  0  0
  151.1023  142.9298  155.6407 H   0  0  0  0  0  0  0  0  0  0  0  0
  149.8912  142.8773  156.9327 H   0  0  0  0  0  0  0  0  0  0  0  0
  152.8260  143.6377  157.1193 H   0  0  0  0  0  0  0  0  0  0  0  0
  151.4561  144.4747  157.8539 H   0  0  0  0  0  0  0  0  0  0  0  0
  152.9459  142.7792  159.3764 H   0  0  0  0  0  0  0  0  0  0  0  0
  151.1877  142.7340  159.5043 H   0  0  0  0  0  0  0  0  0  0  0  0
  151.4789  140.4827  158.9328 H   0  0  0  0  0  0  0  0  0  0  0  0
  152.9728  140.7934  158.0388 H   0  0  0  0  0  0  0  0  0  0  0  0
  149.7721  139.1714  153.3924 H   0  0  0  0  0  0  0  0  0  0  0  0
  147.5018  135.5115  153.0357 H   0  0  0  0  0  0  0  0  0  0  0  0
  145.2963  134.6092  154.6293 H   0  0  0  0  0  0  0  0  0  0  0  0
  147.8543  133.0100  154.8269 H   0  0  0  0  0  0  0  0  0  0  0  0
  146.4806  133.0536  155.9242 H   0  0  0  0  0  0  0  0  0  0  0  0
  146.9860  131.2453  153.6602 H   0  0  0  0  0  0  0  0  0  0  0  0
  145.6567  131.1325  154.8177 H   0  0  0  0  0  0  0  0  0  0  0  0
  145.9039  131.3277  151.3888 H   0  0  0  0  0  0  0  0  0  0  0  0
  144.6014  130.5416  152.2676 H   0  0  0  0  0  0  0  0  0  0  0  0
  143.7773  131.6431  150.1414 H   0  0  0  0  0  0  0  0  0  0  0  0
  142.9873  132.2569  151.5718 H   0  0  0  0  0  0  0  0  0  0  0  0
  145.2422  133.6163  150.0233 H   0  0  0  0  0  0  0  0  0  0  0  0
  143.5885  134.1659  150.1470 H   0  0  0  0  0  0  0  0  0  0  0  0
  145.1444  135.4361  151.6808 H   0  0  0  0  0  0  0  0  0  0  0  0
  143.8640  134.6307  152.5616 H   0  0  0  0  0  0  0  0  0  0  0  0
  146.7001  133.5316  152.1621 H   0  0  0  0  0  0  0  0  0  0  0  0
  144.3853  132.5204  153.5939 H   0  0  0  0  0  0  0  0  0  0  0  0
  1  2  2  0  0  0  0
  2  3  1  0  0  0  0
  2 15  1  0  0  0  0
  3  4  1  0  0  0  0
  3 25  1  0  0  0  0
  4 14  1  0  0  0  0
  4  5  2  0  0  0  0
  5  6  1  0  0  0  0
  5 26  1  0  0  0  0
  6  7  2  0  0  0  0
  6 27  1  0  0  0  0
  7  8  1  0  0  0  0
  7 13  1  0  0  0  0
  8 12  1  0  0  0  0
  8  9  1  0  0  0  0
  9 10  1  0  0  0  0
  9 28  1  0  0  0  0
  9 29  1  0  0  0  0
 10 11  1  0  0  0  0
 10 30  1  0  0  0  0
 10 31  1  0  0  0  0
 11 12  1  0  0  0  0
 11 32  1  0  0  0  0
 11 33  1  0  0  0  0
 12 34  1  0  0  0  0
 12 35  1  0  0  0  0
 13 14  2  0  0  0  0
 14 36  1  0  0  0  0
 15 16  1  0  0  0  0
 15 37  1  0  0  0  0
 16 24  1  0  0  0  0
 16 17  1  0  0  0  0
 16 38  1  0  0  0  0
 17 18  1  0  0  0  0
 17 39  1  0  0  0  0
 17 40  1  0  0  0  0
 18 19  1  0  0  0  0
 18 41  1  0  0  0  0
 18 42  1  0  0  0  0
 19 24  1  0  0  0  0
 19 20  1  0  0  0  0
 19 52  1  0  0  0  0
 20 21  1  0  0  0  0
 20 43  1  0  0  0  0
 20 44  1  0  0  0  0
 21 22  1  0  0  0  0
 21 45  1  0  0  0  0
 21 46  1  0  0  0  0
 22 23  1  0  0  0  0
 22 47  1  0  0  0  0
 22 48  1  0  0  0  0
 23 24  1  0  0  0  0
 23 49  1  0  0  0  0
 23 50  1  0  0  0  0
 24 51  1  0  0  0  0
M  CHG  1  19   1
M  END
> <s_m_source_file>
AV-unprocessed.smi

> <i_m_source_file_index>
1867

> <i_lp_mmshare_version>
43012

> <i_f3d_flags>
0

> <s_epik_input>
W0NIMl0xW0NIMl1bQ0gyXVtDSDJdW0NASF0oTjEyKVtDQEBIXShbQ0gyXVtDSDJdMilbTkhdQyg9TylbTkhdYzNbY0hdW2NIXWMobltjSF0zKU40W0NIMl1bQ0gyXVtDSDJdW0NIMl00

> <s_epik_cmdline>
J2VwaWtfcHl0aG9uJywgJy1waCcsICc3LjAnLCAnLXRuJywgJzgnLCAnLW1hJywgJzIwMCcsICctbWV0YWxfYmluZGluZycsICctaW1hZScsICc8aW5maWxlLm1hZT4nLCAnLW9tYWUnLCAnPG91dGZpbGUubWFlPic=

> <r_lp_tautomer_probability>
1

> <r_epik_Ionization_Penalty>
0.0751123

> <r_epik_Ionization_Penalty_Charging>
0.000974069

> <r_epik_Ionization_Penalty_Neutral>
0.0741382

> <r_epik_State_Penalty>
0.0647261

> <r_epik_Charging_Adjusted_Penalty>
0.0657002

> <i_epik_Tot_Q>
1

> <i_epik_Tot_abs_Q>
1

> <r_epik_Metal_State_Penalty>
0.0580571

> <b_epik_Metal_Only>
0

> <s_lp_Force_Field>
OPLS_2005

> <r_lp_Energy>
71.0604

> <b_lp_Chiralities_Consistent>
1

> <s_lp_Variant>
AV-unprocessed.smi:1867-1

> <Gold.Version>
5.8.1

> <Gold.Id.Protein>
6NUR|6NUR_protein|mol2

> <Gold.PLP.Fitness>
45.0678

> <Gold.PLP.PLP>
-31.7197

> <Gold.PLP.part.hbond>
-3.6455

> <Gold.PLP.part.metal>
0.0000

> <Gold.PLP.part.buried>
-5.6177

> <Gold.PLP.part.nonpolar>
-23.7928

> <Gold.PLP.part.repulsive>
0.0782

> <Gold.PLP.ligand.clash>
0.0000

> <Gold.PLP.ligand.torsion>
0.9136

> <Gold.PLP.Chemscore.Hbond>
4.0077

> <Gold.PLP.Chemscore.CHOScore>
1.0000

> <Gold.PLP.Chemscore.Metal>
0.0000

> <Gold.Chemscore.Hbonds>
donor molecule, donor type, donor heavy atom, donor atom, acceptor molecule, acceptor atom, score
      L1  H     3    25       P1  7948  1.00
      L1  H    15    37       P1  7948  0.98
      L1  H    19    52       P1 10957  1.08
      P1  H  7989  7998       L1    13  0.93
      L1  C    14    36       P1  7957  1.00

> <Gold.PLP.Chemscore.Internal.Correction>
0.1524

> <Gold.Rescore>
     Score         DG    S(hbond)    S(metal)    S(lipo)     H(rot)  DE(clash)    DE(int)     intcor
     19.26     -21.72       2.49        0.00      89.77       1.00       0.45       2.02       ----

> <Gold.Chemscore.Fitness>
19.2567

> <Gold.Chemscore.DG>
-21.7250

> <Gold.Chemscore.ZeroCoef>
-5.4800

> <Gold.Chemscore.Hbond>
2.4856

> <Gold.Chemscore.Metal>
0.0000

> <Gold.Chemscore.Lipo>
89.7701

> <Gold.Chemscore.Internal_Hbond>
0.0000

> <Gold.Chemscore.DEClash>
0.4500

> <Gold.Chemscore.DEInternal>
2.0183

> <Gold.Chemscore.Rot>
1.0000

> <Gold.Chemscore.Internal.Correction>
   9.000000E+99

> <Gold.Chemscore.Hbonds>
donor molecule, donor type, donor heavy atom, donor atom, acceptor molecule, acceptor atom, score
      L1  H     3    25       P1  7948  0.97
      L1  H    15    37       P1  7948  0.91
      L1  H    19    52       P1 10957  0.18
      P1  H  7989  7998       L1    13  0.31

> <Gold.Chemscore.Hbond.Weighted>
-8.3019

> <Gold.Chemscore.Metal.Weighted>
-0.0000

> <Gold.Chemscore.Lipo.Weighted>
-10.5031

> <Gold.Chemscore.Internal_Hbond.Weighted>
0.0000

> <Gold.Chemscore.DEClash.Weighted>
0.4500

> <Gold.Chemscore.DEInternal.Weighted>
2.0183

> <Gold.Chemscore.Rot.Weighted>
2.5600

> <Gold.Chemscore.Internal.Correction.Weighted>
   9.000000E+99

> <Gold.Protein.RotatedTorsions>
[ 6907 6896 6895 6894 ] final -134.80 input  -60.11 | X-H torsion
[ 7974 7965 7964 7962 ] final  -21.32 input  175.53 | X-H torsion
[ 8008 7997 7996 7995 ] final -111.73 input   59.86 | X-H torsion
[ 10167 10162 10161 10158 ] final  -28.38 input  -65.29 | X-H torsion
[ 10718 10713 10712 10709 ] final  152.81 input   66.30 | X-H torsion
[ 10763 10752 10751 10750 ] final   15.26 input  -60.55 | X-H torsion
[ 11005 11000 10999 10996 ] final -146.88 input  -57.11 | X-H torsion

> <Gold.Protein.ActiveResidues>
 VAL166  LYS551  ARG553  GLY616  TRP617  ASP618  TYR619  PRO620  LYS621  CYS622 
 ASP623  PHE694  ASN695  SER759  ASP760  ASP761  ALA762  ILE779  LEU786  VAL792 
 PHE793  MET794  SER795  GLU796  ALA797  LYS798  CYS799  TRP800  GLU811  SER814 

> <Gold.Protein.RotatedAtoms>
  150.9902  133.6158  159.2709 H   0  0  0  0  0  0  0  0  0  0  0  0  # atno 6907 bound_to 6896
  151.3381  135.0856  159.9371 H   0  0  0  0  0  0  0  0  0  0  0  0  # atno 6908 bound_to 6896
  152.5243  133.9518  159.7730 H   0  0  0  0  0  0  0  0  0  0  0  0  # atno 6909 bound_to 6896
  146.1739  140.4325  142.8521 H   0  0  0  0  0  0  0  0  0  0  0  0  # atno 7974 bound_to 7965
  154.9943  140.0395  157.2333 H   0  0  0  0  0  0  0  0  0  0  0  0  # atno 8008 bound_to 7997
  154.7600  140.2783  155.6199 H   0  0  0  0  0  0  0  0  0  0  0  0  # atno 8009 bound_to 7997
  156.2902  140.2630  156.2376 H   0  0  0  0  0  0  0  0  0  0  0  0  # atno 8010 bound_to 7997
  140.7270  143.4015  151.1257 H   0  0  0  0  0  0  0  0  0  0  0  0  # atno 10167 bound_to 10162
  157.2529  131.0782  151.1718 H   0  0  0  0  0  0  0  0  0  0  0  0  # atno 10718 bound_to 10713
  153.1542  135.6784  153.8837 H   0  0  0  0  0  0  0  0  0  0  0  0  # atno 10763 bound_to 10752
  153.8253  135.3125  155.3415 H   0  0  0  0  0  0  0  0  0  0  0  0  # atno 10764 bound_to 10752
  154.7885  135.4848  154.0087 H   0  0  0  0  0  0  0  0  0  0  0  0  # atno 10765 bound_to 10752
  140.7774  134.3119  157.5056 H   0  0  0  0  0  0  0  0  0  0  0  0  # atno 11005 bound_to 11000
  144.8206  140.6543  143.6355 LP  0  0  0  0  0  0  0  0  0  0  0  0  # atno 17320 bound_to 7965
  145.4265  139.1555  143.4046 LP  0  0  0  0  0  0  0  0  0  0  0  0  # atno 17321 bound_to 7965
  139.7635  143.8600  152.3105 LP  0  0  0  0  0  0  0  0  0  0  0  0  # atno 17342 bound_to 10162
  139.8494  144.7172  150.9233 LP  0  0  0  0  0  0  0  0  0  0  0  0  # atno 17343 bound_to 10162
  157.3258  130.6960  149.6295 LP  0  0  0  0  0  0  0  0  0  0  0  0  # atno 17370 bound_to 10713
  155.9666  130.4322  150.4952 LP  0  0  0  0  0  0  0  0  0  0  0  0  # atno 17371 bound_to 10713
  139.8747  134.9297  156.3484 LP  0  0  0  0  0  0  0  0  0  0  0  0  # atno 17394 bound_to 11000
  140.9516  133.7447  156.0279 LP  0  0  0  0  0  0  0  0  0  0  0  0  # atno 17395 bound_to 11000

$$$$
