AV-unprocessed.smi:102|AV-procd|sdf|945|dock9
  -GOLD-   2262017463D 1   1.00000     0.00000
 Structure written by MMmdl.
 44 45  0  0  0  0  0  0  0  0  1 V2000
  147.5090  136.8062  163.0723 C   0  0  0  0  0  0  0  0  0  0  0  0
  147.5037  136.0661  161.7411 C   0  0  0  0  0  0  0  0  0  0  0  0
  146.9690  134.9637  161.6215 O   0  0  0  0  0  0  0  0  0  0  0  0
  148.1314  136.7470  160.7711 O   0  0  0  0  0  0  0  0  0  0  0  0
  148.1900  136.2065  159.4600 C   0  0  0  0  0  0  0  0  0  0  0  0
  149.4058  136.7625  158.7080 C   0  0  2  0  0  0  0  0  0  0  0  0
  149.3985  138.1833  158.7242 O   0  0  0  0  0  0  0  0  0  0  0  0
  150.1578  138.6421  157.6547 C   0  0  1  0  0  0  0  0  0  0  0  0
  151.5862  138.8653  158.1494 N   0  0  0  0  0  0  0  0  0  0  0  0
  152.3460  137.8612  158.7437 C   0  0  0  0  0  0  0  0  0  0  0  0
  153.5783  138.0662  159.2645 C   0  0  0  0  0  0  0  0  0  0  0  0
  154.2451  137.0374  159.8150 F   0  0  0  0  0  0  0  0  0  0  0  0
  154.1773  139.3954  159.2568 C   0  0  0  0  0  0  0  0  0  0  0  0
  155.2923  139.6788  159.6903 O   0  0  0  0  0  0  0  0  0  0  0  0
  153.3599  140.3883  158.7130 N   0  0  0  0  0  0  0  0  0  0  0  0
  152.0833  140.1908  158.1839 C   0  0  0  0  0  0  0  0  0  0  0  0
  151.4455  141.1584  157.7707 O   0  0  0  0  0  0  0  0  0  0  0  0
  149.9770  137.6225  156.5072 C   0  0  1  0  0  0  0  0  0  0  0  0
  151.1396  137.4501  155.6998 O   0  0  0  0  0  0  0  0  0  0  0  0
  151.5909  138.4583  154.9358 C   0  0  0  0  0  0  0  0  0  0  0  0
  153.0831  138.3478  154.6547 C   0  0  0  0  0  0  0  0  0  0  0  0
  150.9198  139.3929  154.4987 O   0  0  0  0  0  0  0  0  0  0  0  0
  149.4966  136.3536  157.2265 C   0  0  1  0  0  0  0  0  0  0  0  0
  150.3903  135.2531  157.0897 O   0  0  0  0  0  0  0  0  0  0  0  0
  149.9216  133.9931  157.0620 C   0  0  0  0  0  0  0  0  0  0  0  0
  151.0242  132.9708  156.8237 C   0  0  0  0  0  0  0  0  0  0  0  0
  148.7463  133.6532  157.1970 O   0  0  0  0  0  0  0  0  0  0  0  0
  153.7179  141.3324  158.7149 H   0  0  0  0  0  0  0  0  0  0  0  0
  147.5690  137.8837  162.9154 H   0  0  0  0  0  0  0  0  0  0  0  0
  148.3642  136.4948  163.6724 H   0  0  0  0  0  0  0  0  0  0  0  0
  146.5977  136.5898  163.6301 H   0  0  0  0  0  0  0  0  0  0  0  0
  148.2478  135.1185  159.5113 H   0  0  0  0  0  0  0  0  0  0  0  0
  147.2772  136.4602  158.9191 H   0  0  0  0  0  0  0  0  0  0  0  0
  150.3069  136.4443  159.2336 H   0  0  0  0  0  0  0  0  0  0  0  0
  149.7963  139.6180  157.3287 H   0  0  0  0  0  0  0  0  0  0  0  0
  151.9574  136.8594  158.8142 H   0  0  0  0  0  0  0  0  0  0  0  0
  149.1477  137.9712  155.8893 H   0  0  0  0  0  0  0  0  0  0  0  0
  153.3306  137.3474  154.2984 H   0  0  0  0  0  0  0  0  0  0  0  0
  153.6529  138.5445  155.5630 H   0  0  0  0  0  0  0  0  0  0  0  0
  153.3835  139.0692  153.8943 H   0  0  0  0  0  0  0  0  0  0  0  0
  148.5053  136.0916  156.8540 H   0  0  0  0  0  0  0  0  0  0  0  0
  151.8301  133.1065  157.5456 H   0  0  0  0  0  0  0  0  0  0  0  0
  151.4342  133.0848  155.8199 H   0  0  0  0  0  0  0  0  0  0  0  0
  150.6359  131.9570  156.9263 H   0  0  0  0  0  0  0  0  0  0  0  0
  1  2  1  0  0  0  0
  1 29  1  0  0  0  0
  1 30  1  0  0  0  0
  1 31  1  0  0  0  0
  2  3  2  0  0  0  0
  2  4  1  0  0  0  0
  4  5  1  0  0  0  0
  5  6  1  0  0  0  0
  5 32  1  0  0  0  0
  5 33  1  0  0  0  0
  6 23  1  0  0  0  0
  6  7  1  0  0  0  0
  6 34  1  0  0  0  0
  7  8  1  0  0  0  0
  8  9  1  0  0  0  0
  8 18  1  0  0  0  0
  8 35  1  0  0  0  0
  9 16  1  0  0  0  0
  9 10  1  0  0  0  0
 10 11  2  0  0  0  0
 10 36  1  0  0  0  0
 11 12  1  0  0  0  0
 11 13  1  0  0  0  0
 13 14  2  0  0  0  0
 13 15  1  0  0  0  0
 15 28  1  0  0  0  0
 15 16  1  0  0  0  0
 16 17  2  0  0  0  0
 18 19  1  0  0  0  0
 18 23  1  0  0  0  0
 18 37  1  0  0  0  0
 19 20  1  0  0  0  0
 20 21  1  0  0  0  0
 20 22  2  0  0  0  0
 21 38  1  0  0  0  0
 21 39  1  0  0  0  0
 21 40  1  0  0  0  0
 23 24  1  0  0  0  0
 23 41  1  0  0  0  0
 24 25  1  0  0  0  0
 25 26  1  0  0  0  0
 25 27  2  0  0  0  0
 26 42  1  0  0  0  0
 26 43  1  0  0  0  0
 26 44  1  0  0  0  0
M  END
> <s_m_source_file>
AV-unprocessed.smi

> <i_m_source_file_index>
102

> <i_lp_mmshare_version>
43012

> <i_f3d_flags>
0

> <s_epik_input>
W0NIM11DKD1PKU9bQ0gyXVtDQEBIXTFPW0NASF0oW0NAQEhdKE9DKD1PKVtDSDNdKVtDQEhdMU9DKD1PKVtDSDNdKW4yW2NIXWMoRiljKD1PKVtuSF1jMj1P

> <s_epik_cmdline>
J2VwaWtfcHl0aG9uJywgJy1waCcsICc3LjAnLCAnLXRuJywgJzgnLCAnLW1hJywgJzIwMCcsICctbWV0YWxfYmluZGluZycsICctaW1hZScsICc8aW5maWxlLm1hZT4nLCAnLW9tYWUnLCAnPG91dGZpbGUubWFlPic=

> <r_lp_tautomer_probability>
0.999537

> <r_epik_Ionization_Penalty>
0.058267

> <r_epik_Ionization_Penalty_Charging>
0.058267

> <r_epik_Ionization_Penalty_Neutral>
6.57791e-16

> <r_epik_State_Penalty>
0.0503774

> <r_epik_Charging_Adjusted_Penalty>
0.108644

> <i_epik_Tot_Q>
0

> <i_epik_Tot_abs_Q>
0

> <r_epik_Metal_State_Penalty>
2.6644

> <b_epik_Metal_Only>
0

> <s_epik_Chemistry_Notes>
This compound has an ester and may undergo hydrolysis at high or low pH. This compound contains an acetal/aminal-like group ( X-CH(R)-Y where X, Y are N, S, or O) that may be acid/base labile, releasing an aldehyde.

> <s_lp_Force_Field>
OPLS_2005

> <r_lp_Energy>
14.9607

> <b_lp_Chiralities_Consistent>
1

> <s_lp_Variant>
AV-unprocessed.smi:102-1

> <Gold.Version>
5.8.1

> <Gold.Id.Protein>
6NUR|6NUR_protein|mol2

> <Gold.PLP.Fitness>
36.1920

> <Gold.PLP.PLP>
-35.0717

> <Gold.PLP.part.hbond>
-2.8589

> <Gold.PLP.part.metal>
0.0000

> <Gold.PLP.part.buried>
-6.4412

> <Gold.PLP.part.nonpolar>
-25.3045

> <Gold.PLP.part.repulsive>
0.4570

> <Gold.PLP.ligand.clash>
0.0000

> <Gold.PLP.ligand.torsion>
1.0372

> <Gold.PLP.Chemscore.Hbond>
1.0000

> <Gold.PLP.Chemscore.CHOScore>
0.0000

> <Gold.PLP.Chemscore.Metal>
0.0000

> <Gold.Chemscore.Hbonds>
donor molecule, donor type, donor heavy atom, donor atom, acceptor molecule, acceptor atom, score
      P1  H  7989  7998       L1    22  1.00

> <Gold.PLP.Chemscore.Internal.Correction>
0.1947

> <Gold.Rescore>
     Score         DG    S(hbond)    S(metal)    S(lipo)     H(rot)  DE(clash)    DE(int)     intcor
      3.23      -3.80       0.99        0.00      46.07       4.05       0.02       0.55       ----

> <Gold.Chemscore.Fitness>
3.2282

> <Gold.Chemscore.DG>
-3.8001

> <Gold.Chemscore.ZeroCoef>
-5.4800

> <Gold.Chemscore.Hbond>
0.9890

> <Gold.Chemscore.Metal>
0.0000

> <Gold.Chemscore.Lipo>
46.0677

> <Gold.Chemscore.Internal_Hbond>
0.0000

> <Gold.Chemscore.DEClash>
0.0178

> <Gold.Chemscore.DEInternal>
0.5540

> <Gold.Chemscore.Rot>
4.0520

> <Gold.Chemscore.Internal.Correction>
   9.000000E+99

> <Gold.Chemscore.Hbonds>
donor molecule, donor type, donor heavy atom, donor atom, acceptor molecule, acceptor atom, score
      P1  H  7989  7998       L1    22  0.99

> <Gold.Chemscore.Hbond.Weighted>
-3.3033

> <Gold.Chemscore.Metal.Weighted>
-0.0000

> <Gold.Chemscore.Lipo.Weighted>
-5.3899

> <Gold.Chemscore.Internal_Hbond.Weighted>
0.0000

> <Gold.Chemscore.DEClash.Weighted>
0.0178

> <Gold.Chemscore.DEInternal.Weighted>
0.5540

> <Gold.Chemscore.Rot.Weighted>
10.3732

> <Gold.Chemscore.Internal.Correction.Weighted>
   9.000000E+99

> <Gold.Protein.RotatedTorsions>
[ 6907 6896 6895 6894 ] final  -90.03 input  -60.11 | X-H torsion
[ 7974 7965 7964 7962 ] final  -89.21 input  175.53 | X-H torsion
[ 8008 7997 7996 7995 ] final  -18.00 input   59.86 | X-H torsion
[ 10167 10162 10161 10158 ] final  -81.46 input  -65.29 | X-H torsion
[ 10718 10713 10712 10709 ] final   73.11 input   66.30 | X-H torsion
[ 10763 10752 10751 10750 ] final  166.64 input  -60.55 | X-H torsion
[ 11005 11000 10999 10996 ] final -116.77 input  -57.11 | X-H torsion

> <Gold.Protein.ActiveResidues>
 VAL166  LYS551  ARG553  GLY616  TRP617  ASP618  TYR619  PRO620  LYS621  CYS622 
 ASP623  PHE694  ASN695  SER759  ASP760  ASP761  ALA762  ILE779  LEU786  VAL792 
 PHE793  MET794  SER795  GLU796  ALA797  LYS798  CYS799  TRP800  GLU811  SER814 

> <Gold.Protein.RotatedAtoms>
  150.6878  134.2495  159.4504 H   0  0  0  0  0  0  0  0  0  0  0  0  # atno 6907 bound_to 6896
  152.0434  134.9695  160.0583 H   0  0  0  0  0  0  0  0  0  0  0  0  # atno 6908 bound_to 6896
  152.1188  133.4307  159.4702 H   0  0  0  0  0  0  0  0  0  0  0  0  # atno 6909 bound_to 6896
  145.4428  140.9559  143.2065 H   0  0  0  0  0  0  0  0  0  0  0  0  # atno 7974 bound_to 7965
  154.4937  140.2127  155.9492 H   0  0  0  0  0  0  0  0  0  0  0  0  # atno 8008 bound_to 7997
  156.1341  140.3191  155.8362 H   0  0  0  0  0  0  0  0  0  0  0  0  # atno 8009 bound_to 7997
  155.4242  140.0499  157.3014 H   0  0  0  0  0  0  0  0  0  0  0  0  # atno 8010 bound_to 7997
  140.4410  143.2515  151.8626 H   0  0  0  0  0  0  0  0  0  0  0  0  # atno 10167 bound_to 10162
  157.6532  130.9612  150.1023 H   0  0  0  0  0  0  0  0  0  0  0  0  # atno 10718 bound_to 10713
  154.3420  135.2754  155.2418 H   0  0  0  0  0  0  0  0  0  0  0  0  # atno 10763 bound_to 10752
  154.4684  135.5889  153.6308 H   0  0  0  0  0  0  0  0  0  0  0  0  # atno 10764 bound_to 10752
  152.9857  135.6082  154.3622 H   0  0  0  0  0  0  0  0  0  0  0  0  # atno 10765 bound_to 10752
  141.0400  133.9851  157.3010 H   0  0  0  0  0  0  0  0  0  0  0  0  # atno 11005 bound_to 11000
  144.8110  139.5962  143.7029 LP  0  0  0  0  0  0  0  0  0  0  0  0  # atno 17320 bound_to 7965
  146.2547  139.6275  142.9403 LP  0  0  0  0  0  0  0  0  0  0  0  0  # atno 17321 bound_to 7965
  139.4789  144.5229  151.8776 LP  0  0  0  0  0  0  0  0  0  0  0  0  # atno 17342 bound_to 10162
  140.4319  144.2104  150.5888 LP  0  0  0  0  0  0  0  0  0  0  0  0  # atno 17343 bound_to 10162
  156.1942  130.3656  149.8870 LP  0  0  0  0  0  0  0  0  0  0  0  0  # atno 17370 bound_to 10713
  156.6791  130.8851  151.3573 LP  0  0  0  0  0  0  0  0  0  0  0  0  # atno 17371 bound_to 10713
  139.9268  135.0201  156.8264 LP  0  0  0  0  0  0  0  0  0  0  0  0  # atno 17394 bound_to 11000
  140.6252  133.9957  155.7636 LP  0  0  0  0  0  0  0  0  0  0  0  0  # atno 17395 bound_to 11000

$$$$
