AV-unprocessed.smi:218|AV-procd|sdf|1674|dock8
  -GOLD-   2262020 93D 1   1.00000     0.00000
 Structure written by MMmdl.
 54 57  0  0  0  0  0  0  0  0  1 V2000
  145.4311  135.4723  151.3311 C   0  0  0  0  0  0  0  0  0  0  0  0
  145.0440  134.0667  151.8060 C   0  0  0  0  0  0  0  0  0  0  0  0
  143.5218  133.8552  151.7337 C   0  0  0  0  0  0  0  0  0  0  0  0
  145.4983  133.9443  153.1556 O   0  0  0  0  0  0  0  0  0  0  0  0
  146.8477  133.8190  153.4254 C   0  0  0  0  0  0  0  0  0  0  0  0
  147.4236  134.6898  154.3732 C   0  0  0  0  0  0  0  0  0  0  0  0
  148.8010  134.5778  154.6544 C   0  0  0  0  0  0  0  0  0  0  0  0
  149.4651  135.4936  155.6678 C   0  0  0  0  0  0  0  0  0  0  0  0
  148.8027  136.7804  155.8511 N   0  0  0  0  0  0  0  0  0  0  0  0
  149.4861  137.9361  155.6954 C   0  0  0  0  0  0  0  0  0  0  0  0
  149.6162  138.5169  154.4737 N   0  0  0  0  0  0  0  0  0  0  0  0
  150.2940  139.6613  154.3467 C   0  0  0  0  0  0  0  0  0  0  0  0
  150.9025  140.3789  155.2930 N   0  0  0  0  0  0  0  0  0  0  0  0
  150.7711  139.8037  156.5234 C   0  0  0  0  0  0  0  0  0  0  0  0
  150.0801  138.5920  156.8046 C   0  0  0  0  0  0  0  0  0  0  0  0
  150.1478  138.3151  158.1637 N   0  0  0  0  0  0  0  0  0  0  0  0
  150.8406  139.3076  158.6535 C   0  0  0  0  0  0  0  0  0  0  0  0
  151.2625  140.2446  157.7361 N   0  0  0  0  0  0  0  0  0  0  0  0
  152.0798  141.4717  157.9986 C   0  0  2  0  0  0  0  0  0  0  0  0
  152.4866  141.4598  159.3307 O   0  0  0  0  0  0  0  0  0  0  0  0
  152.5200  142.7966  159.8163 C   0  0  2  0  0  0  0  0  0  0  0  0
  152.5166  142.8274  161.3548 C   0  0  0  0  0  0  0  0  0  0  0  0
  152.0154  144.0652  161.8118 O   0  0  0  0  0  0  0  0  0  0  0  0
  151.3058  143.4463  159.1355 C   0  0  2  0  0  0  0  0  0  0  0  0
  150.1174  143.1997  159.8675 O   0  0  0  0  0  0  0  0  0  0  0  0
  151.3005  142.7827  157.7596 C   0  0  2  0  0  0  0  0  0  0  0  0
  150.0039  142.6398  157.2012 O   0  0  0  0  0  0  0  0  0  0  0  0
  149.5509  133.5995  153.9721 C   0  0  0  0  0  0  0  0  0  0  0  0
  148.8878  132.7739  153.0441 C   0  0  0  0  0  0  0  0  0  0  0  0
  147.5701  132.8768  152.7696 N   0  0  0  0  0  0  0  0  0  0  0  0
  152.9447  141.3724  157.3412 H   0  0  0  0  0  0  0  0  0  0  0  0
  153.4214  143.2796  159.4336 H   0  0  0  0  0  0  0  0  0  0  0  0
  151.4249  144.5271  159.0531 H   0  0  0  0  0  0  0  0  0  0  0  0
  151.8993  143.3832  157.0736 H   0  0  0  0  0  0  0  0  0  0  0  0
  145.1137  135.6411  150.3016 H   0  0  0  0  0  0  0  0  0  0  0  0
  146.5116  135.6132  151.3717 H   0  0  0  0  0  0  0  0  0  0  0  0
  144.9717  136.2406  151.9539 H   0  0  0  0  0  0  0  0  0  0  0  0
  145.5508  133.3550  151.1525 H   0  0  0  0  0  0  0  0  0  0  0  0
  143.1587  133.9808  150.7132 H   0  0  0  0  0  0  0  0  0  0  0  0
  142.9952  134.5716  152.3648 H   0  0  0  0  0  0  0  0  0  0  0  0
  143.2355  132.8558  152.0602 H   0  0  0  0  0  0  0  0  0  0  0  0
  146.8166  135.4292  154.8748 H   0  0  0  0  0  0  0  0  0  0  0  0
  149.5505  134.9869  156.6300 H   0  0  0  0  0  0  0  0  0  0  0  0
  150.4850  135.6847  155.3338 H   0  0  0  0  0  0  0  0  0  0  0  0
  147.8701  136.7429  156.2367 H   0  0  0  0  0  0  0  0  0  0  0  0
  150.3577  140.0596  153.3448 H   0  0  0  0  0  0  0  0  0  0  0  0
  151.0708  139.3803  159.7064 H   0  0  0  0  0  0  0  0  0  0  0  0
  151.8622  142.0475  161.7450 H   0  0  0  0  0  0  0  0  0  0  0  0
  153.5136  142.6502  161.7597 H   0  0  0  0  0  0  0  0  0  0  0  0
  151.0730  144.0078  161.8524 H   0  0  0  0  0  0  0  0  0  0  0  0
  149.4786  143.8534  159.6264 H   0  0  0  0  0  0  0  0  0  0  0  0
  149.7381  143.4729  156.8429 H   0  0  0  0  0  0  0  0  0  0  0  0
  150.6078  133.4778  154.1583 H   0  0  0  0  0  0  0  0  0  0  0  0
  149.4311  132.0113  152.5063 H   0  0  0  0  0  0  0  0  0  0  0  0
  1  2  1  0  0  0  0
  1 35  1  0  0  0  0
  1 36  1  0  0  0  0
  1 37  1  0  0  0  0
  2  3  1  0  0  0  0
  2  4  1  0  0  0  0
  2 38  1  0  0  0  0
  3 39  1  0  0  0  0
  3 40  1  0  0  0  0
  3 41  1  0  0  0  0
  4  5  1  0  0  0  0
  5 30  1  0  0  0  0
  5  6  2  0  0  0  0
  6  7  1  0  0  0  0
  6 42  1  0  0  0  0
  7  8  1  0  0  0  0
  7 28  2  0  0  0  0
  8  9  1  0  0  0  0
  8 43  1  0  0  0  0
  8 44  1  0  0  0  0
  9 10  1  0  0  0  0
  9 45  1  0  0  0  0
 10 15  1  0  0  0  0
 10 11  2  0  0  0  0
 11 12  1  0  0  0  0
 12 13  2  0  0  0  0
 12 46  1  0  0  0  0
 13 14  1  0  0  0  0
 14 18  1  0  0  0  0
 14 15  2  0  0  0  0
 15 16  1  0  0  0  0
 16 17  2  0  0  0  0
 17 18  1  0  0  0  0
 17 47  1  0  0  0  0
 18 19  1  0  0  0  0
 19 31  1  0  0  0  0
 19 26  1  0  0  0  0
 19 20  1  0  0  0  0
 20 21  1  0  0  0  0
 21 32  1  0  0  0  0
 21 22  1  0  0  0  0
 21 24  1  0  0  0  0
 22 23  1  0  0  0  0
 22 48  1  0  0  0  0
 22 49  1  0  0  0  0
 23 50  1  0  0  0  0
 24 33  1  0  0  0  0
 24 25  1  0  0  0  0
 24 26  1  0  0  0  0
 25 51  1  0  0  0  0
 26 34  1  0  0  0  0
 26 27  1  0  0  0  0
 27 52  1  0  0  0  0
 28 29  1  0  0  0  0
 28 53  1  0  0  0  0
 29 30  2  0  0  0  0
 29 54  1  0  0  0  0
M  END
> <s_m_source_file>
AV-unprocessed.smi

> <i_m_source_file_index>
218

> <i_lp_mmshare_version>
43012

> <i_f3d_flags>
0

> <s_epik_input>
W0NIM11bQ0hdKFtDSDNdKU9jMVtjSF1jKFtjSF1bY0hdbjEpW0NIMl1bTkhdYyhuW2NIXW4yKWMoYzIzKW5bY0hdbjNbQ0BASF00T1tDQEhdKFtDSDJdW09IXSlbQ0BASF0oW09IXSlbQ0BIXTRbT0hd

> <s_epik_cmdline>
J2VwaWtfcHl0aG9uJywgJy1waCcsICc3LjAnLCAnLXRuJywgJzgnLCAnLW1hJywgJzIwMCcsICctbWV0YWxfYmluZGluZycsICctaW1hZScsICc8aW5maWxlLm1hZT4nLCAnLW9tYWUnLCAnPG91dGZpbGUubWFlPic=

> <r_lp_tautomer_probability>
1

> <r_epik_Ionization_Penalty>
0.00457014

> <r_epik_Ionization_Penalty_Charging>
0

> <r_epik_Ionization_Penalty_Neutral>
0.00457014

> <r_epik_State_Penalty>
-0

> <r_epik_Charging_Adjusted_Penalty>
0

> <i_epik_Tot_Q>
0

> <i_epik_Tot_abs_Q>
0

> <r_epik_Metal_State_Penalty>
-0

> <b_epik_Metal_Only>
0

> <s_epik_Chemistry_Notes>
This compound contains an acetal/aminal-like group ( X-CH(R)-Y where X, Y are N, S, or O) that may be acid/base labile, releasing an aldehyde.

> <s_lp_Force_Field>
OPLS_2005

> <r_lp_Energy>
51.9748

> <b_lp_Chiralities_Consistent>
1

> <s_lp_Variant>
AV-unprocessed.smi:218-13

> <Gold.Version>
5.8.1

> <Gold.Id.Protein>
6NUR|6NUR_protein|mol2

> <Gold.PLP.Fitness>
50.8283

> <Gold.PLP.PLP>
-44.9585

> <Gold.PLP.part.hbond>
-3.7884

> <Gold.PLP.part.metal>
0.0000

> <Gold.PLP.part.buried>
-7.1466

> <Gold.PLP.part.nonpolar>
-34.1749

> <Gold.PLP.part.repulsive>
0.4711

> <Gold.PLP.ligand.clash>
0.0000

> <Gold.PLP.ligand.torsion>
1.5856

> <Gold.PLP.Chemscore.Hbond>
1.0000

> <Gold.PLP.Chemscore.CHOScore>
1.9759

> <Gold.PLP.Chemscore.Metal>
0.0000

> <Gold.Chemscore.Hbonds>
donor molecule, donor type, donor heavy atom, donor atom, acceptor molecule, acceptor atom, score
      L1  H    27    52       P1  8028  1.00
      L1  C    12    46       P1  7957  1.00
      L1  C    29    54       P1 10747  1.00

> <Gold.PLP.Chemscore.Internal.Correction>
0.1133

> <Gold.Rescore>
     Score         DG    S(hbond)    S(metal)    S(lipo)     H(rot)  DE(clash)    DE(int)     intcor
      4.12      -6.08       0.98        0.00      84.31       4.90       0.25       1.70       ----

> <Gold.Chemscore.Fitness>
4.1250

> <Gold.Chemscore.DG>
-6.0778

> <Gold.Chemscore.ZeroCoef>
-5.4800

> <Gold.Chemscore.Hbond>
0.9836

> <Gold.Chemscore.Metal>
0.0000

> <Gold.Chemscore.Lipo>
84.3081

> <Gold.Chemscore.Internal_Hbond>
0.0000

> <Gold.Chemscore.DEClash>
0.2521

> <Gold.Chemscore.DEInternal>
1.7007

> <Gold.Chemscore.Rot>
4.9029

> <Gold.Chemscore.Internal.Correction>
   9.000000E+99

> <Gold.Chemscore.Hbonds>
donor molecule, donor type, donor heavy atom, donor atom, acceptor molecule, acceptor atom, score
      L1  H    27    52       P1  8028  0.99

> <Gold.Chemscore.Hbond.Weighted>
-3.2853

> <Gold.Chemscore.Metal.Weighted>
-0.0000

> <Gold.Chemscore.Lipo.Weighted>
-9.8640

> <Gold.Chemscore.Internal_Hbond.Weighted>
0.0000

> <Gold.Chemscore.DEClash.Weighted>
0.2521

> <Gold.Chemscore.DEInternal.Weighted>
1.7007

> <Gold.Chemscore.Rot.Weighted>
12.5515

> <Gold.Chemscore.Internal.Correction.Weighted>
   9.000000E+99

> <Gold.Protein.RotatedTorsions>
[ 6907 6896 6895 6894 ] final  138.39 input  -60.11 | X-H torsion
[ 7974 7965 7964 7962 ] final  112.20 input  175.53 | X-H torsion
[ 8008 7997 7996 7995 ] final  -94.01 input   59.86 | X-H torsion
[ 10167 10162 10161 10158 ] final -111.25 input  -65.29 | X-H torsion
[ 10718 10713 10712 10709 ] final  -88.40 input   66.30 | X-H torsion
[ 10763 10752 10751 10750 ] final  -81.40 input  -60.55 | X-H torsion
[ 11005 11000 10999 10996 ] final    6.73 input  -57.11 | X-H torsion

> <Gold.Protein.ActiveResidues>
 VAL166  LYS551  ARG553  GLY616  TRP617  ASP618  TYR619  PRO620  LYS621  CYS622 
 ASP623  PHE694  ASN695  SER759  ASP760  ASP761  ALA762  ILE779  LEU786  VAL792 
 PHE793  MET794  SER795  GLU796  ALA797  LYS798  CYS799  TRP800  GLU811  SER814 

> <Gold.Protein.RotatedAtoms>
  152.2671  133.5349  159.5416 H   0  0  0  0  0  0  0  0  0  0  0  0  # atno 6907 bound_to 6896
  150.7146  134.0749  159.3886 H   0  0  0  0  0  0  0  0  0  0  0  0  # atno 6908 bound_to 6896
  151.8665  135.0505  160.0525 H   0  0  0  0  0  0  0  0  0  0  0  0  # atno 6909 bound_to 6896
  145.2326  139.2813  143.4160 H   0  0  0  0  0  0  0  0  0  0  0  0  # atno 7974 bound_to 7965
  154.7430  140.0493  157.0828 H   0  0  0  0  0  0  0  0  0  0  0  0  # atno 8008 bound_to 7997
  155.0154  140.3141  155.4794 H   0  0  0  0  0  0  0  0  0  0  0  0  # atno 8009 bound_to 7997
  156.2868  140.2176  156.5270 H   0  0  0  0  0  0  0  0  0  0  0  0  # atno 8010 bound_to 7997
  140.1356  143.4323  152.1597 H   0  0  0  0  0  0  0  0  0  0  0  0  # atno 10167 bound_to 10162
  155.9984  130.4834  150.5013 H   0  0  0  0  0  0  0  0  0  0  0  0  # atno 10718 bound_to 10713
  154.5631  135.5627  153.7025 H   0  0  0  0  0  0  0  0  0  0  0  0  # atno 10763 bound_to 10752
  153.0024  135.6278  154.2218 H   0  0  0  0  0  0  0  0  0  0  0  0  # atno 10764 bound_to 10752
  154.2156  135.2872  155.2923 H   0  0  0  0  0  0  0  0  0  0  0  0  # atno 10765 bound_to 10752
  140.5562  134.0236  155.7955 H   0  0  0  0  0  0  0  0  0  0  0  0  # atno 11005 bound_to 11000
  146.3349  140.2666  142.8604 LP  0  0  0  0  0  0  0  0  0  0  0  0  # atno 17320 bound_to 7965
  144.9662  140.8324  143.5483 LP  0  0  0  0  0  0  0  0  0  0  0  0  # atno 17321 bound_to 7965
  139.5497  144.7328  151.4472 LP  0  0  0  0  0  0  0  0  0  0  0  0  # atno 17342 bound_to 10162
  140.6791  143.8123  150.7097 LP  0  0  0  0  0  0  0  0  0  0  0  0  # atno 17343 bound_to 10162
  157.2997  131.0642  151.2077 LP  0  0  0  0  0  0  0  0  0  0  0  0  # atno 17370 bound_to 10713
  157.3061  130.6866  149.6190 LP  0  0  0  0  0  0  0  0  0  0  0  0  # atno 17371 bound_to 10713
  141.1142  133.9567  157.2854 LP  0  0  0  0  0  0  0  0  0  0  0  0  # atno 17394 bound_to 11000
  139.9430  135.0188  156.8767 LP  0  0  0  0  0  0  0  0  0  0  0  0  # atno 17395 bound_to 11000

$$$$
