AV-unprocessed.smi:765|AV-procd|sdf|3644|dock1
  -GOLD-   22720 1 43D 1   1.00000     0.00000
 Structure written by MMmdl.
 39 40  0  0  0  0  0  0  0  0  1 V2000
  152.1446  144.4319  158.0235 C   0  0  0  0  0  0  0  0  0  0  0  0
  151.9367  142.9204  157.8523 C   0  0  1  0  0  0  0  0  0  0  0  0
  151.8288  142.2112  159.2141 C   0  0  0  0  0  0  0  0  0  0  0  0
  151.6022  140.7022  159.0474 C   0  0  0  0  0  0  0  0  0  0  0  0
  150.3632  140.4250  158.1810 C   0  0  0  0  0  0  0  0  0  0  0  0
  150.4532  141.0999  156.7943 C   0  0  1  0  0  0  0  0  0  0  0  0
  151.5572  140.4917  156.0241 C   0  0  0  0  0  0  0  0  0  0  0  0
  152.4216  140.0142  155.4208 N   0  0  0  0  0  0  0  0  0  0  0  0
  149.1666  140.8887  156.1282 N   0  0  0  0  0  0  0  0  0  0  0  0
  148.9232  140.9237  154.8070 C   0  0  0  0  0  0  0  0  0  0  0  0
  149.7991  141.1088  153.9618 O   0  0  0  0  0  0  0  0  0  0  0  0
  147.4562  140.7395  154.3901 C   0  0  2  0  0  0  0  0  0  0  0  0
  147.2847  140.5166  152.8761 C   0  0  0  0  0  0  0  0  0  0  0  0
  146.6606  141.8726  154.8448 N   0  0  0  0  0  0  0  0  0  0  0  0
  145.9275  142.7737  154.0964 C   0  0  0  0  0  0  0  0  0  0  0  0
  145.3576  143.6592  154.9654 C   0  0  0  0  0  0  0  0  0  0  0  0
  145.8008  143.2124  156.2412 C   0  0  0  0  0  0  0  0  0  0  0  0
  146.5791  142.1450  156.1660 N   0  0  0  0  0  0  0  0  0  0  0  0
  150.6939  142.6184  156.9905 C   0  0  0  0  0  0  0  0  0  0  0  0
  151.3003  144.8928  158.5374 H   0  0  0  0  0  0  0  0  0  0  0  0
  152.2556  144.9249  157.0572 H   0  0  0  0  0  0  0  0  0  0  0  0
  153.0429  144.6412  158.6049 H   0  0  0  0  0  0  0  0  0  0  0  0
  152.8137  142.5278  157.3362 H   0  0  0  0  0  0  0  0  0  0  0  0
  152.7334  142.3827  159.7982 H   0  0  0  0  0  0  0  0  0  0  0  0
  151.0058  142.6394  159.7883 H   0  0  0  0  0  0  0  0  0  0  0  0
  152.4834  140.2444  158.5965 H   0  0  0  0  0  0  0  0  0  0  0  0
  151.4813  140.2365  160.0258 H   0  0  0  0  0  0  0  0  0  0  0  0
  150.2347  139.3479  158.0649 H   0  0  0  0  0  0  0  0  0  0  0  0
  149.4774  140.7814  158.7095 H   0  0  0  0  0  0  0  0  0  0  0  0
  148.3760  140.7275  156.7351 H   0  0  0  0  0  0  0  0  0  0  0  0
  147.0897  139.8427  154.8941 H   0  0  0  0  0  0  0  0  0  0  0  0
  147.8661  139.6594  152.5349 H   0  0  0  0  0  0  0  0  0  0  0  0
  147.6017  141.3861  152.2988 H   0  0  0  0  0  0  0  0  0  0  0  0
  146.2407  140.3213  152.6299 H   0  0  0  0  0  0  0  0  0  0  0  0
  145.8757  142.7111  153.0191 H   0  0  0  0  0  0  0  0  0  0  0  0
  144.7206  144.4975  154.7259 H   0  0  0  0  0  0  0  0  0  0  0  0
  145.5820  143.6293  157.2133 H   0  0  0  0  0  0  0  0  0  0  0  0
  149.8166  143.0695  157.4574 H   0  0  0  0  0  0  0  0  0  0  0  0
  150.8049  143.1081  156.0221 H   0  0  0  0  0  0  0  0  0  0  0  0
  1  2  1  0  0  0  0
  1 20  1  0  0  0  0
  1 21  1  0  0  0  0
  1 22  1  0  0  0  0
  2 19  1  0  0  0  0
  2  3  1  0  0  0  0
  2 23  1  0  0  0  0
  3  4  1  0  0  0  0
  3 24  1  0  0  0  0
  3 25  1  0  0  0  0
  4  5  1  0  0  0  0
  4 26  1  0  0  0  0
  4 27  1  0  0  0  0
  5  6  1  0  0  0  0
  5 28  1  0  0  0  0
  5 29  1  0  0  0  0
  6  7  1  0  0  0  0
  6  9  1  0  0  0  0
  6 19  1  0  0  0  0
  7  8  3  0  0  0  0
  9 10  1  0  0  0  0
  9 30  1  0  0  0  0
 10 11  2  0  0  0  0
 10 12  1  0  0  0  0
 12 13  1  0  0  0  0
 12 14  1  0  0  0  0
 12 31  1  0  0  0  0
 13 32  1  0  0  0  0
 13 33  1  0  0  0  0
 13 34  1  0  0  0  0
 14 18  1  0  0  0  0
 14 15  1  0  0  0  0
 15 16  2  0  0  0  0
 15 35  1  0  0  0  0
 16 17  1  0  0  0  0
 16 36  1  0  0  0  0
 17 18  2  0  0  0  0
 17 37  1  0  0  0  0
 19 38  1  0  0  0  0
 19 39  1  0  0  0  0
M  END
> <s_m_source_file>
AV-unprocessed.smi

> <i_m_source_file_index>
765

> <i_lp_mmshare_version>
43012

> <i_f3d_flags>
0

> <s_epik_input>
W0NIM11bQ0BASF0oW0NIMl0xKVtDSDJdW0NIMl1bQ0gyXVtDQEBdMShDI04pW05IXUMoPU8pW0NASF0oW0NIM10pbjJbY0hdW2NIXVtjSF1uMg==

> <s_epik_cmdline>
J2VwaWtfcHl0aG9uJywgJy1waCcsICc3LjAnLCAnLXRuJywgJzgnLCAnLW1hJywgJzIwMCcsICctbWV0YWxfYmluZGluZycsICctaW1hZScsICc8aW5maWxlLm1hZT4nLCAnLW9tYWUnLCAnPG91dGZpbGUubWFlPic=

> <r_lp_tautomer_probability>
1

> <r_epik_Ionization_Penalty>
2.71142e-05

> <r_epik_Ionization_Penalty_Charging>
0

> <r_epik_Ionization_Penalty_Neutral>
2.71142e-05

> <r_epik_State_Penalty>
-0

> <r_epik_Charging_Adjusted_Penalty>
0

> <i_epik_Tot_Q>
0

> <i_epik_Tot_abs_Q>
0

> <r_epik_Metal_State_Penalty>
-0

> <b_epik_Metal_Only>
0

> <s_lp_Force_Field>
OPLS_2005

> <r_lp_Energy>
10.7607

> <b_lp_Chiralities_Consistent>
1

> <s_lp_Variant>
AV-unprocessed.smi:765-2

> <Gold.Version>
5.8.1

> <Gold.Id.Protein>
6NUR|6NUR_protein|mol2

> <Gold.PLP.Fitness>
39.6247

> <Gold.PLP.PLP>
-34.6809

> <Gold.PLP.part.hbond>
-3.9346

> <Gold.PLP.part.metal>
0.0000

> <Gold.PLP.part.buried>
-0.5130

> <Gold.PLP.part.nonpolar>
-30.5881

> <Gold.PLP.part.repulsive>
1.2692

> <Gold.PLP.ligand.clash>
0.0000

> <Gold.PLP.ligand.torsion>
0.6901

> <Gold.PLP.Chemscore.Hbond>
2.0864

> <Gold.PLP.Chemscore.CHOScore>
0.0000

> <Gold.PLP.Chemscore.Metal>
0.0000

> <Gold.Chemscore.Hbonds>
donor molecule, donor type, donor heavy atom, donor atom, acceptor molecule, acceptor atom, score
      P1  H  7989  7998       L1    11  0.38
      P1  H  7997  8009       L1     8  0.93
      P1  H  8011  8017       L1    11  0.70

> <Gold.PLP.Chemscore.Internal.Correction>
0.0650

> <Gold.Rescore>
     Score         DG    S(hbond)    S(metal)    S(lipo)     H(rot)  DE(clash)    DE(int)     intcor
     13.05     -17.95       1.86        0.00      84.48       1.42       1.74       3.16       ----

> <Gold.Chemscore.Fitness>
13.0463

> <Gold.Chemscore.DG>
-17.9515

> <Gold.Chemscore.ZeroCoef>
-5.4800

> <Gold.Chemscore.Hbond>
1.8619

> <Gold.Chemscore.Metal>
0.0000

> <Gold.Chemscore.Lipo>
84.4750

> <Gold.Chemscore.Internal_Hbond>
0.0000

> <Gold.Chemscore.DEClash>
1.7410

> <Gold.Chemscore.DEInternal>
3.1641

> <Gold.Chemscore.Rot>
1.4183

> <Gold.Chemscore.Internal.Correction>
   9.000000E+99

> <Gold.Chemscore.Hbonds>
donor molecule, donor type, donor heavy atom, donor atom, acceptor molecule, acceptor atom, score
      P1  H  7989  7998       L1    11  0.38
      P1  H  7997  8009       L1     8  0.88
      P1  H  8011  8017       L1    11  0.68

> <Gold.Chemscore.Hbond.Weighted>
-6.2188

> <Gold.Chemscore.Metal.Weighted>
-0.0000

> <Gold.Chemscore.Lipo.Weighted>
-9.8836

> <Gold.Chemscore.Internal_Hbond.Weighted>
0.0000

> <Gold.Chemscore.DEClash.Weighted>
1.7410

> <Gold.Chemscore.DEInternal.Weighted>
3.1641

> <Gold.Chemscore.Rot.Weighted>
3.6309

> <Gold.Chemscore.Internal.Correction.Weighted>
   9.000000E+99

> <Gold.Protein.RotatedTorsions>
[ 6907 6896 6895 6894 ] final  -25.54 input  -60.11 | X-H torsion
[ 7974 7965 7964 7962 ] final   31.84 input  175.53 | X-H torsion
[ 8008 7997 7996 7995 ] final -144.28 input   59.86 | X-H torsion
[ 10167 10162 10161 10158 ] final  -45.68 input  -65.29 | X-H torsion
[ 10718 10713 10712 10709 ] final -140.36 input   66.30 | X-H torsion
[ 10763 10752 10751 10750 ] final -143.61 input  -60.55 | X-H torsion
[ 11005 11000 10999 10996 ] final   32.94 input  -57.11 | X-H torsion

> <Gold.Protein.ActiveResidues>
 VAL166  LYS551  ARG553  GLY616  TRP617  ASP618  TYR619  PRO620  LYS621  CYS622 
 ASP623  PHE694  ASN695  SER759  ASP760  ASP761  ALA762  ILE779  LEU786  VAL792 
 PHE793  MET794  SER795  GLU796  ALA797  LYS798  CYS799  TRP800  GLU811  SER814 

> <Gold.Protein.RotatedAtoms>
  151.1737  135.0330  159.8762 H   0  0  0  0  0  0  0  0  0  0  0  0  # atno 6907 bound_to 6896
  152.5448  134.1141  159.8381 H   0  0  0  0  0  0  0  0  0  0  0  0  # atno 6908 bound_to 6896
  151.1250  133.5030  159.2633 H   0  0  0  0  0  0  0  0  0  0  0  0  # atno 6909 bound_to 6896
  146.1525  139.6604  142.9089 H   0  0  0  0  0  0  0  0  0  0  0  0  # atno 7974 bound_to 7965
  155.5244  140.0594  157.2901 H   0  0  0  0  0  0  0  0  0  0  0  0  # atno 8008 bound_to 7997
  154.4506  140.1947  156.0476 H   0  0  0  0  0  0  0  0  0  0  0  0  # atno 8009 bound_to 7997
  156.0696  140.3262  155.7564 H   0  0  0  0  0  0  0  0  0  0  0  0  # atno 8010 bound_to 7997
  140.6848  143.2868  151.3673 H   0  0  0  0  0  0  0  0  0  0  0  0  # atno 10167 bound_to 10162
  156.3214  130.7536  151.1634 H   0  0  0  0  0  0  0  0  0  0  0  0  # atno 10718 bound_to 10713
  154.8462  135.3463  154.6215 H   0  0  0  0  0  0  0  0  0  0  0  0  # atno 10763 bound_to 10752
  153.6824  135.6979  153.5118 H   0  0  0  0  0  0  0  0  0  0  0  0  # atno 10764 bound_to 10752
  153.2658  135.4308  155.0895 H   0  0  0  0  0  0  0  0  0  0  0  0  # atno 10765 bound_to 10752
  140.2683  134.3112  155.7836 H   0  0  0  0  0  0  0  0  0  0  0  0  # atno 11005 bound_to 11000
  145.4789  141.0437  143.2657 LP  0  0  0  0  0  0  0  0  0  0  0  0  # atno 17320 bound_to 7965
  144.7921  139.6306  143.7108 LP  0  0  0  0  0  0  0  0  0  0  0  0  # atno 17321 bound_to 7965
  139.6198  144.0929  152.2381 LP  0  0  0  0  0  0  0  0  0  0  0  0  # atno 17342 bound_to 10162
  140.0370  144.6037  150.7442 LP  0  0  0  0  0  0  0  0  0  0  0  0  # atno 17343 bound_to 10162
  157.7412  131.0506  150.5110 LP  0  0  0  0  0  0  0  0  0  0  0  0  # atno 17370 bound_to 10713
  156.5263  130.4174  149.6224 LP  0  0  0  0  0  0  0  0  0  0  0  0  # atno 17371 bound_to 10713
  141.2181  133.7451  156.9295 LP  0  0  0  0  0  0  0  0  0  0  0  0  # atno 17394 bound_to 11000
  140.1398  134.9301  157.2451 LP  0  0  0  0  0  0  0  0  0  0  0  0  # atno 17395 bound_to 11000

$$$$
