AV-unprocessed.smi:2435|AV-procd|sdf|9592|dock3
  -GOLD-   2272013223D 1   1.00000     0.00000
 Structure written by MMmdl.
 44 45  0  0  0  0  0  0  0  0  1 V2000
  147.2669  140.4219  153.1886 C   0  0  0  0  0  0  0  0  0  0  0  0
  147.6325  139.5502  154.2448 O   0  0  0  0  0  0  0  0  0  0  0  0
  148.9662  139.4692  154.4382 C   0  0  0  0  0  0  0  0  0  0  0  0
  149.8324  138.4112  154.4170 C   0  0  0  0  0  0  0  0  0  0  0  0
  149.5866  137.0346  154.1796 N   0  0  0  0  0  0  0  0  0  0  0  0
  149.6862  136.0261  155.0600 C   0  0  0  0  0  0  0  0  0  0  0  0
  150.0165  136.1473  156.2393 O   0  0  0  0  0  0  0  0  0  0  0  0
  149.3578  134.8546  154.4962 N   0  0  0  0  0  0  0  0  0  0  0  0
  149.3530  133.5587  155.1713 C   0  0  0  0  0  0  0  0  0  0  0  0
  150.6177  133.4687  156.0461 C   0  0  0  0  0  0  0  0  0  0  0  0
  150.7911  132.1487  156.8174 C   0  0  0  0  0  0  0  0  0  0  0  0
  151.2256  130.9842  155.9130 C   0  0  0  0  0  0  0  0  0  0  0  0
  150.0810  130.2235  155.2215 C   0  0  0  0  0  0  0  0  0  0  0  0
  148.8798  131.0638  154.7534 C   0  0  0  0  0  0  0  0  0  0  0  0
  149.2235  132.4259  154.1280 C   0  0  0  0  0  0  0  0  0  0  0  0
  151.0975  138.9647  154.7576 C   0  0  0  0  0  0  0  0  0  0  0  0
  152.4211  138.2750  154.9252 C   0  0  0  0  0  0  0  0  0  0  0  0
  151.0165  140.2798  154.9266 N   0  0  0  0  0  0  0  0  0  0  0  0
  149.7135  140.5927  154.7218 N   0  0  0  0  0  0  0  0  0  0  0  0
  149.2762  141.9681  154.8436 C   0  0  0  0  0  0  0  0  0  0  0  0
  146.1830  140.4249  153.0760 H   0  0  0  0  0  0  0  0  0  0  0  0
  147.7033  140.0958  152.2433 H   0  0  0  0  0  0  0  0  0  0  0  0
  147.5864  141.4462  153.3843 H   0  0  0  0  0  0  0  0  0  0  0  0
  149.2122  136.8059  153.2705 H   0  0  0  0  0  0  0  0  0  0  0  0
  149.0917  134.8567  153.5224 H   0  0  0  0  0  0  0  0  0  0  0  0
  148.4878  133.5223  155.8364 H   0  0  0  0  0  0  0  0  0  0  0  0
  151.5051  133.6526  155.4384 H   0  0  0  0  0  0  0  0  0  0  0  0
  150.5874  134.2823  156.7722 H   0  0  0  0  0  0  0  0  0  0  0  0
  151.5735  132.3037  157.5614 H   0  0  0  0  0  0  0  0  0  0  0  0
  149.8916  131.8975  157.3807 H   0  0  0  0  0  0  0  0  0  0  0  0
  151.9257  131.3514  155.1618 H   0  0  0  0  0  0  0  0  0  0  0  0
  151.7941  130.2667  156.5061 H   0  0  0  0  0  0  0  0  0  0  0  0
  150.4971  129.6872  154.3682 H   0  0  0  0  0  0  0  0  0  0  0  0
  149.7084  129.4521  155.8964 H   0  0  0  0  0  0  0  0  0  0  0  0
  148.3253  130.4717  154.0245 H   0  0  0  0  0  0  0  0  0  0  0  0
  148.1882  131.2102  155.5840 H   0  0  0  0  0  0  0  0  0  0  0  0
  148.4120  132.6797  153.4446 H   0  0  0  0  0  0  0  0  0  0  0  0
  150.1193  132.3552  153.5096 H   0  0  0  0  0  0  0  0  0  0  0  0
  152.4198  137.2922  154.4534 H   0  0  0  0  0  0  0  0  0  0  0  0
  152.6570  138.1364  155.9805 H   0  0  0  0  0  0  0  0  0  0  0  0
  153.2284  138.8536  154.4757 H   0  0  0  0  0  0  0  0  0  0  0  0
  148.4775  142.1671  154.1286 H   0  0  0  0  0  0  0  0  0  0  0  0
  150.1041  142.6495  154.6432 H   0  0  0  0  0  0  0  0  0  0  0  0
  148.9032  142.1441  155.8527 H   0  0  0  0  0  0  0  0  0  0  0  0
  1  2  1  0  0  0  0
  1 21  1  0  0  0  0
  1 22  1  0  0  0  0
  1 23  1  0  0  0  0
  2  3  1  0  0  0  0
  3 19  1  0  0  0  0
  3  4  2  0  0  0  0
  4  5  1  0  0  0  0
  4 16  1  0  0  0  0
  5  6  1  0  0  0  0
  5 24  1  0  0  0  0
  6  7  2  0  0  0  0
  6  8  1  0  0  0  0
  8  9  1  0  0  0  0
  8 25  1  0  0  0  0
  9 15  1  0  0  0  0
  9 10  1  0  0  0  0
  9 26  1  0  0  0  0
 10 11  1  0  0  0  0
 10 27  1  0  0  0  0
 10 28  1  0  0  0  0
 11 12  1  0  0  0  0
 11 29  1  0  0  0  0
 11 30  1  0  0  0  0
 12 13  1  0  0  0  0
 12 31  1  0  0  0  0
 12 32  1  0  0  0  0
 13 14  1  0  0  0  0
 13 33  1  0  0  0  0
 13 34  1  0  0  0  0
 14 15  1  0  0  0  0
 14 35  1  0  0  0  0
 14 36  1  0  0  0  0
 15 37  1  0  0  0  0
 15 38  1  0  0  0  0
 16 17  1  0  0  0  0
 16 18  2  0  0  0  0
 17 39  1  0  0  0  0
 17 40  1  0  0  0  0
 17 41  1  0  0  0  0
 18 19  1  0  0  0  0
 19 20  1  0  0  0  0
 20 42  1  0  0  0  0
 20 43  1  0  0  0  0
 20 44  1  0  0  0  0
M  END
> <s_m_source_file>
AV-unprocessed.smi

> <i_m_source_file_index>
2435

> <i_lp_mmshare_version>
43012

> <i_f3d_flags>
0

> <s_epik_input>
W0NIM11uMW5jKFtDSDNdKWMoYzFPW0NIM10pW05IXUMoPU8pW05IXVtDSF0yW0NIMl1bQ0gyXVtDSDJdW0NIMl1bQ0gyXVtDSDJdMg==

> <s_epik_cmdline>
J2VwaWtfcHl0aG9uJywgJy1waCcsICc3LjAnLCAnLXRuJywgJzgnLCAnLW1hJywgJzIwMCcsICctbWV0YWxfYmluZGluZycsICctaW1hZScsICc8aW5maWxlLm1hZT4nLCAnLW9tYWUnLCAnPG91dGZpbGUubWFlPic=

> <r_lp_tautomer_probability>
1

> <r_epik_Ionization_Penalty>
0.000417553

> <r_epik_Ionization_Penalty_Charging>
0

> <r_epik_Ionization_Penalty_Neutral>
0.000417553

> <r_epik_State_Penalty>
-0

> <r_epik_Charging_Adjusted_Penalty>
0

> <i_epik_Tot_Q>
0

> <i_epik_Tot_abs_Q>
0

> <r_epik_Metal_State_Penalty>
-0

> <b_epik_Metal_Only>
0

> <s_lp_Force_Field>
OPLS_2005

> <r_lp_Energy>
21.6667

> <b_lp_Chiralities_Consistent>
1

> <s_lp_Variant>
AV-unprocessed.smi:2435-1

> <Gold.Version>
5.8.1

> <Gold.Id.Protein>
6NUR|6NUR_protein|mol2

> <Gold.PLP.Fitness>
42.8660

> <Gold.PLP.PLP>
-35.9405

> <Gold.PLP.part.hbond>
-3.1564

> <Gold.PLP.part.metal>
0.0000

> <Gold.PLP.part.buried>
0.2877

> <Gold.PLP.part.nonpolar>
-33.3623

> <Gold.PLP.part.repulsive>
0.2467

> <Gold.PLP.ligand.clash>
0.0000

> <Gold.PLP.ligand.torsion>
0.8183

> <Gold.PLP.Chemscore.Hbond>
2.8480

> <Gold.PLP.Chemscore.CHOScore>
0.0000

> <Gold.PLP.Chemscore.Metal>
0.0000

> <Gold.Chemscore.Hbonds>
donor molecule, donor type, donor heavy atom, donor atom, acceptor molecule, acceptor atom, score
      L1  H     5    24       P1  7948  0.98
      L1  H     8    25       P1  7948  0.56
      P1  H  7989  7998       L1    18  0.90

> <Gold.PLP.Chemscore.Internal.Correction>
0.0181

> <Gold.Rescore>
     Score         DG    S(hbond)    S(metal)    S(lipo)     H(rot)  DE(clash)    DE(int)     intcor
     14.28     -16.20       1.70        0.00      69.72       1.21       0.13       1.78       ----

> <Gold.Chemscore.Fitness>
14.2849

> <Gold.Chemscore.DG>
-16.1994

> <Gold.Chemscore.ZeroCoef>
-5.4800

> <Gold.Chemscore.Hbond>
1.6959

> <Gold.Chemscore.Metal>
0.0000

> <Gold.Chemscore.Lipo>
69.7217

> <Gold.Chemscore.Internal_Hbond>
0.0000

> <Gold.Chemscore.DEClash>
0.1305

> <Gold.Chemscore.DEInternal>
1.7840

> <Gold.Chemscore.Rot>
1.2119

> <Gold.Chemscore.Internal.Correction>
   9.000000E+99

> <Gold.Chemscore.Hbonds>
donor molecule, donor type, donor heavy atom, donor atom, acceptor molecule, acceptor atom, score
      L1  H     5    24       P1  7948  0.90
      L1  H     8    25       P1  7948  0.11
      P1  H  7989  7998       L1    18  0.07

> <Gold.Chemscore.Hbond.Weighted>
-5.6643

> <Gold.Chemscore.Metal.Weighted>
-0.0000

> <Gold.Chemscore.Lipo.Weighted>
-8.1574

> <Gold.Chemscore.Internal_Hbond.Weighted>
0.0000

> <Gold.Chemscore.DEClash.Weighted>
0.1305

> <Gold.Chemscore.DEInternal.Weighted>
1.7840

> <Gold.Chemscore.Rot.Weighted>
3.1024

> <Gold.Chemscore.Internal.Correction.Weighted>
   9.000000E+99

> <Gold.Protein.RotatedTorsions>
[ 6907 6896 6895 6894 ] final   23.59 input  -60.11 | X-H torsion
[ 7974 7965 7964 7962 ] final  -33.98 input  175.53 | X-H torsion
[ 8008 7997 7996 7995 ] final  164.90 input   59.86 | X-H torsion
[ 10167 10162 10161 10158 ] final -174.65 input  -65.29 | X-H torsion
[ 10718 10713 10712 10709 ] final  158.83 input   66.30 | X-H torsion
[ 10763 10752 10751 10750 ] final   22.32 input  -60.55 | X-H torsion
[ 11005 11000 10999 10996 ] final   40.02 input  -57.11 | X-H torsion

> <Gold.Protein.ActiveResidues>
 VAL166  LYS551  ARG553  GLY616  TRP617  ASP618  TYR619  PRO620  LYS621  CYS622 
 ASP623  PHE694  ASN695  SER759  ASP760  ASP761  ALA762  ILE779  LEU786  VAL792 
 PHE793  MET794  SER795  GLU796  ALA797  LYS798  CYS799  TRP800  GLU811  SER814 

> <Gold.Protein.RotatedAtoms>
  151.9447  135.0197  160.0537 H   0  0  0  0  0  0  0  0  0  0  0  0  # atno 6907 bound_to 6896
  152.2006  133.4833  159.5065 H   0  0  0  0  0  0  0  0  0  0  0  0  # atno 6908 bound_to 6896
  150.6954  134.1513  159.4184 H   0  0  0  0  0  0  0  0  0  0  0  0  # atno 6909 bound_to 6896
  146.0866  140.5983  142.8883 H   0  0  0  0  0  0  0  0  0  0  0  0  # atno 7974 bound_to 7965
  156.1843  140.1684  156.8215 H   0  0  0  0  0  0  0  0  0  0  0  0  # atno 8008 bound_to 7997
  154.5396  140.0739  156.8520 H   0  0  0  0  0  0  0  0  0  0  0  0  # atno 8009 bound_to 7997
  155.3241  140.3375  155.4243 H   0  0  0  0  0  0  0  0  0  0  0  0  # atno 8010 bound_to 7997
  139.5623  144.1841  152.1257 H   0  0  0  0  0  0  0  0  0  0  0  0  # atno 10167 bound_to 10162
  157.1725  131.0613  151.2175 H   0  0  0  0  0  0  0  0  0  0  0  0  # atno 10718 bound_to 10713
  153.0924  135.6650  153.9828 H   0  0  0  0  0  0  0  0  0  0  0  0  # atno 10763 bound_to 10752
  153.9421  135.2993  155.3443 H   0  0  0  0  0  0  0  0  0  0  0  0  # atno 10764 bound_to 10752
  154.7340  135.5110  153.9084 H   0  0  0  0  0  0  0  0  0  0  0  0  # atno 10765 bound_to 10752
  140.1971  134.3916  155.8115 H   0  0  0  0  0  0  0  0  0  0  0  0  # atno 11005 bound_to 11000
  144.7330  140.4728  143.6924 LP  0  0  0  0  0  0  0  0  0  0  0  0  # atno 17320 bound_to 7965
  145.6118  139.1514  143.3072 LP  0  0  0  0  0  0  0  0  0  0  0  0  # atno 17321 bound_to 7965
  140.1356  144.5248  150.6775 LP  0  0  0  0  0  0  0  0  0  0  0  0  # atno 17342 bound_to 10162
  140.6903  143.2372  151.5148 LP  0  0  0  0  0  0  0  0  0  0  0  0  # atno 17343 bound_to 10162
  157.4030  130.7343  149.6781 LP  0  0  0  0  0  0  0  0  0  0  0  0  # atno 17370 bound_to 10713
  155.9736  130.4116  150.3988 LP  0  0  0  0  0  0  0  0  0  0  0  0  # atno 17371 bound_to 10713
  141.2227  133.7075  156.8194 LP  0  0  0  0  0  0  0  0  0  0  0  0  # atno 17394 bound_to 11000
  140.2095  134.8838  157.3259 LP  0  0  0  0  0  0  0  0  0  0  0  0  # atno 17395 bound_to 11000

$$$$
