AV-unprocessed.smi:2463|AV-procd|sdf|9720|dock6
  -GOLD-   2272013363D 1   1.00000     0.00000
 Structure written by MMmdl.
 47 48  0  0  0  0  0  0  0  0  1 V2000
  150.8172  142.1005  156.6856 C   0  0  0  0  0  0  0  0  0  0  0  0
  149.4700  141.4900  156.2848 C   0  0  0  0  0  0  0  0  0  0  0  0
  149.1067  141.7811  154.8211 C   0  0  0  0  0  0  0  0  0  0  0  0
  148.2346  140.7617  154.2707 N   0  0  0  0  0  0  0  0  0  0  0  0
  148.5820  139.6613  153.5125 C   0  0  0  0  0  0  0  0  0  0  0  0
  147.4091  139.0159  153.2399 C   0  0  0  0  0  0  0  0  0  0  0  0
  147.1875  137.8272  152.4998 N   0  0  0  0  0  0  0  0  0  0  0  0
  146.0069  137.2603  152.2031 C   0  0  0  0  0  0  0  0  0  0  0  0
  144.9075  137.6907  152.5518 O   0  0  0  0  0  0  0  0  0  0  0  0
  146.1717  136.1481  151.4743 N   0  0  0  0  0  0  0  0  0  0  0  0
  145.0919  135.2816  151.0061 C   0  0  1  0  0  0  0  0  0  0  0  0
  145.6228  133.9658  150.4724 C   0  0  0  0  0  0  0  0  0  0  0  0
  144.4189  133.0253  150.6074 C   0  0  0  0  0  0  0  0  0  0  0  0
  143.5381  133.0343  149.3460 C   0  0  0  0  0  0  0  0  0  0  0  0
  144.8360  131.5936  150.9767 C   0  0  0  0  0  0  0  0  0  0  0  0
  143.6369  133.5598  151.6748 O   0  0  0  0  0  0  0  0  0  0  0  0
  144.1289  134.8225  152.1223 C   0  0  0  0  0  0  0  0  0  0  0  0
  144.8084  134.5698  153.4846 C   0  0  0  0  0  0  0  0  0  0  0  0
  142.9277  135.7674  152.2820 C   0  0  0  0  0  0  0  0  0  0  0  0
  146.3911  139.7821  153.8644 C   0  0  0  0  0  0  0  0  0  0  0  0
  146.8976  140.8371  154.4843 N   0  0  0  0  0  0  0  0  0  0  0  0
  151.0488  141.8801  157.7281 H   0  0  0  0  0  0  0  0  0  0  0  0
  150.8092  143.1847  156.5683 H   0  0  0  0  0  0  0  0  0  0  0  0
  151.6269  141.7021  156.0736 H   0  0  0  0  0  0  0  0  0  0  0  0
  149.5019  140.4120  156.4490 H   0  0  0  0  0  0  0  0  0  0  0  0
  148.6896  141.8790  156.9402 H   0  0  0  0  0  0  0  0  0  0  0  0
  148.6042  142.7460  154.7400 H   0  0  0  0  0  0  0  0  0  0  0  0
  150.0073  141.8406  154.2079 H   0  0  0  0  0  0  0  0  0  0  0  0
  149.6068  139.4484  153.2470 H   0  0  0  0  0  0  0  0  0  0  0  0
  148.0153  137.3608  152.1591 H   0  0  0  0  0  0  0  0  0  0  0  0
  147.1123  135.8702  151.2353 H   0  0  0  0  0  0  0  0  0  0  0  0
  144.5331  135.7692  150.2048 H   0  0  0  0  0  0  0  0  0  0  0  0
  145.9955  134.0426  149.4502 H   0  0  0  0  0  0  0  0  0  0  0  0
  146.4481  133.6169  151.0952 H   0  0  0  0  0  0  0  0  0  0  0  0
  144.0822  132.6519  148.4820 H   0  0  0  0  0  0  0  0  0  0  0  0
  143.1960  134.0406  149.1029 H   0  0  0  0  0  0  0  0  0  0  0  0
  142.6526  132.4125  149.4808 H   0  0  0  0  0  0  0  0  0  0  0  0
  145.4565  131.1501  150.1975 H   0  0  0  0  0  0  0  0  0  0  0  0
  143.9644  130.9528  151.1134 H   0  0  0  0  0  0  0  0  0  0  0  0
  145.4050  131.5743  151.9066 H   0  0  0  0  0  0  0  0  0  0  0  0
  145.1793  135.4949  153.9266 H   0  0  0  0  0  0  0  0  0  0  0  0
  145.6497  133.8824  153.3942 H   0  0  0  0  0  0  0  0  0  0  0  0
  144.1059  134.1312  154.1938 H   0  0  0  0  0  0  0  0  0  0  0  0
  143.2420  136.7526  152.6267 H   0  0  0  0  0  0  0  0  0  0  0  0
  142.2130  135.3759  153.0064 H   0  0  0  0  0  0  0  0  0  0  0  0
  142.3986  135.8981  151.3377 H   0  0  0  0  0  0  0  0  0  0  0  0
  145.3247  139.6126  153.8884 H   0  0  0  0  0  0  0  0  0  0  0  0
  1  2  1  0  0  0  0
  1 22  1  0  0  0  0
  1 23  1  0  0  0  0
  1 24  1  0  0  0  0
  2  3  1  0  0  0  0
  2 25  1  0  0  0  0
  2 26  1  0  0  0  0
  3  4  1  0  0  0  0
  3 27  1  0  0  0  0
  3 28  1  0  0  0  0
  4 21  1  0  0  0  0
  4  5  1  0  0  0  0
  5  6  2  0  0  0  0
  5 29  1  0  0  0  0
  6  7  1  0  0  0  0
  6 20  1  0  0  0  0
  7  8  1  0  0  0  0
  7 30  1  0  0  0  0
  8  9  2  0  0  0  0
  8 10  1  0  0  0  0
 10 11  1  0  0  0  0
 10 31  1  0  0  0  0
 11 17  1  0  0  0  0
 11 12  1  0  0  0  0
 11 32  1  0  0  0  0
 12 13  1  0  0  0  0
 12 33  1  0  0  0  0
 12 34  1  0  0  0  0
 13 14  1  0  0  0  0
 13 15  1  0  0  0  0
 13 16  1  0  0  0  0
 14 35  1  0  0  0  0
 14 36  1  0  0  0  0
 14 37  1  0  0  0  0
 15 38  1  0  0  0  0
 15 39  1  0  0  0  0
 15 40  1  0  0  0  0
 16 17  1  0  0  0  0
 17 18  1  0  0  0  0
 17 19  1  0  0  0  0
 18 41  1  0  0  0  0
 18 42  1  0  0  0  0
 18 43  1  0  0  0  0
 19 44  1  0  0  0  0
 19 45  1  0  0  0  0
 19 46  1  0  0  0  0
 20 21  2  0  0  0  0
 20 47  1  0  0  0  0
M  END
> <s_m_source_file>
AV-unprocessed.smi

> <i_m_source_file_index>
2463

> <i_lp_mmshare_version>
43012

> <i_f3d_flags>
0

> <s_epik_input>
W0NIM11bQ0gyXVtDSDJdbjFbY0hdYyhbY0hdbjEpW05IXUMoPU8pW05IXVtDQEBIXShDKE8yKShbQ0gzXSlbQ0gzXSlbQ0gyXUMyKFtDSDNdKVtDSDNd

> <s_epik_cmdline>
J2VwaWtfcHl0aG9uJywgJy1waCcsICc3LjAnLCAnLXRuJywgJzgnLCAnLW1hJywgJzIwMCcsICctbWV0YWxfYmluZGluZycsICctaW1hZScsICc8aW5maWxlLm1hZT4nLCAnLW9tYWUnLCAnPG91dGZpbGUubWFlPic=

> <r_lp_tautomer_probability>
1

> <r_epik_Ionization_Penalty>
3.69628e-05

> <r_epik_Ionization_Penalty_Charging>
0

> <r_epik_Ionization_Penalty_Neutral>
3.69628e-05

> <r_epik_State_Penalty>
-0

> <r_epik_Charging_Adjusted_Penalty>
0

> <i_epik_Tot_Q>
0

> <i_epik_Tot_abs_Q>
0

> <r_epik_Metal_State_Penalty>
-0

> <b_epik_Metal_Only>
0

> <s_lp_Force_Field>
OPLS_2005

> <r_lp_Energy>
21.7925

> <b_lp_Chiralities_Consistent>
1

> <s_lp_Variant>
AV-unprocessed.smi:2463-2

> <Gold.Version>
5.8.1

> <Gold.Id.Protein>
6NUR|6NUR_protein|mol2

> <Gold.PLP.Fitness>
38.8776

> <Gold.PLP.PLP>
-30.7031

> <Gold.PLP.part.hbond>
-1.8530

> <Gold.PLP.part.metal>
0.0000

> <Gold.PLP.part.buried>
1.9090

> <Gold.PLP.part.nonpolar>
-31.9419

> <Gold.PLP.part.repulsive>
1.0096

> <Gold.PLP.ligand.clash>
0.0000

> <Gold.PLP.ligand.torsion>
0.5866

> <Gold.PLP.Chemscore.Hbond>
1.7585

> <Gold.PLP.Chemscore.CHOScore>
1.3499

> <Gold.PLP.Chemscore.Metal>
0.0000

> <Gold.Chemscore.Hbonds>
donor molecule, donor type, donor heavy atom, donor atom, acceptor molecule, acceptor atom, score
      L1  H     7    30       P1  7948  0.86
      L1  H    10    31       P1  7948  0.80
      L1  C     5    29       P1  7957  0.42
      L1  C    20    47       P1 10175  0.98

> <Gold.PLP.Chemscore.Internal.Correction>
0.0226

> <Gold.Rescore>
     Score         DG    S(hbond)    S(metal)    S(lipo)     H(rot)  DE(clash)    DE(int)     intcor
     14.66     -17.91       1.91        0.00      79.84       1.29       0.37       2.88       ----

> <Gold.Chemscore.Fitness>
14.6628

> <Gold.Chemscore.DG>
-17.9110

> <Gold.Chemscore.ZeroCoef>
-5.4800

> <Gold.Chemscore.Hbond>
1.9106

> <Gold.Chemscore.Metal>
0.0000

> <Gold.Chemscore.Lipo>
79.8424

> <Gold.Chemscore.Internal_Hbond>
0.0000

> <Gold.Chemscore.DEClash>
0.3723

> <Gold.Chemscore.DEInternal>
2.8759

> <Gold.Chemscore.Rot>
1.2859

> <Gold.Chemscore.Internal.Correction>
   9.000000E+99

> <Gold.Chemscore.Hbonds>
donor molecule, donor type, donor heavy atom, donor atom, acceptor molecule, acceptor atom, score
      L1  H     7    30       P1  7948  0.84
      L1  H    10    31       P1  7948  0.78

> <Gold.Chemscore.Hbond.Weighted>
-6.3814

> <Gold.Chemscore.Metal.Weighted>
-0.0000

> <Gold.Chemscore.Lipo.Weighted>
-9.3416

> <Gold.Chemscore.Internal_Hbond.Weighted>
0.0000

> <Gold.Chemscore.DEClash.Weighted>
0.3723

> <Gold.Chemscore.DEInternal.Weighted>
2.8759

> <Gold.Chemscore.Rot.Weighted>
3.2919

> <Gold.Chemscore.Internal.Correction.Weighted>
   9.000000E+99

> <Gold.Protein.RotatedTorsions>
[ 6907 6896 6895 6894 ] final -179.47 input  -60.11 | X-H torsion
[ 7974 7965 7964 7962 ] final  -89.14 input  175.53 | X-H torsion
[ 8008 7997 7996 7995 ] final  150.55 input   59.86 | X-H torsion
[ 10167 10162 10161 10158 ] final  -18.03 input  -65.29 | X-H torsion
[ 10718 10713 10712 10709 ] final   64.65 input   66.30 | X-H torsion
[ 10763 10752 10751 10750 ] final  -10.01 input  -60.55 | X-H torsion
[ 11005 11000 10999 10996 ] final -165.55 input  -57.11 | X-H torsion

> <Gold.Protein.ActiveResidues>
 VAL166  LYS551  ARG553  GLY616  TRP617  ASP618  TYR619  PRO620  LYS621  CYS622 
 ASP623  PHE694  ASN695  SER759  ASP760  ASP761  ALA762  ILE779  LEU786  VAL792 
 PHE793  MET794  SER795  GLU796  ALA797  LYS798  CYS799  TRP800  GLU811  SER814 

> <Gold.Protein.RotatedAtoms>
  151.6539  133.3319  159.3158 H   0  0  0  0  0  0  0  0  0  0  0  0  # atno 6907 bound_to 6896
  150.7946  134.7001  159.6554 H   0  0  0  0  0  0  0  0  0  0  0  0  # atno 6908 bound_to 6896
  152.4032  134.6256  160.0113 H   0  0  0  0  0  0  0  0  0  0  0  0  # atno 6909 bound_to 6896
  145.4438  140.9559  143.2060 H   0  0  0  0  0  0  0  0  0  0  0  0  # atno 7974 bound_to 7965
  156.2711  140.2072  156.6034 H   0  0  0  0  0  0  0  0  0  0  0  0  # atno 8008 bound_to 7997
  154.6888  140.0532  157.0366 H   0  0  0  0  0  0  0  0  0  0  0  0  # atno 8009 bound_to 7997
  155.0895  140.3195  155.4580 H   0  0  0  0  0  0  0  0  0  0  0  0  # atno 8010 bound_to 7997
  140.7254  143.4956  150.9935 H   0  0  0  0  0  0  0  0  0  0  0  0  # atno 10167 bound_to 10162
  157.6053  130.9171  149.9873 H   0  0  0  0  0  0  0  0  0  0  0  0  # atno 10718 bound_to 10713
  153.4630  135.7016  153.6039 H   0  0  0  0  0  0  0  0  0  0  0  0  # atno 10763 bound_to 10752
  153.4325  135.3799  155.2179 H   0  0  0  0  0  0  0  0  0  0  0  0  # atno 10764 bound_to 10752
  154.8727  135.3954  154.4058 H   0  0  0  0  0  0  0  0  0  0  0  0  # atno 10765 bound_to 10752
  140.5744  134.5205  157.5167 H   0  0  0  0  0  0  0  0  0  0  0  0  # atno 11005 bound_to 11000
  144.8105  139.5972  143.7032 LP  0  0  0  0  0  0  0  0  0  0  0  0  # atno 17320 bound_to 7965
  146.2542  139.6265  142.9406 LP  0  0  0  0  0  0  0  0  0  0  0  0  # atno 17321 bound_to 7965
  139.8663  143.7250  152.3170 LP  0  0  0  0  0  0  0  0  0  0  0  0  # atno 17342 bound_to 10162
  139.7483  144.7541  151.0546 LP  0  0  0  0  0  0  0  0  0  0  0  0  # atno 17343 bound_to 10162
  156.1138  130.3649  150.0003 LP  0  0  0  0  0  0  0  0  0  0  0  0  # atno 17370 bound_to 10713
  156.8097  130.9320  151.3644 LP  0  0  0  0  0  0  0  0  0  0  0  0  # atno 17371 bound_to 10713
  139.9346  134.7899  156.0837 LP  0  0  0  0  0  0  0  0  0  0  0  0  # atno 17394 bound_to 11000
  141.1035  133.6668  156.2810 LP  0  0  0  0  0  0  0  0  0  0  0  0  # atno 17395 bound_to 11000

$$$$
