AV-unprocessed.smi:278|AV-procd|sdf|2093|dock4
  -GOLD-   2262021373D 1   1.00000     0.00000
 Structure written by MMmdl.
 50 54  0  0  0  0  0  0  0  0  1 V2000
  147.0073  133.1789  157.9643 O   0  0  0  0  0  0  0  0  0  0  0  0
  148.3365  133.7174  157.6394 S   0  0  0  0  0  0  0  0  0  0  0  0
  149.0060  134.6635  158.5456 O   0  0  0  0  0  0  0  0  0  0  0  0
  149.4740  132.3220  157.2854 C   0  0  0  0  0  0  0  0  0  0  0  0
  149.6032  132.2492  155.7583 C   0  0  0  0  0  0  0  0  0  0  0  0
  149.4090  133.6577  155.1675 C   0  0  2  0  0  0  0  0  0  0  0  0
  150.6171  134.5822  155.3516 C   0  0  0  0  0  0  0  0  0  0  0  0
  150.0599  135.9253  155.4244 N   0  0  0  0  0  0  0  0  0  0  0  0
  150.8421  137.0007  155.7039 C   0  0  0  0  0  0  0  0  0  0  0  0
  152.1845  136.8171  155.8201 N   0  0  0  0  0  0  0  0  0  0  0  0
  152.9914  137.8471  156.0890 C   0  0  0  0  0  0  0  0  0  0  0  0
  152.6741  139.1293  156.2707 N   0  0  0  0  0  0  0  0  0  0  0  0
  151.3311  139.3274  156.1451 C   0  0  0  0  0  0  0  0  0  0  0  0
  150.3512  138.3309  155.8657 C   0  0  0  0  0  0  0  0  0  0  0  0
  149.0928  138.9213  155.8030 N   0  0  0  0  0  0  0  0  0  0  0  0
  149.3147  140.1852  156.0384 C   0  0  0  0  0  0  0  0  0  0  0  0
  150.6322  140.5170  156.2500 N   0  0  0  0  0  0  0  0  0  0  0  0
  151.1589  141.8437  156.5199 C   0  0  0  0  0  0  0  0  0  0  0  0
  150.7731  142.3558  157.9219 C   0  0  2  0  0  0  0  0  0  0  0  0
  150.6454  143.7649  157.8900 O   0  0  0  0  0  0  0  0  0  0  0  0
  151.7981  141.9333  158.9945 C   0  0  1  0  0  0  0  0  0  0  0  0
  153.2797  142.1667  158.6807 C   0  0  0  0  0  0  0  0  0  0  0  0
  153.8683  142.2192  160.0726 C   0  0  0  0  0  0  0  0  0  0  0  0
  152.7788  142.9600  160.8445 C   0  0  0  0  0  0  0  0  0  0  0  0
  151.5450  142.5928  160.2321 O   0  0  0  0  0  0  0  0  0  0  0  0
  148.6664  135.8771  155.8459 C   0  0  0  0  0  0  0  0  0  0  0  0
  148.2972  134.3886  155.9228 C   0  0  2  0  0  0  0  0  0  0  0  0
  149.1640  133.6039  154.1057 H   0  0  0  0  0  0  0  0  0  0  0  0
  147.3121  134.1830  155.5028 H   0  0  0  0  0  0  0  0  0  0  0  0
  150.4360  132.5484  157.7453 H   0  0  0  0  0  0  0  0  0  0  0  0
  149.0887  131.4014  157.7243 H   0  0  0  0  0  0  0  0  0  0  0  0
  150.5517  131.8056  155.4540 H   0  0  0  0  0  0  0  0  0  0  0  0
  148.8146  131.6017  155.3733 H   0  0  0  0  0  0  0  0  0  0  0  0
  151.1465  134.3616  156.2796 H   0  0  0  0  0  0  0  0  0  0  0  0
  151.3222  134.4849  154.5252 H   0  0  0  0  0  0  0  0  0  0  0  0
  154.0422  137.6100  156.1680 H   0  0  0  0  0  0  0  0  0  0  0  0
  148.5195  140.9161  156.0571 H   0  0  0  0  0  0  0  0  0  0  0  0
  152.2441  141.8037  156.4182 H   0  0  0  0  0  0  0  0  0  0  0  0
  150.8000  142.5280  155.7499 H   0  0  0  0  0  0  0  0  0  0  0  0
  149.8009  141.9380  158.1867 H   0  0  0  0  0  0  0  0  0  0  0  0
  150.1311  144.0002  157.1327 H   0  0  0  0  0  0  0  0  0  0  0  0
  151.6617  140.8711  159.2044 H   0  0  0  0  0  0  0  0  0  0  0  0
  153.7124  141.3795  158.0625 H   0  0  0  0  0  0  0  0  0  0  0  0
  153.4442  143.1214  158.1805 H   0  0  0  0  0  0  0  0  0  0  0  0
  153.9891  141.2094  160.4669 H   0  0  0  0  0  0  0  0  0  0  0  0
  154.8356  142.7208  160.1119 H   0  0  0  0  0  0  0  0  0  0  0  0
  152.7836  142.7196  161.9079 H   0  0  0  0  0  0  0  0  0  0  0  0
  152.9078  144.0379  160.7408 H   0  0  0  0  0  0  0  0  0  0  0  0
  148.5006  136.3893  156.7937 H   0  0  0  0  0  0  0  0  0  0  0  0
  148.0600  136.3744  155.0885 H   0  0  0  0  0  0  0  0  0  0  0  0
  1  2  2  0  0  0  0
  2 27  1  0  0  0  0
  2  3  2  0  0  0  0
  2  4  1  0  0  0  0
  4  5  1  0  0  0  0
  4 30  1  0  0  0  0
  4 31  1  0  0  0  0
  5  6  1  0  0  0  0
  5 32  1  0  0  0  0
  5 33  1  0  0  0  0
  6 28  1  0  0  0  0
  6 27  1  0  0  0  0
  6  7  1  0  0  0  0
  7  8  1  0  0  0  0
  7 34  1  0  0  0  0
  7 35  1  0  0  0  0
  8  9  1  0  0  0  0
  8 26  1  0  0  0  0
  9 14  1  0  0  0  0
  9 10  2  0  0  0  0
 10 11  1  0  0  0  0
 11 12  2  0  0  0  0
 11 36  1  0  0  0  0
 12 13  1  0  0  0  0
 13 17  1  0  0  0  0
 13 14  2  0  0  0  0
 14 15  1  0  0  0  0
 15 16  2  0  0  0  0
 16 17  1  0  0  0  0
 16 37  1  0  0  0  0
 17 18  1  0  0  0  0
 18 19  1  0  0  0  0
 18 38  1  0  0  0  0
 18 39  1  0  0  0  0
 19 20  1  0  0  0  0
 19 21  1  0  0  0  0
 19 40  1  0  0  0  0
 20 41  1  0  0  0  0
 21 25  1  0  0  0  0
 21 22  1  0  0  0  0
 21 42  1  0  0  0  0
 22 23  1  0  0  0  0
 22 43  1  0  0  0  0
 22 44  1  0  0  0  0
 23 24  1  0  0  0  0
 23 45  1  0  0  0  0
 23 46  1  0  0  0  0
 24 25  1  0  0  0  0
 24 47  1  0  0  0  0
 24 48  1  0  0  0  0
 26 27  1  0  0  0  0
 26 49  1  0  0  0  0
 26 50  1  0  0  0  0
 27 29  1  0  0  0  0
M  END
> <s_m_source_file>
AV-unprocessed.smi

> <i_m_source_file_index>
278

> <i_lp_mmshare_version>
43012

> <i_f3d_flags>
0

> <s_epik_input>
W0NIMl0xW0NIMl1TKD1PKSg9TylbQ0BASF0oW0NAQEhdMTIpW0NIMl1OKFtDSDJdMiljKG5bY0hdbjMpYyhjMzQpbltjSF1uNFtDSDJdW0NASF0oW09IXSlbQ0BASF01W0NIMl1bQ0gyXVtDSDJdTzU=

> <s_epik_cmdline>
J2VwaWtfcHl0aG9uJywgJy1waCcsICc3LjAnLCAnLXRuJywgJzgnLCAnLW1hJywgJzIwMCcsICctbWV0YWxfYmluZGluZycsICctaW1hZScsICc8aW5maWxlLm1hZT4nLCAnLW9tYWUnLCAnPG91dGZpbGUubWFlPic=

> <r_lp_tautomer_probability>
1

> <r_epik_Ionization_Penalty>
0.000636766

> <r_epik_Ionization_Penalty_Charging>
0

> <r_epik_Ionization_Penalty_Neutral>
0.000636766

> <r_epik_State_Penalty>
0.000329976

> <r_epik_Charging_Adjusted_Penalty>
0.000329976

> <i_epik_Tot_Q>
0

> <i_epik_Tot_abs_Q>
0

> <r_epik_Metal_State_Penalty>
-0

> <b_epik_Metal_Only>
0

> <s_lp_Force_Field>
OPLS_2005

> <r_lp_Energy>
51.4583

> <b_lp_Chiralities_Consistent>
1

> <s_lp_Variant>
AV-unprocessed.smi:278-7

> <Gold.Version>
5.8.1

> <Gold.Id.Protein>
6NUR|6NUR_protein|mol2

> <Gold.PLP.Fitness>
47.6892

> <Gold.PLP.PLP>
-37.0749

> <Gold.PLP.part.hbond>
-5.2296

> <Gold.PLP.part.metal>
0.0000

> <Gold.PLP.part.buried>
-5.8976

> <Gold.PLP.part.nonpolar>
-25.9853

> <Gold.PLP.part.repulsive>
0.0743

> <Gold.PLP.ligand.clash>
0.0000

> <Gold.PLP.ligand.torsion>
0.7796

> <Gold.PLP.Chemscore.Hbond>
3.9760

> <Gold.PLP.Chemscore.CHOScore>
0.0000

> <Gold.PLP.Chemscore.Metal>
0.0000

> <Gold.Chemscore.Hbonds>
donor molecule, donor type, donor heavy atom, donor atom, acceptor molecule, acceptor atom, score
      L1  H    20    41       P1  8028  0.98
      P1  H  6896  6908       L1     3  1.00
      P1  H  7997  8009       L1    12  0.96
      P1  H 10752 10764       L1    10  0.94

> <Gold.PLP.Chemscore.Internal.Correction>
0.2455

> <Gold.Rescore>
     Score         DG    S(hbond)    S(metal)    S(lipo)     H(rot)  DE(clash)    DE(int)     intcor
     17.67     -19.76       2.97        0.00      84.09       2.13       1.32       0.78       ----

> <Gold.Chemscore.Fitness>
17.6670

> <Gold.Chemscore.DG>
-19.7626

> <Gold.Chemscore.ZeroCoef>
-5.4800

> <Gold.Chemscore.Hbond>
2.9666

> <Gold.Chemscore.Metal>
0.0000

> <Gold.Chemscore.Lipo>
84.0931

> <Gold.Chemscore.Internal_Hbond>
0.0000

> <Gold.Chemscore.DEClash>
1.3185

> <Gold.Chemscore.DEInternal>
0.7771

> <Gold.Chemscore.Rot>
2.1346

> <Gold.Chemscore.Internal.Correction>
   9.000000E+99

> <Gold.Chemscore.Hbonds>
donor molecule, donor type, donor heavy atom, donor atom, acceptor molecule, acceptor atom, score
      L1  H    20    41       P1  8028  0.84
      P1  H  6896  6908       L1     3  1.00
      P1  H  7997  8009       L1    12  0.43
      P1  H 10752 10764       L1    10  0.60

> <Gold.Chemscore.Hbond.Weighted>
-9.9083

> <Gold.Chemscore.Metal.Weighted>
-0.0000

> <Gold.Chemscore.Lipo.Weighted>
-9.8389

> <Gold.Chemscore.Internal_Hbond.Weighted>
0.0000

> <Gold.Chemscore.DEClash.Weighted>
1.3185

> <Gold.Chemscore.DEInternal.Weighted>
0.7771

> <Gold.Chemscore.Rot.Weighted>
5.4646

> <Gold.Chemscore.Internal.Correction.Weighted>
   9.000000E+99

> <Gold.Protein.RotatedTorsions>
[ 6907 6896 6895 6894 ] final  158.39 input  -60.11 | X-H torsion
[ 7974 7965 7964 7962 ] final -114.64 input  175.53 | X-H torsion
[ 8008 7997 7996 7995 ] final  172.35 input   59.86 | X-H torsion
[ 10167 10162 10161 10158 ] final  -97.81 input  -65.29 | X-H torsion
[ 10718 10713 10712 10709 ] final  168.80 input   66.30 | X-H torsion
[ 10763 10752 10751 10750 ] final  -26.34 input  -60.55 | X-H torsion
[ 11005 11000 10999 10996 ] final -158.95 input  -57.11 | X-H torsion

> <Gold.Protein.ActiveResidues>
 VAL166  LYS551  ARG553  GLY616  TRP617  ASP618  TYR619  PRO620  LYS621  CYS622 
 ASP623  PHE694  ASN695  SER759  ASP760  ASP761  ALA762  ILE779  LEU786  VAL792 
 PHE793  MET794  SER795  GLU796  ALA797  LYS798  CYS799  TRP800  GLU811  SER814 

> <Gold.Protein.RotatedAtoms>
  152.0010  133.3825  159.4181 H   0  0  0  0  0  0  0  0  0  0  0  0  # atno 6907 bound_to 6896
  150.6910  134.3833  159.5053 H   0  0  0  0  0  0  0  0  0  0  0  0  # atno 6908 bound_to 6896
  152.1581  134.8934  160.0594 H   0  0  0  0  0  0  0  0  0  0  0  0  # atno 6909 bound_to 6896
  145.1178  140.8651  143.3832 H   0  0  0  0  0  0  0  0  0  0  0  0  # atno 7974 bound_to 7965
  156.1183  140.1488  156.9242 H   0  0  0  0  0  0  0  0  0  0  0  0  # atno 8008 bound_to 7997
  154.4816  140.0877  156.7433 H   0  0  0  0  0  0  0  0  0  0  0  0  # atno 8009 bound_to 7997
  155.4475  140.3433  155.4299 H   0  0  0  0  0  0  0  0  0  0  0  0  # atno 8010 bound_to 7997
  140.2796  143.3291  152.0455 H   0  0  0  0  0  0  0  0  0  0  0  0  # atno 10167 bound_to 10162
  157.0319  131.0262  151.2741 H   0  0  0  0  0  0  0  0  0  0  0  0  # atno 10718 bound_to 10713
  153.7144  135.6948  153.5029 H   0  0  0  0  0  0  0  0  0  0  0  0  # atno 10763 bound_to 10752
  153.2249  135.4357  155.0529 H   0  0  0  0  0  0  0  0  0  0  0  0  # atno 10764 bound_to 10752
  154.8304  135.3469  154.6680 H   0  0  0  0  0  0  0  0  0  0  0  0  # atno 10765 bound_to 10752
  140.6480  134.4481  157.5234 H   0  0  0  0  0  0  0  0  0  0  0  0  # atno 11005 bound_to 11000
  145.0774  139.2985  143.5801 LP  0  0  0  0  0  0  0  0  0  0  0  0  # atno 17320 bound_to 7965
  146.3523  140.0269  142.8654 LP  0  0  0  0  0  0  0  0  0  0  0  0  # atno 17321 bound_to 7965
  139.4966  144.6601  151.6484 LP  0  0  0  0  0  0  0  0  0  0  0  0  # atno 17342 bound_to 10162
  140.5823  143.9924  150.6275 LP  0  0  0  0  0  0  0  0  0  0  0  0  # atno 17343 bound_to 10162
  157.5171  130.7974  149.7768 LP  0  0  0  0  0  0  0  0  0  0  0  0  # atno 17370 bound_to 10713
  156.0066  130.3852  150.2408 LP  0  0  0  0  0  0  0  0  0  0  0  0  # atno 17371 bound_to 10713
  139.9056  134.8457  156.1720 LP  0  0  0  0  0  0  0  0  0  0  0  0  # atno 17394 bound_to 11000
  141.0558  133.6866  156.1857 LP  0  0  0  0  0  0  0  0  0  0  0  0  # atno 17395 bound_to 11000

$$$$
