AV-unprocessed.smi:907|AV-procd|sdf|4112|dock4
  -GOLD-   22720 2 03D 1   1.00000     0.00000
 Structure written by MMmdl.
 54 57  0  0  0  0  0  0  0  0  3 V2000
  148.9089  141.5089  154.9399 O   0  0  0  0  0  0  0  0  0  0  0  0
  149.1824  140.3466  155.2407 C   0  0  0  0  0  0  0  0  0  0  0  0
  149.7436  140.0296  156.4190 N   0  0  0  0  0  0  0  0  0  0  0  0
  150.0820  140.9937  157.4572 C   0  0  0  0  0  0  0  0  0  0  0  0
  150.9784  142.1056  156.8950 C   0  0  0  0  0  0  0  0  0  0  0  0
  151.4324  143.0742  157.9703 C   0  0  0  0  0  0  0  0  0  0  0  0
  152.3860  142.7175  158.9486 C   0  0  0  0  0  0  0  0  0  0  0  0
  152.7695  143.6696  159.9164 C   0  0  0  0  0  0  0  0  0  0  0  0
  152.1937  144.9568  159.8848 C   0  0  0  0  0  0  0  0  0  0  0  0
  151.2470  145.2596  158.8850 C   0  0  0  0  0  0  0  0  0  0  0  0
  150.9047  144.3200  157.9760 N   0  3  0  0  0  0  0  0  0  0  0  0
  148.9907  139.2979  154.4014 N   0  0  0  0  0  0  0  0  0  0  0  0
  149.0939  137.8751  154.7462 C   0  0  0  0  0  0  0  0  0  0  0  0
  147.6762  137.2822  154.8212 C   0  0  0  0  0  0  0  0  0  0  0  0
  146.9121  137.4803  153.5528 N   0  3  0  0  0  0  0  0  0  0  0  0
  145.5355  136.9020  153.6447 C   0  0  2  0  0  0  0  0  0  0  0  0
  145.5623  135.3503  153.6660 C   0  0  0  0  0  0  0  0  0  0  0  0
  144.6082  134.9539  152.5276 C   0  0  1  0  0  0  0  0  0  0  0  0
  143.1633  135.2998  152.9237 C   0  0  0  0  0  0  0  0  0  0  0  0
  143.1530  136.8354  152.8319 C   0  0  0  0  0  0  0  0  0  0  0  0
  144.6034  137.1695  152.4283 C   0  0  2  0  0  0  0  0  0  0  0  0
  144.9245  136.0167  151.4840 C   0  0  0  0  0  0  0  0  0  0  0  0
  146.9568  138.8986  153.0886 C   0  0  0  0  0  0  0  0  0  0  0  0
  148.3912  139.4600  153.0764 C   0  0  0  0  0  0  0  0  0  0  0  0
  149.9648  139.0609  156.5984 H   0  0  0  0  0  0  0  0  0  0  0  0
  149.1627  141.4209  157.8607 H   0  0  0  0  0  0  0  0  0  0  0  0
  150.5887  140.4833  158.2781 H   0  0  0  0  0  0  0  0  0  0  0  0
  151.8577  141.6723  156.4158 H   0  0  0  0  0  0  0  0  0  0  0  0
  150.4461  142.6579  156.1191 H   0  0  0  0  0  0  0  0  0  0  0  0
  152.8211  141.7286  158.9585 H   0  0  0  0  0  0  0  0  0  0  0  0
  153.4978  143.4161  160.6730 H   0  0  0  0  0  0  0  0  0  0  0  0
  152.4751  145.7007  160.6161 H   0  0  0  0  0  0  0  0  0  0  0  0
  150.7582  146.2178  158.7846 H   0  0  0  0  0  0  0  0  0  0  0  0
  149.6739  137.3603  153.9786 H   0  0  0  0  0  0  0  0  0  0  0  0
  149.6191  137.6843  155.6821 H   0  0  0  0  0  0  0  0  0  0  0  0
  147.7531  136.2233  155.0644 H   0  0  0  0  0  0  0  0  0  0  0  0
  147.1325  137.7500  155.6438 H   0  0  0  0  0  0  0  0  0  0  0  0
  145.0688  137.2918  154.5512 H   0  0  0  0  0  0  0  0  0  0  0  0
  146.5552  134.9566  153.4446 H   0  0  0  0  0  0  0  0  0  0  0  0
  145.2529  134.9429  154.6292 H   0  0  0  0  0  0  0  0  0  0  0  0
  144.7348  133.9245  152.1904 H   0  0  0  0  0  0  0  0  0  0  0  0
  142.4511  134.8677  152.2196 H   0  0  0  0  0  0  0  0  0  0  0  0
  142.9105  134.9391  153.9216 H   0  0  0  0  0  0  0  0  0  0  0  0
  142.4527  137.1643  152.0629 H   0  0  0  0  0  0  0  0  0  0  0  0
  142.8595  137.3083  153.7700 H   0  0  0  0  0  0  0  0  0  0  0  0
  144.6627  138.1590  151.9812 H   0  0  0  0  0  0  0  0  0  0  0  0
  145.9640  136.0056  151.1517 H   0  0  0  0  0  0  0  0  0  0  0  0
  144.2689  135.9749  150.6120 H   0  0  0  0  0  0  0  0  0  0  0  0
  146.5729  138.9844  152.0743 H   0  0  0  0  0  0  0  0  0  0  0  0
  146.3216  139.5111  153.7304 H   0  0  0  0  0  0  0  0  0  0  0  0
  148.3817  140.4988  152.7428 H   0  0  0  0  0  0  0  0  0  0  0  0
  148.9952  138.9240  152.3425 H   0  0  0  0  0  0  0  0  0  0  0  0
  147.3964  136.9480  152.8439 H   0  0  0  0  0  0  0  0  0  0  0  0
  150.2189  144.5628  157.2607 H   0  0  0  0  0  0  0  0  0  0  0  0
  1  2  2  0  0  0  0
  2  3  1  0  0  0  0
  2 12  1  0  0  0  0
  3  4  1  0  0  0  0
  3 25  1  0  0  0  0
  4  5  1  0  0  0  0
  4 26  1  0  0  0  0
  4 27  1  0  0  0  0
  5  6  1  0  0  0  0
  5 28  1  0  0  0  0
  5 29  1  0  0  0  0
  6 11  1  0  0  0  0
  6  7  2  0  0  0  0
  7  8  1  0  0  0  0
  7 30  1  0  0  0  0
  8  9  2  0  0  0  0
  8 31  1  0  0  0  0
  9 10  1  0  0  0  0
  9 32  1  0  0  0  0
 10 11  2  0  0  0  0
 10 33  1  0  0  0  0
 11 54  1  0  0  0  0
 12 24  1  0  0  0  0
 12 13  1  0  0  0  0
 13 14  1  0  0  0  0
 13 34  1  0  0  0  0
 13 35  1  0  0  0  0
 14 15  1  0  0  0  0
 14 36  1  0  0  0  0
 14 37  1  0  0  0  0
 15 16  1  0  0  0  0
 15 23  1  0  0  0  0
 15 53  1  0  0  0  0
 16 21  1  0  0  0  0
 16 17  1  0  0  0  0
 16 38  1  0  0  0  0
 17 18  1  0  0  0  0
 17 39  1  0  0  0  0
 17 40  1  0  0  0  0
 18 22  1  0  0  0  0
 18 19  1  0  0  0  0
 18 41  1  0  0  0  0
 19 20  1  0  0  0  0
 19 42  1  0  0  0  0
 19 43  1  0  0  0  0
 20 21  1  0  0  0  0
 20 44  1  0  0  0  0
 20 45  1  0  0  0  0
 21 22  1  0  0  0  0
 21 46  1  0  0  0  0
 22 47  1  0  0  0  0
 22 48  1  0  0  0  0
 23 24  1  0  0  0  0
 23 49  1  0  0  0  0
 23 50  1  0  0  0  0
 24 51  1  0  0  0  0
 24 52  1  0  0  0  0
M  CHG  1  11   1
M  CHG  1  15   1
M  END
> <s_m_source_file>
AV-unprocessed.smi

> <i_m_source_file_index>
907

> <i_lp_mmshare_version>
43012

> <i_f3d_flags>
0

> <s_epik_input>
W0NIMl0xW0NIMl1bQ0BASF0oW0NIMl0yKVtDQEBIXShbQ0gyXVtDQEhdMTIpTihbQ0gyXVtDSDJdMylbQ0gyXVtDSDJdTjNDKD1PKVtOSF1bQ0gyXVtDSDJdYzRbY0hdW2NIXVtjSF1bY0hdbjQ=

> <s_epik_cmdline>
J2VwaWtfcHl0aG9uJywgJy1waCcsICc3LjAnLCAnLXRuJywgJzgnLCAnLW1hJywgJzIwMCcsICctbWV0YWxfYmluZGluZycsICctaW1hZScsICc8aW5maWxlLm1hZT4nLCAnLW9tYWUnLCAnPG91dGZpbGUubWFlPic=

> <r_epik_Ionization_Penalty>
1.63018

> <r_epik_Ionization_Penalty_Charging>
1.63015

> <r_epik_Ionization_Penalty_Neutral>
2.64641e-05

> <r_epik_State_Penalty>
1.72761

> <r_epik_Charging_Adjusted_Penalty>
3.35777

> <i_epik_Tot_Q>
2

> <i_epik_Tot_abs_Q>
2

> <r_epik_Metal_State_Penalty>
1.76501

> <b_epik_Metal_Only>
0

> <s_lp_Force_Field>
OPLS_2005

> <r_lp_Energy>
104.955

> <b_lp_Chiralities_Consistent>
1

> <s_lp_Variant>
AV-unprocessed.smi:907-7

> <Gold.Version>
5.8.1

> <Gold.Id.Protein>
6NUR|6NUR_protein|mol2

> <Gold.PLP.Fitness>
50.5590

> <Gold.PLP.PLP>
-39.1319

> <Gold.PLP.part.hbond>
-2.0000

> <Gold.PLP.part.metal>
0.0000

> <Gold.PLP.part.buried>
-1.2979

> <Gold.PLP.part.nonpolar>
-36.5710

> <Gold.PLP.part.repulsive>
0.2274

> <Gold.PLP.ligand.clash>
0.0000

> <Gold.PLP.ligand.torsion>
0.3402

> <Gold.PLP.Chemscore.Hbond>
4.0000

> <Gold.PLP.Chemscore.CHOScore>
0.0000

> <Gold.PLP.Chemscore.Metal>
0.0000

> <Gold.Chemscore.Hbonds>
donor molecule, donor type, donor heavy atom, donor atom, acceptor molecule, acceptor atom, score
      L1  H    11    54       P1  8028  1.89
      L1  H    15    53       P1  7948  2.00

> <Gold.PLP.Chemscore.Internal.Correction>
0.1074

> <Gold.Rescore>
     Score         DG    S(hbond)    S(metal)    S(lipo)     H(rot)  DE(clash)    DE(int)     intcor
     18.30     -21.28       1.87        0.00     113.65       1.46       1.68       1.30       ----

> <Gold.Chemscore.Fitness>
18.3012

> <Gold.Chemscore.DG>
-21.2811

> <Gold.Chemscore.ZeroCoef>
-5.4800

> <Gold.Chemscore.Hbond>
1.8666

> <Gold.Chemscore.Metal>
0.0000

> <Gold.Chemscore.Lipo>
113.6514

> <Gold.Chemscore.Internal_Hbond>
0.0000

> <Gold.Chemscore.DEClash>
1.6823

> <Gold.Chemscore.DEInternal>
1.2976

> <Gold.Chemscore.Rot>
1.4572

> <Gold.Chemscore.Internal.Correction>
   9.000000E+99

> <Gold.Chemscore.Hbonds>
donor molecule, donor type, donor heavy atom, donor atom, acceptor molecule, acceptor atom, score
      L1  H    11    54       P1  8028  0.40
      L1  H    15    53       P1  7948  0.97

> <Gold.Chemscore.Hbond.Weighted>
-6.2344

> <Gold.Chemscore.Metal.Weighted>
-0.0000

> <Gold.Chemscore.Lipo.Weighted>
-13.2972

> <Gold.Chemscore.Internal_Hbond.Weighted>
0.0000

> <Gold.Chemscore.DEClash.Weighted>
1.6823

> <Gold.Chemscore.DEInternal.Weighted>
1.2976

> <Gold.Chemscore.Rot.Weighted>
3.7305

> <Gold.Chemscore.Internal.Correction.Weighted>
   9.000000E+99

> <Gold.Protein.RotatedTorsions>
[ 6907 6896 6895 6894 ] final  156.45 input  -60.11 | X-H torsion
[ 7974 7965 7964 7962 ] final  -89.26 input  175.53 | X-H torsion
[ 8008 7997 7996 7995 ] final -172.68 input   59.86 | X-H torsion
[ 10167 10162 10161 10158 ] final   48.42 input  -65.29 | X-H torsion
[ 10718 10713 10712 10709 ] final  133.20 input   66.30 | X-H torsion
[ 10763 10752 10751 10750 ] final  -94.08 input  -60.55 | X-H torsion
[ 11005 11000 10999 10996 ] final   81.30 input  -57.11 | X-H torsion

> <Gold.Protein.ActiveResidues>
 VAL166  LYS551  ARG553  GLY616  TRP617  ASP618  TYR619  PRO620  LYS621  CYS622 
 ASP623  PHE694  ASN695  SER759  ASP760  ASP761  ALA762  ILE779  LEU786  VAL792 
 PHE793  MET794  SER795  GLU796  ALA797  LYS798  CYS799  TRP800  GLU811  SER814 

> <Gold.Protein.RotatedAtoms>
  152.0294  133.3931  159.4290 H   0  0  0  0  0  0  0  0  0  0  0  0  # atno 6907 bound_to 6896
  150.6883  134.3537  159.4929 H   0  0  0  0  0  0  0  0  0  0  0  0  # atno 6908 bound_to 6896
  152.1321  134.9126  160.0609 H   0  0  0  0  0  0  0  0  0  0  0  0  # atno 6909 bound_to 6896
  145.4422  140.9559  143.2069 H   0  0  0  0  0  0  0  0  0  0  0  0  # atno 7974 bound_to 7965
  155.9477  140.1120  157.1003 H   0  0  0  0  0  0  0  0  0  0  0  0  # atno 8008 bound_to 7997
  154.4102  140.1206  156.5077 H   0  0  0  0  0  0  0  0  0  0  0  0  # atno 8009 bound_to 7997
  155.6882  140.3473  155.4885 H   0  0  0  0  0  0  0  0  0  0  0  0  # atno 8010 bound_to 7997
  140.2935  144.3018  150.6235 H   0  0  0  0  0  0  0  0  0  0  0  0  # atno 10167 bound_to 10162
  157.4796  131.1085  150.9699 H   0  0  0  0  0  0  0  0  0  0  0  0  # atno 10718 bound_to 10713
  154.7021  135.5171  153.8542 H   0  0  0  0  0  0  0  0  0  0  0  0  # atno 10763 bound_to 10752
  153.0712  135.6602  154.0252 H   0  0  0  0  0  0  0  0  0  0  0  0  # atno 10764 bound_to 10752
  154.0110  135.3002  155.3372 H   0  0  0  0  0  0  0  0  0  0  0  0  # atno 10765 bound_to 10752
  139.9103  134.7986  156.2023 H   0  0  0  0  0  0  0  0  0  0  0  0  # atno 11005 bound_to 11000
  144.8114  139.5955  143.7027 LP  0  0  0  0  0  0  0  0  0  0  0  0  # atno 17320 bound_to 7965
  146.2550  139.6283  142.9401 LP  0  0  0  0  0  0  0  0  0  0  0  0  # atno 17321 bound_to 7965
  140.5712  143.2181  151.7596 LP  0  0  0  0  0  0  0  0  0  0  0  0  # atno 17342 bound_to 10162
  139.4932  144.4214  151.9973 LP  0  0  0  0  0  0  0  0  0  0  0  0  # atno 17343 bound_to 10162
  157.0436  130.5759  149.5360 LP  0  0  0  0  0  0  0  0  0  0  0  0  # atno 17370 bound_to 10713
  156.0114  130.5206  150.8001 LP  0  0  0  0  0  0  0  0  0  0  0  0  # atno 17371 bound_to 10713
  141.0517  133.6885  156.1784 LP  0  0  0  0  0  0  0  0  0  0  0  0  # atno 17394 bound_to 11000
  140.6800  134.4777  157.5589 LP  0  0  0  0  0  0  0  0  0  0  0  0  # atno 17395 bound_to 11000

$$$$
