AV-unprocessed.smi:3181|AV-procd|sdf|12136|dock9
  -GOLD-   2272017573D 1   1.00000     0.00000
 Structure written by MMmdl.
 42 43  0  0  0  0  0  0  0  0  2 V2000
  146.5072  138.8168  151.0866 C   0  0  0  0  0  0  0  0  0  0  0  0
  146.7780  138.7121  152.5964 C   0  0  1  0  0  0  0  0  0  0  0  0
  146.0802  137.4913  153.2346 C   0  0  0  0  0  0  0  0  0  0  0  0
  145.4456  136.6286  152.2556 N   0  0  0  0  0  0  0  0  0  0  0  0
  145.9740  135.8484  151.3112 C   0  0  0  0  0  0  0  0  0  0  0  0
  145.0731  135.1871  150.5987 N   0  0  0  0  0  0  0  0  0  0  0  0
  143.9312  135.6313  151.2035 C   0  0  0  0  0  0  0  0  0  0  0  0
  144.0997  136.4951  152.2053 N   0  0  0  0  0  0  0  0  0  0  0  0
  148.2384  138.6454  152.8336 N   0  3  0  0  0  0  0  0  0  0  0  0
  148.7213  139.2365  154.1034 C   0  0  2  0  0  0  0  0  0  0  0  0
  148.3820  140.7376  154.1358 C   0  0  0  0  0  0  0  0  0  0  0  0
  148.8910  141.4111  155.4196 C   0  0  0  0  0  0  0  0  0  0  0  0
  150.4051  141.1947  155.6069 C   0  0  1  0  0  0  0  0  0  0  0  0
  150.9390  141.9371  156.8429 C   0  0  0  0  0  0  0  0  0  0  0  0
  150.7718  139.6887  155.5872 C   0  0  1  0  0  0  0  0  0  0  0  0
  150.3336  138.9144  156.8469 C   0  0  0  0  0  0  0  0  0  0  0  0
  150.2401  139.0256  154.2989 C   0  0  0  0  0  0  0  0  0  0  0  0
  145.4438  138.9369  150.8773 H   0  0  0  0  0  0  0  0  0  0  0  0
  146.8512  137.9270  150.5584 H   0  0  0  0  0  0  0  0  0  0  0  0
  147.0183  139.6785  150.6560 H   0  0  0  0  0  0  0  0  0  0  0  0
  146.3859  139.6208  153.0561 H   0  0  0  0  0  0  0  0  0  0  0  0
  146.8017  136.8975  153.7978 H   0  0  0  0  0  0  0  0  0  0  0  0
  145.3181  137.8067  153.9475 H   0  0  0  0  0  0  0  0  0  0  0  0
  147.0372  135.7634  151.1390 H   0  0  0  0  0  0  0  0  0  0  0  0
  142.9474  135.3068  150.8978 H   0  0  0  0  0  0  0  0  0  0  0  0
  148.5411  137.6835  152.7762 H   0  0  0  0  0  0  0  0  0  0  0  0
  148.1798  138.7534  154.9178 H   0  0  0  0  0  0  0  0  0  0  0  0
  148.8235  141.2350  153.2710 H   0  0  0  0  0  0  0  0  0  0  0  0
  147.3036  140.8793  154.0546 H   0  0  0  0  0  0  0  0  0  0  0  0
  148.6729  142.4787  155.3758 H   0  0  0  0  0  0  0  0  0  0  0  0
  148.3447  141.0256  156.2810 H   0  0  0  0  0  0  0  0  0  0  0  0
  150.8985  141.6474  154.7452 H   0  0  0  0  0  0  0  0  0  0  0  0
  150.4339  141.6198  157.7555 H   0  0  0  0  0  0  0  0  0  0  0  0
  150.7876  143.0123  156.7447 H   0  0  0  0  0  0  0  0  0  0  0  0
  152.0080  141.7672  156.9738 H   0  0  0  0  0  0  0  0  0  0  0  0
  151.8600  139.6195  155.5514 H   0  0  0  0  0  0  0  0  0  0  0  0
  149.2584  138.9697  157.0136 H   0  0  0  0  0  0  0  0  0  0  0  0
  150.8263  139.2952  157.7415 H   0  0  0  0  0  0  0  0  0  0  0  0
  150.5994  137.8601  156.7663 H   0  0  0  0  0  0  0  0  0  0  0  0
  150.4814  137.9626  154.3199 H   0  0  0  0  0  0  0  0  0  0  0  0
  150.7736  139.4386  153.4416 H   0  0  0  0  0  0  0  0  0  0  0  0
  148.6813  139.1597  152.0858 H   0  0  0  0  0  0  0  0  0  0  0  0
  1  2  1  0  0  0  0
  1 18  1  0  0  0  0
  1 19  1  0  0  0  0
  1 20  1  0  0  0  0
  2  3  1  0  0  0  0
  2  9  1  0  0  0  0
  2 21  1  0  0  0  0
  3  4  1  0  0  0  0
  3 22  1  0  0  0  0
  3 23  1  0  0  0  0
  4  8  1  0  0  0  0
  4  5  1  0  0  0  0
  5  6  2  0  0  0  0
  5 24  1  0  0  0  0
  6  7  1  0  0  0  0
  7  8  2  0  0  0  0
  7 25  1  0  0  0  0
  9 10  1  0  0  0  0
  9 26  1  0  0  0  0
  9 42  1  0  0  0  0
 10 17  1  0  0  0  0
 10 11  1  0  0  0  0
 10 27  1  0  0  0  0
 11 12  1  0  0  0  0
 11 28  1  0  0  0  0
 11 29  1  0  0  0  0
 12 13  1  0  0  0  0
 12 30  1  0  0  0  0
 12 31  1  0  0  0  0
 13 14  1  0  0  0  0
 13 15  1  0  0  0  0
 13 32  1  0  0  0  0
 14 33  1  0  0  0  0
 14 34  1  0  0  0  0
 14 35  1  0  0  0  0
 15 16  1  0  0  0  0
 15 17  1  0  0  0  0
 15 36  1  0  0  0  0
 16 37  1  0  0  0  0
 16 38  1  0  0  0  0
 16 39  1  0  0  0  0
 17 40  1  0  0  0  0
 17 41  1  0  0  0  0
M  CHG  1   9   1
M  END
> <s_m_source_file>
AV-unprocessed.smi

> <i_m_source_file_index>
3181

> <i_lp_mmshare_version>
43012

> <i_f3d_flags>
0

> <s_epik_input>
bjFbY0hdbltjSF1uMVtDSDJdW0NAQEhdKFtDSDNdKVtOSF1bQ0BASF0yW0NIMl1bQ0gyXVtDQEBIXShbQ0gzXSlbQ0BASF0oW0NIM10pW0NIMl0y

> <s_epik_cmdline>
J2VwaWtfcHl0aG9uJywgJy1waCcsICc3LjAnLCAnLXRuJywgJzgnLCAnLW1hJywgJzIwMCcsICctbWV0YWxfYmluZGluZycsICctaW1hZScsICc8aW5maWxlLm1hZT4nLCAnLW9tYWUnLCAnPG91dGZpbGUubWFlPic=

> <r_lp_tautomer_probability>
1

> <r_epik_Ionization_Penalty>
0.000617007

> <r_epik_Ionization_Penalty_Charging>
0.000616215

> <r_epik_Ionization_Penalty_Neutral>
7.92544e-07

> <r_epik_State_Penalty>
0.000388807

> <r_epik_Charging_Adjusted_Penalty>
0.00100502

> <i_epik_Tot_Q>
1

> <i_epik_Tot_abs_Q>
1

> <r_epik_Metal_State_Penalty>
-0

> <b_epik_Metal_Only>
0

> <s_lp_Force_Field>
OPLS_2005

> <r_lp_Energy>
21.1382

> <b_lp_Chiralities_Consistent>
1

> <s_lp_Variant>
AV-unprocessed.smi:3181-2

> <Gold.Version>
5.8.1

> <Gold.Id.Protein>
6NUR|6NUR_protein|mol2

> <Gold.PLP.Fitness>
42.2775

> <Gold.PLP.PLP>
-31.4624

> <Gold.PLP.part.hbond>
-2.0000

> <Gold.PLP.part.metal>
0.0000

> <Gold.PLP.part.buried>
0.9731

> <Gold.PLP.part.nonpolar>
-30.8108

> <Gold.PLP.part.repulsive>
0.4911

> <Gold.PLP.ligand.clash>
0.0000

> <Gold.PLP.ligand.torsion>
1.1477

> <Gold.PLP.Chemscore.Hbond>
3.0000

> <Gold.PLP.Chemscore.CHOScore>
1.3626

> <Gold.PLP.Chemscore.Metal>
0.0000

> <Gold.Chemscore.Hbonds>
donor molecule, donor type, donor heavy atom, donor atom, acceptor molecule, acceptor atom, score
      L1  H     9    26       P1  7948  2.00
      L1  H     9    42       P1  7957  1.00
      L1  C     5    24       P1  7948  1.00
      L1  C     7    25       P1 10186  0.32

> <Gold.PLP.Chemscore.Internal.Correction>
0.0227

> <Gold.Rescore>
     Score         DG    S(hbond)    S(metal)    S(lipo)     H(rot)  DE(clash)    DE(int)     intcor
     13.23     -15.28       1.94        0.00      74.44       2.11       0.81       1.24       ----

> <Gold.Chemscore.Fitness>
13.2330

> <Gold.Chemscore.DG>
-15.2794

> <Gold.Chemscore.ZeroCoef>
-5.4800

> <Gold.Chemscore.Hbond>
1.9432

> <Gold.Chemscore.Metal>
0.0000

> <Gold.Chemscore.Lipo>
74.4383

> <Gold.Chemscore.Internal_Hbond>
0.0000

> <Gold.Chemscore.DEClash>
0.8052

> <Gold.Chemscore.DEInternal>
1.2412

> <Gold.Chemscore.Rot>
2.1095

> <Gold.Chemscore.Internal.Correction>
   9.000000E+99

> <Gold.Chemscore.Hbonds>
donor molecule, donor type, donor heavy atom, donor atom, acceptor molecule, acceptor atom, score
      L1  H     9    26       P1  7948  0.95
      L1  H     9    42       P1  7957  0.95

> <Gold.Chemscore.Hbond.Weighted>
-6.4904

> <Gold.Chemscore.Metal.Weighted>
-0.0000

> <Gold.Chemscore.Lipo.Weighted>
-8.7093

> <Gold.Chemscore.Internal_Hbond.Weighted>
0.0000

> <Gold.Chemscore.DEClash.Weighted>
0.8052

> <Gold.Chemscore.DEInternal.Weighted>
1.2412

> <Gold.Chemscore.Rot.Weighted>
5.4003

> <Gold.Chemscore.Internal.Correction.Weighted>
   9.000000E+99

> <Gold.Protein.RotatedTorsions>
[ 6907 6896 6895 6894 ] final  135.37 input  -60.11 | X-H torsion
[ 7974 7965 7964 7962 ] final -170.13 input  175.53 | X-H torsion
[ 8008 7997 7996 7995 ] final -132.17 input   59.86 | X-H torsion
[ 10167 10162 10161 10158 ] final   33.07 input  -65.29 | X-H torsion
[ 10718 10713 10712 10709 ] final  107.06 input   66.30 | X-H torsion
[ 10763 10752 10751 10750 ] final  -15.29 input  -60.55 | X-H torsion
[ 11005 11000 10999 10996 ] final -155.87 input  -57.11 | X-H torsion

> <Gold.Protein.ActiveResidues>
 VAL166  LYS551  ARG553  GLY616  TRP617  ASP618  TYR619  PRO620  LYS621  CYS622 
 ASP623  PHE694  ASN695  SER759  ASP760  ASP761  ALA762  ILE779  LEU786  VAL792 
 PHE793  MET794  SER795  GLU796  ALA797  LYS798  CYS799  TRP800  GLU811  SER814 

> <Gold.Protein.RotatedAtoms>
  152.3012  133.5657  159.5619 H   0  0  0  0  0  0  0  0  0  0  0  0  # atno 6907 bound_to 6896
  150.7278  134.0289  159.3735 H   0  0  0  0  0  0  0  0  0  0  0  0  # atno 6908 bound_to 6896
  151.8188  135.0658  160.0473 H   0  0  0  0  0  0  0  0  0  0  0  0  # atno 6909 bound_to 6896
  144.7175  140.2118  143.6326 H   0  0  0  0  0  0  0  0  0  0  0  0  # atno 7974 bound_to 7965
  155.3244  140.0464  157.3040 H   0  0  0  0  0  0  0  0  0  0  0  0  # atno 8008 bound_to 7997
  154.5362  140.2273  155.8684 H   0  0  0  0  0  0  0  0  0  0  0  0  # atno 8009 bound_to 7997
  156.1837  140.3067  155.9204 H   0  0  0  0  0  0  0  0  0  0  0  0  # atno 8010 bound_to 7997
  140.4441  144.1144  150.6179 H   0  0  0  0  0  0  0  0  0  0  0  0  # atno 10167 bound_to 10162
  157.6643  131.0864  150.6100 H   0  0  0  0  0  0  0  0  0  0  0  0  # atno 10718 bound_to 10713
  153.5411  135.7013  153.5636 H   0  0  0  0  0  0  0  0  0  0  0  0  # atno 10763 bound_to 10752
  153.3602  135.3972  155.1712 H   0  0  0  0  0  0  0  0  0  0  0  0  # atno 10764 bound_to 10752
  154.8673  135.3786  154.4915 H   0  0  0  0  0  0  0  0  0  0  0  0  # atno 10765 bound_to 10752
  140.6817  134.4137  157.5226 H   0  0  0  0  0  0  0  0  0  0  0  0  # atno 11005 bound_to 11000
  145.8583  139.2210  143.1731 LP  0  0  0  0  0  0  0  0  0  0  0  0  # atno 17320 bound_to 7965
  146.0197  140.8360  142.9929 LP  0  0  0  0  0  0  0  0  0  0  0  0  # atno 17321 bound_to 7965
  140.4284  143.2579  151.9627 LP  0  0  0  0  0  0  0  0  0  0  0  0  # atno 17342 bound_to 10162
  139.4791  144.5766  151.8001 LP  0  0  0  0  0  0  0  0  0  0  0  0  # atno 17343 bound_to 10162
  156.6402  130.4456  149.5755 LP  0  0  0  0  0  0  0  0  0  0  0  0  # atno 17370 bound_to 10713
  156.2215  130.6740  151.1373 LP  0  0  0  0  0  0  0  0  0  0  0  0  # atno 17371 bound_to 10713
  139.8950  134.8694  156.2153 LP  0  0  0  0  0  0  0  0  0  0  0  0  # atno 17394 bound_to 11000
  141.0312  133.6988  156.1433 LP  0  0  0  0  0  0  0  0  0  0  0  0  # atno 17395 bound_to 11000

$$$$
