AV-unprocessed.smi:2299|AV-procd|sdf|9228|dock5
  -GOLD-   2272012443D 1   1.00000     0.00000
 Structure written by MMmdl.
 43 44  0  0  0  0  0  0  0  0  2 V2000
  151.9079  145.6242  160.2705 C   0  0  0  0  0  0  0  0  0  0  0  0
  151.5525  144.5496  159.2320 C   0  0  0  0  0  0  0  0  0  0  0  0
  150.0336  144.3770  159.0894 C   0  0  0  0  0  0  0  0  0  0  0  0
  152.2237  143.2405  159.5440 C   0  0  0  0  0  0  0  0  0  0  0  0
  153.0017  143.0141  160.6104 N   0  3  0  0  0  0  0  0  0  0  0  0
  153.4588  141.7255  160.6083 C   0  0  0  0  0  0  0  0  0  0  0  0
  152.9311  141.1311  159.4932 C   0  0  0  0  0  0  0  0  0  0  0  0
  152.1713  142.0817  158.8588 N   0  0  0  0  0  0  0  0  0  0  0  0
  151.4124  141.8813  157.6135 C   0  0  0  0  0  0  0  0  0  0  0  0
  151.4980  140.4463  157.0786 C   0  0  0  0  0  0  0  0  0  0  0  0
  152.5818  139.9397  156.7851 O   0  0  0  0  0  0  0  0  0  0  0  0
  150.3279  139.7995  156.9580 N   0  0  0  0  0  0  0  0  0  0  0  0
  150.1603  138.4216  156.4889 C   0  0  2  0  0  0  0  0  0  0  0  0
  151.2413  137.5606  157.1821 C   0  0  0  0  0  0  0  0  0  0  0  0
  150.9003  136.0614  157.2384 C   0  0  0  0  0  0  0  0  0  0  0  0
  150.8269  135.3610  155.8731 C   0  0  0  0  0  0  0  0  0  0  0  0
  149.7233  135.9115  154.9540 C   0  0  0  0  0  0  0  0  0  0  0  0
  150.1047  137.1735  154.3335 N   0  0  0  0  0  0  0  0  0  0  0  0
  150.3476  138.3373  154.9555 C   0  0  0  0  0  0  0  0  0  0  0  0
  150.7166  139.3205  154.3128 O   0  0  0  0  0  0  0  0  0  0  0  0
  152.9872  145.7719  160.3254 H   0  0  0  0  0  0  0  0  0  0  0  0
  151.5571  145.3516  161.2665 H   0  0  0  0  0  0  0  0  0  0  0  0
  151.4582  146.5832  160.0118 H   0  0  0  0  0  0  0  0  0  0  0  0
  151.9410  144.8887  158.2730 H   0  0  0  0  0  0  0  0  0  0  0  0
  149.7929  143.6514  158.3117 H   0  0  0  0  0  0  0  0  0  0  0  0
  149.5555  145.3189  158.8191 H   0  0  0  0  0  0  0  0  0  0  0  0
  149.5824  144.0309  160.0198 H   0  0  0  0  0  0  0  0  0  0  0  0
  154.1076  141.3386  161.3806 H   0  0  0  0  0  0  0  0  0  0  0  0
  153.0372  140.1253  159.1128 H   0  0  0  0  0  0  0  0  0  0  0  0
  150.3686  142.1261  157.8141 H   0  0  0  0  0  0  0  0  0  0  0  0
  151.7669  142.5926  156.8668 H   0  0  0  0  0  0  0  0  0  0  0  0
  149.4868  140.2880  157.2292 H   0  0  0  0  0  0  0  0  0  0  0  0
  149.1646  138.0697  156.7650 H   0  0  0  0  0  0  0  0  0  0  0  0
  152.2175  137.7083  156.7164 H   0  0  0  0  0  0  0  0  0  0  0  0
  151.3572  137.8986  158.2132 H   0  0  0  0  0  0  0  0  0  0  0  0
  151.6543  135.5575  157.8441 H   0  0  0  0  0  0  0  0  0  0  0  0
  149.9564  135.9244  157.7676 H   0  0  0  0  0  0  0  0  0  0  0  0
  151.7945  135.4096  155.3715 H   0  0  0  0  0  0  0  0  0  0  0  0
  150.6342  134.3019  156.0471 H   0  0  0  0  0  0  0  0  0  0  0  0
  149.5417  135.2007  154.1477 H   0  0  0  0  0  0  0  0  0  0  0  0
  148.7781  136.0166  155.4885 H   0  0  0  0  0  0  0  0  0  0  0  0
  150.2256  137.1567  153.3310 H   0  0  0  0  0  0  0  0  0  0  0  0
  153.2232  143.7059  161.3154 H   0  0  0  0  0  0  0  0  0  0  0  0
  1  2  1  0  0  0  0
  1 21  1  0  0  0  0
  1 22  1  0  0  0  0
  1 23  1  0  0  0  0
  2  3  1  0  0  0  0
  2  4  1  0  0  0  0
  2 24  1  0  0  0  0
  3 25  1  0  0  0  0
  3 26  1  0  0  0  0
  3 27  1  0  0  0  0
  4  8  1  0  0  0  0
  4  5  2  0  0  0  0
  5  6  1  0  0  0  0
  5 43  1  0  0  0  0
  6  7  2  0  0  0  0
  6 28  1  0  0  0  0
  7  8  1  0  0  0  0
  7 29  1  0  0  0  0
  8  9  1  0  0  0  0
  9 10  1  0  0  0  0
  9 30  1  0  0  0  0
  9 31  1  0  0  0  0
 10 11  2  0  0  0  0
 10 12  1  0  0  0  0
 12 13  1  0  0  0  0
 12 32  1  0  0  0  0
 13 19  1  0  0  0  0
 13 14  1  0  0  0  0
 13 33  1  0  0  0  0
 14 15  1  0  0  0  0
 14 34  1  0  0  0  0
 14 35  1  0  0  0  0
 15 16  1  0  0  0  0
 15 36  1  0  0  0  0
 15 37  1  0  0  0  0
 16 17  1  0  0  0  0
 16 38  1  0  0  0  0
 16 39  1  0  0  0  0
 17 18  1  0  0  0  0
 17 40  1  0  0  0  0
 17 41  1  0  0  0  0
 18 19  1  0  0  0  0
 18 42  1  0  0  0  0
 19 20  2  0  0  0  0
M  CHG  1   5   1
M  END
> <s_m_source_file>
AV-unprocessed.smi

> <i_m_source_file_index>
2299

> <i_lp_mmshare_version>
43012

> <i_f3d_flags>
0

> <s_epik_input>
W0NIM11bQ0hdKFtDSDNdKWMxbltjSF1bY0hdbjFbQ0gyXUMoPU8pW05IXVtDQEBIXTJbQ0gyXVtDSDJdW0NIMl1bQ0gyXVtOSF1DMj1P

> <s_epik_cmdline>
J2VwaWtfcHl0aG9uJywgJy1waCcsICc3LjAnLCAnLXRuJywgJzgnLCAnLW1hJywgJzIwMCcsICctbWV0YWxfYmluZGluZycsICctaW1hZScsICc8aW5maWxlLm1hZT4nLCAnLW9tYWUnLCAnPG91dGZpbGUubWFlPic=

> <r_lp_tautomer_probability>
1

> <r_epik_Ionization_Penalty>
0.292878

> <r_epik_Ionization_Penalty_Charging>
0

> <r_epik_Ionization_Penalty_Neutral>
0.292878

> <r_epik_State_Penalty>
0.286008

> <r_epik_Charging_Adjusted_Penalty>
0.286008

> <i_epik_Tot_Q>
1

> <i_epik_Tot_abs_Q>
1

> <r_epik_Metal_State_Penalty>
0.563502

> <b_epik_Metal_Only>
0

> <s_lp_Force_Field>
OPLS_2005

> <r_lp_Energy>
16.2332

> <b_lp_Chiralities_Consistent>
1

> <s_lp_Variant>
AV-unprocessed.smi:2299-1

> <Gold.Version>
5.8.1

> <Gold.Id.Protein>
6NUR|6NUR_protein|mol2

> <Gold.PLP.Fitness>
42.9968

> <Gold.PLP.PLP>
-35.3036

> <Gold.PLP.part.hbond>
-3.0000

> <Gold.PLP.part.metal>
0.0000

> <Gold.PLP.part.buried>
-5.3995

> <Gold.PLP.part.nonpolar>
-28.2635

> <Gold.PLP.part.repulsive>
0.2261

> <Gold.PLP.ligand.clash>
0.0000

> <Gold.PLP.ligand.torsion>
0.2196

> <Gold.PLP.Chemscore.Hbond>
2.6953

> <Gold.PLP.Chemscore.CHOScore>
0.0000

> <Gold.PLP.Chemscore.Metal>
0.0000

> <Gold.Chemscore.Hbonds>
donor molecule, donor type, donor heavy atom, donor atom, acceptor molecule, acceptor atom, score
      L1  H    18    42       P1  7948  0.37
      P1  H  7989  7998       L1    20  1.00
      P1  H  7997  8010       L1    11  1.00

> <Gold.PLP.Chemscore.Internal.Correction>
0.0465

> <Gold.Rescore>
     Score         DG    S(hbond)    S(metal)    S(lipo)     H(rot)  DE(clash)    DE(int)     intcor
     16.12     -18.56       2.55        0.00      77.33       1.75       0.40       2.04       ----

> <Gold.Chemscore.Fitness>
16.1193

> <Gold.Chemscore.DG>
-18.5618

> <Gold.Chemscore.ZeroCoef>
-5.4800

> <Gold.Chemscore.Hbond>
2.5497

> <Gold.Chemscore.Metal>
0.0000

> <Gold.Chemscore.Lipo>
77.3340

> <Gold.Chemscore.Internal_Hbond>
0.0000

> <Gold.Chemscore.DEClash>
0.4015

> <Gold.Chemscore.DEInternal>
2.0411

> <Gold.Chemscore.Rot>
1.7508

> <Gold.Chemscore.Internal.Correction>
   9.000000E+99

> <Gold.Chemscore.Hbonds>
donor molecule, donor type, donor heavy atom, donor atom, acceptor molecule, acceptor atom, score
      L1  H    18    42       P1  7948  0.04
      P1  H  7989  7998       L1    20  0.98
      P1  H  7997  8010       L1    11  1.00

> <Gold.Chemscore.Hbond.Weighted>
-8.5158

> <Gold.Chemscore.Metal.Weighted>
-0.0000

> <Gold.Chemscore.Lipo.Weighted>
-9.0481

> <Gold.Chemscore.Internal_Hbond.Weighted>
0.0000

> <Gold.Chemscore.DEClash.Weighted>
0.4015

> <Gold.Chemscore.DEInternal.Weighted>
2.0411

> <Gold.Chemscore.Rot.Weighted>
4.4821

> <Gold.Chemscore.Internal.Correction.Weighted>
   9.000000E+99

> <Gold.Protein.RotatedTorsions>
[ 6907 6896 6895 6894 ] final  159.52 input  -60.11 | X-H torsion
[ 7974 7965 7964 7962 ] final -117.51 input  175.53 | X-H torsion
[ 8008 7997 7996 7995 ] final   63.86 input   59.86 | X-H torsion
[ 10167 10162 10161 10158 ] final -124.50 input  -65.29 | X-H torsion
[ 10718 10713 10712 10709 ] final  -16.90 input   66.30 | X-H torsion
[ 10763 10752 10751 10750 ] final   85.54 input  -60.55 | X-H torsion
[ 11005 11000 10999 10996 ] final  -70.35 input  -57.11 | X-H torsion

> <Gold.Protein.ActiveResidues>
 VAL166  LYS551  ARG553  GLY616  TRP617  ASP618  TYR619  PRO620  LYS621  CYS622 
 ASP623  PHE694  ASN695  SER759  ASP760  ASP761  ALA762  ILE779  LEU786  VAL792 
 PHE793  MET794  SER795  GLU796  ALA797  LYS798  CYS799  TRP800  GLU811  SER814 

> <Gold.Protein.RotatedAtoms>
  151.9844  133.3769  159.4119 H   0  0  0  0  0  0  0  0  0  0  0  0  # atno 6907 bound_to 6896
  150.6930  134.4004  159.5125 H   0  0  0  0  0  0  0  0  0  0  0  0  # atno 6908 bound_to 6896
  152.1728  134.8820  160.0583 H   0  0  0  0  0  0  0  0  0  0  0  0  # atno 6909 bound_to 6896
  145.0843  140.8447  143.4020 H   0  0  0  0  0  0  0  0  0  0  0  0  # atno 7974 bound_to 7965
  155.6370  140.3496  155.4702 H   0  0  0  0  0  0  0  0  0  0  0  0  # atno 8008 bound_to 7997
  155.9957  140.1203  157.0619 H   0  0  0  0  0  0  0  0  0  0  0  0  # atno 8009 bound_to 7997
  154.4233  140.1110  156.5613 H   0  0  0  0  0  0  0  0  0  0  0  0  # atno 8010 bound_to 7997
  139.9921  143.5629  152.2337 H   0  0  0  0  0  0  0  0  0  0  0  0  # atno 10167 bound_to 10162
  156.5810  130.4774  149.6320 H   0  0  0  0  0  0  0  0  0  0  0  0  # atno 10718 bound_to 10713
  153.1484  135.4613  154.9601 H   0  0  0  0  0  0  0  0  0  0  0  0  # atno 10763 bound_to 10752
  154.7805  135.3187  154.8002 H   0  0  0  0  0  0  0  0  0  0  0  0  # atno 10764 bound_to 10752
  153.8512  135.6921  153.4846 H   0  0  0  0  0  0  0  0  0  0  0  0  # atno 10765 bound_to 10752
  141.1572  133.6788  156.6739 H   0  0  0  0  0  0  0  0  0  0  0  0  # atno 11005 bound_to 11000
  145.1140  139.2737  143.5622 LP  0  0  0  0  0  0  0  0  0  0  0  0  # atno 17320 bound_to 7965
  146.3531  140.0745  142.8621 LP  0  0  0  0  0  0  0  0  0  0  0  0  # atno 17321 bound_to 7965
  139.6332  144.7647  151.2492 LP  0  0  0  0  0  0  0  0  0  0  0  0  # atno 17342 bound_to 10162
  140.7450  143.6443  150.8306 LP  0  0  0  0  0  0  0  0  0  0  0  0  # atno 17343 bound_to 10162
  156.2631  130.6974  151.1749 LP  0  0  0  0  0  0  0  0  0  0  0  0  # atno 17370 bound_to 10713
  157.7326  131.0598  150.5618 LP  0  0  0  0  0  0  0  0  0  0  0  0  # atno 17371 bound_to 10713
  140.3154  134.8052  157.4210 LP  0  0  0  0  0  0  0  0  0  0  0  0  # atno 17394 bound_to 11000
  140.1143  134.5304  155.8239 LP  0  0  0  0  0  0  0  0  0  0  0  0  # atno 17395 bound_to 11000

$$$$
