AV-unprocessed.smi:157|AV-procd|sdf|1292|dock2
  -GOLD-   2262018573D 1   1.00000     0.00000
 Structure written by MMmdl.
 35 37  0  0  0  0  0  0  0  0  1 V2000
  147.0040  142.3882  155.8238 O   0  0  0  0  0  0  0  0  0  0  0  0
  147.5674  141.2976  155.1265 C   0  0  0  0  0  0  0  0  0  0  0  0
  148.8863  140.8603  155.7875 C   0  0  2  0  0  0  0  0  0  0  0  0
  149.6153  141.9879  156.2627 O   0  0  0  0  0  0  0  0  0  0  0  0
  150.9891  141.7344  156.2154 C   0  0  1  0  0  0  0  0  0  0  0  0
  151.5399  141.8162  157.6058 N   0  0  0  0  0  0  0  0  0  0  0  0
  152.1568  140.8329  158.2748 C   0  0  0  0  0  0  0  0  0  0  0  0
  152.5602  141.1634  159.4898 N   0  0  0  0  0  0  0  0  0  0  0  0
  152.1656  142.4933  159.6244 C   0  0  0  0  0  0  0  0  0  0  0  0
  151.5329  142.9188  158.4648 C   0  0  0  0  0  0  0  0  0  0  0  0
  150.9652  144.0961  158.0168 N   0  0  0  0  0  0  0  0  0  0  0  0
  150.6242  144.9800  158.9006 C   0  0  0  0  0  0  0  0  0  0  0  0
  150.8229  144.9939  160.2737 N   0  0  0  0  0  0  0  0  0  0  0  0
  152.1087  144.7213  160.8930 C   0  0  0  0  0  0  0  0  0  0  0  0
  152.4890  143.2352  160.8895 C   0  0  1  0  0  0  0  0  0  0  0  0
  151.8077  142.5784  161.9389 O   0  0  0  0  0  0  0  0  0  0  0  0
  151.1840  140.3227  155.6523 C   0  0  0  0  0  0  0  0  0  0  0  0
  149.8848  140.0948  154.9078 C   0  0  2  0  0  0  0  0  0  0  0  0
  149.9591  140.6173  153.5945 O   0  0  0  0  0  0  0  0  0  0  0  0
  148.6598  140.2488  156.6628 H   0  0  0  0  0  0  0  0  0  0  0  0
  151.4870  142.5150  155.6397 H   0  0  0  0  0  0  0  0  0  0  0  0
  153.5545  143.1517  161.1053 H   0  0  0  0  0  0  0  0  0  0  0  0
  149.6356  139.0351  154.8425 H   0  0  0  0  0  0  0  0  0  0  0  0
  147.6495  143.0765  155.8749 H   0  0  0  0  0  0  0  0  0  0  0  0
  146.8500  140.4781  155.0805 H   0  0  0  0  0  0  0  0  0  0  0  0
  147.7553  141.6106  154.0992 H   0  0  0  0  0  0  0  0  0  0  0  0
  152.3196  139.8495  157.8591 H   0  0  0  0  0  0  0  0  0  0  0  0
  150.1022  145.8763  158.5626 H   0  0  0  0  0  0  0  0  0  0  0  0
  150.2761  145.6330  160.8322 H   0  0  0  0  0  0  0  0  0  0  0  0
  152.8611  145.2769  160.3313 H   0  0  0  0  0  0  0  0  0  0  0  0
  152.1271  145.1248  161.9059 H   0  0  0  0  0  0  0  0  0  0  0  0
  152.3394  142.6383  162.7180 H   0  0  0  0  0  0  0  0  0  0  0  0
  152.0792  140.2597  155.0323 H   0  0  0  0  0  0  0  0  0  0  0  0
  151.2727  139.6073  156.4716 H   0  0  0  0  0  0  0  0  0  0  0  0
  149.6680  139.9502  152.9917 H   0  0  0  0  0  0  0  0  0  0  0  0
  1  2  1  0  0  0  0
  1 24  1  0  0  0  0
  2  3  1  0  0  0  0
  2 25  1  0  0  0  0
  2 26  1  0  0  0  0
  3 20  1  0  0  0  0
  3 18  1  0  0  0  0
  3  4  1  0  0  0  0
  4  5  1  0  0  0  0
  5 21  1  0  0  0  0
  5  6  1  0  0  0  0
  5 17  1  0  0  0  0
  6 10  1  0  0  0  0
  6  7  1  0  0  0  0
  7  8  2  0  0  0  0
  7 27  1  0  0  0  0
  8  9  1  0  0  0  0
  9 15  1  0  0  0  0
  9 10  2  0  0  0  0
 10 11  1  0  0  0  0
 11 12  2  0  0  0  0
 12 13  1  0  0  0  0
 12 28  1  0  0  0  0
 13 14  1  0  0  0  0
 13 29  1  0  0  0  0
 14 15  1  0  0  0  0
 14 30  1  0  0  0  0
 14 31  1  0  0  0  0
 15 22  1  0  0  0  0
 15 16  1  0  0  0  0
 16 32  1  0  0  0  0
 17 18  1  0  0  0  0
 17 33  1  0  0  0  0
 17 34  1  0  0  0  0
 18 23  1  0  0  0  0
 18 19  1  0  0  0  0
 19 35  1  0  0  0  0
M  END
> <s_m_source_file>
AV-unprocessed.smi

> <i_m_source_file_index>
157

> <i_lp_mmshare_version>
43012

> <i_f3d_flags>
0

> <s_epik_input>
W09IXVtDSDJdW0NASF0xT1tDQEhdKFtDSDJdW0NAQEhdMVtPSF0pbihbY0hdbjIpYyhjMjMpTj1bQ0hdW05IXVtDSDJdW0NASF0zW09IXQ==

> <s_epik_cmdline>
J2VwaWtfcHl0aG9uJywgJy1waCcsICc3LjAnLCAnLXRuJywgJzgnLCAnLW1hJywgJzIwMCcsICctbWV0YWxfYmluZGluZycsICctaW1hZScsICc8aW5maWxlLm1hZT4nLCAnLW9tYWUnLCAnPG91dGZpbGUubWFlPic=

> <r_lp_tautomer_probability>
1

> <r_epik_Ionization_Penalty>
0.0357149

> <r_epik_Ionization_Penalty_Charging>
0.0355056

> <r_epik_Ionization_Penalty_Neutral>
0.000209255

> <r_epik_State_Penalty>
0.0296046

> <r_epik_Charging_Adjusted_Penalty>
0.0651102

> <i_epik_Tot_Q>
0

> <i_epik_Tot_abs_Q>
0

> <r_epik_Metal_State_Penalty>
3.03559e-05

> <b_epik_Metal_Only>
0

> <s_epik_Chemistry_Notes>
This compound has an imine and may undergo hydrolysis. This compound contains an acetal/aminal-like group ( X-CH(R)-Y where X, Y are N, S, or O) that may be acid/base labile, releasing an aldehyde.

> <s_lp_Force_Field>
OPLS_2005

> <r_lp_Energy>
45.9661

> <b_lp_Chiralities_Consistent>
1

> <s_lp_Variant>
AV-unprocessed.smi:157-2

> <Gold.Version>
5.8.1

> <Gold.Id.Protein>
6NUR|6NUR_protein|mol2

> <Gold.PLP.Fitness>
47.9842

> <Gold.PLP.PLP>
-35.5116

> <Gold.PLP.part.hbond>
-4.9198

> <Gold.PLP.part.metal>
0.0000

> <Gold.PLP.part.buried>
-5.9302

> <Gold.PLP.part.nonpolar>
-25.3274

> <Gold.PLP.part.repulsive>
2.0357

> <Gold.PLP.ligand.clash>
0.0000

> <Gold.PLP.ligand.torsion>
0.2412

> <Gold.PLP.Chemscore.Hbond>
3.4730

> <Gold.PLP.Chemscore.CHOScore>
0.8434

> <Gold.PLP.Chemscore.Metal>
0.0000

> <Gold.Chemscore.Hbonds>
donor molecule, donor type, donor heavy atom, donor atom, acceptor molecule, acceptor atom, score
      L1  H     1    24       P1  8028  0.93
      L1  H    19    35       P1  7957  0.56
      P1  H  6933  6945       L1    16  0.85
      P1  H  7989  7998       L1    19  0.48
      P1  H  8011  8017       L1    19  0.59
      L1  C    12    28       P1  8029  0.94

> <Gold.PLP.Chemscore.Internal.Correction>
0.0058

> <Gold.Rescore>
     Score         DG    S(hbond)    S(metal)    S(lipo)     H(rot)  DE(clash)    DE(int)     intcor
      9.28     -10.92       2.42        0.00      56.98       3.64       1.30       0.34       ----

> <Gold.Chemscore.Fitness>
9.2778

> <Gold.Chemscore.DG>
-10.9159

> <Gold.Chemscore.ZeroCoef>
-5.4800

> <Gold.Chemscore.Hbond>
2.4187

> <Gold.Chemscore.Metal>
0.0000

> <Gold.Chemscore.Lipo>
56.9753

> <Gold.Chemscore.Internal_Hbond>
0.0000

> <Gold.Chemscore.DEClash>
1.3024

> <Gold.Chemscore.DEInternal>
0.3356

> <Gold.Chemscore.Rot>
3.6362

> <Gold.Chemscore.Internal.Correction>
   9.000000E+99

> <Gold.Chemscore.Hbonds>
donor molecule, donor type, donor heavy atom, donor atom, acceptor molecule, acceptor atom, score
      L1  H     1    24       P1  8028  0.20
      L1  H    19    35       P1  7957  0.56
      P1  H  6933  6945       L1    16  0.72
      P1  H  7989  7998       L1    19  0.11
      P1  H  8011  8017       L1    19  0.17

> <Gold.Chemscore.Hbond.Weighted>
-8.0785

> <Gold.Chemscore.Metal.Weighted>
-0.0000

> <Gold.Chemscore.Lipo.Weighted>
-6.6661

> <Gold.Chemscore.Internal_Hbond.Weighted>
0.0000

> <Gold.Chemscore.DEClash.Weighted>
1.3024

> <Gold.Chemscore.DEInternal.Weighted>
0.3356

> <Gold.Chemscore.Rot.Weighted>
9.3087

> <Gold.Chemscore.Internal.Correction.Weighted>
   9.000000E+99

> <Gold.Protein.RotatedTorsions>
[ 6907 6896 6895 6894 ] final  129.75 input  -60.11 | X-H torsion
[ 7974 7965 7964 7962 ] final   74.72 input  175.53 | X-H torsion
[ 8008 7997 7996 7995 ] final  128.68 input   59.86 | X-H torsion
[ 10167 10162 10161 10158 ] final  -23.93 input  -65.29 | X-H torsion
[ 10718 10713 10712 10709 ] final  170.32 input   66.30 | X-H torsion
[ 10763 10752 10751 10750 ] final   29.96 input  -60.55 | X-H torsion
[ 11005 11000 10999 10996 ] final   97.06 input  -57.11 | X-H torsion

> <Gold.Protein.ActiveResidues>
 VAL166  LYS551  ARG553  GLY616  TRP617  ASP618  TYR619  PRO620  LYS621  CYS622 
 ASP623  PHE694  ASN695  SER759  ASP760  ASP761  ALA762  ILE779  LEU786  VAL792 
 PHE793  MET794  SER795  GLU796  ALA797  LYS798  CYS799  TRP800  GLU811  SER814 

> <Gold.Protein.RotatedAtoms>
  152.3593  133.6277  159.6002 H   0  0  0  0  0  0  0  0  0  0  0  0  # atno 6907 bound_to 6896
  150.7590  133.9449  159.3476 H   0  0  0  0  0  0  0  0  0  0  0  0  # atno 6908 bound_to 6896
  151.7290  135.0880  160.0348 H   0  0  0  0  0  0  0  0  0  0  0  0  # atno 6909 bound_to 6896
  145.7247  139.2661  143.1575 H   0  0  0  0  0  0  0  0  0  0  0  0  # atno 7974 bound_to 7965
  156.2920  140.2639  156.2474 H   0  0  0  0  0  0  0  0  0  0  0  0  # atno 8008 bound_to 7997
  154.9916  140.0388  157.2340 H   0  0  0  0  0  0  0  0  0  0  0  0  # atno 8009 bound_to 7997
  154.7681  140.2773  155.6165 H   0  0  0  0  0  0  0  0  0  0  0  0  # atno 8010 bound_to 7997
  140.7288  143.4399  151.0673 H   0  0  0  0  0  0  0  0  0  0  0  0  # atno 10167 bound_to 10162
  157.0098  131.0201  151.2806 H   0  0  0  0  0  0  0  0  0  0  0  0  # atno 10718 bound_to 10713
  153.0399  135.6476  154.0971 H   0  0  0  0  0  0  0  0  0  0  0  0  # atno 10763 bound_to 10752
  154.0679  135.2883  155.3315 H   0  0  0  0  0  0  0  0  0  0  0  0  # atno 10764 bound_to 10752
  154.6614  135.5390  153.8087 H   0  0  0  0  0  0  0  0  0  0  0  0  # atno 10765 bound_to 10752
  139.8778  134.8982  156.4250 H   0  0  0  0  0  0  0  0  0  0  0  0  # atno 11005 bound_to 11000
  146.0593  140.7988  142.9743 LP  0  0  0  0  0  0  0  0  0  0  0  0  # atno 17320 bound_to 7965
  144.6908  140.3172  143.7238 LP  0  0  0  0  0  0  0  0  0  0  0  0  # atno 17321 bound_to 7965
  139.8064  143.8011  152.3167 LP  0  0  0  0  0  0  0  0  0  0  0  0  # atno 17342 bound_to 10162
  139.8046  144.7360  150.9779 LP  0  0  0  0  0  0  0  0  0  0  0  0  # atno 17343 bound_to 10162
  157.5328  130.8070  149.7937 LP  0  0  0  0  0  0  0  0  0  0  0  0  # atno 17370 bound_to 10713
  156.0140  130.3821  150.2171 LP  0  0  0  0  0  0  0  0  0  0  0  0  # atno 17371 bound_to 10713
  140.9107  133.7714  155.9788 LP  0  0  0  0  0  0  0  0  0  0  0  0  # atno 17394 bound_to 11000
  140.8550  134.2909  157.5259 LP  0  0  0  0  0  0  0  0  0  0  0  0  # atno 17395 bound_to 11000

$$$$
