AV-unprocessed.smi:825|AV-procd|sdf|3851|dock3
  -GOLD-   22720 1303D 1   1.00000     0.00000
 Structure written by MMmdl.
 38 39  0  0  0  0  0  0  0  0  1 V2000
  151.3653  141.4258  156.2381 O   0  0  0  0  0  0  0  0  0  0  0  0
  150.6839  142.4397  156.0870 C   0  0  0  0  0  0  0  0  0  0  0  0
  150.9706  143.6225  156.6485 N   0  0  0  0  0  0  0  0  0  0  0  0
  152.1083  143.8974  157.5205 C   0  0  0  0  0  0  0  0  0  0  0  0
  151.7641  143.5950  158.9886 C   0  0  0  0  0  0  0  0  0  0  0  0
  151.8054  144.8144  159.9180 C   0  0  0  0  0  0  0  0  0  0  0  0
  152.0272  144.2530  161.3297 C   0  0  0  0  0  0  0  0  0  0  0  0
  152.4845  142.7974  161.1531 C   0  0  0  0  0  0  0  0  0  0  0  0
  152.7287  142.6130  159.6540 C   0  0  0  0  0  0  0  0  0  0  0  0
  149.5652  142.5123  155.3480 N   0  0  0  0  0  0  0  0  0  0  0  0
  148.9759  141.4768  154.5805 C   0  0  0  0  0  0  0  0  0  0  0  0
  149.4190  140.1390  154.3781 C   0  0  0  0  0  0  0  0  0  0  0  0
  148.5916  139.4804  153.5804 N   0  0  0  0  0  0  0  0  0  0  0  0
  147.6199  140.3721  153.2656 N   0  0  0  0  0  0  0  0  0  0  0  0
  146.5406  139.9738  152.3834 C   0  0  0  0  0  0  0  0  0  0  0  0
  146.6721  138.5039  151.9617 C   0  0  0  0  0  0  0  0  0  0  0  0
  147.6796  138.3733  150.9821 O   0  0  0  0  0  0  0  0  0  0  0  0
  147.8258  141.6008  153.8607 C   0  0  0  0  0  0  0  0  0  0  0  0
  150.3489  144.3960  156.4631 H   0  0  0  0  0  0  0  0  0  0  0  0
  152.9847  143.3171  157.2282 H   0  0  0  0  0  0  0  0  0  0  0  0
  152.3818  144.9465  157.4044 H   0  0  0  0  0  0  0  0  0  0  0  0
  150.7621  143.1639  159.0347 H   0  0  0  0  0  0  0  0  0  0  0  0
  152.6458  145.4565  159.6506 H   0  0  0  0  0  0  0  0  0  0  0  0
  150.8990  145.4171  159.8513 H   0  0  0  0  0  0  0  0  0  0  0  0
  152.7731  144.8418  161.8645 H   0  0  0  0  0  0  0  0  0  0  0  0
  151.1058  144.2900  161.9119 H   0  0  0  0  0  0  0  0  0  0  0  0
  153.3717  142.5663  161.7435 H   0  0  0  0  0  0  0  0  0  0  0  0
  151.6906  142.1246  161.4799 H   0  0  0  0  0  0  0  0  0  0  0  0
  152.5702  141.5842  159.3289 H   0  0  0  0  0  0  0  0  0  0  0  0
  153.7591  142.8814  159.4161 H   0  0  0  0  0  0  0  0  0  0  0  0
  149.0927  143.4040  155.3217 H   0  0  0  0  0  0  0  0  0  0  0  0
  150.2893  139.6290  154.7634 H   0  0  0  0  0  0  0  0  0  0  0  0
  145.5903  140.1446  152.8919 H   0  0  0  0  0  0  0  0  0  0  0  0
  146.5525  140.6235  151.5071 H   0  0  0  0  0  0  0  0  0  0  0  0
  146.9272  137.8796  152.8188 H   0  0  0  0  0  0  0  0  0  0  0  0
  145.7307  138.1322  151.5555 H   0  0  0  0  0  0  0  0  0  0  0  0
  148.0634  137.5130  151.0586 H   0  0  0  0  0  0  0  0  0  0  0  0
  147.1540  142.4345  153.7198 H   0  0  0  0  0  0  0  0  0  0  0  0
  1  2  2  0  0  0  0
  2  3  1  0  0  0  0
  2 10  1  0  0  0  0
  3  4  1  0  0  0  0
  3 19  1  0  0  0  0
  4  5  1  0  0  0  0
  4 20  1  0  0  0  0
  4 21  1  0  0  0  0
  5  9  1  0  0  0  0
  5  6  1  0  0  0  0
  5 22  1  0  0  0  0
  6  7  1  0  0  0  0
  6 23  1  0  0  0  0
  6 24  1  0  0  0  0
  7  8  1  0  0  0  0
  7 25  1  0  0  0  0
  7 26  1  0  0  0  0
  8  9  1  0  0  0  0
  8 27  1  0  0  0  0
  8 28  1  0  0  0  0
  9 29  1  0  0  0  0
  9 30  1  0  0  0  0
 10 11  1  0  0  0  0
 10 31  1  0  0  0  0
 11 18  2  0  0  0  0
 11 12  1  0  0  0  0
 12 13  2  0  0  0  0
 12 32  1  0  0  0  0
 13 14  1  0  0  0  0
 14 15  1  0  0  0  0
 14 18  1  0  0  0  0
 15 16  1  0  0  0  0
 15 33  1  0  0  0  0
 15 34  1  0  0  0  0
 16 17  1  0  0  0  0
 16 35  1  0  0  0  0
 16 36  1  0  0  0  0
 17 37  1  0  0  0  0
 18 38  1  0  0  0  0
M  END
> <s_m_source_file>
AV-unprocessed.smi

> <i_m_source_file_index>
825

> <i_lp_mmshare_version>
43012

> <i_f3d_flags>
0

> <s_epik_input>
W0NIMl0xW0NIMl1bQ0gyXVtDSDJdW0NIXTFbQ0gyXVtOSF1DKD1PKVtOSF1jMltjSF1ubihbY0hdMilbQ0gyXVtDSDJdW09IXQ==

> <s_epik_cmdline>
J2VwaWtfcHl0aG9uJywgJy1waCcsICc3LjAnLCAnLXRuJywgJzgnLCAnLW1hJywgJzIwMCcsICctbWV0YWxfYmluZGluZycsICctaW1hZScsICc8aW5maWxlLm1hZT4nLCAnLW9tYWUnLCAnPG91dGZpbGUubWFlPic=

> <r_lp_tautomer_probability>
1

> <r_epik_Ionization_Penalty>
0.000577844

> <r_epik_Ionization_Penalty_Charging>
0

> <r_epik_Ionization_Penalty_Neutral>
0.000577844

> <r_epik_State_Penalty>
-0

> <r_epik_Charging_Adjusted_Penalty>
0

> <i_epik_Tot_Q>
0

> <i_epik_Tot_abs_Q>
0

> <r_epik_Metal_State_Penalty>
-0

> <b_epik_Metal_Only>
0

> <s_lp_Force_Field>
OPLS_2005

> <r_lp_Energy>
26.6731

> <b_lp_Chiralities_Consistent>
1

> <s_lp_Variant>
AV-unprocessed.smi:825-1

> <Gold.Version>
5.8.1

> <Gold.Id.Protein>
6NUR|6NUR_protein|mol2

> <Gold.PLP.Fitness>
49.1411

> <Gold.PLP.PLP>
-42.3318

> <Gold.PLP.part.hbond>
-4.7037

> <Gold.PLP.part.metal>
0.0000

> <Gold.PLP.part.buried>
-1.8625

> <Gold.PLP.part.nonpolar>
-37.2228

> <Gold.PLP.part.repulsive>
1.2839

> <Gold.PLP.ligand.clash>
0.0000

> <Gold.PLP.ligand.torsion>
0.9932

> <Gold.PLP.Chemscore.Hbond>
2.9280

> <Gold.PLP.Chemscore.CHOScore>
0.0000

> <Gold.PLP.Chemscore.Metal>
0.0000

> <Gold.Chemscore.Hbonds>
donor molecule, donor type, donor heavy atom, donor atom, acceptor molecule, acceptor atom, score
      L1  H     3    19       P1  8028  0.83
      L1  H    10    31       P1  8028  0.59
      L1  H    17    37       P1  7948  1.00

> <Gold.PLP.Chemscore.Internal.Correction>
0.0117

> <Gold.Rescore>
     Score         DG    S(hbond)    S(metal)    S(lipo)     H(rot)  DE(clash)    DE(int)     intcor
     17.44     -21.64       2.86        0.00     107.01       2.31       2.18       2.03       ----

> <Gold.Chemscore.Fitness>
17.4366

> <Gold.Chemscore.DG>
-21.6405

> <Gold.Chemscore.ZeroCoef>
-5.4800

> <Gold.Chemscore.Hbond>
2.8601

> <Gold.Chemscore.Metal>
0.0000

> <Gold.Chemscore.Lipo>
107.0135

> <Gold.Chemscore.Internal_Hbond>
0.0000

> <Gold.Chemscore.DEClash>
2.1763

> <Gold.Chemscore.DEInternal>
2.0276

> <Gold.Chemscore.Rot>
2.3097

> <Gold.Chemscore.Internal.Correction>
   9.000000E+99

> <Gold.Chemscore.Hbonds>
donor molecule, donor type, donor heavy atom, donor atom, acceptor molecule, acceptor atom, score
      L1  H     3    19       P1  8028  0.83
      L1  H    10    31       P1  8028  0.58
      L1  H    17    37       P1  7948  0.93

> <Gold.Chemscore.Hbond.Weighted>
-9.5527

> <Gold.Chemscore.Metal.Weighted>
-0.0000

> <Gold.Chemscore.Lipo.Weighted>
-12.5206

> <Gold.Chemscore.Internal_Hbond.Weighted>
0.0000

> <Gold.Chemscore.DEClash.Weighted>
2.1763

> <Gold.Chemscore.DEInternal.Weighted>
2.0276

> <Gold.Chemscore.Rot.Weighted>
5.9128

> <Gold.Chemscore.Internal.Correction.Weighted>
   9.000000E+99

> <Gold.Protein.RotatedTorsions>
[ 6907 6896 6895 6894 ] final  148.02 input  -60.11 | X-H torsion
[ 7974 7965 7964 7962 ] final  -51.02 input  175.53 | X-H torsion
[ 8008 7997 7996 7995 ] final  125.18 input   59.86 | X-H torsion
[ 10167 10162 10161 10158 ] final  -26.11 input  -65.29 | X-H torsion
[ 10718 10713 10712 10709 ] final -132.43 input   66.30 | X-H torsion
[ 10763 10752 10751 10750 ] final  142.84 input  -60.55 | X-H torsion
[ 11005 11000 10999 10996 ] final -129.07 input  -57.11 | X-H torsion

> <Gold.Protein.ActiveResidues>
 VAL166  LYS551  ARG553  GLY616  TRP617  ASP618  TYR619  PRO620  LYS621  CYS622 
 ASP623  PHE694  ASN695  SER759  ASP760  ASP761  ALA762  ILE779  LEU786  VAL792 
 PHE793  MET794  SER795  GLU796  ALA797  LYS798  CYS799  TRP800  GLU811  SER814 

> <Gold.Protein.RotatedAtoms>
  152.1470  133.4498  159.4794 H   0  0  0  0  0  0  0  0  0  0  0  0  # atno 6907 bound_to 6896
  150.6891  134.2236  159.4415 H   0  0  0  0  0  0  0  0  0  0  0  0  # atno 6908 bound_to 6896
  152.0130  134.9865  160.0619 H   0  0  0  0  0  0  0  0  0  0  0  0  # atno 6909 bound_to 6896
  145.9235  140.7812  142.9635 H   0  0  0  0  0  0  0  0  0  0  0  0  # atno 7974 bound_to 7965
  156.2826  140.2722  156.1908 H   0  0  0  0  0  0  0  0  0  0  0  0  # atno 8008 bound_to 7997
  155.0460  140.0386  157.2545 H   0  0  0  0  0  0  0  0  0  0  0  0  # atno 8009 bound_to 7997
  154.7234  140.2692  155.6526 H   0  0  0  0  0  0  0  0  0  0  0  0  # atno 8010 bound_to 7997
  140.7284  143.4207  151.0956 H   0  0  0  0  0  0  0  0  0  0  0  0  # atno 10167 bound_to 10162
  156.2345  130.7058  151.0893 H   0  0  0  0  0  0  0  0  0  0  0  0  # atno 10718 bound_to 10713
  153.9625  135.2959  155.3432 H   0  0  0  0  0  0  0  0  0  0  0  0  # atno 10763 bound_to 10752
  154.7367  135.5043  153.9056 H   0  0  0  0  0  0  0  0  0  0  0  0  # atno 10764 bound_to 10752
  153.0939  135.6715  153.9910 H   0  0  0  0  0  0  0  0  0  0  0  0  # atno 10765 bound_to 10752
  140.9463  134.1126  157.4104 H   0  0  0  0  0  0  0  0  0  0  0  0  # atno 11005 bound_to 11000
  144.6756  140.2014  143.7386 LP  0  0  0  0  0  0  0  0  0  0  0  0  # atno 17320 bound_to 7965
  145.8519  139.2179  143.1767 LP  0  0  0  0  0  0  0  0  0  0  0  0  # atno 17321 bound_to 7965
  139.7852  143.8298  152.3144 LP  0  0  0  0  0  0  0  0  0  0  0  0  # atno 17342 bound_to 10162
  139.8262  144.7274  150.9508 LP  0  0  0  0  0  0  0  0  0  0  0  0  # atno 17343 bound_to 10162
  157.7148  131.0715  150.6368 LP  0  0  0  0  0  0  0  0  0  0  0  0  # atno 17370 bound_to 10713
  156.6437  130.4465  149.5743 LP  0  0  0  0  0  0  0  0  0  0  0  0  # atno 17371 bound_to 10713
  139.8834  135.0052  156.6299 LP  0  0  0  0  0  0  0  0  0  0  0  0  # atno 17394 bound_to 11000
  140.7665  133.8774  155.8458 LP  0  0  0  0  0  0  0  0  0  0  0  0  # atno 17395 bound_to 11000

$$$$
