AV-unprocessed.smi:3013|AV-procd|sdf|11464|dock1
  -GOLD-   2272016403D 1   1.00000     0.00000
 Structure written by MMmdl.
 45 46  0  0  0  0  0  0  0  0  2 V2000
  147.9994  133.0934  153.1163 C   0  0  0  0  0  0  0  0  0  0  0  0
  146.7602  133.8678  152.6187 C   0  0  2  0  0  0  0  0  0  0  0  0
  145.8573  134.3536  153.7739 C   0  0  0  0  0  0  0  0  0  0  0  0
  146.6283  135.0299  154.9239 C   0  0  0  0  0  0  0  0  0  0  0  0
  147.6607  135.9322  154.4258 N   0  0  0  0  0  0  0  0  0  0  0  0
  147.9348  137.1407  154.9389 C   0  0  0  0  0  0  0  0  0  0  0  0
  147.3462  137.6116  155.9127 O   0  0  0  0  0  0  0  0  0  0  0  0
  148.9179  137.7527  154.2566 N   0  0  0  0  0  0  0  0  0  0  0  0
  149.4828  139.0324  154.5068 C   0  0  0  0  0  0  0  0  0  0  0  0
  148.8145  140.1777  154.6026 N   0  0  0  0  0  0  0  0  0  0  0  0
  149.8546  141.0289  154.8464 C   0  0  0  0  0  0  0  0  0  0  0  0
  151.0649  140.4726  154.9008 N   0  0  0  0  0  0  0  0  0  0  0  0
  150.8019  139.1638  154.6758 N   0  0  0  0  0  0  0  0  0  0  0  0
  151.8690  138.1821  154.6513 C   0  0  0  0  0  0  0  0  0  0  0  0
  145.9633  133.1056  151.6124 N   0  3  0  0  0  0  0  0  0  0  0  0
  146.6666  132.8140  150.3325 C   0  0  0  0  0  0  0  0  0  0  0  0
  145.8533  131.8322  149.4728 C   0  0  0  0  0  0  0  0  0  0  0  0
  144.4420  132.3741  149.2085 C   0  0  0  0  0  0  0  0  0  0  0  0
  143.7493  132.7049  150.5372 C   0  0  0  0  0  0  0  0  0  0  0  0
  144.6041  133.6654  151.3819 C   0  0  0  0  0  0  0  0  0  0  0  0
  148.6424  133.7289  153.7248 H   0  0  0  0  0  0  0  0  0  0  0  0
  148.6098  132.7329  152.2886 H   0  0  0  0  0  0  0  0  0  0  0  0
  147.7231  132.2342  153.7277 H   0  0  0  0  0  0  0  0  0  0  0  0
  147.1174  134.7663  152.1134 H   0  0  0  0  0  0  0  0  0  0  0  0
  145.1349  135.0656  153.3723 H   0  0  0  0  0  0  0  0  0  0  0  0
  145.2737  133.5240  154.1739 H   0  0  0  0  0  0  0  0  0  0  0  0
  145.9504  135.6161  155.5436 H   0  0  0  0  0  0  0  0  0  0  0  0
  147.0779  134.2807  155.5779 H   0  0  0  0  0  0  0  0  0  0  0  0
  148.1913  135.6209  153.6252 H   0  0  0  0  0  0  0  0  0  0  0  0
  149.3031  137.2531  153.4687 H   0  0  0  0  0  0  0  0  0  0  0  0
  149.7155  142.0903  154.9897 H   0  0  0  0  0  0  0  0  0  0  0  0
  151.8201  137.6088  153.7253 H   0  0  0  0  0  0  0  0  0  0  0  0
  151.7611  137.5037  155.4978 H   0  0  0  0  0  0  0  0  0  0  0  0
  152.8418  138.6718  154.7113 H   0  0  0  0  0  0  0  0  0  0  0  0
  146.8273  133.7378  149.7751 H   0  0  0  0  0  0  0  0  0  0  0  0
  147.6489  132.3846  150.5265 H   0  0  0  0  0  0  0  0  0  0  0  0
  146.3656  131.6518  148.5273 H   0  0  0  0  0  0  0  0  0  0  0  0
  145.7885  130.8680  149.9788 H   0  0  0  0  0  0  0  0  0  0  0  0
  144.5008  133.2706  148.5899 H   0  0  0  0  0  0  0  0  0  0  0  0
  143.8561  131.6451  148.6481 H   0  0  0  0  0  0  0  0  0  0  0  0
  142.7701  133.1453  150.3471 H   0  0  0  0  0  0  0  0  0  0  0  0
  143.5714  131.7851  151.0962 H   0  0  0  0  0  0  0  0  0  0  0  0
  144.1048  133.8379  152.3359 H   0  0  0  0  0  0  0  0  0  0  0  0
  144.6786  134.6322  150.8829 H   0  0  0  0  0  0  0  0  0  0  0  0
  145.8005  132.2065  152.0431 H   0  0  0  0  0  0  0  0  0  0  0  0
  1  2  1  0  0  0  0
  1 21  1  0  0  0  0
  1 22  1  0  0  0  0
  1 23  1  0  0  0  0
  2  3  1  0  0  0  0
  2 15  1  0  0  0  0
  2 24  1  0  0  0  0
  3  4  1  0  0  0  0
  3 25  1  0  0  0  0
  3 26  1  0  0  0  0
  4  5  1  0  0  0  0
  4 27  1  0  0  0  0
  4 28  1  0  0  0  0
  5  6  1  0  0  0  0
  5 29  1  0  0  0  0
  6  7  2  0  0  0  0
  6  8  1  0  0  0  0
  8  9  1  0  0  0  0
  8 30  1  0  0  0  0
  9 13  1  0  0  0  0
  9 10  2  0  0  0  0
 10 11  1  0  0  0  0
 11 12  2  0  0  0  0
 11 31  1  0  0  0  0
 12 13  1  0  0  0  0
 13 14  1  0  0  0  0
 14 32  1  0  0  0  0
 14 33  1  0  0  0  0
 14 34  1  0  0  0  0
 15 20  1  0  0  0  0
 15 16  1  0  0  0  0
 15 45  1  0  0  0  0
 16 17  1  0  0  0  0
 16 35  1  0  0  0  0
 16 36  1  0  0  0  0
 17 18  1  0  0  0  0
 17 37  1  0  0  0  0
 17 38  1  0  0  0  0
 18 19  1  0  0  0  0
 18 39  1  0  0  0  0
 18 40  1  0  0  0  0
 19 20  1  0  0  0  0
 19 41  1  0  0  0  0
 19 42  1  0  0  0  0
 20 43  1  0  0  0  0
 20 44  1  0  0  0  0
M  CHG  1  15   1
M  END
> <s_m_source_file>
AV-unprocessed.smi

> <i_m_source_file_index>
3013

> <i_lp_mmshare_version>
43012

> <i_f3d_flags>
0

> <s_epik_input>
W0NIMl0xW0NIMl1bQ0gyXVtDSDJdW0NIMl1OMVtDQEhdKFtDSDNdKVtDSDJdW0NIMl1bTkhdQyg9TylbTkhdYzJuW2NIXW5uMltDSDNd

> <s_epik_cmdline>
J2VwaWtfcHl0aG9uJywgJy1waCcsICc3LjAnLCAnLXRuJywgJzgnLCAnLW1hJywgJzIwMCcsICctbWV0YWxfYmluZGluZycsICctaW1hZScsICc8aW5maWxlLm1hZT4nLCAnLW9tYWUnLCAnPG91dGZpbGUubWFlPic=

> <r_lp_tautomer_probability>
1

> <r_epik_Ionization_Penalty>
0.000375855

> <r_epik_Ionization_Penalty_Charging>
0.000355659

> <r_epik_Ionization_Penalty_Neutral>
2.01955e-05

> <r_epik_State_Penalty>
0.000216264

> <r_epik_Charging_Adjusted_Penalty>
0.000571923

> <i_epik_Tot_Q>
1

> <i_epik_Tot_abs_Q>
1

> <r_epik_Metal_State_Penalty>
-0

> <b_epik_Metal_Only>
0

> <s_lp_Force_Field>
OPLS_2005

> <r_lp_Energy>
21.7492

> <b_lp_Chiralities_Consistent>
1

> <s_lp_Variant>
AV-unprocessed.smi:3013-1

> <Gold.Version>
5.8.1

> <Gold.Id.Protein>
6NUR|6NUR_protein|mol2

> <Gold.PLP.Fitness>
43.7838

> <Gold.PLP.PLP>
-35.7366

> <Gold.PLP.part.hbond>
-3.0000

> <Gold.PLP.part.metal>
0.0000

> <Gold.PLP.part.buried>
-1.9929

> <Gold.PLP.part.nonpolar>
-29.5780

> <Gold.PLP.part.repulsive>
0.1940

> <Gold.PLP.ligand.clash>
0.0000

> <Gold.PLP.ligand.torsion>
0.9528

> <Gold.PLP.Chemscore.Hbond>
2.7200

> <Gold.PLP.Chemscore.CHOScore>
0.5431

> <Gold.PLP.Chemscore.Metal>
0.0000

> <Gold.Chemscore.Hbonds>
donor molecule, donor type, donor heavy atom, donor atom, acceptor molecule, acceptor atom, score
      L1  H     5    29       P1  7948  0.88
      L1  H     8    30       P1  7948  0.98
      P1  H  7989  7998       L1    12  1.00
      L1  C    11    31       P1  8028  0.25

> <Gold.PLP.Chemscore.Internal.Correction>
0.1637

> <Gold.Rescore>
     Score         DG    S(hbond)    S(metal)    S(lipo)     H(rot)  DE(clash)    DE(int)     intcor
     15.60     -16.52       2.22        0.00      75.02       2.01       0.13       0.79       ----

> <Gold.Chemscore.Fitness>
15.6012

> <Gold.Chemscore.DG>
-16.5213

> <Gold.Chemscore.ZeroCoef>
-5.4800

> <Gold.Chemscore.Hbond>
2.2222

> <Gold.Chemscore.Metal>
0.0000

> <Gold.Chemscore.Lipo>
75.0165

> <Gold.Chemscore.Internal_Hbond>
0.0000

> <Gold.Chemscore.DEClash>
0.1283

> <Gold.Chemscore.DEInternal>
0.7917

> <Gold.Chemscore.Rot>
2.0148

> <Gold.Chemscore.Internal.Correction>
   9.000000E+99

> <Gold.Chemscore.Hbonds>
donor molecule, donor type, donor heavy atom, donor atom, acceptor molecule, acceptor atom, score
      L1  H     5    29       P1  7948  0.83
      L1  H     8    30       P1  7948  0.91
      P1  H  7989  7998       L1    12  0.07

> <Gold.Chemscore.Hbond.Weighted>
-7.4222

> <Gold.Chemscore.Metal.Weighted>
-0.0000

> <Gold.Chemscore.Lipo.Weighted>
-8.7769

> <Gold.Chemscore.Internal_Hbond.Weighted>
0.0000

> <Gold.Chemscore.DEClash.Weighted>
0.1283

> <Gold.Chemscore.DEInternal.Weighted>
0.7917

> <Gold.Chemscore.Rot.Weighted>
5.1579

> <Gold.Chemscore.Internal.Correction.Weighted>
   9.000000E+99

> <Gold.Protein.RotatedTorsions>
[ 6907 6896 6895 6894 ] final   18.01 input  -60.11 | X-H torsion
[ 7974 7965 7964 7962 ] final -104.31 input  175.53 | X-H torsion
[ 8008 7997 7996 7995 ] final  127.65 input   59.86 | X-H torsion
[ 10167 10162 10161 10158 ] final   81.29 input  -65.29 | X-H torsion
[ 10718 10713 10712 10709 ] final -109.07 input   66.30 | X-H torsion
[ 10763 10752 10751 10750 ] final -146.48 input  -60.55 | X-H torsion
[ 11005 11000 10999 10996 ] final -145.99 input  -57.11 | X-H torsion

> <Gold.Protein.ActiveResidues>
 VAL166  LYS551  ARG553  GLY616  TRP617  ASP618  TYR619  PRO620  LYS621  CYS622 
 ASP623  PHE694  ASN695  SER759  ASP760  ASP761  ALA762  ILE779  LEU786  VAL792 
 PHE793  MET794  SER795  GLU796  ALA797  LYS798  CYS799  TRP800  GLU811  SER814 

> <Gold.Protein.RotatedAtoms>
  151.8586  135.0532  160.0466 H   0  0  0  0  0  0  0  0  0  0  0  0  # atno 6907 bound_to 6896
  152.2680  133.5352  159.5430 H   0  0  0  0  0  0  0  0  0  0  0  0  # atno 6908 bound_to 6896
  150.7141  134.0653  159.3888 H   0  0  0  0  0  0  0  0  0  0  0  0  # atno 6909 bound_to 6896
  145.2448  140.9218  143.3129 H   0  0  0  0  0  0  0  0  0  0  0  0  # atno 7974 bound_to 7965
  156.2896  140.2664  156.2308 H   0  0  0  0  0  0  0  0  0  0  0  0  # atno 8008 bound_to 7997
  155.0074  140.0387  157.2403 H   0  0  0  0  0  0  0  0  0  0  0  0  # atno 8009 bound_to 7997
  154.7547  140.2749  155.6268 H   0  0  0  0  0  0  0  0  0  0  0  0  # atno 8010 bound_to 7997
  139.9408  144.6091  150.8254 H   0  0  0  0  0  0  0  0  0  0  0  0  # atno 10167 bound_to 10162
  156.0518  130.5745  150.8048 H   0  0  0  0  0  0  0  0  0  0  0  0  # atno 10718 bound_to 10713
  154.8334  135.3385  154.6668 H   0  0  0  0  0  0  0  0  0  0  0  0  # atno 10763 bound_to 10752
  153.7285  135.6953  153.4999 H   0  0  0  0  0  0  0  0  0  0  0  0  # atno 10764 bound_to 10752
  153.2329  135.4410  155.0567 H   0  0  0  0  0  0  0  0  0  0  0  0  # atno 10765 bound_to 10752
  140.7866  134.3017  157.5028 H   0  0  0  0  0  0  0  0  0  0  0  0  # atno 11005 bound_to 11000
  144.9556  139.4035  143.6381 LP  0  0  0  0  0  0  0  0  0  0  0  0  # atno 17320 bound_to 7965
  146.3318  139.8584  142.8860 LP  0  0  0  0  0  0  0  0  0  0  0  0  # atno 17321 bound_to 7965
  140.7611  143.3167  151.2716 LP  0  0  0  0  0  0  0  0  0  0  0  0  # atno 17342 bound_to 10162
  139.6706  144.0027  152.2750 LP  0  0  0  0  0  0  0  0  0  0  0  0  # atno 17343 bound_to 10162
  157.5451  131.0942  150.9774 LP  0  0  0  0  0  0  0  0  0  0  0  0  # atno 17370 bound_to 10713
  157.0048  130.5613  149.5315 LP  0  0  0  0  0  0  0  0  0  0  0  0  # atno 17371 bound_to 10713
  139.8736  134.9350  156.3621 LP  0  0  0  0  0  0  0  0  0  0  0  0  # atno 17394 bound_to 11000
  140.9431  133.7501  156.0172 LP  0  0  0  0  0  0  0  0  0  0  0  0  # atno 17395 bound_to 11000

$$$$
