AV-unprocessed.smi:1692|AV-procd|sdf|6784|dock9
  -GOLD-   22720 7543D 1   1.00000     0.00000
 Structure written by MMmdl.
 45 46  0  0  0  0  0  0  0  0  1 V2000
  152.1713  137.3677  156.5485 C   0  0  0  0  0  0  0  0  0  0  0  0
  152.3938  138.5279  155.5633 C   0  0  1  0  0  0  0  0  0  0  0  0
  151.3354  138.5899  154.4432 C   0  0  0  0  0  0  0  0  0  0  0  0
  150.0420  139.0836  154.9123 N   0  0  0  0  0  0  0  0  0  0  0  0
  149.0534  139.1764  153.8388 C   0  0  0  0  0  0  0  0  0  0  0  0
  147.5862  139.0983  154.2942 C   0  0  0  0  0  0  0  0  0  0  0  0
  146.6332  138.7963  153.1262 C   0  0  0  0  0  0  0  0  0  0  0  0
  146.8502  137.4599  152.5835 N   0  0  0  0  0  0  0  0  0  0  0  0
  145.8785  136.5896  152.2720 C   0  0  0  0  0  0  0  0  0  0  0  0
  144.6796  136.8338  152.4117 O   0  0  0  0  0  0  0  0  0  0  0  0
  146.3883  135.4394  151.7968 N   0  0  0  0  0  0  0  0  0  0  0  0
  145.6881  134.2861  151.3521 C   0  0  0  0  0  0  0  0  0  0  0  0
  146.5063  133.2242  150.9042 C   0  0  0  0  0  0  0  0  0  0  0  0
  145.9082  132.0365  150.4403 C   0  0  0  0  0  0  0  0  0  0  0  0
  144.5054  131.9405  150.4362 C   0  0  0  0  0  0  0  0  0  0  0  0
  143.7643  133.0431  150.8998 C   0  0  0  0  0  0  0  0  0  0  0  0
  144.3354  134.1825  151.3445 N   0  0  0  0  0  0  0  0  0  0  0  0
  150.2345  140.3777  155.5547 C   0  0  0  0  0  0  0  0  0  0  0  0
  151.2396  140.3008  156.7178 C   0  0  2  0  0  0  0  0  0  0  0  0
  151.5056  141.6745  157.3422 C   0  0  0  0  0  0  0  0  0  0  0  0
  152.4793  139.7847  156.2365 O   0  0  0  0  0  0  0  0  0  0  0  0
  152.2205  136.4079  156.0343 H   0  0  0  0  0  0  0  0  0  0  0  0
  151.1989  137.4250  157.0369 H   0  0  0  0  0  0  0  0  0  0  0  0
  152.9361  137.3657  157.3251 H   0  0  0  0  0  0  0  0  0  0  0  0
  153.3652  138.3643  155.0959 H   0  0  0  0  0  0  0  0  0  0  0  0
  151.7029  139.2403  153.6480 H   0  0  0  0  0  0  0  0  0  0  0  0
  151.2313  137.5978  154.0051 H   0  0  0  0  0  0  0  0  0  0  0  0
  149.1871  140.1295  153.3252 H   0  0  0  0  0  0  0  0  0  0  0  0
  149.2449  138.4047  153.0917 H   0  0  0  0  0  0  0  0  0  0  0  0
  147.4731  138.3262  155.0550 H   0  0  0  0  0  0  0  0  0  0  0  0
  147.2998  140.0414  154.7618 H   0  0  0  0  0  0  0  0  0  0  0  0
  145.5988  138.8575  153.4655 H   0  0  0  0  0  0  0  0  0  0  0  0
  146.7457  139.5424  152.3378 H   0  0  0  0  0  0  0  0  0  0  0  0
  147.8086  137.1779  152.4384 H   0  0  0  0  0  0  0  0  0  0  0  0
  147.3944  135.3829  151.7439 H   0  0  0  0  0  0  0  0  0  0  0  0
  147.5829  133.3144  150.9139 H   0  0  0  0  0  0  0  0  0  0  0  0
  146.5162  131.2138  150.0936 H   0  0  0  0  0  0  0  0  0  0  0  0
  144.0105  131.0461  150.0879 H   0  0  0  0  0  0  0  0  0  0  0  0
  142.6850  133.0101  150.9141 H   0  0  0  0  0  0  0  0  0  0  0  0
  150.5818  141.1060  154.8197 H   0  0  0  0  0  0  0  0  0  0  0  0
  149.2801  140.7475  155.9309 H   0  0  0  0  0  0  0  0  0  0  0  0
  150.8492  139.6421  157.4941 H   0  0  0  0  0  0  0  0  0  0  0  0
  150.5897  142.1051  157.7475 H   0  0  0  0  0  0  0  0  0  0  0  0
  151.9073  142.3716  156.6062 H   0  0  0  0  0  0  0  0  0  0  0  0
  152.2257  141.5987  158.1571 H   0  0  0  0  0  0  0  0  0  0  0  0
  1  2  1  0  0  0  0
  1 22  1  0  0  0  0
  1 23  1  0  0  0  0
  1 24  1  0  0  0  0
  2 21  1  0  0  0  0
  2  3  1  0  0  0  0
  2 25  1  0  0  0  0
  3  4  1  0  0  0  0
  3 26  1  0  0  0  0
  3 27  1  0  0  0  0
  4  5  1  0  0  0  0
  4 18  1  0  0  0  0
  5  6  1  0  0  0  0
  5 28  1  0  0  0  0
  5 29  1  0  0  0  0
  6  7  1  0  0  0  0
  6 30  1  0  0  0  0
  6 31  1  0  0  0  0
  7  8  1  0  0  0  0
  7 32  1  0  0  0  0
  7 33  1  0  0  0  0
  8  9  1  0  0  0  0
  8 34  1  0  0  0  0
  9 10  2  0  0  0  0
  9 11  1  0  0  0  0
 11 12  1  0  0  0  0
 11 35  1  0  0  0  0
 12 17  1  0  0  0  0
 12 13  2  0  0  0  0
 13 14  1  0  0  0  0
 13 36  1  0  0  0  0
 14 15  2  0  0  0  0
 14 37  1  0  0  0  0
 15 16  1  0  0  0  0
 15 38  1  0  0  0  0
 16 17  2  0  0  0  0
 16 39  1  0  0  0  0
 18 19  1  0  0  0  0
 18 40  1  0  0  0  0
 18 41  1  0  0  0  0
 19 20  1  0  0  0  0
 19 21  1  0  0  0  0
 19 42  1  0  0  0  0
 20 43  1  0  0  0  0
 20 44  1  0  0  0  0
 20 45  1  0  0  0  0
M  END
> <s_m_source_file>
AV-unprocessed.smi

> <i_m_source_file_index>
1692

> <i_lp_mmshare_version>
43012

> <i_f3d_flags>
0

> <s_epik_input>
W0NIM11bQ0BASF0xW0NIMl1OKFtDSDJdW0NASF0oTzEpW0NIM10pW0NIMl1bQ0gyXVtDSDJdW05IXUMoPU8pW05IXWMyW2NIXVtjSF1bY0hdW2NIXW4y

> <s_epik_cmdline>
J2VwaWtfcHl0aG9uJywgJy1waCcsICc3LjAnLCAnLXRuJywgJzgnLCAnLW1hJywgJzIwMCcsICctbWV0YWxfYmluZGluZycsICctaW1hZScsICc8aW5maWxlLm1hZT4nLCAnLW9tYWUnLCAnPG91dGZpbGUubWFlPic=

> <r_epik_Ionization_Penalty>
0.594711

> <r_epik_Ionization_Penalty_Charging>
0

> <r_epik_Ionization_Penalty_Neutral>
0.594711

> <r_epik_State_Penalty>
0.608529

> <r_epik_Charging_Adjusted_Penalty>
0.608529

> <i_epik_Tot_Q>
0

> <i_epik_Tot_abs_Q>
0

> <r_epik_Metal_State_Penalty>
0.608528

> <b_epik_Metal_Only>
0

> <s_lp_Force_Field>
OPLS_2005

> <r_lp_Energy>
25.6838

> <b_lp_Chiralities_Consistent>
1

> <s_lp_Variant>
AV-unprocessed.smi:1692-7

> <Gold.Version>
5.8.1

> <Gold.Id.Protein>
6NUR|6NUR_protein|mol2

> <Gold.PLP.Fitness>
46.5518

> <Gold.PLP.PLP>
-35.3717

> <Gold.PLP.part.hbond>
-3.0000

> <Gold.PLP.part.metal>
0.0000

> <Gold.PLP.part.buried>
-4.5318

> <Gold.PLP.part.nonpolar>
-28.7608

> <Gold.PLP.part.repulsive>
0.5726

> <Gold.PLP.ligand.clash>
0.0000

> <Gold.PLP.ligand.torsion>
0.4234

> <Gold.PLP.Chemscore.Hbond>
3.0000

> <Gold.PLP.Chemscore.CHOScore>
1.0000

> <Gold.PLP.Chemscore.Metal>
0.0000

> <Gold.Chemscore.Hbonds>
donor molecule, donor type, donor heavy atom, donor atom, acceptor molecule, acceptor atom, score
      L1  H     8    34       P1  7948  1.00
      L1  H    11    35       P1  7948  0.98
      P1  H  7997  8008       L1    21  1.00
      L1  C    16    39       P1 10186  0.87

> <Gold.PLP.Chemscore.Internal.Correction>
0.0268

> <Gold.Rescore>
     Score         DG    S(hbond)    S(metal)    S(lipo)     H(rot)  DE(clash)    DE(int)     intcor
     19.01     -21.16       2.89        0.00      89.21       1.73       0.45       1.70       ----

> <Gold.Chemscore.Fitness>
19.0141

> <Gold.Chemscore.DG>
-21.1570

> <Gold.Chemscore.ZeroCoef>
-5.4800

> <Gold.Chemscore.Hbond>
2.8920

> <Gold.Chemscore.Metal>
0.0000

> <Gold.Chemscore.Lipo>
89.2123

> <Gold.Chemscore.Internal_Hbond>
0.0000

> <Gold.Chemscore.DEClash>
0.4476

> <Gold.Chemscore.DEInternal>
1.6953

> <Gold.Chemscore.Rot>
1.7266

> <Gold.Chemscore.Internal.Correction>
   9.000000E+99

> <Gold.Chemscore.Hbonds>
donor molecule, donor type, donor heavy atom, donor atom, acceptor molecule, acceptor atom, score
      L1  H     8    34       P1  7948  0.95
      L1  H    11    35       P1  7948  0.91
      P1  H  7997  8008       L1    21  0.45

> <Gold.Chemscore.Hbond.Weighted>
-9.6592

> <Gold.Chemscore.Metal.Weighted>
-0.0000

> <Gold.Chemscore.Lipo.Weighted>
-10.4378

> <Gold.Chemscore.Internal_Hbond.Weighted>
0.0000

> <Gold.Chemscore.DEClash.Weighted>
0.4476

> <Gold.Chemscore.DEInternal.Weighted>
1.6953

> <Gold.Chemscore.Rot.Weighted>
4.4200

> <Gold.Chemscore.Internal.Correction.Weighted>
   9.000000E+99

> <Gold.Protein.RotatedTorsions>
[ 6907 6896 6895 6894 ] final -136.56 input  -60.11 | X-H torsion
[ 7974 7965 7964 7962 ] final   93.75 input  175.53 | X-H torsion
[ 8008 7997 7996 7995 ] final  -41.91 input   59.86 | X-H torsion
[ 10167 10162 10161 10158 ] final  -58.50 input  -65.29 | X-H torsion
[ 10718 10713 10712 10709 ] final  -49.44 input   66.30 | X-H torsion
[ 10763 10752 10751 10750 ] final  156.47 input  -60.55 | X-H torsion
[ 11005 11000 10999 10996 ] final  -33.15 input  -57.11 | X-H torsion

> <Gold.Protein.ActiveResidues>
 VAL166  LYS551  ARG553  GLY616  TRP617  ASP618  TYR619  PRO620  LYS621  CYS622 
 ASP623  PHE694  ASN695  SER759  ASP760  ASP761  ALA762  ILE779  LEU786  VAL792 
 PHE793  MET794  SER795  GLU796  ALA797  LYS798  CYS799  TRP800  GLU811  SER814 

> <Gold.Protein.RotatedAtoms>
  151.0115  133.5960  159.2681 H   0  0  0  0  0  0  0  0  0  0  0  0  # atno 6907 bound_to 6896
  151.3110  135.0793  159.9282 H   0  0  0  0  0  0  0  0  0  0  0  0  # atno 6908 bound_to 6896
  152.5301  133.9780  159.7847 H   0  0  0  0  0  0  0  0  0  0  0  0  # atno 6909 bound_to 6896
  145.4747  139.2280  143.2916 H   0  0  0  0  0  0  0  0  0  0  0  0  # atno 7974 bound_to 7965
  154.4001  140.1487  156.3268 H   0  0  0  0  0  0  0  0  0  0  0  0  # atno 8008 bound_to 7997
  155.8479  140.3459  155.5653 H   0  0  0  0  0  0  0  0  0  0  0  0  # atno 8009 bound_to 7997
  155.8016  140.0871  157.1944 H   0  0  0  0  0  0  0  0  0  0  0  0  # atno 8010 bound_to 7997
  140.6193  143.2414  151.5519 H   0  0  0  0  0  0  0  0  0  0  0  0  # atno 10167 bound_to 10162
  156.1893  130.4152  149.9394 H   0  0  0  0  0  0  0  0  0  0  0  0  # atno 10718 bound_to 10713
  154.1848  135.2797  155.3040 H   0  0  0  0  0  0  0  0  0  0  0  0  # atno 10763 bound_to 10752
  154.5974  135.5540  153.7343 H   0  0  0  0  0  0  0  0  0  0  0  0  # atno 10764 bound_to 10752
  153.0128  135.6383  154.1987 H   0  0  0  0  0  0  0  0  0  0  0  0  # atno 10765 bound_to 10752
  140.9611  133.7164  156.1371 H   0  0  0  0  0  0  0  0  0  0  0  0  # atno 11005 bound_to 11000
  146.2376  140.5528  142.8948 LP  0  0  0  0  0  0  0  0  0  0  0  0  # atno 17320 bound_to 7965
  144.7924  140.6058  143.6532 LP  0  0  0  0  0  0  0  0  0  0  0  0  # atno 17321 bound_to 7965
  139.5425  144.2608  152.1379 LP  0  0  0  0  0  0  0  0  0  0  0  0  # atno 17342 bound_to 10162
  140.1825  144.4831  150.6521 LP  0  0  0  0  0  0  0  0  0  0  0  0  # atno 17343 bound_to 10162
  156.7139  130.8981  151.3612 LP  0  0  0  0  0  0  0  0  0  0  0  0  # atno 17370 bound_to 10713
  157.6919  130.9242  150.0537 LP  0  0  0  0  0  0  0  0  0  0  0  0  # atno 17371 bound_to 10713
  140.7465  134.4092  157.5547 LP  0  0  0  0  0  0  0  0  0  0  0  0  # atno 17394 bound_to 11000
  139.8878  134.8872  156.2506 LP  0  0  0  0  0  0  0  0  0  0  0  0  # atno 17395 bound_to 11000

$$$$
