AV-unprocessed.smi:249|AV-procd|sdf|1913|dock6
  -GOLD-   2262021 03D 1   1.00000     0.00000
 Structure written by MMmdl.
 64 67  0  0  0  0  0  0  0  0  2 V2000
  144.0393  132.4207  149.8490 C   0  0  0  0  0  0  0  0  0  0  0  0
  145.5289  132.7373  150.0501 C   0  0  0  0  0  0  0  0  0  0  0  0
  145.8547  133.1903  151.4295 N   0  3  1  0  0  0  0  0  0  0  0  0
  147.3193  133.3521  151.6345 C   0  0  0  0  0  0  0  0  0  0  0  0
  147.6576  133.5835  153.1156 C   0  0  0  0  0  0  0  0  0  0  0  0
  146.8863  134.7964  153.6712 C   0  0  2  0  0  0  0  0  0  0  0  0
  147.2142  135.1228  155.0649 N   0  0  0  0  0  0  0  0  0  0  0  0
  146.1393  135.1410  156.0481 C   0  0  0  0  0  0  0  0  0  0  0  0
  148.2326  135.9625  155.3724 C   0  0  0  0  0  0  0  0  0  0  0  0
  149.4871  135.7167  154.9136 N   0  0  0  0  0  0  0  0  0  0  0  0
  150.4861  136.5537  155.2094 C   0  0  0  0  0  0  0  0  0  0  0  0
  150.4507  137.6701  155.9392 N   0  0  0  0  0  0  0  0  0  0  0  0
  149.1925  137.9200  156.4023 C   0  0  0  0  0  0  0  0  0  0  0  0
  148.0347  137.1297  156.1583 C   0  0  0  0  0  0  0  0  0  0  0  0
  146.9303  137.6967  156.7812 N   0  0  0  0  0  0  0  0  0  0  0  0
  147.4081  138.7623  157.3641 C   0  0  0  0  0  0  0  0  0  0  0  0
  148.7626  138.9594  157.2095 N   0  0  0  0  0  0  0  0  0  0  0  0
  149.5431  140.0567  157.7538 C   0  0  0  0  0  0  0  0  0  0  0  0
  150.7873  140.4546  156.9151 C   0  0  1  0  0  0  0  0  0  0  0  0
  150.3200  141.1588  155.6199 C   0  0  0  0  0  0  0  0  0  0  0  0
  150.2904  140.2683  154.5225 O   0  0  0  0  0  0  0  0  0  0  0  0
  151.8608  141.2795  157.6860 C   0  0  1  0  0  0  0  0  0  0  0  0
  151.4039  142.6215  158.2403 C   0  0  0  0  0  0  0  0  0  0  0  0
  152.4426  142.9217  159.3161 C   0  0  0  0  0  0  0  0  0  0  0  0
  152.9086  141.6598  159.7761 O   0  0  0  0  0  0  0  0  0  0  0  0
  152.3474  140.6214  158.9831 C   0  0  0  0  0  0  0  0  0  0  0  0
  145.3737  134.6179  153.4178 C   0  0  0  0  0  0  0  0  0  0  0  0
  145.0617  134.3569  151.9299 C   0  0  1  0  0  0  0  0  0  0  0  0
  145.2140  135.6289  151.0677 C   0  0  0  0  0  0  0  0  0  0  0  0
  143.8745  131.9652  148.8723 H   0  0  0  0  0  0  0  0  0  0  0  0
  143.4215  133.3175  149.8899 H   0  0  0  0  0  0  0  0  0  0  0  0
  143.6773  131.7221  150.6039 H   0  0  0  0  0  0  0  0  0  0  0  0
  146.0889  131.8234  149.8484 H   0  0  0  0  0  0  0  0  0  0  0  0
  145.8698  133.4652  149.3137 H   0  0  0  0  0  0  0  0  0  0  0  0
  147.8376  132.4545  151.2949 H   0  0  0  0  0  0  0  0  0  0  0  0
  147.6957  134.1740  151.0245 H   0  0  0  0  0  0  0  0  0  0  0  0
  147.4189  132.6795  153.6745 H   0  0  0  0  0  0  0  0  0  0  0  0
  148.7320  133.7362  153.2219 H   0  0  0  0  0  0  0  0  0  0  0  0
  147.2034  135.6680  153.0981 H   0  0  0  0  0  0  0  0  0  0  0  0
  146.4871  134.7670  157.0113 H   0  0  0  0  0  0  0  0  0  0  0  0
  145.3077  134.5123  155.7288 H   0  0  0  0  0  0  0  0  0  0  0  0
  145.7619  136.1547  156.1886 H   0  0  0  0  0  0  0  0  0  0  0  0
  151.4524  136.2906  154.8050 H   0  0  0  0  0  0  0  0  0  0  0  0
  146.7838  139.4293  157.9409 H   0  0  0  0  0  0  0  0  0  0  0  0
  148.8717  140.9107  157.8494 H   0  0  0  0  0  0  0  0  0  0  0  0
  149.8464  139.7922  158.7676 H   0  0  0  0  0  0  0  0  0  0  0  0
  151.2688  139.5333  156.5867 H   0  0  0  0  0  0  0  0  0  0  0  0
  149.3299  141.5972  155.7439 H   0  0  0  0  0  0  0  0  0  0  0  0
  150.9870  141.9866  155.3769 H   0  0  0  0  0  0  0  0  0  0  0  0
  149.6945  139.5627  154.7240 H   0  0  0  0  0  0  0  0  0  0  0  0
  152.7244  141.4467  157.0401 H   0  0  0  0  0  0  0  0  0  0  0  0
  151.3692  143.4150  157.4958 H   0  0  0  0  0  0  0  0  0  0  0  0
  150.4146  142.5322  158.6920 H   0  0  0  0  0  0  0  0  0  0  0  0
  153.2859  143.4668  158.8907 H   0  0  0  0  0  0  0  0  0  0  0  0
  152.0321  143.5163  160.1323 H   0  0  0  0  0  0  0  0  0  0  0  0
  151.5104  140.1885  159.5330 H   0  0  0  0  0  0  0  0  0  0  0  0
  153.0790  139.8329  158.8056 H   0  0  0  0  0  0  0  0  0  0  0  0
  144.9887  133.7779  153.9960 H   0  0  0  0  0  0  0  0  0  0  0  0
  144.8298  135.4972  153.7655 H   0  0  0  0  0  0  0  0  0  0  0  0
  144.0087  134.0793  151.8966 H   0  0  0  0  0  0  0  0  0  0  0  0
  144.6291  136.4480  151.4872 H   0  0  0  0  0  0  0  0  0  0  0  0
  144.8513  135.4752  150.0517 H   0  0  0  0  0  0  0  0  0  0  0  0
  146.2466  135.9698  151.0048 H   0  0  0  0  0  0  0  0  0  0  0  0
  145.5934  132.4187  152.0269 H   0  0  0  0  0  0  0  0  0  0  0  0
  1  2  1  0  0  0  0
  1 30  1  0  0  0  0
  1 31  1  0  0  0  0
  1 32  1  0  0  0  0
  2  3  1  0  0  0  0
  2 33  1  0  0  0  0
  2 34  1  0  0  0  0
  3 28  1  0  0  0  0
  3  4  1  0  0  0  0
  3 64  1  0  0  0  0
  4  5  1  0  0  0  0
  4 35  1  0  0  0  0
  4 36  1  0  0  0  0
  5  6  1  0  0  0  0
  5 37  1  0  0  0  0
  5 38  1  0  0  0  0
  6  7  1  0  0  0  0
  6 27  1  0  0  0  0
  6 39  1  0  0  0  0
  7  8  1  0  0  0  0
  7  9  1  0  0  0  0
  8 40  1  0  0  0  0
  8 41  1  0  0  0  0
  8 42  1  0  0  0  0
  9 14  1  0  0  0  0
  9 10  2  0  0  0  0
 10 11  1  0  0  0  0
 11 12  2  0  0  0  0
 11 43  1  0  0  0  0
 12 13  1  0  0  0  0
 13 17  1  0  0  0  0
 13 14  2  0  0  0  0
 14 15  1  0  0  0  0
 15 16  2  0  0  0  0
 16 17  1  0  0  0  0
 16 44  1  0  0  0  0
 17 18  1  0  0  0  0
 18 19  1  0  0  0  0
 18 45  1  0  0  0  0
 18 46  1  0  0  0  0
 19 20  1  0  0  0  0
 19 22  1  0  0  0  0
 19 47  1  0  0  0  0
 20 21  1  0  0  0  0
 20 48  1  0  0  0  0
 20 49  1  0  0  0  0
 21 50  1  0  0  0  0
 22 26  1  0  0  0  0
 22 23  1  0  0  0  0
 22 51  1  0  0  0  0
 23 24  1  0  0  0  0
 23 52  1  0  0  0  0
 23 53  1  0  0  0  0
 24 25  1  0  0  0  0
 24 54  1  0  0  0  0
 24 55  1  0  0  0  0
 25 26  1  0  0  0  0
 26 56  1  0  0  0  0
 26 57  1  0  0  0  0
 27 28  1  0  0  0  0
 27 58  1  0  0  0  0
 27 59  1  0  0  0  0
 28 29  1  0  0  0  0
 28 60  1  0  0  0  0
 29 61  1  0  0  0  0
 29 62  1  0  0  0  0
 29 63  1  0  0  0  0
M  CHG  1   3   1
M  END
> <s_m_source_file>
AV-unprocessed.smi

> <i_m_source_file_index>
249

> <i_lp_mmshare_version>
43012

> <i_f3d_flags>
0

> <s_epik_input>
W0NIM11bQ0gyXU4xW0NIMl1bQ0gyXVtDQEhdKFtDSDJdW0NASF0xW0NIM10pTihbQ0gzXSljKG5bY0hdbjIpYyhjMjMpbltjSF1uM1tDSDJdW0NASF0oW0NIMl1bT0hdKVtDQEBIXTRbQ0gyXVtDSDJdT1tDSDJdNA==

> <s_epik_cmdline>
J2VwaWtfcHl0aG9uJywgJy1waCcsICc3LjAnLCAnLXRuJywgJzgnLCAnLW1hJywgJzIwMCcsICctbWV0YWxfYmluZGluZycsICctaW1hZScsICc8aW5maWxlLm1hZT4nLCAnLW9tYWUnLCAnPG91dGZpbGUubWFlPic=

> <r_lp_tautomer_probability>
1

> <r_epik_Ionization_Penalty>
0.00294688

> <r_epik_Ionization_Penalty_Charging>
0.00169971

> <r_epik_Ionization_Penalty_Neutral>
0.00124717

> <r_epik_State_Penalty>
-0

> <r_epik_Charging_Adjusted_Penalty>
0.00169971

> <i_epik_Tot_Q>
1

> <i_epik_Tot_abs_Q>
1

> <r_epik_Metal_State_Penalty>
-0

> <b_epik_Metal_Only>
0

> <s_lp_Force_Field>
OPLS_2005

> <r_lp_Energy>
54.9966

> <b_lp_Chiralities_Consistent>
1

> <s_lp_Variant>
AV-unprocessed.smi:249-16

> <Gold.Version>
5.8.1

> <Gold.Id.Protein>
6NUR|6NUR_protein|mol2

> <Gold.PLP.Fitness>
37.8409

> <Gold.PLP.PLP>
-37.9251

> <Gold.PLP.part.hbond>
-1.0000

> <Gold.PLP.part.metal>
0.0000

> <Gold.PLP.part.buried>
-5.4870

> <Gold.PLP.part.nonpolar>
-29.7465

> <Gold.PLP.part.repulsive>
0.1970

> <Gold.PLP.ligand.clash>
0.0182

> <Gold.PLP.ligand.torsion>
2.1470

> <Gold.PLP.Chemscore.Hbond>
1.0000

> <Gold.PLP.Chemscore.CHOScore>
0.0000

> <Gold.PLP.Chemscore.Metal>
0.0000

> <Gold.Chemscore.Hbonds>
donor molecule, donor type, donor heavy atom, donor atom, acceptor molecule, acceptor atom, score
      P1  H  7989  7998       L1    21  1.00

> <Gold.PLP.Chemscore.Internal.Correction>
1.2280

> <Gold.Rescore>
     Score         DG    S(hbond)    S(metal)    S(lipo)     H(rot)  DE(clash)    DE(int)     intcor
      9.75     -13.27       0.96        0.00      97.11       2.65       0.04       3.47       ----

> <Gold.Chemscore.Fitness>
9.7535

> <Gold.Chemscore.DG>
-13.2662

> <Gold.Chemscore.ZeroCoef>
-5.4800

> <Gold.Chemscore.Hbond>
0.9617

> <Gold.Chemscore.Metal>
0.0000

> <Gold.Chemscore.Lipo>
97.1118

> <Gold.Chemscore.Internal_Hbond>
0.0000

> <Gold.Chemscore.DEClash>
0.0383

> <Gold.Chemscore.DEInternal>
3.4744

> <Gold.Chemscore.Rot>
2.6515

> <Gold.Chemscore.Internal.Correction>
   9.000000E+99

> <Gold.Chemscore.Hbonds>
donor molecule, donor type, donor heavy atom, donor atom, acceptor molecule, acceptor atom, score
      P1  H  7989  7998       L1    21  0.38

> <Gold.Chemscore.Hbond.Weighted>
-3.2121

> <Gold.Chemscore.Metal.Weighted>
-0.0000

> <Gold.Chemscore.Lipo.Weighted>
-11.3621

> <Gold.Chemscore.Internal_Hbond.Weighted>
0.0000

> <Gold.Chemscore.DEClash.Weighted>
0.0383

> <Gold.Chemscore.DEInternal.Weighted>
3.4744

> <Gold.Chemscore.Rot.Weighted>
6.7880

> <Gold.Chemscore.Internal.Correction.Weighted>
   9.000000E+99

> <Gold.Protein.RotatedTorsions>
[ 6907 6896 6895 6894 ] final -105.07 input  -60.11 | X-H torsion
[ 7974 7965 7964 7962 ] final -113.40 input  175.53 | X-H torsion
[ 8008 7997 7996 7995 ] final -164.79 input   59.86 | X-H torsion
[ 10167 10162 10161 10158 ] final -133.74 input  -65.29 | X-H torsion
[ 10718 10713 10712 10709 ] final   52.86 input   66.30 | X-H torsion
[ 10763 10752 10751 10750 ] final    2.22 input  -60.55 | X-H torsion
[ 11005 11000 10999 10996 ] final  125.97 input  -57.11 | X-H torsion

> <Gold.Protein.ActiveResidues>
 VAL166  LYS551  ARG553  GLY616  TRP617  ASP618  TYR619  PRO620  LYS621  CYS622 
 ASP623  PHE694  ASN695  SER759  ASP760  ASP761  ALA762  ILE779  LEU786  VAL792 
 PHE793  MET794  SER795  GLU796  ALA797  LYS798  CYS799  TRP800  GLU811  SER814 

> <Gold.Protein.RotatedAtoms>
  150.7318  134.0182  159.3692 H   0  0  0  0  0  0  0  0  0  0  0  0  # atno 6907 bound_to 6896
  151.8145  135.0668  160.0426 H   0  0  0  0  0  0  0  0  0  0  0  0  # atno 6908 bound_to 6896
  152.3048  133.5656  159.5678 H   0  0  0  0  0  0  0  0  0  0  0  0  # atno 6909 bound_to 6896
  145.1325  140.8732  143.3749 H   0  0  0  0  0  0  0  0  0  0  0  0  # atno 7974 bound_to 7965
  155.8407  140.0948  157.1736 H   0  0  0  0  0  0  0  0  0  0  0  0  # atno 8008 bound_to 7997
  154.3982  140.1401  156.3786 H   0  0  0  0  0  0  0  0  0  0  0  0  # atno 8009 bound_to 7997
  155.8068  140.3451  155.5437 H   0  0  0  0  0  0  0  0  0  0  0  0  # atno 8010 bound_to 7997
  139.8952  143.6674  152.2605 H   0  0  0  0  0  0  0  0  0  0  0  0  # atno 10167 bound_to 10162
  157.5114  130.8503  149.8440 H   0  0  0  0  0  0  0  0  0  0  0  0  # atno 10718 bound_to 10713
  153.2983  135.6954  153.7227 H   0  0  0  0  0  0  0  0  0  0  0  0  # atno 10763 bound_to 10752
  153.6151  135.3437  155.2993 H   0  0  0  0  0  0  0  0  0  0  0  0  # atno 10764 bound_to 10752
  154.8543  135.4373  154.2086 H   0  0  0  0  0  0  0  0  0  0  0  0  # atno 10765 bound_to 10752
  139.9433  134.9633  156.8637 H   0  0  0  0  0  0  0  0  0  0  0  0  # atno 11005 bound_to 11000
  145.0620  139.3098  143.5875 LP  0  0  0  0  0  0  0  0  0  0  0  0  # atno 17320 bound_to 7965
  146.3512  140.0065  142.8671 LP  0  0  0  0  0  0  0  0  0  0  0  0  # atno 17321 bound_to 7965
  139.7074  144.7626  151.1170 LP  0  0  0  0  0  0  0  0  0  0  0  0  # atno 17342 bound_to 10162
  140.7718  143.5376  150.9350 LP  0  0  0  0  0  0  0  0  0  0  0  0  # atno 17343 bound_to 10162
  156.0291  130.3770  150.1737 LP  0  0  0  0  0  0  0  0  0  0  0  0  # atno 17370 bound_to 10713
  156.9926  130.9898  151.3411 LP  0  0  0  0  0  0  0  0  0  0  0  0  # atno 17371 bound_to 10713
  140.5898  134.0273  155.7495 LP  0  0  0  0  0  0  0  0  0  0  0  0  # atno 17394 bound_to 11000
  141.1075  133.9670  157.2971 LP  0  0  0  0  0  0  0  0  0  0  0  0  # atno 17395 bound_to 11000

$$$$
