AV-unprocessed.smi:282|AV-procd|sdf|2122|dock5
  -GOLD-   2262021423D 1   1.00000     0.00000
 Structure written by MMmdl.
 65 69  0  0  0  0  0  0  0  0  2 V2000
  146.2535  132.1445  156.1101 C   0  0  0  0  0  0  0  0  0  0  0  0
  147.2828  131.2623  155.3895 C   0  0  0  0  0  0  0  0  0  0  0  0
  147.5057  131.6346  153.8988 C   0  0  1  0  0  0  0  0  0  0  0  0
  146.3864  131.0270  153.0203 C   0  0  0  0  0  0  0  0  0  0  0  0
  146.4891  131.4441  151.5984 N   0  3  1  0  0  0  0  0  0  0  0  0
  145.4628  130.8208  150.7215 C   0  0  0  0  0  0  0  0  0  0  0  0
  144.0731  131.4626  150.9044 C   0  0  0  0  0  0  0  0  0  0  0  0
  144.1358  132.9842  150.7113 C   0  0  0  0  0  0  0  0  0  0  0  0
  145.2025  133.5984  151.6292 C   0  0  0  0  0  0  0  0  0  0  0  0
  146.5722  132.9187  151.4133 C   0  0  1  0  0  0  0  0  0  0  0  0
  147.6798  133.5164  152.2950 C   0  0  0  0  0  0  0  0  0  0  0  0
  147.5681  133.0888  153.6869 N   0  0  0  0  0  0  0  0  0  0  0  0
  148.4367  133.7980  154.4460 C   0  0  0  0  0  0  0  0  0  0  0  0
  149.5749  133.2167  154.9091 N   0  0  0  0  0  0  0  0  0  0  0  0
  150.4363  133.9298  155.6413 C   0  0  0  0  0  0  0  0  0  0  0  0
  150.3567  135.2097  156.0118 N   0  0  0  0  0  0  0  0  0  0  0  0
  149.2198  135.7966  155.5396 C   0  0  0  0  0  0  0  0  0  0  0  0
  148.2199  135.1680  154.7470 C   0  0  0  0  0  0  0  0  0  0  0  0
  147.2166  136.0746  154.4331 N   0  0  0  0  0  0  0  0  0  0  0  0
  147.6026  137.1806  155.0088 C   0  0  0  0  0  0  0  0  0  0  0  0
  148.7839  137.0994  155.7143 N   0  0  0  0  0  0  0  0  0  0  0  0
  149.4378  138.1772  156.4452 C   0  0  0  0  0  0  0  0  0  0  0  0
  150.0872  139.2877  155.5585 C   0  0  0  0  0  0  0  0  0  0  0  0
  149.0085  139.8480  154.5888 C   0  0  0  0  0  0  0  0  0  0  0  0
  149.4903  140.8696  153.7381 O   0  0  0  0  0  0  0  0  0  0  0  0
  150.6711  140.4410  156.4151 C   0  0  0  0  0  0  0  0  0  0  0  0
  151.9196  140.0141  157.2092 C   0  0  0  0  0  0  0  0  0  0  0  0
  152.9076  139.5031  156.3234 O   0  0  0  0  0  0  0  0  0  0  0  0
  152.4789  138.3370  155.6315 C   0  0  0  0  0  0  0  0  0  0  0  0
  151.2579  138.6665  154.7522 C   0  0  0  0  0  0  0  0  0  0  0  0
  146.0585  131.7644  157.1131 H   0  0  0  0  0  0  0  0  0  0  0  0
  145.3044  132.1609  155.5736 H   0  0  0  0  0  0  0  0  0  0  0  0
  146.6009  133.1717  156.2175 H   0  0  0  0  0  0  0  0  0  0  0  0
  148.2316  131.2978  155.9263 H   0  0  0  0  0  0  0  0  0  0  0  0
  146.9310  130.2353  155.4802 H   0  0  0  0  0  0  0  0  0  0  0  0
  148.4583  131.2139  153.5726 H   0  0  0  0  0  0  0  0  0  0  0  0
  146.4316  129.9387  153.0563 H   0  0  0  0  0  0  0  0  0  0  0  0
  145.4137  131.3130  153.4211 H   0  0  0  0  0  0  0  0  0  0  0  0
  145.7817  130.9384  149.6849 H   0  0  0  0  0  0  0  0  0  0  0  0
  145.4150  129.7467  150.9060 H   0  0  0  0  0  0  0  0  0  0  0  0
  143.3704  131.0294  150.1922 H   0  0  0  0  0  0  0  0  0  0  0  0
  143.6789  131.2334  151.8949 H   0  0  0  0  0  0  0  0  0  0  0  0
  144.3728  133.2118  149.6712 H   0  0  0  0  0  0  0  0  0  0  0  0
  143.1617  133.4310  150.9136 H   0  0  0  0  0  0  0  0  0  0  0  0
  145.2830  134.6674  151.4292 H   0  0  0  0  0  0  0  0  0  0  0  0
  144.8904  133.5078  152.6702 H   0  0  0  0  0  0  0  0  0  0  0  0
  146.8600  133.0951  150.3758 H   0  0  0  0  0  0  0  0  0  0  0  0
  148.6528  133.2013  151.9143 H   0  0  0  0  0  0  0  0  0  0  0  0
  147.6570  134.6054  152.2248 H   0  0  0  0  0  0  0  0  0  0  0  0
  151.3158  133.4003  155.9774 H   0  0  0  0  0  0  0  0  0  0  0  0
  147.0262  138.0922  154.9427 H   0  0  0  0  0  0  0  0  0  0  0  0
  148.7064  138.5944  157.1355 H   0  0  0  0  0  0  0  0  0  0  0  0
  150.2024  137.7238  157.0777 H   0  0  0  0  0  0  0  0  0  0  0  0
  148.6097  139.0493  153.9625 H   0  0  0  0  0  0  0  0  0  0  0  0
  148.1684  140.2672  155.1420 H   0  0  0  0  0  0  0  0  0  0  0  0
  149.1484  140.7227  152.8693 H   0  0  0  0  0  0  0  0  0  0  0  0
  150.9662  141.2685  155.7694 H   0  0  0  0  0  0  0  0  0  0  0  0
  149.9173  140.8510  157.0866 H   0  0  0  0  0  0  0  0  0  0  0  0
  152.3351  140.8747  157.7335 H   0  0  0  0  0  0  0  0  0  0  0  0
  151.6825  139.2720  157.9710 H   0  0  0  0  0  0  0  0  0  0  0  0
  153.2992  137.9864  155.0051 H   0  0  0  0  0  0  0  0  0  0  0  0
  152.2661  137.5344  156.3379 H   0  0  0  0  0  0  0  0  0  0  0  0
  150.9256  137.7715  154.2250 H   0  0  0  0  0  0  0  0  0  0  0  0
  151.5956  139.3584  153.9805 H   0  0  0  0  0  0  0  0  0  0  0  0
  147.3775  131.0796  151.2853 H   0  0  0  0  0  0  0  0  0  0  0  0
  1  2  1  0  0  0  0
  1 31  1  0  0  0  0
  1 32  1  0  0  0  0
  1 33  1  0  0  0  0
  2  3  1  0  0  0  0
  2 34  1  0  0  0  0
  2 35  1  0  0  0  0
  3 12  1  0  0  0  0
  3  4  1  0  0  0  0
  3 36  1  0  0  0  0
  4  5  1  0  0  0  0
  4 37  1  0  0  0  0
  4 38  1  0  0  0  0
  5 10  1  0  0  0  0
  5  6  1  0  0  0  0
  5 65  1  0  0  0  0
  6  7  1  0  0  0  0
  6 39  1  0  0  0  0
  6 40  1  0  0  0  0
  7  8  1  0  0  0  0
  7 41  1  0  0  0  0
  7 42  1  0  0  0  0
  8  9  1  0  0  0  0
  8 43  1  0  0  0  0
  8 44  1  0  0  0  0
  9 10  1  0  0  0  0
  9 45  1  0  0  0  0
  9 46  1  0  0  0  0
 10 11  1  0  0  0  0
 10 47  1  0  0  0  0
 11 12  1  0  0  0  0
 11 48  1  0  0  0  0
 11 49  1  0  0  0  0
 12 13  1  0  0  0  0
 13 18  1  0  0  0  0
 13 14  2  0  0  0  0
 14 15  1  0  0  0  0
 15 16  2  0  0  0  0
 15 50  1  0  0  0  0
 16 17  1  0  0  0  0
 17 21  1  0  0  0  0
 17 18  2  0  0  0  0
 18 19  1  0  0  0  0
 19 20  2  0  0  0  0
 20 21  1  0  0  0  0
 20 51  1  0  0  0  0
 21 22  1  0  0  0  0
 22 23  1  0  0  0  0
 22 52  1  0  0  0  0
 22 53  1  0  0  0  0
 23 30  1  0  0  0  0
 23 24  1  0  0  0  0
 23 26  1  0  0  0  0
 24 25  1  0  0  0  0
 24 54  1  0  0  0  0
 24 55  1  0  0  0  0
 25 56  1  0  0  0  0
 26 27  1  0  0  0  0
 26 57  1  0  0  0  0
 26 58  1  0  0  0  0
 27 28  1  0  0  0  0
 27 59  1  0  0  0  0
 27 60  1  0  0  0  0
 28 29  1  0  0  0  0
 29 30  1  0  0  0  0
 29 61  1  0  0  0  0
 29 62  1  0  0  0  0
 30 63  1  0  0  0  0
 30 64  1  0  0  0  0
M  CHG  1   5   1
M  END
> <s_m_source_file>
AV-unprocessed.smi

> <i_m_source_file_index>
282

> <i_lp_mmshare_version>
43012

> <i_f3d_flags>
0

> <s_epik_input>
W0NIMl0xW0NIMl1bQ0gyXVtDSDJdW0NAQEhdKE4xMilbQ0gyXU4oW0NAQEhdKFtDSDJdMilbQ0gyXVtDSDNdKWMobltjSF1uMyljKGMzNCluW2NIXW40W0NIMl1DNShbQ0gyXVtPSF0pW0NIMl1bQ0gyXU9bQ0gyXVtDSDJdNQ==

> <s_epik_cmdline>
J2VwaWtfcHl0aG9uJywgJy1waCcsICc3LjAnLCAnLXRuJywgJzgnLCAnLW1hJywgJzIwMCcsICctbWV0YWxfYmluZGluZycsICctaW1hZScsICc8aW5maWxlLm1hZT4nLCAnLW9tYWUnLCAnPG91dGZpbGUubWFlPic=

> <r_lp_tautomer_probability>
1

> <r_epik_Ionization_Penalty>
0.00308583

> <r_epik_Ionization_Penalty_Charging>
0.00300384

> <r_epik_Ionization_Penalty_Neutral>
8.19894e-05

> <r_epik_State_Penalty>
-0

> <r_epik_Charging_Adjusted_Penalty>
0.00300384

> <i_epik_Tot_Q>
1

> <i_epik_Tot_abs_Q>
1

> <r_epik_Metal_State_Penalty>
-0

> <b_epik_Metal_Only>
0

> <s_lp_Force_Field>
OPLS_2005

> <r_lp_Energy>
60.0912

> <b_lp_Chiralities_Consistent>
1

> <s_lp_Variant>
AV-unprocessed.smi:282-6

> <Gold.Version>
5.8.1

> <Gold.Id.Protein>
6NUR|6NUR_protein|mol2

> <Gold.PLP.Fitness>
49.2349

> <Gold.PLP.PLP>
-40.6716

> <Gold.PLP.part.hbond>
-4.8718

> <Gold.PLP.part.metal>
0.0000

> <Gold.PLP.part.buried>
-5.6330

> <Gold.PLP.part.nonpolar>
-31.5882

> <Gold.PLP.part.repulsive>
1.1727

> <Gold.PLP.ligand.clash>
0.0000

> <Gold.PLP.ligand.torsion>
0.8641

> <Gold.PLP.Chemscore.Hbond>
3.3430

> <Gold.PLP.Chemscore.CHOScore>
0.0000

> <Gold.PLP.Chemscore.Metal>
0.0000

> <Gold.Chemscore.Hbonds>
donor molecule, donor type, donor heavy atom, donor atom, acceptor molecule, acceptor atom, score
      L1  H     5    65       P1 10747  1.00
      L1  H    25    56       P1  7957  0.86
      P1  H  7989  7998       L1    25  0.31
      P1  H  7997  8008       L1    28  1.00

> <Gold.PLP.Chemscore.Internal.Correction>
0.2626

> <Gold.Rescore>
     Score         DG    S(hbond)    S(metal)    S(lipo)     H(rot)  DE(clash)    DE(int)     intcor
     18.77     -21.77       3.24        0.00     100.56       2.46       0.38       2.62       ----

> <Gold.Chemscore.Fitness>
18.7705

> <Gold.Chemscore.DG>
-21.7700

> <Gold.Chemscore.ZeroCoef>
-5.4800

> <Gold.Chemscore.Hbond>
3.2385

> <Gold.Chemscore.Metal>
0.0000

> <Gold.Chemscore.Lipo>
100.5564

> <Gold.Chemscore.Internal_Hbond>
0.0000

> <Gold.Chemscore.DEClash>
0.3831

> <Gold.Chemscore.DEInternal>
2.6164

> <Gold.Chemscore.Rot>
2.4576

> <Gold.Chemscore.Internal.Correction>
   9.000000E+99

> <Gold.Chemscore.Hbonds>
donor molecule, donor type, donor heavy atom, donor atom, acceptor molecule, acceptor atom, score
      L1  H     5    65       P1 10747  1.00
      L1  H    25    56       P1  7957  0.85
      P1  H  7989  7998       L1    25  0.12
      P1  H  7997  8008       L1    28  0.92

> <Gold.Chemscore.Hbond.Weighted>
-10.8164

> <Gold.Chemscore.Metal.Weighted>
-0.0000

> <Gold.Chemscore.Lipo.Weighted>
-11.7651

> <Gold.Chemscore.Internal_Hbond.Weighted>
0.0000

> <Gold.Chemscore.DEClash.Weighted>
0.3831

> <Gold.Chemscore.DEInternal.Weighted>
2.6164

> <Gold.Chemscore.Rot.Weighted>
6.2915

> <Gold.Chemscore.Internal.Correction.Weighted>
   9.000000E+99

> <Gold.Protein.RotatedTorsions>
[ 6907 6896 6895 6894 ] final  -44.83 input  -60.11 | X-H torsion
[ 7974 7965 7964 7962 ] final -128.13 input  175.53 | X-H torsion
[ 8008 7997 7996 7995 ] final  -43.69 input   59.86 | X-H torsion
[ 10167 10162 10161 10158 ] final  -78.41 input  -65.29 | X-H torsion
[ 10718 10713 10712 10709 ] final -109.89 input   66.30 | X-H torsion
[ 10763 10752 10751 10750 ] final -100.78 input  -60.55 | X-H torsion
[ 11005 11000 10999 10996 ] final  -67.76 input  -57.11 | X-H torsion

> <Gold.Protein.ActiveResidues>
 VAL166  LYS551  ARG553  GLY616  TRP617  ASP618  TYR619  PRO620  LYS621  CYS622 
 ASP623  PHE694  ASN695  SER759  ASP760  ASP761  ALA762  ILE779  LEU786  VAL792 
 PHE793  MET794  SER795  GLU796  ALA797  LYS798  CYS799  TRP800  GLU811  SER814 

> <Gold.Protein.RotatedAtoms>
  150.9285  134.8701  159.7535 H   0  0  0  0  0  0  0  0  0  0  0  0  # atno 6907 bound_to 6896
  152.5027  134.4114  159.9460 H   0  0  0  0  0  0  0  0  0  0  0  0  # atno 6908 bound_to 6896
  151.4142  133.3678  159.2783 H   0  0  0  0  0  0  0  0  0  0  0  0  # atno 6909 bound_to 6896
  144.9702  140.7537  143.4675 H   0  0  0  0  0  0  0  0  0  0  0  0  # atno 7974 bound_to 7965
  154.3997  140.1441  156.3561 H   0  0  0  0  0  0  0  0  0  0  0  0  # atno 8008 bound_to 7997
  155.8224  140.3469  155.5501 H   0  0  0  0  0  0  0  0  0  0  0  0  # atno 8009 bound_to 7997
  155.8273  140.0907  157.1804 H   0  0  0  0  0  0  0  0  0  0  0  0  # atno 8010 bound_to 7997
  140.4685  143.2433  151.8242 H   0  0  0  0  0  0  0  0  0  0  0  0  # atno 10167 bound_to 10162
  156.0561  130.5787  150.8162 H   0  0  0  0  0  0  0  0  0  0  0  0  # atno 10718 bound_to 10713
  154.7606  135.4922  153.9457 H   0  0  0  0  0  0  0  0  0  0  0  0  # atno 10763 bound_to 10752
  153.1247  135.6739  153.9285 H   0  0  0  0  0  0  0  0  0  0  0  0  # atno 10764 bound_to 10752
  153.9006  135.3110  155.3427 H   0  0  0  0  0  0  0  0  0  0  0  0  # atno 10765 bound_to 10752
  141.1516  133.6726  156.6342 H   0  0  0  0  0  0  0  0  0  0  0  0  # atno 11005 bound_to 11000
  145.2571  139.2008  143.4912 LP  0  0  0  0  0  0  0  0  0  0  0  0  # atno 17320 bound_to 7965
  146.3379  140.2494  142.8598 LP  0  0  0  0  0  0  0  0  0  0  0  0  # atno 17321 bound_to 7965
  139.4815  144.4921  151.9171 LP  0  0  0  0  0  0  0  0  0  0  0  0  # atno 17342 bound_to 10162
  140.4007  144.2497  150.5893 LP  0  0  0  0  0  0  0  0  0  0  0  0  # atno 17343 bound_to 10162
  157.5532  131.0944  150.9666 LP  0  0  0  0  0  0  0  0  0  0  0  0  # atno 17370 bound_to 10713
  156.9921  130.5567  149.5304 LP  0  0  0  0  0  0  0  0  0  0  0  0  # atno 17371 bound_to 10713
  140.3443  134.7823  157.4420 LP  0  0  0  0  0  0  0  0  0  0  0  0  # atno 17394 bound_to 11000
  140.0912  134.5598  155.8442 LP  0  0  0  0  0  0  0  0  0  0  0  0  # atno 17395 bound_to 11000

$$$$
