AV-unprocessed.smi:2290|AV-procd|sdf|9211|dock4
  -GOLD-   2272012433D 1   1.00000     0.00000
 Structure written by MMmdl.
 38 39  0  0  0  0  0  0  0  0  1 V2000
  152.1836  144.1865  160.0455 C   0  0  0  0  0  0  0  0  0  0  0  0
  151.8789  143.1360  158.9923 C   0  0  0  0  0  0  0  0  0  0  0  0
  150.9698  143.5195  158.0022 N   0  0  0  0  0  0  0  0  0  0  0  0
  150.6503  142.6894  157.0637 C   0  0  0  0  0  0  0  0  0  0  0  0
  151.1969  141.3972  157.0041 N   0  0  0  0  0  0  0  0  0  0  0  0
  150.7425  140.5483  155.8905 C   0  0  0  0  0  0  0  0  0  0  0  0
  149.7622  141.2927  154.9563 C   0  0  1  0  0  0  0  0  0  0  0  0
  149.8925  140.8246  153.6294 O   0  0  0  0  0  0  0  0  0  0  0  0
  148.2907  141.1202  155.3659 C   0  0  0  0  0  0  0  0  0  0  0  0
  147.5217  142.2018  154.8649 O   0  0  0  0  0  0  0  0  0  0  0  0
  146.1259  141.9600  154.9254 C   0  0  0  0  0  0  0  0  0  0  0  0
  145.4189  143.1915  154.4520 C   0  0  0  0  0  0  0  0  0  0  0  0
  145.6711  143.8842  153.2952 C   0  0  0  0  0  0  0  0  0  0  0  0
  144.8330  145.0252  153.1255 C   0  0  0  0  0  0  0  0  0  0  0  0
  143.9497  145.1936  154.1578 C   0  0  0  0  0  0  0  0  0  0  0  0
  144.1326  143.9506  155.3644 S   0  0  0  0  0  0  0  0  0  0  0  0
  152.0827  140.9391  157.9352 C   0  0  0  0  0  0  0  0  0  0  0  0
  152.5420  139.7963  157.8837 O   0  0  0  0  0  0  0  0  0  0  0  0
  152.4409  141.8963  158.9944 C   0  0  0  0  0  0  0  0  0  0  0  0
  153.4363  141.4232  160.0464 C   0  0  0  0  0  0  0  0  0  0  0  0
  153.2443  144.4388  160.0374 H   0  0  0  0  0  0  0  0  0  0  0  0
  151.9191  143.8200  161.0376 H   0  0  0  0  0  0  0  0  0  0  0  0
  151.6205  145.1035  159.8676 H   0  0  0  0  0  0  0  0  0  0  0  0
  149.9417  142.9370  156.2714 H   0  0  0  0  0  0  0  0  0  0  0  0
  151.5780  140.1365  155.3201 H   0  0  0  0  0  0  0  0  0  0  0  0
  150.2459  139.6698  156.3071 H   0  0  0  0  0  0  0  0  0  0  0  0
  149.9832  142.3607  154.9489 H   0  0  0  0  0  0  0  0  0  0  0  0
  149.3796  140.0355  153.5405 H   0  0  0  0  0  0  0  0  0  0  0  0
  147.9085  140.1902  154.9424 H   0  0  0  0  0  0  0  0  0  0  0  0
  148.1953  141.0425  156.4504 H   0  0  0  0  0  0  0  0  0  0  0  0
  145.8591  141.1113  154.2940 H   0  0  0  0  0  0  0  0  0  0  0  0
  145.8262  141.7256  155.9479 H   0  0  0  0  0  0  0  0  0  0  0  0
  146.4235  143.6124  152.5696 H   0  0  0  0  0  0  0  0  0  0  0  0
  144.9072  145.6736  152.2648 H   0  0  0  0  0  0  0  0  0  0  0  0
  143.2079  145.9684  154.2837 H   0  0  0  0  0  0  0  0  0  0  0  0
  153.0375  140.5601  160.5801 H   0  0  0  0  0  0  0  0  0  0  0  0
  153.6751  142.1855  160.7860 H   0  0  0  0  0  0  0  0  0  0  0  0
  154.3713  141.1244  159.5715 H   0  0  0  0  0  0  0  0  0  0  0  0
  1  2  1  0  0  0  0
  1 21  1  0  0  0  0
  1 22  1  0  0  0  0
  1 23  1  0  0  0  0
  2 19  2  0  0  0  0
  2  3  1  0  0  0  0
  3  4  2  0  0  0  0
  4  5  1  0  0  0  0
  4 24  1  0  0  0  0
  5  6  1  0  0  0  0
  5 17  1  0  0  0  0
  6  7  1  0  0  0  0
  6 25  1  0  0  0  0
  6 26  1  0  0  0  0
  7  8  1  0  0  0  0
  7  9  1  0  0  0  0
  7 27  1  0  0  0  0
  8 28  1  0  0  0  0
  9 10  1  0  0  0  0
  9 29  1  0  0  0  0
  9 30  1  0  0  0  0
 10 11  1  0  0  0  0
 11 12  1  0  0  0  0
 11 31  1  0  0  0  0
 11 32  1  0  0  0  0
 12 16  1  0  0  0  0
 12 13  2  0  0  0  0
 13 14  1  0  0  0  0
 13 33  1  0  0  0  0
 14 15  2  0  0  0  0
 14 34  1  0  0  0  0
 15 16  1  0  0  0  0
 15 35  1  0  0  0  0
 17 18  2  0  0  0  0
 17 19  1  0  0  0  0
 19 20  1  0  0  0  0
 20 36  1  0  0  0  0
 20 37  1  0  0  0  0
 20 38  1  0  0  0  0
M  END
> <s_m_source_file>
AV-unprocessed.smi

> <i_m_source_file_index>
2290

> <i_lp_mmshare_version>
43012

> <i_f3d_flags>
0

> <s_epik_input>
W0NIM11jMW5bY0hdbihjKD1PKWMxW0NIM10pW0NIMl1bQ0BIXShbT0hdKVtDSDJdT1tDSDJdYzJbY0hdW2NIXVtjSF1zMg==

> <s_epik_cmdline>
J2VwaWtfcHl0aG9uJywgJy1waCcsICc3LjAnLCAnLXRuJywgJzgnLCAnLW1hJywgJzIwMCcsICctbWV0YWxfYmluZGluZycsICctaW1hZScsICc8aW5maWxlLm1hZT4nLCAnLW9tYWUnLCAnPG91dGZpbGUubWFlPic=

> <r_lp_tautomer_probability>
1

> <r_epik_Ionization_Penalty>
4.77825e-05

> <r_epik_Ionization_Penalty_Charging>
1.20754e-07

> <r_epik_Ionization_Penalty_Neutral>
4.76618e-05

> <r_epik_State_Penalty>
-0

> <r_epik_Charging_Adjusted_Penalty>
1.20754e-07

> <i_epik_Tot_Q>
0

> <i_epik_Tot_abs_Q>
0

> <r_epik_Metal_State_Penalty>
-0

> <b_epik_Metal_Only>
0

> <s_lp_Force_Field>
OPLS_2005

> <r_lp_Energy>
16.3979

> <b_lp_Chiralities_Consistent>
1

> <s_lp_Variant>
AV-unprocessed.smi:2290-2

> <Gold.Version>
5.8.1

> <Gold.Id.Protein>
6NUR|6NUR_protein|mol2

> <Gold.PLP.Fitness>
50.3615

> <Gold.PLP.PLP>
-44.2802

> <Gold.PLP.part.hbond>
-3.5002

> <Gold.PLP.part.metal>
0.0000

> <Gold.PLP.part.buried>
-3.1522

> <Gold.PLP.part.nonpolar>
-38.1431

> <Gold.PLP.part.repulsive>
1.2994

> <Gold.PLP.ligand.clash>
2.5268

> <Gold.PLP.ligand.torsion>
0.7683

> <Gold.PLP.Chemscore.Hbond>
2.3463

> <Gold.PLP.Chemscore.CHOScore>
1.0000

> <Gold.PLP.Chemscore.Metal>
0.0000

> <Gold.Chemscore.Hbonds>
donor molecule, donor type, donor heavy atom, donor atom, acceptor molecule, acceptor atom, score
      P1  H  7989  7998       L1     8  0.40
      P1  H  7997  8009       L1    18  0.59
      P1  H  8011  8017       L1     8  0.96
      L1  C     4    24       P1  8028  1.00

> <Gold.PLP.Chemscore.Internal.Correction>
0.1060

> <Gold.Rescore>
     Score         DG    S(hbond)    S(metal)    S(lipo)     H(rot)  DE(clash)    DE(int)     intcor
     13.39     -14.64       1.31        0.00      96.80       2.55       0.60       0.65       ----

> <Gold.Chemscore.Fitness>
13.3880

> <Gold.Chemscore.DG>
-14.6409

> <Gold.Chemscore.ZeroCoef>
-5.4800

> <Gold.Chemscore.Hbond>
1.3069

> <Gold.Chemscore.Metal>
0.0000

> <Gold.Chemscore.Lipo>
96.8010

> <Gold.Chemscore.Internal_Hbond>
0.0000

> <Gold.Chemscore.DEClash>
0.6033

> <Gold.Chemscore.DEInternal>
0.6496

> <Gold.Chemscore.Rot>
2.5507

> <Gold.Chemscore.Internal.Correction>
   9.000000E+99

> <Gold.Chemscore.Hbonds>
donor molecule, donor type, donor heavy atom, donor atom, acceptor molecule, acceptor atom, score
      P1  H  7989  7998       L1     8  0.10
      P1  H  7997  8009       L1    18  0.23
      P1  H  8011  8017       L1     8  0.64

> <Gold.Chemscore.Hbond.Weighted>
-4.3650

> <Gold.Chemscore.Metal.Weighted>
-0.0000

> <Gold.Chemscore.Lipo.Weighted>
-11.3257

> <Gold.Chemscore.Internal_Hbond.Weighted>
0.0000

> <Gold.Chemscore.DEClash.Weighted>
0.6033

> <Gold.Chemscore.DEInternal.Weighted>
0.6496

> <Gold.Chemscore.Rot.Weighted>
6.5298

> <Gold.Chemscore.Internal.Correction.Weighted>
   9.000000E+99

> <Gold.Protein.RotatedTorsions>
[ 6907 6896 6895 6894 ] final   84.03 input  -60.11 | X-H torsion
[ 7974 7965 7964 7962 ] final   80.54 input  175.53 | X-H torsion
[ 8008 7997 7996 7995 ] final  167.43 input   59.86 | X-H torsion
[ 10167 10162 10161 10158 ] final -159.54 input  -65.29 | X-H torsion
[ 10718 10713 10712 10709 ] final   83.18 input   66.30 | X-H torsion
[ 10763 10752 10751 10750 ] final   43.24 input  -60.55 | X-H torsion
[ 11005 11000 10999 10996 ] final  107.35 input  -57.11 | X-H torsion

> <Gold.Protein.ActiveResidues>
 VAL166  LYS551  ARG553  GLY616  TRP617  ASP618  TYR619  PRO620  LYS621  CYS622 
 ASP623  PHE694  ASN695  SER759  ASP760  ASP761  ALA762  ILE779  LEU786  VAL792 
 PHE793  MET794  SER795  GLU796  ALA797  LYS798  CYS799  TRP800  GLU811  SER814 

> <Gold.Protein.RotatedAtoms>
  152.5342  134.2804  159.9004 H   0  0  0  0  0  0  0  0  0  0  0  0  # atno 6907 bound_to 6896
  151.2758  133.4226  159.2631 H   0  0  0  0  0  0  0  0  0  0  0  0  # atno 6908 bound_to 6896
  151.0327  134.9566  159.8176 H   0  0  0  0  0  0  0  0  0  0  0  0  # atno 6909 bound_to 6896
  145.6498  139.2445  143.1983 H   0  0  0  0  0  0  0  0  0  0  0  0  # atno 7974 bound_to 7965
  156.1635  140.1617  156.8572 H   0  0  0  0  0  0  0  0  0  0  0  0  # atno 8008 bound_to 7997
  154.5184  140.0784  156.8160 H   0  0  0  0  0  0  0  0  0  0  0  0  # atno 8009 bound_to 7997
  155.3660  140.3398  155.4244 H   0  0  0  0  0  0  0  0  0  0  0  0  # atno 8010 bound_to 7997
  139.6608  143.9917  152.2224 H   0  0  0  0  0  0  0  0  0  0  0  0  # atno 10167 bound_to 10162
  157.6873  131.0079  150.2484 H   0  0  0  0  0  0  0  0  0  0  0  0  # atno 10718 bound_to 10713
  152.9865  135.6107  154.3079 H   0  0  0  0  0  0  0  0  0  0  0  0  # atno 10763 bound_to 10752
  154.2796  135.2777  155.2704 H   0  0  0  0  0  0  0  0  0  0  0  0  # atno 10764 bound_to 10752
  154.5049  135.5857  153.6616 H   0  0  0  0  0  0  0  0  0  0  0  0  # atno 10765 bound_to 10752
  139.8827  134.9398  156.5806 H   0  0  0  0  0  0  0  0  0  0  0  0  # atno 11005 bound_to 11000
  146.1213  140.7306  142.9456 LP  0  0  0  0  0  0  0  0  0  0  0  0  # atno 17320 bound_to 7965
  144.7126  140.4096  143.7068 LP  0  0  0  0  0  0  0  0  0  0  0  0  # atno 17321 bound_to 7965
  139.9655  144.6529  150.8038 LP  0  0  0  0  0  0  0  0  0  0  0  0  # atno 17342 bound_to 10162
  140.7579  143.3096  151.2878 LP  0  0  0  0  0  0  0  0  0  0  0  0  # atno 17343 bound_to 10162
  156.3085  130.3768  149.7683 LP  0  0  0  0  0  0  0  0  0  0  0  0  # atno 17370 bound_to 10713
  156.5291  130.8249  151.3230 LP  0  0  0  0  0  0  0  0  0  0  0  0  # atno 17371 bound_to 10713
  140.8030  133.8490  155.8743 LP  0  0  0  0  0  0  0  0  0  0  0  0  # atno 17394 bound_to 11000
  140.9576  134.1698  157.4680 LP  0  0  0  0  0  0  0  0  0  0  0  0  # atno 17395 bound_to 11000

$$$$
