AV-unprocessed.smi:3015|AV-procd|sdf|11471|dock7
  -GOLD-   2272016403D 1   1.00000     0.00000
 Structure written by MMmdl.
 24 24  0  0  0  0  0  0  0  0  2 V2000
  148.5395  142.1801  155.8931 N   0  3  0  0  0  0  0  0  0  0  0  0
  149.7899  141.4168  156.0682 C   0  0  1  0  0  0  0  0  0  0  0  0
  149.9260  140.3558  154.9624 C   0  0  0  0  0  0  0  0  0  0  0  0
  149.5949  140.9135  153.7076 O   0  0  0  0  0  0  0  0  0  0  0  0
  151.0029  142.3668  156.0896 C   0  0  0  0  0  0  0  0  0  0  0  0
  151.3145  142.9045  157.4755 C   0  0  0  0  0  0  0  0  0  0  0  0
  151.6411  144.2632  157.6672 C   0  0  0  0  0  0  0  0  0  0  0  0
  151.9263  144.7157  158.9697 C   0  0  0  0  0  0  0  0  0  0  0  0
  151.8713  143.7884  160.0295 C   0  0  0  0  0  0  0  0  0  0  0  0
  151.5588  142.4857  159.8579 N   0  0  0  0  0  0  0  0  0  0  0  0
  151.2828  142.0607  158.6067 C   0  0  0  0  0  0  0  0  0  0  0  0
  148.2147  142.0854  154.9419 H   0  0  0  0  0  0  0  0  0  0  0  0
  148.7094  143.1546  156.0972 H   0  0  0  0  0  0  0  0  0  0  0  0
  149.7355  140.9073  157.0314 H   0  0  0  0  0  0  0  0  0  0  0  0
  150.9364  139.9465  154.9281 H   0  0  0  0  0  0  0  0  0  0  0  0
  149.2471  139.5230  155.1492 H   0  0  0  0  0  0  0  0  0  0  0  0
  149.2619  140.2267  153.1492 H   0  0  0  0  0  0  0  0  0  0  0  0
  151.8885  141.8447  155.7246 H   0  0  0  0  0  0  0  0  0  0  0  0
  150.8409  143.2007  155.4049 H   0  0  0  0  0  0  0  0  0  0  0  0
  151.6752  144.9475  156.8320 H   0  0  0  0  0  0  0  0  0  0  0  0
  152.1805  145.7492  159.1533 H   0  0  0  0  0  0  0  0  0  0  0  0
  152.0845  144.1014  161.0410 H   0  0  0  0  0  0  0  0  0  0  0  0
  151.0379  141.0136  158.5051 H   0  0  0  0  0  0  0  0  0  0  0  0
  147.8392  141.8193  156.5256 H   0  0  0  0  0  0  0  0  0  0  0  0
  1  2  1  0  0  0  0
  1 12  1  0  0  0  0
  1 13  1  0  0  0  0
  1 24  1  0  0  0  0
  2  3  1  0  0  0  0
  2  5  1  0  0  0  0
  2 14  1  0  0  0  0
  3  4  1  0  0  0  0
  3 15  1  0  0  0  0
  3 16  1  0  0  0  0
  4 17  1  0  0  0  0
  5  6  1  0  0  0  0
  5 18  1  0  0  0  0
  5 19  1  0  0  0  0
  6 11  1  0  0  0  0
  6  7  2  0  0  0  0
  7  8  1  0  0  0  0
  7 20  1  0  0  0  0
  8  9  2  0  0  0  0
  8 21  1  0  0  0  0
  9 10  1  0  0  0  0
  9 22  1  0  0  0  0
 10 11  2  0  0  0  0
 11 23  1  0  0  0  0
M  CHG  1   1   1
M  END
> <s_m_source_file>
AV-unprocessed.smi

> <i_m_source_file_index>
3015

> <i_lp_mmshare_version>
43012

> <i_f3d_flags>
0

> <s_epik_input>
W09IXVtDSDJdW0NAQEhdKFtOSDJdKVtDSDJdYzFbY0hdW2NIXVtjSF1uW2NIXTE=

> <s_epik_cmdline>
J2VwaWtfcHl0aG9uJywgJy1waCcsICc3LjAnLCAnLXRuJywgJzgnLCAnLW1hJywgJzIwMCcsICctbWV0YWxfYmluZGluZycsICctaW1hZScsICc8aW5maWxlLm1hZT4nLCAnLW9tYWUnLCAnPG91dGZpbGUubWFlPic=

> <r_epik_Ionization_Penalty>
0.0193991

> <r_epik_Ionization_Penalty_Charging>
0.0188044

> <r_epik_Ionization_Penalty_Neutral>
0.000594726

> <r_epik_State_Penalty>
0.00921718

> <r_epik_Charging_Adjusted_Penalty>
0.0280216

> <i_epik_Tot_Q>
1

> <i_epik_Tot_abs_Q>
1

> <r_epik_Metal_State_Penalty>
0.00867471

> <b_epik_Metal_Only>
0

> <s_lp_Force_Field>
OPLS_2005

> <r_lp_Energy>
6.76442

> <b_lp_Chiralities_Consistent>
1

> <s_lp_Variant>
AV-unprocessed.smi:3015-2

> <Gold.Version>
5.8.1

> <Gold.Id.Protein>
6NUR|6NUR_protein|mol2

> <Gold.PLP.Fitness>
37.3041

> <Gold.PLP.PLP>
-27.9934

> <Gold.PLP.part.hbond>
-4.4530

> <Gold.PLP.part.metal>
0.0000

> <Gold.PLP.part.buried>
-2.6364

> <Gold.PLP.part.nonpolar>
-19.8591

> <Gold.PLP.part.repulsive>
0.0870

> <Gold.PLP.ligand.clash>
0.0000

> <Gold.PLP.ligand.torsion>
0.7229

> <Gold.PLP.Chemscore.Hbond>
3.5832

> <Gold.PLP.Chemscore.CHOScore>
0.0000

> <Gold.PLP.Chemscore.Metal>
0.0000

> <Gold.Chemscore.Hbonds>
donor molecule, donor type, donor heavy atom, donor atom, acceptor molecule, acceptor atom, score
      L1  H     1    13       P1  8028  2.00
      L1  H     4    17       P1  7957  0.51
      P1  H  7989  7998       L1     4  0.06
      P1  H  8011  8017       L1     4  0.98

> <Gold.PLP.Chemscore.Internal.Correction>
0.0068

> <Gold.Rescore>
     Score         DG    S(hbond)    S(metal)    S(lipo)     H(rot)  DE(clash)    DE(int)     intcor
     13.96     -14.73       1.65        0.00      78.93       2.14       0.18       0.59       ----

> <Gold.Chemscore.Fitness>
13.9589

> <Gold.Chemscore.DG>
-14.7338

> <Gold.Chemscore.ZeroCoef>
-5.4800

> <Gold.Chemscore.Hbond>
1.6462

> <Gold.Chemscore.Metal>
0.0000

> <Gold.Chemscore.Lipo>
78.9342

> <Gold.Chemscore.Internal_Hbond>
0.0000

> <Gold.Chemscore.DEClash>
0.1831

> <Gold.Chemscore.DEInternal>
0.5919

> <Gold.Chemscore.Rot>
2.1405

> <Gold.Chemscore.Internal.Correction>
   9.000000E+99

> <Gold.Chemscore.Hbonds>
donor molecule, donor type, donor heavy atom, donor atom, acceptor molecule, acceptor atom, score
      L1  H     1    13       P1  8028  0.95
      L1  H     4    17       P1  7957  0.49
      P1  H  8011  8017       L1     4  0.22

> <Gold.Chemscore.Hbond.Weighted>
-5.4982

> <Gold.Chemscore.Metal.Weighted>
-0.0000

> <Gold.Chemscore.Lipo.Weighted>
-9.2353

> <Gold.Chemscore.Internal_Hbond.Weighted>
0.0000

> <Gold.Chemscore.DEClash.Weighted>
0.1831

> <Gold.Chemscore.DEInternal.Weighted>
0.5919

> <Gold.Chemscore.Rot.Weighted>
5.4797

> <Gold.Chemscore.Internal.Correction.Weighted>
   9.000000E+99

> <Gold.Protein.RotatedTorsions>
[ 6907 6896 6895 6894 ] final   29.05 input  -60.11 | X-H torsion
[ 7974 7965 7964 7962 ] final   36.82 input  175.53 | X-H torsion
[ 8008 7997 7996 7995 ] final -159.85 input   59.86 | X-H torsion
[ 10167 10162 10161 10158 ] final -148.01 input  -65.29 | X-H torsion
[ 10718 10713 10712 10709 ] final -128.30 input   66.30 | X-H torsion
[ 10763 10752 10751 10750 ] final  121.57 input  -60.55 | X-H torsion
[ 11005 11000 10999 10996 ] final  133.23 input  -57.11 | X-H torsion

> <Gold.Protein.ActiveResidues>
 VAL166  LYS551  ARG553  GLY616  TRP617  ASP618  TYR619  PRO620  LYS621  CYS622 
 ASP623  PHE694  ASN695  SER759  ASP760  ASP761  ALA762  ILE779  LEU786  VAL792 
 PHE793  MET794  SER795  GLU796  ALA797  LYS798  CYS799  TRP800  GLU811  SER814 

> <Gold.Protein.RotatedAtoms>
  152.0259  134.9796  160.0571 H   0  0  0  0  0  0  0  0  0  0  0  0  # atno 6907 bound_to 6896
  152.1292  133.4393  159.4721 H   0  0  0  0  0  0  0  0  0  0  0  0  # atno 6908 bound_to 6896
  150.6855  134.2360  159.4496 H   0  0  0  0  0  0  0  0  0  0  0  0  # atno 6909 bound_to 6896
  146.1183  139.5970  142.9306 H   0  0  0  0  0  0  0  0  0  0  0  0  # atno 7974 bound_to 7965
  155.7687  140.0849  157.2119 H   0  0  0  0  0  0  0  0  0  0  0  0  # atno 8008 bound_to 7997
  154.3998  140.1529  156.2973 H   0  0  0  0  0  0  0  0  0  0  0  0  # atno 8009 bound_to 7997
  155.8769  140.3422  155.5863 H   0  0  0  0  0  0  0  0  0  0  0  0  # atno 8010 bound_to 7997
  139.7570  143.8433  152.2599 H   0  0  0  0  0  0  0  0  0  0  0  0  # atno 10167 bound_to 10162
  156.1938  130.6812  151.0456 H   0  0  0  0  0  0  0  0  0  0  0  0  # atno 10718 bound_to 10713
  153.6162  135.3421  155.2995 H   0  0  0  0  0  0  0  0  0  0  0  0  # atno 10763 bound_to 10752
  154.8609  135.4262  154.2256 H   0  0  0  0  0  0  0  0  0  0  0  0  # atno 10764 bound_to 10752
  153.3118  135.7032  153.7181 H   0  0  0  0  0  0  0  0  0  0  0  0  # atno 10765 bound_to 10752
  139.9839  134.9539  156.9696 H   0  0  0  0  0  0  0  0  0  0  0  0  # atno 11005 bound_to 11000
  145.5519  141.0412  143.2273 LP  0  0  0  0  0  0  0  0  0  0  0  0  # atno 17320 bound_to 7965
  144.7573  139.7042  143.7248 LP  0  0  0  0  0  0  0  0  0  0  0  0  # atno 17321 bound_to 7965
  139.8428  144.7202  150.9309 LP  0  0  0  0  0  0  0  0  0  0  0  0  # atno 17342 bound_to 10162
  140.7803  143.3968  151.1216 LP  0  0  0  0  0  0  0  0  0  0  0  0  # atno 17343 bound_to 10162
  157.6945  131.0799  150.7010 LP  0  0  0  0  0  0  0  0  0  0  0  0  # atno 17370 bound_to 10713
  156.7066  130.4639  149.5558 LP  0  0  0  0  0  0  0  0  0  0  0  0  # atno 17371 bound_to 10713
  140.5041  134.1067  155.7256 LP  0  0  0  0  0  0  0  0  0  0  0  0  # atno 17394 bound_to 11000
  141.1507  133.8974  157.2105 LP  0  0  0  0  0  0  0  0  0  0  0  0  # atno 17395 bound_to 11000

$$$$
