AV-unprocessed.smi:1554|AV-procd|sdf|6255|dock6
  -GOLD-   22720 6443D 1   1.00000     0.00000
 Structure written by MMmdl.
 48 50  0  0  0  0  0  0  0  0  2 V2000
  152.1343  144.3424  161.1556 C   0  0  0  0  0  0  0  0  0  0  0  0
  151.9665  143.3331  160.0325 C   0  0  0  0  0  0  0  0  0  0  0  0
  151.0726  143.6367  158.9809 C   0  0  0  0  0  0  0  0  0  0  0  0
  150.9418  142.6944  157.9677 C   0  0  0  0  0  0  0  0  0  0  0  0
  150.1590  142.6987  156.8114 N   0  3  0  0  0  0  0  0  0  0  0  0
  150.3676  141.5460  156.1172 C   0  0  0  0  0  0  0  0  0  0  0  0
  151.2715  140.8047  156.8134 N   0  0  0  0  0  0  0  0  0  0  0  0
  151.8363  139.4828  156.5040 C   0  0  0  0  0  0  0  0  0  0  0  0
  151.0158  138.7097  155.4528 C   0  0  1  0  0  0  0  0  0  0  0  0
  151.3664  139.1560  154.1579 O   0  0  0  0  0  0  0  0  0  0  0  0
  151.2817  137.1934  155.5333 C   0  0  0  0  0  0  0  0  0  0  0  0
  150.2364  136.3374  154.9690 N   0  0  0  0  0  0  0  0  0  0  0  0
  148.9840  136.3987  155.7204 C   0  0  0  0  0  0  0  0  0  0  0  0
  147.9126  135.4683  155.1260 C   0  0  0  0  0  0  0  0  0  0  0  0
  148.4117  134.1360  155.0703 O   0  0  0  0  0  0  0  0  0  0  0  0
  149.6075  134.0216  154.3041 C   0  0  2  0  0  0  0  0  0  0  0  0
  150.0433  132.5525  154.3064 C   0  0  0  0  0  0  0  0  0  0  0  0
  150.6804  134.9487  154.9075 C   0  0  0  0  0  0  0  0  0  0  0  0
  151.6597  141.4825  157.9755 C   0  0  0  0  0  0  0  0  0  0  0  0
  152.5452  141.1688  159.0040 C   0  0  0  0  0  0  0  0  0  0  0  0
  152.6949  142.1153  160.0426 C   0  0  0  0  0  0  0  0  0  0  0  0
  153.6559  141.8001  161.1764 C   0  0  0  0  0  0  0  0  0  0  0  0
  151.4816  145.2049  161.0178 H   0  0  0  0  0  0  0  0  0  0  0  0
  153.1618  144.7049  161.1940 H   0  0  0  0  0  0  0  0  0  0  0  0
  151.8897  143.8910  162.1172 H   0  0  0  0  0  0  0  0  0  0  0  0
  150.5161  144.5626  158.9652 H   0  0  0  0  0  0  0  0  0  0  0  0
  149.8998  141.2696  155.1833 H   0  0  0  0  0  0  0  0  0  0  0  0
  152.8753  139.5980  156.1935 H   0  0  0  0  0  0  0  0  0  0  0  0
  151.8595  138.9210  157.4387 H   0  0  0  0  0  0  0  0  0  0  0  0
  149.9611  138.9264  155.6179 H   0  0  0  0  0  0  0  0  0  0  0  0
  150.9763  138.5692  153.5272 H   0  0  0  0  0  0  0  0  0  0  0  0
  152.2249  136.9912  155.0231 H   0  0  0  0  0  0  0  0  0  0  0  0
  151.4454  136.9132  156.5751 H   0  0  0  0  0  0  0  0  0  0  0  0
  149.1625  136.1242  156.7613 H   0  0  0  0  0  0  0  0  0  0  0  0
  148.5907  137.4141  155.7274 H   0  0  0  0  0  0  0  0  0  0  0  0
  147.0121  135.4856  155.7400 H   0  0  0  0  0  0  0  0  0  0  0  0
  147.6254  135.7988  154.1266 H   0  0  0  0  0  0  0  0  0  0  0  0
  149.3997  134.3241  153.2762 H   0  0  0  0  0  0  0  0  0  0  0  0
  150.9542  132.4118  153.7239 H   0  0  0  0  0  0  0  0  0  0  0  0
  149.2706  131.9165  153.8737 H   0  0  0  0  0  0  0  0  0  0  0  0
  150.2361  132.2003  155.3201 H   0  0  0  0  0  0  0  0  0  0  0  0
  151.5903  134.8797  154.3100 H   0  0  0  0  0  0  0  0  0  0  0  0
  150.9391  134.6003  155.9089 H   0  0  0  0  0  0  0  0  0  0  0  0
  153.1040  140.2447  159.0097 H   0  0  0  0  0  0  0  0  0  0  0  0
  154.1813  140.8601  161.0042 H   0  0  0  0  0  0  0  0  0  0  0  0
  153.1163  141.7134  162.1197 H   0  0  0  0  0  0  0  0  0  0  0  0
  154.4055  142.5854  161.2758 H   0  0  0  0  0  0  0  0  0  0  0  0
  149.5290  143.4331  156.5148 H   0  0  0  0  0  0  0  0  0  0  0  0
  1  2  1  0  0  0  0
  1 23  1  0  0  0  0
  1 24  1  0  0  0  0
  1 25  1  0  0  0  0
  2 21  1  0  0  0  0
  2  3  2  0  0  0  0
  3  4  1  0  0  0  0
  3 26  1  0  0  0  0
  4 19  2  0  0  0  0
  4  5  1  0  0  0  0
  5  6  2  0  0  0  0
  5 48  1  0  0  0  0
  6  7  1  0  0  0  0
  6 27  1  0  0  0  0
  7  8  1  0  0  0  0
  7 19  1  0  0  0  0
  8  9  1  0  0  0  0
  8 28  1  0  0  0  0
  8 29  1  0  0  0  0
  9 10  1  0  0  0  0
  9 11  1  0  0  0  0
  9 30  1  0  0  0  0
 10 31  1  0  0  0  0
 11 12  1  0  0  0  0
 11 32  1  0  0  0  0
 11 33  1  0  0  0  0
 12 18  1  0  0  0  0
 12 13  1  0  0  0  0
 13 14  1  0  0  0  0
 13 34  1  0  0  0  0
 13 35  1  0  0  0  0
 14 15  1  0  0  0  0
 14 36  1  0  0  0  0
 14 37  1  0  0  0  0
 15 16  1  0  0  0  0
 16 17  1  0  0  0  0
 16 18  1  0  0  0  0
 16 38  1  0  0  0  0
 17 39  1  0  0  0  0
 17 40  1  0  0  0  0
 17 41  1  0  0  0  0
 18 42  1  0  0  0  0
 18 43  1  0  0  0  0
 19 20  1  0  0  0  0
 20 21  2  0  0  0  0
 20 44  1  0  0  0  0
 21 22  1  0  0  0  0
 22 45  1  0  0  0  0
 22 46  1  0  0  0  0
 22 47  1  0  0  0  0
M  CHG  1   5   1
M  END
> <s_m_source_file>
AV-unprocessed.smi

> <i_m_source_file_index>
1554

> <i_lp_mmshare_version>
43012

> <i_f3d_flags>
0

> <s_epik_input>
W0NIM11jKFtjSF0xKWMoW0NIM10pW2NIXWMoYzEyKW4oW2NIXW4yKVtDSDJdW0NASF0oW09IXSlbQ0gyXU4zW0NIMl1bQ0gyXU9bQ0BASF0oW0NIM10pW0NIMl0z

> <s_epik_cmdline>
J2VwaWtfcHl0aG9uJywgJy1waCcsICc3LjAnLCAnLXRuJywgJzgnLCAnLW1hJywgJzIwMCcsICctbWV0YWxfYmluZGluZycsICctaW1hZScsICc8aW5maWxlLm1hZT4nLCAnLW9tYWUnLCAnPG91dGZpbGUubWFlPic=

> <r_epik_Ionization_Penalty>
1.42504

> <r_epik_Ionization_Penalty_Charging>
1.21068

> <r_epik_Ionization_Penalty_Neutral>
0.214359

> <r_epik_State_Penalty>
1.46962

> <r_epik_Charging_Adjusted_Penalty>
2.6803

> <i_epik_Tot_Q>
1

> <i_epik_Tot_abs_Q>
1

> <r_epik_Metal_State_Penalty>
5.48754

> <b_epik_Metal_Only>
0

> <s_lp_Force_Field>
OPLS_2005

> <r_lp_Energy>
34.6572

> <b_lp_Chiralities_Consistent>
1

> <s_lp_Variant>
AV-unprocessed.smi:1554-16

> <Gold.Version>
5.8.1

> <Gold.Id.Protein>
6NUR|6NUR_protein|mol2

> <Gold.PLP.Fitness>
50.7682

> <Gold.PLP.PLP>
-43.1356

> <Gold.PLP.part.hbond>
-2.0000

> <Gold.PLP.part.metal>
0.0000

> <Gold.PLP.part.buried>
-4.3500

> <Gold.PLP.part.nonpolar>
-37.1403

> <Gold.PLP.part.repulsive>
0.2963

> <Gold.PLP.ligand.clash>
0.0000

> <Gold.PLP.ligand.torsion>
0.6946

> <Gold.PLP.Chemscore.Hbond>
3.0000

> <Gold.PLP.Chemscore.CHOScore>
0.0000

> <Gold.PLP.Chemscore.Metal>
0.0000

> <Gold.Chemscore.Hbonds>
donor molecule, donor type, donor heavy atom, donor atom, acceptor molecule, acceptor atom, score
      L1  H     5    48       P1  8028  2.00
      P1  H  7989  7998       L1    10  1.00

> <Gold.PLP.Chemscore.Internal.Correction>
0.0218

> <Gold.Rescore>
     Score         DG    S(hbond)    S(metal)    S(lipo)     H(rot)  DE(clash)    DE(int)     intcor
     18.55     -20.38       1.84        0.00     119.58       2.04       1.19       0.64       ----

> <Gold.Chemscore.Fitness>
18.5472

> <Gold.Chemscore.DG>
-20.3789

> <Gold.Chemscore.ZeroCoef>
-5.4800

> <Gold.Chemscore.Hbond>
1.8375

> <Gold.Chemscore.Metal>
0.0000

> <Gold.Chemscore.Lipo>
119.5825

> <Gold.Chemscore.Internal_Hbond>
0.0000

> <Gold.Chemscore.DEClash>
1.1929

> <Gold.Chemscore.DEInternal>
0.6388

> <Gold.Chemscore.Rot>
2.0427

> <Gold.Chemscore.Internal.Correction>
   9.000000E+99

> <Gold.Chemscore.Hbonds>
donor molecule, donor type, donor heavy atom, donor atom, acceptor molecule, acceptor atom, score
      L1  H     5    48       P1  8028  1.00
      P1  H  7989  7998       L1    10  0.83

> <Gold.Chemscore.Hbond.Weighted>
-6.1372

> <Gold.Chemscore.Metal.Weighted>
-0.0000

> <Gold.Chemscore.Lipo.Weighted>
-13.9912

> <Gold.Chemscore.Internal_Hbond.Weighted>
0.0000

> <Gold.Chemscore.DEClash.Weighted>
1.1929

> <Gold.Chemscore.DEInternal.Weighted>
0.6388

> <Gold.Chemscore.Rot.Weighted>
5.2294

> <Gold.Chemscore.Internal.Correction.Weighted>
   9.000000E+99

> <Gold.Protein.RotatedTorsions>
[ 6907 6896 6895 6894 ] final  131.27 input  -60.11 | X-H torsion
[ 7974 7965 7964 7962 ] final  158.99 input  175.53 | X-H torsion
[ 8008 7997 7996 7995 ] final -157.30 input   59.86 | X-H torsion
[ 10167 10162 10161 10158 ] final  -49.76 input  -65.29 | X-H torsion
[ 10718 10713 10712 10709 ] final   41.60 input   66.30 | X-H torsion
[ 10763 10752 10751 10750 ] final   81.96 input  -60.55 | X-H torsion
[ 11005 11000 10999 10996 ] final  117.69 input  -57.11 | X-H torsion

> <Gold.Protein.ActiveResidues>
 VAL166  LYS551  ARG553  GLY616  TRP617  ASP618  TYR619  PRO620  LYS621  CYS622 
 ASP623  PHE694  ASN695  SER759  ASP760  ASP761  ALA762  ILE779  LEU786  VAL792 
 PHE793  MET794  SER795  GLU796  ALA797  LYS798  CYS799  TRP800  GLU811  SER814 

> <Gold.Protein.RotatedAtoms>
  152.3443  133.6103  159.5898 H   0  0  0  0  0  0  0  0  0  0  0  0  # atno 6907 bound_to 6896
  150.7498  133.9674  159.3543 H   0  0  0  0  0  0  0  0  0  0  0  0  # atno 6908 bound_to 6896
  151.7534  135.0828  160.0385 H   0  0  0  0  0  0  0  0  0  0  0  0  # atno 6909 bound_to 6896
  144.7815  139.7555  143.6258 H   0  0  0  0  0  0  0  0  0  0  0  0  # atno 7974 bound_to 7965
  155.7304  140.0801  157.2291 H   0  0  0  0  0  0  0  0  0  0  0  0  # atno 8008 bound_to 7997
  154.4033  140.1596  156.2557 H   0  0  0  0  0  0  0  0  0  0  0  0  # atno 8009 bound_to 7997
  155.9114  140.3403  155.6104 H   0  0  0  0  0  0  0  0  0  0  0  0  # atno 8010 bound_to 7997
  140.6670  143.2684  151.4262 H   0  0  0  0  0  0  0  0  0  0  0  0  # atno 10167 bound_to 10162
  157.3954  130.7830  149.7304 H   0  0  0  0  0  0  0  0  0  0  0  0  # atno 10718 bound_to 10713
  153.1161  135.4746  154.9118 H   0  0  0  0  0  0  0  0  0  0  0  0  # atno 10763 bound_to 10752
  154.7530  135.3111  154.8525 H   0  0  0  0  0  0  0  0  0  0  0  0  # atno 10764 bound_to 10752
  153.9101  135.6866  153.4805 H   0  0  0  0  0  0  0  0  0  0  0  0  # atno 10765 bound_to 10752
  139.9083  134.9613  156.7389 H   0  0  0  0  0  0  0  0  0  0  0  0  # atno 11005 bound_to 11000
  146.2025  139.5329  142.9734 LP  0  0  0  0  0  0  0  0  0  0  0  0  # atno 17320 bound_to 7965
  145.6038  141.0351  143.2004 LP  0  0  0  0  0  0  0  0  0  0  0  0  # atno 17321 bound_to 7965
  139.5922  144.1474  152.2102 LP  0  0  0  0  0  0  0  0  0  0  0  0  # atno 17342 bound_to 10162
  140.0832  144.5683  150.7107 LP  0  0  0  0  0  0  0  0  0  0  0  0  # atno 17343 bound_to 10162
  155.9809  130.4025  150.3502 LP  0  0  0  0  0  0  0  0  0  0  0  0  # atno 17370 bound_to 10713
  157.1623  131.0348  151.2835 LP  0  0  0  0  0  0  0  0  0  0  0  0  # atno 17371 bound_to 10713
  140.6865  133.9428  155.7941 LP  0  0  0  0  0  0  0  0  0  0  0  0  # atno 17394 bound_to 11000
  141.0472  134.0536  157.3829 LP  0  0  0  0  0  0  0  0  0  0  0  0  # atno 17395 bound_to 11000

$$$$
