AV-unprocessed.smi:1672|AV-procd|sdf|6702|dock1
  -GOLD-   22720 7443D 1   1.00000     0.00000
 Structure written by MMmdl.
 48 50  0  0  0  0  0  0  0  0  2 V2000
  144.8746  135.4265  150.5168 C   0  0  0  0  0  0  0  0  0  0  0  0
  145.1982  136.4604  151.6043 C   0  0  2  0  0  0  0  0  0  0  0  0
  146.1255  137.5694  151.0791 C   0  0  0  0  0  0  0  0  0  0  0  0
  146.4768  138.5779  152.1864 C   0  0  0  0  0  0  0  0  0  0  0  0
  147.0918  137.8982  153.3549 N   0  3  1  0  0  0  0  0  0  0  0  0
  147.5780  138.8585  154.3792 C   0  0  0  0  0  0  0  0  0  0  0  0
  149.1134  138.8479  154.5092 C   0  0  1  0  0  0  0  0  0  0  0  0
  149.6681  138.3382  153.3117 O   0  0  0  0  0  0  0  0  0  0  0  0
  149.6806  140.2553  154.7792 C   0  0  0  0  0  0  0  0  0  0  0  0
  150.6740  140.2576  155.8452 N   0  0  0  0  0  0  0  0  0  0  0  0
  151.7879  139.4916  155.9717 C   0  0  0  0  0  0  0  0  0  0  0  0
  152.1771  138.4656  154.9523 C   0  0  0  0  0  0  0  0  0  0  0  0
  152.0285  137.1449  155.4272 O   0  0  0  0  0  0  0  0  0  0  0  0
  152.5211  139.7110  157.0636 N   0  0  0  0  0  0  0  0  0  0  0  0
  151.8203  140.7128  157.7059 C   0  0  0  0  0  0  0  0  0  0  0  0
  152.0810  141.3831  158.9224 C   0  0  0  0  0  0  0  0  0  0  0  0
  151.2072  142.3893  159.3844 C   0  0  0  0  0  0  0  0  0  0  0  0
  150.0634  142.7397  158.6382 C   0  0  0  0  0  0  0  0  0  0  0  0
  149.7855  142.0846  157.4232 C   0  0  0  0  0  0  0  0  0  0  0  0
  150.6599  141.0799  156.9675 C   0  0  0  0  0  0  0  0  0  0  0  0
  146.1935  136.8501  153.9086 C   0  0  0  0  0  0  0  0  0  0  0  0
  145.8396  135.8041  152.8383 C   0  0  0  0  0  0  0  0  0  0  0  0
  145.7759  134.9213  150.1676 H   0  0  0  0  0  0  0  0  0  0  0  0
  144.4024  135.8976  149.6544 H   0  0  0  0  0  0  0  0  0  0  0  0
  144.1905  134.6645  150.8914 H   0  0  0  0  0  0  0  0  0  0  0  0
  144.2590  136.9214  151.9139 H   0  0  0  0  0  0  0  0  0  0  0  0
  147.0423  137.1298  150.6835 H   0  0  0  0  0  0  0  0  0  0  0  0
  145.6500  138.0907  150.2472 H   0  0  0  0  0  0  0  0  0  0  0  0
  147.1688  139.3191  151.7846 H   0  0  0  0  0  0  0  0  0  0  0  0
  145.5831  139.1170  152.5049 H   0  0  0  0  0  0  0  0  0  0  0  0
  147.2606  139.8709  154.1239 H   0  0  0  0  0  0  0  0  0  0  0  0
  147.1085  138.6279  155.3367 H   0  0  0  0  0  0  0  0  0  0  0  0
  149.4164  138.1915  155.3239 H   0  0  0  0  0  0  0  0  0  0  0  0
  149.5286  138.9673  152.6201 H   0  0  0  0  0  0  0  0  0  0  0  0
  150.1078  140.6816  153.8719 H   0  0  0  0  0  0  0  0  0  0  0  0
  148.8746  140.9276  155.0763 H   0  0  0  0  0  0  0  0  0  0  0  0
  151.5554  138.5868  154.0645 H   0  0  0  0  0  0  0  0  0  0  0  0
  153.2067  138.6266  154.6343 H   0  0  0  0  0  0  0  0  0  0  0  0
  152.0192  137.1630  156.3715 H   0  0  0  0  0  0  0  0  0  0  0  0
  152.9546  141.1226  159.5017 H   0  0  0  0  0  0  0  0  0  0  0  0
  151.4159  142.8950  160.3158 H   0  0  0  0  0  0  0  0  0  0  0  0
  149.3999  143.5118  158.9995 H   0  0  0  0  0  0  0  0  0  0  0  0
  148.9105  142.3514  156.8498 H   0  0  0  0  0  0  0  0  0  0  0  0
  146.6673  136.3457  154.7497 H   0  0  0  0  0  0  0  0  0  0  0  0
  145.2838  137.3135  154.2938 H   0  0  0  0  0  0  0  0  0  0  0  0
  145.1606  135.0630  153.2615 H   0  0  0  0  0  0  0  0  0  0  0  0
  146.7412  135.2641  152.5453 H   0  0  0  0  0  0  0  0  0  0  0  0
  147.9134  137.4265  153.0031 H   0  0  0  0  0  0  0  0  0  0  0  0
  1  2  1  0  0  0  0
  1 23  1  0  0  0  0
  1 24  1  0  0  0  0
  1 25  1  0  0  0  0
  2 22  1  0  0  0  0
  2  3  1  0  0  0  0
  2 26  1  0  0  0  0
  3  4  1  0  0  0  0
  3 27  1  0  0  0  0
  3 28  1  0  0  0  0
  4  5  1  0  0  0  0
  4 29  1  0  0  0  0
  4 30  1  0  0  0  0
  5  6  1  0  0  0  0
  5 21  1  0  0  0  0
  5 48  1  0  0  0  0
  6  7  1  0  0  0  0
  6 31  1  0  0  0  0
  6 32  1  0  0  0  0
  7  8  1  0  0  0  0
  7  9  1  0  0  0  0
  7 33  1  0  0  0  0
  8 34  1  0  0  0  0
  9 10  1  0  0  0  0
  9 35  1  0  0  0  0
  9 36  1  0  0  0  0
 10 20  1  0  0  0  0
 10 11  1  0  0  0  0
 11 12  1  0  0  0  0
 11 14  2  0  0  0  0
 12 13  1  0  0  0  0
 12 37  1  0  0  0  0
 12 38  1  0  0  0  0
 13 39  1  0  0  0  0
 14 15  1  0  0  0  0
 15 20  2  0  0  0  0
 15 16  1  0  0  0  0
 16 17  2  0  0  0  0
 16 40  1  0  0  0  0
 17 18  1  0  0  0  0
 17 41  1  0  0  0  0
 18 19  2  0  0  0  0
 18 42  1  0  0  0  0
 19 20  1  0  0  0  0
 19 43  1  0  0  0  0
 21 22  1  0  0  0  0
 21 44  1  0  0  0  0
 21 45  1  0  0  0  0
 22 46  1  0  0  0  0
 22 47  1  0  0  0  0
M  CHG  1   5   1
M  END
> <s_m_source_file>
AV-unprocessed.smi

> <i_m_source_file_index>
1672

> <i_lp_mmshare_version>
43012

> <i_f3d_flags>
0

> <s_epik_input>
W0NIM11bQ0hdMVtDSDJdW0NIMl1OKFtDSDJdW0NIMl0xKVtDSDJdW0NASF0oW09IXSlbQ0gyXW4oYyhuMilbQ0gyXVtPSF0pYyhjMjMpW2NIXVtjSF1bY0hdW2NIXTM=

> <s_epik_cmdline>
J2VwaWtfcHl0aG9uJywgJy1waCcsICc3LjAnLCAnLXRuJywgJzgnLCAnLW1hJywgJzIwMCcsICctbWV0YWxfYmluZGluZycsICctaW1hZScsICc8aW5maWxlLm1hZT4nLCAnLW9tYWUnLCAnPG91dGZpbGUubWFlPic=

> <r_epik_Ionization_Penalty>
0.0498263

> <r_epik_Ionization_Penalty_Charging>
0.00181365

> <r_epik_Ionization_Penalty_Neutral>
0.0480127

> <r_epik_State_Penalty>
0.0408546

> <r_epik_Charging_Adjusted_Penalty>
0.0426682

> <i_epik_Tot_Q>
1

> <i_epik_Tot_abs_Q>
1

> <r_epik_Metal_State_Penalty>
4.22946e-05

> <b_epik_Metal_Only>
0

> <s_lp_Force_Field>
OPLS_2005

> <r_lp_Energy>
23.0912

> <b_lp_Chiralities_Consistent>
1

> <s_lp_Variant>
AV-unprocessed.smi:1672-2

> <Gold.Version>
5.8.1

> <Gold.Id.Protein>
6NUR|6NUR_protein|mol2

> <Gold.PLP.Fitness>
52.3515

> <Gold.PLP.PLP>
-41.6251

> <Gold.PLP.part.hbond>
-5.5006

> <Gold.PLP.part.metal>
0.0000

> <Gold.PLP.part.buried>
0.0896

> <Gold.PLP.part.nonpolar>
-37.3018

> <Gold.PLP.part.repulsive>
0.0201

> <Gold.PLP.ligand.clash>
0.0000

> <Gold.PLP.ligand.torsion>
2.0398

> <Gold.PLP.Chemscore.Hbond>
4.8480

> <Gold.PLP.Chemscore.CHOScore>
0.0000

> <Gold.PLP.Chemscore.Metal>
0.0000

> <Gold.Chemscore.Hbonds>
donor molecule, donor type, donor heavy atom, donor atom, acceptor molecule, acceptor atom, score
      L1  H     5    48       P1  7948  2.00
      L1  H     8    34       P1  7957  1.00
      P1  H  7997  8009       L1    14  1.00
      P1  H 10752 10763       L1    13  0.93

> <Gold.PLP.Chemscore.Internal.Correction>
0.2620

> <Gold.Rescore>
     Score         DG    S(hbond)    S(metal)    S(lipo)     H(rot)  DE(clash)    DE(int)     intcor
     18.36     -20.90       3.50        0.00      94.79       2.88       0.50       2.04       ----

> <Gold.Chemscore.Fitness>
18.3610

> <Gold.Chemscore.DG>
-20.8992

> <Gold.Chemscore.ZeroCoef>
-5.4800

> <Gold.Chemscore.Hbond>
3.5017

> <Gold.Chemscore.Metal>
0.0000

> <Gold.Chemscore.Lipo>
94.7897

> <Gold.Chemscore.Internal_Hbond>
0.0000

> <Gold.Chemscore.DEClash>
0.4976

> <Gold.Chemscore.DEInternal>
2.0406

> <Gold.Chemscore.Rot>
2.8778

> <Gold.Chemscore.Internal.Correction>
   9.000000E+99

> <Gold.Chemscore.Hbonds>
donor molecule, donor type, donor heavy atom, donor atom, acceptor molecule, acceptor atom, score
      L1  H     5    48       P1  7948  0.98
      L1  H     8    34       P1  7957  0.93
      P1  H  7997  8009       L1    14  0.83
      P1  H 10752 10763       L1    13  0.75

> <Gold.Chemscore.Hbond.Weighted>
-11.6958

> <Gold.Chemscore.Metal.Weighted>
-0.0000

> <Gold.Chemscore.Lipo.Weighted>
-11.0904

> <Gold.Chemscore.Internal_Hbond.Weighted>
0.0000

> <Gold.Chemscore.DEClash.Weighted>
0.4976

> <Gold.Chemscore.DEInternal.Weighted>
2.0406

> <Gold.Chemscore.Rot.Weighted>
7.3671

> <Gold.Chemscore.Internal.Correction.Weighted>
   9.000000E+99

> <Gold.Protein.RotatedTorsions>
[ 6907 6896 6895 6894 ] final -112.98 input  -60.11 | X-H torsion
[ 7974 7965 7964 7962 ] final  128.69 input  175.53 | X-H torsion
[ 8008 7997 7996 7995 ] final  171.61 input   59.86 | X-H torsion
[ 10167 10162 10161 10158 ] final   82.89 input  -65.29 | X-H torsion
[ 10718 10713 10712 10709 ] final   63.32 input   66.30 | X-H torsion
[ 10763 10752 10751 10750 ] final   65.32 input  -60.55 | X-H torsion
[ 11005 11000 10999 10996 ] final  138.26 input  -57.11 | X-H torsion

> <Gold.Protein.ActiveResidues>
 VAL166  LYS551  ARG553  GLY616  TRP617  ASP618  TYR619  PRO620  LYS621  CYS622 
 ASP623  PHE694  ASN695  SER759  ASP760  ASP761  ALA762  ILE779  LEU786  VAL792 
 PHE793  MET794  SER795  GLU796  ALA797  LYS798  CYS799  TRP800  GLU811  SER814 

> <Gold.Protein.RotatedAtoms>
  150.7797  133.9011  159.3341 H   0  0  0  0  0  0  0  0  0  0  0  0  # atno 6907 bound_to 6896
  151.6877  135.0950  160.0237 H   0  0  0  0  0  0  0  0  0  0  0  0  # atno 6908 bound_to 6896
  152.3844  133.6552  159.6222 H   0  0  0  0  0  0  0  0  0  0  0  0  # atno 6909 bound_to 6896
  145.0367  139.3998  143.5122 H   0  0  0  0  0  0  0  0  0  0  0  0  # atno 7974 bound_to 7965
  156.1255  140.1507  156.9143 H   0  0  0  0  0  0  0  0  0  0  0  0  # atno 8008 bound_to 7997
  154.4868  140.0863  156.7545 H   0  0  0  0  0  0  0  0  0  0  0  0  # atno 8009 bound_to 7997
  155.4351  140.3429  155.4286 H   0  0  0  0  0  0  0  0  0  0  0  0  # atno 8010 bound_to 7997
  139.9241  144.6194  150.8410 H   0  0  0  0  0  0  0  0  0  0  0  0  # atno 10167 bound_to 10162
  157.5963  130.9099  149.9701 H   0  0  0  0  0  0  0  0  0  0  0  0  # atno 10718 bound_to 10713
  153.0092  135.5361  154.6649 H   0  0  0  0  0  0  0  0  0  0  0  0  # atno 10763 bound_to 10752
  154.5848  135.2853  155.0698 H   0  0  0  0  0  0  0  0  0  0  0  0  # atno 10764 bound_to 10752
  154.1813  135.6516  153.5087 H   0  0  0  0  0  0  0  0  0  0  0  0  # atno 10765 bound_to 10752
  140.0171  134.9413  157.0398 H   0  0  0  0  0  0  0  0  0  0  0  0  # atno 11005 bound_to 11000
  146.3505  139.9947  142.8682 LP  0  0  0  0  0  0  0  0  0  0  0  0  # atno 17320 bound_to 7965
  145.1700  140.9716  143.4327 LP  0  0  0  0  0  0  0  0  0  0  0  0  # atno 17321 bound_to 7965
  140.7654  143.3276  151.2482 LP  0  0  0  0  0  0  0  0  0  0  0  0  # atno 17342 bound_to 10162
  139.6837  143.9811  152.2822 LP  0  0  0  0  0  0  0  0  0  0  0  0  # atno 17343 bound_to 10162
  156.1026  130.3655  150.0191 LP  0  0  0  0  0  0  0  0  0  0  0  0  # atno 17370 bound_to 10713
  156.8303  130.9390  151.3637 LP  0  0  0  0  0  0  0  0  0  0  0  0  # atno 17371 bound_to 10713
  140.4452  134.1640  155.7177 LP  0  0  0  0  0  0  0  0  0  0  0  0  # atno 17394 bound_to 11000
  141.1750  133.8533  157.1451 LP  0  0  0  0  0  0  0  0  0  0  0  0  # atno 17395 bound_to 11000

$$$$
