AV-unprocessed.smi:3232|AV-procd|sdf|12339|dock5
  -GOLD-   2272018203D 1   1.00000     0.00000
 Structure written by MMmdl.
 40 41  0  0  0  0  0  0  0  0  2 V2000
  147.5770  135.2722  155.0252 C   0  0  0  0  0  0  0  0  0  0  0  0
  146.4632  135.5348  154.0029 C   0  0  0  0  0  0  0  0  0  0  0  0
  146.7250  134.8671  152.7049 N   0  3  2  0  0  0  0  0  0  0  0  0
  145.7190  135.1363  151.6562 C   0  0  0  0  0  0  0  0  0  0  0  0
  145.8513  133.9759  150.6792 C   0  0  0  0  0  0  0  0  0  0  0  0
  146.1436  132.7927  151.5951 C   0  0  0  0  0  0  0  0  0  0  0  0
  146.8964  133.3948  152.7992 C   0  0  1  0  0  0  0  0  0  0  0  0
  148.3951  133.0301  152.8336 C   0  0  0  0  0  0  0  0  0  0  0  0
  148.6139  131.5880  152.8696 N   0  0  0  0  0  0  0  0  0  0  0  0
  148.3618  130.7980  153.9261 C   0  0  0  0  0  0  0  0  0  0  0  0
  147.8988  131.2287  154.9832 O   0  0  0  0  0  0  0  0  0  0  0  0
  148.6677  129.3002  153.7489 C   0  0  2  0  0  0  0  0  0  0  0  0
  150.1722  128.9749  153.8466 C   0  0  0  0  0  0  0  0  0  0  0  0
  148.0867  128.7979  152.5094 N   0  0  0  0  0  0  0  0  0  0  0  0
  148.6303  128.0484  151.5479 C   0  0  0  0  0  0  0  0  0  0  0  0
  147.7936  127.7410  150.5669 N   0  0  0  0  0  0  0  0  0  0  0  0
  146.6699  128.3721  151.0193 C   0  0  0  0  0  0  0  0  0  0  0  0
  146.7877  129.0119  152.1827 N   0  0  0  0  0  0  0  0  0  0  0  0
  147.3319  135.7251  155.9861 H   0  0  0  0  0  0  0  0  0  0  0  0
  148.5291  135.6922  154.7003 H   0  0  0  0  0  0  0  0  0  0  0  0
  147.7177  134.2035  155.1891 H   0  0  0  0  0  0  0  0  0  0  0  0
  145.5236  135.1563  154.4077 H   0  0  0  0  0  0  0  0  0  0  0  0
  146.3299  136.6071  153.8521 H   0  0  0  0  0  0  0  0  0  0  0  0
  144.7182  135.1359  152.0915 H   0  0  0  0  0  0  0  0  0  0  0  0
  145.8799  136.1026  151.1770 H   0  0  0  0  0  0  0  0  0  0  0  0
  144.9608  133.8313  150.0668 H   0  0  0  0  0  0  0  0  0  0  0  0
  146.6971  134.1470  150.0117 H   0  0  0  0  0  0  0  0  0  0  0  0
  145.2028  132.3583  151.9363 H   0  0  0  0  0  0  0  0  0  0  0  0
  146.6950  132.0053  151.0805 H   0  0  0  0  0  0  0  0  0  0  0  0
  146.4170  133.0345  153.7116 H   0  0  0  0  0  0  0  0  0  0  0  0
  148.8968  133.4269  151.9502 H   0  0  0  0  0  0  0  0  0  0  0  0
  148.8816  133.4926  153.6944 H   0  0  0  0  0  0  0  0  0  0  0  0
  148.9958  131.1610  152.0379 H   0  0  0  0  0  0  0  0  0  0  0  0
  148.1713  128.7791  154.5691 H   0  0  0  0  0  0  0  0  0  0  0  0
  150.5823  129.2872  154.8077 H   0  0  0  0  0  0  0  0  0  0  0  0
  150.7492  129.4697  153.0640 H   0  0  0  0  0  0  0  0  0  0  0  0
  150.3437  127.9022  153.7534 H   0  0  0  0  0  0  0  0  0  0  0  0
  149.6581  127.7166  151.5675 H   0  0  0  0  0  0  0  0  0  0  0  0
  145.7352  128.3538  150.4782 H   0  0  0  0  0  0  0  0  0  0  0  0
  147.6023  135.2238  152.3538 H   0  0  0  0  0  0  0  0  0  0  0  0
  1  2  1  0  0  0  0
  1 19  1  0  0  0  0
  1 20  1  0  0  0  0
  1 21  1  0  0  0  0
  2  3  1  0  0  0  0
  2 22  1  0  0  0  0
  2 23  1  0  0  0  0
  3  7  1  0  0  0  0
  3  4  1  0  0  0  0
  3 40  1  0  0  0  0
  4  5  1  0  0  0  0
  4 24  1  0  0  0  0
  4 25  1  0  0  0  0
  5  6  1  0  0  0  0
  5 26  1  0  0  0  0
  5 27  1  0  0  0  0
  6  7  1  0  0  0  0
  6 28  1  0  0  0  0
  6 29  1  0  0  0  0
  7  8  1  0  0  0  0
  7 30  1  0  0  0  0
  8  9  1  0  0  0  0
  8 31  1  0  0  0  0
  8 32  1  0  0  0  0
  9 10  1  0  0  0  0
  9 33  1  0  0  0  0
 10 11  2  0  0  0  0
 10 12  1  0  0  0  0
 12 13  1  0  0  0  0
 12 14  1  0  0  0  0
 12 34  1  0  0  0  0
 13 35  1  0  0  0  0
 13 36  1  0  0  0  0
 13 37  1  0  0  0  0
 14 18  1  0  0  0  0
 14 15  1  0  0  0  0
 15 16  2  0  0  0  0
 15 38  1  0  0  0  0
 16 17  1  0  0  0  0
 17 18  2  0  0  0  0
 17 39  1  0  0  0  0
M  CHG  1   3   1
M  END
> <s_m_source_file>
AV-unprocessed.smi

> <i_m_source_file_index>
3232

> <i_lp_mmshare_version>
43012

> <i_f3d_flags>
0

> <s_epik_input>
W0NIM11bQ0gyXU4xW0NIMl1bQ0gyXVtDSDJdW0NASF0xW0NIMl1bTkhdQyg9TylbQ0BIXShbQ0gzXSluMltjSF1uW2NIXW4y

> <s_epik_cmdline>
J2VwaWtfcHl0aG9uJywgJy1waCcsICc3LjAnLCAnLXRuJywgJzgnLCAnLW1hJywgJzIwMCcsICctbWV0YWxfYmluZGluZycsICctaW1hZScsICc8aW5maWxlLm1hZT4nLCAnLW9tYWUnLCAnPG91dGZpbGUubWFlPic=

> <r_lp_tautomer_probability>
1

> <r_epik_Ionization_Penalty>
0.00177695

> <r_epik_Ionization_Penalty_Charging>
0.00176881

> <r_epik_Ionization_Penalty_Neutral>
8.13528e-06

> <r_epik_State_Penalty>
0.00119827

> <r_epik_Charging_Adjusted_Penalty>
0.00296709

> <i_epik_Tot_Q>
1

> <i_epik_Tot_abs_Q>
1

> <r_epik_Metal_State_Penalty>
-0

> <b_epik_Metal_Only>
0

> <s_lp_Force_Field>
OPLS_2005

> <r_lp_Energy>
33.6963

> <b_lp_Chiralities_Consistent>
1

> <s_lp_Variant>
AV-unprocessed.smi:3232-1

> <Gold.Version>
5.8.1

> <Gold.Id.Protein>
6NUR|6NUR_protein|mol2

> <Gold.PLP.Fitness>
39.9131

> <Gold.PLP.PLP>
-28.8181

> <Gold.PLP.part.hbond>
-2.0000

> <Gold.PLP.part.metal>
0.0000

> <Gold.PLP.part.buried>
-4.2989

> <Gold.PLP.part.nonpolar>
-23.1645

> <Gold.PLP.part.repulsive>
0.2714

> <Gold.PLP.ligand.clash>
0.0000

> <Gold.PLP.ligand.torsion>
0.5168

> <Gold.PLP.Chemscore.Hbond>
3.0000

> <Gold.PLP.Chemscore.CHOScore>
1.0000

> <Gold.PLP.Chemscore.Metal>
0.0000

> <Gold.Chemscore.Hbonds>
donor molecule, donor type, donor heavy atom, donor atom, acceptor molecule, acceptor atom, score
      L1  H     3    40       P1  7948  2.00
      L1  H     9    33       P1 10747  1.00
      L1  C    15    38       P1 10737  1.00

> <Gold.PLP.Chemscore.Internal.Correction>
0.1286

> <Gold.Rescore>
     Score         DG    S(hbond)    S(metal)    S(lipo)     H(rot)  DE(clash)    DE(int)     intcor
      9.06      -9.57       1.59        0.00      44.17       2.49       0.09       0.43       ----

> <Gold.Chemscore.Fitness>
9.0571

> <Gold.Chemscore.DG>
-9.5733

> <Gold.Chemscore.ZeroCoef>
-5.4800

> <Gold.Chemscore.Hbond>
1.5853

> <Gold.Chemscore.Metal>
0.0000

> <Gold.Chemscore.Lipo>
44.1726

> <Gold.Chemscore.Internal_Hbond>
0.0000

> <Gold.Chemscore.DEClash>
0.0859

> <Gold.Chemscore.DEInternal>
0.4303

> <Gold.Chemscore.Rot>
2.4882

> <Gold.Chemscore.Internal.Correction>
   9.000000E+99

> <Gold.Chemscore.Hbonds>
donor molecule, donor type, donor heavy atom, donor atom, acceptor molecule, acceptor atom, score
      L1  H     3    40       P1  7948  1.00
      L1  H     9    33       P1 10747  0.58

> <Gold.Chemscore.Hbond.Weighted>
-5.2948

> <Gold.Chemscore.Metal.Weighted>
-0.0000

> <Gold.Chemscore.Lipo.Weighted>
-5.1682

> <Gold.Chemscore.Internal_Hbond.Weighted>
0.0000

> <Gold.Chemscore.DEClash.Weighted>
0.0859

> <Gold.Chemscore.DEInternal.Weighted>
0.4303

> <Gold.Chemscore.Rot.Weighted>
6.3697

> <Gold.Chemscore.Internal.Correction.Weighted>
   9.000000E+99

> <Gold.Protein.RotatedTorsions>
[ 6907 6896 6895 6894 ] final -167.22 input  -60.11 | X-H torsion
[ 7974 7965 7964 7962 ] final   60.86 input  175.53 | X-H torsion
[ 8008 7997 7996 7995 ] final  -53.74 input   59.86 | X-H torsion
[ 10167 10162 10161 10158 ] final  -83.32 input  -65.29 | X-H torsion
[ 10718 10713 10712 10709 ] final  -99.07 input   66.30 | X-H torsion
[ 10763 10752 10751 10750 ] final  -78.12 input  -60.55 | X-H torsion
[ 11005 11000 10999 10996 ] final   17.52 input  -57.11 | X-H torsion

> <Gold.Protein.ActiveResidues>
 VAL166  LYS551  ARG553  GLY616  TRP617  ASP618  TYR619  PRO620  LYS621  CYS622 
 ASP623  PHE694  ASN695  SER759  ASP760  ASP761  ALA762  ILE779  LEU786  VAL792 
 PHE793  MET794  SER795  GLU796  ALA797  LYS798  CYS799  TRP800  GLU811  SER814 

> <Gold.Protein.RotatedAtoms>
  151.4561  133.3605  159.2802 H   0  0  0  0  0  0  0  0  0  0  0  0  # atno 6907 bound_to 6896
  150.9057  134.8474  159.7402 H   0  0  0  0  0  0  0  0  0  0  0  0  # atno 6908 bound_to 6896
  152.4905  134.4486  159.9619 H   0  0  0  0  0  0  0  0  0  0  0  0  # atno 6909 bound_to 6896
  145.8912  139.3513  143.0648 H   0  0  0  0  0  0  0  0  0  0  0  0  # atno 7974 bound_to 7965
  154.4142  140.1193  156.5202 H   0  0  0  0  0  0  0  0  0  0  0  0  # atno 8008 bound_to 7997
  155.6710  140.3496  155.4799 H   0  0  0  0  0  0  0  0  0  0  0  0  # atno 8009 bound_to 7997
  155.9633  140.1127  157.0867 H   0  0  0  0  0  0  0  0  0  0  0  0  # atno 8010 bound_to 7997
  140.4238  143.2574  151.8854 H   0  0  0  0  0  0  0  0  0  0  0  0  # atno 10167 bound_to 10162
  156.0124  130.5266  150.6615 H   0  0  0  0  0  0  0  0  0  0  0  0  # atno 10718 bound_to 10713
  154.5218  135.5741  153.6687 H   0  0  0  0  0  0  0  0  0  0  0  0  # atno 10763 bound_to 10752
  152.9919  135.6183  154.2745 H   0  0  0  0  0  0  0  0  0  0  0  0  # atno 10764 bound_to 10752
  154.2666  135.2854  155.2735 H   0  0  0  0  0  0  0  0  0  0  0  0  # atno 10765 bound_to 10752
  140.4350  134.1380  155.7684 H   0  0  0  0  0  0  0  0  0  0  0  0  # atno 11005 bound_to 11000
  145.8905  140.9306  143.0554 LP  0  0  0  0  0  0  0  0  0  0  0  0  # atno 17320 bound_to 7965
  144.6730  140.0900  143.7465 LP  0  0  0  0  0  0  0  0  0  0  0  0  # atno 17321 bound_to 7965
  139.4783  144.5409  151.8530 LP  0  0  0  0  0  0  0  0  0  0  0  0  # atno 17342 bound_to 10162
  140.4504  144.1863  150.5897 LP  0  0  0  0  0  0  0  0  0  0  0  0  # atno 17343 bound_to 10162
  157.4357  131.0855  151.0994 LP  0  0  0  0  0  0  0  0  0  0  0  0  # atno 17370 bound_to 10713
  157.1554  130.6202  149.5594 LP  0  0  0  0  0  0  0  0  0  0  0  0  # atno 17371 bound_to 10713
  141.1729  133.8572  157.1512 LP  0  0  0  0  0  0  0  0  0  0  0  0  # atno 17394 bound_to 11000
  140.0108  134.9989  157.0391 LP  0  0  0  0  0  0  0  0  0  0  0  0  # atno 17395 bound_to 11000

$$$$
