AV-unprocessed.smi:2202|AV-procd|sdf|8931|dock6
  -GOLD-   2272012143D 1   1.00000     0.00000
 Structure written by MMmdl.
 42 44  0  0  0  0  0  0  0  0  1 V2000
  151.8771  136.1365  157.5477 O   0  0  0  0  0  0  0  0  0  0  0  0
  151.1952  137.1132  157.2333 C   0  0  0  0  0  0  0  0  0  0  0  0
  151.7731  138.2313  156.3538 C   0  0  0  0  0  0  0  0  0  0  0  0
  151.8564  139.5265  157.0408 N   0  0  0  0  0  0  0  0  0  0  0  0
  151.5053  140.7042  156.4877 C   0  0  0  0  0  0  0  0  0  0  0  0
  151.0018  140.8858  155.3796 O   0  0  0  0  0  0  0  0  0  0  0  0
  151.9016  141.8301  157.4307 C   0  0  1  0  0  0  0  0  0  0  0  0
  151.0721  143.1101  157.5883 C   0  0  0  0  0  0  0  0  0  0  0  0
  151.6183  143.8840  158.7928 C   0  0  0  0  0  0  0  0  0  0  0  0
  152.4376  143.3420  159.7272 C   0  0  0  0  0  0  0  0  0  0  0  0
  152.8865  141.8769  159.7179 C   0  0  0  0  0  0  0  0  0  0  0  0
  151.9702  141.1056  158.7603 C   0  0  2  0  0  0  0  0  0  0  0  0
  152.2543  139.6779  158.3197 C   0  0  0  0  0  0  0  0  0  0  0  0
  152.7101  138.8106  159.0644 O   0  0  0  0  0  0  0  0  0  0  0  0
  149.9244  137.2783  157.6298 N   0  0  0  0  0  0  0  0  0  0  0  0
  149.1767  136.3367  158.4555 C   0  0  0  0  0  0  0  0  0  0  0  0
  147.9172  136.9858  159.0539 C   0  0  0  0  0  0  0  0  0  0  0  0
  147.5624  136.4098  160.4117 C   0  0  0  0  0  0  0  0  0  0  0  0
  147.3793  135.0204  160.5800 C   0  0  0  0  0  0  0  0  0  0  0  0
  147.0473  134.5381  161.8610 C   0  0  0  0  0  0  0  0  0  0  0  0
  146.9106  135.4585  162.9181 C   0  0  0  0  0  0  0  0  0  0  0  0
  147.1122  136.8264  162.6458 C   0  0  0  0  0  0  0  0  0  0  0  0
  147.4306  137.2993  161.4215 N   0  0  0  0  0  0  0  0  0  0  0  0
  152.7656  137.9371  156.0073 H   0  0  0  0  0  0  0  0  0  0  0  0
  151.1584  138.3185  155.4564 H   0  0  0  0  0  0  0  0  0  0  0  0
  152.9085  142.1237  157.1242 H   0  0  0  0  0  0  0  0  0  0  0  0
  151.1560  143.7264  156.6928 H   0  0  0  0  0  0  0  0  0  0  0  0
  150.0147  142.8904  157.7408 H   0  0  0  0  0  0  0  0  0  0  0  0
  151.3225  144.9195  158.8771 H   0  0  0  0  0  0  0  0  0  0  0  0
  152.8046  143.9555  160.5368 H   0  0  0  0  0  0  0  0  0  0  0  0
  153.9324  141.8140  159.4155 H   0  0  0  0  0  0  0  0  0  0  0  0
  152.8084  141.4675  160.7255 H   0  0  0  0  0  0  0  0  0  0  0  0
  150.9742  141.0752  159.2087 H   0  0  0  0  0  0  0  0  0  0  0  0
  149.4379  138.1116  157.3319 H   0  0  0  0  0  0  0  0  0  0  0  0
  148.9141  135.4534  157.8704 H   0  0  0  0  0  0  0  0  0  0  0  0
  149.8326  135.9946  159.2565 H   0  0  0  0  0  0  0  0  0  0  0  0
  148.0628  138.0628  159.1483 H   0  0  0  0  0  0  0  0  0  0  0  0
  147.0662  136.8507  158.3844 H   0  0  0  0  0  0  0  0  0  0  0  0
  147.4893  134.3392  159.7490 H   0  0  0  0  0  0  0  0  0  0  0  0
  146.8998  133.4815  162.0295 H   0  0  0  0  0  0  0  0  0  0  0  0
  146.6568  135.1248  163.9133 H   0  0  0  0  0  0  0  0  0  0  0  0
  147.0147  137.5603  163.4321 H   0  0  0  0  0  0  0  0  0  0  0  0
  1  2  2  0  0  0  0
  2  3  1  0  0  0  0
  2 15  1  0  0  0  0
  3  4  1  0  0  0  0
  3 24  1  0  0  0  0
  3 25  1  0  0  0  0
  4 13  1  0  0  0  0
  4  5  1  0  0  0  0
  5  6  2  0  0  0  0
  5  7  1  0  0  0  0
  7 12  1  0  0  0  0
  7  8  1  0  0  0  0
  7 26  1  0  0  0  0
  8  9  1  0  0  0  0
  8 27  1  0  0  0  0
  8 28  1  0  0  0  0
  9 10  2  0  0  0  0
  9 29  1  0  0  0  0
 10 11  1  0  0  0  0
 10 30  1  0  0  0  0
 11 12  1  0  0  0  0
 11 31  1  0  0  0  0
 11 32  1  0  0  0  0
 12 13  1  0  0  0  0
 12 33  1  0  0  0  0
 13 14  2  0  0  0  0
 15 16  1  0  0  0  0
 15 34  1  0  0  0  0
 16 17  1  0  0  0  0
 16 35  1  0  0  0  0
 16 36  1  0  0  0  0
 17 18  1  0  0  0  0
 17 37  1  0  0  0  0
 17 38  1  0  0  0  0
 18 23  1  0  0  0  0
 18 19  2  0  0  0  0
 19 20  1  0  0  0  0
 19 39  1  0  0  0  0
 20 21  2  0  0  0  0
 20 40  1  0  0  0  0
 21 22  1  0  0  0  0
 21 41  1  0  0  0  0
 22 23  2  0  0  0  0
 22 42  1  0  0  0  0
M  END
> <s_m_source_file>
AV-unprocessed.smi

> <i_m_source_file_index>
2202

> <i_lp_mmshare_version>
43012

> <i_f3d_flags>
0

> <s_epik_input>
W0NIMl0xW0NIXT1bQ0hdW0NIMl1bQ0BIXShbQ0BIXTEyKUMoPU8pTihDMj1PKVtDSDJdQyg9TylbTkhdW0NIMl1bQ0gyXWMzW2NIXVtjSF1bY0hdW2NIXW4z

> <s_epik_cmdline>
J2VwaWtfcHl0aG9uJywgJy1waCcsICc3LjAnLCAnLXRuJywgJzgnLCAnLW1hJywgJzIwMCcsICctbWV0YWxfYmluZGluZycsICctaW1hZScsICc8aW5maWxlLm1hZT4nLCAnLW9tYWUnLCAnPG91dGZpbGUubWFlPic=

> <r_lp_tautomer_probability>
1

> <r_epik_Ionization_Penalty>
0.0244696

> <r_epik_Ionization_Penalty_Charging>
0

> <r_epik_Ionization_Penalty_Neutral>
0.0244696

> <r_epik_State_Penalty>
0.0198648

> <r_epik_Charging_Adjusted_Penalty>
0.0198648

> <i_epik_Tot_Q>
0

> <i_epik_Tot_abs_Q>
0

> <r_epik_Metal_State_Penalty>
0.0190699

> <b_epik_Metal_Only>
0

> <s_lp_Force_Field>
OPLS_2005

> <r_lp_Energy>
20.8302

> <b_lp_Chiralities_Consistent>
1

> <s_lp_Variant>
AV-unprocessed.smi:2202-3

> <Gold.Version>
5.8.1

> <Gold.Id.Protein>
6NUR|6NUR_protein|mol2

> <Gold.PLP.Fitness>
51.4007

> <Gold.PLP.PLP>
-44.9984

> <Gold.PLP.part.hbond>
-3.6635

> <Gold.PLP.part.metal>
0.0000

> <Gold.PLP.part.buried>
-4.8406

> <Gold.PLP.part.nonpolar>
-35.8085

> <Gold.PLP.part.repulsive>
0.1127

> <Gold.PLP.ligand.clash>
0.0000

> <Gold.PLP.ligand.torsion>
0.5887

> <Gold.PLP.Chemscore.Hbond>
2.5168

> <Gold.PLP.Chemscore.CHOScore>
0.0000

> <Gold.PLP.Chemscore.Metal>
0.0000

> <Gold.Chemscore.Hbonds>
donor molecule, donor type, donor heavy atom, donor atom, acceptor molecule, acceptor atom, score
      P1  H  6931  6943       L1    23  0.78
      P1  H  6934  6947       L1    23  0.90
      P1  H  7989  7998       L1     6  0.75

> <Gold.PLP.Chemscore.Internal.Correction>
0.0293

> <Gold.Rescore>
     Score         DG    S(hbond)    S(metal)    S(lipo)     H(rot)  DE(clash)    DE(int)     intcor
     18.28     -20.67       2.02        0.00     112.68       1.85       0.63       1.77       ----

> <Gold.Chemscore.Fitness>
18.2752

> <Gold.Chemscore.DG>
-20.6741

> <Gold.Chemscore.ZeroCoef>
-5.4800

> <Gold.Chemscore.Hbond>
2.0231

> <Gold.Chemscore.Metal>
0.0000

> <Gold.Chemscore.Lipo>
112.6778

> <Gold.Chemscore.Internal_Hbond>
0.0000

> <Gold.Chemscore.DEClash>
0.6335

> <Gold.Chemscore.DEInternal>
1.7653

> <Gold.Chemscore.Rot>
1.8540

> <Gold.Chemscore.Internal.Correction>
   9.000000E+99

> <Gold.Chemscore.Hbonds>
donor molecule, donor type, donor heavy atom, donor atom, acceptor molecule, acceptor atom, score
      P1  H  6931  6943       L1    23  0.14
      P1  H  6934  6947       L1    23  0.83
      P1  H  7989  7998       L1     6  0.72

> <Gold.Chemscore.Hbond.Weighted>
-6.7570

> <Gold.Chemscore.Metal.Weighted>
-0.0000

> <Gold.Chemscore.Lipo.Weighted>
-13.1833

> <Gold.Chemscore.Internal_Hbond.Weighted>
0.0000

> <Gold.Chemscore.DEClash.Weighted>
0.6335

> <Gold.Chemscore.DEInternal.Weighted>
1.7653

> <Gold.Chemscore.Rot.Weighted>
4.7462

> <Gold.Chemscore.Internal.Correction.Weighted>
   9.000000E+99

> <Gold.Protein.RotatedTorsions>
[ 6907 6896 6895 6894 ] final  140.63 input  -60.11 | X-H torsion
[ 7974 7965 7964 7962 ] final -139.38 input  175.53 | X-H torsion
[ 8008 7997 7996 7995 ] final  -82.88 input   59.86 | X-H torsion
[ 10167 10162 10161 10158 ] final  -81.31 input  -65.29 | X-H torsion
[ 10718 10713 10712 10709 ] final   19.60 input   66.30 | X-H torsion
[ 10763 10752 10751 10750 ] final   86.36 input  -60.55 | X-H torsion
[ 11005 11000 10999 10996 ] final  -50.72 input  -57.11 | X-H torsion

> <Gold.Protein.ActiveResidues>
 VAL166  LYS551  ARG553  GLY616  TRP617  ASP618  TYR619  PRO620  LYS621  CYS622 
 ASP623  PHE694  ASN695  SER759  ASP760  ASP761  ALA762  ILE779  LEU786  VAL792 
 PHE793  MET794  SER795  GLU796  ALA797  LYS798  CYS799  TRP800  GLU811  SER814 

> <Gold.Protein.RotatedAtoms>
  152.2407  133.5133  159.5268 H   0  0  0  0  0  0  0  0  0  0  0  0  # atno 6907 bound_to 6896
  150.7063  134.1093  159.4003 H   0  0  0  0  0  0  0  0  0  0  0  0  # atno 6908 bound_to 6896
  151.9013  135.0377  160.0557 H   0  0  0  0  0  0  0  0  0  0  0  0  # atno 6909 bound_to 6896
  144.8681  140.6325  143.5284 H   0  0  0  0  0  0  0  0  0  0  0  0  # atno 7974 bound_to 7965
  154.6132  140.0627  156.9521 H   0  0  0  0  0  0  0  0  0  0  0  0  # atno 8008 bound_to 7997
  155.1938  140.3309  155.4336 H   0  0  0  0  0  0  0  0  0  0  0  0  # atno 8009 bound_to 7997
  156.2389  140.1876  156.7026 H   0  0  0  0  0  0  0  0  0  0  0  0  # atno 8010 bound_to 7997
  140.4424  143.2510  151.8607 H   0  0  0  0  0  0  0  0  0  0  0  0  # atno 10167 bound_to 10162
  157.1127  130.6516  149.5902 H   0  0  0  0  0  0  0  0  0  0  0  0  # atno 10718 bound_to 10713
  153.1563  135.4583  154.9709 H   0  0  0  0  0  0  0  0  0  0  0  0  # atno 10763 bound_to 10752
  154.7864  135.3205  154.7880 H   0  0  0  0  0  0  0  0  0  0  0  0  # atno 10764 bound_to 10752
  153.8377  135.6933  153.4861 H   0  0  0  0  0  0  0  0  0  0  0  0  # atno 10765 bound_to 10752
  141.0831  133.6648  156.3772 H   0  0  0  0  0  0  0  0  0  0  0  0  # atno 11005 bound_to 11000
  145.4182  139.1568  143.4088 LP  0  0  0  0  0  0  0  0  0  0  0  0  # atno 17320 bound_to 7965
  146.2911  140.4291  142.8739 LP  0  0  0  0  0  0  0  0  0  0  0  0  # atno 17321 bound_to 7965
  139.4790  144.5214  151.8796 LP  0  0  0  0  0  0  0  0  0  0  0  0  # atno 17342 bound_to 10162
  140.4303  144.2124  150.5888 LP  0  0  0  0  0  0  0  0  0  0  0  0  # atno 17343 bound_to 10162
  155.9846  130.4872  150.6993 LP  0  0  0  0  0  0  0  0  0  0  0  0  # atno 17370 bound_to 10713
  157.4545  131.0876  151.0811 LP  0  0  0  0  0  0  0  0  0  0  0  0  # atno 17371 bound_to 10713
  140.5423  134.6108  157.5383 LP  0  0  0  0  0  0  0  0  0  0  0  0  # atno 17394 bound_to 11000
  139.9647  134.7393  156.0163 LP  0  0  0  0  0  0  0  0  0  0  0  0  # atno 17395 bound_to 11000

$$$$
