AV-unprocessed.smi:910|AV-procd|sdf|4122|dock9
  -GOLD-   22720 2 23D 1   1.00000     0.00000
 Structure written by MMmdl.
 46 47  0  0  0  0  0  0  0  0  1 V2000
  145.7865  132.0684  149.3535 C   0  0  0  0  0  0  0  0  0  0  0  0
  146.1591  132.7049  150.6744 C   0  0  0  0  0  0  0  0  0  0  0  0
  147.4059  132.5642  151.2211 N   0  0  0  0  0  0  0  0  0  0  0  0
  147.4299  133.2497  152.4256 C   0  0  0  0  0  0  0  0  0  0  0  0
  148.4221  133.3729  153.2514 N   0  0  0  0  0  0  0  0  0  0  0  0
  148.2186  134.0982  154.4134 C   0  0  0  0  0  0  0  0  0  0  0  0
  147.5822  133.7527  155.4140 O   0  0  0  0  0  0  0  0  0  0  0  0
  148.7714  135.3162  154.3085 N   0  0  0  0  0  0  0  0  0  0  0  0
  148.6726  136.3812  155.3014 C   0  0  0  0  0  0  0  0  0  0  0  0
  147.7523  137.5092  154.8149 C   0  0  0  0  0  0  0  0  0  0  0  0
  148.3219  138.7605  155.1667 O   0  0  0  0  0  0  0  0  0  0  0  0
  149.1506  139.3387  154.1658 C   0  0  2  0  0  0  0  0  0  0  0  0
  150.5048  138.6061  154.2008 C   0  0  0  0  0  0  0  0  0  0  0  0
  151.2645  138.8628  155.5135 C   0  0  0  0  0  0  0  0  0  0  0  0
  151.4424  140.3665  155.7694 C   0  0  0  0  0  0  0  0  0  0  0  0
  150.0899  141.0940  155.7538 C   0  0  0  0  0  0  0  0  0  0  0  0
  149.3284  140.8522  154.4362 C   0  0  2  0  0  0  0  0  0  0  0  0
  148.0002  141.6237  154.4048 C   0  0  0  0  0  0  0  0  0  0  0  0
  146.1791  133.8013  152.5838 O   0  0  0  0  0  0  0  0  0  0  0  0
  145.4308  133.4507  151.5018 C   0  0  0  0  0  0  0  0  0  0  0  0
  143.9956  133.9212  151.4281 C   0  0  0  0  0  0  0  0  0  0  0  0
  144.9413  131.3929  149.4861 H   0  0  0  0  0  0  0  0  0  0  0  0
  146.6212  131.4991  148.9442 H   0  0  0  0  0  0  0  0  0  0  0  0
  145.5058  132.8351  148.6315 H   0  0  0  0  0  0  0  0  0  0  0  0
  148.1496  132.0378  150.7869 H   0  0  0  0  0  0  0  0  0  0  0  0
  149.2682  135.5342  153.4569 H   0  0  0  0  0  0  0  0  0  0  0  0
  148.3361  135.9949  156.2650 H   0  0  0  0  0  0  0  0  0  0  0  0
  149.6760  136.7760  155.4609 H   0  0  0  0  0  0  0  0  0  0  0  0
  147.6407  137.4599  153.7312 H   0  0  0  0  0  0  0  0  0  0  0  0
  146.7587  137.3931  155.2497 H   0  0  0  0  0  0  0  0  0  0  0  0
  148.7170  139.1967  153.1736 H   0  0  0  0  0  0  0  0  0  0  0  0
  150.3525  137.5353  154.0630 H   0  0  0  0  0  0  0  0  0  0  0  0
  151.1164  138.9390  153.3614 H   0  0  0  0  0  0  0  0  0  0  0  0
  150.7219  138.4135  156.3465 H   0  0  0  0  0  0  0  0  0  0  0  0
  152.2384  138.3737  155.4810 H   0  0  0  0  0  0  0  0  0  0  0  0
  151.9372  140.5245  156.7282 H   0  0  0  0  0  0  0  0  0  0  0  0
  152.0971  140.7931  155.0087 H   0  0  0  0  0  0  0  0  0  0  0  0
  149.4875  140.7504  156.5943 H   0  0  0  0  0  0  0  0  0  0  0  0
  150.2478  142.1625  155.9029 H   0  0  0  0  0  0  0  0  0  0  0  0
  149.9424  141.2530  153.6283 H   0  0  0  0  0  0  0  0  0  0  0  0
  147.3414  141.3181  155.2177 H   0  0  0  0  0  0  0  0  0  0  0  0
  147.4726  141.4608  153.4648 H   0  0  0  0  0  0  0  0  0  0  0  0
  148.1689  142.6960  154.5059 H   0  0  0  0  0  0  0  0  0  0  0  0
  143.6459  133.9323  150.3957 H   0  0  0  0  0  0  0  0  0  0  0  0
  143.9032  134.9280  151.8340 H   0  0  0  0  0  0  0  0  0  0  0  0
  143.3528  133.2565  152.0051 H   0  0  0  0  0  0  0  0  0  0  0  0
  1 22  1  0  0  0  0
  1 23  1  0  0  0  0
  1 24  1  0  0  0  0
  1  2  1  0  0  0  0
  2  3  1  0  0  0  0
  2 20  2  0  0  0  0
  3 25  1  0  0  0  0
  3  4  1  0  0  0  0
  4 19  1  0  0  0  0
  4  5  2  0  0  0  0
  5  6  1  0  0  0  0
  6  8  1  0  0  0  0
  6  7  2  0  0  0  0
  8  9  1  0  0  0  0
  8 26  1  0  0  0  0
  9 10  1  0  0  0  0
  9 27  1  0  0  0  0
  9 28  1  0  0  0  0
 10 11  1  0  0  0  0
 10 29  1  0  0  0  0
 10 30  1  0  0  0  0
 11 12  1  0  0  0  0
 12 17  1  0  0  0  0
 12 13  1  0  0  0  0
 12 31  1  0  0  0  0
 13 14  1  0  0  0  0
 13 32  1  0  0  0  0
 13 33  1  0  0  0  0
 14 15  1  0  0  0  0
 14 34  1  0  0  0  0
 14 35  1  0  0  0  0
 15 16  1  0  0  0  0
 15 36  1  0  0  0  0
 15 37  1  0  0  0  0
 16 17  1  0  0  0  0
 16 38  1  0  0  0  0
 16 39  1  0  0  0  0
 17 18  1  0  0  0  0
 17 40  1  0  0  0  0
 18 41  1  0  0  0  0
 18 42  1  0  0  0  0
 18 43  1  0  0  0  0
 19 20  1  0  0  0  0
 20 21  1  0  0  0  0
 21 44  1  0  0  0  0
 21 45  1  0  0  0  0
 21 46  1  0  0  0  0
M  END
> <s_m_source_file>
AV-unprocessed.smi

> <i_m_source_file_index>
910

> <i_lp_mmshare_version>
43012

> <i_f3d_flags>
0

> <s_epik_input>
W0NIM11jMW5jKG9jMVtDSDNdKVtOSF1DKD1PKVtOSF1bQ0gyXVtDSDJdT1tDQEBIXTJbQ0gyXVtDSDJdW0NIMl1bQ0gyXVtDQEhdMltDSDNd

> <s_epik_cmdline>
J2VwaWtfcHl0aG9uJywgJy1waCcsICc3LjAnLCAnLXRuJywgJzgnLCAnLW1hJywgJzIwMCcsICctbWV0YWxfYmluZGluZycsICctaW1hZScsICc8aW5maWxlLm1hZT4nLCAnLW9tYWUnLCAnPG91dGZpbGUubWFlPic=

> <r_lp_tautomer_probability>
0.107061

> <r_epik_Ionization_Penalty>
0.727192

> <r_epik_Ionization_Penalty_Charging>
0.726719

> <r_epik_Ionization_Penalty_Neutral>
0.000473387

> <r_epik_State_Penalty>
2.53712

> <r_epik_Charging_Adjusted_Penalty>
3.26383

> <i_epik_Tot_Q>
0

> <i_epik_Tot_abs_Q>
0

> <r_epik_Metal_State_Penalty>
3.71015

> <b_epik_Metal_Only>
0

> <s_lp_Force_Field>
OPLS_2005

> <r_lp_Energy>
29.3715

> <b_lp_Chiralities_Consistent>
1

> <s_lp_Variant>
AV-unprocessed.smi:910-7

> <Gold.Version>
5.8.1

> <Gold.Id.Protein>
6NUR|6NUR_protein|mol2

> <Gold.PLP.Fitness>
39.7522

> <Gold.PLP.PLP>
-36.8996

> <Gold.PLP.part.hbond>
-2.0000

> <Gold.PLP.part.metal>
0.0000

> <Gold.PLP.part.buried>
-3.9184

> <Gold.PLP.part.nonpolar>
-31.7445

> <Gold.PLP.part.repulsive>
0.5106

> <Gold.PLP.ligand.clash>
0.0000

> <Gold.PLP.ligand.torsion>
1.4224

> <Gold.PLP.Chemscore.Hbond>
1.8800

> <Gold.PLP.Chemscore.CHOScore>
0.0000

> <Gold.PLP.Chemscore.Metal>
0.0000

> <Gold.Chemscore.Hbonds>
donor molecule, donor type, donor heavy atom, donor atom, acceptor molecule, acceptor atom, score
      L1  H     3    25       P1 10747  0.98
      L1  H     8    26       P1  7948  0.82

> <Gold.PLP.Chemscore.Internal.Correction>
0.0575

> <Gold.Rescore>
     Score         DG    S(hbond)    S(metal)    S(lipo)     H(rot)  DE(clash)    DE(int)     intcor
     15.88     -17.31       1.90        0.00      83.14       1.66       0.03       1.40       ----

> <Gold.Chemscore.Fitness>
15.8782

> <Gold.Chemscore.DG>
-17.3067

> <Gold.Chemscore.ZeroCoef>
-5.4800

> <Gold.Chemscore.Hbond>
1.8991

> <Gold.Chemscore.Metal>
0.0000

> <Gold.Chemscore.Lipo>
83.1407

> <Gold.Chemscore.Internal_Hbond>
0.0000

> <Gold.Chemscore.DEClash>
0.0274

> <Gold.Chemscore.DEInternal>
1.4011

> <Gold.Chemscore.Rot>
1.6576

> <Gold.Chemscore.Internal.Correction>
   9.000000E+99

> <Gold.Chemscore.Hbonds>
donor molecule, donor type, donor heavy atom, donor atom, acceptor molecule, acceptor atom, score
      L1  H     3    25       P1 10747  0.92
      L1  H     8    26       P1  7948  0.32

> <Gold.Chemscore.Hbond.Weighted>
-6.3428

> <Gold.Chemscore.Metal.Weighted>
-0.0000

> <Gold.Chemscore.Lipo.Weighted>
-9.7275

> <Gold.Chemscore.Internal_Hbond.Weighted>
0.0000

> <Gold.Chemscore.DEClash.Weighted>
0.0274

> <Gold.Chemscore.DEInternal.Weighted>
1.4011

> <Gold.Chemscore.Rot.Weighted>
4.2436

> <Gold.Chemscore.Internal.Correction.Weighted>
   9.000000E+99

> <Gold.Protein.RotatedTorsions>
[ 6907 6896 6895 6894 ] final  -80.49 input  -60.11 | X-H torsion
[ 7974 7965 7964 7962 ] final   -0.67 input  175.53 | X-H torsion
[ 8008 7997 7996 7995 ] final   79.73 input   59.86 | X-H torsion
[ 10167 10162 10161 10158 ] final  -17.47 input  -65.29 | X-H torsion
[ 10718 10713 10712 10709 ] final    1.32 input   66.30 | X-H torsion
[ 10763 10752 10751 10750 ] final  -49.54 input  -60.55 | X-H torsion
[ 11005 11000 10999 10996 ] final -127.74 input  -57.11 | X-H torsion

> <Gold.Protein.ActiveResidues>
 VAL166  LYS551  ARG553  GLY616  TRP617  ASP618  TYR619  PRO620  LYS621  CYS622 
 ASP623  PHE694  ASN695  SER759  ASP760  ASP761  ALA762  ILE779  LEU786  VAL792 
 PHE793  MET794  SER795  GLU796  ALA797  LYS798  CYS799  TRP800  GLU811  SER814 

> <Gold.Protein.RotatedAtoms>
  150.6928  134.3962  159.5098 H   0  0  0  0  0  0  0  0  0  0  0  0  # atno 6907 bound_to 6896
  152.1743  134.8805  160.0541 H   0  0  0  0  0  0  0  0  0  0  0  0  # atno 6908 bound_to 6896
  151.9820  133.3726  159.4148 H   0  0  0  0  0  0  0  0  0  0  0  0  # atno 6909 bound_to 6896
  146.2425  140.1304  142.8338 H   0  0  0  0  0  0  0  0  0  0  0  0  # atno 7974 bound_to 7965
  155.8737  140.3447  155.5839 H   0  0  0  0  0  0  0  0  0  0  0  0  # atno 8008 bound_to 7997
  155.7798  140.0857  157.2084 H   0  0  0  0  0  0  0  0  0  0  0  0  # atno 8009 bound_to 7997
  154.4019  140.1503  156.3026 H   0  0  0  0  0  0  0  0  0  0  0  0  # atno 8010 bound_to 7997
  140.7247  143.5012  150.9867 H   0  0  0  0  0  0  0  0  0  0  0  0  # atno 10167 bound_to 10162
  156.8465  130.5539  149.5673 H   0  0  0  0  0  0  0  0  0  0  0  0  # atno 10718 bound_to 10713
  154.0957  135.6571  153.4860 H   0  0  0  0  0  0  0  0  0  0  0  0  # atno 10763 bound_to 10752
  153.0306  135.5213  154.7336 H   0  0  0  0  0  0  0  0  0  0  0  0  # atno 10764 bound_to 10752
  154.6473  135.2996  154.9999 H   0  0  0  0  0  0  0  0  0  0  0  0  # atno 10765 bound_to 10752
  140.9574  134.0983  157.4002 H   0  0  0  0  0  0  0  0  0  0  0  0  # atno 11005 bound_to 11000
  145.0330  140.8886  143.5098 LP  0  0  0  0  0  0  0  0  0  0  0  0  # atno 17320 bound_to 7965
  145.1372  139.2595  143.5509 LP  0  0  0  0  0  0  0  0  0  0  0  0  # atno 17321 bound_to 7965
  139.8722  143.7178  152.3165 LP  0  0  0  0  0  0  0  0  0  0  0  0  # atno 17342 bound_to 10162
  139.7431  144.7554  151.0622 LP  0  0  0  0  0  0  0  0  0  0  0  0  # atno 17343 bound_to 10162
  156.0852  130.5852  150.9635 LP  0  0  0  0  0  0  0  0  0  0  0  0  # atno 17370 bound_to 10713
  157.6327  131.0919  150.8409 LP  0  0  0  0  0  0  0  0  0  0  0  0  # atno 17371 bound_to 10713
  139.8867  135.0083  156.6512 LP  0  0  0  0  0  0  0  0  0  0  0  0  # atno 17394 bound_to 11000
  140.7516  133.8892  155.8351 LP  0  0  0  0  0  0  0  0  0  0  0  0  # atno 17395 bound_to 11000

$$$$
