AV-unprocessed.smi:53|AV-procd|sdf|518|dock3
  -GOLD-   2262016393D 1   1.00000     0.00000
 Structure written by MMmdl.
 30 31  0  0  0  0  0  0  0  0  1 V2000
  152.9449  141.0569  159.5382 N   0  0  0  0  0  0  0  0  0  0  0  0
  152.3190  140.7300  158.3988 C   0  0  0  0  0  0  0  0  0  0  0  0
  151.0760  141.3721  158.0385 C   0  0  0  0  0  0  0  0  0  0  0  0
  150.5062  140.9916  156.8737 C   0  0  0  0  0  0  0  0  0  0  0  0
  151.0848  140.0418  156.0379 N   0  0  0  0  0  0  0  0  0  0  0  0
  150.4332  139.5849  154.7416 C   0  0  1  0  0  0  0  0  0  0  0  0
  150.0213  138.2558  154.8686 O   0  0  0  0  0  0  0  0  0  0  0  0
  148.6492  138.2161  155.2468 C   0  0  2  0  0  0  0  0  0  0  0  0
  148.0503  136.8153  155.0336 C   0  0  0  0  0  0  0  0  0  0  0  0
  149.0251  135.9550  154.4835 O   0  0  0  0  0  0  0  0  0  0  0  0
  148.0581  139.3360  154.3857 C   0  0  2  0  0  0  0  0  0  0  0  0
  147.7980  138.8712  153.0700 O   0  0  0  0  0  0  0  0  0  0  0  0
  149.1548  140.4017  154.4340 C   0  0  2  0  0  0  0  0  0  0  0  0
  149.2364  141.1454  153.2318 O   0  0  0  0  0  0  0  0  0  0  0  0
  152.2883  139.4104  156.4378 C   0  0  0  0  0  0  0  0  0  0  0  0
  152.8133  138.5295  155.7585 O   0  0  0  0  0  0  0  0  0  0  0  0
  152.8530  139.8111  157.6187 N   0  0  0  0  0  0  0  0  0  0  0  0
  151.2174  139.6580  153.9854 H   0  0  0  0  0  0  0  0  0  0  0  0
  148.5492  138.5072  156.2941 H   0  0  0  0  0  0  0  0  0  0  0  0
  147.1211  139.7079  154.8014 H   0  0  0  0  0  0  0  0  0  0  0  0
  148.9508  141.0841  155.2604 H   0  0  0  0  0  0  0  0  0  0  0  0
  153.8111  140.6034  159.7897 H   0  0  0  0  0  0  0  0  0  0  0  0
  152.5488  141.7625  160.1426 H   0  0  0  0  0  0  0  0  0  0  0  0
  150.5968  142.1237  158.6494 H   0  0  0  0  0  0  0  0  0  0  0  0
  149.5706  141.4644  156.6161 H   0  0  0  0  0  0  0  0  0  0  0  0
  147.7397  136.3896  155.9881 H   0  0  0  0  0  0  0  0  0  0  0  0
  147.1712  136.8502  154.3893 H   0  0  0  0  0  0  0  0  0  0  0  0
  149.2935  136.3022  153.6465 H   0  0  0  0  0  0  0  0  0  0  0  0
  148.1814  139.4819  152.4588 H   0  0  0  0  0  0  0  0  0  0  0  0
  148.9264  140.6013  152.5241 H   0  0  0  0  0  0  0  0  0  0  0  0
  1  2  1  0  0  0  0
  1 22  1  0  0  0  0
  1 23  1  0  0  0  0
  2 17  2  0  0  0  0
  2  3  1  0  0  0  0
  3  4  2  0  0  0  0
  3 24  1  0  0  0  0
  4  5  1  0  0  0  0
  4 25  1  0  0  0  0
  5  6  1  0  0  0  0
  5 15  1  0  0  0  0
  6 18  1  0  0  0  0
  6 13  1  0  0  0  0
  6  7  1  0  0  0  0
  7  8  1  0  0  0  0
  8 19  1  0  0  0  0
  8  9  1  0  0  0  0
  8 11  1  0  0  0  0
  9 10  1  0  0  0  0
  9 26  1  0  0  0  0
  9 27  1  0  0  0  0
 10 28  1  0  0  0  0
 11 20  1  0  0  0  0
 11 12  1  0  0  0  0
 11 13  1  0  0  0  0
 12 29  1  0  0  0  0
 13 21  1  0  0  0  0
 13 14  1  0  0  0  0
 14 30  1  0  0  0  0
 15 16  2  0  0  0  0
 15 17  1  0  0  0  0
M  END
> <s_m_source_file>
AV-unprocessed.smi

> <i_m_source_file_index>
53

> <i_lp_mmshare_version>
43012

> <i_f3d_flags>
0

> <s_epik_input>
W05IMl1jMVtjSF1bY0hdbihjKD1PKW4xKVtDQEBIXTJPW0NASF0oW0NIMl1bT0hdKVtDQEBIXShbT0hdKVtDQEBIXTJbT0hd

> <s_epik_cmdline>
J2VwaWtfcHl0aG9uJywgJy1waCcsICc3LjAnLCAnLXRuJywgJzgnLCAnLW1hJywgJzIwMCcsICctbWV0YWxfYmluZGluZycsICctaW1hZScsICc8aW5maWxlLm1hZT4nLCAnLW9tYWUnLCAnPG91dGZpbGUubWFlPic=

> <r_lp_tautomer_probability>
0.99996

> <r_epik_Ionization_Penalty>
0.00069087

> <r_epik_Ionization_Penalty_Charging>
2.61959e-08

> <r_epik_Ionization_Penalty_Neutral>
0.000690844

> <r_epik_State_Penalty>
1.15523e-05

> <r_epik_Charging_Adjusted_Penalty>
1.15785e-05

> <i_epik_Tot_Q>
0

> <i_epik_Tot_abs_Q>
0

> <r_epik_Metal_State_Penalty>
-0

> <b_epik_Metal_Only>
0

> <s_epik_Chemistry_Notes>
This compound contains an acetal/aminal-like group ( X-CH(R)-Y where X, Y are N, S, or O) that may be acid/base labile, releasing an aldehyde.

> <s_lp_Force_Field>
OPLS_2005

> <r_lp_Energy>
34.5248

> <b_lp_Chiralities_Consistent>
1

> <s_lp_Variant>
AV-unprocessed.smi:53-6

> <Gold.Version>
5.8.1

> <Gold.Id.Protein>
6NUR|6NUR_protein|mol2

> <Gold.PLP.Fitness>
37.7935

> <Gold.PLP.PLP>
-25.7096

> <Gold.PLP.part.hbond>
-6.3252

> <Gold.PLP.part.metal>
0.0000

> <Gold.PLP.part.buried>
-3.6155

> <Gold.PLP.part.nonpolar>
-16.2488

> <Gold.PLP.part.repulsive>
0.2607

> <Gold.PLP.ligand.clash>
0.0000

> <Gold.PLP.ligand.torsion>
0.8014

> <Gold.PLP.Chemscore.Hbond>
4.5525

> <Gold.PLP.Chemscore.CHOScore>
0.0000

> <Gold.PLP.Chemscore.Metal>
0.0000

> <Gold.Chemscore.Hbonds>
donor molecule, donor type, donor heavy atom, donor atom, acceptor molecule, acceptor atom, score
      L1  H    10    28       P1  7948  0.88
      L1  H    12    29       P1  7957  1.00
      L1  H    14    30       P1  7957  0.67
      P1  H  7997  8008       L1    17  0.85
      P1  H  8011  8017       L1    14  0.90

> <Gold.PLP.Chemscore.Internal.Correction>
0.0293

> <Gold.Rescore>
     Score         DG    S(hbond)    S(metal)    S(lipo)     H(rot)  DE(clash)    DE(int)     intcor
      9.41     -11.22       3.63        0.00      26.67       3.71       0.10       1.71       ----

> <Gold.Chemscore.Fitness>
9.4068

> <Gold.Chemscore.DG>
-11.2151

> <Gold.Chemscore.ZeroCoef>
-5.4800

> <Gold.Chemscore.Hbond>
3.6262

> <Gold.Chemscore.Metal>
0.0000

> <Gold.Chemscore.Lipo>
26.6650

> <Gold.Chemscore.Internal_Hbond>
0.0000

> <Gold.Chemscore.DEClash>
0.0953

> <Gold.Chemscore.DEInternal>
1.7129

> <Gold.Chemscore.Rot>
3.7095

> <Gold.Chemscore.Internal.Correction>
   9.000000E+99

> <Gold.Chemscore.Hbonds>
donor molecule, donor type, donor heavy atom, donor atom, acceptor molecule, acceptor atom, score
      L1  H    10    28       P1  7948  0.76
      L1  H    12    29       P1  7957  0.93
      L1  H    14    30       P1  7957  0.67
      P1  H  7997  8008       L1    17  0.14
      P1  H  8011  8017       L1    14  0.18

> <Gold.Chemscore.Hbond.Weighted>
-12.1117

> <Gold.Chemscore.Metal.Weighted>
-0.0000

> <Gold.Chemscore.Lipo.Weighted>
-3.1198

> <Gold.Chemscore.Internal_Hbond.Weighted>
0.0000

> <Gold.Chemscore.DEClash.Weighted>
0.0953

> <Gold.Chemscore.DEInternal.Weighted>
1.7129

> <Gold.Chemscore.Rot.Weighted>
9.4964

> <Gold.Chemscore.Internal.Correction.Weighted>
   9.000000E+99

> <Gold.Protein.RotatedTorsions>
[ 6907 6896 6895 6894 ] final  -14.34 input  -60.11 | X-H torsion
[ 7974 7965 7964 7962 ] final -112.08 input  175.53 | X-H torsion
[ 8008 7997 7996 7995 ] final  -83.98 input   59.86 | X-H torsion
[ 10167 10162 10161 10158 ] final -115.52 input  -65.29 | X-H torsion
[ 10718 10713 10712 10709 ] final  -35.08 input   66.30 | X-H torsion
[ 10763 10752 10751 10750 ] final  139.95 input  -60.55 | X-H torsion
[ 11005 11000 10999 10996 ] final  149.00 input  -57.11 | X-H torsion

> <Gold.Protein.ActiveResidues>
 VAL166  LYS551  ARG553  GLY616  TRP617  ASP618  TYR619  PRO620  LYS621  CYS622 
 ASP623  PHE694  ASN695  SER759  ASP760  ASP761  ALA762  ILE779  LEU786  VAL792 
 PHE793  MET794  SER795  GLU796  ALA797  LYS798  CYS799  TRP800  GLU811  SER814 

> <Gold.Protein.RotatedAtoms>
  151.3408  135.0863  159.9370 H   0  0  0  0  0  0  0  0  0  0  0  0  # atno 6907 bound_to 6896
  152.5212  133.9449  159.7654 H   0  0  0  0  0  0  0  0  0  0  0  0  # atno 6908 bound_to 6896
  150.9805  133.6197  159.2753 H   0  0  0  0  0  0  0  0  0  0  0  0  # atno 6909 bound_to 6896
  145.1483  140.8815  143.3661 H   0  0  0  0  0  0  0  0  0  0  0  0  # atno 7974 bound_to 7965
  154.6248  140.0611  156.9660 H   0  0  0  0  0  0  0  0  0  0  0  0  # atno 8008 bound_to 7997
  155.1759  140.3295  155.4365 H   0  0  0  0  0  0  0  0  0  0  0  0  # atno 8009 bound_to 7997
  156.2451  140.1906  156.6858 H   0  0  0  0  0  0  0  0  0  0  0  0  # atno 8010 bound_to 7997
  140.0892  143.4716  152.1880 H   0  0  0  0  0  0  0  0  0  0  0  0  # atno 10167 bound_to 10162
  156.3428  130.4296  149.7772 H   0  0  0  0  0  0  0  0  0  0  0  0  # atno 10718 bound_to 10713
  153.9146  135.3007  155.3448 H   0  0  0  0  0  0  0  0  0  0  0  0  # atno 10763 bound_to 10752
  154.7606  135.4936  153.9460 H   0  0  0  0  0  0  0  0  0  0  0  0  # atno 10764 bound_to 10752
  153.1174  135.6774  153.9496 H   0  0  0  0  0  0  0  0  0  0  0  0  # atno 10765 bound_to 10752
  140.1008  134.8984  157.1792 H   0  0  0  0  0  0  0  0  0  0  0  0  # atno 11005 bound_to 11000
  145.0458  139.3222  143.5953 LP  0  0  0  0  0  0  0  0  0  0  0  0  # atno 17320 bound_to 7965
  146.3497  139.9848  142.8692 LP  0  0  0  0  0  0  0  0  0  0  0  0  # atno 17321 bound_to 7965
  139.5735  144.7475  151.3828 LP  0  0  0  0  0  0  0  0  0  0  0  0  # atno 17342 bound_to 10162
  140.7038  143.7566  150.7446 LP  0  0  0  0  0  0  0  0  0  0  0  0  # atno 17343 bound_to 10162
  156.5002  130.8125  151.3129 LP  0  0  0  0  0  0  0  0  0  0  0  0  # atno 17370 bound_to 10713
  157.7449  130.9947  150.2718 LP  0  0  0  0  0  0  0  0  0  0  0  0  # atno 17371 bound_to 10713
  140.3223  134.2902  155.7244 LP  0  0  0  0  0  0  0  0  0  0  0  0  # atno 17394 bound_to 11000
  141.2105  133.7718  156.9928 LP  0  0  0  0  0  0  0  0  0  0  0  0  # atno 17395 bound_to 11000

$$$$
