AV-unprocessed.smi:2001|AV-procd|sdf|8112|dock6
  -GOLD-   2272010343D 1   1.00000     0.00000
 Structure written by MMmdl.
 50 51  0  0  0  0  0  0  0  0  3 V2000
  154.2367  136.2397  159.9429 C   0  0  0  0  0  0  0  0  0  0  0  0
  152.9234  136.7217  159.7187 O   0  0  0  0  0  0  0  0  0  0  0  0
  152.8367  138.1315  159.8400 C   0  0  0  0  0  0  0  0  0  0  0  0
  151.5911  138.6246  159.0884 C   0  0  0  0  0  0  0  0  0  0  0  0
  151.4186  137.9129  157.8181 N   0  0  0  0  0  0  0  0  0  0  0  0
  150.7009  136.7338  157.9269 N   0  0  0  0  0  0  0  0  0  0  0  0
  150.4560  136.0161  156.8784 C   0  0  0  0  0  0  0  0  0  0  0  0
  149.6714  134.7447  156.9933 C   0  0  0  0  0  0  0  0  0  0  0  0
  149.4965  134.3349  158.1490 O   0  0  0  0  0  0  0  0  0  0  0  0
  149.2164  134.1409  155.8548 N   0  5  0  0  0  0  0  0  0  0  0  0
  148.4346  134.7955  154.8046 C   0  0  0  0  0  0  0  0  0  0  0  0
  147.9450  133.7445  153.7912 C   0  0  0  0  0  0  0  0  0  0  0  0
  147.4331  134.3793  152.5442 N   0  3  1  0  0  0  0  0  0  0  0  0
  147.2499  133.4479  151.4012 C   0  0  0  0  0  0  0  0  0  0  0  0
  145.9482  132.6300  151.5446 C   0  0  2  0  0  0  0  0  0  0  0  0
  145.6799  131.7570  150.3138 C   0  0  0  0  0  0  0  0  0  0  0  0
  144.8475  133.5197  151.7053 O   0  0  0  0  0  0  0  0  0  0  0  0
  144.9610  134.3358  152.8670 C   0  0  2  0  0  0  0  0  0  0  0  0
  143.6849  135.1763  152.9864 C   0  0  0  0  0  0  0  0  0  0  0  0
  146.2218  135.2127  152.7376 C   0  0  0  0  0  0  0  0  0  0  0  0
  150.9390  136.4363  155.5680 C   0  0  0  0  0  0  0  0  0  0  0  0
  151.6335  137.5914  155.4780 C   0  0  0  0  0  0  0  0  0  0  0  0
  151.9103  138.4225  156.6496 C   0  0  0  0  0  0  0  0  0  0  0  0
  152.5250  139.4872  156.5891 O   0  0  0  0  0  0  0  0  0  0  0  0
  154.2548  135.1562  159.8254 H   0  0  0  0  0  0  0  0  0  0  0  0
  154.5748  136.4742  160.9530 H   0  0  0  0  0  0  0  0  0  0  0  0
  154.9422  136.6678  159.2294 H   0  0  0  0  0  0  0  0  0  0  0  0
  152.7726  138.4122  160.8927 H   0  0  0  0  0  0  0  0  0  0  0  0
  153.7360  138.5939  159.4297 H   0  0  0  0  0  0  0  0  0  0  0  0
  150.7054  138.5121  159.7162 H   0  0  0  0  0  0  0  0  0  0  0  0
  151.6797  139.6965  158.9025 H   0  0  0  0  0  0  0  0  0  0  0  0
  147.5691  135.3260  155.2042 H   0  0  0  0  0  0  0  0  0  0  0  0
  149.0264  135.5435  154.2770 H   0  0  0  0  0  0  0  0  0  0  0  0
  148.7535  133.0495  153.5642 H   0  0  0  0  0  0  0  0  0  0  0  0
  147.1657  133.1432  154.2622 H   0  0  0  0  0  0  0  0  0  0  0  0
  147.2105  134.0405  150.4863 H   0  0  0  0  0  0  0  0  0  0  0  0
  148.1143  132.7898  151.3042 H   0  0  0  0  0  0  0  0  0  0  0  0
  146.0069  131.9779  152.4173 H   0  0  0  0  0  0  0  0  0  0  0  0
  146.4910  131.0463  150.1524 H   0  0  0  0  0  0  0  0  0  0  0  0
  145.5816  132.3634  149.4130 H   0  0  0  0  0  0  0  0  0  0  0  0
  144.7578  131.1873  150.4337 H   0  0  0  0  0  0  0  0  0  0  0  0
  145.0376  133.6983  153.7495 H   0  0  0  0  0  0  0  0  0  0  0  0
  143.7164  135.8130  153.8711 H   0  0  0  0  0  0  0  0  0  0  0  0
  142.8041  134.5389  153.0678 H   0  0  0  0  0  0  0  0  0  0  0  0
  143.5520  135.8189  152.1156 H   0  0  0  0  0  0  0  0  0  0  0  0
  146.3445  135.8616  153.6061 H   0  0  0  0  0  0  0  0  0  0  0  0
  146.1223  135.8733  151.8753 H   0  0  0  0  0  0  0  0  0  0  0  0
  150.7550  135.8519  154.6788 H   0  0  0  0  0  0  0  0  0  0  0  0
  151.9952  137.9132  154.5124 H   0  0  0  0  0  0  0  0  0  0  0  0
  148.1685  135.0222  152.2834 H   0  0  0  0  0  0  0  0  0  0  0  0
  1  2  1  0  0  0  0
  1 25  1  0  0  0  0
  1 26  1  0  0  0  0
  1 27  1  0  0  0  0
  2  3  1  0  0  0  0
  3  4  1  0  0  0  0
  3 28  1  0  0  0  0
  3 29  1  0  0  0  0
  4  5  1  0  0  0  0
  4 30  1  0  0  0  0
  4 31  1  0  0  0  0
  5 23  1  0  0  0  0
  5  6  1  0  0  0  0
  6  7  2  0  0  0  0
  7  8  1  0  0  0  0
  7 21  1  0  0  0  0
  8  9  2  0  0  0  0
  8 10  1  0  0  0  0
 10 11  1  0  0  0  0
 11 12  1  0  0  0  0
 11 32  1  0  0  0  0
 11 33  1  0  0  0  0
 12 13  1  0  0  0  0
 12 34  1  0  0  0  0
 12 35  1  0  0  0  0
 13 20  1  0  0  0  0
 13 14  1  0  0  0  0
 13 50  1  0  0  0  0
 14 15  1  0  0  0  0
 14 36  1  0  0  0  0
 14 37  1  0  0  0  0
 15 16  1  0  0  0  0
 15 17  1  0  0  0  0
 15 38  1  0  0  0  0
 16 39  1  0  0  0  0
 16 40  1  0  0  0  0
 16 41  1  0  0  0  0
 17 18  1  0  0  0  0
 18 19  1  0  0  0  0
 18 20  1  0  0  0  0
 18 42  1  0  0  0  0
 19 43  1  0  0  0  0
 19 44  1  0  0  0  0
 19 45  1  0  0  0  0
 20 46  1  0  0  0  0
 20 47  1  0  0  0  0
 21 22  2  0  0  0  0
 21 48  1  0  0  0  0
 22 23  1  0  0  0  0
 22 49  1  0  0  0  0
 23 24  2  0  0  0  0
M  CHG  1  10  -1
M  CHG  1  13   1
M  END
> <s_m_source_file>
AV-unprocessed.smi

> <i_m_source_file_index>
2001

> <i_lp_mmshare_version>
43012

> <i_f3d_flags>
0

> <s_epik_input>
W0NIM11PW0NIMl1bQ0gyXW4xbmMoW2NIXVtjSF1jMT1PKUMoPU8pW05IXVtDSDJdW0NIMl1OMltDSDJdW0NAQEhdKFtDSDNdKU9bQ0BASF0oW0NIM10pW0NIMl0y

> <s_epik_cmdline>
J2VwaWtfcHl0aG9uJywgJy1waCcsICc3LjAnLCAnLXRuJywgJzgnLCAnLW1hJywgJzIwMCcsICctbWV0YWxfYmluZGluZycsICctaW1hZScsICc8aW5maWxlLm1hZT4nLCAnLW9tYWUnLCAnPG91dGZpbGUubWFlPic=

> <r_lp_tautomer_probability>
1

> <r_epik_Ionization_Penalty>
6.90846

> <r_epik_Ionization_Penalty_Charging>
6.90846

> <r_epik_Ionization_Penalty_Neutral>
1.08445e-11

> <r_epik_State_Penalty>
7.54671

> <r_epik_Charging_Adjusted_Penalty>
14.4552

> <i_epik_Tot_Q>
0

> <i_epik_Tot_abs_Q>
2

> <r_epik_Metal_State_Penalty>
3.46181

> <b_epik_Metal_Only>
1

> <s_lp_Force_Field>
OPLS_2005

> <r_lp_Energy>
41.6735

> <b_lp_Chiralities_Consistent>
1

> <s_lp_Variant>
AV-unprocessed.smi:2001-11

> <Gold.Version>
5.8.1

> <Gold.Id.Protein>
6NUR|6NUR_protein|mol2

> <Gold.PLP.Fitness>
42.4785

> <Gold.PLP.PLP>
-29.6774

> <Gold.PLP.part.hbond>
-4.4036

> <Gold.PLP.part.metal>
0.0000

> <Gold.PLP.part.buried>
-4.3652

> <Gold.PLP.part.nonpolar>
-20.0194

> <Gold.PLP.part.repulsive>
0.1388

> <Gold.PLP.ligand.clash>
0.0000

> <Gold.PLP.ligand.torsion>
1.2226

> <Gold.PLP.Chemscore.Hbond>
5.0000

> <Gold.PLP.Chemscore.CHOScore>
0.0000

> <Gold.PLP.Chemscore.Metal>
0.0000

> <Gold.Chemscore.Hbonds>
donor molecule, donor type, donor heavy atom, donor atom, acceptor molecule, acceptor atom, score
      L1  H    13    50       P1  7948  1.62
      P1  H  6896  6907       L1     2  0.85
      P1  H  6896  6909       L1     9  1.00
      P1  H  7997  8008       L1    24  1.00

> <Gold.PLP.Chemscore.Internal.Correction>
0.2463

> <Gold.Rescore>
     Score         DG    S(hbond)    S(metal)    S(lipo)     H(rot)  DE(clash)    DE(int)     intcor
     18.03     -20.67       3.70        0.00      68.41       2.02       0.04       2.60       ----

> <Gold.Chemscore.Fitness>
18.0315

> <Gold.Chemscore.DG>
-20.6654

> <Gold.Chemscore.ZeroCoef>
-5.4800

> <Gold.Chemscore.Hbond>
3.6967

> <Gold.Chemscore.Metal>
0.0000

> <Gold.Chemscore.Lipo>
68.4127

> <Gold.Chemscore.Internal_Hbond>
0.0000

> <Gold.Chemscore.DEClash>
0.0351

> <Gold.Chemscore.DEInternal>
2.5988

> <Gold.Chemscore.Rot>
2.0179

> <Gold.Chemscore.Internal.Correction>
   9.000000E+99

> <Gold.Chemscore.Hbonds>
donor molecule, donor type, donor heavy atom, donor atom, acceptor molecule, acceptor atom, score
      L1  H    13    50       P1  7948  0.49
      P1  H  6896  6907       L1     2  0.15
      P1  H  6896  6909       L1     9  1.00
      P1  H  7997  8008       L1    24  1.00

> <Gold.Chemscore.Hbond.Weighted>
-12.3469

> <Gold.Chemscore.Metal.Weighted>
-0.0000

> <Gold.Chemscore.Lipo.Weighted>
-8.0043

> <Gold.Chemscore.Internal_Hbond.Weighted>
0.0000

> <Gold.Chemscore.DEClash.Weighted>
0.0351

> <Gold.Chemscore.DEInternal.Weighted>
2.5988

> <Gold.Chemscore.Rot.Weighted>
5.1659

> <Gold.Chemscore.Internal.Correction.Weighted>
   9.000000E+99

> <Gold.Protein.RotatedTorsions>
[ 6907 6896 6895 6894 ] final   25.06 input  -60.11 | X-H torsion
[ 7974 7965 7964 7962 ] final  -26.28 input  175.53 | X-H torsion
[ 8008 7997 7996 7995 ] final  -46.31 input   59.86 | X-H torsion
[ 10167 10162 10161 10158 ] final  132.37 input  -65.29 | X-H torsion
[ 10718 10713 10712 10709 ] final  134.98 input   66.30 | X-H torsion
[ 10763 10752 10751 10750 ] final  120.04 input  -60.55 | X-H torsion
[ 11005 11000 10999 10996 ] final  145.07 input  -57.11 | X-H torsion

> <Gold.Protein.ActiveResidues>
 VAL166  LYS551  ARG553  GLY616  TRP617  ASP618  TYR619  PRO620  LYS621  CYS622 
 ASP623  PHE694  ASN695  SER759  ASP760  ASP761  ALA762  ILE779  LEU786  VAL792 
 PHE793  MET794  SER795  GLU796  ALA797  LYS798  CYS799  TRP800  GLU811  SER814 

> <Gold.Protein.RotatedAtoms>
  151.9668  135.0096  160.0550 H   0  0  0  0  0  0  0  0  0  0  0  0  # atno 6907 bound_to 6896
  152.1819  133.4708  159.4971 H   0  0  0  0  0  0  0  0  0  0  0  0  # atno 6908 bound_to 6896
  150.6919  134.1740  159.4266 H   0  0  0  0  0  0  0  0  0  0  0  0  # atno 6909 bound_to 6896
  146.1436  140.4999  142.8641 H   0  0  0  0  0  0  0  0  0  0  0  0  # atno 7974 bound_to 7965
  154.4006  140.1375  156.3990 H   0  0  0  0  0  0  0  0  0  0  0  0  # atno 8008 bound_to 7997
  155.7842  140.3480  155.5293 H   0  0  0  0  0  0  0  0  0  0  0  0  # atno 8009 bound_to 7997
  155.8643  140.0961  157.1583 H   0  0  0  0  0  0  0  0  0  0  0  0  # atno 8010 bound_to 7997
  139.5343  144.6665  151.4841 H   0  0  0  0  0  0  0  0  0  0  0  0  # atno 10167 bound_to 10162
  157.4617  131.1074  150.9911 H   0  0  0  0  0  0  0  0  0  0  0  0  # atno 10718 bound_to 10713
  153.5924  135.3463  155.2915 H   0  0  0  0  0  0  0  0  0  0  0  0  # atno 10763 bound_to 10752
  154.8650  135.4208  154.2502 H   0  0  0  0  0  0  0  0  0  0  0  0  # atno 10764 bound_to 10752
  153.3312  135.7044  153.7017 H   0  0  0  0  0  0  0  0  0  0  0  0  # atno 10765 bound_to 10752
  140.0683  134.9166  157.1301 H   0  0  0  0  0  0  0  0  0  0  0  0  # atno 11005 bound_to 11000
  144.7820  140.5860  143.6599 LP  0  0  0  0  0  0  0  0  0  0  0  0  # atno 17320 bound_to 7965
  145.4990  139.1484  143.3667 LP  0  0  0  0  0  0  0  0  0  0  0  0  # atno 17321 bound_to 7965
  140.6540  143.8638  150.6815 LP  0  0  0  0  0  0  0  0  0  0  0  0  # atno 17342 bound_to 10162
  140.2012  143.3958  152.1790 LP  0  0  0  0  0  0  0  0  0  0  0  0  # atno 17343 bound_to 10162
  157.0706  130.5862  149.5402 LP  0  0  0  0  0  0  0  0  0  0  0  0  # atno 17370 bound_to 10713
  156.0032  130.5114  150.7737 LP  0  0  0  0  0  0  0  0  0  0  0  0  # atno 17371 bound_to 10713
  140.3666  134.2436  155.7182 LP  0  0  0  0  0  0  0  0  0  0  0  0  # atno 17394 bound_to 11000
  141.2001  133.7994  157.0503 LP  0  0  0  0  0  0  0  0  0  0  0  0  # atno 17395 bound_to 11000

$$$$
