AV-unprocessed.smi:1662|AV-procd|sdf|6657|dock4
  -GOLD-   22720 7363D 1   1.00000     0.00000
 Structure written by MMmdl.
 47 48  0  0  0  0  0  0  0  0  1 V2000
  154.9562  140.4693  163.6791 C   0  0  0  0  0  0  0  0  0  0  0  0
  154.6510  139.2061  162.9200 C   0  0  0  0  0  0  0  0  0  0  0  0
  154.0356  139.3411  161.7914 N   0  0  0  0  0  0  0  0  0  0  0  0
  153.7055  138.2460  161.0163 N   0  0  0  0  0  0  0  0  0  0  0  0
  152.9871  138.5816  159.7778 C   0  0  0  0  0  0  0  0  0  0  0  0
  153.0245  140.0790  159.4377 C   0  0  0  0  0  0  0  0  0  0  0  0
  154.0828  140.6285  159.1281 O   0  0  0  0  0  0  0  0  0  0  0  0
  151.8446  140.7179  159.4812 N   0  0  0  0  0  0  0  0  0  0  0  0
  151.6260  142.1384  159.2099 C   0  0  2  0  0  0  0  0  0  0  0  0
  151.8723  142.3946  157.7107 C   0  0  0  0  0  0  0  0  0  0  0  0
  151.7325  143.8806  157.3524 C   0  0  0  0  0  0  0  0  0  0  0  0
  152.6558  144.7487  158.2215 C   0  0  0  0  0  0  0  0  0  0  0  0
  152.4146  144.5284  159.7288 C   0  0  1  0  0  0  0  0  0  0  0  0
  151.0901  145.1694  160.1915 C   0  0  0  0  0  0  0  0  0  0  0  0
  152.5515  143.0239  160.0867 C   0  0  1  0  0  0  0  0  0  0  0  0
  152.3886  142.7651  161.5977 C   0  0  0  0  0  0  0  0  0  0  0  0
  153.9945  136.9517  161.3377 C   0  0  0  0  0  0  0  0  0  0  0  0
  153.6910  136.0049  160.6104 O   0  0  0  0  0  0  0  0  0  0  0  0
  154.6901  136.8064  162.6184 C   0  0  0  0  0  0  0  0  0  0  0  0
  155.0047  135.4665  162.9964 C   0  0  0  0  0  0  0  0  0  0  0  0
  155.2407  134.3740  163.2977 N   0  0  0  0  0  0  0  0  0  0  0  0
  155.0118  137.8733  163.3921 C   0  0  0  0  0  0  0  0  0  0  0  0
  155.7329  137.7762  164.7296 C   0  0  0  0  0  0  0  0  0  0  0  0
  156.0292  140.5742  163.8406 H   0  0  0  0  0  0  0  0  0  0  0  0
  154.4657  140.4636  164.6526 H   0  0  0  0  0  0  0  0  0  0  0  0
  154.6164  141.3579  163.1444 H   0  0  0  0  0  0  0  0  0  0  0  0
  153.4121  138.0343  158.9343 H   0  0  0  0  0  0  0  0  0  0  0  0
  151.9496  138.2494  159.8487 H   0  0  0  0  0  0  0  0  0  0  0  0
  151.0298  140.1785  159.7356 H   0  0  0  0  0  0  0  0  0  0  0  0
  150.5885  142.3986  159.4247 H   0  0  0  0  0  0  0  0  0  0  0  0
  152.8724  142.0543  157.4380 H   0  0  0  0  0  0  0  0  0  0  0  0
  151.1742  141.8078  157.1123 H   0  0  0  0  0  0  0  0  0  0  0  0
  151.9704  144.0295  156.2986 H   0  0  0  0  0  0  0  0  0  0  0  0
  150.6959  144.1939  157.4778 H   0  0  0  0  0  0  0  0  0  0  0  0
  153.6933  144.5085  157.9855 H   0  0  0  0  0  0  0  0  0  0  0  0
  152.5259  145.8011  157.9669 H   0  0  0  0  0  0  0  0  0  0  0  0
  153.2086  145.0612  160.2539 H   0  0  0  0  0  0  0  0  0  0  0  0
  150.2194  144.6735  159.7640 H   0  0  0  0  0  0  0  0  0  0  0  0
  151.0445  146.2188  159.8994 H   0  0  0  0  0  0  0  0  0  0  0  0
  150.9883  145.1392  161.2760 H   0  0  0  0  0  0  0  0  0  0  0  0
  153.5786  142.7454  159.8440 H   0  0  0  0  0  0  0  0  0  0  0  0
  151.3532  142.8859  161.9167 H   0  0  0  0  0  0  0  0  0  0  0  0
  153.0023  143.4508  162.1821 H   0  0  0  0  0  0  0  0  0  0  0  0
  152.6964  141.7541  161.8649 H   0  0  0  0  0  0  0  0  0  0  0  0
  155.9546  136.7459  165.0058 H   0  0  0  0  0  0  0  0  0  0  0  0
  155.1221  138.2032  165.5257 H   0  0  0  0  0  0  0  0  0  0  0  0
  156.6793  138.3167  164.6940 H   0  0  0  0  0  0  0  0  0  0  0  0
  1  2  1  0  0  0  0
  1 24  1  0  0  0  0
  1 25  1  0  0  0  0
  1 26  1  0  0  0  0
  2 22  1  0  0  0  0
  2  3  2  0  0  0  0
  3  4  1  0  0  0  0
  4  5  1  0  0  0  0
  4 17  1  0  0  0  0
  5  6  1  0  0  0  0
  5 27  1  0  0  0  0
  5 28  1  0  0  0  0
  6  7  2  0  0  0  0
  6  8  1  0  0  0  0
  8  9  1  0  0  0  0
  8 29  1  0  0  0  0
  9 15  1  0  0  0  0
  9 10  1  0  0  0  0
  9 30  1  0  0  0  0
 10 11  1  0  0  0  0
 10 31  1  0  0  0  0
 10 32  1  0  0  0  0
 11 12  1  0  0  0  0
 11 33  1  0  0  0  0
 11 34  1  0  0  0  0
 12 13  1  0  0  0  0
 12 35  1  0  0  0  0
 12 36  1  0  0  0  0
 13 14  1  0  0  0  0
 13 15  1  0  0  0  0
 13 37  1  0  0  0  0
 14 38  1  0  0  0  0
 14 39  1  0  0  0  0
 14 40  1  0  0  0  0
 15 16  1  0  0  0  0
 15 41  1  0  0  0  0
 16 42  1  0  0  0  0
 16 43  1  0  0  0  0
 16 44  1  0  0  0  0
 17 18  2  0  0  0  0
 17 19  1  0  0  0  0
 19 20  1  0  0  0  0
 19 22  2  0  0  0  0
 20 21  3  0  0  0  0
 22 23  1  0  0  0  0
 23 45  1  0  0  0  0
 23 46  1  0  0  0  0
 23 47  1  0  0  0  0
M  END
> <s_m_source_file>
AV-unprocessed.smi

> <i_m_source_file_index>
1662

> <i_lp_mmshare_version>
43012

> <i_f3d_flags>
0

> <s_epik_input>
TiNDYyhjMVtDSDNdKWMoPU8pbihuYzFbQ0gzXSlbQ0gyXUMoPU8pW05IXVtDQEBIXTJbQ0gyXVtDSDJdW0NIMl1bQ0BASF0oW0NIM10pW0NASF0yW0NIM10=

> <s_epik_cmdline>
J2VwaWtfcHl0aG9uJywgJy1waCcsICc3LjAnLCAnLXRuJywgJzgnLCAnLW1hJywgJzIwMCcsICctbWV0YWxfYmluZGluZycsICctaW1hZScsICc8aW5maWxlLm1hZT4nLCAnLW9tYWUnLCAnPG91dGZpbGUubWFlPic=

> <r_lp_tautomer_probability>
1

> <r_epik_Ionization_Penalty>
1.90709e-08

> <r_epik_Ionization_Penalty_Charging>
2.37982e-11

> <r_epik_Ionization_Penalty_Neutral>
1.90471e-08

> <r_epik_State_Penalty>
-0

> <r_epik_Charging_Adjusted_Penalty>
2.37982e-11

> <i_epik_Tot_Q>
0

> <i_epik_Tot_abs_Q>
0

> <r_epik_Metal_State_Penalty>
-0

> <b_epik_Metal_Only>
0

> <s_lp_Force_Field>
OPLS_2005

> <r_lp_Energy>
29.144

> <b_lp_Chiralities_Consistent>
1

> <s_lp_Variant>
AV-unprocessed.smi:1662-1

> <Gold.Version>
5.8.1

> <Gold.Id.Protein>
6NUR|6NUR_protein|mol2

> <Gold.PLP.Fitness>
48.2941

> <Gold.PLP.PLP>
-43.6080

> <Gold.PLP.part.hbond>
-2.0000

> <Gold.PLP.part.metal>
0.0000

> <Gold.PLP.part.buried>
-2.1053

> <Gold.PLP.part.nonpolar>
-38.3316

> <Gold.PLP.part.repulsive>
0.1792

> <Gold.PLP.ligand.clash>
0.0000

> <Gold.PLP.ligand.torsion>
0.2404

> <Gold.PLP.Chemscore.Hbond>
1.7200

> <Gold.PLP.Chemscore.CHOScore>
0.0000

> <Gold.PLP.Chemscore.Metal>
0.0000

> <Gold.Chemscore.Hbonds>
donor molecule, donor type, donor heavy atom, donor atom, acceptor molecule, acceptor atom, score
      P1  H  6896  6909       L1    18  1.00
      P1  H  7997  8008       L1     7  0.54

> <Gold.PLP.Chemscore.Internal.Correction>
0.0069

> <Gold.Rescore>
     Score         DG    S(hbond)    S(metal)    S(lipo)     H(rot)  DE(clash)    DE(int)     intcor
     19.33     -22.41       1.66        0.00     129.02       1.45       0.99       2.09       ----

> <Gold.Chemscore.Fitness>
19.3311

> <Gold.Chemscore.DG>
-22.4136

> <Gold.Chemscore.ZeroCoef>
-5.4800

> <Gold.Chemscore.Hbond>
1.6622

> <Gold.Chemscore.Metal>
0.0000

> <Gold.Chemscore.Lipo>
129.0165

> <Gold.Chemscore.Internal_Hbond>
0.0000

> <Gold.Chemscore.DEClash>
0.9881

> <Gold.Chemscore.DEInternal>
2.0944

> <Gold.Chemscore.Rot>
1.4504

> <Gold.Chemscore.Internal.Correction>
   9.000000E+99

> <Gold.Chemscore.Hbonds>
donor molecule, donor type, donor heavy atom, donor atom, acceptor molecule, acceptor atom, score
      P1  H  6896  6909       L1    18  1.00
      P1  H  7997  8008       L1     7  0.47

> <Gold.Chemscore.Hbond.Weighted>
-5.5516

> <Gold.Chemscore.Metal.Weighted>
-0.0000

> <Gold.Chemscore.Lipo.Weighted>
-15.0949

> <Gold.Chemscore.Internal_Hbond.Weighted>
0.0000

> <Gold.Chemscore.DEClash.Weighted>
0.9881

> <Gold.Chemscore.DEInternal.Weighted>
2.0944

> <Gold.Chemscore.Rot.Weighted>
3.7129

> <Gold.Chemscore.Internal.Correction.Weighted>
   9.000000E+99

> <Gold.Protein.RotatedTorsions>
[ 6907 6896 6895 6894 ] final  161.17 input  -60.11 | X-H torsion
[ 7974 7965 7964 7962 ] final  167.47 input  175.53 | X-H torsion
[ 8008 7997 7996 7995 ] final -102.62 input   59.86 | X-H torsion
[ 10167 10162 10161 10158 ] final   92.40 input  -65.29 | X-H torsion
[ 10718 10713 10712 10709 ] final -175.67 input   66.30 | X-H torsion
[ 10763 10752 10751 10750 ] final   79.70 input  -60.55 | X-H torsion
[ 11005 11000 10999 10996 ] final  -35.87 input  -57.11 | X-H torsion

> <Gold.Protein.ActiveResidues>
 VAL166  LYS551  ARG553  GLY616  TRP617  ASP618  TYR619  PRO620  LYS621  CYS622 
 ASP623  PHE694  ASN695  SER759  ASP760  ASP761  ALA762  ILE779  LEU786  VAL792 
 PHE793  MET794  SER795  GLU796  ALA797  LYS798  CYS799  TRP800  GLU811  SER814 

> <Gold.Protein.RotatedAtoms>
  151.9596  133.3691  159.4029 H   0  0  0  0  0  0  0  0  0  0  0  0  # atno 6907 bound_to 6896
  150.6966  134.4254  159.5233 H   0  0  0  0  0  0  0  0  0  0  0  0  # atno 6908 bound_to 6896
  152.1941  134.8646  160.0565 H   0  0  0  0  0  0  0  0  0  0  0  0  # atno 6909 bound_to 6896
  144.7423  139.8765  143.6393 H   0  0  0  0  0  0  0  0  0  0  0  0  # atno 7974 bound_to 7965
  154.8593  140.0427  157.1655 H   0  0  0  0  0  0  0  0  0  0  0  0  # atno 8008 bound_to 7997
  154.8857  140.2979  155.5378 H   0  0  0  0  0  0  0  0  0  0  0  0  # atno 8009 bound_to 7997
  156.2998  140.2403  156.3866 H   0  0  0  0  0  0  0  0  0  0  0  0  # atno 8010 bound_to 7997
  139.8280  144.6700  150.9435 H   0  0  0  0  0  0  0  0  0  0  0  0  # atno 10167 bound_to 10162
  156.8034  130.9560  151.3118 H   0  0  0  0  0  0  0  0  0  0  0  0  # atno 10718 bound_to 10713
  153.0974  135.4830  154.8804 H   0  0  0  0  0  0  0  0  0  0  0  0  # atno 10763 bound_to 10752
  154.7340  135.3066  154.8846 H   0  0  0  0  0  0  0  0  0  0  0  0  # atno 10764 bound_to 10752
  153.9473  135.6827  153.4797 H   0  0  0  0  0  0  0  0  0  0  0  0  # atno 10765 bound_to 10752
  140.9830  133.7046  156.1717 H   0  0  0  0  0  0  0  0  0  0  0  0  # atno 11005 bound_to 11000
  146.1242  139.4265  143.0209 LP  0  0  0  0  0  0  0  0  0  0  0  0  # atno 17320 bound_to 7965
  145.7259  141.0059  143.1377 LP  0  0  0  0  0  0  0  0  0  0  0  0  # atno 17321 bound_to 7965
  140.7809  143.4027  151.1122 LP  0  0  0  0  0  0  0  0  0  0  0  0  # atno 17342 bound_to 10162
  139.7683  143.8532  152.3115 LP  0  0  0  0  0  0  0  0  0  0  0  0  # atno 17343 bound_to 10162
  157.6542  130.8910  149.9695 LP  0  0  0  0  0  0  0  0  0  0  0  0  # atno 17370 bound_to 10713
  156.1088  130.3651  150.0086 LP  0  0  0  0  0  0  0  0  0  0  0  0  # atno 17371 bound_to 10713
  140.7157  134.4413  157.5578 LP  0  0  0  0  0  0  0  0  0  0  0  0  # atno 17394 bound_to 11000
  139.8958  134.8673  156.2113 LP  0  0  0  0  0  0  0  0  0  0  0  0  # atno 17395 bound_to 11000

$$$$
