AV-unprocessed.smi:243|AV-procd|sdf|1858|dock5
  -GOLD-   2262020483D 1   1.00000     0.00000
 Structure written by MMmdl.
 58 61  0  0  0  0  0  0  0  0  2 V2000
  151.3197  144.9352  158.6290 C   0  0  0  0  0  0  0  0  0  0  0  0
  151.6521  143.7278  157.7401 C   0  0  0  0  0  0  0  0  0  0  0  0
  150.4372  143.0429  157.2298 N   0  3  2  0  0  0  0  0  0  0  0  0
  149.5160  142.6507  158.3270 C   0  0  0  0  0  0  0  0  0  0  0  0
  148.2061  142.0417  157.7904 C   0  0  0  0  0  0  0  0  0  0  0  0
  148.4008  140.9286  156.7391 C   0  0  2  0  0  0  0  0  0  0  0  0
  148.5876  139.5878  157.3233 N   0  0  0  0  0  0  0  0  0  0  0  0
  149.8067  139.1596  158.0066 C   0  0  0  0  0  0  0  0  0  0  0  0
  147.7550  138.6030  156.8964 C   0  0  0  0  0  0  0  0  0  0  0  0
  147.5803  137.5022  157.6751 N   0  0  0  0  0  0  0  0  0  0  0  0
  146.7842  136.5086  157.2707 C   0  0  0  0  0  0  0  0  0  0  0  0
  146.0756  136.4134  156.1444 N   0  0  0  0  0  0  0  0  0  0  0  0
  146.2318  137.5218  155.3654 C   0  0  0  0  0  0  0  0  0  0  0  0
  147.0447  138.6522  155.6626 C   0  0  0  0  0  0  0  0  0  0  0  0
  146.9463  139.5867  154.6382 N   0  0  0  0  0  0  0  0  0  0  0  0
  146.1334  139.0345  153.7796 C   0  0  0  0  0  0  0  0  0  0  0  0
  145.6511  137.7961  154.1391 N   0  0  0  0  0  0  0  0  0  0  0  0
  144.7398  136.9597  153.3722 C   0  0  0  0  0  0  0  0  0  0  0  0
  145.4314  136.1549  152.2463 C   0  0  1  0  0  0  0  0  0  0  0  0
  146.3627  136.9935  151.5835 O   0  0  0  0  0  0  0  0  0  0  0  0
  146.1777  134.9324  152.7675 C   0  0  0  0  0  0  0  0  0  0  0  0
  146.1008  133.9637  151.5952 C   0  0  0  0  0  0  0  0  0  0  0  0
  144.7869  134.1683  151.1053 O   0  0  0  0  0  0  0  0  0  0  0  0
  144.4754  135.5556  151.1927 C   0  0  0  0  0  0  0  0  0  0  0  0
  149.4575  141.3438  155.6856 C   0  0  2  0  0  0  0  0  0  0  0  0
  149.7406  140.2603  154.6308 C   0  0  0  0  0  0  0  0  0  0  0  0
  150.7429  141.9012  156.3275 C   0  0  0  0  0  0  0  0  0  0  0  0
  152.2291  145.3511  159.0634 H   0  0  0  0  0  0  0  0  0  0  0  0
  150.6628  144.6503  159.4516 H   0  0  0  0  0  0  0  0  0  0  0  0
  150.8352  145.7362  158.0716 H   0  0  0  0  0  0  0  0  0  0  0  0
  152.2927  144.0245  156.9082 H   0  0  0  0  0  0  0  0  0  0  0  0
  152.2333  143.0270  158.3411 H   0  0  0  0  0  0  0  0  0  0  0  0
  150.0221  141.9735  159.0115 H   0  0  0  0  0  0  0  0  0  0  0  0
  149.2667  143.5338  158.9167 H   0  0  0  0  0  0  0  0  0  0  0  0
  147.5857  141.6849  158.6136 H   0  0  0  0  0  0  0  0  0  0  0  0
  147.6374  142.8462  157.3222 H   0  0  0  0  0  0  0  0  0  0  0  0
  147.4660  140.8972  156.1803 H   0  0  0  0  0  0  0  0  0  0  0  0
  149.6077  138.2941  158.6402 H   0  0  0  0  0  0  0  0  0  0  0  0
  150.2094  139.9328  158.6524 H   0  0  0  0  0  0  0  0  0  0  0  0
  150.5766  138.8786  157.2881 H   0  0  0  0  0  0  0  0  0  0  0  0
  146.7044  135.6690  157.9455 H   0  0  0  0  0  0  0  0  0  0  0  0
  145.8576  139.5207  152.8550 H   0  0  0  0  0  0  0  0  0  0  0  0
  144.2349  136.2837  154.0637 H   0  0  0  0  0  0  0  0  0  0  0  0
  143.9628  137.5992  152.9514 H   0  0  0  0  0  0  0  0  0  0  0  0
  147.2348  136.7276  151.8329 H   0  0  0  0  0  0  0  0  0  0  0  0
  147.2000  135.1422  153.0857 H   0  0  0  0  0  0  0  0  0  0  0  0
  145.6490  134.4998  153.6181 H   0  0  0  0  0  0  0  0  0  0  0  0
  146.8262  134.2229  150.8222 H   0  0  0  0  0  0  0  0  0  0  0  0
  146.2640  132.9271  151.8906 H   0  0  0  0  0  0  0  0  0  0  0  0
  143.4281  135.6503  151.4768 H   0  0  0  0  0  0  0  0  0  0  0  0
  144.5918  136.0257  150.2148 H   0  0  0  0  0  0  0  0  0  0  0  0
  149.0168  142.1775  155.1362 H   0  0  0  0  0  0  0  0  0  0  0  0
  150.2597  139.4024  155.0572 H   0  0  0  0  0  0  0  0  0  0  0  0
  150.3643  140.6523  153.8270 H   0  0  0  0  0  0  0  0  0  0  0  0
  148.8150  139.8996  154.1812 H   0  0  0  0  0  0  0  0  0  0  0  0
  151.4088  142.2318  155.5314 H   0  0  0  0  0  0  0  0  0  0  0  0
  151.2822  141.1285  156.8744 H   0  0  0  0  0  0  0  0  0  0  0  0
  149.9375  143.7250  156.6772 H   0  0  0  0  0  0  0  0  0  0  0  0
  1  2  1  0  0  0  0
  1 28  1  0  0  0  0
  1 29  1  0  0  0  0
  1 30  1  0  0  0  0
  2  3  1  0  0  0  0
  2 31  1  0  0  0  0
  2 32  1  0  0  0  0
  3 27  1  0  0  0  0
  3  4  1  0  0  0  0
  3 58  1  0  0  0  0
  4  5  1  0  0  0  0
  4 33  1  0  0  0  0
  4 34  1  0  0  0  0
  5  6  1  0  0  0  0
  5 35  1  0  0  0  0
  5 36  1  0  0  0  0
  6  7  1  0  0  0  0
  6 25  1  0  0  0  0
  6 37  1  0  0  0  0
  7  8  1  0  0  0  0
  7  9  1  0  0  0  0
  8 38  1  0  0  0  0
  8 39  1  0  0  0  0
  8 40  1  0  0  0  0
  9 14  1  0  0  0  0
  9 10  2  0  0  0  0
 10 11  1  0  0  0  0
 11 12  2  0  0  0  0
 11 41  1  0  0  0  0
 12 13  1  0  0  0  0
 13 17  1  0  0  0  0
 13 14  2  0  0  0  0
 14 15  1  0  0  0  0
 15 16  2  0  0  0  0
 16 17  1  0  0  0  0
 16 42  1  0  0  0  0
 17 18  1  0  0  0  0
 18 19  1  0  0  0  0
 18 43  1  0  0  0  0
 18 44  1  0  0  0  0
 19 24  1  0  0  0  0
 19 20  1  0  0  0  0
 19 21  1  0  0  0  0
 20 45  1  0  0  0  0
 21 22  1  0  0  0  0
 21 46  1  0  0  0  0
 21 47  1  0  0  0  0
 22 23  1  0  0  0  0
 22 48  1  0  0  0  0
 22 49  1  0  0  0  0
 23 24  1  0  0  0  0
 24 50  1  0  0  0  0
 24 51  1  0  0  0  0
 25 26  1  0  0  0  0
 25 27  1  0  0  0  0
 25 52  1  0  0  0  0
 26 53  1  0  0  0  0
 26 54  1  0  0  0  0
 26 55  1  0  0  0  0
 27 56  1  0  0  0  0
 27 57  1  0  0  0  0
M  CHG  1   3   1
M  END
> <s_m_source_file>
AV-unprocessed.smi

> <i_m_source_file_index>
243

> <i_lp_mmshare_version>
43012

> <i_f3d_flags>
0

> <s_epik_input>
W0NIM11bQ0gyXU4xW0NIMl1bQ0gyXVtDQEhdKFtDQEBIXShbQ0gzXSlbQ0gyXTEpTihbQ0gzXSljKG5bY0hdbjIpYyhjMjMpbltjSF1uM1tDSDJdW0NAQF00KFtPSF0pW0NIMl1bQ0gyXU9bQ0gyXTQ=

> <s_epik_cmdline>
J2VwaWtfcHl0aG9uJywgJy1waCcsICc3LjAnLCAnLXRuJywgJzgnLCAnLW1hJywgJzIwMCcsICctbWV0YWxfYmluZGluZycsICctaW1hZScsICc8aW5maWxlLm1hZT4nLCAnLW9tYWUnLCAnPG91dGZpbGUubWFlPic=

> <r_lp_tautomer_probability>
1

> <r_epik_Ionization_Penalty>
0.00253099

> <r_epik_Ionization_Penalty_Charging>
0.00137877

> <r_epik_Ionization_Penalty_Neutral>
0.00115221

> <r_epik_State_Penalty>
-0

> <r_epik_Charging_Adjusted_Penalty>
0.00137877

> <i_epik_Tot_Q>
1

> <i_epik_Tot_abs_Q>
1

> <r_epik_Metal_State_Penalty>
-0

> <b_epik_Metal_Only>
0

> <s_lp_Force_Field>
OPLS_2005

> <r_lp_Energy>
51.0856

> <b_lp_Chiralities_Consistent>
1

> <s_lp_Variant>
AV-unprocessed.smi:243-11

> <Gold.Version>
5.8.1

> <Gold.Id.Protein>
6NUR|6NUR_protein|mol2

> <Gold.PLP.Fitness>
42.3355

> <Gold.PLP.PLP>
-31.9836

> <Gold.PLP.part.hbond>
-2.2980

> <Gold.PLP.part.metal>
0.0000

> <Gold.PLP.part.buried>
-3.6988

> <Gold.PLP.part.nonpolar>
-25.9450

> <Gold.PLP.part.repulsive>
0.2461

> <Gold.PLP.ligand.clash>
0.0000

> <Gold.PLP.ligand.torsion>
1.0855

> <Gold.PLP.Chemscore.Hbond>
3.0000

> <Gold.PLP.Chemscore.CHOScore>
1.0000

> <Gold.PLP.Chemscore.Metal>
0.0000

> <Gold.Chemscore.Hbonds>
donor molecule, donor type, donor heavy atom, donor atom, acceptor molecule, acceptor atom, score
      L1  H     3    58       P1  8028  2.00
      L1  H    20    45       P1  7948  1.00
      L1  C    16    42       P1 10175  0.87

> <Gold.PLP.Chemscore.Internal.Correction>
0.5229

> <Gold.Rescore>
     Score         DG    S(hbond)    S(metal)    S(lipo)     H(rot)  DE(clash)    DE(int)     intcor
     13.34     -15.83       2.00        0.00      80.49       2.24       0.22       2.27       ----

> <Gold.Chemscore.Fitness>
13.3432

> <Gold.Chemscore.DG>
-15.8338

> <Gold.Chemscore.ZeroCoef>
-5.4800

> <Gold.Chemscore.Hbond>
1.9956

> <Gold.Chemscore.Metal>
0.0000

> <Gold.Chemscore.Lipo>
80.4917

> <Gold.Chemscore.Internal_Hbond>
0.0000

> <Gold.Chemscore.DEClash>
0.2204

> <Gold.Chemscore.DEInternal>
2.2702

> <Gold.Chemscore.Rot>
2.2379

> <Gold.Chemscore.Internal.Correction>
   9.000000E+99

> <Gold.Chemscore.Hbonds>
donor molecule, donor type, donor heavy atom, donor atom, acceptor molecule, acceptor atom, score
      L1  H     3    58       P1  8028  1.00
      L1  H    20    45       P1  7948  1.00

> <Gold.Chemscore.Hbond.Weighted>
-6.6654

> <Gold.Chemscore.Metal.Weighted>
-0.0000

> <Gold.Chemscore.Lipo.Weighted>
-9.4175

> <Gold.Chemscore.Internal_Hbond.Weighted>
0.0000

> <Gold.Chemscore.DEClash.Weighted>
0.2204

> <Gold.Chemscore.DEInternal.Weighted>
2.2702

> <Gold.Chemscore.Rot.Weighted>
5.7291

> <Gold.Chemscore.Internal.Correction.Weighted>
   9.000000E+99

> <Gold.Protein.RotatedTorsions>
[ 6907 6896 6895 6894 ] final   37.88 input  -60.11 | X-H torsion
[ 7974 7965 7964 7962 ] final  -76.49 input  175.53 | X-H torsion
[ 8008 7997 7996 7995 ] final  -60.22 input   59.86 | X-H torsion
[ 10167 10162 10161 10158 ] final  143.47 input  -65.29 | X-H torsion
[ 10718 10713 10712 10709 ] final   84.80 input   66.30 | X-H torsion
[ 10763 10752 10751 10750 ] final -169.85 input  -60.55 | X-H torsion
[ 11005 11000 10999 10996 ] final  119.98 input  -57.11 | X-H torsion

> <Gold.Protein.ActiveResidues>
 VAL166  LYS551  ARG553  GLY616  TRP617  ASP618  TYR619  PRO620  LYS621  CYS622 
 ASP623  PHE694  ASN695  SER759  ASP760  ASP761  ALA762  ILE779  LEU786  VAL792 
 PHE793  MET794  SER795  GLU796  ALA797  LYS798  CYS799  TRP800  GLU811  SER814 

> <Gold.Protein.RotatedAtoms>
  152.1491  134.9003  160.0548 H   0  0  0  0  0  0  0  0  0  0  0  0  # atno 6907 bound_to 6896
  152.0041  133.3832  159.4202 H   0  0  0  0  0  0  0  0  0  0  0  0  # atno 6908 bound_to 6896
  150.6873  134.3723  159.5041 H   0  0  0  0  0  0  0  0  0  0  0  0  # atno 6909 bound_to 6896
  145.6121  140.9384  143.1183 H   0  0  0  0  0  0  0  0  0  0  0  0  # atno 7974 bound_to 7965
  154.4388  140.1044  156.6239 H   0  0  0  0  0  0  0  0  0  0  0  0  # atno 8008 bound_to 7997
  155.5678  140.3488  155.4489 H   0  0  0  0  0  0  0  0  0  0  0  0  # atno 8009 bound_to 7997
  156.0412  140.1282  157.0143 H   0  0  0  0  0  0  0  0  0  0  0  0  # atno 8010 bound_to 7997
  139.4969  144.6038  151.6423 H   0  0  0  0  0  0  0  0  0  0  0  0  # atno 10167 bound_to 10162
  157.6904  131.0148  150.2727 H   0  0  0  0  0  0  0  0  0  0  0  0  # atno 10718 bound_to 10713
  154.6478  135.2907  155.0024 H   0  0  0  0  0  0  0  0  0  0  0  0  # atno 10763 bound_to 10752
  154.1128  135.6560  153.4892 H   0  0  0  0  0  0  0  0  0  0  0  0  # atno 10764 bound_to 10752
  153.0360  135.5269  154.7373 H   0  0  0  0  0  0  0  0  0  0  0  0  # atno 10765 bound_to 10752
  139.9167  134.9632  156.7737 H   0  0  0  0  0  0  0  0  0  0  0  0  # atno 11005 bound_to 11000
  144.7265  139.7858  143.7363 LP  0  0  0  0  0  0  0  0  0  0  0  0  # atno 17320 bound_to 7965
  146.1496  139.4575  143.0057 LP  0  0  0  0  0  0  0  0  0  0  0  0  # atno 17321 bound_to 7965
  140.5695  144.0133  150.6209 LP  0  0  0  0  0  0  0  0  0  0  0  0  # atno 17342 bound_to 10162
  140.3246  143.3115  152.0749 LP  0  0  0  0  0  0  0  0  0  0  0  0  # atno 17343 bound_to 10162
  156.3287  130.3797  149.7510 LP  0  0  0  0  0  0  0  0  0  0  0  0  # atno 17370 bound_to 10713
  156.5056  130.8149  151.3149 LP  0  0  0  0  0  0  0  0  0  0  0  0  # atno 17371 bound_to 10713
  140.6600  133.9654  155.7800 LP  0  0  0  0  0  0  0  0  0  0  0  0  # atno 17394 bound_to 11000
  141.0650  134.0290  157.3606 LP  0  0  0  0  0  0  0  0  0  0  0  0  # atno 17395 bound_to 11000

$$$$
