AV-unprocessed.smi:1703|AV-procd|sdf|6856|dock1
  -GOLD-   22720 8 43D 1   1.00000     0.00000
 Structure written by MMmdl.
 48 50  0  0  0  0  0  0  0  0  1 V2000
  146.2717  142.8239  154.0088 C   0  0  0  0  0  0  0  0  0  0  0  0
  146.7726  141.4218  154.3698 C   0  0  2  0  0  0  0  0  0  0  0  0
  148.2494  141.4246  154.8100 C   0  0  0  0  0  0  0  0  0  0  0  0
  148.7411  140.0747  155.0785 N   0  0  0  0  0  0  0  0  0  0  0  0
  150.1478  140.0506  155.4841 C   0  0  0  0  0  0  0  0  0  0  0  0
  150.4080  140.2423  156.9916 C   0  0  1  0  0  0  0  0  0  0  0  0
  149.5933  139.3334  157.7054 O   0  0  0  0  0  0  0  0  0  0  0  0
  151.8855  139.9862  157.3469 C   0  0  0  0  0  0  0  0  0  0  0  0
  152.3241  140.7399  158.5151 N   0  0  0  0  0  0  0  0  0  0  0  0
  153.0016  140.2855  159.5999 C   0  0  0  0  0  0  0  0  0  0  0  0
  153.4100  138.8450  159.7271 C   0  0  0  0  0  0  0  0  0  0  0  0
  152.3356  137.9353  159.6046 O   0  0  0  0  0  0  0  0  0  0  0  0
  153.2864  141.2028  160.5275 N   0  0  0  0  0  0  0  0  0  0  0  0
  152.7375  142.3544  159.9991 C   0  0  0  0  0  0  0  0  0  0  0  0
  152.7032  143.6725  160.5081 C   0  0  0  0  0  0  0  0  0  0  0  0
  152.0782  144.7037  159.7770 C   0  0  0  0  0  0  0  0  0  0  0  0
  151.4810  144.4327  158.5289 C   0  0  0  0  0  0  0  0  0  0  0  0
  151.5040  143.1262  158.0041 C   0  0  0  0  0  0  0  0  0  0  0  0
  152.1275  142.0996  158.7387 C   0  0  0  0  0  0  0  0  0  0  0  0
  148.5276  139.2528  153.8924 C   0  0  0  0  0  0  0  0  0  0  0  0
  147.0509  139.2438  153.4534 C   0  0  2  0  0  0  0  0  0  0  0  0
  146.8318  138.4455  152.1640 C   0  0  0  0  0  0  0  0  0  0  0  0
  146.6275  140.5849  153.2260 O   0  0  0  0  0  0  0  0  0  0  0  0
  146.3425  143.4974  154.8631 H   0  0  0  0  0  0  0  0  0  0  0  0
  145.2284  142.7956  153.6935 H   0  0  0  0  0  0  0  0  0  0  0  0
  146.8545  143.2538  153.1935 H   0  0  0  0  0  0  0  0  0  0  0  0
  146.1529  141.0265  155.1766 H   0  0  0  0  0  0  0  0  0  0  0  0
  148.8599  141.8921  154.0355 H   0  0  0  0  0  0  0  0  0  0  0  0
  148.3415  142.0475  155.6985 H   0  0  0  0  0  0  0  0  0  0  0  0
  150.5914  139.0991  155.1862 H   0  0  0  0  0  0  0  0  0  0  0  0
  150.6912  140.8150  154.9264 H   0  0  0  0  0  0  0  0  0  0  0  0
  150.1476  141.2527  157.3016 H   0  0  0  0  0  0  0  0  0  0  0  0
  148.7532  139.7408  157.8532 H   0  0  0  0  0  0  0  0  0  0  0  0
  152.0478  138.9247  157.5377 H   0  0  0  0  0  0  0  0  0  0  0  0
  152.5271  140.2360  156.5025 H   0  0  0  0  0  0  0  0  0  0  0  0
  154.1410  138.6024  158.9563 H   0  0  0  0  0  0  0  0  0  0  0  0
  153.8882  138.6934  160.6947 H   0  0  0  0  0  0  0  0  0  0  0  0
  152.1595  137.5675  160.4573 H   0  0  0  0  0  0  0  0  0  0  0  0
  153.1593  143.8903  161.4626 H   0  0  0  0  0  0  0  0  0  0  0  0
  152.0583  145.7077  160.1749 H   0  0  0  0  0  0  0  0  0  0  0  0
  151.0063  145.2284  157.9738 H   0  0  0  0  0  0  0  0  0  0  0  0
  151.0516  142.9167  157.0461 H   0  0  0  0  0  0  0  0  0  0  0  0
  149.1487  139.6195  153.0732 H   0  0  0  0  0  0  0  0  0  0  0  0
  148.8488  138.2297  154.0917 H   0  0  0  0  0  0  0  0  0  0  0  0
  146.4375  138.8079  154.2439 H   0  0  0  0  0  0  0  0  0  0  0  0
  147.1365  137.4063  152.2888 H   0  0  0  0  0  0  0  0  0  0  0  0
  147.4045  138.8661  151.3372 H   0  0  0  0  0  0  0  0  0  0  0  0
  145.7799  138.4510  151.8778 H   0  0  0  0  0  0  0  0  0  0  0  0
  1  2  1  0  0  0  0
  1 24  1  0  0  0  0
  1 25  1  0  0  0  0
  1 26  1  0  0  0  0
  2 23  1  0  0  0  0
  2  3  1  0  0  0  0
  2 27  1  0  0  0  0
  3  4  1  0  0  0  0
  3 28  1  0  0  0  0
  3 29  1  0  0  0  0
  4  5  1  0  0  0  0
  4 20  1  0  0  0  0
  5  6  1  0  0  0  0
  5 30  1  0  0  0  0
  5 31  1  0  0  0  0
  6  7  1  0  0  0  0
  6  8  1  0  0  0  0
  6 32  1  0  0  0  0
  7 33  1  0  0  0  0
  8  9  1  0  0  0  0
  8 34  1  0  0  0  0
  8 35  1  0  0  0  0
  9 19  1  0  0  0  0
  9 10  1  0  0  0  0
 10 11  1  0  0  0  0
 10 13  2  0  0  0  0
 11 12  1  0  0  0  0
 11 36  1  0  0  0  0
 11 37  1  0  0  0  0
 12 38  1  0  0  0  0
 13 14  1  0  0  0  0
 14 19  2  0  0  0  0
 14 15  1  0  0  0  0
 15 16  2  0  0  0  0
 15 39  1  0  0  0  0
 16 17  1  0  0  0  0
 16 40  1  0  0  0  0
 17 18  2  0  0  0  0
 17 41  1  0  0  0  0
 18 19  1  0  0  0  0
 18 42  1  0  0  0  0
 20 21  1  0  0  0  0
 20 43  1  0  0  0  0
 20 44  1  0  0  0  0
 21 22  1  0  0  0  0
 21 23  1  0  0  0  0
 21 45  1  0  0  0  0
 22 46  1  0  0  0  0
 22 47  1  0  0  0  0
 22 48  1  0  0  0  0
M  END
> <s_m_source_file>
AV-unprocessed.smi

> <i_m_source_file_index>
1703

> <i_lp_mmshare_version>
43012

> <i_f3d_flags>
0

> <s_epik_input>
W0NIM11bQ0BASF0xW0NIMl1OKFtDSDJdW0NASF0oTzEpW0NIM10pW0NIMl1bQ0BIXShbT0hdKVtDSDJdbihjKG4yKVtDSDJdW09IXSljKGMyMylbY0hdW2NIXVtjSF1bY0hdMw==

> <s_epik_cmdline>
J2VwaWtfcHl0aG9uJywgJy1waCcsICc3LjAnLCAnLXRuJywgJzgnLCAnLW1hJywgJzIwMCcsICctbWV0YWxfYmluZGluZycsICctaW1hZScsICc8aW5maWxlLm1hZT4nLCAnLW9tYWUnLCAnPG91dGZpbGUubWFlPic=

> <r_epik_Ionization_Penalty>
0.307685

> <r_epik_Ionization_Penalty_Charging>
0

> <r_epik_Ionization_Penalty_Neutral>
0.307685

> <r_epik_State_Penalty>
0.277856

> <r_epik_Charging_Adjusted_Penalty>
0.277856

> <i_epik_Tot_Q>
0

> <i_epik_Tot_abs_Q>
0

> <r_epik_Metal_State_Penalty>
0.238959

> <b_epik_Metal_Only>
0

> <s_lp_Force_Field>
OPLS_2005

> <r_lp_Energy>
30.3815

> <b_lp_Chiralities_Consistent>
1

> <s_lp_Variant>
AV-unprocessed.smi:1703-4

> <Gold.Version>
5.8.1

> <Gold.Id.Protein>
6NUR|6NUR_protein|mol2

> <Gold.PLP.Fitness>
45.8278

> <Gold.PLP.PLP>
-47.3959

> <Gold.PLP.part.hbond>
0.0000

> <Gold.PLP.part.metal>
0.0000

> <Gold.PLP.part.buried>
-3.3532

> <Gold.PLP.part.nonpolar>
-43.6344

> <Gold.PLP.part.repulsive>
0.7569

> <Gold.PLP.ligand.clash>
0.0000

> <Gold.PLP.ligand.torsion>
0.8570

> <Gold.PLP.Chemscore.Hbond>
0.0000

> <Gold.PLP.Chemscore.CHOScore>
0.0000

> <Gold.PLP.Chemscore.Metal>
0.0000

> <Gold.PLP.Chemscore.Internal.Correction>
0.1458

> <Gold.Rescore>
     Score         DG    S(hbond)    S(metal)    S(lipo)     H(rot)  DE(clash)    DE(int)     intcor
     12.48     -13.68       0.00        0.00     133.05       2.88       0.29       0.91       ----

> <Gold.Chemscore.Fitness>
12.4834

> <Gold.Chemscore.DG>
-13.6793

> <Gold.Chemscore.ZeroCoef>
-5.4800

> <Gold.Chemscore.Hbond>
0.0000

> <Gold.Chemscore.Metal>
0.0000

> <Gold.Chemscore.Lipo>
133.0462

> <Gold.Chemscore.Internal_Hbond>
0.0000

> <Gold.Chemscore.DEClash>
0.2874

> <Gold.Chemscore.DEInternal>
0.9086

> <Gold.Chemscore.Rot>
2.8778

> <Gold.Chemscore.Internal.Correction>
   9.000000E+99

> <Gold.Chemscore.Hbond.Weighted>
-0.0000

> <Gold.Chemscore.Metal.Weighted>
-0.0000

> <Gold.Chemscore.Lipo.Weighted>
-15.5664

> <Gold.Chemscore.Internal_Hbond.Weighted>
0.0000

> <Gold.Chemscore.DEClash.Weighted>
0.2874

> <Gold.Chemscore.DEInternal.Weighted>
0.9086

> <Gold.Chemscore.Rot.Weighted>
7.3671

> <Gold.Chemscore.Internal.Correction.Weighted>
   9.000000E+99

> <Gold.Protein.RotatedTorsions>
[ 6907 6896 6895 6894 ] final   52.73 input  -60.11 | X-H torsion
[ 7974 7965 7964 7962 ] final  -71.68 input  175.53 | X-H torsion
[ 8008 7997 7996 7995 ] final -163.39 input   59.86 | X-H torsion
[ 10167 10162 10161 10158 ] final  -88.70 input  -65.29 | X-H torsion
[ 10718 10713 10712 10709 ] final   73.28 input   66.30 | X-H torsion
[ 10763 10752 10751 10750 ] final  174.65 input  -60.55 | X-H torsion
[ 11005 11000 10999 10996 ] final   93.93 input  -57.11 | X-H torsion

> <Gold.Protein.ActiveResidues>
 VAL166  LYS551  ARG553  GLY616  TRP617  ASP618  TYR619  PRO620  LYS621  CYS622 
 ASP623  PHE694  ASN695  SER759  ASP760  ASP761  ALA762  ILE779  LEU786  VAL792 
 PHE793  MET794  SER795  GLU796  ALA797  LYS798  CYS799  TRP800  GLU811  SER814 

> <Gold.Protein.RotatedAtoms>
  152.3264  134.7316  160.0300 H   0  0  0  0  0  0  0  0  0  0  0  0  # atno 6907 bound_to 6896
  151.7747  133.3339  159.3462 H   0  0  0  0  0  0  0  0  0  0  0  0  # atno 6908 bound_to 6896
  150.7398  134.5918  159.6035 H   0  0  0  0  0  0  0  0  0  0  0  0  # atno 6909 bound_to 6896
  145.6750  140.9208  143.0863 H   0  0  0  0  0  0  0  0  0  0  0  0  # atno 7974 bound_to 7965
  155.8206  140.0919  157.1851 H   0  0  0  0  0  0  0  0  0  0  0  0  # atno 8008 bound_to 7997
  154.3979  140.1437  156.3556 H   0  0  0  0  0  0  0  0  0  0  0  0  # atno 8009 bound_to 7997
  155.8270  140.3444  155.5551 H   0  0  0  0  0  0  0  0  0  0  0  0  # atno 8010 bound_to 7997
  140.3721  143.2789  151.9487 H   0  0  0  0  0  0  0  0  0  0  0  0  # atno 10167 bound_to 10162
  157.6540  130.9620  150.1047 H   0  0  0  0  0  0  0  0  0  0  0  0  # atno 10718 bound_to 10713
  154.4569  135.2766  155.1741 H   0  0  0  0  0  0  0  0  0  0  0  0  # atno 10763 bound_to 10752
  154.3545  135.6143  153.5663 H   0  0  0  0  0  0  0  0  0  0  0  0  # atno 10764 bound_to 10752
  152.9851  135.5819  154.4924 H   0  0  0  0  0  0  0  0  0  0  0  0  # atno 10765 bound_to 10752
  139.8804  134.8817  156.3789 H   0  0  0  0  0  0  0  0  0  0  0  0  # atno 11005 bound_to 11000
  144.7044  139.8622  143.7434 LP  0  0  0  0  0  0  0  0  0  0  0  0  # atno 17320 bound_to 7965
  146.1013  139.4009  143.0345 LP  0  0  0  0  0  0  0  0  0  0  0  0  # atno 17321 bound_to 7965
  139.4803  144.5897  151.7793 LP  0  0  0  0  0  0  0  0  0  0  0  0  # atno 17342 bound_to 10162
  140.5023  144.1151  150.5974 LP  0  0  0  0  0  0  0  0  0  0  0  0  # atno 17343 bound_to 10162
  156.1960  130.3657  149.8849 LP  0  0  0  0  0  0  0  0  0  0  0  0  # atno 17370 bound_to 10713
  156.6765  130.8841  151.3570 LP  0  0  0  0  0  0  0  0  0  0  0  0  # atno 17371 bound_to 10713
  140.9412  133.7513  156.0149 LP  0  0  0  0  0  0  0  0  0  0  0  0  # atno 17394 bound_to 11000
  140.8217  134.3282  157.5379 LP  0  0  0  0  0  0  0  0  0  0  0  0  # atno 17395 bound_to 11000

$$$$
