AV-unprocessed.smi:2521|AV-procd|sdf|9916|dock3
  -GOLD-   2272013553D 1   1.00000     0.00000
 Structure written by MMmdl.
 36 37  0  0  0  0  0  0  0  0  1 V2000
  150.1971  124.0525  149.2613 C   0  0  0  0  0  0  0  0  0  0  0  0
  149.2267  123.9069  150.4425 C   0  0  0  0  0  0  0  0  0  0  0  0
  148.2200  122.7620  150.2578 C   0  0  0  0  0  0  0  0  0  0  0  0
  148.5546  125.2004  150.7833 C   0  0  0  0  0  0  0  0  0  0  0  0
  147.7331  125.3418  151.8325 N   0  0  0  0  0  0  0  0  0  0  0  0
  147.2328  126.6313  151.9421 N   0  0  0  0  0  0  0  0  0  0  0  0
  147.6916  127.4295  150.9686 C   0  0  0  0  0  0  0  0  0  0  0  0
  147.3391  128.7988  150.8389 N   0  0  0  0  0  0  0  0  0  0  0  0
  146.1690  129.3901  151.1379 C   0  0  0  0  0  0  0  0  0  0  0  0
  145.1776  128.8195  151.5933 O   0  0  0  0  0  0  0  0  0  0  0  0
  146.2112  130.7053  150.8814 N   0  0  0  0  0  0  0  0  0  0  0  0
  145.1140  131.6388  151.1131 C   0  0  0  0  0  0  0  0  0  0  0  0
  145.5639  133.1053  150.9707 C   0  0  1  0  0  0  0  0  0  0  0  0
  144.4479  134.1264  151.0731 C   0  0  0  0  0  0  0  0  0  0  0  0
  145.2222  135.4037  151.3804 C   0  0  0  0  0  0  0  0  0  0  0  0
  146.3573  134.9951  152.1381 O   0  0  0  0  0  0  0  0  0  0  0  0
  146.5005  133.5783  152.0820 C   0  0  0  0  0  0  0  0  0  0  0  0
  148.7820  126.6618  149.8279 S   0  0  0  0  0  0  0  0  0  0  0  0
  150.9499  124.8148  149.4642 H   0  0  0  0  0  0  0  0  0  0  0  0
  149.6723  124.3369  148.3486 H   0  0  0  0  0  0  0  0  0  0  0  0
  150.7201  123.1161  149.0650 H   0  0  0  0  0  0  0  0  0  0  0  0
  149.8356  123.6407  151.3072 H   0  0  0  0  0  0  0  0  0  0  0  0
  147.6043  122.6338  151.1486 H   0  0  0  0  0  0  0  0  0  0  0  0
  148.7302  121.8169  150.0701 H   0  0  0  0  0  0  0  0  0  0  0  0
  147.5535  122.9515  149.4158 H   0  0  0  0  0  0  0  0  0  0  0  0
  148.0654  129.3999  150.4787 H   0  0  0  0  0  0  0  0  0  0  0  0
  147.0654  131.0916  150.5069 H   0  0  0  0  0  0  0  0  0  0  0  0
  144.3254  131.4164  150.3938 H   0  0  0  0  0  0  0  0  0  0  0  0
  144.6840  131.4703  152.1018 H   0  0  0  0  0  0  0  0  0  0  0  0
  146.0721  133.2416  150.0144 H   0  0  0  0  0  0  0  0  0  0  0  0
  143.8495  134.2029  150.1648 H   0  0  0  0  0  0  0  0  0  0  0  0
  143.7826  133.8831  151.9029 H   0  0  0  0  0  0  0  0  0  0  0  0
  145.5707  135.8676  150.4568 H   0  0  0  0  0  0  0  0  0  0  0  0
  144.6221  136.1353  151.9218 H   0  0  0  0  0  0  0  0  0  0  0  0
  146.1979  133.1668  153.0459 H   0  0  0  0  0  0  0  0  0  0  0  0
  147.5367  133.2901  151.9033 H   0  0  0  0  0  0  0  0  0  0  0  0
  1  2  1  0  0  0  0
  1 19  1  0  0  0  0
  1 20  1  0  0  0  0
  1 21  1  0  0  0  0
  2  3  1  0  0  0  0
  2  4  1  0  0  0  0
  2 22  1  0  0  0  0
  3 23  1  0  0  0  0
  3 24  1  0  0  0  0
  3 25  1  0  0  0  0
  4 18  1  0  0  0  0
  4  5  2  0  0  0  0
  5  6  1  0  0  0  0
  6  7  2  0  0  0  0
  7  8  1  0  0  0  0
  7 18  1  0  0  0  0
  8  9  1  0  0  0  0
  8 26  1  0  0  0  0
  9 10  2  0  0  0  0
  9 11  1  0  0  0  0
 11 12  1  0  0  0  0
 11 27  1  0  0  0  0
 12 13  1  0  0  0  0
 12 28  1  0  0  0  0
 12 29  1  0  0  0  0
 13 17  1  0  0  0  0
 13 14  1  0  0  0  0
 13 30  1  0  0  0  0
 14 15  1  0  0  0  0
 14 31  1  0  0  0  0
 14 32  1  0  0  0  0
 15 16  1  0  0  0  0
 15 33  1  0  0  0  0
 15 34  1  0  0  0  0
 16 17  1  0  0  0  0
 17 35  1  0  0  0  0
 17 36  1  0  0  0  0
M  END
> <s_m_source_file>
AV-unprocessed.smi

> <i_m_source_file_index>
2521

> <i_lp_mmshare_version>
43012

> <i_f3d_flags>
0

> <s_epik_input>
W0NIM11bQ0hdKFtDSDNdKWMxbm5jKHMxKVtOSF1DKD1PKVtOSF1bQ0gyXVtDQEBIXTJbQ0gyXVtDSDJdT1tDSDJdMg==

> <s_epik_cmdline>
J2VwaWtfcHl0aG9uJywgJy1waCcsICc3LjAnLCAnLXRuJywgJzgnLCAnLW1hJywgJzIwMCcsICctbWV0YWxfYmluZGluZycsICctaW1hZScsICc8aW5maWxlLm1hZT4nLCAnLW9tYWUnLCAnPG91dGZpbGUubWFlPic=

> <r_lp_tautomer_probability>
1

> <r_epik_Ionization_Penalty>
0.000452582

> <r_epik_Ionization_Penalty_Charging>
0

> <r_epik_Ionization_Penalty_Neutral>
0.000452582

> <r_epik_State_Penalty>
-0

> <r_epik_Charging_Adjusted_Penalty>
0

> <i_epik_Tot_Q>
0

> <i_epik_Tot_abs_Q>
0

> <r_epik_Metal_State_Penalty>
0.207746

> <b_epik_Metal_Only>
0

> <s_lp_Force_Field>
OPLS_2005

> <r_lp_Energy>
10.682

> <b_lp_Chiralities_Consistent>
1

> <s_lp_Variant>
AV-unprocessed.smi:2521-2

> <Gold.Version>
5.8.1

> <Gold.Id.Protein>
6NUR|6NUR_protein|mol2

> <Gold.PLP.Fitness>
37.5022

> <Gold.PLP.PLP>
-32.3849

> <Gold.PLP.part.hbond>
-2.9910

> <Gold.PLP.part.metal>
0.0000

> <Gold.PLP.part.buried>
-7.6977

> <Gold.PLP.part.nonpolar>
-23.2558

> <Gold.PLP.part.repulsive>
1.7043

> <Gold.PLP.ligand.clash>
0.0000

> <Gold.PLP.ligand.torsion>
0.3535

> <Gold.PLP.Chemscore.Hbond>
1.9120

> <Gold.PLP.Chemscore.CHOScore>
0.0000

> <Gold.PLP.Chemscore.Metal>
0.0000

> <Gold.Chemscore.Hbonds>
donor molecule, donor type, donor heavy atom, donor atom, acceptor molecule, acceptor atom, score
      L1  H     8    26       P1 10747  1.00
      L1  H    11    27       P1 10747  0.93

> <Gold.PLP.Chemscore.Internal.Correction>
0.0882

> <Gold.Rescore>
     Score         DG    S(hbond)    S(metal)    S(lipo)     H(rot)  DE(clash)    DE(int)     intcor
     13.18     -13.79       1.52        0.00      59.44       1.45       0.16       0.46       ----

> <Gold.Chemscore.Fitness>
13.1761

> <Gold.Chemscore.DG>
-13.7945

> <Gold.Chemscore.ZeroCoef>
-5.4800

> <Gold.Chemscore.Hbond>
1.5157

> <Gold.Chemscore.Metal>
0.0000

> <Gold.Chemscore.Lipo>
59.4373

> <Gold.Chemscore.Internal_Hbond>
0.0000

> <Gold.Chemscore.DEClash>
0.1609

> <Gold.Chemscore.DEInternal>
0.4576

> <Gold.Chemscore.Rot>
1.4461

> <Gold.Chemscore.Internal.Correction>
   9.000000E+99

> <Gold.Chemscore.Hbonds>
donor molecule, donor type, donor heavy atom, donor atom, acceptor molecule, acceptor atom, score
      L1  H     8    26       P1 10747  0.39
      L1  H    11    27       P1 10747  0.89

> <Gold.Chemscore.Hbond.Weighted>
-5.0623

> <Gold.Chemscore.Metal.Weighted>
-0.0000

> <Gold.Chemscore.Lipo.Weighted>
-6.9542

> <Gold.Chemscore.Internal_Hbond.Weighted>
0.0000

> <Gold.Chemscore.DEClash.Weighted>
0.1609

> <Gold.Chemscore.DEInternal.Weighted>
0.4576

> <Gold.Chemscore.Rot.Weighted>
3.7019

> <Gold.Chemscore.Internal.Correction.Weighted>
   9.000000E+99

> <Gold.Protein.RotatedTorsions>
[ 6907 6896 6895 6894 ] final  100.11 input  -60.11 | X-H torsion
[ 7974 7965 7964 7962 ] final  -85.91 input  175.53 | X-H torsion
[ 8008 7997 7996 7995 ] final  -97.81 input   59.86 | X-H torsion
[ 10167 10162 10161 10158 ] final -145.45 input  -65.29 | X-H torsion
[ 10718 10713 10712 10709 ] final -159.55 input   66.30 | X-H torsion
[ 10763 10752 10751 10750 ] final    6.38 input  -60.55 | X-H torsion
[ 11005 11000 10999 10996 ] final  120.14 input  -57.11 | X-H torsion

> <Gold.Protein.ActiveResidues>
 VAL166  LYS551  ARG553  GLY616  TRP617  ASP618  TYR619  PRO620  LYS621  CYS622 
 ASP623  PHE694  ASN695  SER759  ASP760  ASP761  ALA762  ILE779  LEU786  VAL792 
 PHE793  MET794  SER795  GLU796  ALA797  LYS798  CYS799  TRP800  GLU811  SER814 

> <Gold.Protein.RotatedAtoms>
  152.5379  134.0326  159.8031 H   0  0  0  0  0  0  0  0  0  0  0  0  # atno 6907 bound_to 6896
  151.0495  133.5629  159.2651 H   0  0  0  0  0  0  0  0  0  0  0  0  # atno 6908 bound_to 6896
  151.2569  135.0648  159.9137 H   0  0  0  0  0  0  0  0  0  0  0  0  # atno 6909 bound_to 6896
  145.4869  140.9554  143.1833 H   0  0  0  0  0  0  0  0  0  0  0  0  # atno 7974 bound_to 7965
  154.7928  140.0460  157.1214 H   0  0  0  0  0  0  0  0  0  0  0  0  # atno 8008 bound_to 7997
  154.9571  140.3072  155.5028 H   0  0  0  0  0  0  0  0  0  0  0  0  # atno 8009 bound_to 7997
  156.2952  140.2277  156.4653 H   0  0  0  0  0  0  0  0  0  0  0  0  # atno 8010 bound_to 7997
  139.7804  143.8108  152.2638 H   0  0  0  0  0  0  0  0  0  0  0  0  # atno 10167 bound_to 10162
  156.5697  130.8683  151.2834 H   0  0  0  0  0  0  0  0  0  0  0  0  # atno 10718 bound_to 10713
  153.2483  135.6911  153.7706 H   0  0  0  0  0  0  0  0  0  0  0  0  # atno 10763 bound_to 10752
  153.6810  135.3328  155.3179 H   0  0  0  0  0  0  0  0  0  0  0  0  # atno 10764 bound_to 10752
  154.8384  135.4522  154.1431 H   0  0  0  0  0  0  0  0  0  0  0  0  # atno 10765 bound_to 10752
  139.9173  134.9633  156.7762 H   0  0  0  0  0  0  0  0  0  0  0  0  # atno 11005 bound_to 11000
  144.7856  139.6433  143.7135 LP  0  0  0  0  0  0  0  0  0  0  0  0  # atno 17320 bound_to 7965
  146.2307  139.5809  142.9557 LP  0  0  0  0  0  0  0  0  0  0  0  0  # atno 17321 bound_to 7965
  139.8170  144.7312  150.9623 LP  0  0  0  0  0  0  0  0  0  0  0  0  # atno 17342 bound_to 10162
  140.7818  143.4196  151.0863 LP  0  0  0  0  0  0  0  0  0  0  0  0  # atno 17343 bound_to 10162
  157.7351  130.9756  150.2062 LP  0  0  0  0  0  0  0  0  0  0  0  0  # atno 17370 bound_to 10713
  156.2725  130.3723  149.8017 LP  0  0  0  0  0  0  0  0  0  0  0  0  # atno 17371 bound_to 10713
  140.6581  133.9670  155.7790 LP  0  0  0  0  0  0  0  0  0  0  0  0  # atno 17394 bound_to 11000
  141.0662  134.0273  157.3590 LP  0  0  0  0  0  0  0  0  0  0  0  0  # atno 17395 bound_to 11000

$$$$
