AV-unprocessed.smi:1645|AV-procd|sdf|6617|dock2
  -GOLD-   22720 7313D 1   1.00000     0.00000
 Structure written by MMmdl.
 55 58  0  0  0  0  0  0  0  0  4 V2000
  148.3002  137.5051  156.5462 O   0  0  0  0  0  0  0  0  0  0  0  0
  148.1965  137.8834  155.3740 C   0  0  0  0  0  0  0  0  0  0  0  0
  148.7019  139.0708  154.9955 N   0  0  0  0  0  0  0  0  0  0  0  0
  149.3763  140.0403  155.7842 C   0  0  0  0  0  0  0  0  0  0  0  0
  150.2205  139.5823  156.8182 C   0  0  0  0  0  0  0  0  0  0  0  0
  150.9139  140.5140  157.6178 C   0  0  0  0  0  0  0  0  0  0  0  0
  150.7605  141.8954  157.3600 C   0  0  0  0  0  0  0  0  0  0  0  0
  151.3953  142.8946  158.1084 N   0  0  0  0  0  0  0  0  0  0  0  0
  150.4695  143.9094  158.6043 C   0  0  0  0  0  0  0  0  0  0  0  0
  151.2362  145.0847  159.2343 C   0  0  0  0  0  0  0  0  0  0  0  0
  152.1986  144.5884  160.3257 C   0  0  0  0  0  0  0  0  0  0  0  0
  153.1248  143.4969  159.7638 C   0  0  0  0  0  0  0  0  0  0  0  0
  152.3111  142.3635  159.1144 C   0  0  0  0  0  0  0  0  0  0  0  0
  149.9634  142.2939  156.3452 N   0  3  0  0  0  0  0  0  0  0  0  0
  149.2810  141.4345  155.5580 C   0  0  0  0  0  0  0  0  0  0  0  0
  147.6201  137.2189  154.3371 N   0  5  0  0  0  0  0  0  0  0  0  0
  146.3667  136.4560  154.4229 C   0  0  1  0  0  0  0  0  0  0  0  0
  145.2803  137.1478  153.5760 C   0  0  0  0  0  0  0  0  0  0  0  0
  145.3619  136.5090  152.1735 C   0  0  0  0  0  0  0  0  0  0  0  0
  146.3963  135.4596  152.2718 N   0  3  2  0  0  0  0  0  0  0  0  0
  146.2474  134.2800  151.3908 C   0  0  0  0  0  0  0  0  0  0  0  0
  147.4494  133.3339  151.5879 C   0  0  0  0  0  0  0  0  0  0  0  0
  147.6459  132.9566  153.0705 C   0  0  0  0  0  0  0  0  0  0  0  0
  147.7337  134.2149  153.9553 C   0  0  0  0  0  0  0  0  0  0  0  0
  146.4983  135.1065  153.6974 C   0  0  1  0  0  0  0  0  0  0  0  0
  148.6622  139.2625  154.0052 H   0  0  0  0  0  0  0  0  0  0  0  0
  150.3290  138.5242  157.0067 H   0  0  0  0  0  0  0  0  0  0  0  0
  151.5513  140.1678  158.4181 H   0  0  0  0  0  0  0  0  0  0  0  0
  149.8451  144.2702  157.7857 H   0  0  0  0  0  0  0  0  0  0  0  0
  149.8021  143.4655  159.3442 H   0  0  0  0  0  0  0  0  0  0  0  0
  151.7992  145.6089  158.4610 H   0  0  0  0  0  0  0  0  0  0  0  0
  150.5352  145.8082  159.6515 H   0  0  0  0  0  0  0  0  0  0  0  0
  152.7868  145.4190  160.7166 H   0  0  0  0  0  0  0  0  0  0  0  0
  151.6269  144.1884  161.1641 H   0  0  0  0  0  0  0  0  0  0  0  0
  153.7959  143.9344  159.0230 H   0  0  0  0  0  0  0  0  0  0  0  0
  153.7572  143.0970  160.5566 H   0  0  0  0  0  0  0  0  0  0  0  0
  151.7443  141.8301  159.8788 H   0  0  0  0  0  0  0  0  0  0  0  0
  152.9855  141.6408  158.6532 H   0  0  0  0  0  0  0  0  0  0  0  0
  148.6953  141.8960  154.7770 H   0  0  0  0  0  0  0  0  0  0  0  0
  146.0311  136.3060  155.4499 H   0  0  0  0  0  0  0  0  0  0  0  0
  144.2998  136.9427  154.0073 H   0  0  0  0  0  0  0  0  0  0  0  0
  145.3896  138.2331  153.5439 H   0  0  0  0  0  0  0  0  0  0  0  0
  144.3975  136.0796  151.8966 H   0  0  0  0  0  0  0  0  0  0  0  0
  145.6399  137.2342  151.4077 H   0  0  0  0  0  0  0  0  0  0  0  0
  145.3146  133.7630  151.6206 H   0  0  0  0  0  0  0  0  0  0  0  0
  146.1897  134.6059  150.3519 H   0  0  0  0  0  0  0  0  0  0  0  0
  147.3172  132.4329  150.9882 H   0  0  0  0  0  0  0  0  0  0  0  0
  148.3539  133.8192  151.2188 H   0  0  0  0  0  0  0  0  0  0  0  0
  146.8114  132.3369  153.4011 H   0  0  0  0  0  0  0  0  0  0  0  0
  148.5457  132.3524  153.1886 H   0  0  0  0  0  0  0  0  0  0  0  0
  147.7911  133.9252  155.0057 H   0  0  0  0  0  0  0  0  0  0  0  0
  148.6596  134.7448  153.7244 H   0  0  0  0  0  0  0  0  0  0  0  0
  145.6121  134.5216  153.9536 H   0  0  0  0  0  0  0  0  0  0  0  0
  147.2726  135.9074  152.0434 H   0  0  0  0  0  0  0  0  0  0  0  0
  149.8702  143.2934  156.1639 H   0  0  0  0  0  0  0  0  0  0  0  0
  1  2  2  0  0  0  0
  2  3  1  0  0  0  0
  2 16  1  0  0  0  0
  3  4  1  0  0  0  0
  3 26  1  0  0  0  0
  4 15  1  0  0  0  0
  4  5  2  0  0  0  0
  5  6  1  0  0  0  0
  5 27  1  0  0  0  0
  6  7  2  0  0  0  0
  6 28  1  0  0  0  0
  7  8  1  0  0  0  0
  7 14  1  0  0  0  0
  8 13  1  0  0  0  0
  8  9  1  0  0  0  0
  9 10  1  0  0  0  0
  9 29  1  0  0  0  0
  9 30  1  0  0  0  0
 10 11  1  0  0  0  0
 10 31  1  0  0  0  0
 10 32  1  0  0  0  0
 11 12  1  0  0  0  0
 11 33  1  0  0  0  0
 11 34  1  0  0  0  0
 12 13  1  0  0  0  0
 12 35  1  0  0  0  0
 12 36  1  0  0  0  0
 13 37  1  0  0  0  0
 13 38  1  0  0  0  0
 14 15  2  0  0  0  0
 14 55  1  0  0  0  0
 15 39  1  0  0  0  0
 16 17  1  0  0  0  0
 17 25  1  0  0  0  0
 17 18  1  0  0  0  0
 17 40  1  0  0  0  0
 18 19  1  0  0  0  0
 18 41  1  0  0  0  0
 18 42  1  0  0  0  0
 19 20  1  0  0  0  0
 19 43  1  0  0  0  0
 19 44  1  0  0  0  0
 20 25  1  0  0  0  0
 20 21  1  0  0  0  0
 20 54  1  0  0  0  0
 21 22  1  0  0  0  0
 21 45  1  0  0  0  0
 21 46  1  0  0  0  0
 22 23  1  0  0  0  0
 22 47  1  0  0  0  0
 22 48  1  0  0  0  0
 23 24  1  0  0  0  0
 23 49  1  0  0  0  0
 23 50  1  0  0  0  0
 24 25  1  0  0  0  0
 24 51  1  0  0  0  0
 24 52  1  0  0  0  0
 25 53  1  0  0  0  0
M  CHG  1  14   1
M  CHG  1  16  -1
M  CHG  1  20   1
M  END
> <s_m_source_file>
AV-unprocessed.smi

> <i_m_source_file_index>
1645

> <i_lp_mmshare_version>
43012

> <i_f3d_flags>
0

> <s_epik_input>
W0NIMl0xW0NIMl1bQ0gyXVtDSDJdW0NASF0oTjEyKVtDQEBIXShbQ0gyXVtDSDJdMilbTkhdQyg9TylbTkhdYzNbY0hdW2NIXWMobltjSF0zKU40W0NIMl1bQ0gyXVtDSDJdW0NIMl1bQ0gyXTQ=

> <s_epik_cmdline>
J2VwaWtfcHl0aG9uJywgJy1waCcsICc3LjAnLCAnLXRuJywgJzgnLCAnLW1hJywgJzIwMCcsICctbWV0YWxfYmluZGluZycsICctaW1hZScsICc8aW5maWxlLm1hZT4nLCAnLW9tYWUnLCAnPG91dGZpbGUubWFlPic=

> <r_lp_tautomer_probability>
0.999994

> <r_epik_Ionization_Penalty>
8.55589

> <r_epik_Ionization_Penalty_Charging>
8.55589

> <r_epik_Ionization_Penalty_Neutral>
3.8092e-06

> <r_epik_State_Penalty>
8.15703

> <r_epik_Charging_Adjusted_Penalty>
16.7129

> <i_epik_Tot_Q>
1

> <i_epik_Tot_abs_Q>
3

> <r_epik_Metal_State_Penalty>
4.13781

> <b_epik_Metal_Only>
1

> <s_lp_Force_Field>
OPLS_2005

> <r_lp_Energy>
55.818

> <b_lp_Chiralities_Consistent>
1

> <s_lp_Variant>
AV-unprocessed.smi:1645-18

> <Gold.Version>
5.8.1

> <Gold.Id.Protein>
6NUR|6NUR_protein|mol2

> <Gold.PLP.Fitness>
47.4018

> <Gold.PLP.PLP>
-36.6966

> <Gold.PLP.part.hbond>
-2.0000

> <Gold.PLP.part.metal>
0.0000

> <Gold.PLP.part.buried>
-6.3275

> <Gold.PLP.part.nonpolar>
-29.4281

> <Gold.PLP.part.repulsive>
0.7331

> <Gold.PLP.ligand.clash>
0.0000

> <Gold.PLP.ligand.torsion>
0.7599

> <Gold.PLP.Chemscore.Hbond>
4.0000

> <Gold.PLP.Chemscore.CHOScore>
0.0000

> <Gold.PLP.Chemscore.Metal>
0.0000

> <Gold.Chemscore.Hbonds>
donor molecule, donor type, donor heavy atom, donor atom, acceptor molecule, acceptor atom, score
      L1  H    14    55       P1  8028  2.00
      L1  H    20    54       P1  7948  2.00

> <Gold.PLP.Chemscore.Internal.Correction>
0.2250

> <Gold.Rescore>
     Score         DG    S(hbond)    S(metal)    S(lipo)     H(rot)  DE(clash)    DE(int)     intcor
     19.18     -21.32       1.99        0.00     104.29       1.17       0.08       2.05       ----

> <Gold.Chemscore.Fitness>
19.1849

> <Gold.Chemscore.DG>
-21.3184

> <Gold.Chemscore.ZeroCoef>
-5.4800

> <Gold.Chemscore.Hbond>
1.9880

> <Gold.Chemscore.Metal>
0.0000

> <Gold.Chemscore.Lipo>
104.2877

> <Gold.Chemscore.Internal_Hbond>
0.0000

> <Gold.Chemscore.DEClash>
0.0790

> <Gold.Chemscore.DEInternal>
2.0544

> <Gold.Chemscore.Rot>
1.1731

> <Gold.Chemscore.Internal.Correction>
   9.000000E+99

> <Gold.Chemscore.Hbonds>
donor molecule, donor type, donor heavy atom, donor atom, acceptor molecule, acceptor atom, score
      L1  H    14    55       P1  8028  0.95
      L1  H    20    54       P1  7948  1.00

> <Gold.Chemscore.Hbond.Weighted>
-6.6400

> <Gold.Chemscore.Metal.Weighted>
-0.0000

> <Gold.Chemscore.Lipo.Weighted>
-12.2017

> <Gold.Chemscore.Internal_Hbond.Weighted>
0.0000

> <Gold.Chemscore.DEClash.Weighted>
0.0790

> <Gold.Chemscore.DEInternal.Weighted>
2.0544

> <Gold.Chemscore.Rot.Weighted>
3.0032

> <Gold.Chemscore.Internal.Correction.Weighted>
   9.000000E+99

> <Gold.Protein.RotatedTorsions>
[ 6907 6896 6895 6894 ] final -158.28 input  -60.11 | X-H torsion
[ 7974 7965 7964 7962 ] final  -42.03 input  175.53 | X-H torsion
[ 8008 7997 7996 7995 ] final   59.07 input   59.86 | X-H torsion
[ 10167 10162 10161 10158 ] final   47.34 input  -65.29 | X-H torsion
[ 10718 10713 10712 10709 ] final   18.50 input   66.30 | X-H torsion
[ 10763 10752 10751 10750 ] final -178.54 input  -60.55 | X-H torsion
[ 11005 11000 10999 10996 ] final -130.93 input  -57.11 | X-H torsion

> <Gold.Protein.ActiveResidues>
 VAL166  LYS551  ARG553  GLY616  TRP617  ASP618  TYR619  PRO620  LYS621  CYS622 
 ASP623  PHE694  ASN695  SER759  ASP760  ASP761  ALA762  ILE779  LEU786  VAL792 
 PHE793  MET794  SER795  GLU796  ALA797  LYS798  CYS799  TRP800  GLU811  SER814 

> <Gold.Protein.RotatedAtoms>
  151.3158  133.4061  159.2650 H   0  0  0  0  0  0  0  0  0  0  0  0  # atno 6907 bound_to 6896
  151.0076  134.9372  159.7999 H   0  0  0  0  0  0  0  0  0  0  0  0  # atno 6908 bound_to 6896
  152.5292  134.3123  159.9170 H   0  0  0  0  0  0  0  0  0  0  0  0  # atno 6909 bound_to 6896
  146.0155  140.6913  142.9203 H   0  0  0  0  0  0  0  0  0  0  0  0  # atno 7974 bound_to 7965
  155.5602  140.3488  155.4489 H   0  0  0  0  0  0  0  0  0  0  0  0  # atno 8008 bound_to 7997
  156.0519  140.1320  157.0066 H   0  0  0  0  0  0  0  0  0  0  0  0  # atno 8009 bound_to 7997
  154.4438  140.1003  156.6374 H   0  0  0  0  0  0  0  0  0  0  0  0  # atno 8010 bound_to 7997
  140.3046  144.2893  150.6212 H   0  0  0  0  0  0  0  0  0  0  0  0  # atno 10167 bound_to 10162
  157.0971  130.6452  149.5863 H   0  0  0  0  0  0  0  0  0  0  0  0  # atno 10718 bound_to 10713
  154.5464  135.2809  155.1049 H   0  0  0  0  0  0  0  0  0  0  0  0  # atno 10763 bound_to 10752
  154.2512  135.6339  153.5244 H   0  0  0  0  0  0  0  0  0  0  0  0  # atno 10764 bound_to 10752
  152.9991  135.5583  154.6018 H   0  0  0  0  0  0  0  0  0  0  0  0  # atno 10765 bound_to 10752
  140.9302  134.1329  157.4241 H   0  0  0  0  0  0  0  0  0  0  0  0  # atno 11005 bound_to 11000
  144.6969  140.3473  143.7188 LP  0  0  0  0  0  0  0  0  0  0  0  0  # atno 17320 bound_to 7965
  145.7275  139.1727  143.2449 LP  0  0  0  0  0  0  0  0  0  0  0  0  # atno 17321 bound_to 7965
  140.5621  143.2191  151.7747 LP  0  0  0  0  0  0  0  0  0  0  0  0  # atno 17342 bound_to 10162
  139.4907  144.4334  151.9846 LP  0  0  0  0  0  0  0  0  0  0  0  0  # atno 17343 bound_to 10162
  155.9883  130.4926  150.7163 LP  0  0  0  0  0  0  0  0  0  0  0  0  # atno 17370 bound_to 10713
  157.4672  131.0889  151.0682 LP  0  0  0  0  0  0  0  0  0  0  0  0  # atno 17371 bound_to 10713
  139.8795  135.0002  156.5999 LP  0  0  0  0  0  0  0  0  0  0  0  0  # atno 17394 bound_to 11000
  140.7872  133.8612  155.8616 LP  0  0  0  0  0  0  0  0  0  0  0  0  # atno 17395 bound_to 11000

$$$$
