AV-unprocessed.smi:1993|AV-procd|sdf|8070|dock1
  -GOLD-   2272010273D 1   1.00000     0.00000
 Structure written by MMmdl.
 50 51  0  0  0  0  0  0  0  0  1 V2000
  147.7834  145.3977  160.9506 C   0  0  0  0  0  0  0  0  0  0  0  0
  147.1827  144.1395  160.3322 C   0  0  0  0  0  0  0  0  0  0  0  0
  146.8319  143.2082  161.0558 O   0  0  0  0  0  0  0  0  0  0  0  0
  147.0708  144.1217  158.9943 N   0  0  0  0  0  0  0  0  0  0  0  0
  146.5343  143.0132  158.2029 C   0  0  2  0  0  0  0  0  0  0  0  0
  147.7018  142.3421  157.4559 C   0  0  0  0  0  0  0  0  0  0  0  0
  147.4993  141.3762  156.7179 O   0  0  0  0  0  0  0  0  0  0  0  0
  148.9207  142.8572  157.6750 N   0  0  0  0  0  0  0  0  0  0  0  0
  150.1620  142.3382  157.1154 C   0  0  0  0  0  0  0  0  0  0  0  0
  151.2182  142.0737  158.1806 C   0  0  0  0  0  0  0  0  0  0  0  0
  151.5620  143.0981  159.0878 C   0  0  0  0  0  0  0  0  0  0  0  0
  152.5402  142.8477  160.0671 C   0  0  0  0  0  0  0  0  0  0  0  0
  153.1398  141.5753  160.1007 C   0  0  0  0  0  0  0  0  0  0  0  0
  152.8239  140.5866  159.2388 N   0  0  0  0  0  0  0  0  0  0  0  0
  151.8818  140.8244  158.2942 C   0  0  0  0  0  0  0  0  0  0  0  0
  151.5880  139.7836  157.3979 N   0  0  0  0  0  0  0  0  0  0  0  0
  152.1190  138.4757  157.7625 C   0  0  0  0  0  0  0  0  0  0  0  0
  151.5857  137.4089  156.7907 C   0  0  0  0  0  0  0  0  0  0  0  0
  151.9163  137.7736  155.4530 O   0  0  0  0  0  0  0  0  0  0  0  0
  151.3430  139.0239  155.0796 C   0  0  0  0  0  0  0  0  0  0  0  0
  151.8662  140.1303  156.0109 C   0  0  0  0  0  0  0  0  0  0  0  0
  145.4998  143.5759  157.1832 C   0  0  0  0  0  0  0  0  0  0  0  0
  144.3521  144.3288  157.8847 C   0  0  0  0  0  0  0  0  0  0  0  0
  144.9007  142.4883  156.2675 C   0  0  0  0  0  0  0  0  0  0  0  0
  148.7740  145.1823  161.3510 H   0  0  0  0  0  0  0  0  0  0  0  0
  147.1538  145.7548  161.7660 H   0  0  0  0  0  0  0  0  0  0  0  0
  147.8765  146.1996  160.2173 H   0  0  0  0  0  0  0  0  0  0  0  0
  147.3937  144.9291  158.4812 H   0  0  0  0  0  0  0  0  0  0  0  0
  146.0420  142.2916  158.8588 H   0  0  0  0  0  0  0  0  0  0  0  0
  148.9957  143.6552  158.2891 H   0  0  0  0  0  0  0  0  0  0  0  0
  149.9675  141.4275  156.5461 H   0  0  0  0  0  0  0  0  0  0  0  0
  150.5465  143.0612  156.3955 H   0  0  0  0  0  0  0  0  0  0  0  0
  151.0850  144.0657  159.0334 H   0  0  0  0  0  0  0  0  0  0  0  0
  152.8242  143.6125  160.7747 H   0  0  0  0  0  0  0  0  0  0  0  0
  153.8944  141.3455  160.8381 H   0  0  0  0  0  0  0  0  0  0  0  0
  153.2093  138.4929  157.7271 H   0  0  0  0  0  0  0  0  0  0  0  0
  151.8304  138.2317  158.7855 H   0  0  0  0  0  0  0  0  0  0  0  0
  152.0299  136.4392  157.0154 H   0  0  0  0  0  0  0  0  0  0  0  0
  150.5050  137.2963  156.8912 H   0  0  0  0  0  0  0  0  0  0  0  0
  151.6105  139.2445  154.0462 H   0  0  0  0  0  0  0  0  0  0  0  0
  150.2542  138.9640  155.1220 H   0  0  0  0  0  0  0  0  0  0  0  0
  151.3966  141.0808  155.7620 H   0  0  0  0  0  0  0  0  0  0  0  0
  152.9413  140.2572  155.8750 H   0  0  0  0  0  0  0  0  0  0  0  0
  146.0050  144.2974  156.5383 H   0  0  0  0  0  0  0  0  0  0  0  0
  143.8184  143.6771  158.5773 H   0  0  0  0  0  0  0  0  0  0  0  0
  143.6291  144.7048  157.1601 H   0  0  0  0  0  0  0  0  0  0  0  0
  144.7118  145.1898  158.4483 H   0  0  0  0  0  0  0  0  0  0  0  0
  144.3906  141.7218  156.8510 H   0  0  0  0  0  0  0  0  0  0  0  0
  145.6576  141.9966  155.6562 H   0  0  0  0  0  0  0  0  0  0  0  0
  144.1711  142.9158  155.5792 H   0  0  0  0  0  0  0  0  0  0  0  0
  1  2  1  0  0  0  0
  1 25  1  0  0  0  0
  1 26  1  0  0  0  0
  1 27  1  0  0  0  0
  2  3  2  0  0  0  0
  2  4  1  0  0  0  0
  4  5  1  0  0  0  0
  4 28  1  0  0  0  0
  5  6  1  0  0  0  0
  5 22  1  0  0  0  0
  5 29  1  0  0  0  0
  6  7  2  0  0  0  0
  6  8  1  0  0  0  0
  8  9  1  0  0  0  0
  8 30  1  0  0  0  0
  9 10  1  0  0  0  0
  9 31  1  0  0  0  0
  9 32  1  0  0  0  0
 10 15  1  0  0  0  0
 10 11  2  0  0  0  0
 11 12  1  0  0  0  0
 11 33  1  0  0  0  0
 12 13  2  0  0  0  0
 12 34  1  0  0  0  0
 13 14  1  0  0  0  0
 13 35  1  0  0  0  0
 14 15  2  0  0  0  0
 15 16  1  0  0  0  0
 16 21  1  0  0  0  0
 16 17  1  0  0  0  0
 17 18  1  0  0  0  0
 17 36  1  0  0  0  0
 17 37  1  0  0  0  0
 18 19  1  0  0  0  0
 18 38  1  0  0  0  0
 18 39  1  0  0  0  0
 19 20  1  0  0  0  0
 20 21  1  0  0  0  0
 20 40  1  0  0  0  0
 20 41  1  0  0  0  0
 21 42  1  0  0  0  0
 21 43  1  0  0  0  0
 22 23  1  0  0  0  0
 22 24  1  0  0  0  0
 22 44  1  0  0  0  0
 23 45  1  0  0  0  0
 23 46  1  0  0  0  0
 23 47  1  0  0  0  0
 24 48  1  0  0  0  0
 24 49  1  0  0  0  0
 24 50  1  0  0  0  0
M  END
> <s_m_source_file>
AV-unprocessed.smi

> <i_m_source_file_index>
1993

> <i_lp_mmshare_version>
43012

> <i_f3d_flags>
0

> <s_epik_input>
W0NIM11DKD1PKVtOSF1bQ0BASF0oW0NIXShbQ0gzXSlbQ0gzXSlDKD1PKVtOSF1bQ0gyXWMxW2NIXVtjSF1bY0hdbmMxTjJbQ0gyXVtDSDJdT1tDSDJdW0NIMl0y

> <s_epik_cmdline>
J2VwaWtfcHl0aG9uJywgJy1waCcsICc3LjAnLCAnLXRuJywgJzgnLCAnLW1hJywgJzIwMCcsICctbWV0YWxfYmluZGluZycsICctaW1hZScsICc8aW5maWxlLm1hZT4nLCAnLW9tYWUnLCAnPG91dGZpbGUubWFlPic=

> <r_lp_tautomer_probability>
1

> <r_epik_Ionization_Penalty>
0.00485175

> <r_epik_Ionization_Penalty_Charging>
0

> <r_epik_Ionization_Penalty_Neutral>
0.00485175

> <r_epik_State_Penalty>
0.00351951

> <r_epik_Charging_Adjusted_Penalty>
0.00351951

> <i_epik_Tot_Q>
0

> <i_epik_Tot_abs_Q>
0

> <r_epik_Metal_State_Penalty>
-0

> <b_epik_Metal_Only>
0

> <s_lp_Force_Field>
OPLS_2005

> <r_lp_Energy>
19.1581

> <b_lp_Chiralities_Consistent>
1

> <s_lp_Variant>
AV-unprocessed.smi:1993-1

> <Gold.Version>
5.8.1

> <Gold.Id.Protein>
6NUR|6NUR_protein|mol2

> <Gold.PLP.Fitness>
45.2626

> <Gold.PLP.PLP>
-38.5156

> <Gold.PLP.part.hbond>
-4.1344

> <Gold.PLP.part.metal>
0.0000

> <Gold.PLP.part.buried>
-5.3725

> <Gold.PLP.part.nonpolar>
-29.4452

> <Gold.PLP.part.repulsive>
0.2662

> <Gold.PLP.ligand.clash>
0.0053

> <Gold.PLP.ligand.torsion>
0.3436

> <Gold.PLP.Chemscore.Hbond>
2.4033

> <Gold.PLP.Chemscore.CHOScore>
0.0000

> <Gold.PLP.Chemscore.Metal>
0.0000

> <Gold.Chemscore.Hbonds>
donor molecule, donor type, donor heavy atom, donor atom, acceptor molecule, acceptor atom, score
      L1  H     4    28       P1  8029  1.00
      P1  H  6933  6944       L1     3  1.00
      P1  H  6934  6946       L1     3  0.13

> <Gold.PLP.Chemscore.Internal.Correction>
0.2297

> <Gold.Rescore>
     Score         DG    S(hbond)    S(metal)    S(lipo)     H(rot)  DE(clash)    DE(int)     intcor
     16.13     -18.22       2.65        0.00      80.89       2.18       0.01       2.08       ----

> <Gold.Chemscore.Fitness>
16.1301

> <Gold.Chemscore.DG>
-18.2179

> <Gold.Chemscore.ZeroCoef>
-5.4800

> <Gold.Chemscore.Hbond>
2.6522

> <Gold.Chemscore.Metal>
0.0000

> <Gold.Chemscore.Lipo>
80.8853

> <Gold.Chemscore.Internal_Hbond>
0.0000

> <Gold.Chemscore.DEClash>
0.0082

> <Gold.Chemscore.DEInternal>
2.0796

> <Gold.Chemscore.Rot>
2.1813

> <Gold.Chemscore.Internal.Correction>
   9.000000E+99

> <Gold.Chemscore.Hbonds>
donor molecule, donor type, donor heavy atom, donor atom, acceptor molecule, acceptor atom, score
      L1  H     4    28       P1  8029  0.99
      P1  H  6933  6944       L1     3  0.39
      P1  H  6934  6946       L1     3  0.14

> <Gold.Chemscore.Hbond.Weighted>
-8.8585

> <Gold.Chemscore.Metal.Weighted>
-0.0000

> <Gold.Chemscore.Lipo.Weighted>
-9.4636

> <Gold.Chemscore.Internal_Hbond.Weighted>
0.0000

> <Gold.Chemscore.DEClash.Weighted>
0.0082

> <Gold.Chemscore.DEInternal.Weighted>
2.0796

> <Gold.Chemscore.Rot.Weighted>
5.5842

> <Gold.Chemscore.Internal.Correction.Weighted>
   9.000000E+99

> <Gold.Protein.RotatedTorsions>
[ 6907 6896 6895 6894 ] final -108.04 input  -60.11 | X-H torsion
[ 7974 7965 7964 7962 ] final  163.91 input  175.53 | X-H torsion
[ 8008 7997 7996 7995 ] final   54.02 input   59.86 | X-H torsion
[ 10167 10162 10161 10158 ] final -127.59 input  -65.29 | X-H torsion
[ 10718 10713 10712 10709 ] final -178.38 input   66.30 | X-H torsion
[ 10763 10752 10751 10750 ] final  159.34 input  -60.55 | X-H torsion
[ 11005 11000 10999 10996 ] final -163.29 input  -57.11 | X-H torsion

> <Gold.Protein.ActiveResidues>
 VAL166  LYS551  ARG553  GLY616  TRP617  ASP618  TYR619  PRO620  LYS621  CYS622 
 ASP623  PHE694  ASN695  SER759  ASP760  ASP761  ALA762  ILE779  LEU786  VAL792 
 PHE793  MET794  SER795  GLU796  ALA797  LYS798  CYS799  TRP800  GLU811  SER814 

> <Gold.Protein.RotatedAtoms>
  150.7479  133.9736  159.3553 H   0  0  0  0  0  0  0  0  0  0  0  0  # atno 6907 bound_to 6896
  151.7672  135.0793  160.0364 H   0  0  0  0  0  0  0  0  0  0  0  0  # atno 6908 bound_to 6896
  152.3363  133.5979  159.5881 H   0  0  0  0  0  0  0  0  0  0  0  0  # atno 6909 bound_to 6896
  144.7568  139.8250  143.6347 H   0  0  0  0  0  0  0  0  0  0  0  0  # atno 7974 bound_to 7965
  155.4779  140.3467  155.4335 H   0  0  0  0  0  0  0  0  0  0  0  0  # atno 8008 bound_to 7997
  156.1058  140.1447  156.9434 H   0  0  0  0  0  0  0  0  0  0  0  0  # atno 8009 bound_to 7997
  154.4723  140.0896  156.7155 H   0  0  0  0  0  0  0  0  0  0  0  0  # atno 8010 bound_to 7997
  139.9593  143.5968  152.2450 H   0  0  0  0  0  0  0  0  0  0  0  0  # atno 10167 bound_to 10162
  156.8435  130.9694  151.3098 H   0  0  0  0  0  0  0  0  0  0  0  0  # atno 10718 bound_to 10713
  154.2302  135.2778  155.2892 H   0  0  0  0  0  0  0  0  0  0  0  0  # atno 10763 bound_to 10752
  154.5630  135.5641  153.7028 H   0  0  0  0  0  0  0  0  0  0  0  0  # atno 10764 bound_to 10752
  153.0022  135.6302  154.2444 H   0  0  0  0  0  0  0  0  0  0  0  0  # atno 10765 bound_to 10752
  140.5998  134.4959  157.5203 H   0  0  0  0  0  0  0  0  0  0  0  0  # atno 11005 bound_to 11000
  146.1588  139.4695  143.0001 LP  0  0  0  0  0  0  0  0  0  0  0  0  # atno 17320 bound_to 7965
  145.6751  141.0206  143.1636 LP  0  0  0  0  0  0  0  0  0  0  0  0  # atno 17321 bound_to 7965
  139.6567  144.7662  151.2043 LP  0  0  0  0  0  0  0  0  0  0  0  0  # atno 17342 bound_to 10162
  140.7558  143.6075  150.8638 LP  0  0  0  0  0  0  0  0  0  0  0  0  # atno 17343 bound_to 10162
  157.6343  130.8754  149.9330 LP  0  0  0  0  0  0  0  0  0  0  0  0  # atno 17370 bound_to 10713
  156.0867  130.3667  150.0473 LP  0  0  0  0  0  0  0  0  0  0  0  0  # atno 17371 bound_to 10713
  139.9237  134.8097  156.1132 LP  0  0  0  0  0  0  0  0  0  0  0  0  # atno 17394 bound_to 11000
  141.0880  133.6726  156.2478 LP  0  0  0  0  0  0  0  0  0  0  0  0  # atno 17395 bound_to 11000

$$$$
