AV-unprocessed.smi:442|AV-procd|sdf|2583|dock8
  -GOLD-   2262022573D 1   1.00000     0.00000
 Structure written by MMmdl.
 37 37  0  0  0  0  0  0  0  0  3 V2000
  147.0426  139.5917  152.9156 C   0  0  0  0  0  0  0  0  0  0  0  0
  146.9331  139.6233  154.4470 C   0  0  0  0  0  0  0  0  0  0  0  0
  147.2885  140.9865  155.0729 C   0  0  2  0  0  0  0  0  0  0  0  0
  146.7827  142.1529  154.2125 C   0  0  0  0  0  0  0  0  0  0  0  0
  148.7346  141.1141  155.2471 N   0  0  0  0  0  0  0  0  0  0  0  0
  149.3703  141.3893  156.3970 C   0  0  0  0  0  0  0  0  0  0  0  0
  148.7906  141.5517  157.4716 O   0  0  0  0  0  0  0  0  0  0  0  0
  150.9013  141.4668  156.3119 C   0  0  0  0  0  0  0  0  0  0  0  0
  151.5328  141.8981  157.5726 N   0  0  0  0  0  0  0  0  0  0  0  0
  151.1452  143.1550  158.0702 C   0  0  0  0  0  0  0  0  0  0  0  0
  151.6546  143.6653  159.2049 C   0  0  0  0  0  0  0  0  0  0  0  0
  151.2444  144.9647  159.6926 N   0  3  0  0  0  0  0  0  0  0  0  0
  151.7240  145.3788  160.7430 O   0  0  0  0  0  0  0  0  0  0  0  0
  150.4293  145.6142  159.0442 O   0  5  0  0  0  0  0  0  0  0  0  0
  152.6325  142.8746  159.9234 C   0  0  0  0  0  0  0  0  0  0  0  0
  153.0255  141.6607  159.4594 C   0  0  0  0  0  0  0  0  0  0  0  0
  154.0203  140.8184  160.1610 C   0  0  0  0  0  0  0  0  0  0  0  0
  154.5523  141.3856  161.2511 N   0  0  0  0  0  0  0  0  0  0  0  0
  154.3876  139.6876  159.8431 O   0  0  0  0  0  0  0  0  0  0  0  0
  152.4595  141.1073  158.1990 C   0  0  0  0  0  0  0  0  0  0  0  0
  152.7682  140.0188  157.7064 O   0  0  0  0  0  0  0  0  0  0  0  0
  146.8385  138.5910  152.5346 H   0  0  0  0  0  0  0  0  0  0  0  0
  148.0430  139.8747  152.5869 H   0  0  0  0  0  0  0  0  0  0  0  0
  146.3308  140.2721  152.4480 H   0  0  0  0  0  0  0  0  0  0  0  0
  145.9233  139.3335  154.7408 H   0  0  0  0  0  0  0  0  0  0  0  0
  147.5970  138.8607  154.8559 H   0  0  0  0  0  0  0  0  0  0  0  0
  146.7850  141.0570  156.0388 H   0  0  0  0  0  0  0  0  0  0  0  0
  145.7010  142.1049  154.0834 H   0  0  0  0  0  0  0  0  0  0  0  0
  147.2364  142.1431  153.2207 H   0  0  0  0  0  0  0  0  0  0  0  0
  147.0148  143.1124  154.6759 H   0  0  0  0  0  0  0  0  0  0  0  0
  149.2989  140.9895  154.4193 H   0  0  0  0  0  0  0  0  0  0  0  0
  151.2722  140.4859  156.0118 H   0  0  0  0  0  0  0  0  0  0  0  0
  151.1869  142.1348  155.4969 H   0  0  0  0  0  0  0  0  0  0  0  0
  150.4182  143.6734  157.4617 H   0  0  0  0  0  0  0  0  0  0  0  0
  153.0362  143.2801  160.8389 H   0  0  0  0  0  0  0  0  0  0  0  0
  155.2395  140.8881  161.7979 H   0  0  0  0  0  0  0  0  0  0  0  0
  154.2604  142.3131  161.5232 H   0  0  0  0  0  0  0  0  0  0  0  0
  1  2  1  0  0  0  0
  1 22  1  0  0  0  0
  1 23  1  0  0  0  0
  1 24  1  0  0  0  0
  2  3  1  0  0  0  0
  2 25  1  0  0  0  0
  2 26  1  0  0  0  0
  3  4  1  0  0  0  0
  3  5  1  0  0  0  0
  3 27  1  0  0  0  0
  4 28  1  0  0  0  0
  4 29  1  0  0  0  0
  4 30  1  0  0  0  0
  5  6  1  0  0  0  0
  5 31  1  0  0  0  0
  6  7  2  0  0  0  0
  6  8  1  0  0  0  0
  8  9  1  0  0  0  0
  8 32  1  0  0  0  0
  8 33  1  0  0  0  0
  9 20  1  0  0  0  0
  9 10  1  0  0  0  0
 10 11  2  0  0  0  0
 10 34  1  0  0  0  0
 11 12  1  0  0  0  0
 11 15  1  0  0  0  0
 12 13  2  0  0  0  0
 12 14  1  0  0  0  0
 15 16  2  0  0  0  0
 15 35  1  0  0  0  0
 16 17  1  0  0  0  0
 16 20  1  0  0  0  0
 17 18  1  0  0  0  0
 17 19  2  0  0  0  0
 18 36  1  0  0  0  0
 18 37  1  0  0  0  0
 20 21  2  0  0  0  0
M  CHG  1  12   1
M  CHG  1  14  -1
M  END
> <s_m_source_file>
AV-unprocessed.smi

> <i_m_source_file_index>
442

> <i_lp_mmshare_version>
43012

> <i_f3d_flags>
0

> <s_epik_input>
W0NIM11bQ0gyXVtDQEhdKFtDSDNdKVtOSF1DKD1PKVtDSDJdbjFbY0hdYyhbTitdKD1PKVtPLV0pW2NIXWMoYzE9TylDKD1PKVtOSDJd

> <s_epik_cmdline>
J2VwaWtfcHl0aG9uJywgJy1waCcsICc3LjAnLCAnLXRuJywgJzgnLCAnLW1hJywgJzIwMCcsICctbWV0YWxfYmluZGluZycsICctaW1hZScsICc8aW5maWxlLm1hZT4nLCAnLW9tYWUnLCAnPG91dGZpbGUubWFlPic=

> <r_lp_tautomer_probability>
1

> <r_epik_Ionization_Penalty>
2.86914e-06

> <r_epik_Ionization_Penalty_Charging>
2.2828e-12

> <r_epik_Ionization_Penalty_Neutral>
2.86914e-06

> <r_epik_State_Penalty>
-0

> <r_epik_Charging_Adjusted_Penalty>
2.2828e-12

> <i_epik_Tot_Q>
0

> <i_epik_Tot_abs_Q>
2

> <r_epik_Metal_State_Penalty>
-0

> <b_epik_Metal_Only>
0

> <s_lp_Force_Field>
OPLS_2005

> <r_lp_Energy>
21.8648

> <b_lp_Chiralities_Consistent>
1

> <s_lp_Variant>
AV-unprocessed.smi:442-1

> <Gold.Version>
5.8.1

> <Gold.Id.Protein>
6NUR|6NUR_protein|mol2

> <Gold.PLP.Fitness>
43.0734

> <Gold.PLP.PLP>
-38.0895

> <Gold.PLP.part.hbond>
-3.8219

> <Gold.PLP.part.metal>
0.0000

> <Gold.PLP.part.buried>
-2.1993

> <Gold.PLP.part.nonpolar>
-31.4086

> <Gold.PLP.part.repulsive>
0.6428

> <Gold.PLP.ligand.clash>
0.0000

> <Gold.PLP.ligand.torsion>
0.3235

> <Gold.PLP.Chemscore.Hbond>
1.0000

> <Gold.PLP.Chemscore.CHOScore>
0.8489

> <Gold.PLP.Chemscore.Metal>
0.0000

> <Gold.Chemscore.Hbonds>
donor molecule, donor type, donor heavy atom, donor atom, acceptor molecule, acceptor atom, score
      P1  H  7997  8009       L1    21  1.00
      L1  C    10    34       P1  8028  0.90

> <Gold.PLP.Chemscore.Internal.Correction>
0.0842

> <Gold.Rescore>
     Score         DG    S(hbond)    S(metal)    S(lipo)     H(rot)  DE(clash)    DE(int)     intcor
      6.95     -10.62       0.50        0.00      74.14       2.03       1.59       2.07       ----

> <Gold.Chemscore.Fitness>
6.9549

> <Gold.Chemscore.DG>
-10.6218

> <Gold.Chemscore.ZeroCoef>
-5.4800

> <Gold.Chemscore.Hbond>
0.5015

> <Gold.Chemscore.Metal>
0.0000

> <Gold.Chemscore.Lipo>
74.1371

> <Gold.Chemscore.Internal_Hbond>
0.0000

> <Gold.Chemscore.DEClash>
1.5937

> <Gold.Chemscore.DEInternal>
2.0732

> <Gold.Chemscore.Rot>
2.0340

> <Gold.Chemscore.Internal.Correction>
   9.000000E+99

> <Gold.Chemscore.Hbonds>
donor molecule, donor type, donor heavy atom, donor atom, acceptor molecule, acceptor atom, score
      P1  H  7997  8009       L1    21  0.79

> <Gold.Chemscore.Hbond.Weighted>
-1.6748

> <Gold.Chemscore.Metal.Weighted>
-0.0000

> <Gold.Chemscore.Lipo.Weighted>
-8.6740

> <Gold.Chemscore.Internal_Hbond.Weighted>
0.0000

> <Gold.Chemscore.DEClash.Weighted>
1.5937

> <Gold.Chemscore.DEInternal.Weighted>
2.0732

> <Gold.Chemscore.Rot.Weighted>
5.2071

> <Gold.Chemscore.Internal.Correction.Weighted>
   9.000000E+99

> <Gold.Protein.RotatedTorsions>
[ 6907 6896 6895 6894 ] final   85.22 input  -60.11 | X-H torsion
[ 7974 7965 7964 7962 ] final  120.57 input  175.53 | X-H torsion
[ 8008 7997 7996 7995 ] final  159.63 input   59.86 | X-H torsion
[ 10167 10162 10161 10158 ] final   67.41 input  -65.29 | X-H torsion
[ 10718 10713 10712 10709 ] final   71.01 input   66.30 | X-H torsion
[ 10763 10752 10751 10750 ] final   29.10 input  -60.55 | X-H torsion
[ 11005 11000 10999 10996 ] final -150.41 input  -57.11 | X-H torsion

> <Gold.Protein.ActiveResidues>
 VAL166  LYS551  ARG553  GLY616  TRP617  ASP618  TYR619  PRO620  LYS621  CYS622 
 ASP623  PHE694  ASN695  SER759  ASP760  ASP761  ALA762  ILE779  LEU786  VAL792 
 PHE793  MET794  SER795  GLU796  ALA797  LYS798  CYS799  TRP800  GLU811  SER814 

> <Gold.Protein.RotatedAtoms>
  152.5370  134.2620  159.8938 H   0  0  0  0  0  0  0  0  0  0  0  0  # atno 6907 bound_to 6896
  151.2580  133.4310  159.2622 H   0  0  0  0  0  0  0  0  0  0  0  0  # atno 6908 bound_to 6896
  151.0479  134.9667  159.8252 H   0  0  0  0  0  0  0  0  0  0  0  0  # atno 6909 bound_to 6896
  145.1296  139.3336  143.4672 H   0  0  0  0  0  0  0  0  0  0  0  0  # atno 7974 bound_to 7965
  156.2226  140.1826  156.7440 H   0  0  0  0  0  0  0  0  0  0  0  0  # atno 8008 bound_to 7997
  154.5889  140.0654  156.9240 H   0  0  0  0  0  0  0  0  0  0  0  0  # atno 8009 bound_to 7997
  155.2370  140.3319  155.4299 H   0  0  0  0  0  0  0  0  0  0  0  0  # atno 8010 bound_to 7997
  140.0898  144.4998  150.7106 H   0  0  0  0  0  0  0  0  0  0  0  0  # atno 10167 bound_to 10162
  157.6429  130.9506  150.0729 H   0  0  0  0  0  0  0  0  0  0  0  0  # atno 10718 bound_to 10713
  153.0451  135.6497  154.0839 H   0  0  0  0  0  0  0  0  0  0  0  0  # atno 10763 bound_to 10752
  154.0538  135.2893  155.3337 H   0  0  0  0  0  0  0  0  0  0  0  0  # atno 10764 bound_to 10752
  154.6702  135.5359  153.8194 H   0  0  0  0  0  0  0  0  0  0  0  0  # atno 10765 bound_to 10752
  140.7405  134.3519  157.5148 H   0  0  0  0  0  0  0  0  0  0  0  0  # atno 11005 bound_to 11000
  146.3515  140.1290  142.8598 LP  0  0  0  0  0  0  0  0  0  0  0  0  # atno 17320 bound_to 7965
  145.0650  140.9115  143.4916 LP  0  0  0  0  0  0  0  0  0  0  0  0  # atno 17321 bound_to 7965
  140.7034  143.2451  151.4797 LP  0  0  0  0  0  0  0  0  0  0  0  0  # atno 17342 bound_to 10162
  139.5731  144.1882  152.1865 LP  0  0  0  0  0  0  0  0  0  0  0  0  # atno 17343 bound_to 10162
  156.1728  130.3647  149.9141 LP  0  0  0  0  0  0  0  0  0  0  0  0  # atno 17370 bound_to 10713
  156.7113  130.8971  151.3609 LP  0  0  0  0  0  0  0  0  0  0  0  0  # atno 17371 bound_to 10713
  139.8807  134.9078  156.2953 LP  0  0  0  0  0  0  0  0  0  0  0  0  # atno 17394 bound_to 11000
  140.9841  133.7249  156.0715 LP  0  0  0  0  0  0  0  0  0  0  0  0  # atno 17395 bound_to 11000

$$$$
