AV-unprocessed.smi:306|AV-procd|sdf|2282|dock6
  -GOLD-   2262022183D 1   1.00000     0.00000
 Structure written by MMmdl.
 47 49  0  0  0  0  0  0  0  0  1 V2000
  156.0725  139.7223  160.4081 C   0  0  0  0  0  0  0  0  0  0  0  0
  154.8316  140.3468  161.0565 C   0  0  0  0  0  0  0  0  0  0  0  0
  153.8992  140.9368  160.0366 C   0  0  0  0  0  0  0  0  0  0  0  0
  153.5212  142.2992  159.8762 C   0  0  0  0  0  0  0  0  0  0  0  0
  152.6613  142.2895  158.8143 C   0  0  0  0  0  0  0  0  0  0  0  0
  151.9296  143.4185  158.1581 C   0  0  0  0  0  0  0  0  0  0  0  0
  152.2331  144.7822  158.7876 C   0  0  0  0  0  0  0  0  0  0  0  0
  152.5564  140.9740  158.3993 N   0  0  0  0  0  0  0  0  0  0  0  0
  151.7892  140.4522  157.3394 C   0  0  0  0  0  0  0  0  0  0  0  0
  150.6437  140.9918  156.9163 N   0  0  0  0  0  0  0  0  0  0  0  0
  150.2539  140.1224  155.9077 C   0  0  0  0  0  0  0  0  0  0  0  0
  151.1497  139.1114  155.7625 C   0  0  0  0  0  0  0  0  0  0  0  0
  150.9675  138.0305  154.7849 C   0  0  0  0  0  0  0  0  0  0  0  0
  151.7577  137.0995  154.6453 O   0  0  0  0  0  0  0  0  0  0  0  0
  149.8321  138.1602  154.0563 N   0  0  0  0  0  0  0  0  0  0  0  0
  148.8929  139.1507  154.1483 C   0  0  0  0  0  0  0  0  0  0  0  0
  147.9031  139.1292  153.4169 O   0  0  0  0  0  0  0  0  0  0  0  0
  149.1004  140.1424  155.0728 N   0  0  0  0  0  0  0  0  0  0  0  0
  148.1268  141.2265  155.2164 C   0  0  0  0  0  0  0  0  0  0  0  0
  152.1700  139.3241  156.6901 N   0  0  0  0  0  0  0  0  0  0  0  0
  153.3627  138.5178  156.9321 C   0  0  0  0  0  0  0  0  0  0  0  0
  153.0310  137.0305  157.1175 C   0  0  0  0  0  0  0  0  0  0  0  0
  154.1900  136.2439  156.8942 O   0  0  0  0  0  0  0  0  0  0  0  0
  155.2502  136.5768  157.7718 C   0  0  0  0  0  0  0  0  0  0  0  0
  153.3189  140.1483  159.1464 N   0  0  0  0  0  0  0  0  0  0  0  0
  149.6572  137.4410  153.3697 H   0  0  0  0  0  0  0  0  0  0  0  0
  156.7315  139.2956  161.1644 H   0  0  0  0  0  0  0  0  0  0  0  0
  156.6432  140.4658  159.8508 H   0  0  0  0  0  0  0  0  0  0  0  0
  155.7961  138.9245  159.7182 H   0  0  0  0  0  0  0  0  0  0  0  0
  154.3088  139.5879  161.6395 H   0  0  0  0  0  0  0  0  0  0  0  0
  155.1406  141.1133  161.7680 H   0  0  0  0  0  0  0  0  0  0  0  0
  153.8357  143.1559  160.4535 H   0  0  0  0  0  0  0  0  0  0  0  0
  152.1702  143.4508  157.0949 H   0  0  0  0  0  0  0  0  0  0  0  0
  150.8571  143.2302  158.2134 H   0  0  0  0  0  0  0  0  0  0  0  0
  151.6752  145.5734  158.2870 H   0  0  0  0  0  0  0  0  0  0  0  0
  153.2928  145.0264  158.7149 H   0  0  0  0  0  0  0  0  0  0  0  0
  151.9586  144.7967  159.8426 H   0  0  0  0  0  0  0  0  0  0  0  0
  147.9350  141.7057  154.2554 H   0  0  0  0  0  0  0  0  0  0  0  0
  148.4648  142.0047  155.9004 H   0  0  0  0  0  0  0  0  0  0  0  0
  147.1819  140.8394  155.5992 H   0  0  0  0  0  0  0  0  0  0  0  0
  154.0632  138.6506  156.1097 H   0  0  0  0  0  0  0  0  0  0  0  0
  153.8781  138.8970  157.8143 H   0  0  0  0  0  0  0  0  0  0  0  0
  152.6511  136.8602  158.1257 H   0  0  0  0  0  0  0  0  0  0  0  0
  152.2432  136.7366  156.4231 H   0  0  0  0  0  0  0  0  0  0  0  0
  156.1171  135.9545  157.5503 H   0  0  0  0  0  0  0  0  0  0  0  0
  154.9691  136.4053  158.8115 H   0  0  0  0  0  0  0  0  0  0  0  0
  155.5459  137.6203  157.6556 H   0  0  0  0  0  0  0  0  0  0  0  0
  1  2  1  0  0  0  0
  1 27  1  0  0  0  0
  1 28  1  0  0  0  0
  1 29  1  0  0  0  0
  2  3  1  0  0  0  0
  2 30  1  0  0  0  0
  2 31  1  0  0  0  0
  3 25  2  0  0  0  0
  3  4  1  0  0  0  0
  4  5  2  0  0  0  0
  4 32  1  0  0  0  0
  5  6  1  0  0  0  0
  5  8  1  0  0  0  0
  6  7  1  0  0  0  0
  6 33  1  0  0  0  0
  6 34  1  0  0  0  0
  7 35  1  0  0  0  0
  7 36  1  0  0  0  0
  7 37  1  0  0  0  0
  8  9  1  0  0  0  0
  8 25  1  0  0  0  0
  9 20  1  0  0  0  0
  9 10  2  0  0  0  0
 10 11  1  0  0  0  0
 11 18  1  0  0  0  0
 11 12  2  0  0  0  0
 12 13  1  0  0  0  0
 12 20  1  0  0  0  0
 13 14  2  0  0  0  0
 13 15  1  0  0  0  0
 15 26  1  0  0  0  0
 15 16  1  0  0  0  0
 16 17  2  0  0  0  0
 16 18  1  0  0  0  0
 18 19  1  0  0  0  0
 19 38  1  0  0  0  0
 19 39  1  0  0  0  0
 19 40  1  0  0  0  0
 20 21  1  0  0  0  0
 21 22  1  0  0  0  0
 21 41  1  0  0  0  0
 21 42  1  0  0  0  0
 22 23  1  0  0  0  0
 22 43  1  0  0  0  0
 22 44  1  0  0  0  0
 23 24  1  0  0  0  0
 24 45  1  0  0  0  0
 24 46  1  0  0  0  0
 24 47  1  0  0  0  0
M  END
> <s_m_source_file>
AV-unprocessed.smi

> <i_m_source_file_index>
306

> <i_lp_mmshare_version>
43012

> <i_f3d_flags>
0

> <s_epik_input>
W0NIM11bQ0gyXWMxW2NIXWMoW0NIMl1bQ0gzXSluKG4xKS1jKG4yKW4oW0NIMl1bQ0gyXU9bQ0gzXSljKGMyMyljKD1PKVtuSF1jKD1PKW4zW0NIM10=

> <s_epik_cmdline>
J2VwaWtfcHl0aG9uJywgJy1waCcsICc3LjAnLCAnLXRuJywgJzgnLCAnLW1hJywgJzIwMCcsICctbWV0YWxfYmluZGluZycsICctaW1hZScsICc8aW5maWxlLm1hZT4nLCAnLW9tYWUnLCAnPG91dGZpbGUubWFlPic=

> <r_lp_tautomer_probability>
1

> <r_epik_Ionization_Penalty>
0.00167575

> <r_epik_Ionization_Penalty_Charging>
0.000731299

> <r_epik_Ionization_Penalty_Neutral>
0.000944451

> <r_epik_State_Penalty>
-0

> <r_epik_Charging_Adjusted_Penalty>
0.000731299

> <i_epik_Tot_Q>
0

> <i_epik_Tot_abs_Q>
0

> <r_epik_Metal_State_Penalty>
0.260571

> <b_epik_Metal_Only>
0

> <s_lp_Force_Field>
OPLS_2005

> <r_lp_Energy>
22.9752

> <b_lp_Chiralities_Consistent>
1

> <s_lp_Variant>
AV-unprocessed.smi:306-1

> <Gold.Version>
5.8.1

> <Gold.Id.Protein>
6NUR|6NUR_protein|mol2

> <Gold.PLP.Fitness>
50.7765

> <Gold.PLP.PLP>
-42.1190

> <Gold.PLP.part.hbond>
-3.0000

> <Gold.PLP.part.metal>
0.0000

> <Gold.PLP.part.buried>
-4.9704

> <Gold.PLP.part.nonpolar>
-36.7549

> <Gold.PLP.part.repulsive>
2.2250

> <Gold.PLP.ligand.clash>
0.0000

> <Gold.PLP.ligand.torsion>
0.5241

> <Gold.PLP.Chemscore.Hbond>
2.9920

> <Gold.PLP.Chemscore.CHOScore>
0.0000

> <Gold.PLP.Chemscore.Metal>
0.0000

> <Gold.Chemscore.Hbonds>
donor molecule, donor type, donor heavy atom, donor atom, acceptor molecule, acceptor atom, score
      L1  H    15    26       P1  7948  1.00
      P1  H 10752 10763       L1    23  1.00
      P1  H 10752 10765       L1    14  0.99

> <Gold.PLP.Chemscore.Internal.Correction>
0.7296

> <Gold.Rescore>
     Score         DG    S(hbond)    S(metal)    S(lipo)     H(rot)  DE(clash)    DE(int)     intcor
     16.65     -20.93       2.80        0.00      92.55       1.85       0.08       4.20       ----

> <Gold.Chemscore.Fitness>
16.6502

> <Gold.Chemscore.DG>
-20.9342

> <Gold.Chemscore.ZeroCoef>
-5.4800

> <Gold.Chemscore.Hbond>
2.8013

> <Gold.Chemscore.Metal>
0.0000

> <Gold.Chemscore.Lipo>
92.5511

> <Gold.Chemscore.Internal_Hbond>
0.0000

> <Gold.Chemscore.DEClash>
0.0801

> <Gold.Chemscore.DEInternal>
4.2039

> <Gold.Chemscore.Rot>
1.8480

> <Gold.Chemscore.Internal.Correction>
   9.000000E+99

> <Gold.Chemscore.Hbonds>
donor molecule, donor type, donor heavy atom, donor atom, acceptor molecule, acceptor atom, score
      L1  H    15    26       P1  7948  0.74
      P1  H 10752 10763       L1    23  0.86
      P1  H 10752 10765       L1    14  0.94

> <Gold.Chemscore.Hbond.Weighted>
-9.3565

> <Gold.Chemscore.Metal.Weighted>
-0.0000

> <Gold.Chemscore.Lipo.Weighted>
-10.8285

> <Gold.Chemscore.Internal_Hbond.Weighted>
0.0000

> <Gold.Chemscore.DEClash.Weighted>
0.0801

> <Gold.Chemscore.DEInternal.Weighted>
4.2039

> <Gold.Chemscore.Rot.Weighted>
4.7308

> <Gold.Chemscore.Internal.Correction.Weighted>
   9.000000E+99

> <Gold.Protein.RotatedTorsions>
[ 6907 6896 6895 6894 ] final -154.49 input  -60.11 | X-H torsion
[ 7974 7965 7964 7962 ] final   25.39 input  175.53 | X-H torsion
[ 8008 7997 7996 7995 ] final  -80.90 input   59.86 | X-H torsion
[ 10167 10162 10161 10158 ] final   -3.43 input  -65.29 | X-H torsion
[ 10718 10713 10712 10709 ] final  131.26 input   66.30 | X-H torsion
[ 10763 10752 10751 10750 ] final  155.97 input  -60.55 | X-H torsion
[ 11005 11000 10999 10996 ] final   77.98 input  -57.11 | X-H torsion

> <Gold.Protein.ActiveResidues>
 VAL166  LYS551  ARG553  GLY616  TRP617  ASP618  TYR619  PRO620  LYS621  CYS622 
 ASP623  PHE694  ASN695  SER759  ASP760  ASP761  ALA762  ILE779  LEU786  VAL792 
 PHE793  MET794  SER795  GLU796  ALA797  LYS798  CYS799  TRP800  GLU811  SER814 

> <Gold.Protein.RotatedAtoms>
  151.2583  133.4315  159.2614 H   0  0  0  0  0  0  0  0  0  0  0  0  # atno 6907 bound_to 6896
  151.0554  134.9701  159.8243 H   0  0  0  0  0  0  0  0  0  0  0  0  # atno 6908 bound_to 6896
  152.5389  134.2535  159.8961 H   0  0  0  0  0  0  0  0  0  0  0  0  # atno 6909 bound_to 6896
  146.1891  139.7473  142.8845 H   0  0  0  0  0  0  0  0  0  0  0  0  # atno 7974 bound_to 7965
  154.5929  140.0656  156.9263 H   0  0  0  0  0  0  0  0  0  0  0  0  # atno 8008 bound_to 7997
  155.2264  140.3334  155.4290 H   0  0  0  0  0  0  0  0  0  0  0  0  # atno 8009 bound_to 7997
  156.2268  140.1823  156.7328 H   0  0  0  0  0  0  0  0  0  0  0  0  # atno 8010 bound_to 7997
  140.6890  143.6541  150.8324 H   0  0  0  0  0  0  0  0  0  0  0  0  # atno 10167 bound_to 10162
  157.4985  131.1093  150.9460 H   0  0  0  0  0  0  0  0  0  0  0  0  # atno 10718 bound_to 10713
  154.1769  135.2801  155.3064 H   0  0  0  0  0  0  0  0  0  0  0  0  # atno 10763 bound_to 10752
  154.6033  135.5522  153.7400 H   0  0  0  0  0  0  0  0  0  0  0  0  # atno 10764 bound_to 10752
  153.0149  135.6397  154.1908 H   0  0  0  0  0  0  0  0  0  0  0  0  # atno 10765 bound_to 10752
  139.9232  134.7726  156.1590 H   0  0  0  0  0  0  0  0  0  0  0  0  # atno 11005 bound_to 11000
  145.3848  141.0364  143.3157 LP  0  0  0  0  0  0  0  0  0  0  0  0  # atno 17320 bound_to 7965
  144.8452  139.5408  143.6882 LP  0  0  0  0  0  0  0  0  0  0  0  0  # atno 17321 bound_to 7965
  140.0252  143.5501  152.2784 LP  0  0  0  0  0  0  0  0  0  0  0  0  # atno 17342 bound_to 10162
  139.6274  144.7639  151.2610 LP  0  0  0  0  0  0  0  0  0  0  0  0  # atno 17343 bound_to 10162
  157.0139  130.5647  149.5324 LP  0  0  0  0  0  0  0  0  0  0  0  0  # atno 17370 bound_to 10713
  156.0215  130.5309  150.8287 LP  0  0  0  0  0  0  0  0  0  0  0  0  # atno 17371 bound_to 10713
  141.0769  133.6771  156.2255 LP  0  0  0  0  0  0  0  0  0  0  0  0  # atno 17394 bound_to 11000
  140.6413  134.5162  157.5570 LP  0  0  0  0  0  0  0  0  0  0  0  0  # atno 17395 bound_to 11000

$$$$
