AV-unprocessed.smi:2568|AV-procd|sdf|10094|dock9
  -GOLD-   2272014113D 1   1.00000     0.00000
 Structure written by MMmdl.
 25 26  0  0  0  0  0  0  0  0  2 V2000
  146.4735  139.3845  152.2037 C   0  0  0  0  0  0  0  0  0  0  0  0
  146.0995  137.9455  152.3180 C   0  0  0  0  0  0  0  0  0  0  0  0
  146.4508  137.1396  153.3242 N   0  0  0  0  0  0  0  0  0  0  0  0
  145.8933  135.9088  153.0223 N   0  0  0  0  0  0  0  0  0  0  0  0
  145.2559  136.0803  151.8591 C   0  0  0  0  0  0  0  0  0  0  0  0
  144.4867  135.0194  151.1366 C   0  0  2  0  0  0  0  0  0  0  0  0
  143.3852  134.3920  152.0128 C   0  0  0  0  0  0  0  0  0  0  0  0
  142.7305  133.2864  151.2866 N   0  3  0  0  0  0  0  0  0  0  0  0
  143.7143  132.2888  150.8212 C   0  0  0  0  0  0  0  0  0  0  0  0
  144.8107  132.9748  149.9874 C   0  0  0  0  0  0  0  0  0  0  0  0
  145.4184  134.0113  150.7517 O   0  0  0  0  0  0  0  0  0  0  0  0
  145.3544  137.3323  151.3875 N   0  0  0  0  0  0  0  0  0  0  0  0
  144.9673  137.7196  150.5390 H   0  0  0  0  0  0  0  0  0  0  0  0
  147.1988  139.6524  152.9727 H   0  0  0  0  0  0  0  0  0  0  0  0
  145.5898  140.0112  152.3247 H   0  0  0  0  0  0  0  0  0  0  0  0
  146.9151  139.5821  151.2266 H   0  0  0  0  0  0  0  0  0  0  0  0
  144.0463  135.4607  150.2402 H   0  0  0  0  0  0  0  0  0  0  0  0
  143.8093  134.0040  152.9402 H   0  0  0  0  0  0  0  0  0  0  0  0
  142.6385  135.1375  152.2875 H   0  0  0  0  0  0  0  0  0  0  0  0
  142.0579  132.8378  151.8926 H   0  0  0  0  0  0  0  0  0  0  0  0
  144.1555  131.7906  151.6856 H   0  0  0  0  0  0  0  0  0  0  0  0
  143.2057  131.5242  150.2337 H   0  0  0  0  0  0  0  0  0  0  0  0
  145.5746  132.2512  149.7020 H   0  0  0  0  0  0  0  0  0  0  0  0
  144.3990  133.3836  149.0631 H   0  0  0  0  0  0  0  0  0  0  0  0
  142.2488  133.6652  150.4837 H   0  0  0  0  0  0  0  0  0  0  0  0
  1 14  1  0  0  0  0
  1 15  1  0  0  0  0
  1 16  1  0  0  0  0
  1  2  1  0  0  0  0
  2  3  2  0  0  0  0
  2 12  1  0  0  0  0
  3  4  1  0  0  0  0
  4  5  2  0  0  0  0
  5 12  1  0  0  0  0
  5  6  1  0  0  0  0
  6 11  1  0  0  0  0
  6  7  1  0  0  0  0
  6 17  1  0  0  0  0
  7  8  1  0  0  0  0
  7 18  1  0  0  0  0
  7 19  1  0  0  0  0
  8  9  1  0  0  0  0
  8 20  1  0  0  0  0
  8 25  1  0  0  0  0
  9 10  1  0  0  0  0
  9 21  1  0  0  0  0
  9 22  1  0  0  0  0
 10 11  1  0  0  0  0
 10 23  1  0  0  0  0
 10 24  1  0  0  0  0
 12 13  1  0  0  0  0
M  CHG  1   8   1
M  END
> <s_m_source_file>
AV-unprocessed.smi

> <i_m_source_file_index>
2568

> <i_lp_mmshare_version>
43012

> <i_f3d_flags>
0

> <s_epik_input>
W0NIM11jMW5bbkhdYyhuMSlbQ0BASF0yW0NIMl1bTkhdW0NIMl1bQ0gyXU8y

> <s_epik_cmdline>
J2VwaWtfcHl0aG9uJywgJy1waCcsICc3LjAnLCAnLXRuJywgJzgnLCAnLW1hJywgJzIwMCcsICctbWV0YWxfYmluZGluZycsICctaW1hZScsICc8aW5maWxlLm1hZT4nLCAnLW9tYWUnLCAnPG91dGZpbGUubWFlPic=

> <r_lp_tautomer_probability>
0.0517155

> <r_epik_Ionization_Penalty>
0.290065

> <r_epik_Ionization_Penalty_Charging>
0.125708

> <r_epik_Ionization_Penalty_Neutral>
0.164357

> <r_epik_State_Penalty>
2.14308

> <r_epik_Charging_Adjusted_Penalty>
2.26879

> <i_epik_Tot_Q>
1

> <i_epik_Tot_abs_Q>
1

> <r_epik_Metal_State_Penalty>
2.44434

> <b_epik_Metal_Only>
0

> <s_lp_Force_Field>
OPLS_2005

> <r_lp_Energy>
13.5699

> <b_lp_Chiralities_Consistent>
1

> <s_lp_Variant>
AV-unprocessed.smi:2568-7

> <Gold.Version>
5.8.1

> <Gold.Id.Protein>
6NUR|6NUR_protein|mol2

> <Gold.PLP.Fitness>
29.3881

> <Gold.PLP.PLP>
-20.4711

> <Gold.PLP.part.hbond>
-1.9616

> <Gold.PLP.part.metal>
0.0000

> <Gold.PLP.part.buried>
-3.1738

> <Gold.PLP.part.nonpolar>
-17.4936

> <Gold.PLP.part.repulsive>
1.4635

> <Gold.PLP.ligand.clash>
0.0000

> <Gold.PLP.ligand.torsion>
0.0300

> <Gold.PLP.Chemscore.Hbond>
2.9920

> <Gold.PLP.Chemscore.CHOScore>
0.0000

> <Gold.PLP.Chemscore.Metal>
0.0000

> <Gold.Chemscore.Hbonds>
donor molecule, donor type, donor heavy atom, donor atom, acceptor molecule, acceptor atom, score
      L1  H     8    25       P1 10186  2.00
      L1  H    12    13       P1 10171  1.00

> <Gold.PLP.Chemscore.Internal.Correction>
0.0009

> <Gold.Rescore>
     Score         DG    S(hbond)    S(metal)    S(lipo)     H(rot)  DE(clash)    DE(int)     intcor
     13.46     -13.64       1.91        0.00      37.16       1.00       0.16       0.02       ----

> <Gold.Chemscore.Fitness>
13.4569

> <Gold.Chemscore.DG>
-13.6407

> <Gold.Chemscore.ZeroCoef>
-5.4800

> <Gold.Chemscore.Hbond>
1.9080

> <Gold.Chemscore.Metal>
0.0000

> <Gold.Chemscore.Lipo>
37.1624

> <Gold.Chemscore.Internal_Hbond>
0.0000

> <Gold.Chemscore.DEClash>
0.1610

> <Gold.Chemscore.DEInternal>
0.0228

> <Gold.Chemscore.Rot>
1.0000

> <Gold.Chemscore.Internal.Correction>
   9.000000E+99

> <Gold.Chemscore.Hbonds>
donor molecule, donor type, donor heavy atom, donor atom, acceptor molecule, acceptor atom, score
      L1  H     8    25       P1 10186  0.95
      L1  H    12    13       P1 10171  0.93

> <Gold.Chemscore.Hbond.Weighted>
-6.3727

> <Gold.Chemscore.Metal.Weighted>
-0.0000

> <Gold.Chemscore.Lipo.Weighted>
-4.3480

> <Gold.Chemscore.Internal_Hbond.Weighted>
0.0000

> <Gold.Chemscore.DEClash.Weighted>
0.1610

> <Gold.Chemscore.DEInternal.Weighted>
0.0228

> <Gold.Chemscore.Rot.Weighted>
2.5600

> <Gold.Chemscore.Internal.Correction.Weighted>
   9.000000E+99

> <Gold.Protein.RotatedTorsions>
[ 6907 6896 6895 6894 ] final  -83.01 input  -60.11 | X-H torsion
[ 7974 7965 7964 7962 ] final  131.77 input  175.53 | X-H torsion
[ 8008 7997 7996 7995 ] final  148.07 input   59.86 | X-H torsion
[ 10167 10162 10161 10158 ] final  -17.42 input  -65.29 | X-H torsion
[ 10718 10713 10712 10709 ] final   73.94 input   66.30 | X-H torsion
[ 10763 10752 10751 10750 ] final  167.98 input  -60.55 | X-H torsion
[ 11005 11000 10999 10996 ] final -116.11 input  -57.11 | X-H torsion

> <Gold.Protein.ActiveResidues>
 VAL166  LYS551  ARG553  GLY616  TRP617  ASP618  TYR619  PRO620  LYS621  CYS622 
 ASP623  PHE694  ASN695  SER759  ASP760  ASP761  ALA762  ILE779  LEU786  VAL792 
 PHE793  MET794  SER795  GLU796  ALA797  LYS798  CYS799  TRP800  GLU811  SER814 

> <Gold.Protein.RotatedAtoms>
  150.6890  134.3577  159.4936 H   0  0  0  0  0  0  0  0  0  0  0  0  # atno 6907 bound_to 6896
  152.1410  134.9060  160.0563 H   0  0  0  0  0  0  0  0  0  0  0  0  # atno 6908 bound_to 6896
  152.0193  133.3857  159.4289 H   0  0  0  0  0  0  0  0  0  0  0  0  # atno 6909 bound_to 6896
  145.0038  139.4286  143.5279 H   0  0  0  0  0  0  0  0  0  0  0  0  # atno 7974 bound_to 7965
  156.2804  140.2138  156.5639 H   0  0  0  0  0  0  0  0  0  0  0  0  # atno 8008 bound_to 7997
  154.7190  140.0505  157.0645 H   0  0  0  0  0  0  0  0  0  0  0  0  # atno 8009 bound_to 7997
  155.0503  140.3155  155.4697 H   0  0  0  0  0  0  0  0  0  0  0  0  # atno 8010 bound_to 7997
  140.7247  143.5017  150.9861 H   0  0  0  0  0  0  0  0  0  0  0  0  # atno 10167 bound_to 10162
  157.6570  130.9653  150.1140 H   0  0  0  0  0  0  0  0  0  0  0  0  # atno 10718 bound_to 10713
  154.3618  135.2753  155.2315 H   0  0  0  0  0  0  0  0  0  0  0  0  # atno 10763 bound_to 10752
  154.4500  135.5933  153.6189 H   0  0  0  0  0  0  0  0  0  0  0  0  # atno 10764 bound_to 10752
  152.9843  135.6039  154.3839 H   0  0  0  0  0  0  0  0  0  0  0  0  # atno 10765 bound_to 10752
  141.0443  133.9786  157.2943 H   0  0  0  0  0  0  0  0  0  0  0  0  # atno 11005 bound_to 11000
  146.3457  139.9443  142.8737 LP  0  0  0  0  0  0  0  0  0  0  0  0  # atno 17320 bound_to 7965
  145.2116  140.9898  143.4097 LP  0  0  0  0  0  0  0  0  0  0  0  0  # atno 17321 bound_to 7965
  139.8727  143.7172  152.3165 LP  0  0  0  0  0  0  0  0  0  0  0  0  # atno 17342 bound_to 10162
  139.7426  144.7555  151.0628 LP  0  0  0  0  0  0  0  0  0  0  0  0  # atno 17343 bound_to 10162
  156.2029  130.3661  149.8766 LP  0  0  0  0  0  0  0  0  0  0  0  0  # atno 17370 bound_to 10713
  156.6665  130.8803  151.3555 LP  0  0  0  0  0  0  0  0  0  0  0  0  # atno 17371 bound_to 10713
  139.9300  135.0200  156.8367 LP  0  0  0  0  0  0  0  0  0  0  0  0  # atno 17394 bound_to 11000
  140.6175  134.0025  155.7603 LP  0  0  0  0  0  0  0  0  0  0  0  0  # atno 17395 bound_to 11000

$$$$
