AV-unprocessed.smi:1409|AV-procd|sdf|5728|dock3
  -GOLD-   22720 5363D 1   1.00000     0.00000
 Structure written by MMmdl.
 37 38  0  0  0  0  0  0  0  0  1 V2000
  147.7303  131.9055  153.1870 C   0  0  0  0  0  0  0  0  0  0  0  0
  147.5090  133.0674  152.3949 O   0  0  0  0  0  0  0  0  0  0  0  0
  146.3703  133.1271  151.6137 C   0  0  0  0  0  0  0  0  0  0  0  0
  145.8571  131.9661  151.1347 N   0  0  0  0  0  0  0  0  0  0  0  0
  144.7451  132.0206  150.3738 C   0  0  0  0  0  0  0  0  0  0  0  0
  144.0886  133.2231  150.0563 C   0  0  0  0  0  0  0  0  0  0  0  0
  144.6175  134.4286  150.5531 C   0  0  0  0  0  0  0  0  0  0  0  0
  145.7908  134.3903  151.3469 C   0  0  0  0  0  0  0  0  0  0  0  0
  146.4161  135.5373  151.9145 N   0  0  0  0  0  0  0  0  0  0  0  0
  145.8714  136.6862  152.3503 C   0  0  0  0  0  0  0  0  0  0  0  0
  144.6743  136.9686  152.3257 O   0  0  0  0  0  0  0  0  0  0  0  0
  146.8149  137.5134  152.8230 N   0  0  0  0  0  0  0  0  0  0  0  0
  146.5806  138.8441  153.3765 C   0  0  0  0  0  0  0  0  0  0  0  0
  147.8982  139.6046  153.6179 C   0  0  1  0  0  0  0  0  0  0  0  0
  147.6645  141.0963  153.9264 C   0  0  0  0  0  0  0  0  0  0  0  0
  148.9866  141.7119  154.3941 C   0  0  0  0  0  0  0  0  0  0  0  0
  149.8442  140.3866  155.3224 S   0  0  0  0  0  0  0  0  0  0  0  0
  151.1914  140.2043  154.7612 O   0  0  0  0  0  0  0  0  0  0  0  0
  149.6460  140.5914  156.7652 O   0  0  0  0  0  0  0  0  0  0  0  0
  148.7547  139.0249  154.7573 C   0  0  0  0  0  0  0  0  0  0  0  0
  148.6667  132.0155  153.7335 H   0  0  0  0  0  0  0  0  0  0  0  0
  147.8108  131.0092  152.5704 H   0  0  0  0  0  0  0  0  0  0  0  0
  146.9343  131.7665  153.9200 H   0  0  0  0  0  0  0  0  0  0  0  0
  144.3657  131.0770  150.0103 H   0  0  0  0  0  0  0  0  0  0  0  0
  143.1968  133.2208  149.4472 H   0  0  0  0  0  0  0  0  0  0  0  0
  144.1029  135.3460  150.3178 H   0  0  0  0  0  0  0  0  0  0  0  0
  147.4229  135.4835  151.9695 H   0  0  0  0  0  0  0  0  0  0  0  0
  147.7733  137.1967  152.8011 H   0  0  0  0  0  0  0  0  0  0  0  0
  145.9695  139.3940  152.6605 H   0  0  0  0  0  0  0  0  0  0  0  0
  145.9948  138.7908  154.2958 H   0  0  0  0  0  0  0  0  0  0  0  0
  148.4939  139.5574  152.7048 H   0  0  0  0  0  0  0  0  0  0  0  0
  147.2609  141.6296  153.0653 H   0  0  0  0  0  0  0  0  0  0  0  0
  146.9311  141.1863  154.7288 H   0  0  0  0  0  0  0  0  0  0  0  0
  149.6097  141.9848  153.5421 H   0  0  0  0  0  0  0  0  0  0  0  0
  148.8514  142.5906  155.0250 H   0  0  0  0  0  0  0  0  0  0  0  0
  148.1332  138.7250  155.6019 H   0  0  0  0  0  0  0  0  0  0  0  0
  149.3538  138.1682  154.4482 H   0  0  0  0  0  0  0  0  0  0  0  0
  1  2  1  0  0  0  0
  1 21  1  0  0  0  0
  1 22  1  0  0  0  0
  1 23  1  0  0  0  0
  2  3  1  0  0  0  0
  3  8  1  0  0  0  0
  3  4  2  0  0  0  0
  4  5  1  0  0  0  0
  5  6  2  0  0  0  0
  5 24  1  0  0  0  0
  6  7  1  0  0  0  0
  6 25  1  0  0  0  0
  7  8  2  0  0  0  0
  7 26  1  0  0  0  0
  8  9  1  0  0  0  0
  9 10  1  0  0  0  0
  9 27  1  0  0  0  0
 10 11  2  0  0  0  0
 10 12  1  0  0  0  0
 12 13  1  0  0  0  0
 12 28  1  0  0  0  0
 13 14  1  0  0  0  0
 13 29  1  0  0  0  0
 13 30  1  0  0  0  0
 14 20  1  0  0  0  0
 14 15  1  0  0  0  0
 14 31  1  0  0  0  0
 15 16  1  0  0  0  0
 15 32  1  0  0  0  0
 15 33  1  0  0  0  0
 16 17  1  0  0  0  0
 16 34  1  0  0  0  0
 16 35  1  0  0  0  0
 17 18  2  0  0  0  0
 17 19  2  0  0  0  0
 17 20  1  0  0  0  0
 20 36  1  0  0  0  0
 20 37  1  0  0  0  0
M  END
> <s_m_source_file>
AV-unprocessed.smi

> <i_m_source_file_index>
1409

> <i_lp_mmshare_version>
43012

> <i_f3d_flags>
0

> <s_epik_input>
W0NIM11PYzFuW2NIXVtjSF1bY0hdYzFbTkhdQyg9TylbTkhdW0NIMl1bQ0BASF0oW0NIMl0yKVtDSDJdW0NIMl1TMig9Tyk9Tw==

> <s_epik_cmdline>
J2VwaWtfcHl0aG9uJywgJy1waCcsICc3LjAnLCAnLXRuJywgJzgnLCAnLW1hJywgJzIwMCcsICctbWV0YWxfYmluZGluZycsICctaW1hZScsICc8aW5maWxlLm1hZT4nLCAnLW9tYWUnLCAnPG91dGZpbGUubWFlPic=

> <r_lp_tautomer_probability>
1

> <r_epik_Ionization_Penalty>
9.0549e-05

> <r_epik_Ionization_Penalty_Charging>
0

> <r_epik_Ionization_Penalty_Neutral>
9.0549e-05

> <r_epik_State_Penalty>
-0

> <r_epik_Charging_Adjusted_Penalty>
0

> <i_epik_Tot_Q>
0

> <i_epik_Tot_abs_Q>
0

> <r_epik_Metal_State_Penalty>
-0

> <b_epik_Metal_Only>
0

> <s_lp_Force_Field>
OPLS_2005

> <r_lp_Energy>
6.49732

> <b_lp_Chiralities_Consistent>
1

> <s_lp_Variant>
AV-unprocessed.smi:1409-2

> <Gold.Version>
5.8.1

> <Gold.Id.Protein>
6NUR|6NUR_protein|mol2

> <Gold.PLP.Fitness>
39.4090

> <Gold.PLP.PLP>
-32.1930

> <Gold.PLP.part.hbond>
-2.9576

> <Gold.PLP.part.metal>
0.0000

> <Gold.PLP.part.buried>
-3.1217

> <Gold.PLP.part.nonpolar>
-26.6518

> <Gold.PLP.part.repulsive>
1.0317

> <Gold.PLP.ligand.clash>
0.0000

> <Gold.PLP.ligand.torsion>
0.6845

> <Gold.PLP.Chemscore.Hbond>
2.8560

> <Gold.PLP.Chemscore.CHOScore>
0.0000

> <Gold.PLP.Chemscore.Metal>
0.0000

> <Gold.Chemscore.Hbonds>
donor molecule, donor type, donor heavy atom, donor atom, acceptor molecule, acceptor atom, score
      L1  H     9    27       P1  7948  1.00
      L1  H    12    28       P1  7948  0.86
      P1  H  7989  7998       L1    18  0.91

> <Gold.PLP.Chemscore.Internal.Correction>
0.0171

> <Gold.Rescore>
     Score         DG    S(hbond)    S(metal)    S(lipo)     H(rot)  DE(clash)    DE(int)     intcor
     17.91     -18.95       2.91        0.00      66.92       1.59       0.32       0.72       ----

> <Gold.Chemscore.Fitness>
17.9133

> <Gold.Chemscore.DG>
-18.9499

> <Gold.Chemscore.ZeroCoef>
-5.4800

> <Gold.Chemscore.Hbond>
2.9087

> <Gold.Chemscore.Metal>
0.0000

> <Gold.Chemscore.Lipo>
66.9246

> <Gold.Chemscore.Internal_Hbond>
0.0000

> <Gold.Chemscore.DEClash>
0.3174

> <Gold.Chemscore.DEInternal>
0.7192

> <Gold.Chemscore.Rot>
1.5919

> <Gold.Chemscore.Internal.Correction>
   9.000000E+99

> <Gold.Chemscore.Hbonds>
donor molecule, donor type, donor heavy atom, donor atom, acceptor molecule, acceptor atom, score
      L1  H     9    27       P1  7948  0.95
      L1  H    12    28       P1  7948  0.85
      P1  H  7989  7998       L1    18  0.86

> <Gold.Chemscore.Hbond.Weighted>
-9.7151

> <Gold.Chemscore.Metal.Weighted>
-0.0000

> <Gold.Chemscore.Lipo.Weighted>
-7.8302

> <Gold.Chemscore.Internal_Hbond.Weighted>
0.0000

> <Gold.Chemscore.DEClash.Weighted>
0.3174

> <Gold.Chemscore.DEInternal.Weighted>
0.7192

> <Gold.Chemscore.Rot.Weighted>
4.0754

> <Gold.Chemscore.Internal.Correction.Weighted>
   9.000000E+99

> <Gold.Protein.RotatedTorsions>
[ 6907 6896 6895 6894 ] final   84.39 input  -60.11 | X-H torsion
[ 7974 7965 7964 7962 ] final  -91.82 input  175.53 | X-H torsion
[ 8008 7997 7996 7995 ] final -148.29 input   59.86 | X-H torsion
[ 10167 10162 10161 10158 ] final  -78.73 input  -65.29 | X-H torsion
[ 10718 10713 10712 10709 ] final -179.92 input   66.30 | X-H torsion
[ 10763 10752 10751 10750 ] final -150.92 input  -60.55 | X-H torsion
[ 11005 11000 10999 10996 ] final -176.26 input  -57.11 | X-H torsion

> <Gold.Protein.ActiveResidues>
 VAL166  LYS551  ARG553  GLY616  TRP617  ASP618  TYR619  PRO620  LYS621  CYS622 
 ASP623  PHE694  ASN695  SER759  ASP760  ASP761  ALA762  ILE779  LEU786  VAL792 
 PHE793  MET794  SER795  GLU796  ALA797  LYS798  CYS799  TRP800  GLU811  SER814 

> <Gold.Protein.RotatedAtoms>
  152.5351  134.2749  159.8985 H   0  0  0  0  0  0  0  0  0  0  0  0  # atno 6907 bound_to 6896
  151.2705  133.4251  159.2628 H   0  0  0  0  0  0  0  0  0  0  0  0  # atno 6908 bound_to 6896
  151.0372  134.9596  159.8199 H   0  0  0  0  0  0  0  0  0  0  0  0  # atno 6909 bound_to 6896
  145.4080  140.9543  143.2250 H   0  0  0  0  0  0  0  0  0  0  0  0  # atno 7974 bound_to 7965
  155.5892  140.0651  157.2763 H   0  0  0  0  0  0  0  0  0  0  0  0  # atno 8008 bound_to 7997
  154.4310  140.1838  156.1104 H   0  0  0  0  0  0  0  0  0  0  0  0  # atno 8009 bound_to 7997
  156.0245  140.3313  155.7078 H   0  0  0  0  0  0  0  0  0  0  0  0  # atno 8010 bound_to 7997
  140.4656  143.2441  151.8283 H   0  0  0  0  0  0  0  0  0  0  0  0  # atno 10167 bound_to 10162
  156.8663  130.9769  151.3078 H   0  0  0  0  0  0  0  0  0  0  0  0  # atno 10718 bound_to 10713
  154.8089  135.3272  154.7357 H   0  0  0  0  0  0  0  0  0  0  0  0  # atno 10763 bound_to 10752
  153.8010  135.6903  153.4860 H   0  0  0  0  0  0  0  0  0  0  0  0  # atno 10764 bound_to 10752
  153.1854  135.4571  155.0028 H   0  0  0  0  0  0  0  0  0  0  0  0  # atno 10765 bound_to 10752
  140.4540  134.6316  157.4814 H   0  0  0  0  0  0  0  0  0  0  0  0  # atno 11005 bound_to 11000
  144.8328  139.5600  143.6936 LP  0  0  0  0  0  0  0  0  0  0  0  0  # atno 17320 bound_to 7965
  146.2719  139.6656  142.9290 LP  0  0  0  0  0  0  0  0  0  0  0  0  # atno 17321 bound_to 7965
  139.4811  144.4955  151.9129 LP  0  0  0  0  0  0  0  0  0  0  0  0  # atno 17342 bound_to 10162
  140.4040  144.2456  150.5891 LP  0  0  0  0  0  0  0  0  0  0  0  0  # atno 17343 bound_to 10162
  157.6221  130.8663  149.9127 LP  0  0  0  0  0  0  0  0  0  0  0  0  # atno 17370 bound_to 10713
  156.0750  130.3680  150.0697 LP  0  0  0  0  0  0  0  0  0  0  0  0  # atno 17371 bound_to 10713
  139.9988  134.6869  155.9565 LP  0  0  0  0  0  0  0  0  0  0  0  0  # atno 17394 bound_to 11000
  141.1651  133.6537  156.4452 LP  0  0  0  0  0  0  0  0  0  0  0  0  # atno 17395 bound_to 11000

$$$$
