AV-unprocessed.smi:3031|AV-procd|sdf|11551|dock8
  -GOLD-   2272016513D 1   1.00000     0.00000
 Structure written by MMmdl.
 48 49  0  0  0  0  0  0  0  0  3 V2000
  151.2342  143.2370  158.3894 C   0  0  0  0  0  0  0  0  0  0  0  0
  151.2491  142.0211  157.5081 C   0  0  0  0  0  0  0  0  0  0  0  0
  151.7081  140.7145  157.8358 C   0  0  0  0  0  0  0  0  0  0  0  0
  151.5914  139.8628  156.8305 N   0  0  0  0  0  0  0  0  0  0  0  0
  151.0456  140.5889  155.8296 N   0  0  0  0  0  0  0  0  0  0  0  0
  150.7966  139.9826  154.5297 C   0  0  0  0  0  0  0  0  0  0  0  0
  149.7396  138.8584  154.5661 C   0  0  2  0  0  0  0  0  0  0  0  0
  150.3963  137.4892  154.8002 C   0  0  0  0  0  0  0  0  0  0  0  0
  148.9575  138.8542  153.3094 N   0  3  0  0  0  0  0  0  0  0  0  0
  147.5874  139.3960  153.4249 C   0  0  0  0  0  0  0  0  0  0  0  0
  146.5911  138.5756  152.5852 C   0  0  1  0  0  0  0  0  0  0  0  0
  147.2483  138.1706  151.4014 O   0  0  0  0  0  0  0  0  0  0  0  0
  146.1005  137.3034  153.3094 C   0  0  0  0  0  0  0  0  0  0  0  0
  146.1346  136.0897  152.4518 N   0  3  0  0  0  0  0  0  0  0  0  0
  146.1294  134.8171  153.2162 C   0  0  0  0  0  0  0  0  0  0  0  0
  146.1940  133.6132  152.2607 C   0  0  0  0  0  0  0  0  0  0  0  0
  145.1079  133.6706  151.3450 O   0  0  0  0  0  0  0  0  0  0  0  0
  145.1524  134.8421  150.5408 C   0  0  0  0  0  0  0  0  0  0  0  0
  145.0519  136.0872  151.4385 C   0  0  0  0  0  0  0  0  0  0  0  0
  150.8427  141.8991  156.2094 C   0  0  0  0  0  0  0  0  0  0  0  0
  152.1975  143.3921  158.8755 H   0  0  0  0  0  0  0  0  0  0  0  0
  150.4859  143.1529  159.1775 H   0  0  0  0  0  0  0  0  0  0  0  0
  151.0098  144.1440  157.8276 H   0  0  0  0  0  0  0  0  0  0  0  0
  152.1238  140.3631  158.7689 H   0  0  0  0  0  0  0  0  0  0  0  0
  150.4864  140.7673  153.8377 H   0  0  0  0  0  0  0  0  0  0  0  0
  151.7452  139.5947  154.1560 H   0  0  0  0  0  0  0  0  0  0  0  0
  149.0644  139.0549  155.4005 H   0  0  0  0  0  0  0  0  0  0  0  0
  150.9717  137.4863  155.7264 H   0  0  0  0  0  0  0  0  0  0  0  0
  151.0766  137.2304  153.9881 H   0  0  0  0  0  0  0  0  0  0  0  0
  149.6538  136.6949  154.8779 H   0  0  0  0  0  0  0  0  0  0  0  0
  149.4517  139.4327  152.6449 H   0  0  0  0  0  0  0  0  0  0  0  0
  147.2774  139.4239  154.4703 H   0  0  0  0  0  0  0  0  0  0  0  0
  147.6038  140.4271  153.0702 H   0  0  0  0  0  0  0  0  0  0  0  0
  145.7451  139.1971  152.2928 H   0  0  0  0  0  0  0  0  0  0  0  0
  148.0835  138.6113  151.3485 H   0  0  0  0  0  0  0  0  0  0  0  0
  146.6956  137.1181  154.2054 H   0  0  0  0  0  0  0  0  0  0  0  0
  145.0791  137.4747  153.6539 H   0  0  0  0  0  0  0  0  0  0  0  0
  146.9769  134.7746  153.8992 H   0  0  0  0  0  0  0  0  0  0  0  0
  145.2253  134.7588  153.8243 H   0  0  0  0  0  0  0  0  0  0  0  0
  147.1418  133.5948  151.7203 H   0  0  0  0  0  0  0  0  0  0  0  0
  146.1310  132.6824  152.8246 H   0  0  0  0  0  0  0  0  0  0  0  0
  146.0698  134.8594  149.9502 H   0  0  0  0  0  0  0  0  0  0  0  0
  144.3205  134.8182  149.8365 H   0  0  0  0  0  0  0  0  0  0  0  0
  144.0819  136.1092  151.9380 H   0  0  0  0  0  0  0  0  0  0  0  0
  145.1166  136.9858  150.8236 H   0  0  0  0  0  0  0  0  0  0  0  0
  150.4302  142.6313  155.5305 H   0  0  0  0  0  0  0  0  0  0  0  0
  148.9189  137.9123  152.9463 H   0  0  0  0  0  0  0  0  0  0  0  0
  147.0010  136.1204  151.9336 H   0  0  0  0  0  0  0  0  0  0  0  0
  1  2  1  0  0  0  0
  1 21  1  0  0  0  0
  1 22  1  0  0  0  0
  1 23  1  0  0  0  0
  2 20  2  0  0  0  0
  2  3  1  0  0  0  0
  3  4  2  0  0  0  0
  3 24  1  0  0  0  0
  4  5  1  0  0  0  0
  5  6  1  0  0  0  0
  5 20  1  0  0  0  0
  6  7  1  0  0  0  0
  6 25  1  0  0  0  0
  6 26  1  0  0  0  0
  7  8  1  0  0  0  0
  7  9  1  0  0  0  0
  7 27  1  0  0  0  0
  8 28  1  0  0  0  0
  8 29  1  0  0  0  0
  8 30  1  0  0  0  0
  9 10  1  0  0  0  0
  9 31  1  0  0  0  0
  9 47  1  0  0  0  0
 10 11  1  0  0  0  0
 10 32  1  0  0  0  0
 10 33  1  0  0  0  0
 11 12  1  0  0  0  0
 11 13  1  0  0  0  0
 11 34  1  0  0  0  0
 12 35  1  0  0  0  0
 13 14  1  0  0  0  0
 13 36  1  0  0  0  0
 13 37  1  0  0  0  0
 14 19  1  0  0  0  0
 14 15  1  0  0  0  0
 14 48  1  0  0  0  0
 15 16  1  0  0  0  0
 15 38  1  0  0  0  0
 15 39  1  0  0  0  0
 16 17  1  0  0  0  0
 16 40  1  0  0  0  0
 16 41  1  0  0  0  0
 17 18  1  0  0  0  0
 18 19  1  0  0  0  0
 18 42  1  0  0  0  0
 18 43  1  0  0  0  0
 19 44  1  0  0  0  0
 19 45  1  0  0  0  0
 20 46  1  0  0  0  0
M  CHG  1   9   1
M  CHG  1  14   1
M  END
> <s_m_source_file>
AV-unprocessed.smi

> <i_m_source_file_index>
3031

> <i_lp_mmshare_version>
43012

> <i_f3d_flags>
0

> <s_epik_input>
W0NIM11jMVtjSF1ubihbY0hdMSlbQ0gyXVtDQEhdKFtDSDNdKVtOSF1bQ0gyXVtDQEhdKFtPSF0pW0NIMl1OMltDSDJdW0NIMl1PW0NIMl1bQ0gyXTI=

> <s_epik_cmdline>
J2VwaWtfcHl0aG9uJywgJy1waCcsICc3LjAnLCAnLXRuJywgJzgnLCAnLW1hJywgJzIwMCcsICctbWV0YWxfYmluZGluZycsICctaW1hZScsICc8aW5maWxlLm1hZT4nLCAnLW9tYWUnLCAnPG91dGZpbGUubWFlPic=

> <r_lp_tautomer_probability>
1

> <r_epik_Ionization_Penalty>
1.76542

> <r_epik_Ionization_Penalty_Charging>
1.76348

> <r_epik_Ionization_Penalty_Neutral>
0.00194017

> <r_epik_State_Penalty>
1.49348

> <r_epik_Charging_Adjusted_Penalty>
3.25696

> <i_epik_Tot_Q>
2

> <i_epik_Tot_abs_Q>
2

> <r_epik_Metal_State_Penalty>
1.49349

> <b_epik_Metal_Only>
0

> <s_lp_Force_Field>
OPLS_2005

> <r_lp_Energy>
28.4562

> <b_lp_Chiralities_Consistent>
1

> <s_lp_Variant>
AV-unprocessed.smi:3031-11

> <Gold.Version>
5.8.1

> <Gold.Id.Protein>
6NUR|6NUR_protein|mol2

> <Gold.PLP.Fitness>
53.2216

> <Gold.PLP.PLP>
-36.9122

> <Gold.PLP.part.hbond>
-5.8694

> <Gold.PLP.part.metal>
0.0000

> <Gold.PLP.part.buried>
0.4618

> <Gold.PLP.part.nonpolar>
-31.4818

> <Gold.PLP.part.repulsive>
0.2293

> <Gold.PLP.ligand.clash>
0.0000

> <Gold.PLP.ligand.torsion>
2.4186

> <Gold.PLP.Chemscore.Hbond>
6.0000

> <Gold.PLP.Chemscore.CHOScore>
1.0000

> <Gold.PLP.Chemscore.Metal>
0.0000

> <Gold.Chemscore.Hbonds>
donor molecule, donor type, donor heavy atom, donor atom, acceptor molecule, acceptor atom, score
      L1  H     9    31       P1  7957  1.00
      L1  H     9    47       P1  7948  2.00
      L1  H    12    35       P1  7957  0.96
      L1  H    14    48       P1  7948  2.00
      L1  C    20    46       P1  8028  0.84

> <Gold.PLP.Chemscore.Internal.Correction>
0.1465

> <Gold.Rescore>
     Score         DG    S(hbond)    S(metal)    S(lipo)     H(rot)  DE(clash)    DE(int)     intcor
     15.31     -19.26       3.15        0.00      88.05       2.74       1.38       2.58       ----

> <Gold.Chemscore.Fitness>
15.3073

> <Gold.Chemscore.DG>
-19.2642

> <Gold.Chemscore.ZeroCoef>
-5.4800

> <Gold.Chemscore.Hbond>
3.1453

> <Gold.Chemscore.Metal>
0.0000

> <Gold.Chemscore.Lipo>
88.0518

> <Gold.Chemscore.Internal_Hbond>
0.0000

> <Gold.Chemscore.DEClash>
1.3771

> <Gold.Chemscore.DEInternal>
2.5798

> <Gold.Chemscore.Rot>
2.7434

> <Gold.Chemscore.Internal.Correction>
   9.000000E+99

> <Gold.Chemscore.Hbonds>
donor molecule, donor type, donor heavy atom, donor atom, acceptor molecule, acceptor atom, score
      L1  H     9    31       P1  7957  0.93
      L1  H     9    47       P1  7948  0.98
      L1  H    12    35       P1  7957  0.27
      L1  H    14    48       P1  7948  0.96

> <Gold.Chemscore.Hbond.Weighted>
-10.5052

> <Gold.Chemscore.Metal.Weighted>
-0.0000

> <Gold.Chemscore.Lipo.Weighted>
-10.3021

> <Gold.Chemscore.Internal_Hbond.Weighted>
0.0000

> <Gold.Chemscore.DEClash.Weighted>
1.3771

> <Gold.Chemscore.DEInternal.Weighted>
2.5798

> <Gold.Chemscore.Rot.Weighted>
7.0231

> <Gold.Chemscore.Internal.Correction.Weighted>
   9.000000E+99

> <Gold.Protein.RotatedTorsions>
[ 6907 6896 6895 6894 ] final   49.96 input  -60.11 | X-H torsion
[ 7974 7965 7964 7962 ] final  -24.25 input  175.53 | X-H torsion
[ 8008 7997 7996 7995 ] final   57.68 input   59.86 | X-H torsion
[ 10167 10162 10161 10158 ] final -104.65 input  -65.29 | X-H torsion
[ 10718 10713 10712 10709 ] final  -72.99 input   66.30 | X-H torsion
[ 10763 10752 10751 10750 ] final   16.73 input  -60.55 | X-H torsion
[ 11005 11000 10999 10996 ] final -152.07 input  -57.11 | X-H torsion

> <Gold.Protein.ActiveResidues>
 VAL166  LYS551  ARG553  GLY616  TRP617  ASP618  TYR619  PRO620  LYS621  CYS622 
 ASP623  PHE694  ASN695  SER759  ASP760  ASP761  ALA762  ILE779  LEU786  VAL792 
 PHE793  MET794  SER795  GLU796  ALA797  LYS798  CYS799  TRP800  GLU811  SER814 

> <Gold.Protein.RotatedAtoms>
  152.2966  134.7660  160.0366 H   0  0  0  0  0  0  0  0  0  0  0  0  # atno 6907 bound_to 6896
  151.8188  133.3386  159.3586 H   0  0  0  0  0  0  0  0  0  0  0  0  # atno 6908 bound_to 6896
  150.7254  134.5523  159.5845 H   0  0  0  0  0  0  0  0  0  0  0  0  # atno 6909 bound_to 6896
  146.1566  140.4726  142.8589 H   0  0  0  0  0  0  0  0  0  0  0  0  # atno 7974 bound_to 7965
  155.5377  140.3483  155.4440 H   0  0  0  0  0  0  0  0  0  0  0  0  # atno 8008 bound_to 7997
  156.0673  140.1354  156.9897 H   0  0  0  0  0  0  0  0  0  0  0  0  # atno 8009 bound_to 7997
  154.4510  140.0973  156.6591 H   0  0  0  0  0  0  0  0  0  0  0  0  # atno 8010 bound_to 7997
  140.2070  143.3775  152.1082 H   0  0  0  0  0  0  0  0  0  0  0  0  # atno 10167 bound_to 10162
  156.0298  130.4384  150.2675 H   0  0  0  0  0  0  0  0  0  0  0  0  # atno 10718 bound_to 10713
  153.1403  135.6758  153.9037 H   0  0  0  0  0  0  0  0  0  0  0  0  # atno 10763 bound_to 10752
  153.8496  135.3095  155.3433 H   0  0  0  0  0  0  0  0  0  0  0  0  # atno 10764 bound_to 10752
  154.7782  135.4903  153.9872 H   0  0  0  0  0  0  0  0  0  0  0  0  # atno 10765 bound_to 10752
  140.7228  134.3708  157.5180 H   0  0  0  0  0  0  0  0  0  0  0  0  # atno 11005 bound_to 11000
  144.7972  140.6144  143.6502 LP  0  0  0  0  0  0  0  0  0  0  0  0  # atno 17320 bound_to 7965
  145.4692  139.1505  143.3823 LP  0  0  0  0  0  0  0  0  0  0  0  0  # atno 17321 bound_to 7965
  139.5194  144.7020  151.5466 LP  0  0  0  0  0  0  0  0  0  0  0  0  # atno 17342 bound_to 10162
  140.6350  143.9001  150.6639 LP  0  0  0  0  0  0  0  0  0  0  0  0  # atno 17343 bound_to 10162
  157.0778  131.0135  151.3167 LP  0  0  0  0  0  0  0  0  0  0  0  0  # atno 17370 bound_to 10713
  157.4951  130.7845  149.7547 LP  0  0  0  0  0  0  0  0  0  0  0  0  # atno 17371 bound_to 10713
  139.8844  134.8966  156.2705 LP  0  0  0  0  0  0  0  0  0  0  0  0  # atno 17394 bound_to 11000
  140.9989  133.7163  156.0929 LP  0  0  0  0  0  0  0  0  0  0  0  0  # atno 17395 bound_to 11000

$$$$
