AV-unprocessed.smi:526|AV-procd|sdf|2813|dock7
  -GOLD-   2262023293D 1   1.00000     0.00000
 Structure written by MMmdl.
 30 30  0  0  0  0  0  0  0  0  2 V2000
  152.8573  142.7670  159.7084 C   0  0  0  0  0  0  0  0  0  0  0  0
  151.9870  143.2362  158.7992 C   0  0  0  0  0  0  0  0  0  0  0  0
  152.0864  144.6445  158.2443 C   0  0  0  0  0  0  0  0  0  0  0  0
  150.8451  142.3912  158.2655 C   0  0  0  0  0  0  0  0  0  0  0  0
  150.8522  142.2816  156.4500 S   0  0  0  0  0  0  0  0  0  0  0  0
  150.5550  140.5455  156.1517 C   0  0  0  0  0  0  0  0  0  0  0  0
  150.2520  139.8310  157.2351 N   0  0  0  0  0  0  0  0  0  0  0  0
  150.0195  138.5129  157.0485 C   0  0  0  0  0  0  0  0  0  0  0  0
  149.6808  137.7190  158.2972 C   0  0  0  0  0  0  0  0  0  0  0  0
  150.0880  137.9193  155.7620 C   0  0  0  0  0  0  0  0  0  0  0  0
  149.8309  136.4307  155.5390 C   0  0  0  0  0  0  0  0  0  0  0  0
  150.8065  135.6207  156.3996 C   0  0  0  0  0  0  0  0  0  0  0  0
  150.3123  134.9458  157.3290 O   0  0  0  0  0  0  0  0  0  0  0  0
  152.0234  135.6801  156.1153 O   0  5  0  0  0  0  0  0  0  0  0  0
  150.4197  138.7873  154.6915 C   0  0  0  0  0  0  0  0  0  0  0  0
  150.5130  138.3179  153.4134 O   0  0  0  0  0  0  0  0  0  0  0  0
  150.6500  140.1020  154.8965 N   0  0  0  0  0  0  0  0  0  0  0  0
  150.2097  138.9434  152.7740 H   0  0  0  0  0  0  0  0  0  0  0  0
  153.6655  143.3801  160.0792 H   0  0  0  0  0  0  0  0  0  0  0  0
  152.7746  141.7624  160.0970 H   0  0  0  0  0  0  0  0  0  0  0  0
  151.1895  145.2161  158.4836 H   0  0  0  0  0  0  0  0  0  0  0  0
  152.1966  144.6165  157.1599 H   0  0  0  0  0  0  0  0  0  0  0  0
  152.9445  145.1753  158.6582 H   0  0  0  0  0  0  0  0  0  0  0  0
  150.9155  141.3917  158.6956 H   0  0  0  0  0  0  0  0  0  0  0  0
  149.8924  142.8149  158.5862 H   0  0  0  0  0  0  0  0  0  0  0  0
  148.6654  137.3276  158.2352 H   0  0  0  0  0  0  0  0  0  0  0  0
  149.7484  138.3384  159.1924 H   0  0  0  0  0  0  0  0  0  0  0  0
  150.3688  136.8823  158.4184 H   0  0  0  0  0  0  0  0  0  0  0  0
  149.9653  136.1622  154.4912 H   0  0  0  0  0  0  0  0  0  0  0  0
  148.8003  136.1785  155.7899 H   0  0  0  0  0  0  0  0  0  0  0  0
  1  2  2  0  0  0  0
  1 19  1  0  0  0  0
  1 20  1  0  0  0  0
  2  3  1  0  0  0  0
  2  4  1  0  0  0  0
  3 21  1  0  0  0  0
  3 22  1  0  0  0  0
  3 23  1  0  0  0  0
  4 24  1  0  0  0  0
  4 25  1  0  0  0  0
  4  5  1  0  0  0  0
  5  6  1  0  0  0  0
  6 17  1  0  0  0  0
  6  7  2  0  0  0  0
  7  8  1  0  0  0  0
  8 10  2  0  0  0  0
  8  9  1  0  0  0  0
  9 26  1  0  0  0  0
  9 27  1  0  0  0  0
  9 28  1  0  0  0  0
 10 15  1  0  0  0  0
 10 11  1  0  0  0  0
 11 12  1  0  0  0  0
 11 29  1  0  0  0  0
 11 30  1  0  0  0  0
 12 13  2  0  0  0  0
 12 14  1  0  0  0  0
 15 17  2  0  0  0  0
 15 16  1  0  0  0  0
 16 18  1  0  0  0  0
M  CHG  1  14  -1
M  END
> <s_m_source_file>
AV-unprocessed.smi

> <i_m_source_file_index>
526

> <i_lp_mmshare_version>
43012

> <i_f3d_flags>
0

> <s_epik_input>
W0NIMl09QyhbQ0gzXSlbQ0gyXVNjMW5jKFtDSDNdKWMoYyg9TylbbkhdMSlbQ0gyXUMoPU8pW09IXQ==

> <s_epik_cmdline>
J2VwaWtfcHl0aG9uJywgJy1waCcsICc3LjAnLCAnLXRuJywgJzgnLCAnLW1hJywgJzIwMCcsICctbWV0YWxfYmluZGluZycsICctaW1hZScsICc8aW5maWxlLm1hZT4nLCAnLW9tYWUnLCAnPG91dGZpbGUubWFlPic=

> <r_lp_tautomer_probability>
0.0660145

> <r_epik_Ionization_Penalty>
2.37967

> <r_epik_Ionization_Penalty_Charging>
0.000421182

> <r_epik_Ionization_Penalty_Neutral>
2.37925

> <r_epik_State_Penalty>
1.68674

> <r_epik_Charging_Adjusted_Penalty>
1.68716

> <i_epik_Tot_Q>
-1

> <i_epik_Tot_abs_Q>
1

> <r_epik_Metal_State_Penalty>
1.80034

> <b_epik_Metal_Only>
0

> <s_lp_Force_Field>
OPLS_2005

> <r_lp_Energy>
-7.53164

> <b_lp_Chiralities_Consistent>
1

> <s_lp_Variant>
AV-unprocessed.smi:526-3

> <Gold.Version>
5.8.1

> <Gold.Id.Protein>
6NUR|6NUR_protein|mol2

> <Gold.PLP.Fitness>
46.2245

> <Gold.PLP.PLP>
-31.5064

> <Gold.PLP.part.hbond>
-5.5960

> <Gold.PLP.part.metal>
0.0000

> <Gold.PLP.part.buried>
-4.6136

> <Gold.PLP.part.nonpolar>
-22.3140

> <Gold.PLP.part.repulsive>
0.0607

> <Gold.PLP.ligand.clash>
0.0000

> <Gold.PLP.ligand.torsion>
0.4484

> <Gold.PLP.Chemscore.Hbond>
5.1964

> <Gold.PLP.Chemscore.CHOScore>
0.0000

> <Gold.PLP.Chemscore.Metal>
0.0000

> <Gold.Chemscore.Hbonds>
donor molecule, donor type, donor heavy atom, donor atom, acceptor molecule, acceptor atom, score
      L1  H    16    18       P1  7957  1.00
      P1  H  6896  6909       L1    13  0.73
      P1  H  7989  7998       L1    17  1.00
      P1  H 10752 10765       L1    14  2.00

> <Gold.PLP.Chemscore.Internal.Correction>
0.0259

> <Gold.Rescore>
     Score         DG    S(hbond)    S(metal)    S(lipo)     H(rot)  DE(clash)    DE(int)     intcor
     16.60     -17.09       3.31        0.00      68.65       2.92       0.13       0.37       ----

> <Gold.Chemscore.Fitness>
16.5964

> <Gold.Chemscore.DG>
-17.0922

> <Gold.Chemscore.ZeroCoef>
-5.4800

> <Gold.Chemscore.Hbond>
3.3091

> <Gold.Chemscore.Metal>
0.0000

> <Gold.Chemscore.Lipo>
68.6490

> <Gold.Chemscore.Internal_Hbond>
0.0000

> <Gold.Chemscore.DEClash>
0.1255

> <Gold.Chemscore.DEInternal>
0.3703

> <Gold.Chemscore.Rot>
2.9187

> <Gold.Chemscore.Internal.Correction>
   9.000000E+99

> <Gold.Chemscore.Hbonds>
donor molecule, donor type, donor heavy atom, donor atom, acceptor molecule, acceptor atom, score
      L1  H    16    18       P1  7957  0.52
      P1  H  6896  6909       L1    13  0.36
      P1  H  7989  7998       L1    17  0.82
      P1  H 10752 10765       L1    14  0.95

> <Gold.Chemscore.Hbond.Weighted>
-11.0523

> <Gold.Chemscore.Metal.Weighted>
-0.0000

> <Gold.Chemscore.Lipo.Weighted>
-8.0319

> <Gold.Chemscore.Internal_Hbond.Weighted>
0.0000

> <Gold.Chemscore.DEClash.Weighted>
0.1255

> <Gold.Chemscore.DEInternal.Weighted>
0.3703

> <Gold.Chemscore.Rot.Weighted>
7.4720

> <Gold.Chemscore.Internal.Correction.Weighted>
   9.000000E+99

> <Gold.Protein.RotatedTorsions>
[ 6907 6896 6895 6894 ] final   29.17 input  -60.11 | X-H torsion
[ 7974 7965 7964 7962 ] final  -15.24 input  175.53 | X-H torsion
[ 8008 7997 7996 7995 ] final  -79.26 input   59.86 | X-H torsion
[ 10167 10162 10161 10158 ] final -169.89 input  -65.29 | X-H torsion
[ 10718 10713 10712 10709 ] final -100.45 input   66.30 | X-H torsion
[ 10763 10752 10751 10750 ] final -149.30 input  -60.55 | X-H torsion
[ 11005 11000 10999 10996 ] final  -84.75 input  -57.11 | X-H torsion

> <Gold.Protein.ActiveResidues>
 VAL166  LYS551  ARG553  GLY616  TRP617  ASP618  TYR619  PRO620  LYS621  CYS622 
 ASP623  PHE694  ASN695  SER759  ASP760  ASP761  ALA762  ILE779  LEU786  VAL792 
 PHE793  MET794  SER795  GLU796  ALA797  LYS798  CYS799  TRP800  GLU811  SER814 

> <Gold.Protein.RotatedAtoms>
  152.0277  134.9786  160.0571 H   0  0  0  0  0  0  0  0  0  0  0  0  # atno 6907 bound_to 6896
  152.1275  133.4384  159.4713 H   0  0  0  0  0  0  0  0  0  0  0  0  # atno 6908 bound_to 6896
  150.6853  134.2379  159.4504 H   0  0  0  0  0  0  0  0  0  0  0  0  # atno 6909 bound_to 6896
  146.2040  140.3464  142.8413 H   0  0  0  0  0  0  0  0  0  0  0  0  # atno 7974 bound_to 7965
  154.5768  140.0681  156.9046 H   0  0  0  0  0  0  0  0  0  0  0  0  # atno 8008 bound_to 7997
  155.2534  140.3353  155.4262 H   0  0  0  0  0  0  0  0  0  0  0  0  # atno 8009 bound_to 7997
  156.2160  140.1778  156.7573 H   0  0  0  0  0  0  0  0  0  0  0  0  # atno 8010 bound_to 7997
  139.5895  144.1244  152.1617 H   0  0  0  0  0  0  0  0  0  0  0  0  # atno 10167 bound_to 10162
  156.0163  130.5328  150.6819 H   0  0  0  0  0  0  0  0  0  0  0  0  # atno 10718 bound_to 10713
  154.8185  135.3312  154.7107 H   0  0  0  0  0  0  0  0  0  0  0  0  # atno 10763 bound_to 10752
  153.7744  135.6923  153.4904 H   0  0  0  0  0  0  0  0  0  0  0  0  # atno 10764 bound_to 10752
  153.2022  135.4512  155.0229 H   0  0  0  0  0  0  0  0  0  0  0  0  # atno 10765 bound_to 10752
  141.1648  133.7362  156.8914 H   0  0  0  0  0  0  0  0  0  0  0  0  # atno 11005 bound_to 11000
  144.8749  140.7323  143.6023 LP  0  0  0  0  0  0  0  0  0  0  0  0  # atno 17320 bound_to 7965
  145.3384  139.1739  143.4499 LP  0  0  0  0  0  0  0  0  0  0  0  0  # atno 17321 bound_to 7965
  140.0815  144.5696  150.7119 LP  0  0  0  0  0  0  0  0  0  0  0  0  # atno 17342 bound_to 10162
  140.7161  143.2546  151.4430 LP  0  0  0  0  0  0  0  0  0  0  0  0  # atno 17343 bound_to 10162
  157.4520  131.0873  151.0836 LP  0  0  0  0  0  0  0  0  0  0  0  0  # atno 17370 bound_to 10713
  157.1349  130.6118  149.5539 LP  0  0  0  0  0  0  0  0  0  0  0  0  # atno 17371 bound_to 10713
  140.1646  134.9142  157.2757 LP  0  0  0  0  0  0  0  0  0  0  0  0  # atno 17394 bound_to 11000
  140.2572  134.3614  155.7420 LP  0  0  0  0  0  0  0  0  0  0  0  0  # atno 17395 bound_to 11000

$$$$
