AV-unprocessed.smi:79|AV-procd|sdf|780|dock6
  -GOLD-   2262017143D 1   1.00000     0.00000
 Structure written by MMmdl.
 56 59  0  0  0  0  0  0  0  0  2 V2000
  147.8709  133.3382  152.8958 C   0  0  0  0  0  0  0  0  0  0  0  0
  148.0863  133.3985  154.4152 C   0  0  1  0  0  0  0  0  0  0  0  0
  148.0177  132.0825  154.9223 O   0  0  0  0  0  0  0  0  0  0  0  0
  149.4495  134.0014  154.8095 C   0  0  0  0  0  0  0  0  0  0  0  0
  149.5329  135.4612  154.5482 N   0  3  1  0  0  0  0  0  0  0  0  0
  148.5289  136.2562  155.3070 C   0  0  0  0  0  0  0  0  0  0  0  0
  148.6221  137.7543  154.9604 C   0  0  0  0  0  0  0  0  0  0  0  0
  149.9795  138.2505  155.1603 N   0  0  0  0  0  0  0  0  0  0  0  0
  150.2092  138.6536  156.4364 C   0  0  0  0  0  0  0  0  0  0  0  0
  150.2448  137.7535  157.4539 N   0  0  0  0  0  0  0  0  0  0  0  0
  150.4478  138.1641  158.7093 C   0  0  0  0  0  0  0  0  0  0  0  0
  150.6289  139.4064  159.1611 N   0  0  0  0  0  0  0  0  0  0  0  0
  150.5856  140.3147  158.1445 C   0  0  0  0  0  0  0  0  0  0  0  0
  150.3763  140.0254  156.7674 C   0  0  0  0  0  0  0  0  0  0  0  0
  150.3855  141.2002  156.0271 N   0  0  0  0  0  0  0  0  0  0  0  0
  150.5957  142.1327  156.9162 C   0  0  0  0  0  0  0  0  0  0  0  0
  150.7404  141.6888  158.2120 N   0  0  0  0  0  0  0  0  0  0  0  0
  150.9840  142.5019  159.3936 C   0  0  0  0  0  0  0  0  0  0  0  0
  152.2345  143.4050  159.3151 C   0  0  0  0  0  0  0  0  0  0  0  0
  153.5089  142.5946  159.6171 C   0  0  0  0  0  0  0  0  0  0  0  0
  153.4068  141.8694  160.8266 O   0  0  0  0  0  0  0  0  0  0  0  0
  152.3093  144.3701  158.1214 C   0  0  0  0  0  0  0  0  0  0  0  0
  151.8860  145.4929  158.9225 O   0  0  0  0  0  0  0  0  0  0  0  0
  152.0931  144.7086  160.1156 C   0  0  0  0  0  0  0  0  0  0  0  0
  150.9892  137.4939  154.4106 C   0  0  1  0  0  0  0  0  0  0  0  0
  152.4133  138.0729  154.5152 C   0  0  0  0  0  0  0  0  0  0  0  0
  150.9145  135.9828  154.7223 C   0  0  0  0  0  0  0  0  0  0  0  0
  147.8742  134.3354  152.4558 H   0  0  0  0  0  0  0  0  0  0  0  0
  146.9116  132.8793  152.6538 H   0  0  0  0  0  0  0  0  0  0  0  0
  148.6512  132.7550  152.4053 H   0  0  0  0  0  0  0  0  0  0  0  0
  147.2715  133.9560  154.8759 H   0  0  0  0  0  0  0  0  0  0  0  0
  147.1503  131.7400  154.7679 H   0  0  0  0  0  0  0  0  0  0  0  0
  149.6627  133.8156  155.8638 H   0  0  0  0  0  0  0  0  0  0  0  0
  150.2291  133.4849  154.2471 H   0  0  0  0  0  0  0  0  0  0  0  0
  147.5210  135.9069  155.0880 H   0  0  0  0  0  0  0  0  0  0  0  0
  148.6859  136.1109  156.3770 H   0  0  0  0  0  0  0  0  0  0  0  0
  148.3467  137.9121  153.9172 H   0  0  0  0  0  0  0  0  0  0  0  0
  147.9038  138.3220  155.5539 H   0  0  0  0  0  0  0  0  0  0  0  0
  150.4678  137.3863  159.4585 H   0  0  0  0  0  0  0  0  0  0  0  0
  150.6501  143.1768  156.6461 H   0  0  0  0  0  0  0  0  0  0  0  0
  150.0920  143.1065  159.5628 H   0  0  0  0  0  0  0  0  0  0  0  0
  151.0523  141.8384  160.2564 H   0  0  0  0  0  0  0  0  0  0  0  0
  153.7043  141.8693  158.8267 H   0  0  0  0  0  0  0  0  0  0  0  0
  154.3861  143.2405  159.6618 H   0  0  0  0  0  0  0  0  0  0  0  0
  154.1818  142.0350  161.3416 H   0  0  0  0  0  0  0  0  0  0  0  0
  153.3171  144.5134  157.7287 H   0  0  0  0  0  0  0  0  0  0  0  0
  151.6096  144.1483  157.3165 H   0  0  0  0  0  0  0  0  0  0  0  0
  151.2308  144.7299  160.7831 H   0  0  0  0  0  0  0  0  0  0  0  0
  152.9969  145.0132  160.6456 H   0  0  0  0  0  0  0  0  0  0  0  0
  150.7041  137.6098  153.3640 H   0  0  0  0  0  0  0  0  0  0  0  0
  153.0824  137.5743  153.8137 H   0  0  0  0  0  0  0  0  0  0  0  0
  152.8439  137.9515  155.5084 H   0  0  0  0  0  0  0  0  0  0  0  0
  152.4218  139.1365  154.2741 H   0  0  0  0  0  0  0  0  0  0  0  0
  151.2553  135.7735  155.7367 H   0  0  0  0  0  0  0  0  0  0  0  0
  151.5873  135.4451  154.0530 H   0  0  0  0  0  0  0  0  0  0  0  0
  149.3173  135.5870  153.5697 H   0  0  0  0  0  0  0  0  0  0  0  0
  1  2  1  0  0  0  0
  1 28  1  0  0  0  0
  1 29  1  0  0  0  0
  1 30  1  0  0  0  0
  2  3  1  0  0  0  0
  2  4  1  0  0  0  0
  2 31  1  0  0  0  0
  3 32  1  0  0  0  0
  4  5  1  0  0  0  0
  4 33  1  0  0  0  0
  4 34  1  0  0  0  0
  5 27  1  0  0  0  0
  5  6  1  0  0  0  0
  5 56  1  0  0  0  0
  6  7  1  0  0  0  0
  6 35  1  0  0  0  0
  6 36  1  0  0  0  0
  7  8  1  0  0  0  0
  7 37  1  0  0  0  0
  7 38  1  0  0  0  0
  8  9  1  0  0  0  0
  8 25  1  0  0  0  0
  9 14  1  0  0  0  0
  9 10  2  0  0  0  0
 10 11  1  0  0  0  0
 11 12  2  0  0  0  0
 11 39  1  0  0  0  0
 12 13  1  0  0  0  0
 13 17  1  0  0  0  0
 13 14  2  0  0  0  0
 14 15  1  0  0  0  0
 15 16  2  0  0  0  0
 16 17  1  0  0  0  0
 16 40  1  0  0  0  0
 17 18  1  0  0  0  0
 18 19  1  0  0  0  0
 18 41  1  0  0  0  0
 18 42  1  0  0  0  0
 19 24  1  0  0  0  0
 19 20  1  0  0  0  0
 19 22  1  0  0  0  0
 20 21  1  0  0  0  0
 20 43  1  0  0  0  0
 20 44  1  0  0  0  0
 21 45  1  0  0  0  0
 22 23  1  0  0  0  0
 22 46  1  0  0  0  0
 22 47  1  0  0  0  0
 23 24  1  0  0  0  0
 24 48  1  0  0  0  0
 24 49  1  0  0  0  0
 25 26  1  0  0  0  0
 25 27  1  0  0  0  0
 25 50  1  0  0  0  0
 26 51  1  0  0  0  0
 26 52  1  0  0  0  0
 26 53  1  0  0  0  0
 27 54  1  0  0  0  0
 27 55  1  0  0  0  0
M  CHG  1   5   1
M  END
> <s_m_source_file>
AV-unprocessed.smi

> <i_m_source_file_index>
79

> <i_lp_mmshare_version>
43012

> <i_f3d_flags>
0

> <s_epik_input>
W0NIM11bQ0BIXShbT0hdKVtDSDJdTjFbQ0gyXVtDSDJdTihbQ0BASF0oW0NIM10pW0NIMl0xKWMobltjSF1uMiljKGMyMyluW2NIXW4zW0NIMl1DNChbQ0gyXVtPSF0pW0NIMl1PW0NIMl00

> <s_epik_cmdline>
J2VwaWtfcHl0aG9uJywgJy1waCcsICc3LjAnLCAnLXRuJywgJzgnLCAnLW1hJywgJzIwMCcsICctbWV0YWxfYmluZGluZycsICctaW1hZScsICc8aW5maWxlLm1hZT4nLCAnLW9tYWUnLCAnPG91dGZpbGUubWFlPic=

> <r_lp_tautomer_probability>
1

> <r_epik_Ionization_Penalty>
0.00515943

> <r_epik_Ionization_Penalty_Charging>
0.00509693

> <r_epik_Ionization_Penalty_Neutral>
6.25007e-05

> <r_epik_State_Penalty>
-0

> <r_epik_Charging_Adjusted_Penalty>
0.00509693

> <i_epik_Tot_Q>
1

> <i_epik_Tot_abs_Q>
1

> <r_epik_Metal_State_Penalty>
-0

> <b_epik_Metal_Only>
0

> <s_lp_Force_Field>
OPLS_2005

> <r_lp_Energy>
48.5729

> <b_lp_Chiralities_Consistent>
1

> <s_lp_Variant>
AV-unprocessed.smi:79-4

> <Gold.Version>
5.8.1

> <Gold.Id.Protein>
6NUR|6NUR_protein|mol2

> <Gold.PLP.Fitness>
50.5649

> <Gold.PLP.PLP>
-42.0816

> <Gold.PLP.part.hbond>
-2.5684

> <Gold.PLP.part.metal>
0.0000

> <Gold.PLP.part.buried>
-3.1535

> <Gold.PLP.part.nonpolar>
-37.3400

> <Gold.PLP.part.repulsive>
0.3166

> <Gold.PLP.ligand.clash>
0.0000

> <Gold.PLP.ligand.torsion>
0.6742

> <Gold.PLP.Chemscore.Hbond>
2.0000

> <Gold.PLP.Chemscore.CHOScore>
1.0000

> <Gold.PLP.Chemscore.Metal>
0.0000

> <Gold.Chemscore.Hbonds>
donor molecule, donor type, donor heavy atom, donor atom, acceptor molecule, acceptor atom, score
      L1  H     5    56       P1  7948  2.00
      L1  C    16    40       P1  8028  0.99

> <Gold.PLP.Chemscore.Internal.Correction>
0.8318

> <Gold.Rescore>
     Score         DG    S(hbond)    S(metal)    S(lipo)     H(rot)  DE(clash)    DE(int)     intcor
     10.17     -11.01       0.85        0.00     104.38       3.72       0.26       0.58       ----

> <Gold.Chemscore.Fitness>
10.1689

> <Gold.Chemscore.DG>
-11.0121

> <Gold.Chemscore.ZeroCoef>
-5.4800

> <Gold.Chemscore.Hbond>
0.8531

> <Gold.Chemscore.Metal>
0.0000

> <Gold.Chemscore.Lipo>
104.3818

> <Gold.Chemscore.Internal_Hbond>
0.0000

> <Gold.Chemscore.DEClash>
0.2608

> <Gold.Chemscore.DEInternal>
0.5824

> <Gold.Chemscore.Rot>
3.7226

> <Gold.Chemscore.Internal.Correction>
   9.000000E+99

> <Gold.Chemscore.Hbonds>
donor molecule, donor type, donor heavy atom, donor atom, acceptor molecule, acceptor atom, score
      L1  H     5    56       P1  7948  0.40

> <Gold.Chemscore.Hbond.Weighted>
-2.8492

> <Gold.Chemscore.Metal.Weighted>
-0.0000

> <Gold.Chemscore.Lipo.Weighted>
-12.2127

> <Gold.Chemscore.Internal_Hbond.Weighted>
0.0000

> <Gold.Chemscore.DEClash.Weighted>
0.2608

> <Gold.Chemscore.DEInternal.Weighted>
0.5824

> <Gold.Chemscore.Rot.Weighted>
9.5298

> <Gold.Chemscore.Internal.Correction.Weighted>
   9.000000E+99

> <Gold.Protein.RotatedTorsions>
[ 6907 6896 6895 6894 ] final   98.04 input  -60.11 | X-H torsion
[ 7974 7965 7964 7962 ] final   58.62 input  175.53 | X-H torsion
[ 8008 7997 7996 7995 ] final   86.41 input   59.86 | X-H torsion
[ 10167 10162 10161 10158 ] final   40.01 input  -65.29 | X-H torsion
[ 10718 10713 10712 10709 ] final  -22.38 input   66.30 | X-H torsion
[ 10763 10752 10751 10750 ] final  178.31 input  -60.55 | X-H torsion
[ 11005 11000 10999 10996 ] final  102.98 input  -57.11 | X-H torsion

> <Gold.Protein.ActiveResidues>
 VAL166  LYS551  ARG553  GLY616  TRP617  ASP618  TYR619  PRO620  LYS621  CYS622 
 ASP623  PHE694  ASN695  SER759  ASP760  ASP761  ALA762  ILE779  LEU786  VAL792 
 PHE793  MET794  SER795  GLU796  ALA797  LYS798  CYS799  TRP800  GLU811  SER814 

> <Gold.Protein.RotatedAtoms>
  152.5415  134.0641  159.8164 H   0  0  0  0  0  0  0  0  0  0  0  0  # atno 6907 bound_to 6896
  151.0765  133.5417  159.2631 H   0  0  0  0  0  0  0  0  0  0  0  0  # atno 6908 bound_to 6896
  151.2260  135.0545  159.9023 H   0  0  0  0  0  0  0  0  0  0  0  0  # atno 6909 bound_to 6896
  145.9162  139.3692  143.0506 H   0  0  0  0  0  0  0  0  0  0  0  0  # atno 7974 bound_to 7965
  155.9624  140.3392  155.6503 H   0  0  0  0  0  0  0  0  0  0  0  0  # atno 8008 bound_to 7997
  155.6780  140.0734  157.2513 H   0  0  0  0  0  0  0  0  0  0  0  0  # atno 8009 bound_to 7997
  154.4146  140.1679  156.1939 H   0  0  0  0  0  0  0  0  0  0  0  0  # atno 8010 bound_to 7997
  140.3784  144.2013  150.6131 H   0  0  0  0  0  0  0  0  0  0  0  0  # atno 10167 bound_to 10162
  156.5053  130.4597  149.6678 H   0  0  0  0  0  0  0  0  0  0  0  0  # atno 10718 bound_to 10713
  154.5060  135.2786  155.1382 H   0  0  0  0  0  0  0  0  0  0  0  0  # atno 10763 bound_to 10752
  154.2996  135.6250  153.5423 H   0  0  0  0  0  0  0  0  0  0  0  0  # atno 10764 bound_to 10752
  152.9910  135.5693  154.5514 H   0  0  0  0  0  0  0  0  0  0  0  0  # atno 10765 bound_to 10752
  139.8781  134.9245  156.5140 H   0  0  0  0  0  0  0  0  0  0  0  0  # atno 11005 bound_to 11000
  145.8609  140.9476  143.0700 LP  0  0  0  0  0  0  0  0  0  0  0  0  # atno 17320 bound_to 7965
  144.6748  140.0529  143.7478 LP  0  0  0  0  0  0  0  0  0  0  0  0  # atno 17321 bound_to 7965
  140.4963  143.2331  151.8745 LP  0  0  0  0  0  0  0  0  0  0  0  0  # atno 17342 bound_to 10162
  139.4797  144.5110  151.8932 LP  0  0  0  0  0  0  0  0  0  0  0  0  # atno 17343 bound_to 10162
  156.3292  130.7322  151.2249 LP  0  0  0  0  0  0  0  0  0  0  0  0  # atno 17370 bound_to 10713
  157.7457  131.0434  150.4743 LP  0  0  0  0  0  0  0  0  0  0  0  0  # atno 17371 bound_to 10713
  140.8499  133.8140  155.9158 LP  0  0  0  0  0  0  0  0  0  0  0  0  # atno 17394 bound_to 11000
  140.9154  134.2208  157.4960 LP  0  0  0  0  0  0  0  0  0  0  0  0  # atno 17395 bound_to 11000

$$$$
