AV-unprocessed.smi:1360|AV-procd|sdf|5553|dock3
  -GOLD-   22720 5143D 1   1.00000     0.00000
 Structure written by MMmdl.
 36 37  0  0  0  0  0  0  0  0  1 V2000
  147.9944  139.8858  156.5192 C   0  0  0  0  0  0  0  0  0  0  0  0
  148.4335  141.0242  155.5835 C   0  0  2  0  0  0  0  0  0  0  0  0
  149.0564  140.5209  154.2624 C   0  0  0  0  0  0  0  0  0  0  0  0
  150.1620  139.6028  154.4694 N   0  0  0  0  0  0  0  0  0  0  0  0
  150.1891  138.2369  154.2809 C   0  0  0  0  0  0  0  0  0  0  0  0
  151.4432  137.8066  154.6073 C   0  0  0  0  0  0  0  0  0  0  0  0
  152.1186  138.9976  154.9952 C   0  0  0  0  0  0  0  0  0  0  0  0
  151.3486  140.0704  154.9137 N   0  0  0  0  0  0  0  0  0  0  0  0
  149.3796  141.8839  156.2890 N   0  0  0  0  0  0  0  0  0  0  0  0
  150.3764  141.4596  157.0818 C   0  0  0  0  0  0  0  0  0  0  0  0
  150.5973  140.2698  157.3101 O   0  0  0  0  0  0  0  0  0  0  0  0
  151.2602  142.5449  157.7115 C   0  0  1  0  0  0  0  0  0  0  0  0
  150.4074  143.6308  158.4082 C   0  0  0  0  0  0  0  0  0  0  0  0
  151.2512  144.5666  159.2561 C   0  0  0  0  0  0  0  0  0  0  0  0
  152.5123  144.2906  159.6303 C   0  0  0  0  0  0  0  0  0  0  0  0
  153.2347  143.0100  159.2508 C   0  0  0  0  0  0  0  0  0  0  0  0
  152.2737  141.9381  158.7022 C   0  0  0  0  0  0  0  0  0  0  0  0
  147.2146  139.2733  156.0661 H   0  0  0  0  0  0  0  0  0  0  0  0
  147.5907  140.2797  157.4525 H   0  0  0  0  0  0  0  0  0  0  0  0
  148.8305  139.2314  156.7672 H   0  0  0  0  0  0  0  0  0  0  0  0
  147.5425  141.6093  155.3471 H   0  0  0  0  0  0  0  0  0  0  0  0
  148.3050  140.0165  153.6530 H   0  0  0  0  0  0  0  0  0  0  0  0
  149.4187  141.3642  153.6729 H   0  0  0  0  0  0  0  0  0  0  0  0
  149.3248  137.6916  153.9306 H   0  0  0  0  0  0  0  0  0  0  0  0
  151.8203  136.7953  154.5753 H   0  0  0  0  0  0  0  0  0  0  0  0
  153.1382  139.1135  155.3318 H   0  0  0  0  0  0  0  0  0  0  0  0
  149.2716  142.8794  156.1600 H   0  0  0  0  0  0  0  0  0  0  0  0
  151.8291  143.0257  156.9130 H   0  0  0  0  0  0  0  0  0  0  0  0
  149.8798  144.2221  157.6590 H   0  0  0  0  0  0  0  0  0  0  0  0
  149.6484  143.1879  159.0545 H   0  0  0  0  0  0  0  0  0  0  0  0
  150.7870  145.4893  159.5724 H   0  0  0  0  0  0  0  0  0  0  0  0
  153.0651  145.0045  160.2231 H   0  0  0  0  0  0  0  0  0  0  0  0
  153.9887  143.2581  158.5034 H   0  0  0  0  0  0  0  0  0  0  0  0
  153.7653  142.6231  160.1211 H   0  0  0  0  0  0  0  0  0  0  0  0
  151.7381  141.4791  159.5349 H   0  0  0  0  0  0  0  0  0  0  0  0
  152.8477  141.1401  158.2292 H   0  0  0  0  0  0  0  0  0  0  0  0
  1  2  1  0  0  0  0
  1 18  1  0  0  0  0
  1 19  1  0  0  0  0
  1 20  1  0  0  0  0
  2  3  1  0  0  0  0
  2  9  1  0  0  0  0
  2 21  1  0  0  0  0
  3  4  1  0  0  0  0
  3 22  1  0  0  0  0
  3 23  1  0  0  0  0
  4  8  1  0  0  0  0
  4  5  1  0  0  0  0
  5  6  2  0  0  0  0
  5 24  1  0  0  0  0
  6  7  1  0  0  0  0
  6 25  1  0  0  0  0
  7  8  2  0  0  0  0
  7 26  1  0  0  0  0
  9 10  1  0  0  0  0
  9 27  1  0  0  0  0
 10 11  2  0  0  0  0
 10 12  1  0  0  0  0
 12 17  1  0  0  0  0
 12 13  1  0  0  0  0
 12 28  1  0  0  0  0
 13 14  1  0  0  0  0
 13 29  1  0  0  0  0
 13 30  1  0  0  0  0
 14 15  2  0  0  0  0
 14 31  1  0  0  0  0
 15 16  1  0  0  0  0
 15 32  1  0  0  0  0
 16 17  1  0  0  0  0
 16 33  1  0  0  0  0
 16 34  1  0  0  0  0
 17 35  1  0  0  0  0
 17 36  1  0  0  0  0
M  END
> <s_m_source_file>
AV-unprocessed.smi

> <i_m_source_file_index>
1360

> <i_lp_mmshare_version>
43012

> <i_f3d_flags>
0

> <s_epik_input>
bjFbY0hdW2NIXVtjSF1uMVtDSDJdW0NAQEhdKFtDSDNdKVtOSF1DKD1PKVtDQEBIXTJbQ0gyXVtDSF09W0NIXVtDSDJdW0NIMl0y

> <s_epik_cmdline>
J2VwaWtfcHl0aG9uJywgJy1waCcsICc3LjAnLCAnLXRuJywgJzgnLCAnLW1hJywgJzIwMCcsICctbWV0YWxfYmluZGluZycsICctaW1hZScsICc8aW5maWxlLm1hZT4nLCAnLW9tYWUnLCAnPG91dGZpbGUubWFlPic=

> <r_lp_tautomer_probability>
1

> <r_epik_Ionization_Penalty>
0.000315076

> <r_epik_Ionization_Penalty_Charging>
0

> <r_epik_Ionization_Penalty_Neutral>
0.000315076

> <r_epik_State_Penalty>
-0

> <r_epik_Charging_Adjusted_Penalty>
0

> <i_epik_Tot_Q>
0

> <i_epik_Tot_abs_Q>
0

> <r_epik_Metal_State_Penalty>
-0

> <b_epik_Metal_Only>
0

> <s_lp_Force_Field>
OPLS_2005

> <r_lp_Energy>
8.32294

> <b_lp_Chiralities_Consistent>
1

> <s_lp_Variant>
AV-unprocessed.smi:1360-3

> <Gold.Version>
5.8.1

> <Gold.Id.Protein>
6NUR|6NUR_protein|mol2

> <Gold.PLP.Fitness>
44.3927

> <Gold.PLP.PLP>
-37.6949

> <Gold.PLP.part.hbond>
-2.0000

> <Gold.PLP.part.metal>
0.0000

> <Gold.PLP.part.buried>
-4.3021

> <Gold.PLP.part.nonpolar>
-32.8868

> <Gold.PLP.part.repulsive>
0.1129

> <Gold.PLP.ligand.clash>
0.0941

> <Gold.PLP.ligand.torsion>
0.5744

> <Gold.PLP.Chemscore.Hbond>
1.6500

> <Gold.PLP.Chemscore.CHOScore>
0.9796

> <Gold.PLP.Chemscore.Metal>
0.0000

> <Gold.Chemscore.Hbonds>
donor molecule, donor type, donor heavy atom, donor atom, acceptor molecule, acceptor atom, score
      L1  H     9    27       P1  8028  1.00
      P1  H  7989  7998       L1     8  0.65
      L1  C     5    24       P1  7948  0.99

> <Gold.PLP.Chemscore.Internal.Correction>
0.0520

> <Gold.Rescore>
     Score         DG    S(hbond)    S(metal)    S(lipo)     H(rot)  DE(clash)    DE(int)     intcor
     17.23     -19.58       1.90        0.00      99.20       1.51       0.00       2.35       ----

> <Gold.Chemscore.Fitness>
17.2320

> <Gold.Chemscore.DG>
-19.5838

> <Gold.Chemscore.ZeroCoef>
-5.4800

> <Gold.Chemscore.Hbond>
1.9018

> <Gold.Chemscore.Metal>
0.0000

> <Gold.Chemscore.Lipo>
99.2012

> <Gold.Chemscore.Internal_Hbond>
0.0000

> <Gold.Chemscore.DEClash>
0.0000

> <Gold.Chemscore.DEInternal>
2.3518

> <Gold.Chemscore.Rot>
1.5057

> <Gold.Chemscore.Internal.Correction>
   9.000000E+99

> <Gold.Chemscore.Hbonds>
donor molecule, donor type, donor heavy atom, donor atom, acceptor molecule, acceptor atom, score
      L1  H     9    27       P1  8028  0.99
      P1  H  7989  7998       L1     8  0.04

> <Gold.Chemscore.Hbond.Weighted>
-6.3519

> <Gold.Chemscore.Metal.Weighted>
-0.0000

> <Gold.Chemscore.Lipo.Weighted>
-11.6065

> <Gold.Chemscore.Internal_Hbond.Weighted>
0.0000

> <Gold.Chemscore.DEClash.Weighted>
0.0000

> <Gold.Chemscore.DEInternal.Weighted>
2.3518

> <Gold.Chemscore.Rot.Weighted>
3.8546

> <Gold.Chemscore.Internal.Correction.Weighted>
   9.000000E+99

> <Gold.Protein.RotatedTorsions>
[ 6907 6896 6895 6894 ] final  169.13 input  -60.11 | X-H torsion
[ 7974 7965 7964 7962 ] final  146.91 input  175.53 | X-H torsion
[ 8008 7997 7996 7995 ] final  134.56 input   59.86 | X-H torsion
[ 10167 10162 10161 10158 ] final  138.80 input  -65.29 | X-H torsion
[ 10718 10713 10712 10709 ] final -171.36 input   66.30 | X-H torsion
[ 10763 10752 10751 10750 ] final   63.52 input  -60.55 | X-H torsion
[ 11005 11000 10999 10996 ] final  -52.91 input  -57.11 | X-H torsion

> <Gold.Protein.ActiveResidues>
 VAL166  LYS551  ARG553  GLY616  TRP617  ASP618  TYR619  PRO620  LYS621  CYS622 
 ASP623  PHE694  ASN695  SER759  ASP760  ASP761  ALA762  ILE779  LEU786  VAL792 
 PHE793  MET794  SER795  GLU796  ALA797  LYS798  CYS799  TRP800  GLU811  SER814 

> <Gold.Protein.RotatedAtoms>
  151.8367  133.3417  159.3630 H   0  0  0  0  0  0  0  0  0  0  0  0  # atno 6907 bound_to 6896
  150.7247  134.5431  159.5766 H   0  0  0  0  0  0  0  0  0  0  0  0  # atno 6908 bound_to 6896
  152.2895  134.7738  160.0431 H   0  0  0  0  0  0  0  0  0  0  0  0  # atno 6909 bound_to 6896
  144.8634  139.5963  143.5920 H   0  0  0  0  0  0  0  0  0  0  0  0  # atno 7974 bound_to 7965
  156.2999  140.2493  156.3437 H   0  0  0  0  0  0  0  0  0  0  0  0  # atno 8008 bound_to 7997
  154.9031  140.0405  157.1923 H   0  0  0  0  0  0  0  0  0  0  0  0  # atno 8009 bound_to 7997
  154.8480  140.2901  155.5620 H   0  0  0  0  0  0  0  0  0  0  0  0  # atno 8010 bound_to 7997
  139.5099  144.6332  151.5764 H   0  0  0  0  0  0  0  0  0  0  0  0  # atno 10167 bound_to 10162
  156.7397  130.9337  151.3109 H   0  0  0  0  0  0  0  0  0  0  0  0  # atno 10718 bound_to 10713
  153.0021  135.5426  154.6365 H   0  0  0  0  0  0  0  0  0  0  0  0  # atno 10763 bound_to 10752
  154.5630  135.2835  155.0903 H   0  0  0  0  0  0  0  0  0  0  0  0  # atno 10764 bound_to 10752
  154.2098  135.6469  153.5164 H   0  0  0  0  0  0  0  0  0  0  0  0  # atno 10765 bound_to 10752
  141.0949  133.6626  156.4094 H   0  0  0  0  0  0  0  0  0  0  0  0  # atno 11005 bound_to 11000
  146.2877  139.7051  142.9183 LP  0  0  0  0  0  0  0  0  0  0  0  0  # atno 17320 bound_to 7965
  145.4269  141.0411  143.2932 LP  0  0  0  0  0  0  0  0  0  0  0  0  # atno 17321 bound_to 7965
  140.6072  143.9503  150.6427 LP  0  0  0  0  0  0  0  0  0  0  0  0  # atno 17342 bound_to 10162
  140.2734  143.3440  152.1217 LP  0  0  0  0  0  0  0  0  0  0  0  0  # atno 17343 bound_to 10162
  157.6824  130.9152  150.0300 LP  0  0  0  0  0  0  0  0  0  0  0  0  # atno 17370 bound_to 10713
  156.1473  130.3642  149.9491 LP  0  0  0  0  0  0  0  0  0  0  0  0  # atno 17371 bound_to 10713
  140.5164  134.6346  157.5303 LP  0  0  0  0  0  0  0  0  0  0  0  0  # atno 17394 bound_to 11000
  139.9783  134.7179  155.9907 LP  0  0  0  0  0  0  0  0  0  0  0  0  # atno 17395 bound_to 11000

$$$$
