AV-unprocessed.smi:2630|AV-procd|sdf|10246|dock8
  -GOLD-   2272014253D 1   1.00000     0.00000
 Structure written by MMmdl.
 35 36  0  0  0  0  0  0  0  0  1 V2000
  147.4566  135.5231  162.1517 C   0  0  0  0  0  0  0  0  0  0  0  0
  147.8094  136.3493  161.0569 O   0  0  0  0  0  0  0  0  0  0  0  0
  148.6573  135.6915  160.1295 C   0  0  0  0  0  0  0  0  0  0  0  0
  147.9594  135.6104  158.7615 C   0  0  0  0  0  0  0  0  0  0  0  0
  148.8622  135.8369  157.6502 N   0  0  0  0  0  0  0  0  0  0  0  0
  148.9967  137.0643  156.9959 C   0  0  0  0  0  0  0  0  0  0  0  0
  148.2425  138.1435  157.4245 N   0  0  0  0  0  0  0  0  0  0  0  0
  149.8391  137.2047  155.9396 C   0  0  0  0  0  0  0  0  0  0  0  0
  150.0794  138.6987  155.0075 S   0  0  0  0  0  0  0  0  0  0  0  0
  150.5895  139.8108  156.2773 C   0  0  0  0  0  0  0  0  0  0  0  0
  150.0354  141.1050  156.3437 C   0  0  0  0  0  0  0  0  0  0  0  0
  150.4505  141.9953  157.3530 C   0  0  0  0  0  0  0  0  0  0  0  0
  151.4161  141.5910  158.2958 C   0  0  0  0  0  0  0  0  0  0  0  0
  151.9679  140.2962  158.2294 C   0  0  0  0  0  0  0  0  0  0  0  0
  151.5547  139.4047  157.2201 C   0  0  0  0  0  0  0  0  0  0  0  0
  150.6508  136.0964  155.4320 C   0  0  0  0  0  0  0  0  0  0  0  0
  151.4473  136.1366  154.4945 O   0  0  0  0  0  0  0  0  0  0  0  0
  150.4568  134.8984  156.1192 N   0  0  0  0  0  0  0  0  0  0  0  0
  149.5948  134.7101  157.1984 C   0  0  0  0  0  0  0  0  0  0  0  0
  149.5009  133.5925  157.7071 O   0  0  0  0  0  0  0  0  0  0  0  0
  150.9831  134.0962  155.8046 H   0  0  0  0  0  0  0  0  0  0  0  0
  146.8065  136.0734  162.8318 H   0  0  0  0  0  0  0  0  0  0  0  0
  148.3394  135.2086  162.7099 H   0  0  0  0  0  0  0  0  0  0  0  0
  146.9183  134.6353  161.8168 H   0  0  0  0  0  0  0  0  0  0  0  0
  149.5886  136.2503  160.0296 H   0  0  0  0  0  0  0  0  0  0  0  0
  148.9160  134.6946  160.4896 H   0  0  0  0  0  0  0  0  0  0  0  0
  147.4879  134.6403  158.6096 H   0  0  0  0  0  0  0  0  0  0  0  0
  147.1490  136.3364  158.6787 H   0  0  0  0  0  0  0  0  0  0  0  0
  147.5978  138.0660  158.1980 H   0  0  0  0  0  0  0  0  0  0  0  0
  148.3821  139.0707  157.0494 H   0  0  0  0  0  0  0  0  0  0  0  0
  149.2962  141.4192  155.6215 H   0  0  0  0  0  0  0  0  0  0  0  0
  150.0287  142.9882  157.4036 H   0  0  0  0  0  0  0  0  0  0  0  0
  151.7335  142.2744  159.0696 H   0  0  0  0  0  0  0  0  0  0  0  0
  152.7088  139.9871  158.9520 H   0  0  0  0  0  0  0  0  0  0  0  0
  151.9817  138.4137  157.1686 H   0  0  0  0  0  0  0  0  0  0  0  0
  1  2  1  0  0  0  0
  1 22  1  0  0  0  0
  1 23  1  0  0  0  0
  1 24  1  0  0  0  0
  2  3  1  0  0  0  0
  3  4  1  0  0  0  0
  3 25  1  0  0  0  0
  3 26  1  0  0  0  0
  4  5  1  0  0  0  0
  4 27  1  0  0  0  0
  4 28  1  0  0  0  0
  5 19  1  0  0  0  0
  5  6  1  0  0  0  0
  6  7  1  0  0  0  0
  6  8  2  0  0  0  0
  7 29  1  0  0  0  0
  7 30  1  0  0  0  0
  8  9  1  0  0  0  0
  8 16  1  0  0  0  0
  9 10  1  0  0  0  0
 10 15  1  0  0  0  0
 10 11  2  0  0  0  0
 11 12  1  0  0  0  0
 11 31  1  0  0  0  0
 12 13  2  0  0  0  0
 12 32  1  0  0  0  0
 13 14  1  0  0  0  0
 13 33  1  0  0  0  0
 14 15  2  0  0  0  0
 14 34  1  0  0  0  0
 15 35  1  0  0  0  0
 16 17  2  0  0  0  0
 16 18  1  0  0  0  0
 18 21  1  0  0  0  0
 18 19  1  0  0  0  0
 19 20  2  0  0  0  0
M  END
> <s_m_source_file>
AV-unprocessed.smi

> <i_m_source_file_index>
2630

> <i_lp_mmshare_version>
43012

> <i_f3d_flags>
0

> <s_epik_input>
W0NIM11PW0NIMl1bQ0gyXW4xYyhbTkgyXSljKGMoPU8pW25IXWMxPU8pU2MyW2NIXVtjSF1bY0hdW2NIXVtjSF0y

> <s_epik_cmdline>
J2VwaWtfcHl0aG9uJywgJy1waCcsICc3LjAnLCAnLXRuJywgJzgnLCAnLW1hJywgJzIwMCcsICctbWV0YWxfYmluZGluZycsICctaW1hZScsICc8aW5maWxlLm1hZT4nLCAnLW9tYWUnLCAnPG91dGZpbGUubWFlPic=

> <r_lp_tautomer_probability>
1

> <r_epik_Ionization_Penalty>
1.3786e-05

> <r_epik_Ionization_Penalty_Charging>
1.17844e-05

> <r_epik_Ionization_Penalty_Neutral>
2.00164e-06

> <r_epik_State_Penalty>
-0

> <r_epik_Charging_Adjusted_Penalty>
1.17844e-05

> <i_epik_Tot_Q>
0

> <i_epik_Tot_abs_Q>
0

> <r_epik_Metal_State_Penalty>
0.0115847

> <b_epik_Metal_Only>
0

> <s_epik_Chemistry_Notes>
This compound has an imine and may undergo hydrolysis.

> <s_lp_Force_Field>
OPLS_2005

> <r_lp_Energy>
18.8348

> <b_lp_Chiralities_Consistent>
1

> <s_lp_Variant>
AV-unprocessed.smi:2630-1

> <Gold.Version>
5.8.1

> <Gold.Id.Protein>
6NUR|6NUR_protein|mol2

> <Gold.PLP.Fitness>
37.3819

> <Gold.PLP.PLP>
-28.2466

> <Gold.PLP.part.hbond>
-4.0000

> <Gold.PLP.part.metal>
0.0000

> <Gold.PLP.part.buried>
-4.6462

> <Gold.PLP.part.nonpolar>
-20.9627

> <Gold.PLP.part.repulsive>
0.3412

> <Gold.PLP.ligand.clash>
0.0000

> <Gold.PLP.ligand.torsion>
1.1639

> <Gold.PLP.Chemscore.Hbond>
3.8080

> <Gold.PLP.Chemscore.CHOScore>
0.0000

> <Gold.PLP.Chemscore.Metal>
0.0000

> <Gold.Chemscore.Hbonds>
donor molecule, donor type, donor heavy atom, donor atom, acceptor molecule, acceptor atom, score
      P1  H  6896  6907       L1    20  0.90
      P1  H  6931  6943       L1     2  0.05
      P1  H 10752 10765       L1    17  1.00

> <Gold.PLP.Chemscore.Internal.Correction>
0.0391

> <Gold.Rescore>
     Score         DG    S(hbond)    S(metal)    S(lipo)     H(rot)  DE(clash)    DE(int)     intcor
     15.97     -16.88       2.76        0.00      63.92       2.07       0.07       0.84       ----

> <Gold.Chemscore.Fitness>
15.9673

> <Gold.Chemscore.DG>
-16.8777

> <Gold.Chemscore.ZeroCoef>
-5.4800

> <Gold.Chemscore.Hbond>
2.7583

> <Gold.Chemscore.Metal>
0.0000

> <Gold.Chemscore.Lipo>
63.9229

> <Gold.Chemscore.Internal_Hbond>
0.0000

> <Gold.Chemscore.DEClash>
0.0674

> <Gold.Chemscore.DEInternal>
0.8429

> <Gold.Chemscore.Rot>
2.0680

> <Gold.Chemscore.Internal.Correction>
   9.000000E+99

> <Gold.Chemscore.Hbonds>
donor molecule, donor type, donor heavy atom, donor atom, acceptor molecule, acceptor atom, score
      P1  H  6896  6907       L1    20  0.17
      P1  H  6931  6943       L1     2  0.04
      P1  H 10752 10765       L1    17  0.98

> <Gold.Chemscore.Hbond.Weighted>
-9.2128

> <Gold.Chemscore.Metal.Weighted>
-0.0000

> <Gold.Chemscore.Lipo.Weighted>
-7.4790

> <Gold.Chemscore.Internal_Hbond.Weighted>
0.0000

> <Gold.Chemscore.DEClash.Weighted>
0.0674

> <Gold.Chemscore.DEInternal.Weighted>
0.8429

> <Gold.Chemscore.Rot.Weighted>
5.2941

> <Gold.Chemscore.Internal.Correction.Weighted>
   9.000000E+99

> <Gold.Protein.RotatedTorsions>
[ 6907 6896 6895 6894 ] final -113.07 input  -60.11 | X-H torsion
[ 7974 7965 7964 7962 ] final -124.80 input  175.53 | X-H torsion
[ 8008 7997 7996 7995 ] final  176.47 input   59.86 | X-H torsion
[ 10167 10162 10161 10158 ] final   44.87 input  -65.29 | X-H torsion
[ 10718 10713 10712 10709 ] final  141.06 input   66.30 | X-H torsion
[ 10763 10752 10751 10750 ] final  155.44 input  -60.55 | X-H torsion
[ 11005 11000 10999 10996 ] final -138.04 input  -57.11 | X-H torsion

> <Gold.Protein.ActiveResidues>
 VAL166  LYS551  ARG553  GLY616  TRP617  ASP618  TYR619  PRO620  LYS621  CYS622 
 ASP623  PHE694  ASN695  SER759  ASP760  ASP761  ALA762  ILE779  LEU786  VAL792 
 PHE793  MET794  SER795  GLU796  ALA797  LYS798  CYS799  TRP800  GLU811  SER814 

> <Gold.Protein.RotatedAtoms>
  150.7803  133.8998  159.3337 H   0  0  0  0  0  0  0  0  0  0  0  0  # atno 6907 bound_to 6896
  151.6862  135.0952  160.0235 H   0  0  0  0  0  0  0  0  0  0  0  0  # atno 6908 bound_to 6896
  152.3852  133.6563  159.6228 H   0  0  0  0  0  0  0  0  0  0  0  0  # atno 6909 bound_to 6896
  145.0043  140.7848  143.4477 H   0  0  0  0  0  0  0  0  0  0  0  0  # atno 7974 bound_to 7965
  156.0761  140.1383  156.9770 H   0  0  0  0  0  0  0  0  0  0  0  0  # atno 8008 bound_to 7997
  154.4558  140.0962  156.6804 H   0  0  0  0  0  0  0  0  0  0  0  0  # atno 8009 bound_to 7997
  155.5151  140.3455  155.4398 H   0  0  0  0  0  0  0  0  0  0  0  0  # atno 8010 bound_to 7997
  140.3299  144.2601  150.6169 H   0  0  0  0  0  0  0  0  0  0  0  0  # atno 10167 bound_to 10162
  157.3963  131.1011  151.0596 H   0  0  0  0  0  0  0  0  0  0  0  0  # atno 10718 bound_to 10713
  154.1685  135.2806  155.3088 H   0  0  0  0  0  0  0  0  0  0  0  0  # atno 10763 bound_to 10752
  154.6093  135.5504  153.7460 H   0  0  0  0  0  0  0  0  0  0  0  0  # atno 10764 bound_to 10752
  153.0171  135.6411  154.1825 H   0  0  0  0  0  0  0  0  0  0  0  0  # atno 10765 bound_to 10752
  140.8654  134.2117  157.4683 H   0  0  0  0  0  0  0  0  0  0  0  0  # atno 11005 bound_to 11000
  145.2110  139.2205  143.5143 LP  0  0  0  0  0  0  0  0  0  0  0  0  # atno 17320 bound_to 7965
  146.3458  140.1948  142.8589 LP  0  0  0  0  0  0  0  0  0  0  0  0  # atno 17321 bound_to 7965
  140.5406  143.2224  151.8090 LP  0  0  0  0  0  0  0  0  0  0  0  0  # atno 17342 bound_to 10162
  139.4858  144.4605  151.9547 LP  0  0  0  0  0  0  0  0  0  0  0  0  # atno 17343 bound_to 10162
  157.1612  130.6226  149.5611 LP  0  0  0  0  0  0  0  0  0  0  0  0  # atno 17370 bound_to 10713
  155.9811  130.4816  150.6810 LP  0  0  0  0  0  0  0  0  0  0  0  0  # atno 17371 bound_to 10713
  139.8709  134.9749  156.4864 LP  0  0  0  0  0  0  0  0  0  0  0  0  # atno 17394 bound_to 11000
  140.8635  133.8042  155.9290 LP  0  0  0  0  0  0  0  0  0  0  0  0  # atno 17395 bound_to 11000

$$$$
