AV-unprocessed.smi:1703|AV-procd|sdf|6854|dock7
  -GOLD-   22720 8 33D 1   1.00000     0.00000
 Structure written by MMmdl.
 48 50  0  0  0  0  0  0  0  0  1 V2000
  146.5407  138.6294  151.1931 C   0  0  0  0  0  0  0  0  0  0  0  0
  146.5886  139.0495  152.6660 C   0  0  2  0  0  0  0  0  0  0  0  0
  147.7776  139.9810  152.9685 C   0  0  0  0  0  0  0  0  0  0  0  0
  147.8638  140.3188  154.3848 N   0  0  0  0  0  0  0  0  0  0  0  0
  148.9930  141.2161  154.6381 C   0  0  0  0  0  0  0  0  0  0  0  0
  149.4152  141.3522  156.1144 C   0  0  2  0  0  0  0  0  0  0  0  0
  148.3999  142.0481  156.8101 O   0  0  0  0  0  0  0  0  0  0  0  0
  150.7464  142.1157  156.2557 C   0  0  0  0  0  0  0  0  0  0  0  0
  151.5476  141.6343  157.3738 N   0  0  0  0  0  0  0  0  0  0  0  0
  152.1423  140.4243  157.5293 C   0  0  0  0  0  0  0  0  0  0  0  0
  152.0288  139.3530  156.4821 C   0  0  0  0  0  0  0  0  0  0  0  0
  153.2684  138.9589  155.9300 O   0  0  0  0  0  0  0  0  0  0  0  0
  152.8234  140.2593  158.6662 N   0  0  0  0  0  0  0  0  0  0  0  0
  152.6503  141.4705  159.3064 C   0  0  0  0  0  0  0  0  0  0  0  0
  153.1260  141.9257  160.5570 C   0  0  0  0  0  0  0  0  0  0  0  0
  152.8138  143.2247  161.0093 C   0  0  0  0  0  0  0  0  0  0  0  0
  152.0243  144.0853  160.2193 C   0  0  0  0  0  0  0  0  0  0  0  0
  151.5405  143.6512  158.9702 C   0  0  0  0  0  0  0  0  0  0  0  0
  151.8547  142.3536  158.5240 C   0  0  0  0  0  0  0  0  0  0  0  0
  147.9343  139.0822  155.1607 C   0  0  0  0  0  0  0  0  0  0  0  0
  146.7473  138.1460  154.8618 C   0  0  2  0  0  0  0  0  0  0  0  0
  146.8584  136.8134  155.6097 C   0  0  0  0  0  0  0  0  0  0  0  0
  146.7057  137.8747  153.4637 O   0  0  0  0  0  0  0  0  0  0  0  0
  146.4426  139.4973  150.5406 H   0  0  0  0  0  0  0  0  0  0  0  0
  145.6915  137.9728  151.0029 H   0  0  0  0  0  0  0  0  0  0  0  0
  147.4462  138.0943  150.9056 H   0  0  0  0  0  0  0  0  0  0  0  0
  145.6549  139.5562  152.9163 H   0  0  0  0  0  0  0  0  0  0  0  0
  148.7046  139.5031  152.6471 H   0  0  0  0  0  0  0  0  0  0  0  0
  147.6776  140.8931  152.3788 H   0  0  0  0  0  0  0  0  0  0  0  0
  149.8500  140.8829  154.0504 H   0  0  0  0  0  0  0  0  0  0  0  0
  148.7500  142.2125  154.2655 H   0  0  0  0  0  0  0  0  0  0  0  0
  149.5337  140.3708  156.5714 H   0  0  0  0  0  0  0  0  0  0  0  0
  148.5681  142.9749  156.7303 H   0  0  0  0  0  0  0  0  0  0  0  0
  151.3379  141.9982  155.3470 H   0  0  0  0  0  0  0  0  0  0  0  0
  150.5675  143.1857  156.3613 H   0  0  0  0  0  0  0  0  0  0  0  0
  151.5516  138.4768  156.9217 H   0  0  0  0  0  0  0  0  0  0  0  0
  151.3891  139.7035  155.6723 H   0  0  0  0  0  0  0  0  0  0  0  0
  153.0976  138.3946  155.1914 H   0  0  0  0  0  0  0  0  0  0  0  0
  153.7315  141.2739  161.1693 H   0  0  0  0  0  0  0  0  0  0  0  0
  153.1820  143.5621  161.9670 H   0  0  0  0  0  0  0  0  0  0  0  0
  151.7899  145.0789  160.5729 H   0  0  0  0  0  0  0  0  0  0  0  0
  150.9358  144.3074  158.3621 H   0  0  0  0  0  0  0  0  0  0  0  0
  148.8705  138.5644  154.9455 H   0  0  0  0  0  0  0  0  0  0  0  0
  147.9367  139.3021  156.2273 H   0  0  0  0  0  0  0  0  0  0  0  0
  145.8159  138.6340  155.1544 H   0  0  0  0  0  0  0  0  0  0  0  0
  146.8842  136.9698  156.6884 H   0  0  0  0  0  0  0  0  0  0  0  0
  147.7639  136.2759  155.3269 H   0  0  0  0  0  0  0  0  0  0  0  0
  146.0062  136.1705  155.3878 H   0  0  0  0  0  0  0  0  0  0  0  0
  1  2  1  0  0  0  0
  1 24  1  0  0  0  0
  1 25  1  0  0  0  0
  1 26  1  0  0  0  0
  2 23  1  0  0  0  0
  2  3  1  0  0  0  0
  2 27  1  0  0  0  0
  3  4  1  0  0  0  0
  3 28  1  0  0  0  0
  3 29  1  0  0  0  0
  4  5  1  0  0  0  0
  4 20  1  0  0  0  0
  5  6  1  0  0  0  0
  5 30  1  0  0  0  0
  5 31  1  0  0  0  0
  6  7  1  0  0  0  0
  6  8  1  0  0  0  0
  6 32  1  0  0  0  0
  7 33  1  0  0  0  0
  8  9  1  0  0  0  0
  8 34  1  0  0  0  0
  8 35  1  0  0  0  0
  9 19  1  0  0  0  0
  9 10  1  0  0  0  0
 10 11  1  0  0  0  0
 10 13  2  0  0  0  0
 11 12  1  0  0  0  0
 11 36  1  0  0  0  0
 11 37  1  0  0  0  0
 12 38  1  0  0  0  0
 13 14  1  0  0  0  0
 14 19  2  0  0  0  0
 14 15  1  0  0  0  0
 15 16  2  0  0  0  0
 15 39  1  0  0  0  0
 16 17  1  0  0  0  0
 16 40  1  0  0  0  0
 17 18  2  0  0  0  0
 17 41  1  0  0  0  0
 18 19  1  0  0  0  0
 18 42  1  0  0  0  0
 20 21  1  0  0  0  0
 20 43  1  0  0  0  0
 20 44  1  0  0  0  0
 21 22  1  0  0  0  0
 21 23  1  0  0  0  0
 21 45  1  0  0  0  0
 22 46  1  0  0  0  0
 22 47  1  0  0  0  0
 22 48  1  0  0  0  0
M  END
> <s_m_source_file>
AV-unprocessed.smi

> <i_m_source_file_index>
1703

> <i_lp_mmshare_version>
43012

> <i_f3d_flags>
0

> <s_epik_input>
W0NIM11bQ0BASF0xW0NIMl1OKFtDSDJdW0NASF0oTzEpW0NIM10pW0NIMl1bQ0BIXShbT0hdKVtDSDJdbihjKG4yKVtDSDJdW09IXSljKGMyMylbY0hdW2NIXVtjSF1bY0hdMw==

> <s_epik_cmdline>
J2VwaWtfcHl0aG9uJywgJy1waCcsICc3LjAnLCAnLXRuJywgJzgnLCAnLW1hJywgJzIwMCcsICctbWV0YWxfYmluZGluZycsICctaW1hZScsICc8aW5maWxlLm1hZT4nLCAnLW9tYWUnLCAnPG91dGZpbGUubWFlPic=

> <r_epik_Ionization_Penalty>
0.307685

> <r_epik_Ionization_Penalty_Charging>
0

> <r_epik_Ionization_Penalty_Neutral>
0.307685

> <r_epik_State_Penalty>
0.277856

> <r_epik_Charging_Adjusted_Penalty>
0.277856

> <i_epik_Tot_Q>
0

> <i_epik_Tot_abs_Q>
0

> <r_epik_Metal_State_Penalty>
0.238959

> <b_epik_Metal_Only>
0

> <s_lp_Force_Field>
OPLS_2005

> <r_lp_Energy>
28.9256

> <b_lp_Chiralities_Consistent>
1

> <s_lp_Variant>
AV-unprocessed.smi:1703-2

> <Gold.Version>
5.8.1

> <Gold.Id.Protein>
6NUR|6NUR_protein|mol2

> <Gold.PLP.Fitness>
43.6737

> <Gold.PLP.PLP>
-38.9534

> <Gold.PLP.part.hbond>
-2.0000

> <Gold.PLP.part.metal>
0.0000

> <Gold.PLP.part.buried>
-0.1671

> <Gold.PLP.part.nonpolar>
-37.3701

> <Gold.PLP.part.repulsive>
0.2556

> <Gold.PLP.ligand.clash>
0.0000

> <Gold.PLP.ligand.torsion>
0.6609

> <Gold.PLP.Chemscore.Hbond>
2.0000

> <Gold.PLP.Chemscore.CHOScore>
0.0000

> <Gold.PLP.Chemscore.Metal>
0.0000

> <Gold.Chemscore.Hbonds>
donor molecule, donor type, donor heavy atom, donor atom, acceptor molecule, acceptor atom, score
      L1  H     7    33       P1  8028  0.93
      P1  H  7997  8010       L1    12  1.00

> <Gold.PLP.Chemscore.Internal.Correction>
0.0422

> <Gold.Rescore>
     Score         DG    S(hbond)    S(metal)    S(lipo)     H(rot)  DE(clash)    DE(int)     intcor
     16.06     -18.22       1.81        0.00     120.03       2.88       1.46       0.70       ----

> <Gold.Chemscore.Fitness>
16.0616

> <Gold.Chemscore.DG>
-18.2173

> <Gold.Chemscore.ZeroCoef>
-5.4800

> <Gold.Chemscore.Hbond>
1.8147

> <Gold.Chemscore.Metal>
0.0000

> <Gold.Chemscore.Lipo>
120.0288

> <Gold.Chemscore.Internal_Hbond>
0.0000

> <Gold.Chemscore.DEClash>
1.4582

> <Gold.Chemscore.DEInternal>
0.6976

> <Gold.Chemscore.Rot>
2.8778

> <Gold.Chemscore.Internal.Correction>
   9.000000E+99

> <Gold.Chemscore.Hbonds>
donor molecule, donor type, donor heavy atom, donor atom, acceptor molecule, acceptor atom, score
      L1  H     7    33       P1  8028  0.64
      P1  H  7997  8010       L1    12  0.68

> <Gold.Chemscore.Hbond.Weighted>
-6.0610

> <Gold.Chemscore.Metal.Weighted>
-0.0000

> <Gold.Chemscore.Lipo.Weighted>
-14.0434

> <Gold.Chemscore.Internal_Hbond.Weighted>
0.0000

> <Gold.Chemscore.DEClash.Weighted>
1.4582

> <Gold.Chemscore.DEInternal.Weighted>
0.6976

> <Gold.Chemscore.Rot.Weighted>
7.3671

> <Gold.Chemscore.Internal.Correction.Weighted>
   9.000000E+99

> <Gold.Protein.RotatedTorsions>
[ 6907 6896 6895 6894 ] final  -34.72 input  -60.11 | X-H torsion
[ 7974 7965 7964 7962 ] final   17.56 input  175.53 | X-H torsion
[ 8008 7997 7996 7995 ] final   82.73 input   59.86 | X-H torsion
[ 10167 10162 10161 10158 ] final  -92.65 input  -65.29 | X-H torsion
[ 10718 10713 10712 10709 ] final    5.91 input   66.30 | X-H torsion
[ 10763 10752 10751 10750 ] final  -49.59 input  -60.55 | X-H torsion
[ 11005 11000 10999 10996 ] final   94.40 input  -57.11 | X-H torsion

> <Gold.Protein.ActiveResidues>
 VAL166  LYS551  ARG553  GLY616  TRP617  ASP618  TYR619  PRO620  LYS621  CYS622 
 ASP623  PHE694  ASN695  SER759  ASP760  ASP761  ALA762  ILE779  LEU786  VAL792 
 PHE793  MET794  SER795  GLU796  ALA797  LYS798  CYS799  TRP800  GLU811  SER814 

> <Gold.Protein.RotatedAtoms>
  151.0490  134.9660  159.8201 H   0  0  0  0  0  0  0  0  0  0  0  0  # atno 6907 bound_to 6896
  152.5377  134.2561  159.8927 H   0  0  0  0  0  0  0  0  0  0  0  0  # atno 6908 bound_to 6896
  151.2576  133.4275  159.2648 H   0  0  0  0  0  0  0  0  0  0  0  0  # atno 6909 bound_to 6896
  146.2214  139.8584  142.8609 H   0  0  0  0  0  0  0  0  0  0  0  0  # atno 7974 bound_to 7965
  155.9145  140.3425  155.6124 H   0  0  0  0  0  0  0  0  0  0  0  0  # atno 8008 bound_to 7997
  155.7348  140.0800  157.2291 H   0  0  0  0  0  0  0  0  0  0  0  0  # atno 8009 bound_to 7997
  154.4060  140.1581  156.2537 H   0  0  0  0  0  0  0  0  0  0  0  0  # atno 8010 bound_to 7997
  140.3327  143.2986  151.9924 H   0  0  0  0  0  0  0  0  0  0  0  0  # atno 10167 bound_to 10162
  156.9143  130.5768  149.5647 H   0  0  0  0  0  0  0  0  0  0  0  0  # atno 10718 bound_to 10713
  154.0966  135.6569  153.4861 H   0  0  0  0  0  0  0  0  0  0  0  0  # atno 10763 bound_to 10752
  153.0303  135.5215  154.7328 H   0  0  0  0  0  0  0  0  0  0  0  0  # atno 10764 bound_to 10752
  154.6467  135.2995  155.0006 H   0  0  0  0  0  0  0  0  0  0  0  0  # atno 10765 bound_to 10752
  139.8799  134.8843  156.3859 H   0  0  0  0  0  0  0  0  0  0  0  0  # atno 11005 bound_to 11000
  145.2729  141.0114  143.3761 LP  0  0  0  0  0  0  0  0  0  0  0  0  # atno 17320 bound_to 7965
  144.9209  139.4412  143.6541 LP  0  0  0  0  0  0  0  0  0  0  0  0  # atno 17321 bound_to 7965
  139.4854  144.6222  151.7234 LP  0  0  0  0  0  0  0  0  0  0  0  0  # atno 17342 bound_to 10162
  140.5382  144.0621  150.6078 LP  0  0  0  0  0  0  0  0  0  0  0  0  # atno 17343 bound_to 10162
  156.0521  130.5588  150.9011 LP  0  0  0  0  0  0  0  0  0  0  0  0  # atno 17370 bound_to 10713
  157.5948  131.0943  150.9060 LP  0  0  0  0  0  0  0  0  0  0  0  0  # atno 17371 bound_to 10713
  140.9366  133.7543  156.0093 LP  0  0  0  0  0  0  0  0  0  0  0  0  # atno 17394 bound_to 11000
  140.8268  134.3225  157.5363 LP  0  0  0  0  0  0  0  0  0  0  0  0  # atno 17395 bound_to 11000

$$$$
