AV-unprocessed.smi:95|AV-procd|sdf|856|dock9
  -GOLD-   2262017303D 1   1.00000     0.00000
 Structure written by MMmdl.
 41 44  0  0  0  0  0  0  0  0  1 V2000
  147.8657  139.4748  156.5476 O   0  0  0  0  0  0  0  0  0  0  0  0
  147.9646  138.6944  157.4963 C   0  0  0  0  0  0  0  0  0  0  0  0
  146.8200  138.1961  158.2509 C   0  0  0  0  0  0  0  0  0  0  0  0
  145.5814  138.6038  157.9256 F   0  0  0  0  0  0  0  0  0  0  0  0
  146.9815  137.3276  159.2727 C   0  0  0  0  0  0  0  0  0  0  0  0
  148.2208  136.8550  159.6745 N   0  0  0  0  0  0  0  0  0  0  0  0
  148.3758  135.8645  160.8101 C   0  0  1  0  0  0  0  0  0  0  0  0
  147.7576  136.4230  162.1067 C   0  0  0  0  0  0  0  0  0  0  0  0
  146.8367  135.3033  162.5495 C   0  0  0  0  0  0  0  0  0  0  0  0
  146.4622  134.6597  161.2230 C   0  0  0  0  0  0  0  0  0  0  0  0
  147.6906  134.6821  160.5085 O   0  0  0  0  0  0  0  0  0  0  0  0
  149.3838  137.2763  158.9930 C   0  0  0  0  0  0  0  0  0  0  0  0
  150.4925  136.8427  159.3151 O   0  0  0  0  0  0  0  0  0  0  0  0
  149.2169  138.1991  157.9330 N   0  0  0  0  0  0  0  0  0  0  0  0
  150.3958  138.6294  157.1959 C   0  0  0  0  0  0  0  0  0  0  0  0
  150.7306  140.1136  157.2955 C   0  0  0  0  0  0  0  0  0  0  0  0
  150.3556  140.9879  156.2562 C   0  0  0  0  0  0  0  0  0  0  0  0
  150.6661  142.3539  156.3827 C   0  0  0  0  0  0  0  0  0  0  0  0
  151.3340  142.7953  157.5430 C   0  0  0  0  0  0  0  0  0  0  0  0
  151.6595  144.1585  157.6993 C   0  0  0  0  0  0  0  0  0  0  0  0
  152.3266  144.5931  158.8592 C   0  0  0  0  0  0  0  0  0  0  0  0
  152.6664  143.6653  159.8606 C   0  0  0  0  0  0  0  0  0  0  0  0
  152.3391  142.3046  159.7023 C   0  0  0  0  0  0  0  0  0  0  0  0
  151.6704  141.8462  158.5472 C   0  0  0  0  0  0  0  0  0  0  0  0
  151.3649  140.5359  158.4139 N   0  0  0  0  0  0  0  0  0  0  0  0
  146.0900  136.9973  159.7831 H   0  0  0  0  0  0  0  0  0  0  0  0
  149.4455  135.6578  160.8765 H   0  0  0  0  0  0  0  0  0  0  0  0
  148.5305  136.6590  162.8388 H   0  0  0  0  0  0  0  0  0  0  0  0
  147.1829  137.3259  161.8944 H   0  0  0  0  0  0  0  0  0  0  0  0
  147.3826  134.5910  163.1695 H   0  0  0  0  0  0  0  0  0  0  0  0
  145.9726  135.6571  163.1123 H   0  0  0  0  0  0  0  0  0  0  0  0
  146.0815  133.6447  161.3366 H   0  0  0  0  0  0  0  0  0  0  0  0
  145.7113  135.2542  160.7009 H   0  0  0  0  0  0  0  0  0  0  0  0
  151.2288  138.0205  157.5522 H   0  0  0  0  0  0  0  0  0  0  0  0
  150.2773  138.3444  156.1501 H   0  0  0  0  0  0  0  0  0  0  0  0
  149.8429  140.6210  155.3790 H   0  0  0  0  0  0  0  0  0  0  0  0
  150.3943  143.0478  155.6009 H   0  0  0  0  0  0  0  0  0  0  0  0
  151.4000  144.8738  156.9325 H   0  0  0  0  0  0  0  0  0  0  0  0
  152.5773  145.6368  158.9805 H   0  0  0  0  0  0  0  0  0  0  0  0
  153.1786  143.9969  160.7518 H   0  0  0  0  0  0  0  0  0  0  0  0
  152.6058  141.6029  160.4790 H   0  0  0  0  0  0  0  0  0  0  0  0
  1  2  2  0  0  0  0
  2 14  1  0  0  0  0
  2  3  1  0  0  0  0
  3  4  1  0  0  0  0
  3  5  2  0  0  0  0
  5  6  1  0  0  0  0
  5 26  1  0  0  0  0
  6  7  1  0  0  0  0
  6 12  1  0  0  0  0
  7 11  1  0  0  0  0
  7  8  1  0  0  0  0
  7 27  1  0  0  0  0
  8  9  1  0  0  0  0
  8 28  1  0  0  0  0
  8 29  1  0  0  0  0
  9 10  1  0  0  0  0
  9 30  1  0  0  0  0
  9 31  1  0  0  0  0
 10 11  1  0  0  0  0
 10 32  1  0  0  0  0
 10 33  1  0  0  0  0
 12 13  2  0  0  0  0
 12 14  1  0  0  0  0
 14 15  1  0  0  0  0
 15 16  1  0  0  0  0
 15 34  1  0  0  0  0
 15 35  1  0  0  0  0
 16 25  1  0  0  0  0
 16 17  2  0  0  0  0
 17 18  1  0  0  0  0
 17 36  1  0  0  0  0
 18 19  2  0  0  0  0
 18 37  1  0  0  0  0
 19 24  1  0  0  0  0
 19 20  1  0  0  0  0
 20 21  2  0  0  0  0
 20 38  1  0  0  0  0
 21 22  1  0  0  0  0
 21 39  1  0  0  0  0
 22 23  2  0  0  0  0
 22 40  1  0  0  0  0
 23 24  1  0  0  0  0
 23 41  1  0  0  0  0
 24 25  2  0  0  0  0
M  END
> <s_m_source_file>
AV-unprocessed.smi

> <i_m_source_file_index>
95

> <i_lp_mmshare_version>
43012

> <i_f3d_flags>
0

> <s_epik_input>
TzFbQ0gyXVtDSDJdW0NIMl1bQ0BIXTFuKFtjSF1jKEYpYzI9TyljKD1PKW4yW0NIMl1jKFtjSF1bY0hdMyluYyhjMzQpW2NIXVtjSF1bY0hdW2NIXTQ=

> <s_epik_cmdline>
J2VwaWtfcHl0aG9uJywgJy1waCcsICc3LjAnLCAnLXRuJywgJzgnLCAnLW1hJywgJzIwMCcsICctbWV0YWxfYmluZGluZycsICctaW1hZScsICc8aW5maWxlLm1hZT4nLCAnLW9tYWUnLCAnPG91dGZpbGUubWFlPic=

> <r_lp_tautomer_probability>
1

> <r_epik_Ionization_Penalty>
0.0274176

> <r_epik_Ionization_Penalty_Charging>
1.11818e-08

> <r_epik_Ionization_Penalty_Neutral>
0.0274176

> <r_epik_State_Penalty>
0.0224396

> <r_epik_Charging_Adjusted_Penalty>
0.0224396

> <i_epik_Tot_Q>
0

> <i_epik_Tot_abs_Q>
0

> <r_epik_Metal_State_Penalty>
2.28695e-05

> <b_epik_Metal_Only>
0

> <s_epik_Chemistry_Notes>
This compound contains an acetal/aminal-like group ( X-CH(R)-Y where X, Y are N, S, or O) that may be acid/base labile, releasing an aldehyde.

> <s_lp_Force_Field>
OPLS_2005

> <r_lp_Energy>
34.6925

> <b_lp_Chiralities_Consistent>
1

> <s_lp_Variant>
AV-unprocessed.smi:95-2

> <Gold.Version>
5.8.1

> <Gold.Id.Protein>
6NUR|6NUR_protein|mol2

> <Gold.PLP.Fitness>
47.9023

> <Gold.PLP.PLP>
-45.5272

> <Gold.PLP.part.hbond>
-1.0000

> <Gold.PLP.part.metal>
0.0000

> <Gold.PLP.part.buried>
-5.8797

> <Gold.PLP.part.nonpolar>
-39.4831

> <Gold.PLP.part.repulsive>
0.0000

> <Gold.PLP.ligand.clash>
0.0000

> <Gold.PLP.ligand.torsion>
0.3193

> <Gold.PLP.Chemscore.Hbond>
1.0000

> <Gold.PLP.Chemscore.CHOScore>
0.0000

> <Gold.PLP.Chemscore.Metal>
0.0000

> <Gold.Chemscore.Hbonds>
donor molecule, donor type, donor heavy atom, donor atom, acceptor molecule, acceptor atom, score
      P1  H  6896  6908       L1    13  1.00

> <Gold.PLP.Chemscore.Internal.Correction>
0.0137

> <Gold.Rescore>
     Score         DG    S(hbond)    S(metal)    S(lipo)     H(rot)  DE(clash)    DE(int)     intcor
     17.29     -18.79       1.00        0.00     118.05       1.50       0.08       1.42       ----

> <Gold.Chemscore.Fitness>
17.2864

> <Gold.Chemscore.DG>
-18.7853

> <Gold.Chemscore.ZeroCoef>
-5.4800

> <Gold.Chemscore.Hbond>
0.9970

> <Gold.Chemscore.Metal>
0.0000

> <Gold.Chemscore.Lipo>
118.0485

> <Gold.Chemscore.Internal_Hbond>
0.0000

> <Gold.Chemscore.DEClash>
0.0838

> <Gold.Chemscore.DEInternal>
1.4152

> <Gold.Chemscore.Rot>
1.4985

> <Gold.Chemscore.Internal.Correction>
   9.000000E+99

> <Gold.Chemscore.Hbonds>
donor molecule, donor type, donor heavy atom, donor atom, acceptor molecule, acceptor atom, score
      P1  H  6896  6908       L1    13  0.98

> <Gold.Chemscore.Hbond.Weighted>
-3.3298

> <Gold.Chemscore.Metal.Weighted>
-0.0000

> <Gold.Chemscore.Lipo.Weighted>
-13.8117

> <Gold.Chemscore.Internal_Hbond.Weighted>
0.0000

> <Gold.Chemscore.DEClash.Weighted>
0.0838

> <Gold.Chemscore.DEInternal.Weighted>
1.4152

> <Gold.Chemscore.Rot.Weighted>
3.8362

> <Gold.Chemscore.Internal.Correction.Weighted>
   9.000000E+99

> <Gold.Protein.RotatedTorsions>
[ 6907 6896 6895 6894 ] final -160.10 input  -60.11 | X-H torsion
[ 7974 7965 7964 7962 ] final  179.64 input  175.53 | X-H torsion
[ 8008 7997 7996 7995 ] final  161.10 input   59.86 | X-H torsion
[ 10167 10162 10161 10158 ] final  -76.82 input  -65.29 | X-H torsion
[ 10718 10713 10712 10709 ] final  -97.82 input   66.30 | X-H torsion
[ 10763 10752 10751 10750 ] final  -66.21 input  -60.55 | X-H torsion
[ 11005 11000 10999 10996 ] final   67.28 input  -57.11 | X-H torsion

> <Gold.Protein.ActiveResidues>
 VAL166  LYS551  ARG553  GLY616  TRP617  ASP618  TYR619  PRO620  LYS621  CYS622 
 ASP623  PHE694  ASN695  SER759  ASP760  ASP761  ALA762  ILE779  LEU786  VAL792 
 PHE793  MET794  SER795  GLU796  ALA797  LYS798  CYS799  TRP800  GLU811  SER814 

> <Gold.Protein.RotatedAtoms>
  151.3438  133.3952  159.2673 H   0  0  0  0  0  0  0  0  0  0  0  0  # atno 6907 bound_to 6896
  150.9856  134.9203  159.7880 H   0  0  0  0  0  0  0  0  0  0  0  0  # atno 6908 bound_to 6896
  152.5231  134.3403  159.9267 H   0  0  0  0  0  0  0  0  0  0  0  0  # atno 6909 bound_to 6896
  144.7144  140.0579  143.6433 H   0  0  0  0  0  0  0  0  0  0  0  0  # atno 7974 bound_to 7965
  156.2127  140.1786  156.7660 H   0  0  0  0  0  0  0  0  0  0  0  0  # atno 8008 bound_to 7997
  154.5745  140.0676  156.9043 H   0  0  0  0  0  0  0  0  0  0  0  0  # atno 8009 bound_to 7997
  155.2612  140.3336  155.4275 H   0  0  0  0  0  0  0  0  0  0  0  0  # atno 8010 bound_to 7997
  140.4823  143.2399  151.8038 H   0  0  0  0  0  0  0  0  0  0  0  0  # atno 10167 bound_to 10162
  156.0092  130.5211  150.6432 H   0  0  0  0  0  0  0  0  0  0  0  0  # atno 10718 bound_to 10713
  154.3565  135.6125  153.5669 H   0  0  0  0  0  0  0  0  0  0  0  0  # atno 10763 bound_to 10752
  152.9795  135.5805  154.4682 H   0  0  0  0  0  0  0  0  0  0  0  0  # atno 10764 bound_to 10752
  154.4413  135.2850  155.1823 H   0  0  0  0  0  0  0  0  0  0  0  0  # atno 10765 bound_to 10752
  139.9780  134.6790  156.0316 H   0  0  0  0  0  0  0  0  0  0  0  0  # atno 11005 bound_to 11000
  145.9889  139.2999  143.0997 LP  0  0  0  0  0  0  0  0  0  0  0  0  # atno 17320 bound_to 7965
  145.8926  140.9294  143.0544 LP  0  0  0  0  0  0  0  0  0  0  0  0  # atno 17321 bound_to 7965
  139.4836  144.4756  151.9371 LP  0  0  0  0  0  0  0  0  0  0  0  0  # atno 17342 bound_to 10162
  140.3841  144.2698  150.5905 LP  0  0  0  0  0  0  0  0  0  0  0  0  # atno 17343 bound_to 10162
  157.4208  131.0836  151.1133 LP  0  0  0  0  0  0  0  0  0  0  0  0  # atno 17370 bound_to 10713
  157.1735  130.6278  149.5648 LP  0  0  0  0  0  0  0  0  0  0  0  0  # atno 17371 bound_to 10713
  141.1455  133.6556  156.3856 LP  0  0  0  0  0  0  0  0  0  0  0  0  # atno 17394 bound_to 11000
  140.5154  134.6355  157.5299 LP  0  0  0  0  0  0  0  0  0  0  0  0  # atno 17395 bound_to 11000

$$$$
