AV-unprocessed.smi:2786|AV-procd|sdf|10755|dock2
  -GOLD-   2272015183D 1   1.00000     0.00000
 Structure written by MMmdl.
 26 27  0  0  0  0  0  0  0  0  1 V2000
  153.3276  140.3253  159.1581 C   0  0  0  0  0  0  0  0  0  0  0  0
  153.7800  140.7743  160.4605 N   0  0  0  0  0  0  0  0  0  0  0  0
  154.6493  140.0891  161.2990 C   0  0  0  0  0  0  0  0  0  0  0  0
  154.8007  140.8607  162.4253 C   0  0  0  0  0  0  0  0  0  0  0  0
  154.0364  142.0151  162.2982 N   0  0  0  0  0  0  0  0  0  0  0  0
  153.4567  141.9139  161.1037 C   0  0  0  0  0  0  0  0  0  0  0  0
  152.5102  142.9323  160.5340 C   0  0  1  0  0  0  0  0  0  0  0  0
  152.2285  144.0582  161.5527 C   0  0  0  0  0  0  0  0  0  0  0  0
  151.2998  145.0471  161.0006 N   0  0  0  0  0  0  0  0  0  0  0  0
  151.8145  145.6089  159.7509 C   0  0  0  0  0  0  0  0  0  0  0  0
  152.0884  144.4920  158.7274 C   0  0  0  0  0  0  0  0  0  0  0  0
  153.0158  143.5017  159.2782 N   0  0  0  0  0  0  0  0  0  0  0  0
  153.6730  139.3083  158.9700 H   0  0  0  0  0  0  0  0  0  0  0  0
  153.7251  140.9820  158.3839 H   0  0  0  0  0  0  0  0  0  0  0  0
  152.2380  140.3388  159.1187 H   0  0  0  0  0  0  0  0  0  0  0  0
  155.0749  139.1323  161.0336 H   0  0  0  0  0  0  0  0  0  0  0  0
  155.3924  140.6754  163.3095 H   0  0  0  0  0  0  0  0  0  0  0  0
  151.5674  142.4284  160.3190 H   0  0  0  0  0  0  0  0  0  0  0  0
  151.8117  143.6340  162.4664 H   0  0  0  0  0  0  0  0  0  0  0  0
  153.1635  144.5442  161.8355 H   0  0  0  0  0  0  0  0  0  0  0  0
  151.1632  145.7935  161.6747 H   0  0  0  0  0  0  0  0  0  0  0  0
  151.0979  146.3199  159.3398 H   0  0  0  0  0  0  0  0  0  0  0  0
  152.7318  146.1673  159.9430 H   0  0  0  0  0  0  0  0  0  0  0  0
  151.1509  144.0098  158.4469 H   0  0  0  0  0  0  0  0  0  0  0  0
  152.5029  144.9205  157.8149 H   0  0  0  0  0  0  0  0  0  0  0  0
  153.1514  142.7559  158.6035 H   0  0  0  0  0  0  0  0  0  0  0  0
  1  2  1  0  0  0  0
  1 13  1  0  0  0  0
  1 14  1  0  0  0  0
  1 15  1  0  0  0  0
  2  6  1  0  0  0  0
  2  3  1  0  0  0  0
  3  4  2  0  0  0  0
  3 16  1  0  0  0  0
  4  5  1  0  0  0  0
  4 17  1  0  0  0  0
  5  6  2  0  0  0  0
  6  7  1  0  0  0  0
  7 12  1  0  0  0  0
  7  8  1  0  0  0  0
  7 18  1  0  0  0  0
  8  9  1  0  0  0  0
  8 19  1  0  0  0  0
  8 20  1  0  0  0  0
  9 10  1  0  0  0  0
  9 21  1  0  0  0  0
 10 11  1  0  0  0  0
 10 22  1  0  0  0  0
 10 23  1  0  0  0  0
 11 12  1  0  0  0  0
 11 24  1  0  0  0  0
 11 25  1  0  0  0  0
 12 26  1  0  0  0  0
M  END
> <s_m_source_file>
AV-unprocessed.smi

> <i_m_source_file_index>
2786

> <i_lp_mmshare_version>
43012

> <i_f3d_flags>
0

> <s_epik_input>
W0NIM11uMVtjSF1bY0hdbmMxW0NAQEhdMltDSDJdW05IXVtDSDJdW0NIMl1bTkhdMg==

> <s_epik_cmdline>
J2VwaWtfcHl0aG9uJywgJy1waCcsICc3LjAnLCAnLXRuJywgJzgnLCAnLW1hJywgJzIwMCcsICctbWV0YWxfYmluZGluZycsICctaW1hZScsICc8aW5maWxlLm1hZT4nLCAnLW9tYWUnLCAnPG91dGZpbGUubWFlPic=

> <r_lp_tautomer_probability>
1

> <r_epik_Ionization_Penalty>
3.5722

> <r_epik_Ionization_Penalty_Charging>
1.66148

> <r_epik_Ionization_Penalty_Neutral>
1.91072

> <r_epik_State_Penalty>
2.63328

> <r_epik_Charging_Adjusted_Penalty>
4.29476

> <i_epik_Tot_Q>
0

> <i_epik_Tot_abs_Q>
0

> <r_epik_Metal_State_Penalty>
0.942173

> <b_epik_Metal_Only>
0

> <s_lp_Force_Field>
OPLS_2005

> <r_lp_Energy>
22.0451

> <b_lp_Chiralities_Consistent>
1

> <s_lp_Variant>
AV-unprocessed.smi:2786-8

> <Gold.Version>
5.8.1

> <Gold.Id.Protein>
6NUR|6NUR_protein|mol2

> <Gold.PLP.Fitness>
34.3151

> <Gold.PLP.PLP>
-34.3482

> <Gold.PLP.part.hbond>
-2.0000

> <Gold.PLP.part.metal>
0.0000

> <Gold.PLP.part.buried>
-3.1871

> <Gold.PLP.part.nonpolar>
-28.8699

> <Gold.PLP.part.repulsive>
0.0169

> <Gold.PLP.ligand.clash>
0.0000

> <Gold.PLP.ligand.torsion>
0.0241

> <Gold.PLP.Chemscore.Hbond>
0.0000

> <Gold.PLP.Chemscore.CHOScore>
0.0000

> <Gold.PLP.Chemscore.Metal>
0.0000

> <Gold.PLP.Chemscore.Internal.Correction>
0.0151

> <Gold.Rescore>
     Score         DG    S(hbond)    S(metal)    S(lipo)     H(rot)  DE(clash)    DE(int)     intcor
     11.76     -11.81       0.00        0.00      75.99       1.00       0.03       0.01       ----

> <Gold.Chemscore.Fitness>
11.7632

> <Gold.Chemscore.DG>
-11.8108

> <Gold.Chemscore.ZeroCoef>
-5.4800

> <Gold.Chemscore.Hbond>
0.0000

> <Gold.Chemscore.Metal>
0.0000

> <Gold.Chemscore.Lipo>
75.9894

> <Gold.Chemscore.Internal_Hbond>
0.0000

> <Gold.Chemscore.DEClash>
0.0344

> <Gold.Chemscore.DEInternal>
0.0132

> <Gold.Chemscore.Rot>
1.0000

> <Gold.Chemscore.Internal.Correction>
   9.000000E+99

> <Gold.Chemscore.Hbond.Weighted>
-0.0000

> <Gold.Chemscore.Metal.Weighted>
-0.0000

> <Gold.Chemscore.Lipo.Weighted>
-8.8908

> <Gold.Chemscore.Internal_Hbond.Weighted>
0.0000

> <Gold.Chemscore.DEClash.Weighted>
0.0344

> <Gold.Chemscore.DEInternal.Weighted>
0.0132

> <Gold.Chemscore.Rot.Weighted>
2.5600

> <Gold.Chemscore.Internal.Correction.Weighted>
   9.000000E+99

> <Gold.Protein.RotatedTorsions>
[ 6907 6896 6895 6894 ] final -149.42 input  -60.11 | X-H torsion
[ 7974 7965 7964 7962 ] final  -21.89 input  175.53 | X-H torsion
[ 8008 7997 7996 7995 ] final   92.60 input   59.86 | X-H torsion
[ 10167 10162 10161 10158 ] final  -75.45 input  -65.29 | X-H torsion
[ 10718 10713 10712 10709 ] final -149.92 input   66.30 | X-H torsion
[ 10763 10752 10751 10750 ] final  -62.01 input  -60.55 | X-H torsion
[ 11005 11000 10999 10996 ] final    9.96 input  -57.11 | X-H torsion

> <Gold.Protein.ActiveResidues>
 VAL166  LYS551  ARG553  GLY616  TRP617  ASP618  TYR619  PRO620  LYS621  CYS622 
 ASP623  PHE694  ASN695  SER759  ASP760  ASP761  ALA762  ILE779  LEU786  VAL792 
 PHE793  MET794  SER795  GLU796  ALA797  LYS798  CYS799  TRP800  GLU811  SER814 

> <Gold.Protein.RotatedAtoms>
  151.1839  133.4708  159.2594 H   0  0  0  0  0  0  0  0  0  0  0  0  # atno 6907 bound_to 6896
  151.1231  135.0090  159.8558 H   0  0  0  0  0  0  0  0  0  0  0  0  # atno 6908 bound_to 6896
  152.5457  134.1749  159.8665 H   0  0  0  0  0  0  0  0  0  0  0  0  # atno 6909 bound_to 6896
  146.1707  140.4403  142.8533 H   0  0  0  0  0  0  0  0  0  0  0  0  # atno 7974 bound_to 7965
  156.0373  140.3323  155.7204 H   0  0  0  0  0  0  0  0  0  0  0  0  # atno 8008 bound_to 7997
  155.5797  140.0636  157.2804 H   0  0  0  0  0  0  0  0  0  0  0  0  # atno 8009 bound_to 7997
  154.4378  140.1846  156.0952 H   0  0  0  0  0  0  0  0  0  0  0  0  # atno 8010 bound_to 7997
  140.4941  143.2374  151.7859 H   0  0  0  0  0  0  0  0  0  0  0  0  # atno 10167 bound_to 10162
  156.4394  130.8115  151.2344 H   0  0  0  0  0  0  0  0  0  0  0  0  # atno 10718 bound_to 10713
  154.2933  135.6249  153.5394 H   0  0  0  0  0  0  0  0  0  0  0  0  # atno 10763 bound_to 10752
  152.9849  135.5661  154.5366 H   0  0  0  0  0  0  0  0  0  0  0  0  # atno 10764 bound_to 10752
  154.4981  135.2870  155.1419 H   0  0  0  0  0  0  0  0  0  0  0  0  # atno 10765 bound_to 10752
  140.5198  134.0570  155.7841 H   0  0  0  0  0  0  0  0  0  0  0  0  # atno 11005 bound_to 11000
  144.8159  140.6467  143.6385 LP  0  0  0  0  0  0  0  0  0  0  0  0  # atno 17320 bound_to 7965
  145.4347  139.1544  143.4003 LP  0  0  0  0  0  0  0  0  0  0  0  0  # atno 17321 bound_to 7965
  139.4857  144.4610  151.9541 LP  0  0  0  0  0  0  0  0  0  0  0  0  # atno 17342 bound_to 10162
  140.3697  144.2870  150.5921 LP  0  0  0  0  0  0  0  0  0  0  0  0  # atno 17343 bound_to 10162
  157.7506  131.0173  150.3579 LP  0  0  0  0  0  0  0  0  0  0  0  0  # atno 17370 bound_to 10713
  156.3933  130.3902  149.7013 LP  0  0  0  0  0  0  0  0  0  0  0  0  # atno 17371 bound_to 10713
  141.1340  133.9253  157.2474 LP  0  0  0  0  0  0  0  0  0  0  0  0  # atno 17394 bound_to 11000
  139.9612  135.0153  156.9265 LP  0  0  0  0  0  0  0  0  0  0  0  0  # atno 17395 bound_to 11000

$$$$
