AV-unprocessed.smi:3112|AV-procd|sdf|11843|dock10
  -GOLD-   2272017223D 1   1.00000     0.00000
 Structure written by MMmdl.
 37 37  0  0  0  0  0  0  0  0  2 V2000
  144.9727  135.8659  151.1174 C   0  0  0  0  0  0  0  0  0  0  0  0
  145.0518  136.9948  152.1544 C   0  0  0  0  0  0  0  0  0  0  0  0
  146.2964  137.8869  151.9962 C   0  0  1  0  0  0  0  0  0  0  0  0
  145.9111  139.1061  151.3912 O   0  0  0  0  0  0  0  0  0  0  0  0
  146.9502  138.2065  153.3506 C   0  0  0  0  0  0  0  0  0  0  0  0
  148.3710  138.5781  153.1838 N   0  3  0  0  0  0  0  0  0  0  0  0
  149.0908  138.8881  154.4394 C   0  0  1  0  0  0  0  0  0  0  0  0
  150.2551  137.8931  154.5969 C   0  0  0  0  0  0  0  0  0  0  0  0
  149.5503  140.3710  154.4496 C   0  0  1  0  0  0  0  0  0  0  0  0
  148.3991  141.3636  154.2041 C   0  0  0  0  0  0  0  0  0  0  0  0
  150.2415  140.7163  155.6857 N   0  0  0  0  0  0  0  0  0  0  0  0
  150.7187  141.9459  156.0953 C   0  0  0  0  0  0  0  0  0  0  0  0
  151.2838  141.7757  157.3264 C   0  0  0  0  0  0  0  0  0  0  0  0
  151.1005  140.3904  157.5933 C   0  0  0  0  0  0  0  0  0  0  0  0
  150.4752  139.7607  156.6118 N   0  0  0  0  0  0  0  0  0  0  0  0
  144.0915  135.2469  151.2874 H   0  0  0  0  0  0  0  0  0  0  0  0
  145.8484  135.2184  151.1714 H   0  0  0  0  0  0  0  0  0  0  0  0
  144.9071  136.2590  150.1027 H   0  0  0  0  0  0  0  0  0  0  0  0
  144.1474  137.6026  152.1034 H   0  0  0  0  0  0  0  0  0  0  0  0
  145.0575  136.5447  153.1479 H   0  0  0  0  0  0  0  0  0  0  0  0
  147.0192  137.3859  151.3508 H   0  0  0  0  0  0  0  0  0  0  0  0
  145.1978  138.9342  150.7945 H   0  0  0  0  0  0  0  0  0  0  0  0
  146.4062  139.0067  153.8543 H   0  0  0  0  0  0  0  0  0  0  0  0
  146.9019  137.3321  154.0010 H   0  0  0  0  0  0  0  0  0  0  0  0
  148.8415  137.8083  152.7301 H   0  0  0  0  0  0  0  0  0  0  0  0
  148.4200  138.7264  155.2852 H   0  0  0  0  0  0  0  0  0  0  0  0
  150.7622  138.0074  155.5553 H   0  0  0  0  0  0  0  0  0  0  0  0
  150.9982  138.0251  153.8098 H   0  0  0  0  0  0  0  0  0  0  0  0
  149.8983  136.8637  154.5469 H   0  0  0  0  0  0  0  0  0  0  0  0
  150.2654  140.5012  153.6346 H   0  0  0  0  0  0  0  0  0  0  0  0
  147.9569  141.2276  153.2172 H   0  0  0  0  0  0  0  0  0  0  0  0
  148.7544  142.3934  154.2555 H   0  0  0  0  0  0  0  0  0  0  0  0
  147.6064  141.2485  154.9438 H   0  0  0  0  0  0  0  0  0  0  0  0
  150.6183  142.8301  155.4832 H   0  0  0  0  0  0  0  0  0  0  0  0
  151.7565  142.5260  157.9429 H   0  0  0  0  0  0  0  0  0  0  0  0
  151.4001  139.8278  158.4651 H   0  0  0  0  0  0  0  0  0  0  0  0
  148.4228  139.3848  152.5777 H   0  0  0  0  0  0  0  0  0  0  0  0
  1  2  1  0  0  0  0
  1 16  1  0  0  0  0
  1 17  1  0  0  0  0
  1 18  1  0  0  0  0
  2  3  1  0  0  0  0
  2 19  1  0  0  0  0
  2 20  1  0  0  0  0
  3  4  1  0  0  0  0
  3  5  1  0  0  0  0
  3 21  1  0  0  0  0
  4 22  1  0  0  0  0
  5  6  1  0  0  0  0
  5 23  1  0  0  0  0
  5 24  1  0  0  0  0
  6  7  1  0  0  0  0
  6 25  1  0  0  0  0
  6 37  1  0  0  0  0
  7  8  1  0  0  0  0
  7  9  1  0  0  0  0
  7 26  1  0  0  0  0
  8 27  1  0  0  0  0
  8 28  1  0  0  0  0
  8 29  1  0  0  0  0
  9 10  1  0  0  0  0
  9 11  1  0  0  0  0
  9 30  1  0  0  0  0
 10 31  1  0  0  0  0
 10 32  1  0  0  0  0
 10 33  1  0  0  0  0
 11 15  1  0  0  0  0
 11 12  1  0  0  0  0
 12 13  2  0  0  0  0
 12 34  1  0  0  0  0
 13 14  1  0  0  0  0
 13 35  1  0  0  0  0
 14 15  2  0  0  0  0
 14 36  1  0  0  0  0
M  CHG  1   6   1
M  END
> <s_m_source_file>
AV-unprocessed.smi

> <i_m_source_file_index>
3112

> <i_lp_mmshare_version>
43012

> <i_f3d_flags>
0

> <s_epik_input>
W0NIM11bQ0gyXVtDQEhdKFtPSF0pW0NIMl1bTkhdW0NASF0oW0NIM10pW0NASF0oW0NIM10pbjFbY0hdW2NIXVtjSF1uMQ==

> <s_epik_cmdline>
J2VwaWtfcHl0aG9uJywgJy1waCcsICc3LjAnLCAnLXRuJywgJzgnLCAnLW1hJywgJzIwMCcsICctbWV0YWxfYmluZGluZycsICctaW1hZScsICc8aW5maWxlLm1hZT4nLCAnLW9tYWUnLCAnPG91dGZpbGUubWFlPic=

> <r_lp_tautomer_probability>
1

> <r_epik_Ionization_Penalty>
0.0154842

> <r_epik_Ionization_Penalty_Charging>
0.0154724

> <r_epik_Ionization_Penalty_Neutral>
1.17979e-05

> <r_epik_State_Penalty>
0.0121607

> <r_epik_Charging_Adjusted_Penalty>
0.0276331

> <i_epik_Tot_Q>
1

> <i_epik_Tot_abs_Q>
1

> <r_epik_Metal_State_Penalty>
0.0121863

> <b_epik_Metal_Only>
0

> <s_lp_Force_Field>
OPLS_2005

> <r_lp_Energy>
13.9739

> <b_lp_Chiralities_Consistent>
1

> <s_lp_Variant>
AV-unprocessed.smi:3112-8

> <Gold.Version>
5.8.1

> <Gold.Id.Protein>
6NUR|6NUR_protein|mol2

> <Gold.PLP.Fitness>
41.9832

> <Gold.PLP.PLP>
-31.1520

> <Gold.PLP.part.hbond>
-4.0000

> <Gold.PLP.part.metal>
0.0000

> <Gold.PLP.part.buried>
-1.3530

> <Gold.PLP.part.nonpolar>
-25.8635

> <Gold.PLP.part.repulsive>
0.0536

> <Gold.PLP.ligand.clash>
0.0000

> <Gold.PLP.ligand.torsion>
1.7210

> <Gold.PLP.Chemscore.Hbond>
3.7680

> <Gold.PLP.Chemscore.CHOScore>
0.9505

> <Gold.PLP.Chemscore.Metal>
0.0000

> <Gold.Chemscore.Hbonds>
donor molecule, donor type, donor heavy atom, donor atom, acceptor molecule, acceptor atom, score
      L1  H     4    22       P1 10171  1.00
      L1  H     6    25       P1  7948  2.00
      L1  H     6    37       P1  7957  0.74
      L1  C    12    34       P1  8028  0.91

> <Gold.PLP.Chemscore.Internal.Correction>
0.1176

> <Gold.Rescore>
     Score         DG    S(hbond)    S(metal)    S(lipo)     H(rot)  DE(clash)    DE(int)     intcor
     13.79     -17.27       2.83        0.00      72.61       2.41       0.43       3.05       ----

> <Gold.Chemscore.Fitness>
13.7894

> <Gold.Chemscore.DG>
-17.2706

> <Gold.Chemscore.ZeroCoef>
-5.4800

> <Gold.Chemscore.Hbond>
2.8329

> <Gold.Chemscore.Metal>
0.0000

> <Gold.Chemscore.Lipo>
72.6089

> <Gold.Chemscore.Internal_Hbond>
0.0000

> <Gold.Chemscore.DEClash>
0.4276

> <Gold.Chemscore.DEInternal>
3.0535

> <Gold.Chemscore.Rot>
2.4089

> <Gold.Chemscore.Internal.Correction>
   9.000000E+99

> <Gold.Chemscore.Hbonds>
donor molecule, donor type, donor heavy atom, donor atom, acceptor molecule, acceptor atom, score
      L1  H     4    22       P1 10171  1.00
      L1  H     6    25       P1  7948  0.99
      L1  H     6    37       P1  7957  0.73

> <Gold.Chemscore.Hbond.Weighted>
-9.4620

> <Gold.Chemscore.Metal.Weighted>
-0.0000

> <Gold.Chemscore.Lipo.Weighted>
-8.4952

> <Gold.Chemscore.Internal_Hbond.Weighted>
0.0000

> <Gold.Chemscore.DEClash.Weighted>
0.4276

> <Gold.Chemscore.DEInternal.Weighted>
3.0535

> <Gold.Chemscore.Rot.Weighted>
6.1667

> <Gold.Chemscore.Internal.Correction.Weighted>
   9.000000E+99

> <Gold.Protein.RotatedTorsions>
[ 6907 6896 6895 6894 ] final  -21.36 input  -60.11 | X-H torsion
[ 7974 7965 7964 7962 ] final  167.06 input  175.53 | X-H torsion
[ 8008 7997 7996 7995 ] final -140.52 input   59.86 | X-H torsion
[ 10167 10162 10161 10158 ] final  -40.18 input  -65.29 | X-H torsion
[ 10718 10713 10712 10709 ] final    5.24 input   66.30 | X-H torsion
[ 10763 10752 10751 10750 ] final  -88.20 input  -60.55 | X-H torsion
[ 11005 11000 10999 10996 ] final -143.94 input  -57.11 | X-H torsion

> <Gold.Protein.ActiveResidues>
 VAL166  LYS551  ARG553  GLY616  TRP617  ASP618  TYR619  PRO620  LYS621  CYS622 
 ASP623  PHE694  ASN695  SER759  ASP760  ASP761  ALA762  ILE779  LEU786  VAL792 
 PHE793  MET794  SER795  GLU796  ALA797  LYS798  CYS799  TRP800  GLU811  SER814 

> <Gold.Protein.RotatedAtoms>
  151.2345  135.0566  159.9000 H   0  0  0  0  0  0  0  0  0  0  0  0  # atno 6907 bound_to 6896
  152.5401  134.0501  159.8116 H   0  0  0  0  0  0  0  0  0  0  0  0  # atno 6908 bound_to 6896
  151.0685  133.5436  159.2660 H   0  0  0  0  0  0  0  0  0  0  0  0  # atno 6909 bound_to 6896
  144.7438  139.8706  143.6388 H   0  0  0  0  0  0  0  0  0  0  0  0  # atno 7974 bound_to 7965
  155.4627  140.0547  157.2989 H   0  0  0  0  0  0  0  0  0  0  0  0  # atno 8008 bound_to 7997
  154.4731  140.2049  155.9900 H   0  0  0  0  0  0  0  0  0  0  0  0  # atno 8009 bound_to 7997
  156.1088  140.3207  155.8048 H   0  0  0  0  0  0  0  0  0  0  0  0  # atno 8010 bound_to 7997
  140.7042  143.3169  151.2888 H   0  0  0  0  0  0  0  0  0  0  0  0  # atno 10167 bound_to 10162
  156.9045  130.5733  149.5647 H   0  0  0  0  0  0  0  0  0  0  0  0  # atno 10718 bound_to 10713
  154.6419  135.5386  153.7800 H   0  0  0  0  0  0  0  0  0  0  0  0  # atno 10763 bound_to 10752
  153.0338  135.6461  154.1146 H   0  0  0  0  0  0  0  0  0  0  0  0  # atno 10764 bound_to 10752
  154.1070  135.2929  155.3219 H   0  0  0  0  0  0  0  0  0  0  0  0  # atno 10765 bound_to 10752
  140.8075  134.2784  157.4954 H   0  0  0  0  0  0  0  0  0  0  0  0  # atno 11005 bound_to 11000
  146.1283  139.4313  143.0185 LP  0  0  0  0  0  0  0  0  0  0  0  0  # atno 17320 bound_to 7965
  145.7202  141.0077  143.1406 LP  0  0  0  0  0  0  0  0  0  0  0  0  # atno 17321 bound_to 7965
  139.6610  144.0189  152.2692 LP  0  0  0  0  0  0  0  0  0  0  0  0  # atno 17342 bound_to 10162
  139.9756  144.6463  150.7948 LP  0  0  0  0  0  0  0  0  0  0  0  0  # atno 17343 bound_to 10162
  156.0566  130.5626  150.9104 LP  0  0  0  0  0  0  0  0  0  0  0  0  # atno 17370 bound_to 10713
  157.6006  131.0941  150.8967 LP  0  0  0  0  0  0  0  0  0  0  0  0  # atno 17371 bound_to 10713
  139.8716  134.9464  156.3938 LP  0  0  0  0  0  0  0  0  0  0  0  0  # atno 17394 bound_to 11000
  140.9232  133.7630  155.9932 LP  0  0  0  0  0  0  0  0  0  0  0  0  # atno 17395 bound_to 11000

$$$$
