AV-unprocessed.smi:3009|AV-procd|sdf|11449|dock10
  -GOLD-   2272016383D 1   1.00000     0.00000
 Structure written by MMmdl.
 44 45  0  0  0  0  0  0  0  0  2 V2000
  151.6287  140.5853  155.9410 C   0  0  0  0  0  0  0  0  0  0  0  0
  151.4965  139.1197  155.5011 C   0  0  0  0  0  0  0  0  0  0  0  0
  152.8838  138.4625  155.4047 C   0  0  0  0  0  0  0  0  0  0  0  0
  150.7164  139.0219  154.1715 C   0  0  0  0  0  0  0  0  0  0  0  0
  149.2817  139.3852  154.3030 N   0  3  1  0  0  0  0  0  0  0  0  0
  149.0401  140.8466  154.3930 C   0  0  0  0  0  0  0  0  0  0  0  0
  147.5387  141.1324  154.5611 C   0  0  0  0  0  0  0  0  0  0  0  0
  146.8188  140.5462  153.4843 O   0  0  0  0  0  0  0  0  0  0  0  0
  146.9619  139.1296  153.4483 C   0  0  1  0  0  0  0  0  0  0  0  0
  146.0757  138.5782  152.3168 C   0  0  0  0  0  0  0  0  0  0  0  0
  146.4700  137.2300  151.9220 N   0  0  0  0  0  0  0  0  0  0  0  0
  145.6190  136.2361  151.6321 C   0  0  0  0  0  0  0  0  0  0  0  0
  144.3947  136.3603  151.6682 O   0  0  0  0  0  0  0  0  0  0  0  0
  146.2734  135.1116  151.3013 N   0  0  0  0  0  0  0  0  0  0  0  0
  145.7047  133.8714  150.9170 C   0  0  0  0  0  0  0  0  0  0  0  0
  146.2792  132.5668  150.9499 C   0  0  0  0  0  0  0  0  0  0  0  0
  145.4243  131.6550  150.5088 N   0  0  0  0  0  0  0  0  0  0  0  0
  144.3147  132.3613  150.1959 N   0  0  0  0  0  0  0  0  0  0  0  0
  144.4417  133.7127  150.4293 C   0  0  0  0  0  0  0  0  0  0  0  0
  148.4490  138.7913  153.2301 C   0  0  0  0  0  0  0  0  0  0  0  0
  143.4884  131.9111  149.8285 H   0  0  0  0  0  0  0  0  0  0  0  0
  152.1908  141.1693  155.2114 H   0  0  0  0  0  0  0  0  0  0  0  0
  152.1443  140.6645  156.8987 H   0  0  0  0  0  0  0  0  0  0  0  0
  150.6499  141.0516  156.0574 H   0  0  0  0  0  0  0  0  0  0  0  0
  150.9370  138.6089  156.2840 H   0  0  0  0  0  0  0  0  0  0  0  0
  153.4945  138.9345  154.6342 H   0  0  0  0  0  0  0  0  0  0  0  0
  152.8086  137.4012  155.1675 H   0  0  0  0  0  0  0  0  0  0  0  0
  153.4214  138.5446  156.3497 H   0  0  0  0  0  0  0  0  0  0  0  0
  151.1764  139.6535  153.4097 H   0  0  0  0  0  0  0  0  0  0  0  0
  150.7961  137.9977  153.8037 H   0  0  0  0  0  0  0  0  0  0  0  0
  149.5807  141.2749  155.2359 H   0  0  0  0  0  0  0  0  0  0  0  0
  149.4120  141.3363  153.4915 H   0  0  0  0  0  0  0  0  0  0  0  0
  147.1721  140.7477  155.5141 H   0  0  0  0  0  0  0  0  0  0  0  0
  147.3583  142.2074  154.5620 H   0  0  0  0  0  0  0  0  0  0  0  0
  146.6371  138.7074  154.4011 H   0  0  0  0  0  0  0  0  0  0  0  0
  145.0330  138.5523  152.6346 H   0  0  0  0  0  0  0  0  0  0  0  0
  146.1172  139.2366  151.4475 H   0  0  0  0  0  0  0  0  0  0  0  0
  147.4604  137.0426  151.8650 H   0  0  0  0  0  0  0  0  0  0  0  0
  147.2820  135.1459  151.3238 H   0  0  0  0  0  0  0  0  0  0  0  0
  147.2604  132.2487  151.2694 H   0  0  0  0  0  0  0  0  0  0  0  0
  143.6475  134.4177  150.2330 H   0  0  0  0  0  0  0  0  0  0  0  0
  148.7844  139.1621  152.2600 H   0  0  0  0  0  0  0  0  0  0  0  0
  148.5789  137.7083  153.2225 H   0  0  0  0  0  0  0  0  0  0  0  0
  148.9588  138.9765  155.1686 H   0  0  0  0  0  0  0  0  0  0  0  0
  1  2  1  0  0  0  0
  1 22  1  0  0  0  0
  1 23  1  0  0  0  0
  1 24  1  0  0  0  0
  2  3  1  0  0  0  0
  2  4  1  0  0  0  0
  2 25  1  0  0  0  0
  3 26  1  0  0  0  0
  3 27  1  0  0  0  0
  3 28  1  0  0  0  0
  4  5  1  0  0  0  0
  4 29  1  0  0  0  0
  4 30  1  0  0  0  0
  5 20  1  0  0  0  0
  5  6  1  0  0  0  0
  5 44  1  0  0  0  0
  6  7  1  0  0  0  0
  6 31  1  0  0  0  0
  6 32  1  0  0  0  0
  7  8  1  0  0  0  0
  7 33  1  0  0  0  0
  7 34  1  0  0  0  0
  8  9  1  0  0  0  0
  9 10  1  0  0  0  0
  9 20  1  0  0  0  0
  9 35  1  0  0  0  0
 10 11  1  0  0  0  0
 10 36  1  0  0  0  0
 10 37  1  0  0  0  0
 11 12  1  0  0  0  0
 11 38  1  0  0  0  0
 12 13  2  0  0  0  0
 12 14  1  0  0  0  0
 14 15  1  0  0  0  0
 14 39  1  0  0  0  0
 15 19  2  0  0  0  0
 15 16  1  0  0  0  0
 16 17  2  0  0  0  0
 16 40  1  0  0  0  0
 17 18  1  0  0  0  0
 18 21  1  0  0  0  0
 18 19  1  0  0  0  0
 19 41  1  0  0  0  0
 20 42  1  0  0  0  0
 20 43  1  0  0  0  0
M  CHG  1   5   1
M  END
> <s_m_source_file>
AV-unprocessed.smi

> <i_m_source_file_index>
3009

> <i_lp_mmshare_version>
43012

> <i_f3d_flags>
0

> <s_epik_input>
W0NIM11bQ0hdKFtDSDNdKVtDSDJdTjFbQ0gyXVtDSDJdT1tDQEhdKFtDSDJdMSlbQ0gyXVtOSF1DKD1PKVtOSF1jMltjSF1uW25IXVtjSF0y

> <s_epik_cmdline>
J2VwaWtfcHl0aG9uJywgJy1waCcsICc3LjAnLCAnLXRuJywgJzgnLCAnLW1hJywgJzIwMCcsICctbWV0YWxfYmluZGluZycsICctaW1hZScsICc8aW5maWxlLm1hZT4nLCAnLW9tYWUnLCAnPG91dGZpbGUubWFlPic=

> <r_lp_tautomer_probability>
0.5

> <r_epik_Ionization_Penalty>
0.0974064

> <r_epik_Ionization_Penalty_Charging>
0.0973651

> <r_epik_Ionization_Penalty_Neutral>
4.13573e-05

> <r_epik_State_Penalty>
0.0874853

> <r_epik_Charging_Adjusted_Penalty>
0.18485

> <i_epik_Tot_Q>
1

> <i_epik_Tot_abs_Q>
1

> <r_epik_Metal_State_Penalty>
0.0874855

> <b_epik_Metal_Only>
0

> <s_lp_Force_Field>
OPLS_2005

> <r_lp_Energy>
19.2351

> <b_lp_Chiralities_Consistent>
1

> <s_lp_Variant>
AV-unprocessed.smi:3009-1

> <Gold.Version>
5.8.1

> <Gold.Id.Protein>
6NUR|6NUR_protein|mol2

> <Gold.PLP.Fitness>
39.0228

> <Gold.PLP.PLP>
-29.6397

> <Gold.PLP.part.hbond>
-2.2937

> <Gold.PLP.part.metal>
0.0000

> <Gold.PLP.part.buried>
0.3454

> <Gold.PLP.part.nonpolar>
-29.4729

> <Gold.PLP.part.repulsive>
1.9105

> <Gold.PLP.ligand.clash>
0.0000

> <Gold.PLP.ligand.torsion>
0.6360

> <Gold.PLP.Chemscore.Hbond>
1.9204

> <Gold.PLP.Chemscore.CHOScore>
1.6214

> <Gold.PLP.Chemscore.Metal>
0.0000

> <Gold.Chemscore.Hbonds>
donor molecule, donor type, donor heavy atom, donor atom, acceptor molecule, acceptor atom, score
      L1  H    11    38       P1  7948  1.00
      L1  H    14    39       P1  7948  0.96
      L1  C    16    40       P1 10747  1.00
      L1  C    19    41       P1 10186  0.52

> <Gold.PLP.Chemscore.Internal.Correction>
0.0297

> <Gold.Rescore>
     Score         DG    S(hbond)    S(metal)    S(lipo)     H(rot)  DE(clash)    DE(int)     intcor
     13.78     -15.93       1.91        0.00      73.97       1.80       0.20       1.95       ----

> <Gold.Chemscore.Fitness>
13.7768

> <Gold.Chemscore.DG>
-15.9312

> <Gold.Chemscore.ZeroCoef>
-5.4800

> <Gold.Chemscore.Hbond>
1.9146

> <Gold.Chemscore.Metal>
0.0000

> <Gold.Chemscore.Lipo>
73.9731

> <Gold.Chemscore.Internal_Hbond>
0.0000

> <Gold.Chemscore.DEClash>
0.2046

> <Gold.Chemscore.DEInternal>
1.9497

> <Gold.Chemscore.Rot>
1.7963

> <Gold.Chemscore.Internal.Correction>
   9.000000E+99

> <Gold.Chemscore.Hbonds>
donor molecule, donor type, donor heavy atom, donor atom, acceptor molecule, acceptor atom, score
      L1  H    11    38       P1  7948  1.00
      L1  H    14    39       P1  7948  0.62

> <Gold.Chemscore.Hbond.Weighted>
-6.3948

> <Gold.Chemscore.Metal.Weighted>
-0.0000

> <Gold.Chemscore.Lipo.Weighted>
-8.6548

> <Gold.Chemscore.Internal_Hbond.Weighted>
0.0000

> <Gold.Chemscore.DEClash.Weighted>
0.2046

> <Gold.Chemscore.DEInternal.Weighted>
1.9497

> <Gold.Chemscore.Rot.Weighted>
4.5985

> <Gold.Chemscore.Internal.Correction.Weighted>
   9.000000E+99

> <Gold.Protein.RotatedTorsions>
[ 6907 6896 6895 6894 ] final  122.17 input  -60.11 | X-H torsion
[ 7974 7965 7964 7962 ] final  158.87 input  175.53 | X-H torsion
[ 8008 7997 7996 7995 ] final  173.76 input   59.86 | X-H torsion
[ 10167 10162 10161 10158 ] final  -26.54 input  -65.29 | X-H torsion
[ 10718 10713 10712 10709 ] final  -94.18 input   66.30 | X-H torsion
[ 10763 10752 10751 10750 ] final   52.95 input  -60.55 | X-H torsion
[ 11005 11000 10999 10996 ] final   94.17 input  -57.11 | X-H torsion

> <Gold.Protein.ActiveResidues>
 VAL166  LYS551  ARG553  GLY616  TRP617  ASP618  TYR619  PRO620  LYS621  CYS622 
 ASP623  PHE694  ASN695  SER759  ASP760  ASP761  ALA762  ILE779  LEU786  VAL792 
 PHE793  MET794  SER795  GLU796  ALA797  LYS798  CYS799  TRP800  GLU811  SER814 

> <Gold.Protein.RotatedAtoms>
  152.4264  133.7202  159.6528 H   0  0  0  0  0  0  0  0  0  0  0  0  # atno 6907 bound_to 6896
  150.8141  133.8358  159.3174 H   0  0  0  0  0  0  0  0  0  0  0  0  # atno 6908 bound_to 6896
  151.6060  135.1046  160.0122 H   0  0  0  0  0  0  0  0  0  0  0  0  # atno 6909 bound_to 6896
  144.7821  139.7539  143.6255 H   0  0  0  0  0  0  0  0  0  0  0  0  # atno 7974 bound_to 7965
  156.1043  140.1452  156.9425 H   0  0  0  0  0  0  0  0  0  0  0  0  # atno 8008 bound_to 7997
  154.4723  140.0906  156.7221 H   0  0  0  0  0  0  0  0  0  0  0  0  # atno 8009 bound_to 7997
  155.4706  140.3441  155.4327 H   0  0  0  0  0  0  0  0  0  0  0  0  # atno 8010 bound_to 7997
  140.7282  143.4169  151.1014 H   0  0  0  0  0  0  0  0  0  0  0  0  # atno 10167 bound_to 10162
  156.0023  130.5057  150.5888 H   0  0  0  0  0  0  0  0  0  0  0  0  # atno 10718 bound_to 10713
  152.9792  135.5795  154.4662 H   0  0  0  0  0  0  0  0  0  0  0  0  # atno 10763 bound_to 10752
  154.4231  135.2772  155.1964 H   0  0  0  0  0  0  0  0  0  0  0  0  # atno 10764 bound_to 10752
  154.3704  135.6169  153.5791 H   0  0  0  0  0  0  0  0  0  0  0  0  # atno 10765 bound_to 10752
  139.8801  134.8830  156.3825 H   0  0  0  0  0  0  0  0  0  0  0  0  # atno 11005 bound_to 11000
  146.2035  139.5344  142.9728 LP  0  0  0  0  0  0  0  0  0  0  0  0  # atno 17320 bound_to 7965
  145.6021  141.0353  143.2012 LP  0  0  0  0  0  0  0  0  0  0  0  0  # atno 17321 bound_to 7965
  139.7810  143.8355  152.3137 LP  0  0  0  0  0  0  0  0  0  0  0  0  # atno 17342 bound_to 10162
  139.8307  144.7255  150.9455 LP  0  0  0  0  0  0  0  0  0  0  0  0  # atno 17343 bound_to 10162
  157.3756  131.0773  151.1520 LP  0  0  0  0  0  0  0  0  0  0  0  0  # atno 17370 bound_to 10713
  157.2259  130.6503  149.5830 LP  0  0  0  0  0  0  0  0  0  0  0  0  # atno 17371 bound_to 10713
  140.9389  133.7528  156.0121 LP  0  0  0  0  0  0  0  0  0  0  0  0  # atno 17394 bound_to 11000
  140.8243  134.3253  157.5371 LP  0  0  0  0  0  0  0  0  0  0  0  0  # atno 17395 bound_to 11000

$$$$
