AV-unprocessed.smi:1553|AV-procd|sdf|6239|dock7
  -GOLD-   22720 6423D 1   1.00000     0.00000
 Structure written by MMmdl.
 37 38  0  0  0  0  0  0  0  0  1 V2000
  152.9775  138.3818  157.6061 C   0  0  0  0  0  0  0  0  0  0  0  0
  152.0548  138.8899  156.5518 C   0  0  0  0  0  0  0  0  0  0  0  0
  151.1387  139.8376  156.7663 N   0  0  0  0  0  0  0  0  0  0  0  0
  150.3983  140.1408  155.6195 C   0  0  0  0  0  0  0  0  0  0  0  0
  149.3211  141.1807  155.6785 C   0  0  0  0  0  0  0  0  0  0  0  0
  149.1408  141.7493  157.0957 C   0  0  0  0  0  0  0  0  0  0  0  0
  150.4212  142.0933  157.7028 N   0  0  0  0  0  0  0  0  0  0  0  0
  150.5945  142.9818  158.6963 C   0  0  0  0  0  0  0  0  0  0  0  0
  149.6625  143.6381  159.1611 O   0  0  0  0  0  0  0  0  0  0  0  0
  151.8953  143.1620  159.0365 N   0  0  0  0  0  0  0  0  0  0  0  0
  152.8504  142.0434  159.0168 C   0  0  0  0  0  0  0  0  0  0  0  0
  152.9415  141.4575  160.4396 C   0  0  0  0  0  0  0  0  0  0  0  0
  153.3440  142.4719  161.3571 O   0  0  0  0  0  0  0  0  0  0  0  0
  152.4740  143.6019  161.3696 C   0  0  0  0  0  0  0  0  0  0  0  0
  152.4012  144.2043  159.9521 C   0  0  2  0  0  0  0  0  0  0  0  0
  151.6472  145.5503  159.9163 C   0  0  0  0  0  0  0  0  0  0  0  0
  150.7679  139.3989  154.5253 C   0  0  0  0  0  0  0  0  0  0  0  0
  152.0632  138.2944  154.8965 S   0  0  0  0  0  0  0  0  0  0  0  0
  152.9606  139.0359  158.4785 H   0  0  0  0  0  0  0  0  0  0  0  0
  153.9968  138.3398  157.2218 H   0  0  0  0  0  0  0  0  0  0  0  0
  152.6762  137.3804  157.9132 H   0  0  0  0  0  0  0  0  0  0  0  0
  149.5538  141.9894  154.9842 H   0  0  0  0  0  0  0  0  0  0  0  0
  148.3768  140.7562  155.3349 H   0  0  0  0  0  0  0  0  0  0  0  0
  148.5332  142.6538  157.0568 H   0  0  0  0  0  0  0  0  0  0  0  0
  148.6029  141.0415  157.7291 H   0  0  0  0  0  0  0  0  0  0  0  0
  151.2388  141.6246  157.3405 H   0  0  0  0  0  0  0  0  0  0  0  0
  152.5772  141.2526  158.3174 H   0  0  0  0  0  0  0  0  0  0  0  0
  153.8290  142.3989  158.6910 H   0  0  0  0  0  0  0  0  0  0  0  0
  151.9834  141.0371  160.7491 H   0  0  0  0  0  0  0  0  0  0  0  0
  153.6700  140.6471  160.4683 H   0  0  0  0  0  0  0  0  0  0  0  0
  151.4848  143.3115  161.7274 H   0  0  0  0  0  0  0  0  0  0  0  0
  152.8682  144.3335  162.0752 H   0  0  0  0  0  0  0  0  0  0  0  0
  153.4197  144.4380  159.6371 H   0  0  0  0  0  0  0  0  0  0  0  0
  152.2081  146.3139  160.4557 H   0  0  0  0  0  0  0  0  0  0  0  0
  150.6666  145.4927  160.3879 H   0  0  0  0  0  0  0  0  0  0  0  0
  151.5161  145.9057  158.8937 H   0  0  0  0  0  0  0  0  0  0  0  0
  150.3571  139.4338  153.5272 H   0  0  0  0  0  0  0  0  0  0  0  0
  1  2  1  0  0  0  0
  1 19  1  0  0  0  0
  1 20  1  0  0  0  0
  1 21  1  0  0  0  0
  2 18  1  0  0  0  0
  2  3  2  0  0  0  0
  3  4  1  0  0  0  0
  4  5  1  0  0  0  0
  4 17  2  0  0  0  0
  5  6  1  0  0  0  0
  5 22  1  0  0  0  0
  5 23  1  0  0  0  0
  6  7  1  0  0  0  0
  6 24  1  0  0  0  0
  6 25  1  0  0  0  0
  7  8  1  0  0  0  0
  7 26  1  0  0  0  0
  8  9  2  0  0  0  0
  8 10  1  0  0  0  0
 10 15  1  0  0  0  0
 10 11  1  0  0  0  0
 11 12  1  0  0  0  0
 11 27  1  0  0  0  0
 11 28  1  0  0  0  0
 12 13  1  0  0  0  0
 12 29  1  0  0  0  0
 12 30  1  0  0  0  0
 13 14  1  0  0  0  0
 14 15  1  0  0  0  0
 14 31  1  0  0  0  0
 14 32  1  0  0  0  0
 15 16  1  0  0  0  0
 15 33  1  0  0  0  0
 16 34  1  0  0  0  0
 16 35  1  0  0  0  0
 16 36  1  0  0  0  0
 17 18  1  0  0  0  0
 17 37  1  0  0  0  0
M  END
> <s_m_source_file>
AV-unprocessed.smi

> <i_m_source_file_index>
1553

> <i_lp_mmshare_version>
43012

> <i_f3d_flags>
0

> <s_epik_input>
W0NIM11jMW5jKFtjSF1zMSlbQ0gyXVtDSDJdW05IXUMoPU8pTjJbQ0gyXVtDSDJdT1tDSDJdW0NASF0yW0NIM10=

> <s_epik_cmdline>
J2VwaWtfcHl0aG9uJywgJy1waCcsICc3LjAnLCAnLXRuJywgJzgnLCAnLW1hJywgJzIwMCcsICctbWV0YWxfYmluZGluZycsICctaW1hZScsICc8aW5maWxlLm1hZT4nLCAnLW9tYWUnLCAnPG91dGZpbGUubWFlPic=

> <r_epik_Ionization_Penalty>
0.0020768

> <r_epik_Ionization_Penalty_Charging>
0

> <r_epik_Ionization_Penalty_Neutral>
0.0020768

> <r_epik_State_Penalty>
0.00139904

> <r_epik_Charging_Adjusted_Penalty>
0.00139904

> <i_epik_Tot_Q>
0

> <i_epik_Tot_abs_Q>
0

> <r_epik_Metal_State_Penalty>
-0

> <b_epik_Metal_Only>
0

> <s_lp_Force_Field>
OPLS_2005

> <r_lp_Energy>
26.8806

> <b_lp_Chiralities_Consistent>
1

> <s_lp_Variant>
AV-unprocessed.smi:1553-2

> <Gold.Version>
5.8.1

> <Gold.Id.Protein>
6NUR|6NUR_protein|mol2

> <Gold.PLP.Fitness>
40.6035

> <Gold.PLP.PLP>
-38.0857

> <Gold.PLP.part.hbond>
-0.2654

> <Gold.PLP.part.metal>
0.0000

> <Gold.PLP.part.buried>
-3.6471

> <Gold.PLP.part.nonpolar>
-33.7851

> <Gold.PLP.part.repulsive>
0.2027

> <Gold.PLP.ligand.clash>
0.0000

> <Gold.PLP.ligand.torsion>
0.4521

> <Gold.PLP.Chemscore.Hbond>
0.0000

> <Gold.PLP.Chemscore.CHOScore>
1.0000

> <Gold.PLP.Chemscore.Metal>
0.0000

> <Gold.Chemscore.Hbonds>
donor molecule, donor type, donor heavy atom, donor atom, acceptor molecule, acceptor atom, score
      L1  C    17    37       P1  7957  0.96

> <Gold.PLP.Chemscore.Internal.Correction>
0.4221

> <Gold.Rescore>
     Score         DG    S(hbond)    S(metal)    S(lipo)     H(rot)  DE(clash)    DE(int)     intcor
     11.91     -13.71       0.00        0.00      99.47       1.33       0.05       1.74       ----

> <Gold.Chemscore.Fitness>
11.9137

> <Gold.Chemscore.DG>
-13.7070

> <Gold.Chemscore.ZeroCoef>
-5.4800

> <Gold.Chemscore.Hbond>
0.0000

> <Gold.Chemscore.Metal>
0.0000

> <Gold.Chemscore.Lipo>
99.4711

> <Gold.Chemscore.Internal_Hbond>
0.0000

> <Gold.Chemscore.DEClash>
0.0505

> <Gold.Chemscore.DEInternal>
1.7429

> <Gold.Chemscore.Rot>
1.3325

> <Gold.Chemscore.Internal.Correction>
   9.000000E+99

> <Gold.Chemscore.Hbond.Weighted>
-0.0000

> <Gold.Chemscore.Metal.Weighted>
-0.0000

> <Gold.Chemscore.Lipo.Weighted>
-11.6381

> <Gold.Chemscore.Internal_Hbond.Weighted>
0.0000

> <Gold.Chemscore.DEClash.Weighted>
0.0505

> <Gold.Chemscore.DEInternal.Weighted>
1.7429

> <Gold.Chemscore.Rot.Weighted>
3.4111

> <Gold.Chemscore.Internal.Correction.Weighted>
   9.000000E+99

> <Gold.Protein.RotatedTorsions>
[ 6907 6896 6895 6894 ] final  159.15 input  -60.11 | X-H torsion
[ 7974 7965 7964 7962 ] final -116.84 input  175.53 | X-H torsion
[ 8008 7997 7996 7995 ] final -107.39 input   59.86 | X-H torsion
[ 10167 10162 10161 10158 ] final -131.84 input  -65.29 | X-H torsion
[ 10718 10713 10712 10709 ] final  -48.26 input   66.30 | X-H torsion
[ 10763 10752 10751 10750 ] final    9.08 input  -60.55 | X-H torsion
[ 11005 11000 10999 10996 ] final   93.96 input  -57.11 | X-H torsion

> <Gold.Protein.ActiveResidues>
 VAL166  LYS551  ARG553  GLY616  TRP617  ASP618  TYR619  PRO620  LYS621  CYS622 
 ASP623  PHE694  ASN695  SER759  ASP760  ASP761  ALA762  ILE779  LEU786  VAL792 
 PHE793  MET794  SER795  GLU796  ALA797  LYS798  CYS799  TRP800  GLU811  SER814 

> <Gold.Protein.RotatedAtoms>
  151.9898  133.3787  159.4139 H   0  0  0  0  0  0  0  0  0  0  0  0  # atno 6907 bound_to 6896
  150.6923  134.3949  159.5102 H   0  0  0  0  0  0  0  0  0  0  0  0  # atno 6908 bound_to 6896
  152.1680  134.8857  160.0587 H   0  0  0  0  0  0  0  0  0  0  0  0  # atno 6909 bound_to 6896
  145.0922  140.8497  143.3976 H   0  0  0  0  0  0  0  0  0  0  0  0  # atno 7974 bound_to 7965
  154.9287  140.0405  157.2036 H   0  0  0  0  0  0  0  0  0  0  0  0  # atno 8008 bound_to 7997
  154.8182  140.2879  155.5784 H   0  0  0  0  0  0  0  0  0  0  0  0  # atno 8009 bound_to 7997
  156.2977  140.2524  156.3084 H   0  0  0  0  0  0  0  0  0  0  0  0  # atno 8010 bound_to 7997
  139.9148  143.6452  152.2567 H   0  0  0  0  0  0  0  0  0  0  0  0  # atno 10167 bound_to 10162
  156.2005  130.4156  149.9248 H   0  0  0  0  0  0  0  0  0  0  0  0  # atno 10718 bound_to 10713
  153.2179  135.6877  153.8035 H   0  0  0  0  0  0  0  0  0  0  0  0  # atno 10763 bound_to 10752
  153.7244  135.3262  155.3274 H   0  0  0  0  0  0  0  0  0  0  0  0  # atno 10764 bound_to 10752
  154.8255  135.4621  154.1014 H   0  0  0  0  0  0  0  0  0  0  0  0  # atno 10765 bound_to 10752
  139.8804  134.8819  156.3793 H   0  0  0  0  0  0  0  0  0  0  0  0  # atno 11005 bound_to 11000
  145.1053  139.2794  143.5665 LP  0  0  0  0  0  0  0  0  0  0  0  0  # atno 17320 bound_to 7965
  146.3531  140.0632  142.8628 LP  0  0  0  0  0  0  0  0  0  0  0  0  # atno 17321 bound_to 7965
  139.6912  144.7646  151.1435 LP  0  0  0  0  0  0  0  0  0  0  0  0  # atno 17342 bound_to 10162
  140.7677  143.5587  150.9123 LP  0  0  0  0  0  0  0  0  0  0  0  0  # atno 17343 bound_to 10162
  156.6959  130.8914  151.3594 LP  0  0  0  0  0  0  0  0  0  0  0  0  # atno 17370 bound_to 10713
  157.6983  130.9305  150.0708 LP  0  0  0  0  0  0  0  0  0  0  0  0  # atno 17371 bound_to 10713
  140.9409  133.7515  156.0146 LP  0  0  0  0  0  0  0  0  0  0  0  0  # atno 17394 bound_to 11000
  140.8220  134.3278  157.5378 LP  0  0  0  0  0  0  0  0  0  0  0  0  # atno 17395 bound_to 11000

$$$$
