AV-unprocessed.smi:365|AV-procd|sdf|2427|dock6
  -GOLD-   2262022363D 1   1.00000     0.00000
 Structure written by MMmdl.
 53 54  0  0  0  0  0  0  0  0  1 V2000
  149.8430  133.6353  154.6051 C   0  0  0  0  0  0  0  0  0  0  0  0
  149.2883  134.9921  155.0691 C   0  0  2  0  0  0  0  0  0  0  0  0
  148.1906  135.3634  154.1787 N   0  0  0  0  0  0  0  0  0  0  0  0
  146.9005  135.4850  154.5391 C   0  0  0  0  0  0  0  0  0  0  0  0
  146.5182  135.2576  155.6883 O   0  0  0  0  0  0  0  0  0  0  0  0
  145.8789  135.9361  153.4676 C   0  0  0  0  0  0  0  0  0  0  0  0
  144.4691  135.8983  154.0915 C   0  0  0  0  0  0  0  0  0  0  0  0
  145.9324  134.9504  152.2818 C   0  0  0  0  0  0  0  0  0  0  0  0
  146.1613  137.3640  152.9426 C   0  0  0  0  0  0  0  0  0  0  0  0
  150.4138  136.0349  154.9846 C   0  0  0  0  0  0  0  0  0  0  0  0
  151.4458  135.8987  155.6440 O   0  0  0  0  0  0  0  0  0  0  0  0
  150.1988  137.0720  154.1614 N   0  0  0  0  0  0  0  0  0  0  0  0
  151.1537  138.1441  153.8999 C   0  0  0  0  0  0  0  0  0  0  0  0
  151.3780  139.0990  155.0662 C   0  0  0  0  0  0  0  0  0  0  0  0
  150.4584  140.1370  155.3087 C   0  0  0  0  0  0  0  0  0  0  0  0
  150.6835  141.0212  156.3811 C   0  0  0  0  0  0  0  0  0  0  0  0
  151.8353  140.8500  157.1916 C   0  0  0  0  0  0  0  0  0  0  0  0
  152.1201  141.6992  158.2870 N   0  0  0  0  0  0  0  0  0  0  0  0
  151.3248  142.9234  158.3933 C   0  0  0  0  0  0  0  0  0  0  0  0
  151.9546  143.8963  159.4043 C   0  0  0  0  0  0  0  0  0  0  0  0
  152.1391  143.2408  160.6536 O   0  0  0  0  0  0  0  0  0  0  0  0
  153.0337  142.1408  160.5384 C   0  0  0  0  0  0  0  0  0  0  0  0
  152.4517  141.0929  159.5746 C   0  0  0  0  0  0  0  0  0  0  0  0
  152.7173  139.8491  156.9511 N   0  0  0  0  0  0  0  0  0  0  0  0
  152.4970  139.0048  155.9220 C   0  0  0  0  0  0  0  0  0  0  0  0
  150.6742  133.3119  155.2330 H   0  0  0  0  0  0  0  0  0  0  0  0
  150.1984  133.6708  153.5741 H   0  0  0  0  0  0  0  0  0  0  0  0
  149.0755  132.8627  154.6613 H   0  0  0  0  0  0  0  0  0  0  0  0
  148.9235  134.9057  156.0948 H   0  0  0  0  0  0  0  0  0  0  0  0
  148.4339  135.5739  153.2218 H   0  0  0  0  0  0  0  0  0  0  0  0
  143.7095  136.1956  153.3676 H   0  0  0  0  0  0  0  0  0  0  0  0
  144.3917  136.5767  154.9426 H   0  0  0  0  0  0  0  0  0  0  0  0
  144.2064  134.8994  154.4432 H   0  0  0  0  0  0  0  0  0  0  0  0
  145.6814  133.9331  152.5859 H   0  0  0  0  0  0  0  0  0  0  0  0
  146.9246  134.9233  151.8289 H   0  0  0  0  0  0  0  0  0  0  0  0
  145.2262  135.2349  151.5011 H   0  0  0  0  0  0  0  0  0  0  0  0
  145.4356  137.6511  152.1809 H   0  0  0  0  0  0  0  0  0  0  0  0
  147.1500  137.4398  152.4875 H   0  0  0  0  0  0  0  0  0  0  0  0
  146.0994  138.1084  153.7378 H   0  0  0  0  0  0  0  0  0  0  0  0
  149.3236  137.1063  153.6592 H   0  0  0  0  0  0  0  0  0  0  0  0
  152.1105  137.6877  153.6459 H   0  0  0  0  0  0  0  0  0  0  0  0
  150.8395  138.7092  153.0207 H   0  0  0  0  0  0  0  0  0  0  0  0
  149.5882  140.2582  154.6801 H   0  0  0  0  0  0  0  0  0  0  0  0
  149.9719  141.8149  156.5483 H   0  0  0  0  0  0  0  0  0  0  0  0
  151.2373  143.4333  157.4340 H   0  0  0  0  0  0  0  0  0  0  0  0
  150.3147  142.6589  158.7083 H   0  0  0  0  0  0  0  0  0  0  0  0
  152.9086  144.2767  159.0352 H   0  0  0  0  0  0  0  0  0  0  0  0
  151.3040  144.7589  159.5489 H   0  0  0  0  0  0  0  0  0  0  0  0
  154.0098  142.4862  160.1939 H   0  0  0  0  0  0  0  0  0  0  0  0
  153.1831  141.7001  161.5239 H   0  0  0  0  0  0  0  0  0  0  0  0
  151.5542  140.6454  160.0032 H   0  0  0  0  0  0  0  0  0  0  0  0
  153.1880  140.2998  159.4430 H   0  0  0  0  0  0  0  0  0  0  0  0
  153.2449  138.2381  155.7841 H   0  0  0  0  0  0  0  0  0  0  0  0
  1  2  1  0  0  0  0
  1 26  1  0  0  0  0
  1 27  1  0  0  0  0
  1 28  1  0  0  0  0
  2  3  1  0  0  0  0
  2 10  1  0  0  0  0
  2 29  1  0  0  0  0
  3  4  1  0  0  0  0
  3 30  1  0  0  0  0
  4  5  2  0  0  0  0
  4  6  1  0  0  0  0
  6  7  1  0  0  0  0
  6  8  1  0  0  0  0
  6  9  1  0  0  0  0
  7 31  1  0  0  0  0
  7 32  1  0  0  0  0
  7 33  1  0  0  0  0
  8 34  1  0  0  0  0
  8 35  1  0  0  0  0
  8 36  1  0  0  0  0
  9 37  1  0  0  0  0
  9 38  1  0  0  0  0
  9 39  1  0  0  0  0
 10 11  2  0  0  0  0
 10 12  1  0  0  0  0
 12 13  1  0  0  0  0
 12 40  1  0  0  0  0
 13 14  1  0  0  0  0
 13 41  1  0  0  0  0
 13 42  1  0  0  0  0
 14 25  1  0  0  0  0
 14 15  2  0  0  0  0
 15 16  1  0  0  0  0
 15 43  1  0  0  0  0
 16 17  2  0  0  0  0
 16 44  1  0  0  0  0
 17 18  1  0  0  0  0
 17 24  1  0  0  0  0
 18 23  1  0  0  0  0
 18 19  1  0  0  0  0
 19 20  1  0  0  0  0
 19 45  1  0  0  0  0
 19 46  1  0  0  0  0
 20 21  1  0  0  0  0
 20 47  1  0  0  0  0
 20 48  1  0  0  0  0
 21 22  1  0  0  0  0
 22 23  1  0  0  0  0
 22 49  1  0  0  0  0
 22 50  1  0  0  0  0
 23 51  1  0  0  0  0
 23 52  1  0  0  0  0
 24 25  2  0  0  0  0
 25 53  1  0  0  0  0
M  END
> <s_m_source_file>
AV-unprocessed.smi

> <i_m_source_file_index>
365

> <i_lp_mmshare_version>
43012

> <i_f3d_flags>
0

> <s_epik_input>
W0NIM11DKFtDSDNdKShbQ0gzXSlDKD1PKVtOSF1bQ0BASF0oW0NIM10pQyg9TylbTkhdW0NIMl1jMVtjSF1bY0hdYyhuW2NIXTEpTjJbQ0gyXVtDSDJdT1tDSDJdW0NIMl0y

> <s_epik_cmdline>
J2VwaWtfcHl0aG9uJywgJy1waCcsICc3LjAnLCAnLXRuJywgJzgnLCAnLW1hJywgJzIwMCcsICctbWV0YWxfYmluZGluZycsICctaW1hZScsICc8aW5maWxlLm1hZT4nLCAnLW9tYWUnLCAnPG91dGZpbGUubWFlPic=

> <r_lp_tautomer_probability>
1

> <r_epik_Ionization_Penalty>
0.00484327

> <r_epik_Ionization_Penalty_Charging>
0

> <r_epik_Ionization_Penalty_Neutral>
0.00484327

> <r_epik_State_Penalty>
0.0035131

> <r_epik_Charging_Adjusted_Penalty>
0.0035131

> <i_epik_Tot_Q>
0

> <i_epik_Tot_abs_Q>
0

> <r_epik_Metal_State_Penalty>
-0

> <b_epik_Metal_Only>
0

> <s_lp_Force_Field>
OPLS_2005

> <r_lp_Energy>
21.7768

> <b_lp_Chiralities_Consistent>
1

> <s_lp_Variant>
AV-unprocessed.smi:365-1

> <Gold.Version>
5.8.1

> <Gold.Id.Protein>
6NUR|6NUR_protein|mol2

> <Gold.PLP.Fitness>
51.4231

> <Gold.PLP.PLP>
-41.7105

> <Gold.PLP.part.hbond>
-4.9240

> <Gold.PLP.part.metal>
0.0000

> <Gold.PLP.part.buried>
-3.1576

> <Gold.PLP.part.nonpolar>
-33.3327

> <Gold.PLP.part.repulsive>
0.1916

> <Gold.PLP.ligand.clash>
0.0000

> <Gold.PLP.ligand.torsion>
0.6482

> <Gold.PLP.Chemscore.Hbond>
3.4960

> <Gold.PLP.Chemscore.CHOScore>
0.0000

> <Gold.PLP.Chemscore.Metal>
0.0000

> <Gold.Chemscore.Hbonds>
donor molecule, donor type, donor heavy atom, donor atom, acceptor molecule, acceptor atom, score
      L1  H     3    30       P1  7948  1.00
      L1  H    12    40       P1  7948  0.48
      P1  H  7997  8010       L1    24  1.00
      P1  H 10752 10764       L1    11  1.00

> <Gold.PLP.Chemscore.Internal.Correction>
0.5209

> <Gold.Rescore>
     Score         DG    S(hbond)    S(metal)    S(lipo)     H(rot)  DE(clash)    DE(int)     intcor
     21.39     -22.00       3.00        0.00     100.21       2.04       0.08       0.52       ----

> <Gold.Chemscore.Fitness>
21.3935

> <Gold.Chemscore.DG>
-21.9979

> <Gold.Chemscore.ZeroCoef>
-5.4800

> <Gold.Chemscore.Hbond>
2.9963

> <Gold.Chemscore.Metal>
0.0000

> <Gold.Chemscore.Lipo>
100.2065

> <Gold.Chemscore.Internal_Hbond>
0.0000

> <Gold.Chemscore.DEClash>
0.0843

> <Gold.Chemscore.DEInternal>
0.5202

> <Gold.Chemscore.Rot>
2.0367

> <Gold.Chemscore.Internal.Correction>
   9.000000E+99

> <Gold.Chemscore.Hbonds>
donor molecule, donor type, donor heavy atom, donor atom, acceptor molecule, acceptor atom, score
      L1  H     3    30       P1  7948  0.97
      L1  H    12    40       P1  7948  0.45
      P1  H  7997  8010       L1    24  0.25
      P1  H 10752 10764       L1    11  0.90

> <Gold.Chemscore.Hbond.Weighted>
-10.0077

> <Gold.Chemscore.Metal.Weighted>
-0.0000

> <Gold.Chemscore.Lipo.Weighted>
-11.7242

> <Gold.Chemscore.Internal_Hbond.Weighted>
0.0000

> <Gold.Chemscore.DEClash.Weighted>
0.0843

> <Gold.Chemscore.DEInternal.Weighted>
0.5202

> <Gold.Chemscore.Rot.Weighted>
5.2140

> <Gold.Chemscore.Internal.Correction.Weighted>
   9.000000E+99

> <Gold.Protein.RotatedTorsions>
[ 6907 6896 6895 6894 ] final -146.75 input  -60.11 | X-H torsion
[ 7974 7965 7964 7962 ] final   43.88 input  175.53 | X-H torsion
[ 8008 7997 7996 7995 ] final   47.44 input   59.86 | X-H torsion
[ 10167 10162 10161 10158 ] final -100.25 input  -65.29 | X-H torsion
[ 10718 10713 10712 10709 ] final  -87.18 input   66.30 | X-H torsion
[ 10763 10752 10751 10750 ] final  -57.21 input  -60.55 | X-H torsion
[ 11005 11000 10999 10996 ] final   78.61 input  -57.11 | X-H torsion

> <Gold.Protein.ActiveResidues>
 VAL166  LYS551  ARG553  GLY616  TRP617  ASP618  TYR619  PRO620  LYS621  CYS622 
 ASP623  PHE694  ASN695  SER759  ASP760  ASP761  ALA762  ILE779  LEU786  VAL792 
 PHE793  MET794  SER795  GLU796  ALA797  LYS798  CYS799  TRP800  GLU811  SER814 

> <Gold.Protein.RotatedAtoms>
  151.1460  133.4939  159.2595 H   0  0  0  0  0  0  0  0  0  0  0  0  # atno 6907 bound_to 6896
  151.1604  135.0270  159.8718 H   0  0  0  0  0  0  0  0  0  0  0  0  # atno 6908 bound_to 6896
  152.5463  134.1335  159.8502 H   0  0  0  0  0  0  0  0  0  0  0  0  # atno 6909 bound_to 6896
  146.0617  139.5137  142.9654 H   0  0  0  0  0  0  0  0  0  0  0  0  # atno 7974 bound_to 7965
  155.3692  140.3423  155.4243 H   0  0  0  0  0  0  0  0  0  0  0  0  # atno 8008 bound_to 7997
  156.1672  140.1620  156.8545 H   0  0  0  0  0  0  0  0  0  0  0  0  # atno 8009 bound_to 7997
  154.5197  140.0770  156.8130 H   0  0  0  0  0  0  0  0  0  0  0  0  # atno 8010 bound_to 7997
  140.2538  143.3454  152.0690 H   0  0  0  0  0  0  0  0  0  0  0  0  # atno 10167 bound_to 10162
  155.9986  130.4791  150.4827 H   0  0  0  0  0  0  0  0  0  0  0  0  # atno 10718 bound_to 10713
  154.2188  135.6381  153.5138 H   0  0  0  0  0  0  0  0  0  0  0  0  # atno 10763 bound_to 10752
  152.9973  135.5491  154.6137 H   0  0  0  0  0  0  0  0  0  0  0  0  # atno 10764 bound_to 10752
  154.5592  135.2907  155.0910 H   0  0  0  0  0  0  0  0  0  0  0  0  # atno 10765 bound_to 10752
  139.9206  134.7777  156.1672 H   0  0  0  0  0  0  0  0  0  0  0  0  # atno 11005 bound_to 11000
  145.6548  141.0254  143.1740 LP  0  0  0  0  0  0  0  0  0  0  0  0  # atno 17320 bound_to 7965
  144.7179  139.8133  143.7392 LP  0  0  0  0  0  0  0  0  0  0  0  0  # atno 17321 bound_to 7965
  139.5038  144.6762  151.6122 LP  0  0  0  0  0  0  0  0  0  0  0  0  # atno 17342 bound_to 10162
  140.6019  143.9594  150.6392 LP  0  0  0  0  0  0  0  0  0  0  0  0  # atno 17343 bound_to 10162
  157.2831  131.0611  151.2184 LP  0  0  0  0  0  0  0  0  0  0  0  0  # atno 17370 bound_to 10713
  157.3224  130.6943  149.6276 LP  0  0  0  0  0  0  0  0  0  0  0  0  # atno 17371 bound_to 10713
  141.0722  133.6791  156.2164 LP  0  0  0  0  0  0  0  0  0  0  0  0  # atno 17394 bound_to 11000
  140.6487  134.5089  157.5576 LP  0  0  0  0  0  0  0  0  0  0  0  0  # atno 17395 bound_to 11000

$$$$
