AV-unprocessed.smi:2723|AV-procd|sdf|10506|dock7
  -GOLD-   2272014553D 1   1.00000     0.00000
 Structure written by MMmdl.
 35 36  0  0  0  0  0  0  0  0  1 V2000
  149.6275  132.2030  154.5955 C   0  0  0  0  0  0  0  0  0  0  0  0
  149.4962  133.6458  154.0960 C   0  0  0  0  0  0  0  0  0  0  0  0
  150.1418  134.6602  155.0540 C   0  0  0  0  0  0  0  0  0  0  0  0
  150.4174  135.9271  154.3871 N   0  0  0  0  0  0  0  0  0  0  0  0
  151.2927  136.8505  154.8160 C   0  0  0  0  0  0  0  0  0  0  0  0
  151.9561  136.7290  155.8458 O   0  0  0  0  0  0  0  0  0  0  0  0
  151.4426  138.1063  153.9549 C   0  0  0  0  0  0  0  0  0  0  0  0
  151.0017  139.3231  154.7171 C   0  0  0  0  0  0  0  0  0  0  0  0
  149.9555  140.1579  154.4065 C   0  0  0  0  0  0  0  0  0  0  0  0
  149.7869  141.4524  155.5599 S   0  0  0  0  0  0  0  0  0  0  0  0
  151.1767  140.8060  156.4375 C   0  0  0  0  0  0  0  0  0  0  0  0
  151.7559  141.3492  157.6228 N   0  0  0  0  0  0  0  0  0  0  0  0
  151.4086  142.6824  158.1061 C   0  0  0  0  0  0  0  0  0  0  0  0
  152.0403  142.8029  159.4970 C   0  0  0  0  0  0  0  0  0  0  0  0
  153.0502  141.6603  159.5822 C   0  0  0  0  0  0  0  0  0  0  0  0
  152.6739  140.7647  158.4132 C   0  0  0  0  0  0  0  0  0  0  0  0
  153.1871  139.6571  158.2612 O   0  0  0  0  0  0  0  0  0  0  0  0
  151.6897  139.7074  155.8731 N   0  0  0  0  0  0  0  0  0  0  0  0
  149.1586  131.5069  153.8994 H   0  0  0  0  0  0  0  0  0  0  0  0
  149.1477  132.0767  155.5664 H   0  0  0  0  0  0  0  0  0  0  0  0
  150.6744  131.9161  154.6978 H   0  0  0  0  0  0  0  0  0  0  0  0
  149.9544  133.7226  153.1092 H   0  0  0  0  0  0  0  0  0  0  0  0
  148.4404  133.8859  153.9648 H   0  0  0  0  0  0  0  0  0  0  0  0
  149.4716  134.8586  155.8907 H   0  0  0  0  0  0  0  0  0  0  0  0
  151.0599  134.2536  155.4818 H   0  0  0  0  0  0  0  0  0  0  0  0
  149.9165  136.1109  153.5298 H   0  0  0  0  0  0  0  0  0  0  0  0
  152.4821  138.1964  153.6357 H   0  0  0  0  0  0  0  0  0  0  0  0
  150.8511  137.9939  153.0455 H   0  0  0  0  0  0  0  0  0  0  0  0
  149.2727  140.0856  153.5729 H   0  0  0  0  0  0  0  0  0  0  0  0
  151.8229  143.4288  157.4267 H   0  0  0  0  0  0  0  0  0  0  0  0
  150.3277  142.8259  158.1496 H   0  0  0  0  0  0  0  0  0  0  0  0
  152.5071  143.7769  159.6474 H   0  0  0  0  0  0  0  0  0  0  0  0
  151.2772  142.6806  160.2671 H   0  0  0  0  0  0  0  0  0  0  0  0
  154.0707  142.0206  159.4477 H   0  0  0  0  0  0  0  0  0  0  0  0
  152.9895  141.1260  160.5308 H   0  0  0  0  0  0  0  0  0  0  0  0
  1  2  1  0  0  0  0
  1 19  1  0  0  0  0
  1 20  1  0  0  0  0
  1 21  1  0  0  0  0
  2  3  1  0  0  0  0
  2 22  1  0  0  0  0
  2 23  1  0  0  0  0
  3  4  1  0  0  0  0
  3 24  1  0  0  0  0
  3 25  1  0  0  0  0
  4  5  1  0  0  0  0
  4 26  1  0  0  0  0
  5  6  2  0  0  0  0
  5  7  1  0  0  0  0
  7  8  1  0  0  0  0
  7 27  1  0  0  0  0
  7 28  1  0  0  0  0
  8 18  1  0  0  0  0
  8  9  2  0  0  0  0
  9 10  1  0  0  0  0
  9 29  1  0  0  0  0
 10 11  1  0  0  0  0
 11 12  1  0  0  0  0
 11 18  2  0  0  0  0
 12 16  1  0  0  0  0
 12 13  1  0  0  0  0
 13 14  1  0  0  0  0
 13 30  1  0  0  0  0
 13 31  1  0  0  0  0
 14 15  1  0  0  0  0
 14 32  1  0  0  0  0
 14 33  1  0  0  0  0
 15 16  1  0  0  0  0
 15 34  1  0  0  0  0
 15 35  1  0  0  0  0
 16 17  2  0  0  0  0
M  END
> <s_m_source_file>
AV-unprocessed.smi

> <i_m_source_file_index>
2723

> <i_lp_mmshare_version>
43012

> <i_f3d_flags>
0

> <s_epik_input>
W0NIM11bQ0gyXVtDSDJdW05IXUMoPU8pW0NIMl1jMVtjSF1zYyhuMSlOMltDSDJdW0NIMl1bQ0gyXUMyPU8=

> <s_epik_cmdline>
J2VwaWtfcHl0aG9uJywgJy1waCcsICc3LjAnLCAnLXRuJywgJzgnLCAnLW1hJywgJzIwMCcsICctbWV0YWxfYmluZGluZycsICctaW1hZScsICc8aW5maWxlLm1hZT4nLCAnLW9tYWUnLCAnPG91dGZpbGUubWFlPic=

> <r_lp_tautomer_probability>
1

> <r_epik_Ionization_Penalty>
2.96769e-05

> <r_epik_Ionization_Penalty_Charging>
0

> <r_epik_Ionization_Penalty_Neutral>
2.96769e-05

> <r_epik_State_Penalty>
-0

> <r_epik_Charging_Adjusted_Penalty>
0

> <i_epik_Tot_Q>
0

> <i_epik_Tot_abs_Q>
0

> <r_epik_Metal_State_Penalty>
-0

> <b_epik_Metal_Only>
0

> <s_lp_Force_Field>
OPLS_2005

> <r_lp_Energy>
15.8709

> <b_lp_Chiralities_Consistent>
1

> <s_lp_Variant>
AV-unprocessed.smi:2723-1

> <Gold.Version>
5.8.1

> <Gold.Id.Protein>
6NUR|6NUR_protein|mol2

> <Gold.PLP.Fitness>
47.5938

> <Gold.PLP.PLP>
-36.6943

> <Gold.PLP.part.hbond>
-3.9740

> <Gold.PLP.part.metal>
0.0000

> <Gold.PLP.part.buried>
-0.6258

> <Gold.PLP.part.nonpolar>
-31.9882

> <Gold.PLP.part.repulsive>
0.0993

> <Gold.PLP.ligand.clash>
0.0000

> <Gold.PLP.ligand.torsion>
0.3187

> <Gold.PLP.Chemscore.Hbond>
2.8540

> <Gold.PLP.Chemscore.CHOScore>
0.9875

> <Gold.PLP.Chemscore.Metal>
0.0000

> <Gold.Chemscore.Hbonds>
donor molecule, donor type, donor heavy atom, donor atom, acceptor molecule, acceptor atom, score
      L1  H     4    26       P1  7948  0.70
      P1  H  7997  8008       L1    17  1.00
      P1  H 10752 10763       L1     6  0.78
      L1  C     9    29       P1  7957  1.00

> <Gold.PLP.Chemscore.Internal.Correction>
0.0123

> <Gold.Rescore>
     Score         DG    S(hbond)    S(metal)    S(lipo)     H(rot)  DE(clash)    DE(int)     intcor
     16.13     -17.90       2.42        0.00      72.95       1.64       0.03       1.74       ----

> <Gold.Chemscore.Fitness>
16.1269

> <Gold.Chemscore.DG>
-17.8974

> <Gold.Chemscore.ZeroCoef>
-5.4800

> <Gold.Chemscore.Hbond>
2.4227

> <Gold.Chemscore.Metal>
0.0000

> <Gold.Chemscore.Lipo>
72.9490

> <Gold.Chemscore.Internal_Hbond>
0.0000

> <Gold.Chemscore.DEClash>
0.0277

> <Gold.Chemscore.DEInternal>
1.7428

> <Gold.Chemscore.Rot>
1.6444

> <Gold.Chemscore.Internal.Correction>
   9.000000E+99

> <Gold.Chemscore.Hbonds>
donor molecule, donor type, donor heavy atom, donor atom, acceptor molecule, acceptor atom, score
      L1  H     4    26       P1  7948  0.07
      P1  H  7997  8008       L1    17  0.35
      P1  H 10752 10763       L1     6  0.13

> <Gold.Chemscore.Hbond.Weighted>
-8.0920

> <Gold.Chemscore.Metal.Weighted>
-0.0000

> <Gold.Chemscore.Lipo.Weighted>
-8.5350

> <Gold.Chemscore.Internal_Hbond.Weighted>
0.0000

> <Gold.Chemscore.DEClash.Weighted>
0.0277

> <Gold.Chemscore.DEInternal.Weighted>
1.7428

> <Gold.Chemscore.Rot.Weighted>
4.2096

> <Gold.Chemscore.Internal.Correction.Weighted>
   9.000000E+99

> <Gold.Protein.RotatedTorsions>
[ 6907 6896 6895 6894 ] final   -7.97 input  -60.11 | X-H torsion
[ 7974 7965 7964 7962 ] final -118.65 input  175.53 | X-H torsion
[ 8008 7997 7996 7995 ] final  -85.66 input   59.86 | X-H torsion
[ 10167 10162 10161 10158 ] final  -72.97 input  -65.29 | X-H torsion
[ 10718 10713 10712 10709 ] final  -96.61 input   66.30 | X-H torsion
[ 10763 10752 10751 10750 ] final   99.67 input  -60.55 | X-H torsion
[ 11005 11000 10999 10996 ] final   40.18 input  -57.11 | X-H torsion

> <Gold.Protein.ActiveResidues>
 VAL166  LYS551  ARG553  GLY616  TRP617  ASP618  TYR619  PRO620  LYS621  CYS622 
 ASP623  PHE694  ASN695  SER759  ASP760  ASP761  ALA762  ILE779  LEU786  VAL792 
 PHE793  MET794  SER795  GLU796  ALA797  LYS798  CYS799  TRP800  GLU811  SER814 

> <Gold.Protein.RotatedAtoms>
  151.4410  135.1020  159.9669 H   0  0  0  0  0  0  0  0  0  0  0  0  # atno 6907 bound_to 6896
  152.4922  133.8528  159.7221 H   0  0  0  0  0  0  0  0  0  0  0  0  # atno 6908 bound_to 6896
  150.9088  133.6965  159.2887 H   0  0  0  0  0  0  0  0  0  0  0  0  # atno 6909 bound_to 6896
  145.0715  140.8362  143.4093 H   0  0  0  0  0  0  0  0  0  0  0  0  # atno 7974 bound_to 7965
  154.6432  140.0588  156.9870 H   0  0  0  0  0  0  0  0  0  0  0  0  # atno 8008 bound_to 7997
  155.1484  140.3272  155.4418 H   0  0  0  0  0  0  0  0  0  0  0  0  # atno 8009 bound_to 7997
  156.2541  140.1951  156.6597 H   0  0  0  0  0  0  0  0  0  0  0  0  # atno 8010 bound_to 7997
  140.5148  143.2339  151.7531 H   0  0  0  0  0  0  0  0  0  0  0  0  # atno 10167 bound_to 10162
  156.0066  130.5159  150.6251 H   0  0  0  0  0  0  0  0  0  0  0  0  # atno 10718 bound_to 10713
  153.3043  135.4105  155.1280 H   0  0  0  0  0  0  0  0  0  0  0  0  # atno 10763 bound_to 10752
  154.8558  135.3549  154.5809 H   0  0  0  0  0  0  0  0  0  0  0  0  # atno 10764 bound_to 10752
  153.6235  135.7063  153.5360 H   0  0  0  0  0  0  0  0  0  0  0  0  # atno 10765 bound_to 10752
  140.1956  134.3933  155.8123 H   0  0  0  0  0  0  0  0  0  0  0  0  # atno 11005 bound_to 11000
  145.1287  139.2646  143.5550 LP  0  0  0  0  0  0  0  0  0  0  0  0  # atno 17320 bound_to 7965
  146.3529  140.0932  142.8611 LP  0  0  0  0  0  0  0  0  0  0  0  0  # atno 17321 bound_to 7965
  139.4906  144.4339  151.9841 LP  0  0  0  0  0  0  0  0  0  0  0  0  # atno 17342 bound_to 10162
  140.3433  144.3177  150.5963 LP  0  0  0  0  0  0  0  0  0  0  0  0  # atno 17343 bound_to 10162
  157.4059  131.0817  151.1265 LP  0  0  0  0  0  0  0  0  0  0  0  0  # atno 17370 bound_to 10713
  157.1912  130.6353  149.5705 LP  0  0  0  0  0  0  0  0  0  0  0  0  # atno 17371 bound_to 10713
  141.2227  133.7068  156.8170 LP  0  0  0  0  0  0  0  0  0  0  0  0  # atno 17394 bound_to 11000
  140.2111  134.8827  157.3275 LP  0  0  0  0  0  0  0  0  0  0  0  0  # atno 17395 bound_to 11000

$$$$
