AV-unprocessed.smi:2870|AV-procd|sdf|11029|dock9
  -GOLD-   2272015493D 1   1.00000     0.00000
 Structure written by MMmdl.
 40 42  0  0  0  0  0  0  0  0  1 V2000
  150.7468  140.8150  155.3199 N   0  0  0  0  0  0  0  0  0  0  0  0
  151.1731  141.0868  156.3611 C   0  0  0  0  0  0  0  0  0  0  0  0
  151.7177  141.4421  157.6297 C   0  0  0  0  0  0  0  0  0  0  0  0
  151.3397  142.5640  158.2762 C   0  0  0  0  0  0  0  0  0  0  0  0
  151.8451  142.9150  159.5087 N   0  0  0  0  0  0  0  0  0  0  0  0
  151.5335  144.1803  160.1118 C   0  0  0  0  0  0  0  0  0  0  0  0
  150.5020  145.0986  159.4851 C   0  0  0  0  0  0  0  0  0  0  0  0
  151.9676  145.4505  159.4135 C   0  0  0  0  0  0  0  0  0  0  0  0
  152.8592  142.1364  160.1082 C   0  0  0  0  0  0  0  0  0  0  0  0
  153.3819  142.4784  161.1720 O   0  0  0  0  0  0  0  0  0  0  0  0
  153.2610  140.9497  159.4482 N   0  0  0  0  0  0  0  0  0  0  0  0
  154.2765  140.0901  160.0959 C   0  0  0  0  0  0  0  0  0  0  0  0
  153.8286  138.6292  160.2575 C   0  0  0  0  0  0  0  0  0  0  0  0
  152.7455  138.2425  159.8157 O   0  0  0  0  0  0  0  0  0  0  0  0
  154.6906  137.8219  160.8909 N   0  0  0  0  0  0  0  0  0  0  0  0
  154.4715  136.4024  161.1300 C   0  0  0  0  0  0  0  0  0  0  0  0
  154.7873  136.0528  162.5792 C   0  0  0  0  0  0  0  0  0  0  0  0
  154.5997  134.6121  163.0796 C   0  0  0  0  0  0  0  0  0  0  0  0
  154.1645  135.1868  164.4302 C   0  0  0  0  0  0  0  0  0  0  0  0
  153.8202  136.4834  163.6920 C   0  0  0  0  0  0  0  0  0  0  0  0
  152.7115  140.5395  158.2064 C   0  0  0  0  0  0  0  0  0  0  0  0
  153.0660  139.4877  157.6712 O   0  0  0  0  0  0  0  0  0  0  0  0
  150.6054  143.2098  157.8162 H   0  0  0  0  0  0  0  0  0  0  0  0
  151.5827  144.1982  161.1992 H   0  0  0  0  0  0  0  0  0  0  0  0
  150.0228  144.7829  158.5604 H   0  0  0  0  0  0  0  0  0  0  0  0
  149.8762  145.6812  160.1578 H   0  0  0  0  0  0  0  0  0  0  0  0
  152.3189  146.2701  160.0369 H   0  0  0  0  0  0  0  0  0  0  0  0
  152.4527  145.3628  158.4432 H   0  0  0  0  0  0  0  0  0  0  0  0
  155.2147  140.0988  159.5393 H   0  0  0  0  0  0  0  0  0  0  0  0
  154.5499  140.4843  161.0761 H   0  0  0  0  0  0  0  0  0  0  0  0
  155.5602  138.2145  161.2213 H   0  0  0  0  0  0  0  0  0  0  0  0
  153.4370  136.1441  160.8981 H   0  0  0  0  0  0  0  0  0  0  0  0
  155.1017  135.8276  160.4496 H   0  0  0  0  0  0  0  0  0  0  0  0
  155.7926  136.3866  162.8462 H   0  0  0  0  0  0  0  0  0  0  0  0
  153.7932  134.0859  162.5659 H   0  0  0  0  0  0  0  0  0  0  0  0
  155.5134  134.0178  163.1077 H   0  0  0  0  0  0  0  0  0  0  0  0
  153.3146  134.6815  164.8899 H   0  0  0  0  0  0  0  0  0  0  0  0
  154.9949  135.3043  165.1282 H   0  0  0  0  0  0  0  0  0  0  0  0
  154.1044  137.3971  164.2149 H   0  0  0  0  0  0  0  0  0  0  0  0
  152.7801  136.5155  163.3624 H   0  0  0  0  0  0  0  0  0  0  0  0
  1  2  3  0  0  0  0
  2  3  1  0  0  0  0
  3 21  1  0  0  0  0
  3  4  2  0  0  0  0
  4  5  1  0  0  0  0
  4 23  1  0  0  0  0
  5  6  1  0  0  0  0
  5  9  1  0  0  0  0
  6  8  1  0  0  0  0
  6  7  1  0  0  0  0
  6 24  1  0  0  0  0
  7  8  1  0  0  0  0
  7 25  1  0  0  0  0
  7 26  1  0  0  0  0
  8 27  1  0  0  0  0
  8 28  1  0  0  0  0
  9 10  2  0  0  0  0
  9 11  1  0  0  0  0
 11 12  1  0  0  0  0
 11 21  1  0  0  0  0
 12 13  1  0  0  0  0
 12 29  1  0  0  0  0
 12 30  1  0  0  0  0
 13 14  2  0  0  0  0
 13 15  1  0  0  0  0
 15 16  1  0  0  0  0
 15 31  1  0  0  0  0
 16 17  1  0  0  0  0
 16 32  1  0  0  0  0
 16 33  1  0  0  0  0
 17 20  1  0  0  0  0
 17 18  1  0  0  0  0
 17 34  1  0  0  0  0
 18 19  1  0  0  0  0
 18 35  1  0  0  0  0
 18 36  1  0  0  0  0
 19 20  1  0  0  0  0
 19 37  1  0  0  0  0
 19 38  1  0  0  0  0
 20 39  1  0  0  0  0
 20 40  1  0  0  0  0
 21 22  2  0  0  0  0
M  END
> <s_m_source_file>
AV-unprocessed.smi

> <i_m_source_file_index>
2870

> <i_lp_mmshare_version>
43012

> <i_f3d_flags>
0

> <s_epik_input>
TiNDYzFbY0hdbihbQ0hdMltDSDJdW0NIMl0yKWMoPU8pbihjMT1PKVtDSDJdQyg9TylbTkhdW0NIMl1bQ0hdM1tDSDJdW0NIMl1bQ0gyXTM=

> <s_epik_cmdline>
J2VwaWtfcHl0aG9uJywgJy1waCcsICc3LjAnLCAnLXRuJywgJzgnLCAnLW1hJywgJzIwMCcsICctbWV0YWxfYmluZGluZycsICctaW1hZScsICc8aW5maWxlLm1hZT4nLCAnLW9tYWUnLCAnPG91dGZpbGUubWFlPic=

> <r_lp_tautomer_probability>
1

> <r_epik_Ionization_Penalty>
1.93838e-08

> <r_epik_Ionization_Penalty_Charging>
8.20545e-11

> <r_epik_Ionization_Penalty_Neutral>
1.93017e-08

> <r_epik_State_Penalty>
-0

> <r_epik_Charging_Adjusted_Penalty>
8.20545e-11

> <i_epik_Tot_Q>
0

> <i_epik_Tot_abs_Q>
0

> <r_epik_Metal_State_Penalty>
-0

> <b_epik_Metal_Only>
0

> <s_lp_Force_Field>
OPLS_2005

> <r_lp_Energy>
38.3845

> <b_lp_Chiralities_Consistent>
1

> <s_lp_Variant>
AV-unprocessed.smi:2870-1

> <Gold.Version>
5.8.1

> <Gold.Id.Protein>
6NUR|6NUR_protein|mol2

> <Gold.PLP.Fitness>
51.5251

> <Gold.PLP.PLP>
-46.2538

> <Gold.PLP.part.hbond>
-2.0000

> <Gold.PLP.part.metal>
0.0000

> <Gold.PLP.part.buried>
-4.2770

> <Gold.PLP.part.nonpolar>
-39.9645

> <Gold.PLP.part.repulsive>
0.0773

> <Gold.PLP.ligand.clash>
0.0000

> <Gold.PLP.ligand.torsion>
0.2786

> <Gold.PLP.Chemscore.Hbond>
1.8480

> <Gold.PLP.Chemscore.CHOScore>
0.0000

> <Gold.PLP.Chemscore.Metal>
0.0000

> <Gold.Chemscore.Hbonds>
donor molecule, donor type, donor heavy atom, donor atom, acceptor molecule, acceptor atom, score
      P1  H  7989  7998       L1     1  0.82
      P1  H  7997  8009       L1    22  1.00

> <Gold.PLP.Chemscore.Internal.Correction>
0.2846

> <Gold.Rescore>
     Score         DG    S(hbond)    S(metal)    S(lipo)     H(rot)  DE(clash)    DE(int)     intcor
     11.33     -15.84       1.27        0.00      95.60       1.98       0.08       4.43       ----

> <Gold.Chemscore.Fitness>
11.3300

> <Gold.Chemscore.DG>
-15.8396

> <Gold.Chemscore.ZeroCoef>
-5.4800

> <Gold.Chemscore.Hbond>
1.2696

> <Gold.Chemscore.Metal>
0.0000

> <Gold.Chemscore.Lipo>
95.6025

> <Gold.Chemscore.Internal_Hbond>
0.0000

> <Gold.Chemscore.DEClash>
0.0766

> <Gold.Chemscore.DEInternal>
4.4330

> <Gold.Chemscore.Rot>
1.9791

> <Gold.Chemscore.Internal.Correction>
   9.000000E+99

> <Gold.Chemscore.Hbonds>
donor molecule, donor type, donor heavy atom, donor atom, acceptor molecule, acceptor atom, score
      P1  H  7989  7998       L1     1  0.77
      P1  H  7997  8009       L1    22  0.25

> <Gold.Chemscore.Hbond.Weighted>
-4.2406

> <Gold.Chemscore.Metal.Weighted>
-0.0000

> <Gold.Chemscore.Lipo.Weighted>
-11.1855

> <Gold.Chemscore.Internal_Hbond.Weighted>
0.0000

> <Gold.Chemscore.DEClash.Weighted>
0.0766

> <Gold.Chemscore.DEInternal.Weighted>
4.4330

> <Gold.Chemscore.Rot.Weighted>
5.0665

> <Gold.Chemscore.Internal.Correction.Weighted>
   9.000000E+99

> <Gold.Protein.RotatedTorsions>
[ 6907 6896 6895 6894 ] final   -6.55 input  -60.11 | X-H torsion
[ 7974 7965 7964 7962 ] final -157.04 input  175.53 | X-H torsion
[ 8008 7997 7996 7995 ] final  177.74 input   59.86 | X-H torsion
[ 10167 10162 10161 10158 ] final   68.20 input  -65.29 | X-H torsion
[ 10718 10713 10712 10709 ] final -129.22 input   66.30 | X-H torsion
[ 10763 10752 10751 10750 ] final  -65.08 input  -60.55 | X-H torsion
[ 11005 11000 10999 10996 ] final   22.60 input  -57.11 | X-H torsion

> <Gold.Protein.ActiveResidues>
 VAL166  LYS551  ARG553  GLY616  TRP617  ASP618  TYR619  PRO620  LYS621  CYS622 
 ASP623  PHE694  ASN695  SER759  ASP760  ASP761  ALA762  ILE779  LEU786  VAL792 
 PHE793  MET794  SER795  GLU796  ALA797  LYS798  CYS799  TRP800  GLU811  SER814 

> <Gold.Protein.RotatedAtoms>
  151.4638  135.1040  159.9731 H   0  0  0  0  0  0  0  0  0  0  0  0  # atno 6907 bound_to 6896
  152.4843  133.8328  159.7123 H   0  0  0  0  0  0  0  0  0  0  0  0  # atno 6908 bound_to 6896
  150.8939  133.7146  159.2924 H   0  0  0  0  0  0  0  0  0  0  0  0  # atno 6909 bound_to 6896
  144.7566  140.4024  143.6008 H   0  0  0  0  0  0  0  0  0  0  0  0  # atno 7974 bound_to 7965
  156.0623  140.1351  156.9926 H   0  0  0  0  0  0  0  0  0  0  0  0  # atno 8008 bound_to 7997
  154.4488  140.0989  156.6606 H   0  0  0  0  0  0  0  0  0  0  0  0  # atno 8009 bound_to 7997
  155.5358  140.3459  155.4438 H   0  0  0  0  0  0  0  0  0  0  0  0  # atno 8010 bound_to 7997
  140.0813  144.5069  150.7160 H   0  0  0  0  0  0  0  0  0  0  0  0  # atno 10167 bound_to 10162
  156.2025  130.6867  151.0556 H   0  0  0  0  0  0  0  0  0  0  0  0  # atno 10718 bound_to 10713
  154.3396  135.6159  153.5590 H   0  0  0  0  0  0  0  0  0  0  0  0  # atno 10763 bound_to 10752
  152.9805  135.5766  154.4868 H   0  0  0  0  0  0  0  0  0  0  0  0  # atno 10764 bound_to 10752
  154.4569  135.2854  155.1718 H   0  0  0  0  0  0  0  0  0  0  0  0  # atno 10765 bound_to 10752
  140.3788  134.1943  155.7664 H   0  0  0  0  0  0  0  0  0  0  0  0  # atno 11005 bound_to 11000
  145.6760  139.1608  143.2728 LP  0  0  0  0  0  0  0  0  0  0  0  0  # atno 17320 bound_to 7965
  146.1582  140.6827  142.9290 LP  0  0  0  0  0  0  0  0  0  0  0  0  # atno 17321 bound_to 7965
  140.7076  143.2480  151.4678 LP  0  0  0  0  0  0  0  0  0  0  0  0  # atno 17342 bound_to 10162
  139.5778  144.1779  152.1927 LP  0  0  0  0  0  0  0  0  0  0  0  0  # atno 17343 bound_to 10162
  157.6994  131.0782  150.6868 LP  0  0  0  0  0  0  0  0  0  0  0  0  # atno 17370 bound_to 10713
  156.6926  130.4599  149.5595 LP  0  0  0  0  0  0  0  0  0  0  0  0  # atno 17371 bound_to 10713
  141.1930  133.8160  157.0816 LP  0  0  0  0  0  0  0  0  0  0  0  0  # atno 17394 bound_to 11000
  140.0494  134.9813  157.1109 LP  0  0  0  0  0  0  0  0  0  0  0  0  # atno 17395 bound_to 11000

$$$$
