AV-unprocessed.smi:1703|AV-procd|sdf|6870|dock5
  -GOLD-   22720 8 63D 1   1.00000     0.00000
 Structure written by MMmdl.
 49 51  0  0  0  0  0  0  0  0  2 V2000
  144.9509  138.3987  159.0187 C   0  0  0  0  0  0  0  0  0  0  0  0
  146.0294  137.3261  159.2021 C   0  0  1  0  0  0  0  0  0  0  0  0
  147.3088  137.6448  158.4049 C   0  0  0  0  0  0  0  0  0  0  0  0
  148.3642  136.6647  158.6469 N   0  0  0  0  0  0  0  0  0  0  0  0
  149.5952  136.9675  157.9171 C   0  0  0  0  0  0  0  0  0  0  0  0
  150.1900  138.3708  158.1774 C   0  0  1  0  0  0  0  0  0  0  0  0
  151.1353  138.2837  159.2233 O   0  0  0  0  0  0  0  0  0  0  0  0
  150.9294  138.9722  156.9630 C   0  0  0  0  0  0  0  0  0  0  0  0
  150.7200  140.4210  156.8117 N   0  0  0  0  0  0  0  0  0  0  0  0
  149.9870  141.1266  155.9006 C   0  0  0  0  0  0  0  0  0  0  0  0
  149.1724  140.5751  154.7735 C   0  0  0  0  0  0  0  0  0  0  0  0
  149.6840  140.9259  153.5053 O   0  0  0  0  0  0  0  0  0  0  0  0
  150.1363  142.4480  156.2031 N   0  3  0  0  0  0  0  0  0  0  0  0
  150.9744  142.5907  157.3087 C   0  0  0  0  0  0  0  0  0  0  0  0
  151.4185  143.7285  157.9756 C   0  0  0  0  0  0  0  0  0  0  0  0
  152.2776  143.5221  159.0751 C   0  0  0  0  0  0  0  0  0  0  0  0
  152.6634  142.2251  159.4722 C   0  0  0  0  0  0  0  0  0  0  0  0
  152.2066  141.0795  158.7878 C   0  0  0  0  0  0  0  0  0  0  0  0
  151.3560  141.2924  157.7032 C   0  0  0  0  0  0  0  0  0  0  0  0
  148.6171  136.5882  160.0818 C   0  0  0  0  0  0  0  0  0  0  0  0
  147.3402  136.2653  160.8810 C   0  0  1  0  0  0  0  0  0  0  0  0
  147.5876  136.2668  162.3933 C   0  0  0  0  0  0  0  0  0  0  0  0
  146.3499  137.2465  160.5879 O   0  0  0  0  0  0  0  0  0  0  0  0
  144.6602  138.4879  157.9717 H   0  0  0  0  0  0  0  0  0  0  0  0
  145.3038  139.3746  159.3534 H   0  0  0  0  0  0  0  0  0  0  0  0
  144.0567  138.1532  159.5920 H   0  0  0  0  0  0  0  0  0  0  0  0
  145.6265  136.3652  158.8769 H   0  0  0  0  0  0  0  0  0  0  0  0
  147.0592  137.6723  157.3445 H   0  0  0  0  0  0  0  0  0  0  0  0
  147.6643  138.6420  158.6698 H   0  0  0  0  0  0  0  0  0  0  0  0
  150.3462  136.1959  158.0950 H   0  0  0  0  0  0  0  0  0  0  0  0
  149.3595  136.8939  156.8568 H   0  0  0  0  0  0  0  0  0  0  0  0
  149.3995  139.0551  158.4870 H   0  0  0  0  0  0  0  0  0  0  0  0
  151.9823  138.5284  158.8831 H   0  0  0  0  0  0  0  0  0  0  0  0
  152.0033  138.7949  157.0368 H   0  0  0  0  0  0  0  0  0  0  0  0
  150.6062  138.4869  156.0416 H   0  0  0  0  0  0  0  0  0  0  0  0
  149.1396  139.4887  154.8571 H   0  0  0  0  0  0  0  0  0  0  0  0
  148.1470  140.9364  154.8427 H   0  0  0  0  0  0  0  0  0  0  0  0
  149.4953  140.2240  152.9009 H   0  0  0  0  0  0  0  0  0  0  0  0
  151.1257  144.7232  157.6721 H   0  0  0  0  0  0  0  0  0  0  0  0
  152.6489  144.3755  159.6239 H   0  0  0  0  0  0  0  0  0  0  0  0
  153.3238  142.1058  160.3190 H   0  0  0  0  0  0  0  0  0  0  0  0
  152.5087  140.0905  159.0994 H   0  0  0  0  0  0  0  0  0  0  0  0
  149.3693  135.8246  160.2832 H   0  0  0  0  0  0  0  0  0  0  0  0
  149.0339  137.5342  160.4322 H   0  0  0  0  0  0  0  0  0  0  0  0
  146.9632  135.2836  160.5885 H   0  0  0  0  0  0  0  0  0  0  0  0
  148.3344  135.5219  162.6693 H   0  0  0  0  0  0  0  0  0  0  0  0
  146.6718  136.0368  162.9386 H   0  0  0  0  0  0  0  0  0  0  0  0
  147.9424  137.2399  162.7343 H   0  0  0  0  0  0  0  0  0  0  0  0
  149.6906  143.1948  155.6855 H   0  0  0  0  0  0  0  0  0  0  0  0
  1  2  1  0  0  0  0
  1 24  1  0  0  0  0
  1 25  1  0  0  0  0
  1 26  1  0  0  0  0
  2 23  1  0  0  0  0
  2  3  1  0  0  0  0
  2 27  1  0  0  0  0
  3  4  1  0  0  0  0
  3 28  1  0  0  0  0
  3 29  1  0  0  0  0
  4  5  1  0  0  0  0
  4 20  1  0  0  0  0
  5  6  1  0  0  0  0
  5 30  1  0  0  0  0
  5 31  1  0  0  0  0
  6  7  1  0  0  0  0
  6  8  1  0  0  0  0
  6 32  1  0  0  0  0
  7 33  1  0  0  0  0
  8  9  1  0  0  0  0
  8 34  1  0  0  0  0
  8 35  1  0  0  0  0
  9 19  1  0  0  0  0
  9 10  1  0  0  0  0
 10 11  1  0  0  0  0
 10 13  2  0  0  0  0
 11 12  1  0  0  0  0
 11 36  1  0  0  0  0
 11 37  1  0  0  0  0
 12 38  1  0  0  0  0
 13 14  1  0  0  0  0
 13 49  1  0  0  0  0
 14 19  2  0  0  0  0
 14 15  1  0  0  0  0
 15 16  2  0  0  0  0
 15 39  1  0  0  0  0
 16 17  1  0  0  0  0
 16 40  1  0  0  0  0
 17 18  2  0  0  0  0
 17 41  1  0  0  0  0
 18 19  1  0  0  0  0
 18 42  1  0  0  0  0
 20 21  1  0  0  0  0
 20 43  1  0  0  0  0
 20 44  1  0  0  0  0
 21 22  1  0  0  0  0
 21 23  1  0  0  0  0
 21 45  1  0  0  0  0
 22 46  1  0  0  0  0
 22 47  1  0  0  0  0
 22 48  1  0  0  0  0
M  CHG  1  13   1
M  END
> <s_m_source_file>
AV-unprocessed.smi

> <i_m_source_file_index>
1703

> <i_lp_mmshare_version>
43012

> <i_f3d_flags>
0

> <s_epik_input>
W0NIM11bQ0BASF0xW0NIMl1OKFtDSDJdW0NASF0oTzEpW0NIM10pW0NIMl1bQ0BIXShbT0hdKVtDSDJdbihjKG4yKVtDSDJdW09IXSljKGMyMylbY0hdW2NIXVtjSF1bY0hdMw==

> <s_epik_cmdline>
J2VwaWtfcHl0aG9uJywgJy1waCcsICc3LjAnLCAnLXRuJywgJzgnLCAnLW1hJywgJzIwMCcsICctbWV0YWxfYmluZGluZycsICctaW1hZScsICc8aW5maWxlLm1hZT4nLCAnLW9tYWUnLCAnPG91dGZpbGUubWFlPic=

> <r_epik_Ionization_Penalty>
1.7682

> <r_epik_Ionization_Penalty_Charging>
1.55298

> <r_epik_Ionization_Penalty_Neutral>
0.215215

> <r_epik_State_Penalty>
1.83821

> <r_epik_Charging_Adjusted_Penalty>
3.39119

> <i_epik_Tot_Q>
1

> <i_epik_Tot_abs_Q>
1

> <r_epik_Metal_State_Penalty>
5.89206

> <b_epik_Metal_Only>
0

> <s_lp_Force_Field>
OPLS_2005

> <r_lp_Energy>
33.2802

> <b_lp_Chiralities_Consistent>
1

> <s_lp_Variant>
AV-unprocessed.smi:1703-18

> <Gold.Version>
5.8.1

> <Gold.Id.Protein>
6NUR|6NUR_protein|mol2

> <Gold.PLP.Fitness>
54.9475

> <Gold.PLP.PLP>
-42.3556

> <Gold.PLP.part.hbond>
-5.0000

> <Gold.PLP.part.metal>
0.0000

> <Gold.PLP.part.buried>
-5.8404

> <Gold.PLP.part.nonpolar>
-32.5525

> <Gold.PLP.part.repulsive>
0.1011

> <Gold.PLP.ligand.clash>
0.0000

> <Gold.PLP.ligand.torsion>
1.1397

> <Gold.PLP.Chemscore.Hbond>
4.9260

> <Gold.PLP.Chemscore.CHOScore>
0.0000

> <Gold.PLP.Chemscore.Metal>
0.0000

> <Gold.Chemscore.Hbonds>
donor molecule, donor type, donor heavy atom, donor atom, acceptor molecule, acceptor atom, score
      L1  H    12    38       P1  7957  0.69
      L1  H    13    49       P1  8028  2.00
      P1  H  6934  6947       L1    23  1.00
      P1  H  7989  7998       L1    12  0.29
      P1  H  8011  8017       L1    12  1.00

> <Gold.PLP.Chemscore.Internal.Correction>
0.0933

> <Gold.Rescore>
     Score         DG    S(hbond)    S(metal)    S(lipo)     H(rot)  DE(clash)    DE(int)     intcor
     17.46     -18.78       2.68        0.00     101.79       2.96       0.00       1.31       ----

> <Gold.Chemscore.Fitness>
17.4641

> <Gold.Chemscore.DG>
-18.7774

> <Gold.Chemscore.ZeroCoef>
-5.4800

> <Gold.Chemscore.Hbond>
2.6807

> <Gold.Chemscore.Metal>
0.0000

> <Gold.Chemscore.Lipo>
101.7924

> <Gold.Chemscore.Internal_Hbond>
0.0000

> <Gold.Chemscore.DEClash>
0.0029

> <Gold.Chemscore.DEInternal>
1.3103

> <Gold.Chemscore.Rot>
2.9555

> <Gold.Chemscore.Internal.Correction>
   9.000000E+99

> <Gold.Chemscore.Hbonds>
donor molecule, donor type, donor heavy atom, donor atom, acceptor molecule, acceptor atom, score
      L1  H    12    38       P1  7957  0.68
      L1  H    13    49       P1  8028  0.94
      P1  H  6934  6947       L1    23  0.22
      P1  H  7989  7998       L1    12  0.07
      P1  H  8011  8017       L1    12  0.29

> <Gold.Chemscore.Hbond.Weighted>
-8.9536

> <Gold.Chemscore.Metal.Weighted>
-0.0000

> <Gold.Chemscore.Lipo.Weighted>
-11.9097

> <Gold.Chemscore.Internal_Hbond.Weighted>
0.0000

> <Gold.Chemscore.DEClash.Weighted>
0.0029

> <Gold.Chemscore.DEInternal.Weighted>
1.3103

> <Gold.Chemscore.Rot.Weighted>
7.5660

> <Gold.Chemscore.Internal.Correction.Weighted>
   9.000000E+99

> <Gold.Protein.RotatedTorsions>
[ 6907 6896 6895 6894 ] final    3.24 input  -60.11 | X-H torsion
[ 7974 7965 7964 7962 ] final  -97.36 input  175.53 | X-H torsion
[ 8008 7997 7996 7995 ] final   58.11 input   59.86 | X-H torsion
[ 10167 10162 10161 10158 ] final   77.08 input  -65.29 | X-H torsion
[ 10718 10713 10712 10709 ] final  172.15 input   66.30 | X-H torsion
[ 10763 10752 10751 10750 ] final -129.33 input  -60.55 | X-H torsion
[ 11005 11000 10999 10996 ] final  -19.99 input  -57.11 | X-H torsion

> <Gold.Protein.ActiveResidues>
 VAL166  LYS551  ARG553  GLY616  TRP617  ASP618  TYR619  PRO620  LYS621  CYS622 
 ASP623  PHE694  ASN695  SER759  ASP760  ASP761  ALA762  ILE779  LEU786  VAL792 
 PHE793  MET794  SER795  GLU796  ALA797  LYS798  CYS799  TRP800  GLU811  SER814 

> <Gold.Protein.RotatedAtoms>
  151.6218  135.1031  160.0102 H   0  0  0  0  0  0  0  0  0  0  0  0  # atno 6907 bound_to 6896
  152.4154  133.7025  159.6443 H   0  0  0  0  0  0  0  0  0  0  0  0  # atno 6908 bound_to 6896
  150.8042  133.8467  159.3235 H   0  0  0  0  0  0  0  0  0  0  0  0  # atno 6909 bound_to 6896
  145.3348  140.9448  143.2641 H   0  0  0  0  0  0  0  0  0  0  0  0  # atno 7974 bound_to 7965
  155.5447  140.3485  155.4455 H   0  0  0  0  0  0  0  0  0  0  0  0  # atno 8008 bound_to 7997
  156.0626  140.1343  156.9950 H   0  0  0  0  0  0  0  0  0  0  0  0  # atno 8009 bound_to 7997
  154.4487  140.0982  156.6524 H   0  0  0  0  0  0  0  0  0  0  0  0  # atno 8010 bound_to 7997
  139.9854  144.5796  150.7864 H   0  0  0  0  0  0  0  0  0  0  0  0  # atno 10167 bound_to 10162
  156.9832  131.0125  151.2876 H   0  0  0  0  0  0  0  0  0  0  0  0  # atno 10718 bound_to 10713
  154.8757  135.3899  154.3902 H   0  0  0  0  0  0  0  0  0  0  0  0  # atno 10763 bound_to 10752
  153.4638  135.7029  153.6039 H   0  0  0  0  0  0  0  0  0  0  0  0  # atno 10764 bound_to 10752
  153.4526  135.3830  155.2261 H   0  0  0  0  0  0  0  0  0  0  0  0  # atno 10765 bound_to 10752
  140.8421  133.7919  155.9872 H   0  0  0  0  0  0  0  0  0  0  0  0  # atno 11005 bound_to 11000
  144.8836  139.4870  143.6711 LP  0  0  0  0  0  0  0  0  0  0  0  0  # atno 17320 bound_to 7965
  146.3031  139.7491  142.9076 LP  0  0  0  0  0  0  0  0  0  0  0  0  # atno 17321 bound_to 7965
  140.7474  143.2906  151.3342 LP  0  0  0  0  0  0  0  0  0  0  0  0  # atno 17342 bound_to 10162
  139.6379  144.0596  152.2530 LP  0  0  0  0  0  0  0  0  0  0  0  0  # atno 17343 bound_to 10162
  157.5511  130.8183  149.8147 LP  0  0  0  0  0  0  0  0  0  0  0  0  # atno 17370 bound_to 10713
  156.0236  130.3787  150.1888 LP  0  0  0  0  0  0  0  0  0  0  0  0  # atno 17371 bound_to 10713
  140.8884  134.2526  157.5107 LP  0  0  0  0  0  0  0  0  0  0  0  0  # atno 17394 bound_to 11000
  139.8703  134.9649  156.4512 LP  0  0  0  0  0  0  0  0  0  0  0  0  # atno 17395 bound_to 11000

$$$$
