AV-unprocessed.smi:377|AV-procd|sdf|2456|dock6
  -GOLD-   2262022393D 1   1.00000     0.00000
 Structure written by MMmdl.
 33 34  0  0  0  0  0  0  0  0  1 V2000
  147.3469  140.8083  152.8622 C   0  0  0  0  0  0  0  0  0  0  0  0
  147.2253  142.0061  153.8133 C   0  0  0  0  0  0  0  0  0  0  0  0
  148.5097  142.3458  154.4139 N   0  0  0  0  0  0  0  0  0  0  0  0
  149.3561  141.4693  154.9749 C   0  0  0  0  0  0  0  0  0  0  0  0
  149.1264  140.2605  155.0437 O   0  0  0  0  0  0  0  0  0  0  0  0
  150.6568  142.0643  155.5369 C   0  0  0  0  0  0  0  0  0  0  0  0
  151.3787  141.1531  156.4521 N   0  0  0  0  0  0  0  0  0  0  0  0
  151.7525  139.8693  155.9785 C   0  0  0  0  0  0  0  0  0  0  0  0
  151.5089  139.5239  154.8209 O   0  0  0  0  0  0  0  0  0  0  0  0
  152.4168  139.0079  156.9537 C   0  0  0  0  0  0  0  0  0  0  0  0
  152.7795  137.6980  156.5249 C   0  0  0  0  0  0  0  0  0  0  0  0
  153.0518  136.6322  156.1647 N   0  0  0  0  0  0  0  0  0  0  0  0
  152.6666  139.4405  158.2067 C   0  0  0  0  0  0  0  0  0  0  0  0
  152.3307  140.7064  158.6348 N   0  0  0  0  0  0  0  0  0  0  0  0
  152.4602  141.0924  160.0116 C   0  0  0  0  0  0  0  0  0  0  0  0
  153.1288  142.4042  160.3739 C   0  0  0  0  0  0  0  0  0  0  0  0
  153.8329  141.0981  160.6487 C   0  0  0  0  0  0  0  0  0  0  0  0
  151.6271  141.5813  157.7788 C   0  0  0  0  0  0  0  0  0  0  0  0
  151.2309  142.6803  158.1756 O   0  0  0  0  0  0  0  0  0  0  0  0
  146.3882  140.5893  152.3917 H   0  0  0  0  0  0  0  0  0  0  0  0
  147.6682  139.9106  153.3918 H   0  0  0  0  0  0  0  0  0  0  0  0
  148.0687  141.0066  152.0694 H   0  0  0  0  0  0  0  0  0  0  0  0
  146.8673  142.8766  153.2633 H   0  0  0  0  0  0  0  0  0  0  0  0
  146.4850  141.8035  154.5888 H   0  0  0  0  0  0  0  0  0  0  0  0
  148.7755  143.3199  154.4007 H   0  0  0  0  0  0  0  0  0  0  0  0
  151.2913  142.3588  154.6996 H   0  0  0  0  0  0  0  0  0  0  0  0
  150.4202  143.0074  156.0323 H   0  0  0  0  0  0  0  0  0  0  0  0
  153.1540  138.7725  158.9025 H   0  0  0  0  0  0  0  0  0  0  0  0
  151.6393  140.7865  160.6579 H   0  0  0  0  0  0  0  0  0  0  0  0
  153.5237  143.0209  159.5688 H   0  0  0  0  0  0  0  0  0  0  0  0
  152.7295  142.9506  161.2257 H   0  0  0  0  0  0  0  0  0  0  0  0
  153.9064  140.7758  161.6853 H   0  0  0  0  0  0  0  0  0  0  0  0
  154.6901  140.8541  160.0239 H   0  0  0  0  0  0  0  0  0  0  0  0
  1  2  1  0  0  0  0
  1 20  1  0  0  0  0
  1 21  1  0  0  0  0
  1 22  1  0  0  0  0
  2  3  1  0  0  0  0
  2 23  1  0  0  0  0
  2 24  1  0  0  0  0
  3  4  1  0  0  0  0
  3 25  1  0  0  0  0
  4  5  2  0  0  0  0
  4  6  1  0  0  0  0
  6  7  1  0  0  0  0
  6 26  1  0  0  0  0
  6 27  1  0  0  0  0
  7 18  1  0  0  0  0
  7  8  1  0  0  0  0
  8  9  2  0  0  0  0
  8 10  1  0  0  0  0
 10 11  1  0  0  0  0
 10 13  2  0  0  0  0
 11 12  3  0  0  0  0
 13 14  1  0  0  0  0
 13 28  1  0  0  0  0
 14 15  1  0  0  0  0
 14 18  1  0  0  0  0
 15 17  1  0  0  0  0
 15 16  1  0  0  0  0
 15 29  1  0  0  0  0
 16 17  1  0  0  0  0
 16 30  1  0  0  0  0
 16 31  1  0  0  0  0
 17 32  1  0  0  0  0
 17 33  1  0  0  0  0
 18 19  2  0  0  0  0
M  END
> <s_m_source_file>
AV-unprocessed.smi

> <i_m_source_file_index>
377

> <i_lp_mmshare_version>
43012

> <i_f3d_flags>
0

> <s_epik_input>
W0NIM11bQ0gyXVtOSF1DKD1PKVtDSDJdbjFjKD1PKWMoQyNOKVtjSF1uKGMxPU8pW0NIXTJbQ0gyXVtDSDJdMg==

> <s_epik_cmdline>
J2VwaWtfcHl0aG9uJywgJy1waCcsICc3LjAnLCAnLXRuJywgJzgnLCAnLW1hJywgJzIwMCcsICctbWV0YWxfYmluZGluZycsICctaW1hZScsICc8aW5maWxlLm1hZT4nLCAnLW9tYWUnLCAnPG91dGZpbGUubWFlPic=

> <r_lp_tautomer_probability>
1

> <r_epik_Ionization_Penalty>
1.81858e-08

> <r_epik_Ionization_Penalty_Charging>
8.22213e-11

> <r_epik_Ionization_Penalty_Neutral>
1.81036e-08

> <r_epik_State_Penalty>
-0

> <r_epik_Charging_Adjusted_Penalty>
8.22213e-11

> <i_epik_Tot_Q>
0

> <i_epik_Tot_abs_Q>
0

> <r_epik_Metal_State_Penalty>
-0

> <b_epik_Metal_Only>
0

> <s_lp_Force_Field>
OPLS_2005

> <r_lp_Energy>
28.0616

> <b_lp_Chiralities_Consistent>
1

> <s_lp_Variant>
AV-unprocessed.smi:377-1

> <Gold.Version>
5.8.1

> <Gold.Id.Protein>
6NUR|6NUR_protein|mol2

> <Gold.PLP.Fitness>
43.4086

> <Gold.PLP.PLP>
-35.5406

> <Gold.PLP.part.hbond>
-2.9174

> <Gold.PLP.part.metal>
0.0000

> <Gold.PLP.part.buried>
-4.8576

> <Gold.PLP.part.nonpolar>
-28.8417

> <Gold.PLP.part.repulsive>
0.3693

> <Gold.PLP.ligand.clash>
0.0000

> <Gold.PLP.ligand.torsion>
0.3834

> <Gold.PLP.Chemscore.Hbond>
2.8080

> <Gold.PLP.Chemscore.CHOScore>
0.0000

> <Gold.PLP.Chemscore.Metal>
0.0000

> <Gold.Chemscore.Hbonds>
donor molecule, donor type, donor heavy atom, donor atom, acceptor molecule, acceptor atom, score
      L1  H     3    25       P1  8028  0.75
      P1  H  7989  7998       L1     9  1.00
      P1  H 10752 10765       L1    12  0.85

> <Gold.PLP.Chemscore.Internal.Correction>
0.2107

> <Gold.Rescore>
     Score         DG    S(hbond)    S(metal)    S(lipo)     H(rot)  DE(clash)    DE(int)     intcor
     11.34     -16.34       2.59        0.00      60.32       1.89       0.29       4.72       ----

> <Gold.Chemscore.Fitness>
11.3373

> <Gold.Chemscore.DG>
-16.3428

> <Gold.Chemscore.ZeroCoef>
-5.4800

> <Gold.Chemscore.Hbond>
2.5887

> <Gold.Chemscore.Metal>
0.0000

> <Gold.Chemscore.Lipo>
60.3182

> <Gold.Chemscore.Internal_Hbond>
0.0000

> <Gold.Chemscore.DEClash>
0.2886

> <Gold.Chemscore.DEInternal>
4.7169

> <Gold.Chemscore.Rot>
1.8908

> <Gold.Chemscore.Internal.Correction>
   9.000000E+99

> <Gold.Chemscore.Hbonds>
donor molecule, donor type, donor heavy atom, donor atom, acceptor molecule, acceptor atom, score
      L1  H     3    25       P1  8028  0.76
      P1  H  7989  7998       L1     9  0.94
      P1  H 10752 10765       L1    12  0.79

> <Gold.Chemscore.Hbond.Weighted>
-8.6461

> <Gold.Chemscore.Metal.Weighted>
-0.0000

> <Gold.Chemscore.Lipo.Weighted>
-7.0572

> <Gold.Chemscore.Internal_Hbond.Weighted>
0.0000

> <Gold.Chemscore.DEClash.Weighted>
0.2886

> <Gold.Chemscore.DEInternal.Weighted>
4.7169

> <Gold.Chemscore.Rot.Weighted>
4.8406

> <Gold.Chemscore.Internal.Correction.Weighted>
   9.000000E+99

> <Gold.Protein.RotatedTorsions>
[ 6907 6896 6895 6894 ] final -125.87 input  -60.11 | X-H torsion
[ 7974 7965 7964 7962 ] final  -85.00 input  175.53 | X-H torsion
[ 8008 7997 7996 7995 ] final -124.43 input   59.86 | X-H torsion
[ 10167 10162 10161 10158 ] final  157.13 input  -65.29 | X-H torsion
[ 10718 10713 10712 10709 ] final  111.47 input   66.30 | X-H torsion
[ 10763 10752 10751 10750 ] final -134.93 input  -60.55 | X-H torsion
[ 11005 11000 10999 10996 ] final   64.26 input  -57.11 | X-H torsion

> <Gold.Protein.ActiveResidues>
 VAL166  LYS551  ARG553  GLY616  TRP617  ASP618  TYR619  PRO620  LYS621  CYS622 
 ASP623  PHE694  ASN695  SER759  ASP760  ASP761  ALA762  ILE779  LEU786  VAL792 
 PHE793  MET794  SER795  GLU796  ALA797  LYS798  CYS799  TRP800  GLU811  SER814 

> <Gold.Protein.RotatedAtoms>
  150.8911  133.7241  159.2904 H   0  0  0  0  0  0  0  0  0  0  0  0  # atno 6907 bound_to 6896
  151.4791  135.1049  159.9782 H   0  0  0  0  0  0  0  0  0  0  0  0  # atno 6908 bound_to 6896
  152.4821  133.8233  159.7120 H   0  0  0  0  0  0  0  0  0  0  0  0  # atno 6909 bound_to 6896
  145.4991  140.9548  143.1769 H   0  0  0  0  0  0  0  0  0  0  0  0  # atno 7974 bound_to 7965
  155.1968  140.0415  157.2910 H   0  0  0  0  0  0  0  0  0  0  0  0  # atno 8008 bound_to 7997
  154.6101  140.2474  155.7651 H   0  0  0  0  0  0  0  0  0  0  0  0  # atno 8009 bound_to 7997
  156.2374  140.2916  156.0359 H   0  0  0  0  0  0  0  0  0  0  0  0  # atno 8010 bound_to 7997
  139.4822  144.4946  151.8258 H   0  0  0  0  0  0  0  0  0  0  0  0  # atno 10167 bound_to 10162
  157.6443  131.0951  150.6753 H   0  0  0  0  0  0  0  0  0  0  0  0  # atno 10718 bound_to 10713
  154.8711  135.3719  154.4816 H   0  0  0  0  0  0  0  0  0  0  0  0  # atno 10763 bound_to 10752
  153.5469  135.7025  153.5614 H   0  0  0  0  0  0  0  0  0  0  0  0  # atno 10764 bound_to 10752
  153.3751  135.4011  155.1781 H   0  0  0  0  0  0  0  0  0  0  0  0  # atno 10765 bound_to 10752
  139.9970  134.6501  155.9993 H   0  0  0  0  0  0  0  0  0  0  0  0  # atno 11005 bound_to 11000
  144.7790  139.6567  143.7162 LP  0  0  0  0  0  0  0  0  0  0  0  0  # atno 17320 bound_to 7965
  146.2237  139.5682  142.9601 LP  0  0  0  0  0  0  0  0  0  0  0  0  # atno 17321 bound_to 7965
  140.4433  144.1956  150.5892 LP  0  0  0  0  0  0  0  0  0  0  0  0  # atno 17342 bound_to 10162
  140.4660  143.2430  151.9154 LP  0  0  0  0  0  0  0  0  0  0  0  0  # atno 17343 bound_to 10162
  156.7072  130.4641  149.5557 LP  0  0  0  0  0  0  0  0  0  0  0  0  # atno 17370 bound_to 10713
  156.1754  130.6464  151.0888 LP  0  0  0  0  0  0  0  0  0  0  0  0  # atno 17371 bound_to 10713
  141.1612  133.6539  156.4327 LP  0  0  0  0  0  0  0  0  0  0  0  0  # atno 17394 bound_to 11000
  140.4798  134.6675  157.5166 LP  0  0  0  0  0  0  0  0  0  0  0  0  # atno 17395 bound_to 11000

$$$$
