AV-unprocessed.smi:3243|AV-procd|sdf|12396|dock9
  -GOLD-   2272018263D 1   1.00000     0.00000
 Structure written by MMmdl.
 37 38  0  0  0  0  0  0  0  0  1 V2000
  152.0068  144.3937  157.7426 C   0  0  0  0  0  0  0  0  0  0  0  0
  151.5024  144.1356  159.1697 C   0  0  0  0  0  0  0  0  0  0  0  0
  151.4795  145.4012  160.0390 C   0  0  0  0  0  0  0  0  0  0  0  0
  152.2361  143.0115  159.8313 C   0  0  0  0  0  0  0  0  0  0  0  0
  152.4369  141.8193  159.2615 N   0  0  0  0  0  0  0  0  0  0  0  0
  153.1452  140.9383  160.0841 C   0  0  0  0  0  0  0  0  0  0  0  0
  153.4488  139.5510  159.6064 C   0  0  0  0  0  0  0  0  0  0  0  0
  152.1853  138.6786  159.5225 C   0  0  0  0  0  0  0  0  0  0  0  0
  152.0541  138.0446  158.2159 N   0  0  0  0  0  0  0  0  0  0  0  0
  152.2747  138.6498  157.0388 C   0  0  0  0  0  0  0  0  0  0  0  0
  152.5880  139.8357  156.9366 O   0  0  0  0  0  0  0  0  0  0  0  0
  152.0427  137.7802  155.8496 C   0  0  2  0  0  0  0  0  0  0  0  0
  152.4484  138.3045  154.4869 C   0  0  0  0  0  0  0  0  0  0  0  0
  150.9842  138.1872  154.8321 C   0  0  2  0  0  0  0  0  0  0  0  0
  150.1310  139.4389  154.9409 C   0  0  0  0  0  0  0  0  0  0  0  0
  153.4850  141.4854  161.2964 C   0  0  0  0  0  0  0  0  0  0  0  0
  152.9247  143.1280  161.4474 S   0  0  0  0  0  0  0  0  0  0  0  0
  151.9324  143.4936  157.1317 H   0  0  0  0  0  0  0  0  0  0  0  0
  153.0500  144.7118  157.7421 H   0  0  0  0  0  0  0  0  0  0  0  0
  151.4218  145.1736  157.2544 H   0  0  0  0  0  0  0  0  0  0  0  0
  150.4658  143.8105  159.0739 H   0  0  0  0  0  0  0  0  0  0  0  0
  151.0361  145.1985  161.0144 H   0  0  0  0  0  0  0  0  0  0  0  0
  150.8939  146.1911  159.5678 H   0  0  0  0  0  0  0  0  0  0  0  0
  152.4859  145.7875  160.2042 H   0  0  0  0  0  0  0  0  0  0  0  0
  153.9312  139.5965  158.6290 H   0  0  0  0  0  0  0  0  0  0  0  0
  154.1718  139.0790  160.2732 H   0  0  0  0  0  0  0  0  0  0  0  0
  152.2287  137.8913  160.2755 H   0  0  0  0  0  0  0  0  0  0  0  0
  151.2946  139.2699  159.7427 H   0  0  0  0  0  0  0  0  0  0  0  0
  151.7782  137.0734  158.2050 H   0  0  0  0  0  0  0  0  0  0  0  0
  152.1276  136.7110  156.0327 H   0  0  0  0  0  0  0  0  0  0  0  0
  152.8727  139.3054  154.4253 H   0  0  0  0  0  0  0  0  0  0  0  0
  152.8664  137.5856  153.7853 H   0  0  0  0  0  0  0  0  0  0  0  0
  150.4463  137.3532  154.3852 H   0  0  0  0  0  0  0  0  0  0  0  0
  150.7186  140.2922  155.2811 H   0  0  0  0  0  0  0  0  0  0  0  0
  149.3137  139.2748  155.6434 H   0  0  0  0  0  0  0  0  0  0  0  0
  149.7059  139.6840  153.9676 H   0  0  0  0  0  0  0  0  0  0  0  0
  154.0269  141.0230  162.1080 H   0  0  0  0  0  0  0  0  0  0  0  0
  1  2  1  0  0  0  0
  1 18  1  0  0  0  0
  1 19  1  0  0  0  0
  1 20  1  0  0  0  0
  2  3  1  0  0  0  0
  2  4  1  0  0  0  0
  2 21  1  0  0  0  0
  3 22  1  0  0  0  0
  3 23  1  0  0  0  0
  3 24  1  0  0  0  0
  4 17  1  0  0  0  0
  4  5  2  0  0  0  0
  5  6  1  0  0  0  0
  6  7  1  0  0  0  0
  6 16  2  0  0  0  0
  7  8  1  0  0  0  0
  7 25  1  0  0  0  0
  7 26  1  0  0  0  0
  8  9  1  0  0  0  0
  8 27  1  0  0  0  0
  8 28  1  0  0  0  0
  9 10  1  0  0  0  0
  9 29  1  0  0  0  0
 10 11  2  0  0  0  0
 10 12  1  0  0  0  0
 12 14  1  0  0  0  0
 12 13  1  0  0  0  0
 12 30  1  0  0  0  0
 13 14  1  0  0  0  0
 13 31  1  0  0  0  0
 13 32  1  0  0  0  0
 14 15  1  0  0  0  0
 14 33  1  0  0  0  0
 15 34  1  0  0  0  0
 15 35  1  0  0  0  0
 15 36  1  0  0  0  0
 16 17  1  0  0  0  0
 16 37  1  0  0  0  0
M  END
> <s_m_source_file>
AV-unprocessed.smi

> <i_m_source_file_index>
3243

> <i_lp_mmshare_version>
43012

> <i_f3d_flags>
0

> <s_epik_input>
W0NIM11bQ0hdKFtDSDNdKWMxbmMoW2NIXXMxKVtDSDJdW0NIMl1bTkhdQyg9TylbQ0BASF0yW0NIMl1bQ0BIXTJbQ0gzXQ==

> <s_epik_cmdline>
J2VwaWtfcHl0aG9uJywgJy1waCcsICc3LjAnLCAnLXRuJywgJzgnLCAnLW1hJywgJzIwMCcsICctbWV0YWxfYmluZGluZycsICctaW1hZScsICc8aW5maWxlLm1hZT4nLCAnLW9tYWUnLCAnPG91dGZpbGUubWFlPic=

> <r_epik_Ionization_Penalty>
0.00084212

> <r_epik_Ionization_Penalty_Charging>
0

> <r_epik_Ionization_Penalty_Neutral>
0.00084212

> <r_epik_State_Penalty>
0.000542609

> <r_epik_Charging_Adjusted_Penalty>
0.000542609

> <i_epik_Tot_Q>
0

> <i_epik_Tot_abs_Q>
0

> <r_epik_Metal_State_Penalty>
-0

> <b_epik_Metal_Only>
0

> <s_lp_Force_Field>
OPLS_2005

> <r_lp_Energy>
-0.500157

> <b_lp_Chiralities_Consistent>
1

> <s_lp_Variant>
AV-unprocessed.smi:3243-3

> <Gold.Version>
5.8.1

> <Gold.Id.Protein>
6NUR|6NUR_protein|mol2

> <Gold.PLP.Fitness>
44.3883

> <Gold.PLP.PLP>
-42.7657

> <Gold.PLP.part.hbond>
-1.0000

> <Gold.PLP.part.metal>
0.0000

> <Gold.PLP.part.buried>
-4.0402

> <Gold.PLP.part.nonpolar>
-36.7743

> <Gold.PLP.part.repulsive>
0.0727

> <Gold.PLP.ligand.clash>
0.0000

> <Gold.PLP.ligand.torsion>
0.7719

> <Gold.PLP.Chemscore.Hbond>
1.0000

> <Gold.PLP.Chemscore.CHOScore>
0.0000

> <Gold.PLP.Chemscore.Metal>
0.0000

> <Gold.Chemscore.Hbonds>
donor molecule, donor type, donor heavy atom, donor atom, acceptor molecule, acceptor atom, score
      P1  H  7997  8009       L1    11  1.00

> <Gold.PLP.Chemscore.Internal.Correction>
0.1665

> <Gold.Rescore>
     Score         DG    S(hbond)    S(metal)    S(lipo)     H(rot)  DE(clash)    DE(int)     intcor
     17.55     -19.52       0.97        0.00     124.97       1.49       0.05       1.92       ----

> <Gold.Chemscore.Fitness>
17.5512

> <Gold.Chemscore.DG>
-19.5201

> <Gold.Chemscore.ZeroCoef>
-5.4800

> <Gold.Chemscore.Hbond>
0.9657

> <Gold.Chemscore.Metal>
0.0000

> <Gold.Chemscore.Lipo>
124.9672

> <Gold.Chemscore.Internal_Hbond>
0.0000

> <Gold.Chemscore.DEClash>
0.0474

> <Gold.Chemscore.DEInternal>
1.9215

> <Gold.Chemscore.Rot>
1.4870

> <Gold.Chemscore.Internal.Correction>
   9.000000E+99

> <Gold.Chemscore.Hbonds>
donor molecule, donor type, donor heavy atom, donor atom, acceptor molecule, acceptor atom, score
      P1  H  7997  8009       L1    11  0.88

> <Gold.Chemscore.Hbond.Weighted>
-3.2256

> <Gold.Chemscore.Metal.Weighted>
-0.0000

> <Gold.Chemscore.Lipo.Weighted>
-14.6212

> <Gold.Chemscore.Internal_Hbond.Weighted>
0.0000

> <Gold.Chemscore.DEClash.Weighted>
0.0474

> <Gold.Chemscore.DEInternal.Weighted>
1.9215

> <Gold.Chemscore.Rot.Weighted>
3.8067

> <Gold.Chemscore.Internal.Correction.Weighted>
   9.000000E+99

> <Gold.Protein.RotatedTorsions>
[ 6907 6896 6895 6894 ] final  171.69 input  -60.11 | X-H torsion
[ 7974 7965 7964 7962 ] final   78.20 input  175.53 | X-H torsion
[ 8008 7997 7996 7995 ] final -177.78 input   59.86 | X-H torsion
[ 10167 10162 10161 10158 ] final   73.11 input  -65.29 | X-H torsion
[ 10718 10713 10712 10709 ] final -156.73 input   66.30 | X-H torsion
[ 10763 10752 10751 10750 ] final -168.46 input  -60.55 | X-H torsion
[ 11005 11000 10999 10996 ] final  103.36 input  -57.11 | X-H torsion

> <Gold.Protein.ActiveResidues>
 VAL166  LYS551  ARG553  GLY616  TRP617  ASP618  TYR619  PRO620  LYS621  CYS622 
 ASP623  PHE694  ASN695  SER759  ASP760  ASP761  ALA762  ILE779  LEU786  VAL792 
 PHE793  MET794  SER795  GLU796  ALA797  LYS798  CYS799  TRP800  GLU811  SER814 

> <Gold.Protein.RotatedAtoms>
  151.7962  133.3365  159.3513 H   0  0  0  0  0  0  0  0  0  0  0  0  # atno 6907 bound_to 6896
  150.7374  134.5796  159.5941 H   0  0  0  0  0  0  0  0  0  0  0  0  # atno 6908 bound_to 6896
  152.3175  134.7423  160.0373 H   0  0  0  0  0  0  0  0  0  0  0  0  # atno 6909 bound_to 6896
  145.6803  139.2522  143.1818 H   0  0  0  0  0  0  0  0  0  0  0  0  # atno 7974 bound_to 7965
  156.0111  140.1241  157.0453 H   0  0  0  0  0  0  0  0  0  0  0  0  # atno 8008 bound_to 7997
  154.4276  140.1087  156.5900 H   0  0  0  0  0  0  0  0  0  0  0  0  # atno 8009 bound_to 7997
  155.6079  140.3471  155.4615 H   0  0  0  0  0  0  0  0  0  0  0  0  # atno 8010 bound_to 7997
  140.0280  144.5488  150.7529 H   0  0  0  0  0  0  0  0  0  0  0  0  # atno 10167 bound_to 10162
  156.5306  130.8519  151.2714 H   0  0  0  0  0  0  0  0  0  0  0  0  # atno 10718 bound_to 10713
  154.6626  135.2927  154.9847 H   0  0  0  0  0  0  0  0  0  0  0  0  # atno 10763 bound_to 10752
  154.0901  135.6592  153.4855 H   0  0  0  0  0  0  0  0  0  0  0  0  # atno 10764 bound_to 10752
  153.0438  135.5218  154.7584 H   0  0  0  0  0  0  0  0  0  0  0  0  # atno 10765 bound_to 10752
  139.8783  134.9260  156.5197 H   0  0  0  0  0  0  0  0  0  0  0  0  # atno 11005 bound_to 11000
  146.0970  140.7589  142.9567 LP  0  0  0  0  0  0  0  0  0  0  0  0  # atno 17320 bound_to 7965
  144.7028  140.3727  143.7142 LP  0  0  0  0  0  0  0  0  0  0  0  0  # atno 17321 bound_to 7965
  140.7314  143.2694  151.3937 LP  0  0  0  0  0  0  0  0  0  0  0  0  # atno 17342 bound_to 10162
  139.6095  144.1127  152.2284 LP  0  0  0  0  0  0  0  0  0  0  0  0  # atno 17343 bound_to 10162
  157.7422  130.9886  150.2502 LP  0  0  0  0  0  0  0  0  0  0  0  0  # atno 17370 bound_to 10713
  156.3064  130.3765  149.7702 LP  0  0  0  0  0  0  0  0  0  0  0  0  # atno 17371 bound_to 10713
  140.8459  133.8169  155.9121 LP  0  0  0  0  0  0  0  0  0  0  0  0  # atno 17394 bound_to 11000
  140.9191  134.2164  157.4937 LP  0  0  0  0  0  0  0  0  0  0  0  0  # atno 17395 bound_to 11000

$$$$
