AV-unprocessed.smi:888|AV-procd|sdf|4054|dock10
  -GOLD-   22720 1543D 1   1.00000     0.00000
 Structure written by MMmdl.
 45 46  0  0  0  0  0  0  0  0  1 V2000
  148.4911  141.1990  154.3023 C   0  0  0  0  0  0  0  0  0  0  0  0
  149.5533  141.0169  155.3935 C   0  0  0  0  0  0  0  0  0  0  0  0
  150.4155  139.8104  155.1672 C   0  0  0  0  0  0  0  0  0  0  0  0
  151.7236  139.9049  154.8958 N   0  0  0  0  0  0  0  0  0  0  0  0
  152.1747  138.6094  154.7561 N   0  0  0  0  0  0  0  0  0  0  0  0
  151.0972  137.8575  154.9694 C   0  0  0  0  0  0  0  0  0  0  0  0
  149.9698  138.5344  155.2373 N   0  0  0  0  0  0  0  0  0  0  0  0
  148.6588  137.9760  155.5315 C   0  0  0  0  0  0  0  0  0  0  0  0
  148.6541  136.4351  155.5340 C   0  0  0  0  0  0  0  0  0  0  0  0
  148.1360  135.8650  154.2902 N   0  0  0  0  0  0  0  0  0  0  0  0
  147.0941  135.0290  154.1337 C   0  0  0  0  0  0  0  0  0  0  0  0
  146.4373  134.6247  155.0909 O   0  0  0  0  0  0  0  0  0  0  0  0
  146.8510  134.6705  152.8621 N   0  0  0  0  0  0  0  0  0  0  0  0
  145.8042  133.7482  152.4251 C   0  0  2  0  0  0  0  0  0  0  0  0
  146.4226  132.5938  151.6121 C   0  0  0  0  0  0  0  0  0  0  0  0
  145.8392  132.6971  150.2056 C   0  0  0  0  0  0  0  0  0  0  0  0
  144.4825  133.3605  150.4162 C   0  0  0  0  0  0  0  0  0  0  0  0
  144.7103  134.4049  151.5248 C   0  0  0  0  0  0  0  0  0  0  0  0
  143.4124  134.6521  152.3165 C   0  0  0  0  0  0  0  0  0  0  0  0
  145.1566  135.7386  150.8771 C   0  0  0  0  0  0  0  0  0  0  0  0
  147.8645  142.0660  154.5117 H   0  0  0  0  0  0  0  0  0  0  0  0
  147.8412  140.3274  154.2301 H   0  0  0  0  0  0  0  0  0  0  0  0
  148.9511  141.3502  153.3255 H   0  0  0  0  0  0  0  0  0  0  0  0
  150.1968  141.8966  155.4262 H   0  0  0  0  0  0  0  0  0  0  0  0
  149.0650  140.9649  156.3644 H   0  0  0  0  0  0  0  0  0  0  0  0
  151.1323  136.7783  154.9357 H   0  0  0  0  0  0  0  0  0  0  0  0
  148.3672  138.3302  156.5210 H   0  0  0  0  0  0  0  0  0  0  0  0
  147.9159  138.3830  154.8473 H   0  0  0  0  0  0  0  0  0  0  0  0
  149.6681  136.0622  155.6810 H   0  0  0  0  0  0  0  0  0  0  0  0
  148.0750  136.0633  156.3809 H   0  0  0  0  0  0  0  0  0  0  0  0
  148.6413  136.1135  153.4516 H   0  0  0  0  0  0  0  0  0  0  0  0
  147.4425  135.0584  152.1418 H   0  0  0  0  0  0  0  0  0  0  0  0
  145.3410  133.3008  153.3069 H   0  0  0  0  0  0  0  0  0  0  0  0
  147.5134  132.6108  151.5952 H   0  0  0  0  0  0  0  0  0  0  0  0
  146.1271  131.6424  152.0564 H   0  0  0  0  0  0  0  0  0  0  0  0
  146.4725  133.3330  149.5860 H   0  0  0  0  0  0  0  0  0  0  0  0
  145.7597  131.7275  149.7133 H   0  0  0  0  0  0  0  0  0  0  0  0
  144.0822  133.7887  149.4965 H   0  0  0  0  0  0  0  0  0  0  0  0
  143.7719  132.6034  150.7517 H   0  0  0  0  0  0  0  0  0  0  0  0
  142.6251  135.0443  151.6721 H   0  0  0  0  0  0  0  0  0  0  0  0
  143.5713  135.3722  153.1197 H   0  0  0  0  0  0  0  0  0  0  0  0
  143.0378  133.7337  152.7701 H   0  0  0  0  0  0  0  0  0  0  0  0
  144.4060  136.1052  150.1759 H   0  0  0  0  0  0  0  0  0  0  0  0
  146.0908  135.6307  150.3255 H   0  0  0  0  0  0  0  0  0  0  0  0
  145.3006  136.5212  151.6228 H   0  0  0  0  0  0  0  0  0  0  0  0
  1  2  1  0  0  0  0
  1 21  1  0  0  0  0
  1 22  1  0  0  0  0
  1 23  1  0  0  0  0
  2  3  1  0  0  0  0
  2 24  1  0  0  0  0
  2 25  1  0  0  0  0
  3  7  1  0  0  0  0
  3  4  2  0  0  0  0
  4  5  1  0  0  0  0
  5  6  2  0  0  0  0
  6  7  1  0  0  0  0
  6 26  1  0  0  0  0
  7  8  1  0  0  0  0
  8  9  1  0  0  0  0
  8 27  1  0  0  0  0
  8 28  1  0  0  0  0
  9 10  1  0  0  0  0
  9 29  1  0  0  0  0
  9 30  1  0  0  0  0
 10 11  1  0  0  0  0
 10 31  1  0  0  0  0
 11 12  2  0  0  0  0
 11 13  1  0  0  0  0
 13 14  1  0  0  0  0
 13 32  1  0  0  0  0
 14 18  1  0  0  0  0
 14 15  1  0  0  0  0
 14 33  1  0  0  0  0
 15 16  1  0  0  0  0
 15 34  1  0  0  0  0
 15 35  1  0  0  0  0
 16 17  1  0  0  0  0
 16 36  1  0  0  0  0
 16 37  1  0  0  0  0
 17 18  1  0  0  0  0
 17 38  1  0  0  0  0
 17 39  1  0  0  0  0
 18 19  1  0  0  0  0
 18 20  1  0  0  0  0
 19 40  1  0  0  0  0
 19 41  1  0  0  0  0
 19 42  1  0  0  0  0
 20 43  1  0  0  0  0
 20 44  1  0  0  0  0
 20 45  1  0  0  0  0
M  END
> <s_m_source_file>
AV-unprocessed.smi

> <i_m_source_file_index>
888

> <i_lp_mmshare_version>
43012

> <i_f3d_flags>
0

> <s_epik_input>
W0NIM11bQ0gyXWMxbm5bY0hdbjFbQ0gyXVtDSDJdW05IXUMoPU8pW05IXVtDQEBIXShDMihbQ0gzXSlbQ0gzXSlbQ0gyXVtDSDJdW0NIMl0y

> <s_epik_cmdline>
J2VwaWtfcHl0aG9uJywgJy1waCcsICc3LjAnLCAnLXRuJywgJzgnLCAnLW1hJywgJzIwMCcsICctbWV0YWxfYmluZGluZycsICctaW1hZScsICc8aW5maWxlLm1hZT4nLCAnLW9tYWUnLCAnPG91dGZpbGUubWFlPic=

> <r_lp_tautomer_probability>
1

> <r_epik_Ionization_Penalty>
0.000379534

> <r_epik_Ionization_Penalty_Charging>
0

> <r_epik_Ionization_Penalty_Neutral>
0.000379534

> <r_epik_State_Penalty>
-0

> <r_epik_Charging_Adjusted_Penalty>
0

> <i_epik_Tot_Q>
0

> <i_epik_Tot_abs_Q>
0

> <r_epik_Metal_State_Penalty>
-0

> <b_epik_Metal_Only>
0

> <s_lp_Force_Field>
OPLS_2005

> <r_lp_Energy>
31.9266

> <b_lp_Chiralities_Consistent>
1

> <s_lp_Variant>
AV-unprocessed.smi:888-1

> <Gold.Version>
5.8.1

> <Gold.Id.Protein>
6NUR|6NUR_protein|mol2

> <Gold.PLP.Fitness>
42.5538

> <Gold.PLP.PLP>
-34.6422

> <Gold.PLP.part.hbond>
-2.8971

> <Gold.PLP.part.metal>
0.0000

> <Gold.PLP.part.buried>
-5.2617

> <Gold.PLP.part.nonpolar>
-27.1591

> <Gold.PLP.part.repulsive>
0.1663

> <Gold.PLP.ligand.clash>
0.0000

> <Gold.PLP.ligand.torsion>
0.3435

> <Gold.PLP.Chemscore.Hbond>
2.8640

> <Gold.PLP.Chemscore.CHOScore>
0.0000

> <Gold.PLP.Chemscore.Metal>
0.0000

> <Gold.Chemscore.Hbonds>
donor molecule, donor type, donor heavy atom, donor atom, acceptor molecule, acceptor atom, score
      L1  H    10    31       P1  7948  1.00
      L1  H    13    32       P1  7948  0.88
      P1  H  7989  7998       L1     4  1.00

> <Gold.PLP.Chemscore.Internal.Correction>
0.0067

> <Gold.Rescore>
     Score         DG    S(hbond)    S(metal)    S(lipo)     H(rot)  DE(clash)    DE(int)     intcor
     16.42     -16.75       2.74        0.00      62.42       2.03       0.01       0.32       ----

> <Gold.Chemscore.Fitness>
16.4208

> <Gold.Chemscore.DG>
-16.7478

> <Gold.Chemscore.ZeroCoef>
-5.4800

> <Gold.Chemscore.Hbond>
2.7423

> <Gold.Chemscore.Metal>
0.0000

> <Gold.Chemscore.Lipo>
62.4231

> <Gold.Chemscore.Internal_Hbond>
0.0000

> <Gold.Chemscore.DEClash>
0.0069

> <Gold.Chemscore.DEInternal>
0.3201

> <Gold.Chemscore.Rot>
2.0293

> <Gold.Chemscore.Internal.Correction>
   9.000000E+99

> <Gold.Chemscore.Hbonds>
donor molecule, donor type, donor heavy atom, donor atom, acceptor molecule, acceptor atom, score
      L1  H    10    31       P1  7948  0.98
      L1  H    13    32       P1  7948  0.84
      P1  H  7989  7998       L1     4  0.23

> <Gold.Chemscore.Hbond.Weighted>
-9.1594

> <Gold.Chemscore.Metal.Weighted>
-0.0000

> <Gold.Chemscore.Lipo.Weighted>
-7.3035

> <Gold.Chemscore.Internal_Hbond.Weighted>
0.0000

> <Gold.Chemscore.DEClash.Weighted>
0.0069

> <Gold.Chemscore.DEInternal.Weighted>
0.3201

> <Gold.Chemscore.Rot.Weighted>
5.1950

> <Gold.Chemscore.Internal.Correction.Weighted>
   9.000000E+99

> <Gold.Protein.RotatedTorsions>
[ 6907 6896 6895 6894 ] final  -92.81 input  -60.11 | X-H torsion
[ 7974 7965 7964 7962 ] final  115.91 input  175.53 | X-H torsion
[ 8008 7997 7996 7995 ] final -155.47 input   59.86 | X-H torsion
[ 10167 10162 10161 10158 ] final -130.94 input  -65.29 | X-H torsion
[ 10718 10713 10712 10709 ] final  110.16 input   66.30 | X-H torsion
[ 10763 10752 10751 10750 ] final   31.30 input  -60.55 | X-H torsion
[ 11005 11000 10999 10996 ] final   47.92 input  -57.11 | X-H torsion

> <Gold.Protein.ActiveResidues>
 VAL166  LYS551  ARG553  GLY616  TRP617  ASP618  TYR619  PRO620  LYS621  CYS622 
 ASP623  PHE694  ASN695  SER759  ASP760  ASP761  ALA762  ILE779  LEU786  VAL792 
 PHE793  MET794  SER795  GLU796  ALA797  LYS798  CYS799  TRP800  GLU811  SER814 

> <Gold.Protein.RotatedAtoms>
  150.6912  134.2064  159.4341 H   0  0  0  0  0  0  0  0  0  0  0  0  # atno 6907 bound_to 6896
  152.0028  134.9917  160.0575 H   0  0  0  0  0  0  0  0  0  0  0  0  # atno 6908 bound_to 6896
  152.1562  133.4518  159.4875 H   0  0  0  0  0  0  0  0  0  0  0  0  # atno 6909 bound_to 6896
  145.1862  139.3024  143.4392 H   0  0  0  0  0  0  0  0  0  0  0  0  # atno 7974 bound_to 7965
  155.7024  140.0768  157.2405 H   0  0  0  0  0  0  0  0  0  0  0  0  # atno 8008 bound_to 7997
  154.4071  140.1645  156.2258 H   0  0  0  0  0  0  0  0  0  0  0  0  # atno 8009 bound_to 7997
  155.9356  140.3388  155.6288 H   0  0  0  0  0  0  0  0  0  0  0  0  # atno 8010 bound_to 7997
  139.9241  143.6348  152.2546 H   0  0  0  0  0  0  0  0  0  0  0  0  # atno 10167 bound_to 10162
  157.6507  131.0927  150.6561 H   0  0  0  0  0  0  0  0  0  0  0  0  # atno 10718 bound_to 10713
  153.0323  135.6442  154.1177 H   0  0  0  0  0  0  0  0  0  0  0  0  # atno 10763 bound_to 10752
  154.0898  135.2867  155.3275 H   0  0  0  0  0  0  0  0  0  0  0  0  # atno 10764 bound_to 10752
  154.6473  135.5438  153.7923 H   0  0  0  0  0  0  0  0  0  0  0  0  # atno 10765 bound_to 10752
  140.1236  134.4797  155.8577 H   0  0  0  0  0  0  0  0  0  0  0  0  # atno 11005 bound_to 11000
  146.3444  140.2059  142.8589 LP  0  0  0  0  0  0  0  0  0  0  0  0  # atno 17320 bound_to 7965
  145.0087  140.8695  143.5237 LP  0  0  0  0  0  0  0  0  0  0  0  0  # atno 17321 bound_to 7965
  139.6837  144.7653  151.1562 LP  0  0  0  0  0  0  0  0  0  0  0  0  # atno 17342 bound_to 10162
  140.7655  143.5688  150.9018 LP  0  0  0  0  0  0  0  0  0  0  0  0  # atno 17343 bound_to 10162
  156.6872  130.4584  149.5610 LP  0  0  0  0  0  0  0  0  0  0  0  0  # atno 17370 bound_to 10713
  156.1887  130.6546  151.1036 LP  0  0  0  0  0  0  0  0  0  0  0  0  # atno 17371 bound_to 10713
  141.2157  133.6769  156.6936 LP  0  0  0  0  0  0  0  0  0  0  0  0  # atno 17394 bound_to 11000
  140.2933  134.8223  157.4035 LP  0  0  0  0  0  0  0  0  0  0  0  0  # atno 17395 bound_to 11000

$$$$
