AV-unprocessed.smi:3045|AV-procd|sdf|11610|dock2
  -GOLD-   2272016593D 1   1.00000     0.00000
 Structure written by MMmdl.
 35 36  0  0  0  0  0  0  0  0  1 V2000
  151.8632  144.9452  160.4273 C   0  0  0  0  0  0  0  0  0  0  0  0
  152.3656  143.5953  160.2112 N   0  0  0  0  0  0  0  0  0  0  0  0
  153.0059  143.2233  158.9608 C   0  0  0  0  0  0  0  0  0  0  0  0
  153.2409  141.6992  159.0548 C   0  0  2  0  0  0  0  0  0  0  0  0
  152.3321  140.8993  158.1093 C   0  0  0  0  0  0  0  0  0  0  0  0
  152.7930  139.9681  157.4482 O   0  0  0  0  0  0  0  0  0  0  0  0
  151.0490  141.2893  158.0412 N   0  0  0  0  0  0  0  0  0  0  0  0
  150.0368  140.7248  157.1518 C   0  0  0  0  0  0  0  0  0  0  0  0
  150.0360  141.4010  155.7667 C   0  0  0  0  0  0  0  0  0  0  0  0
  148.9517  140.8850  154.8362 C   0  0  0  0  0  0  0  0  0  0  0  0
  148.9102  139.5295  154.4482 C   0  0  0  0  0  0  0  0  0  0  0  0
  147.8667  139.0960  153.6084 C   0  0  0  0  0  0  0  0  0  0  0  0
  146.9082  140.0394  153.1884 C   0  0  0  0  0  0  0  0  0  0  0  0
  146.9408  141.3405  153.5483 N   0  0  0  0  0  0  0  0  0  0  0  0
  147.9440  141.7477  154.3553 C   0  0  0  0  0  0  0  0  0  0  0  0
  152.9597  141.3388  160.5279 C   0  0  0  0  0  0  0  0  0  0  0  0
  152.3516  142.6045  161.1073 C   0  0  0  0  0  0  0  0  0  0  0  0
  151.9085  142.6686  162.2529 O   0  0  0  0  0  0  0  0  0  0  0  0
  152.4952  145.4753  161.1407 H   0  0  0  0  0  0  0  0  0  0  0  0
  150.8463  144.9202  160.8208 H   0  0  0  0  0  0  0  0  0  0  0  0
  151.8502  145.5138  159.4970 H   0  0  0  0  0  0  0  0  0  0  0  0
  152.3847  143.5104  158.1104 H   0  0  0  0  0  0  0  0  0  0  0  0
  153.9534  143.7559  158.8690 H   0  0  0  0  0  0  0  0  0  0  0  0
  154.2826  141.4796  158.8145 H   0  0  0  0  0  0  0  0  0  0  0  0
  150.7601  142.0618  158.6236 H   0  0  0  0  0  0  0  0  0  0  0  0
  150.1769  139.6478  157.0437 H   0  0  0  0  0  0  0  0  0  0  0  0
  149.0617  140.8555  157.6212 H   0  0  0  0  0  0  0  0  0  0  0  0
  149.9081  142.4774  155.8855 H   0  0  0  0  0  0  0  0  0  0  0  0
  151.0081  141.2630  155.2916 H   0  0  0  0  0  0  0  0  0  0  0  0
  149.6568  138.8305  154.7955 H   0  0  0  0  0  0  0  0  0  0  0  0
  147.7998  138.0642  153.2963 H   0  0  0  0  0  0  0  0  0  0  0  0
  146.0936  139.7410  152.5452 H   0  0  0  0  0  0  0  0  0  0  0  0
  147.9364  142.7911  154.6344 H   0  0  0  0  0  0  0  0  0  0  0  0
  152.2750  140.4981  160.6518 H   0  0  0  0  0  0  0  0  0  0  0  0
  153.8827  141.1017  161.0580 H   0  0  0  0  0  0  0  0  0  0  0  0
  1  2  1  0  0  0  0
  1 19  1  0  0  0  0
  1 20  1  0  0  0  0
  1 21  1  0  0  0  0
  2 17  1  0  0  0  0
  2  3  1  0  0  0  0
  3  4  1  0  0  0  0
  3 22  1  0  0  0  0
  3 23  1  0  0  0  0
  4  5  1  0  0  0  0
  4 16  1  0  0  0  0
  4 24  1  0  0  0  0
  5  6  2  0  0  0  0
  5  7  1  0  0  0  0
  7  8  1  0  0  0  0
  7 25  1  0  0  0  0
  8  9  1  0  0  0  0
  8 26  1  0  0  0  0
  8 27  1  0  0  0  0
  9 10  1  0  0  0  0
  9 28  1  0  0  0  0
  9 29  1  0  0  0  0
 10 15  1  0  0  0  0
 10 11  2  0  0  0  0
 11 12  1  0  0  0  0
 11 30  1  0  0  0  0
 12 13  2  0  0  0  0
 12 31  1  0  0  0  0
 13 14  1  0  0  0  0
 13 32  1  0  0  0  0
 14 15  2  0  0  0  0
 15 33  1  0  0  0  0
 16 17  1  0  0  0  0
 16 34  1  0  0  0  0
 16 35  1  0  0  0  0
 17 18  2  0  0  0  0
M  END
> <s_m_source_file>
AV-unprocessed.smi

> <i_m_source_file_index>
3045

> <i_lp_mmshare_version>
43012

> <i_f3d_flags>
0

> <s_epik_input>
W0NIM11OMVtDSDJdW0NASF0oW0NIMl1DMT1PKUMoPU8pW05IXVtDSDJdW0NIMl1jMltjSF1bY0hdW2NIXW5bY0hdMg==

> <s_epik_cmdline>
J2VwaWtfcHl0aG9uJywgJy1waCcsICc3LjAnLCAnLXRuJywgJzgnLCAnLW1hJywgJzIwMCcsICctbWV0YWxfYmluZGluZycsICctaW1hZScsICc8aW5maWxlLm1hZT4nLCAnLW9tYWUnLCAnPG91dGZpbGUubWFlPic=

> <r_epik_Ionization_Penalty>
0.0130932

> <r_epik_Ionization_Penalty_Charging>
0

> <r_epik_Ionization_Penalty_Neutral>
0.0130932

> <r_epik_State_Penalty>
0.0101714

> <r_epik_Charging_Adjusted_Penalty>
0.0101714

> <i_epik_Tot_Q>
0

> <i_epik_Tot_abs_Q>
0

> <r_epik_Metal_State_Penalty>
0.00995082

> <b_epik_Metal_Only>
0

> <s_lp_Force_Field>
OPLS_2005

> <r_lp_Energy>
10.4335

> <b_lp_Chiralities_Consistent>
1

> <s_lp_Variant>
AV-unprocessed.smi:3045-2

> <Gold.Version>
5.8.1

> <Gold.Id.Protein>
6NUR|6NUR_protein|mol2

> <Gold.PLP.Fitness>
47.4938

> <Gold.PLP.PLP>
-37.2004

> <Gold.PLP.part.hbond>
-2.0000

> <Gold.PLP.part.metal>
0.0000

> <Gold.PLP.part.buried>
-4.3145

> <Gold.PLP.part.nonpolar>
-34.2189

> <Gold.PLP.part.repulsive>
1.8587

> <Gold.PLP.ligand.clash>
0.0000

> <Gold.PLP.ligand.torsion>
0.5854

> <Gold.PLP.Chemscore.Hbond>
1.8112

> <Gold.PLP.Chemscore.CHOScore>
2.0000

> <Gold.PLP.Chemscore.Metal>
0.0000

> <Gold.Chemscore.Hbonds>
donor molecule, donor type, donor heavy atom, donor atom, acceptor molecule, acceptor atom, score
      P1  H  6933  6945       L1    18  0.91
      P1  H  7997  8010       L1     6  1.00
      L1  C    13    32       P1 10175  1.00
      L1  C    15    33       P1  8028  1.00

> <Gold.PLP.Chemscore.Internal.Correction>
0.0306

> <Gold.Rescore>
     Score         DG    S(hbond)    S(metal)    S(lipo)     H(rot)  DE(clash)    DE(int)     intcor
     15.89     -17.17       1.62        0.00      89.09       1.62       0.61       0.67       ----

> <Gold.Chemscore.Fitness>
15.8861

> <Gold.Chemscore.DG>
-17.1686

> <Gold.Chemscore.ZeroCoef>
-5.4800

> <Gold.Chemscore.Hbond>
1.6214

> <Gold.Chemscore.Metal>
0.0000

> <Gold.Chemscore.Lipo>
89.0852

> <Gold.Chemscore.Internal_Hbond>
0.0000

> <Gold.Chemscore.DEClash>
0.6146

> <Gold.Chemscore.DEInternal>
0.6679

> <Gold.Chemscore.Rot>
1.6210

> <Gold.Chemscore.Internal.Correction>
   9.000000E+99

> <Gold.Chemscore.Hbonds>
donor molecule, donor type, donor heavy atom, donor atom, acceptor molecule, acceptor atom, score
      P1  H  6933  6945       L1    18  0.54
      P1  H  7997  8010       L1     6  0.95

> <Gold.Chemscore.Hbond.Weighted>
-5.4154

> <Gold.Chemscore.Metal.Weighted>
-0.0000

> <Gold.Chemscore.Lipo.Weighted>
-10.4230

> <Gold.Chemscore.Internal_Hbond.Weighted>
0.0000

> <Gold.Chemscore.DEClash.Weighted>
0.6146

> <Gold.Chemscore.DEInternal.Weighted>
0.6679

> <Gold.Chemscore.Rot.Weighted>
4.1498

> <Gold.Chemscore.Internal.Correction.Weighted>
   9.000000E+99

> <Gold.Protein.RotatedTorsions>
[ 6907 6896 6895 6894 ] final  -54.50 input  -60.11 | X-H torsion
[ 7974 7965 7964 7962 ] final    8.56 input  175.53 | X-H torsion
[ 8008 7997 7996 7995 ] final   65.09 input   59.86 | X-H torsion
[ 10167 10162 10161 10158 ] final  -62.45 input  -65.29 | X-H torsion
[ 10718 10713 10712 10709 ] final  120.84 input   66.30 | X-H torsion
[ 10763 10752 10751 10750 ] final  -40.66 input  -60.55 | X-H torsion
[ 11005 11000 10999 10996 ] final -136.36 input  -57.11 | X-H torsion

> <Gold.Protein.ActiveResidues>
 VAL166  LYS551  ARG553  GLY616  TRP617  ASP618  TYR619  PRO620  LYS621  CYS622 
 ASP623  PHE694  ASN695  SER759  ASP760  ASP761  ALA762  ILE779  LEU786  VAL792 
 PHE793  MET794  SER795  GLU796  ALA797  LYS798  CYS799  TRP800  GLU811  SER814 

> <Gold.Protein.RotatedAtoms>
  150.8332  134.7595  159.6871 H   0  0  0  0  0  0  0  0  0  0  0  0  # atno 6907 bound_to 6896
  152.4433  134.5542  159.9885 H   0  0  0  0  0  0  0  0  0  0  0  0  # atno 6908 bound_to 6896
  151.5698  133.3354  159.3023 H   0  0  0  0  0  0  0  0  0  0  0  0  # atno 6909 bound_to 6896
  146.2415  139.9915  142.8425 H   0  0  0  0  0  0  0  0  0  0  0  0  # atno 7974 bound_to 7965
  155.6563  140.3497  155.4766 H   0  0  0  0  0  0  0  0  0  0  0  0  # atno 8008 bound_to 7997
  155.9806  140.1174  157.0753 H   0  0  0  0  0  0  0  0  0  0  0  0  # atno 8009 bound_to 7997
  154.4190  140.1139  156.5416 H   0  0  0  0  0  0  0  0  0  0  0  0  # atno 8010 bound_to 7997
  140.5938  143.2347  151.6080 H   0  0  0  0  0  0  0  0  0  0  0  0  # atno 10167 bound_to 10162
  157.5862  131.1069  150.8091 H   0  0  0  0  0  0  0  0  0  0  0  0  # atno 10718 bound_to 10713
  153.9497  135.6752  153.4744 H   0  0  0  0  0  0  0  0  0  0  0  0  # atno 10763 bound_to 10752
  153.0890  135.4884  154.8651 H   0  0  0  0  0  0  0  0  0  0  0  0  # atno 10764 bound_to 10752
  154.7332  135.3143  154.8815 H   0  0  0  0  0  0  0  0  0  0  0  0  # atno 10765 bound_to 10752
  140.8812  134.1929  157.4590 H   0  0  0  0  0  0  0  0  0  0  0  0  # atno 11005 bound_to 11000
  145.1498  140.9617  143.4439 LP  0  0  0  0  0  0  0  0  0  0  0  0  # atno 17320 bound_to 7965
  145.0216  139.3419  143.6069 LP  0  0  0  0  0  0  0  0  0  0  0  0  # atno 17321 bound_to 7965
  139.5245  144.3102  152.0999 LP  0  0  0  0  0  0  0  0  0  0  0  0  # atno 17342 bound_to 10162
  140.2271  144.4406  150.6316 LP  0  0  0  0  0  0  0  0  0  0  0  0  # atno 17343 bound_to 10162
  156.8524  130.5085  149.5310 LP  0  0  0  0  0  0  0  0  0  0  0  0  # atno 17370 bound_to 10713
  156.0911  130.5896  150.9734 LP  0  0  0  0  0  0  0  0  0  0  0  0  # atno 17371 bound_to 10713
  139.8720  134.9818  156.5131 LP  0  0  0  0  0  0  0  0  0  0  0  0  # atno 17394 bound_to 11000
  140.8459  133.8169  155.9120 LP  0  0  0  0  0  0  0  0  0  0  0  0  # atno 17395 bound_to 11000

$$$$
