AV-unprocessed.smi:2895|AV-procd|sdf|11133|dock1
  -GOLD-   2272016 03D 1   1.00000     0.00000
 Structure written by MMmdl.
 54 57  0  0  0  0  0  0  0  0  3 V2000
  151.0229  140.4915  155.2925 O   0  0  0  0  0  0  0  0  0  0  0  0
  150.0891  141.2610  155.5256 C   0  0  0  0  0  0  0  0  0  0  0  0
  150.2757  142.4150  156.1916 N   0  0  0  0  0  0  0  0  0  0  0  0
  151.5541  142.8945  156.7037 C   0  0  0  0  0  0  0  0  0  0  0  0
  151.9033  142.2423  158.0509 C   0  0  0  0  0  0  0  0  0  0  0  0
  151.8764  143.2409  159.1921 C   0  0  0  0  0  0  0  0  0  0  0  0
  151.4337  144.5647  158.9755 C   0  0  0  0  0  0  0  0  0  0  0  0
  151.4183  145.4701  160.0563 C   0  0  0  0  0  0  0  0  0  0  0  0
  151.8227  145.0643  161.2801 N   0  3  0  0  0  0  0  0  0  0  0  0
  152.2507  143.8072  161.5300 C   0  0  0  0  0  0  0  0  0  0  0  0
  152.2886  142.8584  160.4878 C   0  0  0  0  0  0  0  0  0  0  0  0
  148.8126  141.0304  155.1152 N   0  0  0  0  0  0  0  0  0  0  0  0
  148.3619  139.7257  154.5754 C   0  0  0  0  0  0  0  0  0  0  0  0
  147.0918  139.7969  153.7107 C   0  0  0  0  0  0  0  0  0  0  0  0
  146.0245  140.6064  154.3417 N   0  3  0  0  0  0  0  0  0  0  0  0
  145.4250  140.0305  155.5873 C   0  0  1  0  0  0  0  0  0  0  0  0
  143.9998  140.5795  155.8626 C   0  0  0  0  0  0  0  0  0  0  0  0
  143.1467  139.3104  156.0208 C   0  0  2  0  0  0  0  0  0  0  0  0
  143.5322  138.5840  157.3208 C   0  0  0  0  0  0  0  0  0  0  0  0
  144.9128  137.9976  156.9784 C   0  0  0  0  0  0  0  0  0  0  0  0
  145.1547  138.5003  155.5413 C   0  0  1  0  0  0  0  0  0  0  0  0
  143.7513  138.4102  154.9525 C   0  0  0  0  0  0  0  0  0  0  0  0
  146.5265  141.9910  154.5040 C   0  0  0  0  0  0  0  0  0  0  0  0
  147.7909  142.0659  155.3821 C   0  0  0  0  0  0  0  0  0  0  0  0
  149.4736  143.0097  156.3421 H   0  0  0  0  0  0  0  0  0  0  0  0
  152.3440  142.7108  155.9733 H   0  0  0  0  0  0  0  0  0  0  0  0
  151.4861  143.9765  156.8201 H   0  0  0  0  0  0  0  0  0  0  0  0
  151.2023  141.4357  158.2697 H   0  0  0  0  0  0  0  0  0  0  0  0
  152.8925  141.7844  158.0049 H   0  0  0  0  0  0  0  0  0  0  0  0
  151.1090  144.8835  157.9954 H   0  0  0  0  0  0  0  0  0  0  0  0
  151.0970  146.4986  159.9795 H   0  0  0  0  0  0  0  0  0  0  0  0
  152.5473  143.6000  162.5479 H   0  0  0  0  0  0  0  0  0  0  0  0
  152.6284  141.8514  160.6820 H   0  0  0  0  0  0  0  0  0  0  0  0
  149.1319  139.2601  153.9583 H   0  0  0  0  0  0  0  0  0  0  0  0
  148.1946  139.0523  155.4172 H   0  0  0  0  0  0  0  0  0  0  0  0
  147.3449  140.2624  152.7568 H   0  0  0  0  0  0  0  0  0  0  0  0
  146.7493  138.8001  153.4428 H   0  0  0  0  0  0  0  0  0  0  0  0
  146.0812  140.2548  156.4288 H   0  0  0  0  0  0  0  0  0  0  0  0
  143.9643  141.2182  156.7462 H   0  0  0  0  0  0  0  0  0  0  0  0
  143.6147  141.1576  155.0218 H   0  0  0  0  0  0  0  0  0  0  0  0
  142.0758  139.4888  155.9201 H   0  0  0  0  0  0  0  0  0  0  0  0
  143.5657  139.2589  158.1771 H   0  0  0  0  0  0  0  0  0  0  0  0
  142.8226  137.7873  157.5484 H   0  0  0  0  0  0  0  0  0  0  0  0
  145.6886  138.3208  157.6735 H   0  0  0  0  0  0  0  0  0  0  0  0
  144.8797  136.9076  157.0045 H   0  0  0  0  0  0  0  0  0  0  0  0
  145.9007  137.8949  155.0318 H   0  0  0  0  0  0  0  0  0  0  0  0
  143.3433  137.3979  154.9585 H   0  0  0  0  0  0  0  0  0  0  0  0
  143.6764  138.8204  153.9439 H   0  0  0  0  0  0  0  0  0  0  0  0
  146.7596  142.3844  153.5136 H   0  0  0  0  0  0  0  0  0  0  0  0
  145.7579  142.6529  154.9014 H   0  0  0  0  0  0  0  0  0  0  0  0
  147.5056  141.9822  156.4316 H   0  0  0  0  0  0  0  0  0  0  0  0
  148.2057  143.0689  155.2652 H   0  0  0  0  0  0  0  0  0  0  0  0
  145.2702  140.6512  153.6713 H   0  0  0  0  0  0  0  0  0  0  0  0
  151.8038  145.7359  162.0480 H   0  0  0  0  0  0  0  0  0  0  0  0
  1  2  2  0  0  0  0
  2  3  1  0  0  0  0
  2 12  1  0  0  0  0
  3  4  1  0  0  0  0
  3 25  1  0  0  0  0
  4  5  1  0  0  0  0
  4 26  1  0  0  0  0
  4 27  1  0  0  0  0
  5  6  1  0  0  0  0
  5 28  1  0  0  0  0
  5 29  1  0  0  0  0
  6 11  1  0  0  0  0
  6  7  2  0  0  0  0
  7  8  1  0  0  0  0
  7 30  1  0  0  0  0
  8  9  2  0  0  0  0
  8 31  1  0  0  0  0
  9 10  1  0  0  0  0
  9 54  1  0  0  0  0
 10 11  2  0  0  0  0
 10 32  1  0  0  0  0
 11 33  1  0  0  0  0
 12 24  1  0  0  0  0
 12 13  1  0  0  0  0
 13 14  1  0  0  0  0
 13 34  1  0  0  0  0
 13 35  1  0  0  0  0
 14 15  1  0  0  0  0
 14 36  1  0  0  0  0
 14 37  1  0  0  0  0
 15 16  1  0  0  0  0
 15 23  1  0  0  0  0
 15 53  1  0  0  0  0
 16 21  1  0  0  0  0
 16 17  1  0  0  0  0
 16 38  1  0  0  0  0
 17 18  1  0  0  0  0
 17 39  1  0  0  0  0
 17 40  1  0  0  0  0
 18 22  1  0  0  0  0
 18 19  1  0  0  0  0
 18 41  1  0  0  0  0
 19 20  1  0  0  0  0
 19 42  1  0  0  0  0
 19 43  1  0  0  0  0
 20 21  1  0  0  0  0
 20 44  1  0  0  0  0
 20 45  1  0  0  0  0
 21 22  1  0  0  0  0
 21 46  1  0  0  0  0
 22 47  1  0  0  0  0
 22 48  1  0  0  0  0
 23 24  1  0  0  0  0
 23 49  1  0  0  0  0
 23 50  1  0  0  0  0
 24 51  1  0  0  0  0
 24 52  1  0  0  0  0
M  CHG  1   9   1
M  CHG  1  15   1
M  END
> <s_m_source_file>
AV-unprocessed.smi

> <i_m_source_file_index>
2895

> <i_lp_mmshare_version>
43012

> <i_f3d_flags>
0

> <s_epik_input>
W0NIMl0xW0NIMl1bQ0BASF0oW0NIMl0yKVtDQEBIXShbQ0gyXVtDQEhdMTIpTihbQ0gyXVtDSDJdMylbQ0gyXVtDSDJdTjNDKD1PKVtOSF1bQ0gyXVtDSDJdYzRbY0hdW2NIXW5bY0hdW2NIXTQ=

> <s_epik_cmdline>
J2VwaWtfcHl0aG9uJywgJy1waCcsICc3LjAnLCAnLXRuJywgJzgnLCAnLW1hJywgJzIwMCcsICctbWV0YWxfYmluZGluZycsICctaW1hZScsICc8aW5maWxlLm1hZT4nLCAnLW9tYWUnLCAnPG91dGZpbGUubWFlPic=

> <r_epik_Ionization_Penalty>
1.44916

> <r_epik_Ionization_Penalty_Charging>
1.44913

> <r_epik_Ionization_Penalty_Neutral>
2.64641e-05

> <r_epik_State_Penalty>
1.53218

> <r_epik_Charging_Adjusted_Penalty>
2.98131

> <i_epik_Tot_Q>
2

> <i_epik_Tot_abs_Q>
2

> <r_epik_Metal_State_Penalty>
1.58241

> <b_epik_Metal_Only>
0

> <s_lp_Force_Field>
OPLS_2005

> <r_lp_Energy>
108.8

> <b_lp_Chiralities_Consistent>
1

> <s_lp_Variant>
AV-unprocessed.smi:2895-6

> <Gold.Version>
5.8.1

> <Gold.Id.Protein>
6NUR|6NUR_protein|mol2

> <Gold.PLP.Fitness>
44.9819

> <Gold.PLP.PLP>
-39.4862

> <Gold.PLP.part.hbond>
-4.0000

> <Gold.PLP.part.metal>
0.0000

> <Gold.PLP.part.buried>
-5.0159

> <Gold.PLP.part.nonpolar>
-30.6377

> <Gold.PLP.part.repulsive>
0.2297

> <Gold.PLP.ligand.clash>
4.0431

> <Gold.PLP.ligand.torsion>
0.8829

> <Gold.PLP.Chemscore.Hbond>
3.6800

> <Gold.PLP.Chemscore.CHOScore>
0.0000

> <Gold.PLP.Chemscore.Metal>
0.0000

> <Gold.Chemscore.Hbonds>
donor molecule, donor type, donor heavy atom, donor atom, acceptor molecule, acceptor atom, score
      L1  H     3    25       P1  8028  0.70
      L1  H    15    53       P1 10175  2.00
      P1  H  7989  7998       L1     1  0.96

> <Gold.PLP.Chemscore.Internal.Correction>
0.2645

> <Gold.Rescore>
     Score         DG    S(hbond)    S(metal)    S(lipo)     H(rot)  DE(clash)    DE(int)     intcor
     19.70     -21.74       2.49        0.00      99.84       1.46       1.14       0.90       ----

> <Gold.Chemscore.Fitness>
19.7016

> <Gold.Chemscore.DG>
-21.7375

> <Gold.Chemscore.ZeroCoef>
-5.4800

> <Gold.Chemscore.Hbond>
2.4869

> <Gold.Chemscore.Metal>
0.0000

> <Gold.Chemscore.Lipo>
99.8446

> <Gold.Chemscore.Internal_Hbond>
0.0000

> <Gold.Chemscore.DEClash>
1.1400

> <Gold.Chemscore.DEInternal>
0.8959

> <Gold.Chemscore.Rot>
1.4572

> <Gold.Chemscore.Internal.Correction>
   9.000000E+99

> <Gold.Chemscore.Hbonds>
donor molecule, donor type, donor heavy atom, donor atom, acceptor molecule, acceptor atom, score
      L1  H     3    25       P1  8028  0.70
      L1  H    15    53       P1 10175  0.94
      P1  H  7989  7998       L1     1  0.55

> <Gold.Chemscore.Hbond.Weighted>
-8.3062

> <Gold.Chemscore.Metal.Weighted>
-0.0000

> <Gold.Chemscore.Lipo.Weighted>
-11.6818

> <Gold.Chemscore.Internal_Hbond.Weighted>
0.0000

> <Gold.Chemscore.DEClash.Weighted>
1.1400

> <Gold.Chemscore.DEInternal.Weighted>
0.8959

> <Gold.Chemscore.Rot.Weighted>
3.7305

> <Gold.Chemscore.Internal.Correction.Weighted>
   9.000000E+99

> <Gold.Protein.RotatedTorsions>
[ 6907 6896 6895 6894 ] final  176.73 input  -60.11 | X-H torsion
[ 7974 7965 7964 7962 ] final   54.20 input  175.53 | X-H torsion
[ 8008 7997 7996 7995 ] final  -89.52 input   59.86 | X-H torsion
[ 10167 10162 10161 10158 ] final -112.74 input  -65.29 | X-H torsion
[ 10718 10713 10712 10709 ] final -126.93 input   66.30 | X-H torsion
[ 10763 10752 10751 10750 ] final  135.26 input  -60.55 | X-H torsion
[ 11005 11000 10999 10996 ] final  133.91 input  -57.11 | X-H torsion

> <Gold.Protein.ActiveResidues>
 VAL166  LYS551  ARG553  GLY616  TRP617  ASP618  TYR619  PRO620  LYS621  CYS622 
 ASP623  PHE694  ASN695  SER759  ASP760  ASP761  ALA762  ILE779  LEU786  VAL792 
 PHE793  MET794  SER795  GLU796  ALA797  LYS798  CYS799  TRP800  GLU811  SER814 

> <Gold.Protein.RotatedAtoms>
  151.7154  133.3313  159.3301 H   0  0  0  0  0  0  0  0  0  0  0  0  # atno 6907 bound_to 6896
  150.7676  134.6495  159.6290 H   0  0  0  0  0  0  0  0  0  0  0  0  # atno 6908 bound_to 6896
  152.3685  134.6771  160.0235 H   0  0  0  0  0  0  0  0  0  0  0  0  # atno 6909 bound_to 6896
  145.9633  139.4079  143.0235 H   0  0  0  0  0  0  0  0  0  0  0  0  # atno 7974 bound_to 7965
  154.6876  140.0541  157.0330 H   0  0  0  0  0  0  0  0  0  0  0  0  # atno 8008 bound_to 7997
  155.0863  140.3214  155.4568 H   0  0  0  0  0  0  0  0  0  0  0  0  # atno 8009 bound_to 7997
  156.2717  140.2056  156.5990 H   0  0  0  0  0  0  0  0  0  0  0  0  # atno 8010 bound_to 7997
  140.1194  143.4457  152.1701 H   0  0  0  0  0  0  0  0  0  0  0  0  # atno 10167 bound_to 10162
  156.1810  130.6732  151.0305 H   0  0  0  0  0  0  0  0  0  0  0  0  # atno 10718 bound_to 10713
  153.8372  135.3096  155.3423 H   0  0  0  0  0  0  0  0  0  0  0  0  # atno 10763 bound_to 10752
  154.7948  135.4761  154.0139 H   0  0  0  0  0  0  0  0  0  0  0  0  # atno 10764 bound_to 10752
  153.1598  135.6859  153.8851 H   0  0  0  0  0  0  0  0  0  0  0  0  # atno 10765 bound_to 10752
  139.9881  134.9525  156.9792 H   0  0  0  0  0  0  0  0  0  0  0  0  # atno 11005 bound_to 11000
  145.8009  140.9771  143.0999 LP  0  0  0  0  0  0  0  0  0  0  0  0  # atno 17320 bound_to 7965
  144.6820  139.9801  143.7483 LP  0  0  0  0  0  0  0  0  0  0  0  0  # atno 17321 bound_to 7965
  139.5577  144.7384  151.4246 LP  0  0  0  0  0  0  0  0  0  0  0  0  # atno 17342 bound_to 10162
  140.6881  143.7927  150.7215 LP  0  0  0  0  0  0  0  0  0  0  0  0  # atno 17343 bound_to 10162
  157.6868  131.0822  150.7220 LP  0  0  0  0  0  0  0  0  0  0  0  0  # atno 17370 bound_to 10713
  156.7277  130.4700  149.5507 LP  0  0  0  0  0  0  0  0  0  0  0  0  # atno 17371 bound_to 10713
  140.4962  134.1143  155.7242 LP  0  0  0  0  0  0  0  0  0  0  0  0  # atno 17394 bound_to 11000
  141.1542  133.8912  157.2019 LP  0  0  0  0  0  0  0  0  0  0  0  0  # atno 17395 bound_to 11000

$$$$
