AV-unprocessed.smi:99|AV-procd|sdf|869|dock3
  -GOLD-   2262017323D 1   1.00000     0.00000
 Structure written by MMmdl.
 53 56  0  0  0  0  0  0  0  0  1 V2000
  151.2178  140.4088  155.1711 O   0  0  0  0  0  0  0  0  0  0  0  0
  151.3781  140.2158  156.3781 C   0  0  0  0  0  0  0  0  0  0  0  0
  151.3289  138.9967  156.9504 O   0  0  0  0  0  0  0  0  0  0  0  0
  151.4753  137.8341  156.1519 C   0  0  0  0  0  0  0  0  0  0  0  0
  150.8816  136.6261  156.8933 C   0  0  2  0  0  0  0  0  0  0  0  0
  151.2332  135.4335  156.2021 O   0  0  0  0  0  0  0  0  0  0  0  0
  150.2659  135.1314  155.2464 C   0  0  1  0  0  0  0  0  0  0  0  0
  150.1014  133.6242  155.2401 N   0  0  0  0  0  0  0  0  0  0  0  0
  150.9717  132.8028  155.9480 C   0  0  0  0  0  0  0  0  0  0  0  0
  150.9216  131.4506  155.9057 C   0  0  0  0  0  0  0  0  0  0  0  0
  149.9387  130.7736  155.0681 C   0  0  0  0  0  0  0  0  0  0  0  0
  149.8046  129.5554  154.9742 O   0  0  0  0  0  0  0  0  0  0  0  0
  149.1198  131.6322  154.3301 N   0  0  0  0  0  0  0  0  0  0  0  0
  149.1726  133.0271  154.3554 C   0  0  0  0  0  0  0  0  0  0  0  0
  148.4215  133.6750  153.6274 O   0  0  0  0  0  0  0  0  0  0  0  0
  148.9723  135.8908  155.6041 C   0  0  2  0  0  0  0  0  0  0  0  0
  148.6085  136.8296  154.6113 O   0  0  0  0  0  0  0  0  0  0  0  0
  149.3494  136.6330  156.8855 C   0  0  1  0  0  0  0  0  0  0  0  0
  148.8802  135.9459  158.0391 O   0  0  0  0  0  0  0  0  0  0  0  0
  148.9646  136.5050  159.2650 C   0  0  0  0  0  0  0  0  0  0  0  0
  149.6014  137.5323  159.5057 O   0  0  0  0  0  0  0  0  0  0  0  0
  148.1947  135.7516  160.2956 C   0  0  0  0  0  0  0  0  0  0  0  0
  147.8053  136.4067  161.4872 C   0  0  0  0  0  0  0  0  0  0  0  0
  147.0746  135.7205  162.4766 C   0  0  0  0  0  0  0  0  0  0  0  0
  146.7234  134.3713  162.2863 C   0  0  0  0  0  0  0  0  0  0  0  0
  147.1034  133.7089  161.1045 C   0  0  0  0  0  0  0  0  0  0  0  0
  147.8345  134.3930  160.1140 C   0  0  0  0  0  0  0  0  0  0  0  0
  151.6462  141.3081  157.3576 C   0  0  0  0  0  0  0  0  0  0  0  0
  151.2585  142.6314  157.0424 C   0  0  0  0  0  0  0  0  0  0  0  0
  151.4979  143.6840  157.9471 C   0  0  0  0  0  0  0  0  0  0  0  0
  152.1278  143.4261  159.1785 C   0  0  0  0  0  0  0  0  0  0  0  0
  152.5190  142.1143  159.5037 C   0  0  0  0  0  0  0  0  0  0  0  0
  152.2805  141.0602  158.6000 C   0  0  0  0  0  0  0  0  0  0  0  0
  148.4404  131.2069  153.7158 H   0  0  0  0  0  0  0  0  0  0  0  0
  150.9434  137.9871  155.2119 H   0  0  0  0  0  0  0  0  0  0  0  0
  152.5256  137.6661  155.9100 H   0  0  0  0  0  0  0  0  0  0  0  0
  151.2681  136.6042  157.9135 H   0  0  0  0  0  0  0  0  0  0  0  0
  150.6305  135.4274  154.2616 H   0  0  0  0  0  0  0  0  0  0  0  0
  151.7407  133.2422  156.5623 H   0  0  0  0  0  0  0  0  0  0  0  0
  151.6195  130.8664  156.4883 H   0  0  0  0  0  0  0  0  0  0  0  0
  148.1256  135.2174  155.7358 H   0  0  0  0  0  0  0  0  0  0  0  0
  148.9647  136.5473  153.7829 H   0  0  0  0  0  0  0  0  0  0  0  0
  148.9706  137.6567  156.8991 H   0  0  0  0  0  0  0  0  0  0  0  0
  148.0636  137.4425  161.6558 H   0  0  0  0  0  0  0  0  0  0  0  0
  146.7836  136.2306  163.3831 H   0  0  0  0  0  0  0  0  0  0  0  0
  146.1634  133.8453  163.0453 H   0  0  0  0  0  0  0  0  0  0  0  0
  146.8334  132.6735  160.9566 H   0  0  0  0  0  0  0  0  0  0  0  0
  148.1082  133.8545  159.2181 H   0  0  0  0  0  0  0  0  0  0  0  0
  150.7726  142.8538  156.1032 H   0  0  0  0  0  0  0  0  0  0  0  0
  151.1972  144.6904  157.6956 H   0  0  0  0  0  0  0  0  0  0  0  0
  152.3101  144.2335  159.8725 H   0  0  0  0  0  0  0  0  0  0  0  0
  153.0028  141.9150  160.4486 H   0  0  0  0  0  0  0  0  0  0  0  0
  152.5933  140.0652  158.8810 H   0  0  0  0  0  0  0  0  0  0  0  0
  1  2  2  0  0  0  0
  2  3  1  0  0  0  0
  2 28  1  0  0  0  0
  3  4  1  0  0  0  0
  4  5  1  0  0  0  0
  4 35  1  0  0  0  0
  4 36  1  0  0  0  0
  5 18  1  0  0  0  0
  5  6  1  0  0  0  0
  5 37  1  0  0  0  0
  6  7  1  0  0  0  0
  7  8  1  0  0  0  0
  7 16  1  0  0  0  0
  7 38  1  0  0  0  0
  8 14  1  0  0  0  0
  8  9  1  0  0  0  0
  9 10  2  0  0  0  0
  9 39  1  0  0  0  0
 10 11  1  0  0  0  0
 10 40  1  0  0  0  0
 11 12  2  0  0  0  0
 11 13  1  0  0  0  0
 13 34  1  0  0  0  0
 13 14  1  0  0  0  0
 14 15  2  0  0  0  0
 16 17  1  0  0  0  0
 16 18  1  0  0  0  0
 16 41  1  0  0  0  0
 17 42  1  0  0  0  0
 18 19  1  0  0  0  0
 18 43  1  0  0  0  0
 19 20  1  0  0  0  0
 20 21  2  0  0  0  0
 20 22  1  0  0  0  0
 22 27  1  0  0  0  0
 22 23  2  0  0  0  0
 23 24  1  0  0  0  0
 23 44  1  0  0  0  0
 24 25  2  0  0  0  0
 24 45  1  0  0  0  0
 25 26  1  0  0  0  0
 25 46  1  0  0  0  0
 26 27  2  0  0  0  0
 26 47  1  0  0  0  0
 27 48  1  0  0  0  0
 28 33  1  0  0  0  0
 28 29  2  0  0  0  0
 29 30  1  0  0  0  0
 29 49  1  0  0  0  0
 30 31  2  0  0  0  0
 30 50  1  0  0  0  0
 31 32  1  0  0  0  0
 31 51  1  0  0  0  0
 32 33  2  0  0  0  0
 32 52  1  0  0  0  0
 33 53  1  0  0  0  0
M  END
> <s_m_source_file>
AV-unprocessed.smi

> <i_m_source_file_index>
99

> <i_lp_mmshare_version>
43012

> <i_f3d_flags>
0

> <s_epik_input>
W2NIXTFbY0hdW2NIXVtjSF1bY0hdYzFDKD1PKU9bQ0gyXVtDQEBIXTJPW0NAQEhdKG4zW2NIXVtjSF1jKD1PKVtuSF1jMz1PKVtDQEBIXShbT0hdKVtDQEhdMk9DKD1PKWM0W2NIXVtjSF1bY0hdW2NIXVtjSF00

> <s_epik_cmdline>
J2VwaWtfcHl0aG9uJywgJy1waCcsICc3LjAnLCAnLXRuJywgJzgnLCAnLW1hJywgJzIwMCcsICctbWV0YWxfYmluZGluZycsICctaW1hZScsICc8aW5maWxlLm1hZT4nLCAnLW9tYWUnLCAnPG91dGZpbGUubWFlPic=

> <r_lp_tautomer_probability>
1

> <r_epik_Ionization_Penalty>
0.00454555

> <r_epik_Ionization_Penalty_Charging>
0.0045191

> <r_epik_Ionization_Penalty_Neutral>
2.64449e-05

> <r_epik_State_Penalty>
-0

> <r_epik_Charging_Adjusted_Penalty>
0.0045191

> <i_epik_Tot_Q>
0

> <i_epik_Tot_abs_Q>
0

> <r_epik_Metal_State_Penalty>
1.27877

> <b_epik_Metal_Only>
0

> <s_epik_Chemistry_Notes>
This compound has an ester and may undergo hydrolysis at high or low pH. This compound contains an acetal/aminal-like group ( X-CH(R)-Y where X, Y are N, S, or O) that may be acid/base labile, releasing an aldehyde.

> <s_lp_Force_Field>
OPLS_2005

> <r_lp_Energy>
32.4523

> <b_lp_Chiralities_Consistent>
1

> <s_lp_Variant>
AV-unprocessed.smi:99-5

> <Gold.Version>
5.8.1

> <Gold.Id.Protein>
6NUR|6NUR_protein|mol2

> <Gold.PLP.Fitness>
63.8676

> <Gold.PLP.PLP>
-57.0562

> <Gold.PLP.part.hbond>
-3.8594

> <Gold.PLP.part.metal>
0.0000

> <Gold.PLP.part.buried>
-9.0580

> <Gold.PLP.part.nonpolar>
-44.6539

> <Gold.PLP.part.repulsive>
0.3292

> <Gold.PLP.ligand.clash>
0.0000

> <Gold.PLP.ligand.torsion>
1.0860

> <Gold.PLP.Chemscore.Hbond>
2.8288

> <Gold.PLP.Chemscore.CHOScore>
0.0000

> <Gold.PLP.Chemscore.Metal>
0.0000

> <Gold.Chemscore.Hbonds>
donor molecule, donor type, donor heavy atom, donor atom, acceptor molecule, acceptor atom, score
      L1  H    17    42       P1  7948  1.00
      P1  H  7989  7998       L1     1  0.99
      P1  H 10752 10764       L1     6  0.54

> <Gold.PLP.Chemscore.Internal.Correction>
0.4971

> <Gold.Rescore>
     Score         DG    S(hbond)    S(metal)    S(lipo)     H(rot)  DE(clash)    DE(int)     intcor
     18.77     -21.07       2.68        0.00     126.64       3.19       0.11       2.19       ----

> <Gold.Chemscore.Fitness>
18.7681

> <Gold.Chemscore.DG>
-21.0668

> <Gold.Chemscore.ZeroCoef>
-5.4800

> <Gold.Chemscore.Hbond>
2.6759

> <Gold.Chemscore.Metal>
0.0000

> <Gold.Chemscore.Lipo>
126.6368

> <Gold.Chemscore.Internal_Hbond>
0.0000

> <Gold.Chemscore.DEClash>
0.1089

> <Gold.Chemscore.DEInternal>
2.1898

> <Gold.Chemscore.Rot>
3.1903

> <Gold.Chemscore.Internal.Correction>
   9.000000E+99

> <Gold.Chemscore.Hbonds>
donor molecule, donor type, donor heavy atom, donor atom, acceptor molecule, acceptor atom, score
      L1  H    17    42       P1  7948  0.98
      P1  H  7989  7998       L1     1  0.94
      P1  H 10752 10764       L1     6  0.15

> <Gold.Chemscore.Hbond.Weighted>
-8.9374

> <Gold.Chemscore.Metal.Weighted>
-0.0000

> <Gold.Chemscore.Lipo.Weighted>
-14.8165

> <Gold.Chemscore.Internal_Hbond.Weighted>
0.0000

> <Gold.Chemscore.DEClash.Weighted>
0.1089

> <Gold.Chemscore.DEInternal.Weighted>
2.1898

> <Gold.Chemscore.Rot.Weighted>
8.1671

> <Gold.Chemscore.Internal.Correction.Weighted>
   9.000000E+99

> <Gold.Protein.RotatedTorsions>
[ 6907 6896 6895 6894 ] final  -26.05 input  -60.11 | X-H torsion
[ 7974 7965 7964 7962 ] final -128.01 input  175.53 | X-H torsion
[ 8008 7997 7996 7995 ] final   45.72 input   59.86 | X-H torsion
[ 10167 10162 10161 10158 ] final -137.03 input  -65.29 | X-H torsion
[ 10718 10713 10712 10709 ] final   23.43 input   66.30 | X-H torsion
[ 10763 10752 10751 10750 ] final  -37.15 input  -60.55 | X-H torsion
[ 11005 11000 10999 10996 ] final  115.44 input  -57.11 | X-H torsion

> <Gold.Protein.ActiveResidues>
 VAL166  LYS551  ARG553  GLY616  TRP617  ASP618  TYR619  PRO620  LYS621  CYS622 
 ASP623  PHE694  ASN695  SER759  ASP760  ASP761  ALA762  ILE779  LEU786  VAL792 
 PHE793  MET794  SER795  GLU796  ALA797  LYS798  CYS799  TRP800  GLU811  SER814 

> <Gold.Protein.RotatedAtoms>
  151.1665  135.0298  159.8732 H   0  0  0  0  0  0  0  0  0  0  0  0  # atno 6907 bound_to 6896
  152.5450  134.1219  159.8412 H   0  0  0  0  0  0  0  0  0  0  0  0  # atno 6908 bound_to 6896
  151.1320  133.4984  159.2631 H   0  0  0  0  0  0  0  0  0  0  0  0  # atno 6909 bound_to 6896
  144.9713  140.7548  143.4669 H   0  0  0  0  0  0  0  0  0  0  0  0  # atno 7974 bound_to 7965
  155.3405  140.3408  155.4239 H   0  0  0  0  0  0  0  0  0  0  0  0  # atno 8008 bound_to 7997
  156.1816  140.1666  156.8300 H   0  0  0  0  0  0  0  0  0  0  0  0  # atno 8009 bound_to 7997
  154.5339  140.0739  156.8377 H   0  0  0  0  0  0  0  0  0  0  0  0  # atno 8010 bound_to 7997
  139.8618  143.7067  152.2649 H   0  0  0  0  0  0  0  0  0  0  0  0  # atno 10167 bound_to 10162
  157.1660  130.6738  149.6061 H   0  0  0  0  0  0  0  0  0  0  0  0  # atno 10718 bound_to 10713
  153.8915  135.6811  153.4760 H   0  0  0  0  0  0  0  0  0  0  0  0  # atno 10763 bound_to 10752
  153.1178  135.4753  154.9143 H   0  0  0  0  0  0  0  0  0  0  0  0  # atno 10764 bound_to 10752
  154.7620  135.3213  154.8313 H   0  0  0  0  0  0  0  0  0  0  0  0  # atno 10765 bound_to 10752
  139.9010  134.9584  156.7045 H   0  0  0  0  0  0  0  0  0  0  0  0  # atno 11005 bound_to 11000
  145.2554  139.2014  143.4920 LP  0  0  0  0  0  0  0  0  0  0  0  0  # atno 17320 bound_to 7965
  146.3383  140.2475  142.8597 LP  0  0  0  0  0  0  0  0  0  0  0  0  # atno 17321 bound_to 7965
  139.7366  144.7570  151.0718 LP  0  0  0  0  0  0  0  0  0  0  0  0  # atno 17342 bound_to 10162
  140.7774  143.5023  150.9756 LP  0  0  0  0  0  0  0  0  0  0  0  0  # atno 17343 bound_to 10162
  155.9746  130.4695  150.6398 LP  0  0  0  0  0  0  0  0  0  0  0  0  # atno 17370 bound_to 10713
  157.4088  131.0820  151.1240 LP  0  0  0  0  0  0  0  0  0  0  0  0  # atno 17371 bound_to 10713
  140.7124  133.9212  155.8093 LP  0  0  0  0  0  0  0  0  0  0  0  0  # atno 17394 bound_to 11000
  141.0290  134.0783  157.4036 LP  0  0  0  0  0  0  0  0  0  0  0  0  # atno 17395 bound_to 11000

$$$$
