AV-unprocessed.smi:856|AV-procd|sdf|3959|dock2
  -GOLD-   22720 1433D 1   1.00000     0.00000
 Structure written by MMmdl.
 42 44  0  0  0  0  0  0  0  0  1 V2000
  154.7782  139.7975  160.6427 C   0  0  0  0  0  0  0  0  0  0  0  0
  153.7375  140.6898  160.0986 N   0  0  0  0  0  0  0  0  0  0  0  0
  153.1712  140.3683  158.8930 C   0  0  0  0  0  0  0  0  0  0  0  0
  153.4686  139.3820  158.2185 O   0  0  0  0  0  0  0  0  0  0  0  0
  152.1450  141.3178  158.4459 C   0  0  0  0  0  0  0  0  0  0  0  0
  151.7922  142.4141  159.1618 C   0  0  0  0  0  0  0  0  0  0  0  0
  150.7961  143.1390  158.5165 N   0  0  0  0  0  0  0  0  0  0  0  0
  150.5944  142.4169  157.4144 C   0  0  0  0  0  0  0  0  0  0  0  0
  151.3577  141.3122  157.2941 N   0  0  0  0  0  0  0  0  0  0  0  0
  151.3192  140.3646  156.1896 C   0  0  0  0  0  0  0  0  0  0  0  0
  149.8884  140.1095  155.6742 C   0  0  2  0  0  0  0  0  0  0  0  0
  149.7979  138.7951  155.1604 O   0  0  0  0  0  0  0  0  0  0  0  0
  149.5027  141.0894  154.5562 C   0  0  0  0  0  0  0  0  0  0  0  0
  148.2843  141.7322  154.9078 O   0  0  0  0  0  0  0  0  0  0  0  0
  147.2592  141.6139  153.9301 C   0  0  0  0  0  0  0  0  0  0  0  0
  146.1986  142.6217  154.2384 C   0  0  0  0  0  0  0  0  0  0  0  0
  145.6195  143.6282  153.5161 C   0  0  0  0  0  0  0  0  0  0  0  0
  144.6699  144.2445  154.3770 C   0  0  0  0  0  0  0  0  0  0  0  0
  144.7400  143.5669  155.5609 C   0  0  0  0  0  0  0  0  0  0  0  0
  145.6668  142.5728  155.4927 O   0  0  0  0  0  0  0  0  0  0  0  0
  152.4460  142.6538  160.3981 N   0  0  0  0  0  0  0  0  0  0  0  0
  152.0787  143.8359  161.1826 C   0  0  0  0  0  0  0  0  0  0  0  0
  153.4084  141.7942  160.8653 C   0  0  0  0  0  0  0  0  0  0  0  0
  153.9634  142.0089  161.9470 O   0  0  0  0  0  0  0  0  0  0  0  0
  155.0499  138.9616  159.9973 H   0  0  0  0  0  0  0  0  0  0  0  0
  154.4492  139.3666  161.5899 H   0  0  0  0  0  0  0  0  0  0  0  0
  155.6995  140.3522  160.8290 H   0  0  0  0  0  0  0  0  0  0  0  0
  149.8643  142.6992  156.6700 H   0  0  0  0  0  0  0  0  0  0  0  0
  151.9316  140.7691  155.3826 H   0  0  0  0  0  0  0  0  0  0  0  0
  151.8010  139.4343  156.4872 H   0  0  0  0  0  0  0  0  0  0  0  0
  149.1902  140.2101  156.5064 H   0  0  0  0  0  0  0  0  0  0  0  0
  150.1671  138.2005  155.7957 H   0  0  0  0  0  0  0  0  0  0  0  0
  150.2739  141.8547  154.4574 H   0  0  0  0  0  0  0  0  0  0  0  0
  149.4367  140.5744  153.5964 H   0  0  0  0  0  0  0  0  0  0  0  0
  147.6876  141.8233  152.9499 H   0  0  0  0  0  0  0  0  0  0  0  0
  146.8555  140.6008  153.8947 H   0  0  0  0  0  0  0  0  0  0  0  0
  145.8536  143.8897  152.4947 H   0  0  0  0  0  0  0  0  0  0  0  0
  144.0185  145.0780  154.1586 H   0  0  0  0  0  0  0  0  0  0  0  0
  144.2276  143.6556  156.5076 H   0  0  0  0  0  0  0  0  0  0  0  0
  152.9464  144.4803  161.3315 H   0  0  0  0  0  0  0  0  0  0  0  0
  151.6995  143.5423  162.1626 H   0  0  0  0  0  0  0  0  0  0  0  0
  151.3075  144.4391  160.7035 H   0  0  0  0  0  0  0  0  0  0  0  0
  1  2  1  0  0  0  0
  1 25  1  0  0  0  0
  1 26  1  0  0  0  0
  1 27  1  0  0  0  0
  2 23  1  0  0  0  0
  2  3  1  0  0  0  0
  3  4  2  0  0  0  0
  3  5  1  0  0  0  0
  5  9  1  0  0  0  0
  5  6  2  0  0  0  0
  6  7  1  0  0  0  0
  6 21  1  0  0  0  0
  7  8  2  0  0  0  0
  8  9  1  0  0  0  0
  8 28  1  0  0  0  0
  9 10  1  0  0  0  0
 10 11  1  0  0  0  0
 10 29  1  0  0  0  0
 10 30  1  0  0  0  0
 11 12  1  0  0  0  0
 11 13  1  0  0  0  0
 11 31  1  0  0  0  0
 12 32  1  0  0  0  0
 13 14  1  0  0  0  0
 13 33  1  0  0  0  0
 13 34  1  0  0  0  0
 14 15  1  0  0  0  0
 15 16  1  0  0  0  0
 15 35  1  0  0  0  0
 15 36  1  0  0  0  0
 16 20  1  0  0  0  0
 16 17  2  0  0  0  0
 17 18  1  0  0  0  0
 17 37  1  0  0  0  0
 18 19  2  0  0  0  0
 18 38  1  0  0  0  0
 19 20  1  0  0  0  0
 19 39  1  0  0  0  0
 21 22  1  0  0  0  0
 21 23  1  0  0  0  0
 22 40  1  0  0  0  0
 22 41  1  0  0  0  0
 22 42  1  0  0  0  0
 23 24  2  0  0  0  0
M  END
> <s_m_source_file>
AV-unprocessed.smi

> <i_m_source_file_index>
856

> <i_lp_mmshare_version>
43012

> <i_f3d_flags>
0

> <s_epik_input>
Tz1jMW4oW0NIM10pYyg9TyluKFtDSDNdKWMoYzEyKW5bY0hdbjJbQ0gyXVtDQEhdKFtPSF0pW0NIMl1PW0NIMl1jM1tjSF1bY0hdW2NIXW8z

> <s_epik_cmdline>
J2VwaWtfcHl0aG9uJywgJy1waCcsICc3LjAnLCAnLXRuJywgJzgnLCAnLW1hJywgJzIwMCcsICctbWV0YWxfYmluZGluZycsICctaW1hZScsICc8aW5maWxlLm1hZT4nLCAnLW9tYWUnLCAnPG91dGZpbGUubWFlPic=

> <r_lp_tautomer_probability>
1

> <r_epik_Ionization_Penalty>
1.33189e-06

> <r_epik_Ionization_Penalty_Charging>
3.64616e-09

> <r_epik_Ionization_Penalty_Neutral>
1.32824e-06

> <r_epik_State_Penalty>
-0

> <r_epik_Charging_Adjusted_Penalty>
3.64616e-09

> <i_epik_Tot_Q>
0

> <i_epik_Tot_abs_Q>
0

> <r_epik_Metal_State_Penalty>
-0

> <b_epik_Metal_Only>
0

> <s_lp_Force_Field>
OPLS_2005

> <r_lp_Energy>
33.5677

> <b_lp_Chiralities_Consistent>
1

> <s_lp_Variant>
AV-unprocessed.smi:856-1

> <Gold.Version>
5.8.1

> <Gold.Id.Protein>
6NUR|6NUR_protein|mol2

> <Gold.PLP.Fitness>
53.2776

> <Gold.PLP.PLP>
-50.9280

> <Gold.PLP.part.hbond>
-2.0000

> <Gold.PLP.part.metal>
0.0000

> <Gold.PLP.part.buried>
-6.4358

> <Gold.PLP.part.nonpolar>
-43.1069

> <Gold.PLP.part.repulsive>
0.5976

> <Gold.PLP.ligand.clash>
0.0000

> <Gold.PLP.ligand.torsion>
1.8563

> <Gold.PLP.Chemscore.Hbond>
1.0000

> <Gold.PLP.Chemscore.CHOScore>
1.0000

> <Gold.PLP.Chemscore.Metal>
0.0000

> <Gold.Chemscore.Hbonds>
donor molecule, donor type, donor heavy atom, donor atom, acceptor molecule, acceptor atom, score
      P1  H  7997  8009       L1     4  1.00
      L1  C     8    28       P1  8028  1.00

> <Gold.PLP.Chemscore.Internal.Correction>
0.0621

> <Gold.Rescore>
     Score         DG    S(hbond)    S(metal)    S(lipo)     H(rot)  DE(clash)    DE(int)     intcor
      7.99      -9.86       0.97        0.00      78.96       3.16       0.02       1.85       ----

> <Gold.Chemscore.Fitness>
7.9939

> <Gold.Chemscore.DG>
-9.8595

> <Gold.Chemscore.ZeroCoef>
-5.4800

> <Gold.Chemscore.Hbond>
0.9673

> <Gold.Chemscore.Metal>
0.0000

> <Gold.Chemscore.Lipo>
78.9584

> <Gold.Chemscore.Internal_Hbond>
0.0000

> <Gold.Chemscore.DEClash>
0.0202

> <Gold.Chemscore.DEInternal>
1.8454

> <Gold.Chemscore.Rot>
3.1599

> <Gold.Chemscore.Internal.Correction>
   9.000000E+99

> <Gold.Chemscore.Hbonds>
donor molecule, donor type, donor heavy atom, donor atom, acceptor molecule, acceptor atom, score
      P1  H  7997  8009       L1     4  0.40

> <Gold.Chemscore.Hbond.Weighted>
-3.2307

> <Gold.Chemscore.Metal.Weighted>
-0.0000

> <Gold.Chemscore.Lipo.Weighted>
-9.2381

> <Gold.Chemscore.Internal_Hbond.Weighted>
0.0000

> <Gold.Chemscore.DEClash.Weighted>
0.0202

> <Gold.Chemscore.DEInternal.Weighted>
1.8454

> <Gold.Chemscore.Rot.Weighted>
8.0893

> <Gold.Chemscore.Internal.Correction.Weighted>
   9.000000E+99

> <Gold.Protein.RotatedTorsions>
[ 6907 6896 6895 6894 ] final  -48.43 input  -60.11 | X-H torsion
[ 7974 7965 7964 7962 ] final  101.77 input  175.53 | X-H torsion
[ 8008 7997 7996 7995 ] final  148.48 input   59.86 | X-H torsion
[ 10167 10162 10161 10158 ] final  112.24 input  -65.29 | X-H torsion
[ 10718 10713 10712 10709 ] final  177.47 input   66.30 | X-H torsion
[ 10763 10752 10751 10750 ] final  172.82 input  -60.55 | X-H torsion
[ 11005 11000 10999 10996 ] final  -47.87 input  -57.11 | X-H torsion

> <Gold.Protein.ActiveResidues>
 VAL166  LYS551  ARG553  GLY616  TRP617  ASP618  TYR619  PRO620  LYS621  CYS622 
 ASP623  PHE694  ASN695  SER759  ASP760  ASP761  ALA762  ILE779  LEU786  VAL792 
 PHE793  MET794  SER795  GLU796  ALA797  LYS798  CYS799  TRP800  GLU811  SER814 

> <Gold.Protein.RotatedAtoms>
  150.8906  134.8309  159.7290 H   0  0  0  0  0  0  0  0  0  0  0  0  # atno 6907 bound_to 6896
  152.4834  134.4654  159.9628 H   0  0  0  0  0  0  0  0  0  0  0  0  # atno 6908 bound_to 6896
  151.4717  133.3528  159.2860 H   0  0  0  0  0  0  0  0  0  0  0  0  # atno 6909 bound_to 6896
  145.3679  139.2404  143.3471 H   0  0  0  0  0  0  0  0  0  0  0  0  # atno 7974 bound_to 7965
  156.2789  140.2127  156.5706 H   0  0  0  0  0  0  0  0  0  0  0  0  # atno 8008 bound_to 7997
  154.7139  140.0509  157.0599 H   0  0  0  0  0  0  0  0  0  0  0  0  # atno 8009 bound_to 7997
  155.0568  140.3162  155.4676 H   0  0  0  0  0  0  0  0  0  0  0  0  # atno 8010 bound_to 7997
  139.6550  144.7129  151.1974 H   0  0  0  0  0  0  0  0  0  0  0  0  # atno 10167 bound_to 10162
  156.9049  130.9891  151.3030 H   0  0  0  0  0  0  0  0  0  0  0  0  # atno 10718 bound_to 10713
  154.4314  135.2760  155.1910 H   0  0  0  0  0  0  0  0  0  0  0  0  # atno 10763 bound_to 10752
  154.3815  135.6086  153.5797 H   0  0  0  0  0  0  0  0  0  0  0  0  # atno 10764 bound_to 10752
  152.9836  135.5881  154.4625 H   0  0  0  0  0  0  0  0  0  0  0  0  # atno 10765 bound_to 10752
  141.0666  133.6692  156.3359 H   0  0  0  0  0  0  0  0  0  0  0  0  # atno 11005 bound_to 11000
  146.2898  140.4325  142.8744 LP  0  0  0  0  0  0  0  0  0  0  0  0  # atno 17320 bound_to 7965
  144.8598  140.7123  143.6115 LP  0  0  0  0  0  0  0  0  0  0  0  0  # atno 17321 bound_to 7965
  140.7555  143.6087  150.8627 LP  0  0  0  0  0  0  0  0  0  0  0  0  # atno 17342 bound_to 10162
  139.9739  143.6026  152.2965 LP  0  0  0  0  0  0  0  0  0  0  0  0  # atno 17343 bound_to 10162
  157.6003  130.8508  149.8792 LP  0  0  0  0  0  0  0  0  0  0  0  0  # atno 17370 bound_to 10713
  156.0564  130.3707  150.1082 LP  0  0  0  0  0  0  0  0  0  0  0  0  # atno 17371 bound_to 10713
  140.5759  134.5794  157.5468 LP  0  0  0  0  0  0  0  0  0  0  0  0  # atno 17394 bound_to 11000
  139.9483  134.7663  156.0509 LP  0  0  0  0  0  0  0  0  0  0  0  0  # atno 17395 bound_to 11000

$$$$
