AV-unprocessed.smi:1659|AV-procd|sdf|6650|dock3
  -GOLD-   22720 7353D 1   1.00000     0.00000
 Structure written by MMmdl.
 43 44  0  0  0  0  0  0  0  0  1 V2000
  149.0342  130.7866  154.1912 C   0  0  0  0  0  0  0  0  0  0  0  0
  149.4894  132.1749  154.4845 C   0  0  0  0  0  0  0  0  0  0  0  0
  149.3438  133.3610  153.8215 C   0  0  0  0  0  0  0  0  0  0  0  0
  150.0224  134.2827  154.6624 C   0  0  0  0  0  0  0  0  0  0  0  0
  150.1017  135.6571  154.3211 N   0  0  0  0  0  0  0  0  0  0  0  0
  150.8411  136.6079  154.9177 C   0  0  0  0  0  0  0  0  0  0  0  0
  151.5859  136.4266  155.8812 O   0  0  0  0  0  0  0  0  0  0  0  0
  150.6702  137.8002  154.3284 N   0  0  0  0  0  0  0  0  0  0  0  0
  151.3321  139.0356  154.7319 C   0  0  0  0  0  0  0  0  0  0  0  0
  150.5067  139.8037  155.7762 C   0  0  0  0  0  0  0  0  0  0  0  0
  150.9411  141.2738  155.9025 C   0  0  0  0  0  0  0  0  0  0  0  0
  151.2154  141.6333  157.3022 N   0  0  0  0  0  0  0  0  0  0  0  0
  150.5007  142.8151  157.8087 C   0  0  0  0  0  0  0  0  0  0  0  0
  151.4497  143.9804  158.1492 C   0  0  0  0  0  0  0  0  0  0  0  0
  152.1226  143.8562  159.5244 C   0  0  0  0  0  0  0  0  0  0  0  0
  153.0472  142.6388  159.6700 C   0  0  0  0  0  0  0  0  0  0  0  0
  152.3132  141.2963  159.5166 C   0  0  0  0  0  0  0  0  0  0  0  0
  152.0853  140.9114  158.0491 C   0  0  0  0  0  0  0  0  0  0  0  0
  152.6983  139.9412  157.6021 O   0  0  0  0  0  0  0  0  0  0  0  0
  150.5366  133.7109  155.7405 N   0  0  0  0  0  0  0  0  0  0  0  0
  150.1967  132.3571  155.6324 O   0  0  0  0  0  0  0  0  0  0  0  0
  148.6941  130.6979  153.1594 H   0  0  0  0  0  0  0  0  0  0  0  0
  148.2088  130.5052  154.8452 H   0  0  0  0  0  0  0  0  0  0  0  0
  149.8447  130.0732  154.3417 H   0  0  0  0  0  0  0  0  0  0  0  0
  148.8329  133.5369  152.8867 H   0  0  0  0  0  0  0  0  0  0  0  0
  149.5335  135.9476  153.5394 H   0  0  0  0  0  0  0  0  0  0  0  0
  150.0383  137.8583  153.5430 H   0  0  0  0  0  0  0  0  0  0  0  0
  152.3061  138.7761  155.1473 H   0  0  0  0  0  0  0  0  0  0  0  0
  151.5235  139.6619  153.8589 H   0  0  0  0  0  0  0  0  0  0  0  0
  149.4496  139.7562  155.5117 H   0  0  0  0  0  0  0  0  0  0  0  0
  150.6035  139.3129  156.7454 H   0  0  0  0  0  0  0  0  0  0  0  0
  151.8147  141.4556  155.2761 H   0  0  0  0  0  0  0  0  0  0  0  0
  150.1667  141.9237  155.4907 H   0  0  0  0  0  0  0  0  0  0  0  0
  149.7908  143.1743  157.0632 H   0  0  0  0  0  0  0  0  0  0  0  0
  149.8913  142.5457  158.6723 H   0  0  0  0  0  0  0  0  0  0  0  0
  152.2020  144.0966  157.3679 H   0  0  0  0  0  0  0  0  0  0  0  0
  150.8718  144.9052  158.1443 H   0  0  0  0  0  0  0  0  0  0  0  0
  152.7033  144.7598  159.7123 H   0  0  0  0  0  0  0  0  0  0  0  0
  151.3578  143.8268  160.3016 H   0  0  0  0  0  0  0  0  0  0  0  0
  153.8683  142.7074  158.9546 H   0  0  0  0  0  0  0  0  0  0  0  0
  153.5109  142.6725  160.6563 H   0  0  0  0  0  0  0  0  0  0  0  0
  152.9190  140.5140  159.9761 H   0  0  0  0  0  0  0  0  0  0  0  0
  151.3691  141.2959  160.0623 H   0  0  0  0  0  0  0  0  0  0  0  0
  1  2  1  0  0  0  0
  1 22  1  0  0  0  0
  1 23  1  0  0  0  0
  1 24  1  0  0  0  0
  2 21  1  0  0  0  0
  2  3  2  0  0  0  0
  3  4  1  0  0  0  0
  3 25  1  0  0  0  0
  4  5  1  0  0  0  0
  4 20  2  0  0  0  0
  5  6  1  0  0  0  0
  5 26  1  0  0  0  0
  6  7  2  0  0  0  0
  6  8  1  0  0  0  0
  8  9  1  0  0  0  0
  8 27  1  0  0  0  0
  9 10  1  0  0  0  0
  9 28  1  0  0  0  0
  9 29  1  0  0  0  0
 10 11  1  0  0  0  0
 10 30  1  0  0  0  0
 10 31  1  0  0  0  0
 11 12  1  0  0  0  0
 11 32  1  0  0  0  0
 11 33  1  0  0  0  0
 12 18  1  0  0  0  0
 12 13  1  0  0  0  0
 13 14  1  0  0  0  0
 13 34  1  0  0  0  0
 13 35  1  0  0  0  0
 14 15  1  0  0  0  0
 14 36  1  0  0  0  0
 14 37  1  0  0  0  0
 15 16  1  0  0  0  0
 15 38  1  0  0  0  0
 15 39  1  0  0  0  0
 16 17  1  0  0  0  0
 16 40  1  0  0  0  0
 16 41  1  0  0  0  0
 17 18  1  0  0  0  0
 17 42  1  0  0  0  0
 17 43  1  0  0  0  0
 18 19  2  0  0  0  0
 20 21  1  0  0  0  0
M  END
> <s_m_source_file>
AV-unprocessed.smi

> <i_m_source_file_index>
1659

> <i_lp_mmshare_version>
43012

> <i_f3d_flags>
0

> <s_epik_input>
W0NIM11jMVtjSF1jKG5vMSlbTkhdQyg9TylbTkhdW0NIMl1bQ0gyXVtDSDJdTjJbQ0gyXVtDSDJdW0NIMl1bQ0gyXVtDSDJdQzI9Tw==

> <s_epik_cmdline>
J2VwaWtfcHl0aG9uJywgJy1waCcsICc3LjAnLCAnLXRuJywgJzgnLCAnLW1hJywgJzIwMCcsICctbWV0YWxfYmluZGluZycsICctaW1hZScsICc8aW5maWxlLm1hZT4nLCAnLW9tYWUnLCAnPG91dGZpbGUubWFlPic=

> <r_lp_tautomer_probability>
1

> <r_epik_Ionization_Penalty>
2.8543e-05

> <r_epik_Ionization_Penalty_Charging>
0

> <r_epik_Ionization_Penalty_Neutral>
2.8543e-05

> <r_epik_State_Penalty>
-0

> <r_epik_Charging_Adjusted_Penalty>
0

> <i_epik_Tot_Q>
0

> <i_epik_Tot_abs_Q>
0

> <r_epik_Metal_State_Penalty>
0.00845548

> <b_epik_Metal_Only>
0

> <s_lp_Force_Field>
OPLS_2005

> <r_lp_Energy>
16.7735

> <b_lp_Chiralities_Consistent>
1

> <s_lp_Variant>
AV-unprocessed.smi:1659-1

> <Gold.Version>
5.8.1

> <Gold.Id.Protein>
6NUR|6NUR_protein|mol2

> <Gold.PLP.Fitness>
51.9218

> <Gold.PLP.PLP>
-44.1963

> <Gold.PLP.part.hbond>
-3.9619

> <Gold.PLP.part.metal>
0.0000

> <Gold.PLP.part.buried>
-3.9478

> <Gold.PLP.part.nonpolar>
-35.6684

> <Gold.PLP.part.repulsive>
0.1980

> <Gold.PLP.ligand.clash>
0.0000

> <Gold.PLP.ligand.torsion>
0.6792

> <Gold.PLP.Chemscore.Hbond>
3.0000

> <Gold.PLP.Chemscore.CHOScore>
0.0000

> <Gold.PLP.Chemscore.Metal>
0.0000

> <Gold.Chemscore.Hbonds>
donor molecule, donor type, donor heavy atom, donor atom, acceptor molecule, acceptor atom, score
      L1  H     5    26       P1  7948  1.00
      P1  H  7997  8009       L1    19  1.00
      P1  H 10752 10764       L1     7  0.93

> <Gold.PLP.Chemscore.Internal.Correction>
0.0838

> <Gold.Rescore>
     Score         DG    S(hbond)    S(metal)    S(lipo)     H(rot)  DE(clash)    DE(int)     intcor
     16.93     -20.09       2.57        0.00      92.66       1.88       0.06       3.10       ----

> <Gold.Chemscore.Fitness>
16.9285

> <Gold.Chemscore.DG>
-20.0852

> <Gold.Chemscore.ZeroCoef>
-5.4800

> <Gold.Chemscore.Hbond>
2.5691

> <Gold.Chemscore.Metal>
0.0000

> <Gold.Chemscore.Lipo>
92.6593

> <Gold.Chemscore.Internal_Hbond>
0.0000

> <Gold.Chemscore.DEClash>
0.0559

> <Gold.Chemscore.DEInternal>
3.1007

> <Gold.Chemscore.Rot>
1.8816

> <Gold.Chemscore.Internal.Correction>
   9.000000E+99

> <Gold.Chemscore.Hbonds>
donor molecule, donor type, donor heavy atom, donor atom, acceptor molecule, acceptor atom, score
      L1  H     5    26       P1  7948  0.35
      P1  H  7997  8009       L1    19  0.98
      P1  H 10752 10764       L1     7  0.46

> <Gold.Chemscore.Hbond.Weighted>
-8.5809

> <Gold.Chemscore.Metal.Weighted>
-0.0000

> <Gold.Chemscore.Lipo.Weighted>
-10.8411

> <Gold.Chemscore.Internal_Hbond.Weighted>
0.0000

> <Gold.Chemscore.DEClash.Weighted>
0.0559

> <Gold.Chemscore.DEInternal.Weighted>
3.1007

> <Gold.Chemscore.Rot.Weighted>
4.8169

> <Gold.Chemscore.Internal.Correction.Weighted>
   9.000000E+99

> <Gold.Protein.RotatedTorsions>
[ 6907 6896 6895 6894 ] final -159.47 input  -60.11 | X-H torsion
[ 7974 7965 7964 7962 ] final   23.47 input  175.53 | X-H torsion
[ 8008 7997 7996 7995 ] final  165.38 input   59.86 | X-H torsion
[ 10167 10162 10161 10158 ] final   55.51 input  -65.29 | X-H torsion
[ 10718 10713 10712 10709 ] final  176.78 input   66.30 | X-H torsion
[ 10763 10752 10751 10750 ] final  -20.35 input  -60.55 | X-H torsion
[ 11005 11000 10999 10996 ] final  -83.19 input  -57.11 | X-H torsion

> <Gold.Protein.ActiveResidues>
 VAL166  LYS551  ARG553  GLY616  TRP617  ASP618  TYR619  PRO620  LYS621  CYS622 
 ASP623  PHE694  ASN695  SER759  ASP760  ASP761  ALA762  ILE779  LEU786  VAL792 
 PHE793  MET794  SER795  GLU796  ALA797  LYS798  CYS799  TRP800  GLU811  SER814 

> <Gold.Protein.RotatedAtoms>
  151.3340  133.3989  159.2664 H   0  0  0  0  0  0  0  0  0  0  0  0  # atno 6907 bound_to 6896
  150.9932  134.9262  159.7922 H   0  0  0  0  0  0  0  0  0  0  0  0  # atno 6908 bound_to 6896
  152.5253  134.3305  159.9233 H   0  0  0  0  0  0  0  0  0  0  0  0  # atno 6909 bound_to 6896
  146.1983  139.7740  142.8781 H   0  0  0  0  0  0  0  0  0  0  0  0  # atno 7974 bound_to 7965
  156.1805  140.1671  156.8284 H   0  0  0  0  0  0  0  0  0  0  0  0  # atno 8008 bound_to 7997
  154.5354  140.0748  156.8452 H   0  0  0  0  0  0  0  0  0  0  0  0  # atno 8009 bound_to 7997
  155.3321  140.3379  155.4242 H   0  0  0  0  0  0  0  0  0  0  0  0  # atno 8010 bound_to 7997
  140.2187  144.3812  150.6459 H   0  0  0  0  0  0  0  0  0  0  0  0  # atno 10167 bound_to 10162
  156.9150  130.9922  151.3014 H   0  0  0  0  0  0  0  0  0  0  0  0  # atno 10718 bound_to 10713
  153.6190  135.6993  153.5317 H   0  0  0  0  0  0  0  0  0  0  0  0  # atno 10763 bound_to 10752
  153.2953  135.4145  155.1203 H   0  0  0  0  0  0  0  0  0  0  0  0  # atno 10764 bound_to 10752
  154.8547  135.3635  154.5731 H   0  0  0  0  0  0  0  0  0  0  0  0  # atno 10765 bound_to 10752
  141.1659  133.7282  156.8683 H   0  0  0  0  0  0  0  0  0  0  0  0  # atno 11005 bound_to 11000
  145.3571  141.0319  143.3306 LP  0  0  0  0  0  0  0  0  0  0  0  0  # atno 17320 bound_to 7965
  144.8627  139.5154  143.6805 LP  0  0  0  0  0  0  0  0  0  0  0  0  # atno 17321 bound_to 7965
  140.6271  143.2182  151.6574 LP  0  0  0  0  0  0  0  0  0  0  0  0  # atno 17342 bound_to 10162
  139.5152  144.3385  152.0761 LP  0  0  0  0  0  0  0  0  0  0  0  0  # atno 17343 bound_to 10162
  157.5943  130.8466  149.8706 LP  0  0  0  0  0  0  0  0  0  0  0  0  # atno 17370 bound_to 10713
  156.0518  130.3716  150.1184 LP  0  0  0  0  0  0  0  0  0  0  0  0  # atno 17371 bound_to 10713
  140.1800  134.9040  157.2936 LP  0  0  0  0  0  0  0  0  0  0  0  0  # atno 17394 bound_to 11000
  140.2406  134.3800  155.7482 LP  0  0  0  0  0  0  0  0  0  0  0  0  # atno 17395 bound_to 11000

$$$$
