AV-unprocessed.smi:1971|AV-procd|sdf|7971|dock10
  -GOLD-   2272010143D 1   1.00000     0.00000
 Structure written by MMmdl.
 43 44  0  0  0  0  0  0  0  0  3 V2000
  150.1773  141.3443  156.3378 C   0  0  0  0  0  0  0  0  0  0  0  0
  150.8759  140.0045  156.0636 C   0  0  0  0  0  0  0  0  0  0  0  0
  150.6551  139.5426  154.6911 N   0  0  0  0  0  0  0  0  0  0  0  0
  151.5627  138.4803  154.2426 C   0  0  0  0  0  0  0  0  0  0  0  0
  151.2854  137.1367  154.9492 C   0  0  0  0  0  0  0  0  0  0  0  0
  149.8787  136.7207  154.7278 N   0  3  0  0  0  0  0  0  0  0  0  0
  149.5732  135.3453  155.2154 C   0  0  1  0  0  0  0  0  0  0  0  0
  150.2245  134.2380  154.3581 C   0  0  0  0  0  0  0  0  0  0  0  0
  149.9142  135.2172  156.7179 C   0  0  0  0  0  0  0  0  0  0  0  0
  148.7430  135.3815  157.5727 N   0  0  0  0  0  0  0  0  0  0  0  0
  148.7386  135.9268  158.7972 C   0  0  0  0  0  0  0  0  0  0  0  0
  149.7946  136.3209  159.2978 O   0  0  0  0  0  0  0  0  0  0  0  0
  147.5113  135.9870  159.3599 N   0  5  0  0  0  0  0  0  0  0  0  0
  147.3512  135.6797  160.6574 C   0  0  0  0  0  0  0  0  0  0  0  0
  147.2038  136.6059  161.6117 N   0  0  0  0  0  0  0  0  0  0  0  0
  147.0456  136.0663  162.8895 C   0  0  0  0  0  0  0  0  0  0  0  0
  147.0647  134.6968  162.9073 C   0  0  0  0  0  0  0  0  0  0  0  0
  147.2839  134.0404  161.3102 S   0  0  0  0  0  0  0  0  0  0  0  0
  148.9471  137.7879  155.1762 C   0  0  0  0  0  0  0  0  0  0  0  0
  149.2727  139.1150  154.4591 C   0  0  0  0  0  0  0  0  0  0  0  0
  150.2508  141.6024  157.3943 H   0  0  0  0  0  0  0  0  0  0  0  0
  149.1177  141.2972  156.0842 H   0  0  0  0  0  0  0  0  0  0  0  0
  150.6252  142.1639  155.7764 H   0  0  0  0  0  0  0  0  0  0  0  0
  151.9369  140.0779  156.2994 H   0  0  0  0  0  0  0  0  0  0  0  0
  150.4588  139.2638  156.7471 H   0  0  0  0  0  0  0  0  0  0  0  0
  151.4348  138.3532  153.1667 H   0  0  0  0  0  0  0  0  0  0  0  0
  152.6012  138.7770  154.3839 H   0  0  0  0  0  0  0  0  0  0  0  0
  151.9571  136.3813  154.5400 H   0  0  0  0  0  0  0  0  0  0  0  0
  151.5045  137.2009  156.0148 H   0  0  0  0  0  0  0  0  0  0  0  0
  148.4931  135.2206  155.1300 H   0  0  0  0  0  0  0  0  0  0  0  0
  149.8538  133.2531  154.6436 H   0  0  0  0  0  0  0  0  0  0  0  0
  151.3081  134.2192  154.4751 H   0  0  0  0  0  0  0  0  0  0  0  0
  150.0020  134.3635  153.2987 H   0  0  0  0  0  0  0  0  0  0  0  0
  150.3339  134.2352  156.9340 H   0  0  0  0  0  0  0  0  0  0  0  0
  150.6759  135.9459  157.0001 H   0  0  0  0  0  0  0  0  0  0  0  0
  147.8571  135.0691  157.2027 H   0  0  0  0  0  0  0  0  0  0  0  0
  146.9234  136.7324  163.7304 H   0  0  0  0  0  0  0  0  0  0  0  0
  146.9629  134.0378  163.7562 H   0  0  0  0  0  0  0  0  0  0  0  0
  147.9199  137.5062  154.9470 H   0  0  0  0  0  0  0  0  0  0  0  0
  149.0005  137.9194  156.2570 H   0  0  0  0  0  0  0  0  0  0  0  0
  148.5858  139.8988  154.7806 H   0  0  0  0  0  0  0  0  0  0  0  0
  149.1197  138.9966  153.3856 H   0  0  0  0  0  0  0  0  0  0  0  0
  149.7781  136.6697  153.7241 H   0  0  0  0  0  0  0  0  0  0  0  0
  1  2  1  0  0  0  0
  1 21  1  0  0  0  0
  1 22  1  0  0  0  0
  1 23  1  0  0  0  0
  2  3  1  0  0  0  0
  2 24  1  0  0  0  0
  2 25  1  0  0  0  0
  3 20  1  0  0  0  0
  3  4  1  0  0  0  0
  4  5  1  0  0  0  0
  4 26  1  0  0  0  0
  4 27  1  0  0  0  0
  5  6  1  0  0  0  0
  5 28  1  0  0  0  0
  5 29  1  0  0  0  0
  6  7  1  0  0  0  0
  6 19  1  0  0  0  0
  6 43  1  0  0  0  0
  7  8  1  0  0  0  0
  7  9  1  0  0  0  0
  7 30  1  0  0  0  0
  8 31  1  0  0  0  0
  8 32  1  0  0  0  0
  8 33  1  0  0  0  0
  9 10  1  0  0  0  0
  9 34  1  0  0  0  0
  9 35  1  0  0  0  0
 10 11  1  0  0  0  0
 10 36  1  0  0  0  0
 11 12  2  0  0  0  0
 11 13  1  0  0  0  0
 13 14  1  0  0  0  0
 14 18  1  0  0  0  0
 14 15  2  0  0  0  0
 15 16  1  0  0  0  0
 16 17  2  0  0  0  0
 16 37  1  0  0  0  0
 17 18  1  0  0  0  0
 17 38  1  0  0  0  0
 19 20  1  0  0  0  0
 19 39  1  0  0  0  0
 19 40  1  0  0  0  0
 20 41  1  0  0  0  0
 20 42  1  0  0  0  0
M  CHG  1   6   1
M  CHG  1  13  -1
M  END
> <s_m_source_file>
AV-unprocessed.smi

> <i_m_source_file_index>
1971

> <i_lp_mmshare_version>
43012

> <i_f3d_flags>
0

> <s_epik_input>
W0NIM11bQ0gyXU4xW0NIMl1bQ0gyXU4oW0NIMl1bQ0gyXTEpW0NASF0oW0NIM10pW0NIMl1bTkhdQyg9TylbTkhdYzJuW2NIXVtjSF1zMg==

> <s_epik_cmdline>
J2VwaWtfcHl0aG9uJywgJy1waCcsICc3LjAnLCAnLXRuJywgJzgnLCAnLW1hJywgJzIwMCcsICctbWV0YWxfYmluZGluZycsICctaW1hZScsICc8aW5maWxlLm1hZT4nLCAnLW9tYWUnLCAnPG91dGZpbGUubWFlPic=

> <r_epik_Ionization_Penalty>
6.3441

> <r_epik_Ionization_Penalty_Charging>
5.51153

> <r_epik_Ionization_Penalty_Neutral>
0.832567

> <r_epik_State_Penalty>
6.33945

> <r_epik_Charging_Adjusted_Penalty>
11.851

> <i_epik_Tot_Q>
0

> <i_epik_Tot_abs_Q>
2

> <r_epik_Metal_State_Penalty>
2.34542

> <b_epik_Metal_Only>
1

> <s_lp_Force_Field>
OPLS_2005

> <r_lp_Energy>
10.682

> <b_lp_Chiralities_Consistent>
1

> <s_lp_Variant>
AV-unprocessed.smi:1971-10

> <Gold.Version>
5.8.1

> <Gold.Id.Protein>
6NUR|6NUR_protein|mol2

> <Gold.PLP.Fitness>
51.3725

> <Gold.PLP.PLP>
-38.3126

> <Gold.PLP.part.hbond>
-5.0000

> <Gold.PLP.part.metal>
0.0000

> <Gold.PLP.part.buried>
-4.7753

> <Gold.PLP.part.nonpolar>
-28.7920

> <Gold.PLP.part.repulsive>
0.1967

> <Gold.PLP.ligand.clash>
0.0000

> <Gold.PLP.ligand.torsion>
2.0812

> <Gold.PLP.Chemscore.Hbond>
5.6657

> <Gold.PLP.Chemscore.CHOScore>
0.0000

> <Gold.PLP.Chemscore.Metal>
0.0000

> <Gold.Chemscore.Hbonds>
donor molecule, donor type, donor heavy atom, donor atom, acceptor molecule, acceptor atom, score
      L1  H     6    43       P1  7948  1.92
      P1  H  6896  6908       L1    12  1.00
      P1  H  7989  7998       L1     3  0.45

> <Gold.PLP.Chemscore.Internal.Correction>
0.2252

> <Gold.Rescore>
     Score         DG    S(hbond)    S(metal)    S(lipo)     H(rot)  DE(clash)    DE(int)     intcor
     18.03     -20.26       3.02        0.00      78.52       1.75       0.15       2.08       ----

> <Gold.Chemscore.Fitness>
18.0334

> <Gold.Chemscore.DG>
-20.2610

> <Gold.Chemscore.ZeroCoef>
-5.4800

> <Gold.Chemscore.Hbond>
3.0165

> <Gold.Chemscore.Metal>
0.0000

> <Gold.Chemscore.Lipo>
78.5240

> <Gold.Chemscore.Internal_Hbond>
0.0000

> <Gold.Chemscore.DEClash>
0.1470

> <Gold.Chemscore.DEInternal>
2.0806

> <Gold.Chemscore.Rot>
1.7505

> <Gold.Chemscore.Internal.Correction>
   9.000000E+99

> <Gold.Chemscore.Hbonds>
donor molecule, donor type, donor heavy atom, donor atom, acceptor molecule, acceptor atom, score
      L1  H     6    43       P1  7948  0.45
      P1  H  6896  6908       L1    12  0.39
      P1  H  6931  6943       L1    15  0.01
      P1  H  6934  6947       L1    15  0.01
      P1  H  7989  7998       L1     3  0.01

> <Gold.Chemscore.Hbond.Weighted>
-10.0750

> <Gold.Chemscore.Metal.Weighted>
-0.0000

> <Gold.Chemscore.Lipo.Weighted>
-9.1873

> <Gold.Chemscore.Internal_Hbond.Weighted>
0.0000

> <Gold.Chemscore.DEClash.Weighted>
0.1470

> <Gold.Chemscore.DEInternal.Weighted>
2.0806

> <Gold.Chemscore.Rot.Weighted>
4.4813

> <Gold.Chemscore.Internal.Correction.Weighted>
   9.000000E+99

> <Gold.Protein.RotatedTorsions>
[ 6907 6896 6895 6894 ] final  177.68 input  -60.11 | X-H torsion
[ 7974 7965 7964 7962 ] final  -53.94 input  175.53 | X-H torsion
[ 8008 7997 7996 7995 ] final   99.02 input   59.86 | X-H torsion
[ 10167 10162 10161 10158 ] final  127.65 input  -65.29 | X-H torsion
[ 10718 10713 10712 10709 ] final  -35.24 input   66.30 | X-H torsion
[ 10763 10752 10751 10750 ] final  153.31 input  -60.55 | X-H torsion
[ 11005 11000 10999 10996 ] final   79.66 input  -57.11 | X-H torsion

> <Gold.Protein.ActiveResidues>
 VAL166  LYS551  ARG553  GLY616  TRP617  ASP618  TYR619  PRO620  LYS621  CYS622 
 ASP623  PHE694  ASN695  SER759  ASP760  ASP761  ALA762  ILE779  LEU786  VAL792 
 PHE793  MET794  SER795  GLU796  ALA797  LYS798  CYS799  TRP800  GLU811  SER814 

> <Gold.Protein.RotatedAtoms>
  151.7001  133.3311  159.3264 H   0  0  0  0  0  0  0  0  0  0  0  0  # atno 6907 bound_to 6896
  150.7740  134.6623  159.6356 H   0  0  0  0  0  0  0  0  0  0  0  0  # atno 6908 bound_to 6896
  152.3775  134.6644  160.0206 H   0  0  0  0  0  0  0  0  0  0  0  0  # atno 6909 bound_to 6896
  145.8911  140.8069  142.9791 H   0  0  0  0  0  0  0  0  0  0  0  0  # atno 7974 bound_to 7965
  156.1063  140.3235  155.8011 H   0  0  0  0  0  0  0  0  0  0  0  0  # atno 8008 bound_to 7997
  155.4750  140.0549  157.2992 H   0  0  0  0  0  0  0  0  0  0  0  0  # atno 8009 bound_to 7997
  154.4730  140.2020  155.9963 H   0  0  0  0  0  0  0  0  0  0  0  0  # atno 8010 bound_to 7997
  139.5567  144.6854  151.4161 H   0  0  0  0  0  0  0  0  0  0  0  0  # atno 10167 bound_to 10162
  156.3410  130.4293  149.7787 H   0  0  0  0  0  0  0  0  0  0  0  0  # atno 10718 bound_to 10713
  154.1341  135.2825  155.3177 H   0  0  0  0  0  0  0  0  0  0  0  0  # atno 10763 bound_to 10752
  154.6334  135.5427  153.7710 H   0  0  0  0  0  0  0  0  0  0  0  0  # atno 10764 bound_to 10752
  153.0271  135.6468  154.1490 H   0  0  0  0  0  0  0  0  0  0  0  0  # atno 10765 bound_to 10752
  139.9164  134.7860  156.1807 H   0  0  0  0  0  0  0  0  0  0  0  0  # atno 11005 bound_to 11000
  144.6730  140.1531  143.7428 LP  0  0  0  0  0  0  0  0  0  0  0  0  # atno 17320 bound_to 7965
  145.8907  139.2374  143.1551 LP  0  0  0  0  0  0  0  0  0  0  0  0  # atno 17321 bound_to 7965
  140.6841  143.8014  150.7162 LP  0  0  0  0  0  0  0  0  0  0  0  0  # atno 17342 bound_to 10162
  140.1476  143.4386  152.2152 LP  0  0  0  0  0  0  0  0  0  0  0  0  # atno 17343 bound_to 10162
  156.5024  130.8135  151.3137 LP  0  0  0  0  0  0  0  0  0  0  0  0  # atno 17370 bound_to 10713
  157.7447  130.9940  150.2693 LP  0  0  0  0  0  0  0  0  0  0  0  0  # atno 17371 bound_to 10713
  141.0644  133.6826  156.2015 LP  0  0  0  0  0  0  0  0  0  0  0  0  # atno 17394 bound_to 11000
  140.6609  134.4968  157.5583 LP  0  0  0  0  0  0  0  0  0  0  0  0  # atno 17395 bound_to 11000

$$$$
