AV-unprocessed.smi:2460|AV-procd|sdf|9715|dock3
  -GOLD-   2272013353D 1   1.00000     0.00000
 Structure written by MMmdl.
 46 48  0  0  0  0  0  0  0  0  1 V2000
  137.0615  140.6001  154.0048 C   0  0  0  0  0  0  0  0  0  0  0  0
  137.8407  139.3101  154.3126 C   0  0  0  0  0  0  0  0  0  0  0  0
  136.8896  138.1119  154.4540 C   0  0  0  0  0  0  0  0  0  0  0  0
  138.9521  139.0525  153.2873 C   0  0  0  0  0  0  0  0  0  0  0  0
  140.1504  139.7566  153.8925 C   0  0  2  0  0  0  0  0  0  0  0  0
  141.4088  139.1982  153.4016 N   0  0  0  0  0  0  0  0  0  0  0  0
  141.6508  137.8944  153.2106 C   0  0  0  0  0  0  0  0  0  0  0  0
  140.8379  137.0069  153.4672 O   0  0  0  0  0  0  0  0  0  0  0  0
  142.8721  137.6999  152.6860 N   0  0  0  0  0  0  0  0  0  0  0  0
  143.4728  136.4721  152.3012 C   0  0  0  0  0  0  0  0  0  0  0  0
  142.9070  135.2606  152.7506 C   0  0  0  0  0  0  0  0  0  0  0  0
  143.4262  134.0603  152.4149 N   0  0  0  0  0  0  0  0  0  0  0  0
  144.5086  134.0696  151.6320 C   0  0  0  0  0  0  0  0  0  0  0  0
  145.0654  132.7370  151.2378 C   0  0  0  0  0  0  0  0  0  0  0  0
  146.1811  132.6335  150.2180 C   0  0  0  0  0  0  0  0  0  0  0  0
  144.7988  132.1630  149.8608 C   0  0  0  0  0  0  0  0  0  0  0  0
  145.1124  135.1461  151.1211 N   0  0  0  0  0  0  0  0  0  0  0  0
  144.6013  136.3512  151.4534 C   0  0  0  0  0  0  0  0  0  0  0  0
  139.9263  139.5530  155.4071 C   0  0  0  0  0  0  0  0  0  0  0  0
  140.4696  138.2168  155.9569 C   0  0  0  0  0  0  0  0  0  0  0  0
  140.4488  140.7349  156.2389 C   0  0  0  0  0  0  0  0  0  0  0  0
  138.5083  139.5064  155.5581 O   0  0  0  0  0  0  0  0  0  0  0  0
  136.5309  140.5244  153.0554 H   0  0  0  0  0  0  0  0  0  0  0  0
  137.7243  141.4639  153.9464 H   0  0  0  0  0  0  0  0  0  0  0  0
  136.3241  140.8071  154.7807 H   0  0  0  0  0  0  0  0  0  0  0  0
  136.3736  137.9055  153.5161 H   0  0  0  0  0  0  0  0  0  0  0  0
  136.1331  138.2976  155.2168 H   0  0  0  0  0  0  0  0  0  0  0  0
  137.4307  137.2098  154.7413 H   0  0  0  0  0  0  0  0  0  0  0  0
  139.1507  137.9827  153.2049 H   0  0  0  0  0  0  0  0  0  0  0  0
  138.7078  139.4160  152.2887 H   0  0  0  0  0  0  0  0  0  0  0  0
  140.0809  140.8169  153.6406 H   0  0  0  0  0  0  0  0  0  0  0  0
  142.1343  139.8573  153.1607 H   0  0  0  0  0  0  0  0  0  0  0  0
  143.3998  138.5311  152.4632 H   0  0  0  0  0  0  0  0  0  0  0  0
  142.0356  135.2512  153.3888 H   0  0  0  0  0  0  0  0  0  0  0  0
  145.0817  132.0487  152.0807 H   0  0  0  0  0  0  0  0  0  0  0  0
  146.5322  133.5526  149.7529 H   0  0  0  0  0  0  0  0  0  0  0  0
  146.9433  131.8754  150.3852 H   0  0  0  0  0  0  0  0  0  0  0  0
  144.6354  131.0899  149.7878 H   0  0  0  0  0  0  0  0  0  0  0  0
  144.2307  132.7691  149.1578 H   0  0  0  0  0  0  0  0  0  0  0  0
  145.0965  137.2039  151.0158 H   0  0  0  0  0  0  0  0  0  0  0  0
  141.5590  138.1831  155.9280 H   0  0  0  0  0  0  0  0  0  0  0  0
  140.0944  137.3650  155.3894 H   0  0  0  0  0  0  0  0  0  0  0  0
  140.1692  138.0723  156.9949 H   0  0  0  0  0  0  0  0  0  0  0  0
  141.5331  140.8209  156.1679 H   0  0  0  0  0  0  0  0  0  0  0  0
  140.1956  140.6172  157.2927 H   0  0  0  0  0  0  0  0  0  0  0  0
  140.0173  141.6774  155.9011 H   0  0  0  0  0  0  0  0  0  0  0  0
  1  2  1  0  0  0  0
  1 23  1  0  0  0  0
  1 24  1  0  0  0  0
  1 25  1  0  0  0  0
  2 22  1  0  0  0  0
  2  3  1  0  0  0  0
  2  4  1  0  0  0  0
  3 26  1  0  0  0  0
  3 27  1  0  0  0  0
  3 28  1  0  0  0  0
  4  5  1  0  0  0  0
  4 29  1  0  0  0  0
  4 30  1  0  0  0  0
  5  6  1  0  0  0  0
  5 19  1  0  0  0  0
  5 31  1  0  0  0  0
  6  7  1  0  0  0  0
  6 32  1  0  0  0  0
  7  8  2  0  0  0  0
  7  9  1  0  0  0  0
  9 10  1  0  0  0  0
  9 33  1  0  0  0  0
 10 18  1  0  0  0  0
 10 11  2  0  0  0  0
 11 12  1  0  0  0  0
 11 34  1  0  0  0  0
 12 13  2  0  0  0  0
 13 14  1  0  0  0  0
 13 17  1  0  0  0  0
 14 16  1  0  0  0  0
 14 15  1  0  0  0  0
 14 35  1  0  0  0  0
 15 16  1  0  0  0  0
 15 36  1  0  0  0  0
 15 37  1  0  0  0  0
 16 38  1  0  0  0  0
 16 39  1  0  0  0  0
 17 18  2  0  0  0  0
 18 40  1  0  0  0  0
 19 20  1  0  0  0  0
 19 21  1  0  0  0  0
 19 22  1  0  0  0  0
 20 41  1  0  0  0  0
 20 42  1  0  0  0  0
 20 43  1  0  0  0  0
 21 44  1  0  0  0  0
 21 45  1  0  0  0  0
 21 46  1  0  0  0  0
M  END
> <s_m_source_file>
AV-unprocessed.smi

> <i_m_source_file_index>
2460

> <i_lp_mmshare_version>
43012

> <i_f3d_flags>
0

> <s_epik_input>
W0NIM11DMShbQ0gzXSlbQ0gyXVtDQEhdKEMoTzEpKFtDSDNdKVtDSDNdKVtOSF1DKD1PKVtOSF1jMltjSF1uYyhuW2NIXTIpW0NIXTNbQ0gyXVtDSDJdMw==

> <s_epik_cmdline>
J2VwaWtfcHl0aG9uJywgJy1waCcsICc3LjAnLCAnLXRuJywgJzgnLCAnLW1hJywgJzIwMCcsICctbWV0YWxfYmluZGluZycsICctaW1hZScsICc8aW5maWxlLm1hZT4nLCAnLW9tYWUnLCAnPG91dGZpbGUubWFlPic=

> <r_lp_tautomer_probability>
1

> <r_epik_Ionization_Penalty>
2.38399e-05

> <r_epik_Ionization_Penalty_Charging>
0

> <r_epik_Ionization_Penalty_Neutral>
2.38399e-05

> <r_epik_State_Penalty>
-0

> <r_epik_Charging_Adjusted_Penalty>
0

> <i_epik_Tot_Q>
0

> <i_epik_Tot_abs_Q>
0

> <r_epik_Metal_State_Penalty>
-0

> <b_epik_Metal_Only>
0

> <s_lp_Force_Field>
OPLS_2005

> <r_lp_Energy>
17.9428

> <b_lp_Chiralities_Consistent>
1

> <s_lp_Variant>
AV-unprocessed.smi:2460-2

> <Gold.Version>
5.8.1

> <Gold.Id.Protein>
6NUR|6NUR_protein|mol2

> <Gold.PLP.Fitness>
39.0327

> <Gold.PLP.PLP>
-31.7645

> <Gold.PLP.part.hbond>
-3.6276

> <Gold.PLP.part.metal>
0.0000

> <Gold.PLP.part.buried>
-2.3150

> <Gold.PLP.part.nonpolar>
-26.1736

> <Gold.PLP.part.repulsive>
0.5880

> <Gold.PLP.ligand.clash>
0.0000

> <Gold.PLP.ligand.torsion>
0.5529

> <Gold.PLP.Chemscore.Hbond>
2.0000

> <Gold.PLP.Chemscore.CHOScore>
0.7483

> <Gold.PLP.Chemscore.Metal>
0.0000

> <Gold.Chemscore.Hbonds>
donor molecule, donor type, donor heavy atom, donor atom, acceptor molecule, acceptor atom, score
      L1  H     6    32       P1 10175  1.00
      L1  H     9    33       P1 10175  1.00
      L1  C    18    40       P1 10171  0.75

> <Gold.PLP.Chemscore.Internal.Correction>
0.1292

> <Gold.Rescore>
     Score         DG    S(hbond)    S(metal)    S(lipo)     H(rot)  DE(clash)    DE(int)     intcor
     12.15     -17.59       1.81        0.00      77.63       1.18       0.09       5.35       ----

> <Gold.Chemscore.Fitness>
12.1483

> <Gold.Chemscore.DG>
-17.5912

> <Gold.Chemscore.ZeroCoef>
-5.4800

> <Gold.Chemscore.Hbond>
1.8099

> <Gold.Chemscore.Metal>
0.0000

> <Gold.Chemscore.Lipo>
77.6326

> <Gold.Chemscore.Internal_Hbond>
0.0000

> <Gold.Chemscore.DEClash>
0.0901

> <Gold.Chemscore.DEInternal>
5.3528

> <Gold.Chemscore.Rot>
1.1785

> <Gold.Chemscore.Internal.Correction>
   9.000000E+99

> <Gold.Chemscore.Hbonds>
donor molecule, donor type, donor heavy atom, donor atom, acceptor molecule, acceptor atom, score
      L1  H     6    32       P1 10175  0.65
      L1  H     9    33       P1 10175  0.96

> <Gold.Chemscore.Hbond.Weighted>
-6.0451

> <Gold.Chemscore.Metal.Weighted>
-0.0000

> <Gold.Chemscore.Lipo.Weighted>
-9.0830

> <Gold.Chemscore.Internal_Hbond.Weighted>
0.0000

> <Gold.Chemscore.DEClash.Weighted>
0.0901

> <Gold.Chemscore.DEInternal.Weighted>
5.3528

> <Gold.Chemscore.Rot.Weighted>
3.0169

> <Gold.Chemscore.Internal.Correction.Weighted>
   9.000000E+99

> <Gold.Protein.RotatedTorsions>
[ 6907 6896 6895 6894 ] final -177.02 input  -60.11 | X-H torsion
[ 7974 7965 7964 7962 ] final  -48.67 input  175.53 | X-H torsion
[ 8008 7997 7996 7995 ] final -155.73 input   59.86 | X-H torsion
[ 10167 10162 10161 10158 ] final  -69.72 input  -65.29 | X-H torsion
[ 10718 10713 10712 10709 ] final -171.52 input   66.30 | X-H torsion
[ 10763 10752 10751 10750 ] final -171.92 input  -60.55 | X-H torsion
[ 11005 11000 10999 10996 ] final   -2.08 input  -57.11 | X-H torsion

> <Gold.Protein.ActiveResidues>
 VAL166  LYS551  ARG553  GLY616  TRP617  ASP618  TYR619  PRO620  LYS621  CYS622 
 ASP623  PHE694  ASN695  SER759  ASP760  ASP761  ALA762  ILE779  LEU786  VAL792 
 PHE793  MET794  SER795  GLU796  ALA797  LYS798  CYS799  TRP800  GLU811  SER814 

> <Gold.Protein.RotatedAtoms>
  151.6143  133.3344  159.3073 H   0  0  0  0  0  0  0  0  0  0  0  0  # atno 6907 bound_to 6896
  150.8140  134.7314  159.6725 H   0  0  0  0  0  0  0  0  0  0  0  0  # atno 6908 bound_to 6896
  152.4236  134.5915  160.0027 H   0  0  0  0  0  0  0  0  0  0  0  0  # atno 6909 bound_to 6896
  145.9487  140.7593  142.9515 H   0  0  0  0  0  0  0  0  0  0  0  0  # atno 7974 bound_to 7965
  155.7063  140.0773  157.2389 H   0  0  0  0  0  0  0  0  0  0  0  0  # atno 8008 bound_to 7997
  154.4065  140.1638  156.2300 H   0  0  0  0  0  0  0  0  0  0  0  0  # atno 8009 bound_to 7997
  155.9323  140.3390  155.6262 H   0  0  0  0  0  0  0  0  0  0  0  0  # atno 8010 bound_to 7997
  140.5408  143.2315  151.7092 H   0  0  0  0  0  0  0  0  0  0  0  0  # atno 10167 bound_to 10162
  156.7421  130.9346  151.3110 H   0  0  0  0  0  0  0  0  0  0  0  0  # atno 10718 bound_to 10713
  154.6251  135.2880  155.0282 H   0  0  0  0  0  0  0  0  0  0  0  0  # atno 10763 bound_to 10752
  154.1463  135.6510  153.4957 H   0  0  0  0  0  0  0  0  0  0  0  0  # atno 10764 bound_to 10752
  153.0253  135.5345  154.7056 H   0  0  0  0  0  0  0  0  0  0  0  0  # atno 10765 bound_to 10752
  140.6544  133.9375  155.8399 H   0  0  0  0  0  0  0  0  0  0  0  0  # atno 11005 bound_to 11000
  144.6792  140.2400  143.7345 LP  0  0  0  0  0  0  0  0  0  0  0  0  # atno 17320 bound_to 7965
  145.8200  139.2040  143.1943 LP  0  0  0  0  0  0  0  0  0  0  0  0  # atno 17321 bound_to 7965
  139.4988  144.3971  152.0220 LP  0  0  0  0  0  0  0  0  0  0  0  0  # atno 17342 bound_to 10162
  140.3080  144.3571  150.6042 LP  0  0  0  0  0  0  0  0  0  0  0  0  # atno 17343 bound_to 10162
  157.6814  130.9143  150.0276 LP  0  0  0  0  0  0  0  0  0  0  0  0  # atno 17370 bound_to 10713
  156.1457  130.3642  149.9514 LP  0  0  0  0  0  0  0  0  0  0  0  0  # atno 17371 bound_to 10713
  141.0512  134.0482  157.3781 LP  0  0  0  0  0  0  0  0  0  0  0  0  # atno 17394 bound_to 11000
  139.9034  135.0172  156.7376 LP  0  0  0  0  0  0  0  0  0  0  0  0  # atno 17395 bound_to 11000

$$$$
