AV-unprocessed.smi:713|AV-procd|sdf|3478|dock6
  -GOLD-   22720 0473D 1   1.00000     0.00000
 Structure written by MMmdl.
 41 42  0  0  0  0  0  0  0  0  1 V2000
  154.1529  141.4530  160.8180 C   0  0  0  0  0  0  0  0  0  0  0  0
  152.7286  141.6369  160.2558 C   0  0  2  0  0  0  0  0  0  0  0  0
  152.4669  140.7478  159.0306 C   0  0  0  0  0  0  0  0  0  0  0  0
  153.3565  140.0256  158.5791 O   0  0  0  0  0  0  0  0  0  0  0  0
  151.2353  140.8130  158.5000 N   0  0  0  0  0  0  0  0  0  0  0  0
  150.7769  140.0645  157.3336 C   0  0  2  0  0  0  0  0  0  0  0  0
  149.2931  140.3808  157.0710 C   0  0  0  0  0  0  0  0  0  0  0  0
  148.7482  139.5710  155.8844 C   0  0  0  0  0  0  0  0  0  0  0  0
  148.9597  138.0638  156.0945 C   0  0  0  0  0  0  0  0  0  0  0  0
  150.4423  137.7356  156.3463 C   0  0  2  0  0  0  0  0  0  0  0  0
  150.6440  135.9181  156.6293 S   0  0  0  0  0  0  0  0  0  0  0  0
  149.7459  135.1822  155.2003 C   0  0  0  0  0  0  0  0  0  0  0  0
  152.0684  135.5768  156.4928 O   0  0  0  0  0  0  0  0  0  0  0  0
  149.9270  135.5601  157.8627 O   0  0  0  0  0  0  0  0  0  0  0  0
  150.9853  138.5492  157.5376 C   0  0  0  0  0  0  0  0  0  0  0  0
  152.4282  143.0290  159.9401 N   0  0  0  0  0  0  0  0  0  0  0  0
  152.1555  144.0569  160.8201 C   0  0  0  0  0  0  0  0  0  0  0  0
  151.8905  145.1734  160.0802 C   0  0  0  0  0  0  0  0  0  0  0  0
  152.0115  144.7241  158.7363 C   0  0  0  0  0  0  0  0  0  0  0  0
  152.3230  143.4414  158.6548 N   0  0  0  0  0  0  0  0  0  0  0  0
  154.3300  140.4156  161.1039 H   0  0  0  0  0  0  0  0  0  0  0  0
  154.3006  142.0661  161.7075 H   0  0  0  0  0  0  0  0  0  0  0  0
  154.9214  141.7303  160.0953 H   0  0  0  0  0  0  0  0  0  0  0  0
  152.0346  141.3324  161.0412 H   0  0  0  0  0  0  0  0  0  0  0  0
  150.5660  141.4319  158.9342 H   0  0  0  0  0  0  0  0  0  0  0  0
  151.3523  140.3865  156.4633 H   0  0  0  0  0  0  0  0  0  0  0  0
  148.7031  140.1560  157.9610 H   0  0  0  0  0  0  0  0  0  0  0  0
  149.1657  141.4467  156.8769 H   0  0  0  0  0  0  0  0  0  0  0  0
  147.6870  139.7810  155.7470 H   0  0  0  0  0  0  0  0  0  0  0  0
  149.2466  139.8858  154.9668 H   0  0  0  0  0  0  0  0  0  0  0  0
  148.3595  137.7256  156.9403 H   0  0  0  0  0  0  0  0  0  0  0  0
  148.5983  137.5188  155.2221 H   0  0  0  0  0  0  0  0  0  0  0  0
  151.0146  137.9825  155.4513 H   0  0  0  0  0  0  0  0  0  0  0  0
  149.7195  134.0986  155.3131 H   0  0  0  0  0  0  0  0  0  0  0  0
  150.2564  135.4284  154.2702 H   0  0  0  0  0  0  0  0  0  0  0  0
  148.7261  135.5656  155.1715 H   0  0  0  0  0  0  0  0  0  0  0  0
  152.0456  138.3414  157.6755 H   0  0  0  0  0  0  0  0  0  0  0  0
  150.4869  138.2337  158.4552 H   0  0  0  0  0  0  0  0  0  0  0  0
  152.1727  143.9100  161.8900 H   0  0  0  0  0  0  0  0  0  0  0  0
  151.6424  146.1595  160.4434 H   0  0  0  0  0  0  0  0  0  0  0  0
  151.8784  145.2863  157.8236 H   0  0  0  0  0  0  0  0  0  0  0  0
  1  2  1  0  0  0  0
  1 21  1  0  0  0  0
  1 22  1  0  0  0  0
  1 23  1  0  0  0  0
  2  3  1  0  0  0  0
  2 16  1  0  0  0  0
  2 24  1  0  0  0  0
  3  4  2  0  0  0  0
  3  5  1  0  0  0  0
  5  6  1  0  0  0  0
  5 25  1  0  0  0  0
  6 15  1  0  0  0  0
  6  7  1  0  0  0  0
  6 26  1  0  0  0  0
  7  8  1  0  0  0  0
  7 27  1  0  0  0  0
  7 28  1  0  0  0  0
  8  9  1  0  0  0  0
  8 29  1  0  0  0  0
  8 30  1  0  0  0  0
  9 10  1  0  0  0  0
  9 31  1  0  0  0  0
  9 32  1  0  0  0  0
 10 11  1  0  0  0  0
 10 15  1  0  0  0  0
 10 33  1  0  0  0  0
 11 12  1  0  0  0  0
 11 13  2  0  0  0  0
 11 14  2  0  0  0  0
 12 34  1  0  0  0  0
 12 35  1  0  0  0  0
 12 36  1  0  0  0  0
 15 37  1  0  0  0  0
 15 38  1  0  0  0  0
 16 20  1  0  0  0  0
 16 17  1  0  0  0  0
 17 18  2  0  0  0  0
 17 39  1  0  0  0  0
 18 19  1  0  0  0  0
 18 40  1  0  0  0  0
 19 20  2  0  0  0  0
 19 41  1  0  0  0  0
M  END
> <s_m_source_file>
AV-unprocessed.smi

> <i_m_source_file_index>
713

> <i_lp_mmshare_version>
43012

> <i_f3d_flags>
0

> <s_epik_input>
bjFbY0hdW2NIXVtjSF1uMVtDQEhdKFtDSDNdKUMoPU8pW05IXVtDQEBIXTJbQ0gyXVtDSDJdW0NIMl1bQ0BIXShbQ0gyXTIpUyg9TykoPU8pW0NIM10=

> <s_epik_cmdline>
J2VwaWtfcHl0aG9uJywgJy1waCcsICc3LjAnLCAnLXRuJywgJzgnLCAnLW1hJywgJzIwMCcsICctbWV0YWxfYmluZGluZycsICctaW1hZScsICc8aW5maWxlLm1hZT4nLCAnLW9tYWUnLCAnPG91dGZpbGUubWFlPic=

> <r_lp_tautomer_probability>
1

> <r_epik_Ionization_Penalty>
4.07816e-05

> <r_epik_Ionization_Penalty_Charging>
0

> <r_epik_Ionization_Penalty_Neutral>
4.07816e-05

> <r_epik_State_Penalty>
-0

> <r_epik_Charging_Adjusted_Penalty>
0

> <i_epik_Tot_Q>
0

> <i_epik_Tot_abs_Q>
0

> <r_epik_Metal_State_Penalty>
-0

> <b_epik_Metal_Only>
0

> <s_lp_Force_Field>
OPLS_2005

> <r_lp_Energy>
7.47495

> <b_lp_Chiralities_Consistent>
1

> <s_lp_Variant>
AV-unprocessed.smi:713-5

> <Gold.Version>
5.8.1

> <Gold.Id.Protein>
6NUR|6NUR_protein|mol2

> <Gold.PLP.Fitness>
43.8283

> <Gold.PLP.PLP>
-36.4729

> <Gold.PLP.part.hbond>
-3.0000

> <Gold.PLP.part.metal>
0.0000

> <Gold.PLP.part.buried>
-5.5694

> <Gold.PLP.part.nonpolar>
-27.8885

> <Gold.PLP.part.repulsive>
0.1551

> <Gold.PLP.ligand.clash>
0.0000

> <Gold.PLP.ligand.torsion>
0.6883

> <Gold.PLP.Chemscore.Hbond>
2.8320

> <Gold.PLP.Chemscore.CHOScore>
0.0000

> <Gold.PLP.Chemscore.Metal>
0.0000

> <Gold.Chemscore.Hbonds>
donor molecule, donor type, donor heavy atom, donor atom, acceptor molecule, acceptor atom, score
      P1  H  6896  6907       L1    14  0.66
      P1  H  7997  8009       L1     4  1.00
      P1  H 10752 10764       L1    13  1.00

> <Gold.PLP.Chemscore.Internal.Correction>
0.2361

> <Gold.Rescore>
     Score         DG    S(hbond)    S(metal)    S(lipo)     H(rot)  DE(clash)    DE(int)     intcor
     16.73     -19.55       2.79        0.00      78.45       1.72       0.05       2.77       ----

> <Gold.Chemscore.Fitness>
16.7277

> <Gold.Chemscore.DG>
-19.5472

> <Gold.Chemscore.ZeroCoef>
-5.4800

> <Gold.Chemscore.Hbond>
2.7856

> <Gold.Chemscore.Metal>
0.0000

> <Gold.Chemscore.Lipo>
78.4542

> <Gold.Chemscore.Internal_Hbond>
0.0000

> <Gold.Chemscore.DEClash>
0.0496

> <Gold.Chemscore.DEInternal>
2.7699

> <Gold.Chemscore.Rot>
1.7249

> <Gold.Chemscore.Internal.Correction>
   9.000000E+99

> <Gold.Chemscore.Hbonds>
donor molecule, donor type, donor heavy atom, donor atom, acceptor molecule, acceptor atom, score
      P1  H  6896  6907       L1    14  0.65
      P1  H  7997  8009       L1     4  0.95
      P1  H 10752 10764       L1    13  1.00

> <Gold.Chemscore.Hbond.Weighted>
-9.3038

> <Gold.Chemscore.Metal.Weighted>
-0.0000

> <Gold.Chemscore.Lipo.Weighted>
-9.1791

> <Gold.Chemscore.Internal_Hbond.Weighted>
0.0000

> <Gold.Chemscore.DEClash.Weighted>
0.0496

> <Gold.Chemscore.DEInternal.Weighted>
2.7699

> <Gold.Chemscore.Rot.Weighted>
4.4157

> <Gold.Chemscore.Internal.Correction.Weighted>
   9.000000E+99

> <Gold.Protein.RotatedTorsions>
[ 6907 6896 6895 6894 ] final  -57.25 input  -60.11 | X-H torsion
[ 7974 7965 7964 7962 ] final   10.70 input  175.53 | X-H torsion
[ 8008 7997 7996 7995 ] final  152.02 input   59.86 | X-H torsion
[ 10167 10162 10161 10158 ] final   79.52 input  -65.29 | X-H torsion
[ 10718 10713 10712 10709 ] final -136.59 input   66.30 | X-H torsion
[ 10763 10752 10751 10750 ] final  -18.38 input  -60.55 | X-H torsion
[ 11005 11000 10999 10996 ] final  -27.30 input  -57.11 | X-H torsion

> <Gold.Protein.ActiveResidues>
 VAL166  LYS551  ARG553  GLY616  TRP617  ASP618  TYR619  PRO620  LYS621  CYS622 
 ASP623  PHE694  ASN695  SER759  ASP760  ASP761  ALA762  ILE779  LEU786  VAL792 
 PHE793  MET794  SER795  GLU796  ALA797  LYS798  CYS799  TRP800  GLU811  SER814 

> <Gold.Protein.RotatedAtoms>
  150.8101  134.7251  159.6679 H   0  0  0  0  0  0  0  0  0  0  0  0  # atno 6907 bound_to 6896
  152.4221  134.5933  159.9990 H   0  0  0  0  0  0  0  0  0  0  0  0  # atno 6908 bound_to 6896
  151.6145  133.3307  159.3110 H   0  0  0  0  0  0  0  0  0  0  0  0  # atno 6909 bound_to 6896
  146.2384  139.9595  142.8460 H   0  0  0  0  0  0  0  0  0  0  0  0  # atno 7974 bound_to 7965
  156.2648  140.2032  156.6268 H   0  0  0  0  0  0  0  0  0  0  0  0  # atno 8008 bound_to 7997
  154.6714  140.0550  157.0193 H   0  0  0  0  0  0  0  0  0  0  0  0  # atno 8009 bound_to 7997
  155.1132  140.3217  155.4519 H   0  0  0  0  0  0  0  0  0  0  0  0  # atno 8010 bound_to 7997
  139.9594  144.5971  150.8086 H   0  0  0  0  0  0  0  0  0  0  0  0  # atno 10167 bound_to 10162
  156.2788  130.7308  151.1299 H   0  0  0  0  0  0  0  0  0  0  0  0  # atno 10718 bound_to 10713
  153.5883  135.7003  153.5434 H   0  0  0  0  0  0  0  0  0  0  0  0  # atno 10763 bound_to 10752
  153.3200  135.4076  155.1408 H   0  0  0  0  0  0  0  0  0  0  0  0  # atno 10764 bound_to 10752
  154.8605  135.3693  154.5414 H   0  0  0  0  0  0  0  0  0  0  0  0  # atno 10765 bound_to 10752
  140.9107  133.7463  156.0666 H   0  0  0  0  0  0  0  0  0  0  0  0  # atno 11005 bound_to 11000
  145.1785  140.9755  143.4280 LP  0  0  0  0  0  0  0  0  0  0  0  0  # atno 17320 bound_to 7965
  144.9964  139.3640  143.6189 LP  0  0  0  0  0  0  0  0  0  0  0  0  # atno 17321 bound_to 7965
  140.7558  143.3053  151.2978 LP  0  0  0  0  0  0  0  0  0  0  0  0  # atno 17342 bound_to 10162
  139.6566  144.0265  152.2663 LP  0  0  0  0  0  0  0  0  0  0  0  0  # atno 17343 bound_to 10162
  157.7308  131.0613  150.5710 LP  0  0  0  0  0  0  0  0  0  0  0  0  # atno 17370 bound_to 10713
  156.5814  130.4305  149.5976 LP  0  0  0  0  0  0  0  0  0  0  0  0  # atno 17371 bound_to 10713
  140.8114  134.3395  157.5410 LP  0  0  0  0  0  0  0  0  0  0  0  0  # atno 17394 bound_to 11000
  139.8757  134.9256  156.3379 LP  0  0  0  0  0  0  0  0  0  0  0  0  # atno 17395 bound_to 11000

$$$$
