AV-unprocessed.smi:3243|AV-procd|sdf|12394|dock1
  -GOLD-   2272018263D 1   1.00000     0.00000
 Structure written by MMmdl.
 37 38  0  0  0  0  0  0  0  0  1 V2000
  153.6790  140.8249  160.6624 C   0  0  0  0  0  0  0  0  0  0  0  0
  153.3042  142.3111  160.7506 C   0  0  0  0  0  0  0  0  0  0  0  0
  152.8749  142.7423  162.1603 C   0  0  0  0  0  0  0  0  0  0  0  0
  152.2992  142.7012  159.7127 C   0  0  0  0  0  0  0  0  0  0  0  0
  151.6110  141.8218  158.9779 N   0  0  0  0  0  0  0  0  0  0  0  0
  150.7320  142.4365  158.0814 C   0  0  0  0  0  0  0  0  0  0  0  0
  149.8697  141.6005  157.1856 C   0  0  0  0  0  0  0  0  0  0  0  0
  150.2060  140.1037  157.2923 C   0  0  0  0  0  0  0  0  0  0  0  0
  149.4458  139.3090  156.3342 N   0  0  0  0  0  0  0  0  0  0  0  0
  149.8530  139.0016  155.0931 C   0  0  0  0  0  0  0  0  0  0  0  0
  150.9380  139.3628  154.6343 O   0  0  0  0  0  0  0  0  0  0  0  0
  148.8726  138.1827  154.3184 C   0  0  2  0  0  0  0  0  0  0  0  0
  147.5228  138.8028  154.0194 C   0  0  0  0  0  0  0  0  0  0  0  0
  147.6300  137.6978  155.0419 C   0  0  1  0  0  0  0  0  0  0  0  0
  147.0687  136.3209  154.7599 C   0  0  0  0  0  0  0  0  0  0  0  0
  150.7656  143.8071  158.1450 C   0  0  0  0  0  0  0  0  0  0  0  0
  151.9029  144.3746  159.3362 S   0  0  0  0  0  0  0  0  0  0  0  0
  154.0591  140.5746  159.6715 H   0  0  0  0  0  0  0  0  0  0  0  0
  152.8176  140.1861  160.8605 H   0  0  0  0  0  0  0  0  0  0  0  0
  154.4537  140.5718  161.3866 H   0  0  0  0  0  0  0  0  0  0  0  0
  154.2125  142.8703  160.5227 H   0  0  0  0  0  0  0  0  0  0  0  0
  152.6978  143.8173  162.2046 H   0  0  0  0  0  0  0  0  0  0  0  0
  153.6437  142.5037  162.8956 H   0  0  0  0  0  0  0  0  0  0  0  0
  151.9563  142.2403  162.4660 H   0  0  0  0  0  0  0  0  0  0  0  0
  148.8197  141.7604  157.4340 H   0  0  0  0  0  0  0  0  0  0  0  0
  149.9839  141.9266  156.1510 H   0  0  0  0  0  0  0  0  0  0  0  0
  151.2667  139.9457  157.0946 H   0  0  0  0  0  0  0  0  0  0  0  0
  150.0224  139.7424  158.3057 H   0  0  0  0  0  0  0  0  0  0  0  0
  148.5420  138.9736  156.6345 H   0  0  0  0  0  0  0  0  0  0  0  0
  149.2863  137.5262  153.5541 H   0  0  0  0  0  0  0  0  0  0  0  0
  147.3174  139.8061  154.3881 H   0  0  0  0  0  0  0  0  0  0  0  0
  147.0781  138.5703  153.0540 H   0  0  0  0  0  0  0  0  0  0  0  0
  147.5127  138.0020  156.0807 H   0  0  0  0  0  0  0  0  0  0  0  0
  147.1936  136.0587  153.7090 H   0  0  0  0  0  0  0  0  0  0  0  0
  146.0060  136.2938  155.0007 H   0  0  0  0  0  0  0  0  0  0  0  0
  147.5828  135.5764  155.3675 H   0  0  0  0  0  0  0  0  0  0  0  0
  150.1895  144.5147  157.5672 H   0  0  0  0  0  0  0  0  0  0  0  0
  1  2  1  0  0  0  0
  1 18  1  0  0  0  0
  1 19  1  0  0  0  0
  1 20  1  0  0  0  0
  2  3  1  0  0  0  0
  2  4  1  0  0  0  0
  2 21  1  0  0  0  0
  3 22  1  0  0  0  0
  3 23  1  0  0  0  0
  3 24  1  0  0  0  0
  4 17  1  0  0  0  0
  4  5  2  0  0  0  0
  5  6  1  0  0  0  0
  6  7  1  0  0  0  0
  6 16  2  0  0  0  0
  7  8  1  0  0  0  0
  7 25  1  0  0  0  0
  7 26  1  0  0  0  0
  8  9  1  0  0  0  0
  8 27  1  0  0  0  0
  8 28  1  0  0  0  0
  9 10  1  0  0  0  0
  9 29  1  0  0  0  0
 10 11  2  0  0  0  0
 10 12  1  0  0  0  0
 12 14  1  0  0  0  0
 12 13  1  0  0  0  0
 12 30  1  0  0  0  0
 13 14  1  0  0  0  0
 13 31  1  0  0  0  0
 13 32  1  0  0  0  0
 14 15  1  0  0  0  0
 14 33  1  0  0  0  0
 15 34  1  0  0  0  0
 15 35  1  0  0  0  0
 15 36  1  0  0  0  0
 16 17  1  0  0  0  0
 16 37  1  0  0  0  0
M  END
> <s_m_source_file>
AV-unprocessed.smi

> <i_m_source_file_index>
3243

> <i_lp_mmshare_version>
43012

> <i_f3d_flags>
0

> <s_epik_input>
W0NIM11bQ0hdKFtDSDNdKWMxbmMoW2NIXXMxKVtDSDJdW0NIMl1bTkhdQyg9TylbQ0BASF0yW0NIMl1bQ0BIXTJbQ0gzXQ==

> <s_epik_cmdline>
J2VwaWtfcHl0aG9uJywgJy1waCcsICc3LjAnLCAnLXRuJywgJzgnLCAnLW1hJywgJzIwMCcsICctbWV0YWxfYmluZGluZycsICctaW1hZScsICc8aW5maWxlLm1hZT4nLCAnLW9tYWUnLCAnPG91dGZpbGUubWFlPic=

> <r_epik_Ionization_Penalty>
0.00084212

> <r_epik_Ionization_Penalty_Charging>
0

> <r_epik_Ionization_Penalty_Neutral>
0.00084212

> <r_epik_State_Penalty>
0.000542609

> <r_epik_Charging_Adjusted_Penalty>
0.000542609

> <i_epik_Tot_Q>
0

> <i_epik_Tot_abs_Q>
0

> <r_epik_Metal_State_Penalty>
-0

> <b_epik_Metal_Only>
0

> <s_lp_Force_Field>
OPLS_2005

> <r_lp_Energy>
-2.76955

> <b_lp_Chiralities_Consistent>
1

> <s_lp_Variant>
AV-unprocessed.smi:3243-1

> <Gold.Version>
5.8.1

> <Gold.Id.Protein>
6NUR|6NUR_protein|mol2

> <Gold.PLP.Fitness>
41.8787

> <Gold.PLP.PLP>
-36.5602

> <Gold.PLP.part.hbond>
-1.0000

> <Gold.PLP.part.metal>
0.0000

> <Gold.PLP.part.buried>
-4.4649

> <Gold.PLP.part.nonpolar>
-32.0416

> <Gold.PLP.part.repulsive>
0.1338

> <Gold.PLP.ligand.clash>
0.0000

> <Gold.PLP.ligand.torsion>
0.4247

> <Gold.PLP.Chemscore.Hbond>
1.0000

> <Gold.PLP.Chemscore.CHOScore>
0.9969

> <Gold.PLP.Chemscore.Metal>
0.0000

> <Gold.Chemscore.Hbonds>
donor molecule, donor type, donor heavy atom, donor atom, acceptor molecule, acceptor atom, score
      P1  H  7989  7998       L1    11  1.00
      L1  C    16    37       P1  8028  1.00
      L1  C    16    37       P1  8029  0.05

> <Gold.PLP.Chemscore.Internal.Correction>
0.1771

> <Gold.Rescore>
     Score         DG    S(hbond)    S(metal)    S(lipo)     H(rot)  DE(clash)    DE(int)     intcor
     16.85     -17.18       1.00        0.00     104.07       1.49       0.03       0.30       ----

> <Gold.Chemscore.Fitness>
16.8488

> <Gold.Chemscore.DG>
-17.1798

> <Gold.Chemscore.ZeroCoef>
-5.4800

> <Gold.Chemscore.Hbond>
0.9970

> <Gold.Chemscore.Metal>
0.0000

> <Gold.Chemscore.Lipo>
104.0731

> <Gold.Chemscore.Internal_Hbond>
0.0000

> <Gold.Chemscore.DEClash>
0.0342

> <Gold.Chemscore.DEInternal>
0.2967

> <Gold.Chemscore.Rot>
1.4870

> <Gold.Chemscore.Internal.Correction>
   9.000000E+99

> <Gold.Chemscore.Hbonds>
donor molecule, donor type, donor heavy atom, donor atom, acceptor molecule, acceptor atom, score
      P1  H  7989  7998       L1    11  0.95

> <Gold.Chemscore.Hbond.Weighted>
-3.3299

> <Gold.Chemscore.Metal.Weighted>
-0.0000

> <Gold.Chemscore.Lipo.Weighted>
-12.1766

> <Gold.Chemscore.Internal_Hbond.Weighted>
0.0000

> <Gold.Chemscore.DEClash.Weighted>
0.0342

> <Gold.Chemscore.DEInternal.Weighted>
0.2967

> <Gold.Chemscore.Rot.Weighted>
3.8067

> <Gold.Chemscore.Internal.Correction.Weighted>
   9.000000E+99

> <Gold.Protein.RotatedTorsions>
[ 6907 6896 6895 6894 ] final   86.38 input  -60.11 | X-H torsion
[ 7974 7965 7964 7962 ] final   69.41 input  175.53 | X-H torsion
[ 8008 7997 7996 7995 ] final  108.98 input   59.86 | X-H torsion
[ 10167 10162 10161 10158 ] final   24.85 input  -65.29 | X-H torsion
[ 10718 10713 10712 10709 ] final   12.92 input   66.30 | X-H torsion
[ 10763 10752 10751 10750 ] final  147.86 input  -60.55 | X-H torsion
[ 11005 11000 10999 10996 ] final   -9.15 input  -57.11 | X-H torsion

> <Gold.Protein.ActiveResidues>
 VAL166  LYS551  ARG553  GLY616  TRP617  ASP618  TYR619  PRO620  LYS621  CYS622 
 ASP623  PHE694  ASN695  SER759  ASP760  ASP761  ALA762  ILE779  LEU786  VAL792 
 PHE793  MET794  SER795  GLU796  ALA797  LYS798  CYS799  TRP800  GLU811  SER814 

> <Gold.Protein.RotatedAtoms>
  152.5393  134.2441  159.8872 H   0  0  0  0  0  0  0  0  0  0  0  0  # atno 6907 bound_to 6896
  151.2407  133.4394  159.2615 H   0  0  0  0  0  0  0  0  0  0  0  0  # atno 6908 bound_to 6896
  151.0630  134.9762  159.8326 H   0  0  0  0  0  0  0  0  0  0  0  0  # atno 6909 bound_to 6896
  145.7908  139.2933  143.1211 H   0  0  0  0  0  0  0  0  0  0  0  0  # atno 7974 bound_to 7965
  156.1944  140.3066  155.9398 H   0  0  0  0  0  0  0  0  0  0  0  0  # atno 8008 bound_to 7997
  155.3099  140.0450  157.3051 H   0  0  0  0  0  0  0  0  0  0  0  0  # atno 8009 bound_to 7997
  154.5492  140.2286  155.8522 H   0  0  0  0  0  0  0  0  0  0  0  0  # atno 8010 bound_to 7997
  140.5154  144.0091  150.6392 H   0  0  0  0  0  0  0  0  0  0  0  0  # atno 10167 bound_to 10162
  157.0171  130.6140  149.5716 H   0  0  0  0  0  0  0  0  0  0  0  0  # atno 10718 bound_to 10713
  154.0452  135.2886  155.3349 H   0  0  0  0  0  0  0  0  0  0  0  0  # atno 10763 bound_to 10752
  154.6904  135.5229  153.8387 H   0  0  0  0  0  0  0  0  0  0  0  0  # atno 10764 bound_to 10752
  153.0583  135.6604  154.0653 H   0  0  0  0  0  0  0  0  0  0  0  0  # atno 10765 bound_to 10752
  140.7311  133.8748  155.8893 H   0  0  0  0  0  0  0  0  0  0  0  0  # atno 11005 bound_to 11000
  145.9979  140.8546  143.0033 LP  0  0  0  0  0  0  0  0  0  0  0  0  # atno 17320 bound_to 7965
  144.6782  140.2309  143.7355 LP  0  0  0  0  0  0  0  0  0  0  0  0  # atno 17321 bound_to 7965
  140.3425  143.3011  152.0573 LP  0  0  0  0  0  0  0  0  0  0  0  0  # atno 17342 bound_to 10162
  139.4908  144.6432  151.6833 LP  0  0  0  0  0  0  0  0  0  0  0  0  # atno 17343 bound_to 10162
  156.0115  130.5207  150.8004 LP  0  0  0  0  0  0  0  0  0  0  0  0  # atno 17370 bound_to 10713
  157.5277  131.0935  150.9996 LP  0  0  0  0  0  0  0  0  0  0  0  0  # atno 17371 bound_to 10713
  140.9920  134.1266  157.4399 LP  0  0  0  0  0  0  0  0  0  0  0  0  # atno 17394 bound_to 11000
  139.8826  135.0043  156.6242 LP  0  0  0  0  0  0  0  0  0  0  0  0  # atno 17395 bound_to 11000

$$$$
