AV-unprocessed.smi:1316|AV-procd|sdf|5455|dock2
  -GOLD-   22720 5 23D 1   1.00000     0.00000
 Structure written by MMmdl.
 21 21  0  0  0  0  0  0  0  0  1 V2000
  147.8561  127.5735  150.2953 C   0  0  0  0  0  0  0  0  0  0  0  0
  147.6516  128.9048  150.8456 N   0  0  0  0  0  0  0  0  0  0  0  0
  146.5903  129.2610  151.5830 C   0  0  0  0  0  0  0  0  0  0  0  0
  145.6780  128.4819  151.8639 O   0  0  0  0  0  0  0  0  0  0  0  0
  146.5698  130.7189  152.0611 C   0  0  0  0  0  0  0  0  0  0  0  0
  145.6277  131.5452  151.3233 N   0  0  0  0  0  0  0  0  0  0  0  0
  144.3310  131.2478  150.9572 C   0  0  0  0  0  0  0  0  0  0  0  0
  143.8402  132.3310  150.2861 C   0  0  0  0  0  0  0  0  0  0  0  0
  142.5516  132.4669  149.7362 N   0  0  0  0  0  0  0  0  0  0  0  0
  144.9255  133.2518  150.2885 C   0  0  0  0  0  0  0  0  0  0  0  0
  145.9944  132.7780  150.9087 N   0  0  0  0  0  0  0  0  0  0  0  0
  148.7745  127.5499  149.7092 H   0  0  0  0  0  0  0  0  0  0  0  0
  147.0285  127.2903  149.6435 H   0  0  0  0  0  0  0  0  0  0  0  0
  147.9410  126.8336  151.0924 H   0  0  0  0  0  0  0  0  0  0  0  0
  148.3606  129.5982  150.6549 H   0  0  0  0  0  0  0  0  0  0  0  0
  146.3219  130.7522  153.1235 H   0  0  0  0  0  0  0  0  0  0  0  0
  147.5659  131.1484  151.9498 H   0  0  0  0  0  0  0  0  0  0  0  0
  143.8716  130.3029  151.2075 H   0  0  0  0  0  0  0  0  0  0  0  0
  141.8632  131.7308  149.8044 H   0  0  0  0  0  0  0  0  0  0  0  0
  142.2863  133.2752  149.1918 H   0  0  0  0  0  0  0  0  0  0  0  0
  144.9685  134.2433  149.8622 H   0  0  0  0  0  0  0  0  0  0  0  0
  1  2  1  0  0  0  0
  1 12  1  0  0  0  0
  1 13  1  0  0  0  0
  1 14  1  0  0  0  0
  2  3  1  0  0  0  0
  2 15  1  0  0  0  0
  3  4  2  0  0  0  0
  3  5  1  0  0  0  0
  5  6  1  0  0  0  0
  5 16  1  0  0  0  0
  5 17  1  0  0  0  0
  6 11  1  0  0  0  0
  6  7  1  0  0  0  0
  7  8  2  0  0  0  0
  7 18  1  0  0  0  0
  8  9  1  0  0  0  0
  8 10  1  0  0  0  0
  9 19  1  0  0  0  0
  9 20  1  0  0  0  0
 10 11  2  0  0  0  0
 10 21  1  0  0  0  0
M  END
> <s_m_source_file>
AV-unprocessed.smi

> <i_m_source_file_index>
1316

> <i_lp_mmshare_version>
43012

> <i_f3d_flags>
0

> <s_epik_input>
W0NIM11bTkhdQyg9TylbQ0gyXW4xW2NIXWMoW05IMl0pW2NIXW4x

> <s_epik_cmdline>
J2VwaWtfcHl0aG9uJywgJy1waCcsICc3LjAnLCAnLXRuJywgJzgnLCAnLW1hJywgJzIwMCcsICctbWV0YWxfYmluZGluZycsICctaW1hZScsICc8aW5maWxlLm1hZT4nLCAnLW9tYWUnLCAnPG91dGZpbGUubWFlPic=

> <r_epik_Ionization_Penalty>
0.000718132

> <r_epik_Ionization_Penalty_Charging>
0

> <r_epik_Ionization_Penalty_Neutral>
0.000718132

> <r_epik_State_Penalty>
0.00299677

> <r_epik_Charging_Adjusted_Penalty>
0.00299677

> <i_epik_Tot_Q>
0

> <i_epik_Tot_abs_Q>
0

> <r_epik_Metal_State_Penalty>
-0

> <b_epik_Metal_Only>
0

> <s_lp_Force_Field>
OPLS_2005

> <r_lp_Energy>
5.45355

> <b_lp_Chiralities_Consistent>
1

> <s_lp_Variant>
AV-unprocessed.smi:1316-1

> <Gold.Version>
5.8.1

> <Gold.Id.Protein>
6NUR|6NUR_protein|mol2

> <Gold.PLP.Fitness>
34.6746

> <Gold.PLP.PLP>
-25.4399

> <Gold.PLP.part.hbond>
-3.0000

> <Gold.PLP.part.metal>
0.0000

> <Gold.PLP.part.buried>
-4.7256

> <Gold.PLP.part.nonpolar>
-17.7925

> <Gold.PLP.part.repulsive>
0.4921

> <Gold.PLP.ligand.clash>
0.0000

> <Gold.PLP.ligand.torsion>
0.3868

> <Gold.PLP.Chemscore.Hbond>
2.3360

> <Gold.PLP.Chemscore.CHOScore>
1.0000

> <Gold.PLP.Chemscore.Metal>
0.0000

> <Gold.Chemscore.Hbonds>
donor molecule, donor type, donor heavy atom, donor atom, acceptor molecule, acceptor atom, score
      L1  H     2    15       P1 10747  0.63
      L1  H     9    19       P1 10952  1.00
      L1  H     9    20       P1 10186  0.54
      L1  C    10    21       P1  7921  0.78

> <Gold.PLP.Chemscore.Internal.Correction>
0.0003

> <Gold.Rescore>
     Score         DG    S(hbond)    S(metal)    S(lipo)     H(rot)  DE(clash)    DE(int)     intcor
     14.57     -15.41       2.47        0.00      45.76       1.44       0.14       0.69       ----

> <Gold.Chemscore.Fitness>
14.5745

> <Gold.Chemscore.DG>
-15.4075

> <Gold.Chemscore.ZeroCoef>
-5.4800

> <Gold.Chemscore.Hbond>
2.4708

> <Gold.Chemscore.Metal>
0.0000

> <Gold.Chemscore.Lipo>
45.7592

> <Gold.Chemscore.Internal_Hbond>
0.0000

> <Gold.Chemscore.DEClash>
0.1449

> <Gold.Chemscore.DEInternal>
0.6881

> <Gold.Chemscore.Rot>
1.4371

> <Gold.Chemscore.Internal.Correction>
   9.000000E+99

> <Gold.Chemscore.Hbonds>
donor molecule, donor type, donor heavy atom, donor atom, acceptor molecule, acceptor atom, score
      L1  H     2    15       P1 10747  0.14
      L1  H     9    19       P1 10952  0.97
      L1  H     9    20       P1 10186  0.56

> <Gold.Chemscore.Hbond.Weighted>
-8.2525

> <Gold.Chemscore.Metal.Weighted>
-0.0000

> <Gold.Chemscore.Lipo.Weighted>
-5.3538

> <Gold.Chemscore.Internal_Hbond.Weighted>
0.0000

> <Gold.Chemscore.DEClash.Weighted>
0.1449

> <Gold.Chemscore.DEInternal.Weighted>
0.6881

> <Gold.Chemscore.Rot.Weighted>
3.6789

> <Gold.Chemscore.Internal.Correction.Weighted>
   9.000000E+99

> <Gold.Protein.RotatedTorsions>
[ 6907 6896 6895 6894 ] final   25.85 input  -60.11 | X-H torsion
[ 7974 7965 7964 7962 ] final -168.00 input  175.53 | X-H torsion
[ 8008 7997 7996 7995 ] final  174.81 input   59.86 | X-H torsion
[ 10167 10162 10161 10158 ] final   61.68 input  -65.29 | X-H torsion
[ 10718 10713 10712 10709 ] final  129.82 input   66.30 | X-H torsion
[ 10763 10752 10751 10750 ] final   80.57 input  -60.55 | X-H torsion
[ 11005 11000 10999 10996 ] final  -96.57 input  -57.11 | X-H torsion

> <Gold.Protein.ActiveResidues>
 VAL166  LYS551  ARG553  GLY616  TRP617  ASP618  TYR619  PRO620  LYS621  CYS622 
 ASP623  PHE694  ASN695  SER759  ASP760  ASP761  ALA762  ILE779  LEU786  VAL792 
 PHE793  MET794  SER795  GLU796  ALA797  LYS798  CYS799  TRP800  GLU811  SER814 

> <Gold.Protein.RotatedAtoms>
  151.9787  135.0040  160.0556 H   0  0  0  0  0  0  0  0  0  0  0  0  # atno 6907 bound_to 6896
  152.1716  133.4643  159.4920 H   0  0  0  0  0  0  0  0  0  0  0  0  # atno 6908 bound_to 6896
  150.6902  134.1863  159.4311 H   0  0  0  0  0  0  0  0  0  0  0  0  # atno 6909 bound_to 6896
  144.7211  140.2435  143.6288 H   0  0  0  0  0  0  0  0  0  0  0  0  # atno 7974 bound_to 7965
  156.0935  140.1425  156.9561 H   0  0  0  0  0  0  0  0  0  0  0  0  # atno 8008 bound_to 7997
  154.4657  140.0927  156.7060 H   0  0  0  0  0  0  0  0  0  0  0  0  # atno 8009 bound_to 7997
  155.4879  140.3447  155.4352 H   0  0  0  0  0  0  0  0  0  0  0  0  # atno 8010 bound_to 7997
  140.1521  144.4452  150.6754 H   0  0  0  0  0  0  0  0  0  0  0  0  # atno 10167 bound_to 10162
  157.5119  131.1097  150.9280 H   0  0  0  0  0  0  0  0  0  0  0  0  # atno 10718 bound_to 10713
  153.1044  135.4798  154.8925 H   0  0  0  0  0  0  0  0  0  0  0  0  # atno 10763 bound_to 10752
  154.7414  135.3083  154.8724 H   0  0  0  0  0  0  0  0  0  0  0  0  # atno 10764 bound_to 10752
  153.9331  135.6842  153.4798 H   0  0  0  0  0  0  0  0  0  0  0  0  # atno 10765 bound_to 10752
  141.1407  133.8108  157.0590 H   0  0  0  0  0  0  0  0  0  0  0  0  # atno 11005 bound_to 11000
  145.8297  139.2080  143.1890 LP  0  0  0  0  0  0  0  0  0  0  0  0  # atno 17320 bound_to 7965
  146.0442  140.8135  142.9814 LP  0  0  0  0  0  0  0  0  0  0  0  0  # atno 17321 bound_to 7965
  140.6696  143.2280  151.5658 LP  0  0  0  0  0  0  0  0  0  0  0  0  # atno 17342 bound_to 10162
  139.5421  144.2620  152.1371 LP  0  0  0  0  0  0  0  0  0  0  0  0  # atno 17343 bound_to 10162
  156.9918  130.5566  149.5304 LP  0  0  0  0  0  0  0  0  0  0  0  0  # atno 17370 bound_to 10713
  156.0295  130.5387  150.8495 LP  0  0  0  0  0  0  0  0  0  0  0  0  # atno 17371 bound_to 10713
  140.0584  134.9768  157.1261 LP  0  0  0  0  0  0  0  0  0  0  0  0  # atno 17394 bound_to 11000
  140.3885  134.2210  155.7167 LP  0  0  0  0  0  0  0  0  0  0  0  0  # atno 17395 bound_to 11000

$$$$
