AV-unprocessed.smi:2063|AV-procd|sdf|8409|dock1
  -GOLD-   2272011 93D 1   1.00000     0.00000
 Structure written by MMmdl.
 39 40  0  0  0  0  0  0  0  0  1 V2000
  142.5813  142.6070  160.7689 C   0  0  0  0  0  0  0  0  0  0  0  0
  143.3073  143.8499  161.3037 C   0  0  0  0  0  0  0  0  0  0  0  0
  142.6124  145.1564  160.8944 C   0  0  0  0  0  0  0  0  0  0  0  0
  144.7592  143.8515  160.9356 C   0  0  0  0  0  0  0  0  0  0  0  0
  145.7302  143.6464  161.8349 N   0  0  0  0  0  0  0  0  0  0  0  0
  146.9959  143.6971  161.2683 N   0  0  0  0  0  0  0  0  0  0  0  0
  146.9452  143.9403  159.9516 C   0  0  0  0  0  0  0  0  0  0  0  0
  148.0936  144.0428  159.1227 N   0  0  0  0  0  0  0  0  0  0  0  0
  149.3876  143.9413  159.4737 C   0  0  0  0  0  0  0  0  0  0  0  0
  149.8013  143.7459  160.6168 O   0  0  0  0  0  0  0  0  0  0  0  0
  150.1892  144.0847  158.4080 N   0  0  0  0  0  0  0  0  0  0  0  0
  151.6500  144.0466  158.4286 C   0  0  1  0  0  0  0  0  0  0  0  0
  152.1673  145.4243  158.8706 C   0  0  0  0  0  0  0  0  0  0  0  0
  152.1305  142.9147  159.3601 C   0  0  2  0  0  0  0  0  0  0  0  0
  152.5254  143.3660  160.7663 C   0  0  0  0  0  0  0  0  0  0  0  0
  153.4730  142.2743  161.2351 C   0  0  0  0  0  0  0  0  0  0  0  0
  153.9004  141.5731  159.9425 C   0  0  0  0  0  0  0  0  0  0  0  0
  153.3461  142.3514  158.8907 O   0  0  0  0  0  0  0  0  0  0  0  0
  145.3303  144.1264  159.2907 S   0  0  0  0  0  0  0  0  0  0  0  0
  143.0530  141.6924  161.1295 H   0  0  0  0  0  0  0  0  0  0  0  0
  142.5883  142.5785  159.6790 H   0  0  0  0  0  0  0  0  0  0  0  0
  141.5408  142.5908  161.0936 H   0  0  0  0  0  0  0  0  0  0  0  0
  143.2552  143.7971  162.3924 H   0  0  0  0  0  0  0  0  0  0  0  0
  143.1068  146.0196  161.3411 H   0  0  0  0  0  0  0  0  0  0  0  0
  141.5723  145.1667  161.2217 H   0  0  0  0  0  0  0  0  0  0  0  0
  142.6203  145.2908  159.8124 H   0  0  0  0  0  0  0  0  0  0  0  0
  147.9076  144.2143  158.1457 H   0  0  0  0  0  0  0  0  0  0  0  0
  149.7567  144.2452  157.5104 H   0  0  0  0  0  0  0  0  0  0  0  0
  152.0293  143.8590  157.4225 H   0  0  0  0  0  0  0  0  0  0  0  0
  153.2562  145.4677  158.8444 H   0  0  0  0  0  0  0  0  0  0  0  0
  151.8490  145.6613  159.8863 H   0  0  0  0  0  0  0  0  0  0  0  0
  151.7967  146.2112  158.2128 H   0  0  0  0  0  0  0  0  0  0  0  0
  151.3780  142.1257  159.4220 H   0  0  0  0  0  0  0  0  0  0  0  0
  153.0586  144.3166  160.7205 H   0  0  0  0  0  0  0  0  0  0  0  0
  151.6677  143.4915  161.4274 H   0  0  0  0  0  0  0  0  0  0  0  0
  154.3232  142.6944  161.7733 H   0  0  0  0  0  0  0  0  0  0  0  0
  152.9683  141.5718  161.8991 H   0  0  0  0  0  0  0  0  0  0  0  0
  154.9838  141.5028  159.8438 H   0  0  0  0  0  0  0  0  0  0  0  0
  153.4882  140.5641  159.8996 H   0  0  0  0  0  0  0  0  0  0  0  0
  1  2  1  0  0  0  0
  1 20  1  0  0  0  0
  1 21  1  0  0  0  0
  1 22  1  0  0  0  0
  2  3  1  0  0  0  0
  2  4  1  0  0  0  0
  2 23  1  0  0  0  0
  3 24  1  0  0  0  0
  3 25  1  0  0  0  0
  3 26  1  0  0  0  0
  4 19  1  0  0  0  0
  4  5  2  0  0  0  0
  5  6  1  0  0  0  0
  6  7  2  0  0  0  0
  7  8  1  0  0  0  0
  7 19  1  0  0  0  0
  8  9  1  0  0  0  0
  8 27  1  0  0  0  0
  9 10  2  0  0  0  0
  9 11  1  0  0  0  0
 11 12  1  0  0  0  0
 11 28  1  0  0  0  0
 12 13  1  0  0  0  0
 12 14  1  0  0  0  0
 12 29  1  0  0  0  0
 13 30  1  0  0  0  0
 13 31  1  0  0  0  0
 13 32  1  0  0  0  0
 14 18  1  0  0  0  0
 14 15  1  0  0  0  0
 14 33  1  0  0  0  0
 15 16  1  0  0  0  0
 15 34  1  0  0  0  0
 15 35  1  0  0  0  0
 16 17  1  0  0  0  0
 16 36  1  0  0  0  0
 16 37  1  0  0  0  0
 17 18  1  0  0  0  0
 17 38  1  0  0  0  0
 17 39  1  0  0  0  0
M  END
> <s_m_source_file>
AV-unprocessed.smi

> <i_m_source_file_index>
2063

> <i_lp_mmshare_version>
43012

> <i_f3d_flags>
0

> <s_epik_input>
W0NIM11bQ0hdKFtDSDNdKWMxbm5jKHMxKVtOSF1DKD1PKVtOSF1bQ0BIXShbQ0gzXSlbQ0BASF0yW0NIMl1bQ0gyXVtDSDJdTzI=

> <s_epik_cmdline>
J2VwaWtfcHl0aG9uJywgJy1waCcsICc3LjAnLCAnLXRuJywgJzgnLCAnLW1hJywgJzIwMCcsICctbWV0YWxfYmluZGluZycsICctaW1hZScsICc8aW5maWxlLm1hZT4nLCAnLW9tYWUnLCAnPG91dGZpbGUubWFlPic=

> <r_lp_tautomer_probability>
1

> <r_epik_Ionization_Penalty>
0.00050567

> <r_epik_Ionization_Penalty_Charging>
0

> <r_epik_Ionization_Penalty_Neutral>
0.00050567

> <r_epik_State_Penalty>
-0

> <r_epik_Charging_Adjusted_Penalty>
0

> <i_epik_Tot_Q>
0

> <i_epik_Tot_abs_Q>
0

> <r_epik_Metal_State_Penalty>
0.219912

> <b_epik_Metal_Only>
0

> <s_lp_Force_Field>
OPLS_2005

> <r_lp_Energy>
10.6095

> <b_lp_Chiralities_Consistent>
1

> <s_lp_Variant>
AV-unprocessed.smi:2063-2

> <Gold.Version>
5.8.1

> <Gold.Id.Protein>
6NUR|6NUR_protein|mol2

> <Gold.PLP.Fitness>
39.6116

> <Gold.PLP.PLP>
-34.9586

> <Gold.PLP.part.hbond>
-4.4137

> <Gold.PLP.part.metal>
0.0000

> <Gold.PLP.part.buried>
-3.2588

> <Gold.PLP.part.nonpolar>
-27.3096

> <Gold.PLP.part.repulsive>
0.4685

> <Gold.PLP.ligand.clash>
0.0000

> <Gold.PLP.ligand.torsion>
1.3518

> <Gold.PLP.Chemscore.Hbond>
2.4128

> <Gold.PLP.Chemscore.CHOScore>
0.0000

> <Gold.PLP.Chemscore.Metal>
0.0000

> <Gold.Chemscore.Hbonds>
donor molecule, donor type, donor heavy atom, donor atom, acceptor molecule, acceptor atom, score
      L1  H     8    27       P1  8029  0.54
      L1  H    11    28       P1  8028  0.91
      P1  H  6933  6944       L1     6  1.00

> <Gold.PLP.Chemscore.Internal.Correction>
0.1184

> <Gold.Rescore>
     Score         DG    S(hbond)    S(metal)    S(lipo)     H(rot)  DE(clash)    DE(int)     intcor
     13.08     -19.01       1.85        0.00      93.80       1.42       0.37       5.55       ----

> <Gold.Chemscore.Fitness>
13.0838

> <Gold.Chemscore.DG>
-19.0051

> <Gold.Chemscore.ZeroCoef>
-5.4800

> <Gold.Chemscore.Hbond>
1.8484

> <Gold.Chemscore.Metal>
0.0000

> <Gold.Chemscore.Lipo>
93.7977

> <Gold.Chemscore.Internal_Hbond>
0.0000

> <Gold.Chemscore.DEClash>
0.3736

> <Gold.Chemscore.DEInternal>
5.5478

> <Gold.Chemscore.Rot>
1.4152

> <Gold.Chemscore.Internal.Correction>
   9.000000E+99

> <Gold.Chemscore.Hbonds>
donor molecule, donor type, donor heavy atom, donor atom, acceptor molecule, acceptor atom, score
      L1  H     8    27       P1  8029  0.19
      L1  H    11    28       P1  8028  0.22
      P1  H  6933  6944       L1     6  0.43

> <Gold.Chemscore.Hbond.Weighted>
-6.1737

> <Gold.Chemscore.Metal.Weighted>
-0.0000

> <Gold.Chemscore.Lipo.Weighted>
-10.9743

> <Gold.Chemscore.Internal_Hbond.Weighted>
0.0000

> <Gold.Chemscore.DEClash.Weighted>
0.3736

> <Gold.Chemscore.DEInternal.Weighted>
5.5478

> <Gold.Chemscore.Rot.Weighted>
3.6229

> <Gold.Chemscore.Internal.Correction.Weighted>
   9.000000E+99

> <Gold.Protein.RotatedTorsions>
[ 6907 6896 6895 6894 ] final  176.54 input  -60.11 | X-H torsion
[ 7974 7965 7964 7962 ] final   44.68 input  175.53 | X-H torsion
[ 8008 7997 7996 7995 ] final  -47.43 input   59.86 | X-H torsion
[ 10167 10162 10161 10158 ] final  -44.79 input  -65.29 | X-H torsion
[ 10718 10713 10712 10709 ] final  115.70 input   66.30 | X-H torsion
[ 10763 10752 10751 10750 ] final  -27.39 input  -60.55 | X-H torsion
[ 11005 11000 10999 10996 ] final  161.81 input  -57.11 | X-H torsion

> <Gold.Protein.ActiveResidues>
 VAL166  LYS551  ARG553  GLY616  TRP617  ASP618  TYR619  PRO620  LYS621  CYS622 
 ASP623  PHE694  ASN695  SER759  ASP760  ASP761  ALA762  ILE779  LEU786  VAL792 
 PHE793  MET794  SER795  GLU796  ALA797  LYS798  CYS799  TRP800  GLU811  SER814 

> <Gold.Protein.RotatedAtoms>
  151.7185  133.3314  159.3308 H   0  0  0  0  0  0  0  0  0  0  0  0  # atno 6907 bound_to 6896
  150.7663  134.6469  159.6276 H   0  0  0  0  0  0  0  0  0  0  0  0  # atno 6908 bound_to 6896
  152.3667  134.6797  160.0241 H   0  0  0  0  0  0  0  0  0  0  0  0  # atno 6909 bound_to 6896
  146.0547  139.5047  142.9696 H   0  0  0  0  0  0  0  0  0  0  0  0  # atno 7974 bound_to 7965
  154.4017  140.1346  156.4173 H   0  0  0  0  0  0  0  0  0  0  0  0  # atno 8008 bound_to 7997
  155.7676  140.3484  155.5210 H   0  0  0  0  0  0  0  0  0  0  0  0  # atno 8009 bound_to 7997
  155.8798  140.0985  157.1483 H   0  0  0  0  0  0  0  0  0  0  0  0  # atno 8010 bound_to 7997
  140.6883  143.2912  151.3546 H   0  0  0  0  0  0  0  0  0  0  0  0  # atno 10167 bound_to 10162
  157.6206  131.1016  150.7367 H   0  0  0  0  0  0  0  0  0  0  0  0  # atno 10718 bound_to 10713
  153.7314  135.6938  153.4988 H   0  0  0  0  0  0  0  0  0  0  0  0  # atno 10763 bound_to 10752
  153.2133  135.4395  155.0404 H   0  0  0  0  0  0  0  0  0  0  0  0  # atno 10764 bound_to 10752
  154.8252  135.3442  154.6843 H   0  0  0  0  0  0  0  0  0  0  0  0  # atno 10765 bound_to 10752
  140.2195  134.8207  157.3206 H   0  0  0  0  0  0  0  0  0  0  0  0  # atno 11005 bound_to 11000
  145.6664  141.0227  143.1681 LP  0  0  0  0  0  0  0  0  0  0  0  0  # atno 17320 bound_to 7965
  144.7141  139.8260  143.7404 LP  0  0  0  0  0  0  0  0  0  0  0  0  # atno 17321 bound_to 7965
  139.6262  144.0810  152.2436 LP  0  0  0  0  0  0  0  0  0  0  0  0  # atno 17342 bound_to 10162
  140.0270  144.6110  150.7519 LP  0  0  0  0  0  0  0  0  0  0  0  0  # atno 17343 bound_to 10162
  156.7726  130.4833  149.5415 LP  0  0  0  0  0  0  0  0  0  0  0  0  # atno 17370 bound_to 10713
  156.1349  130.6204  151.0386 LP  0  0  0  0  0  0  0  0  0  0  0  0  # atno 17371 bound_to 10713
  140.1864  134.4425  155.7741 LP  0  0  0  0  0  0  0  0  0  0  0  0  # atno 17394 bound_to 11000
  141.2223  133.7007  156.7955 LP  0  0  0  0  0  0  0  0  0  0  0  0  # atno 17395 bound_to 11000

$$$$
