AV-unprocessed.smi:1873|AV-procd|sdf|7610|dock4
  -GOLD-   22720 9333D 1   1.00000     0.00000
 Structure written by MMmdl.
 37 39  0  0  0  0  0  0  0  0  2 V2000
  150.2041  139.4245  154.9322 O   0  0  0  0  0  0  0  0  0  0  0  0
  151.0749  139.0424  155.9802 C   0  0  1  0  0  0  0  0  0  0  0  0
  152.1692  140.1095  156.1817 C   0  0  0  0  0  0  0  0  0  0  0  0
  151.6358  141.3983  156.6455 N   0  0  0  0  0  0  0  0  0  0  0  0
  150.6204  142.1497  156.1401 C   0  0  0  0  0  0  0  0  0  0  0  0
  150.5053  143.2624  156.9168 N   0  3  0  0  0  0  0  0  0  0  0  0
  151.4604  143.2218  157.9346 C   0  0  0  0  0  0  0  0  0  0  0  0
  151.7332  144.1181  158.9633 C   0  0  0  0  0  0  0  0  0  0  0  0
  152.7811  143.7732  159.8420 C   0  0  0  0  0  0  0  0  0  0  0  0
  153.5108  142.5774  159.6811 C   0  0  0  0  0  0  0  0  0  0  0  0
  153.2258  141.6763  158.6343 C   0  0  0  0  0  0  0  0  0  0  0  0
  152.1901  142.0254  157.7677 C   0  0  0  0  0  0  0  0  0  0  0  0
  150.3315  138.7708  157.2785 C   0  0  0  0  0  0  0  0  0  0  0  0
  148.9793  139.1497  157.4086 C   0  0  0  0  0  0  0  0  0  0  0  0
  148.2807  138.8893  158.6031 C   0  0  0  0  0  0  0  0  0  0  0  0
  148.9206  138.2533  159.6858 C   0  0  0  0  0  0  0  0  0  0  0  0
  148.1783  138.0141  160.8202 O   0  0  0  0  0  0  0  0  0  0  0  0
  148.7170  137.2750  161.8263 C   0  0  0  0  0  0  0  0  0  0  0  0
  147.8892  137.2893  162.8987 F   0  0  0  0  0  0  0  0  0  0  0  0
  148.8625  135.9834  161.4397 F   0  0  0  0  0  0  0  0  0  0  0  0
  150.2736  137.8604  159.5486 C   0  0  0  0  0  0  0  0  0  0  0  0
  150.9728  138.1194  158.3539 C   0  0  0  0  0  0  0  0  0  0  0  0
  149.3188  139.2138  155.1876 H   0  0  0  0  0  0  0  0  0  0  0  0
  151.5505  138.1139  155.6611 H   0  0  0  0  0  0  0  0  0  0  0  0
  152.9356  139.7655  156.8765 H   0  0  0  0  0  0  0  0  0  0  0  0
  152.6793  140.2977  155.2360 H   0  0  0  0  0  0  0  0  0  0  0  0
  150.0151  141.9075  155.2784 H   0  0  0  0  0  0  0  0  0  0  0  0
  151.1741  145.0335  159.0903 H   0  0  0  0  0  0  0  0  0  0  0  0
  153.0288  144.4377  160.6571 H   0  0  0  0  0  0  0  0  0  0  0  0
  154.3046  142.3446  160.3761 H   0  0  0  0  0  0  0  0  0  0  0  0
  153.7869  140.7601  158.5254 H   0  0  0  0  0  0  0  0  0  0  0  0
  148.4698  139.6381  156.5909 H   0  0  0  0  0  0  0  0  0  0  0  0
  147.2443  139.1813  158.6897 H   0  0  0  0  0  0  0  0  0  0  0  0
  149.6817  137.6702  162.1455 H   0  0  0  0  0  0  0  0  0  0  0  0
  150.7873  137.3507  160.3501 H   0  0  0  0  0  0  0  0  0  0  0  0
  152.0037  137.8088  158.2650 H   0  0  0  0  0  0  0  0  0  0  0  0
  149.8237  143.9940  156.7617 H   0  0  0  0  0  0  0  0  0  0  0  0
  1  2  1  0  0  0  0
  1 23  1  0  0  0  0
  2  3  1  0  0  0  0
  2 13  1  0  0  0  0
  2 24  1  0  0  0  0
  3  4  1  0  0  0  0
  3 25  1  0  0  0  0
  3 26  1  0  0  0  0
  4 12  1  0  0  0  0
  4  5  1  0  0  0  0
  5  6  2  0  0  0  0
  5 27  1  0  0  0  0
  6  7  1  0  0  0  0
  6 37  1  0  0  0  0
  7 12  2  0  0  0  0
  7  8  1  0  0  0  0
  8  9  2  0  0  0  0
  8 28  1  0  0  0  0
  9 10  1  0  0  0  0
  9 29  1  0  0  0  0
 10 11  2  0  0  0  0
 10 30  1  0  0  0  0
 11 12  1  0  0  0  0
 11 31  1  0  0  0  0
 13 22  1  0  0  0  0
 13 14  2  0  0  0  0
 14 15  1  0  0  0  0
 14 32  1  0  0  0  0
 15 16  2  0  0  0  0
 15 33  1  0  0  0  0
 16 17  1  0  0  0  0
 16 21  1  0  0  0  0
 17 18  1  0  0  0  0
 18 19  1  0  0  0  0
 18 20  1  0  0  0  0
 18 34  1  0  0  0  0
 21 22  2  0  0  0  0
 21 35  1  0  0  0  0
 22 36  1  0  0  0  0
M  CHG  1   6   1
M  END
> <s_m_source_file>
AV-unprocessed.smi

> <i_m_source_file_index>
1873

> <i_lp_mmshare_version>
43012

> <i_f3d_flags>
0

> <s_epik_input>
RltDSF0oRilPYyhbY0hdW2NIXTEpW2NIXVtjSF1jMVtDQEhdKFtPSF0pW0NIMl1uKFtjSF1uMiljKGMyMylbY0hdW2NIXVtjSF1bY0hdMw==

> <s_epik_cmdline>
J2VwaWtfcHl0aG9uJywgJy1waCcsICc3LjAnLCAnLXRuJywgJzgnLCAnLW1hJywgJzIwMCcsICctbWV0YWxfYmluZGluZycsICctaW1hZScsICc8aW5maWxlLm1hZT4nLCAnLW9tYWUnLCAnPG91dGZpbGUubWFlPic=

> <r_lp_tautomer_probability>
1

> <r_epik_Ionization_Penalty>
1.3029

> <r_epik_Ionization_Penalty_Charging>
1.3029

> <r_epik_Ionization_Penalty_Neutral>
2.50501e-07

> <r_epik_State_Penalty>
1.377

> <r_epik_Charging_Adjusted_Penalty>
2.6799

> <i_epik_Tot_Q>
1

> <i_epik_Tot_abs_Q>
1

> <r_epik_Metal_State_Penalty>
5.40879

> <b_epik_Metal_Only>
0

> <s_lp_Force_Field>
OPLS_2005

> <r_lp_Energy>
16.5832

> <b_lp_Chiralities_Consistent>
1

> <s_lp_Variant>
AV-unprocessed.smi:1873-4

> <Gold.Version>
5.8.1

> <Gold.Id.Protein>
6NUR|6NUR_protein|mol2

> <Gold.PLP.Fitness>
47.7298

> <Gold.PLP.PLP>
-37.7364

> <Gold.PLP.part.hbond>
-2.5995

> <Gold.PLP.part.metal>
0.0000

> <Gold.PLP.part.buried>
-5.1075

> <Gold.PLP.part.nonpolar>
-29.3236

> <Gold.PLP.part.repulsive>
0.0159

> <Gold.PLP.ligand.clash>
0.0000

> <Gold.PLP.ligand.torsion>
0.3643

> <Gold.PLP.Chemscore.Hbond>
3.5468

> <Gold.PLP.Chemscore.CHOScore>
0.0000

> <Gold.PLP.Chemscore.Metal>
0.0000

> <Gold.Chemscore.Hbonds>
donor molecule, donor type, donor heavy atom, donor atom, acceptor molecule, acceptor atom, score
      L1  H     6    37       P1  8028  1.86
      P1  H  6934  6947       L1    17  0.25

> <Gold.PLP.Chemscore.Internal.Correction>
0.0817

> <Gold.Rescore>
     Score         DG    S(hbond)    S(metal)    S(lipo)     H(rot)  DE(clash)    DE(int)     intcor
     14.16     -16.09       1.91        0.00      90.12       2.47       0.37       1.56       ----

> <Gold.Chemscore.Fitness>
14.1577

> <Gold.Chemscore.DG>
-16.0937

> <Gold.Chemscore.ZeroCoef>
-5.4800

> <Gold.Chemscore.Hbond>
1.9116

> <Gold.Chemscore.Metal>
0.0000

> <Gold.Chemscore.Lipo>
90.1207

> <Gold.Chemscore.Internal_Hbond>
0.0000

> <Gold.Chemscore.DEClash>
0.3720

> <Gold.Chemscore.DEInternal>
1.5640

> <Gold.Chemscore.Rot>
2.4668

> <Gold.Chemscore.Internal.Correction>
   9.000000E+99

> <Gold.Chemscore.Hbonds>
donor molecule, donor type, donor heavy atom, donor atom, acceptor molecule, acceptor atom, score
      L1  H     6    37       P1  8028  0.86
      P1  H  6934  6947       L1    17  0.16
      P1  H  7989  7998       L1     1  0.01

> <Gold.Chemscore.Hbond.Weighted>
-6.3846

> <Gold.Chemscore.Metal.Weighted>
-0.0000

> <Gold.Chemscore.Lipo.Weighted>
-10.5441

> <Gold.Chemscore.Internal_Hbond.Weighted>
0.0000

> <Gold.Chemscore.DEClash.Weighted>
0.3720

> <Gold.Chemscore.DEInternal.Weighted>
1.5640

> <Gold.Chemscore.Rot.Weighted>
6.3151

> <Gold.Chemscore.Internal.Correction.Weighted>
   9.000000E+99

> <Gold.Protein.RotatedTorsions>
[ 6907 6896 6895 6894 ] final -175.86 input  -60.11 | X-H torsion
[ 7974 7965 7964 7962 ] final  160.37 input  175.53 | X-H torsion
[ 8008 7997 7996 7995 ] final  170.22 input   59.86 | X-H torsion
[ 10167 10162 10161 10158 ] final   37.95 input  -65.29 | X-H torsion
[ 10718 10713 10712 10709 ] final   40.89 input   66.30 | X-H torsion
[ 10763 10752 10751 10750 ] final -104.60 input  -60.55 | X-H torsion
[ 11005 11000 10999 10996 ] final   32.38 input  -57.11 | X-H torsion

> <Gold.Protein.ActiveResidues>
 VAL166  LYS551  ARG553  GLY616  TRP617  ASP618  TYR619  PRO620  LYS621  CYS622 
 ASP623  PHE694  ASN695  SER759  ASP760  ASP761  ALA762  ILE779  LEU786  VAL792 
 PHE793  MET794  SER795  GLU796  ALA797  LYS798  CYS799  TRP800  GLU811  SER814 

> <Gold.Protein.RotatedAtoms>
  151.5954  133.3362  159.3036 H   0  0  0  0  0  0  0  0  0  0  0  0  # atno 6907 bound_to 6896
  150.8237  134.7461  159.6805 H   0  0  0  0  0  0  0  0  0  0  0  0  # atno 6908 bound_to 6896
  152.4328  134.5750  159.9983 H   0  0  0  0  0  0  0  0  0  0  0  0  # atno 6909 bound_to 6896
  144.7740  139.7748  143.6286 H   0  0  0  0  0  0  0  0  0  0  0  0  # atno 7974 bound_to 7965
  156.1385  140.1543  156.8957 H   0  0  0  0  0  0  0  0  0  0  0  0  # atno 8008 bound_to 7997
  154.4968  140.0836  156.7752 H   0  0  0  0  0  0  0  0  0  0  0  0  # atno 8009 bound_to 7997
  155.4122  140.3419  155.4267 H   0  0  0  0  0  0  0  0  0  0  0  0  # atno 8010 bound_to 7997
  140.3984  144.1758  150.6133 H   0  0  0  0  0  0  0  0  0  0  0  0  # atno 10167 bound_to 10162
  157.3874  130.7787  149.7241 H   0  0  0  0  0  0  0  0  0  0  0  0  # atno 10718 bound_to 10713
  154.7889  135.4780  154.0008 H   0  0  0  0  0  0  0  0  0  0  0  0  # atno 10763 bound_to 10752
  153.1601  135.6807  153.8762 H   0  0  0  0  0  0  0  0  0  0  0  0  # atno 10764 bound_to 10752
  153.8378  135.3183  155.3402 H   0  0  0  0  0  0  0  0  0  0  0  0  # atno 10765 bound_to 10752
  140.2741  134.3048  155.7819 H   0  0  0  0  0  0  0  0  0  0  0  0  # atno 11005 bound_to 11000
  146.1907  139.5146  142.9807 LP  0  0  0  0  0  0  0  0  0  0  0  0  # atno 17320 bound_to 7965
  145.6239  141.0317  143.1900 LP  0  0  0  0  0  0  0  0  0  0  0  0  # atno 17321 bound_to 7965
  140.4766  143.2394  151.9014 LP  0  0  0  0  0  0  0  0  0  0  0  0  # atno 17342 bound_to 10162
  139.4786  144.5313  151.8662 LP  0  0  0  0  0  0  0  0  0  0  0  0  # atno 17343 bound_to 10162
  155.9790  130.4045  150.3615 LP  0  0  0  0  0  0  0  0  0  0  0  0  # atno 17370 bound_to 10713
  157.1727  131.0372  151.2787 LP  0  0  0  0  0  0  0  0  0  0  0  0  # atno 17371 bound_to 10713
  141.2173  133.7485  156.9380 LP  0  0  0  0  0  0  0  0  0  0  0  0  # atno 17394 bound_to 11000
  140.1345  134.9334  157.2383 LP  0  0  0  0  0  0  0  0  0  0  0  0  # atno 17395 bound_to 11000

$$$$
