AV-unprocessed.smi:838|AV-procd|sdf|3909|dock6
  -GOLD-   22720 1373D 1   1.00000     0.00000
 Structure written by MMmdl.
 46 47  0  0  0  0  0  0  0  0  2 V2000
  151.9820  137.6551  157.8100 C   0  0  0  0  0  0  0  0  0  0  0  0
  152.2951  138.1502  156.3962 C   0  0  0  0  0  0  0  0  0  0  0  0
  153.2870  138.8617  156.2388 O   0  0  0  0  0  0  0  0  0  0  0  0
  151.4815  137.7950  155.3728 N   0  0  0  0  0  0  0  0  0  0  0  0
  151.6025  138.2584  153.9873 C   0  0  0  0  0  0  0  0  0  0  0  0
  150.3924  139.1479  153.6481 C   0  0  0  0  0  0  0  0  0  0  0  0
  149.1071  138.4396  153.8936 N   0  3  0  0  0  0  0  0  0  0  0  0
  147.9319  139.2805  153.5555 C   0  0  0  0  0  0  0  0  0  0  0  0
  146.6282  138.4636  153.4673 C   0  0  0  0  0  0  0  0  0  0  0  0
  146.8527  137.1646  152.8435 N   0  0  0  0  0  0  0  0  0  0  0  0
  145.9049  136.2368  152.6460 C   0  0  0  0  0  0  0  0  0  0  0  0
  144.7288  136.3946  152.9753 O   0  0  0  0  0  0  0  0  0  0  0  0
  146.4096  135.1435  152.0474 N   0  0  0  0  0  0  0  0  0  0  0  0
  145.7339  133.9479  151.6723 C   0  0  0  0  0  0  0  0  0  0  0  0
  144.4946  133.9510  151.1199 N   0  0  0  0  0  0  0  0  0  0  0  0
  143.9096  132.7810  150.7918 C   0  0  0  0  0  0  0  0  0  0  0  0
  144.5234  131.5328  150.9927 C   0  0  0  0  0  0  0  0  0  0  0  0
  145.8078  131.5116  151.5628 C   0  0  0  0  0  0  0  0  0  0  0  0
  146.4277  132.7309  151.9099 C   0  0  0  0  0  0  0  0  0  0  0  0
  147.8171  132.7090  152.5267 C   0  0  0  0  0  0  0  0  0  0  0  0
  149.0340  137.8422  155.2563 C   0  0  0  0  0  0  0  0  0  0  0  0
  150.2754  136.9837  155.5613 C   0  0  0  0  0  0  0  0  0  0  0  0
  152.0014  136.5658  157.8525 H   0  0  0  0  0  0  0  0  0  0  0  0
  151.0026  138.0067  158.1354 H   0  0  0  0  0  0  0  0  0  0  0  0
  152.7210  138.0283  158.5198 H   0  0  0  0  0  0  0  0  0  0  0  0
  152.5236  138.8028  153.7849 H   0  0  0  0  0  0  0  0  0  0  0  0
  151.6247  137.3917  153.3250 H   0  0  0  0  0  0  0  0  0  0  0  0
  150.4228  140.0592  154.2480 H   0  0  0  0  0  0  0  0  0  0  0  0
  150.4484  139.4532  152.6026 H   0  0  0  0  0  0  0  0  0  0  0  0
  147.8428  140.0902  154.2815 H   0  0  0  0  0  0  0  0  0  0  0  0
  148.0977  139.7543  152.5866 H   0  0  0  0  0  0  0  0  0  0  0  0
  146.2272  138.2942  154.4669 H   0  0  0  0  0  0  0  0  0  0  0  0
  145.8580  138.9974  152.9098 H   0  0  0  0  0  0  0  0  0  0  0  0
  147.7950  136.9554  152.5468 H   0  0  0  0  0  0  0  0  0  0  0  0
  147.3953  135.1656  151.8322 H   0  0  0  0  0  0  0  0  0  0  0  0
  142.9229  132.8427  150.3570 H   0  0  0  0  0  0  0  0  0  0  0  0
  144.0222  130.6169  150.7169 H   0  0  0  0  0  0  0  0  0  0  0  0
  146.3077  130.5691  151.7311 H   0  0  0  0  0  0  0  0  0  0  0  0
  148.1974  131.6907  152.6132 H   0  0  0  0  0  0  0  0  0  0  0  0
  147.7977  133.1455  153.5257 H   0  0  0  0  0  0  0  0  0  0  0  0
  148.5171  133.2762  151.9126 H   0  0  0  0  0  0  0  0  0  0  0  0
  148.9475  138.6388  155.9971 H   0  0  0  0  0  0  0  0  0  0  0  0
  148.1423  137.2239  155.3520 H   0  0  0  0  0  0  0  0  0  0  0  0
  150.3132  136.1264  154.8873 H   0  0  0  0  0  0  0  0  0  0  0  0
  150.1964  136.5666  156.5661 H   0  0  0  0  0  0  0  0  0  0  0  0
  149.0974  137.6660  153.2444 H   0  0  0  0  0  0  0  0  0  0  0  0
  1  2  1  0  0  0  0
  1 23  1  0  0  0  0
  1 24  1  0  0  0  0
  1 25  1  0  0  0  0
  2  3  2  0  0  0  0
  2  4  1  0  0  0  0
  4 22  1  0  0  0  0
  4  5  1  0  0  0  0
  5  6  1  0  0  0  0
  5 26  1  0  0  0  0
  5 27  1  0  0  0  0
  6  7  1  0  0  0  0
  6 28  1  0  0  0  0
  6 29  1  0  0  0  0
  7  8  1  0  0  0  0
  7 21  1  0  0  0  0
  7 46  1  0  0  0  0
  8  9  1  0  0  0  0
  8 30  1  0  0  0  0
  8 31  1  0  0  0  0
  9 10  1  0  0  0  0
  9 32  1  0  0  0  0
  9 33  1  0  0  0  0
 10 11  1  0  0  0  0
 10 34  1  0  0  0  0
 11 12  2  0  0  0  0
 11 13  1  0  0  0  0
 13 14  1  0  0  0  0
 13 35  1  0  0  0  0
 14 19  1  0  0  0  0
 14 15  2  0  0  0  0
 15 16  1  0  0  0  0
 16 17  2  0  0  0  0
 16 36  1  0  0  0  0
 17 18  1  0  0  0  0
 17 37  1  0  0  0  0
 18 19  2  0  0  0  0
 18 38  1  0  0  0  0
 19 20  1  0  0  0  0
 20 39  1  0  0  0  0
 20 40  1  0  0  0  0
 20 41  1  0  0  0  0
 21 22  1  0  0  0  0
 21 42  1  0  0  0  0
 21 43  1  0  0  0  0
 22 44  1  0  0  0  0
 22 45  1  0  0  0  0
M  CHG  1   7   1
M  END
> <s_m_source_file>
AV-unprocessed.smi

> <i_m_source_file_index>
838

> <i_lp_mmshare_version>
43012

> <i_f3d_flags>
0

> <s_epik_input>
W0NIM11DKD1PKU4xW0NIMl1bQ0gyXU4oW0NIMl1bQ0gyXTEpW0NIMl1bQ0gyXVtOSF1DKD1PKVtOSF1jMm5bY0hdW2NIXVtjSF1jMltDSDNd

> <s_epik_cmdline>
J2VwaWtfcHl0aG9uJywgJy1waCcsICc3LjAnLCAnLXRuJywgJzgnLCAnLW1hJywgJzIwMCcsICctbWV0YWxfYmluZGluZycsICctaW1hZScsICc8aW5maWxlLm1hZT4nLCAnLW9tYWUnLCAnPG91dGZpbGUubWFlPic=

> <r_epik_Ionization_Penalty>
0.630076

> <r_epik_Ionization_Penalty_Charging>
0.630034

> <r_epik_Ionization_Penalty_Neutral>
4.2229e-05

> <r_epik_State_Penalty>
0.646805

> <r_epik_Charging_Adjusted_Penalty>
1.27684

> <i_epik_Tot_Q>
1

> <i_epik_Tot_abs_Q>
1

> <r_epik_Metal_State_Penalty>
0.64681

> <b_epik_Metal_Only>
0

> <s_lp_Force_Field>
OPLS_2005

> <r_lp_Energy>
41.2384

> <b_lp_Chiralities_Consistent>
1

> <s_lp_Variant>
AV-unprocessed.smi:838-2

> <Gold.Version>
5.8.1

> <Gold.Id.Protein>
6NUR|6NUR_protein|mol2

> <Gold.PLP.Fitness>
49.1155

> <Gold.PLP.PLP>
-32.2933

> <Gold.PLP.part.hbond>
-4.0000

> <Gold.PLP.part.metal>
0.0000

> <Gold.PLP.part.buried>
-3.4914

> <Gold.PLP.part.nonpolar>
-24.6963

> <Gold.PLP.part.repulsive>
0.3688

> <Gold.PLP.ligand.clash>
0.0000

> <Gold.PLP.ligand.torsion>
0.4866

> <Gold.PLP.Chemscore.Hbond>
4.9120

> <Gold.PLP.Chemscore.CHOScore>
1.0000

> <Gold.PLP.Chemscore.Metal>
0.0000

> <Gold.Chemscore.Hbonds>
donor molecule, donor type, donor heavy atom, donor atom, acceptor molecule, acceptor atom, score
      L1  H     7    46       P1  7948  2.00
      L1  H    10    34       P1  7948  0.98
      L1  H    13    35       P1  7948  0.93
      P1  H  7997  8009       L1     3  1.00
      L1  C    16    36       P1 10186  0.81

> <Gold.PLP.Chemscore.Internal.Correction>
0.0593

> <Gold.Rescore>
     Score         DG    S(hbond)    S(metal)    S(lipo)     H(rot)  DE(clash)    DE(int)     intcor
     22.03     -22.86       3.77        0.00      75.35       1.58       0.32       0.51       ----

> <Gold.Chemscore.Fitness>
22.0276

> <Gold.Chemscore.DG>
-22.8573

> <Gold.Chemscore.ZeroCoef>
-5.4800

> <Gold.Chemscore.Hbond>
3.7734

> <Gold.Chemscore.Metal>
0.0000

> <Gold.Chemscore.Lipo>
75.3488

> <Gold.Chemscore.Internal_Hbond>
0.0000

> <Gold.Chemscore.DEClash>
0.3216

> <Gold.Chemscore.DEInternal>
0.5080

> <Gold.Chemscore.Rot>
1.5788

> <Gold.Chemscore.Internal.Correction>
   9.000000E+99

> <Gold.Chemscore.Hbonds>
donor molecule, donor type, donor heavy atom, donor atom, acceptor molecule, acceptor atom, score
      L1  H     7    46       P1  7948  0.98
      L1  H    10    34       P1  7948  0.92
      L1  H    13    35       P1  7948  0.85
      P1  H  7997  8009       L1     3  0.95

> <Gold.Chemscore.Hbond.Weighted>
-12.6031

> <Gold.Chemscore.Metal.Weighted>
-0.0000

> <Gold.Chemscore.Lipo.Weighted>
-8.8158

> <Gold.Chemscore.Internal_Hbond.Weighted>
0.0000

> <Gold.Chemscore.DEClash.Weighted>
0.3216

> <Gold.Chemscore.DEInternal.Weighted>
0.5080

> <Gold.Chemscore.Rot.Weighted>
4.0416

> <Gold.Chemscore.Internal.Correction.Weighted>
   9.000000E+99

> <Gold.Protein.RotatedTorsions>
[ 6907 6896 6895 6894 ] final  156.90 input  -60.11 | X-H torsion
[ 7974 7965 7964 7962 ] final  -31.65 input  175.53 | X-H torsion
[ 8008 7997 7996 7995 ] final -173.74 input   59.86 | X-H torsion
[ 10167 10162 10161 10158 ] final   54.90 input  -65.29 | X-H torsion
[ 10718 10713 10712 10709 ] final -127.99 input   66.30 | X-H torsion
[ 10763 10752 10751 10750 ] final -102.21 input  -60.55 | X-H torsion
[ 11005 11000 10999 10996 ] final    9.44 input  -57.11 | X-H torsion

> <Gold.Protein.ActiveResidues>
 VAL166  LYS551  ARG553  GLY616  TRP617  ASP618  TYR619  PRO620  LYS621  CYS622 
 ASP623  PHE694  ASN695  SER759  ASP760  ASP761  ALA762  ILE779  LEU786  VAL792 
 PHE793  MET794  SER795  GLU796  ALA797  LYS798  CYS799  TRP800  GLU811  SER814 

> <Gold.Protein.RotatedAtoms>
  152.0230  133.3906  159.4265 H   0  0  0  0  0  0  0  0  0  0  0  0  # atno 6907 bound_to 6896
  150.6888  134.3605  159.4957 H   0  0  0  0  0  0  0  0  0  0  0  0  # atno 6908 bound_to 6896
  152.1381  134.9083  160.0606 H   0  0  0  0  0  0  0  0  0  0  0  0  # atno 6909 bound_to 6896
  146.1051  140.5694  142.8803 H   0  0  0  0  0  0  0  0  0  0  0  0  # atno 7974 bound_to 7965
  155.9612  140.1145  157.0894 H   0  0  0  0  0  0  0  0  0  0  0  0  # atno 8008 bound_to 7997
  154.4132  140.1181  156.5249 H   0  0  0  0  0  0  0  0  0  0  0  0  # atno 8009 bound_to 7997
  155.6718  140.3473  155.4823 H   0  0  0  0  0  0  0  0  0  0  0  0  # atno 8010 bound_to 7997
  140.2252  144.3746  150.6435 H   0  0  0  0  0  0  0  0  0  0  0  0  # atno 10167 bound_to 10162
  156.1909  130.6794  151.0422 H   0  0  0  0  0  0  0  0  0  0  0  0  # atno 10718 bound_to 10713
  154.7717  135.4869  153.9662 H   0  0  0  0  0  0  0  0  0  0  0  0  # atno 10763 bound_to 10752
  153.1376  135.6766  153.9085 H   0  0  0  0  0  0  0  0  0  0  0  0  # atno 10764 bound_to 10752
  153.8770  135.3137  155.3422 H   0  0  0  0  0  0  0  0  0  0  0  0  # atno 10765 bound_to 10752
  140.5257  134.0515  155.7858 H   0  0  0  0  0  0  0  0  0  0  0  0  # atno 11005 bound_to 11000
  144.7464  140.5079  143.6833 LP  0  0  0  0  0  0  0  0  0  0  0  0  # atno 17320 bound_to 7965
  145.5777  139.1487  143.3253 LP  0  0  0  0  0  0  0  0  0  0  0  0  # atno 17321 bound_to 7965
  140.6226  143.2178  151.6663 LP  0  0  0  0  0  0  0  0  0  0  0  0  # atno 17342 bound_to 10162
  139.5130  144.3458  152.0698 LP  0  0  0  0  0  0  0  0  0  0  0  0  # atno 17343 bound_to 10162
  157.6928  131.0804  150.7058 LP  0  0  0  0  0  0  0  0  0  0  0  0  # atno 17370 bound_to 10713
  156.7114  130.4653  149.5546 LP  0  0  0  0  0  0  0  0  0  0  0  0  # atno 17371 bound_to 10713
  141.1309  133.9303  157.2537 LP  0  0  0  0  0  0  0  0  0  0  0  0  # atno 17394 bound_to 11000
  139.9581  135.0161  156.9186 LP  0  0  0  0  0  0  0  0  0  0  0  0  # atno 17395 bound_to 11000

$$$$
