AV-unprocessed.smi:1849|AV-procd|sdf|7521|dock2
  -GOLD-   22720 9233D 1   1.00000     0.00000
 Structure written by MMmdl.
 40 41  0  0  0  0  0  0  0  0  1 V2000
  147.9856  138.5467  154.0422 C   0  0  0  0  0  0  0  0  0  0  0  0
  149.3721  138.2949  154.3859 N   0  0  0  0  0  0  0  0  0  0  0  0
  150.4760  138.9540  153.8615 C   0  0  0  0  0  0  0  0  0  0  0  0
  151.5846  138.3973  154.4524 C   0  0  0  0  0  0  0  0  0  0  0  0
  151.1850  137.4014  155.3371 N   0  0  0  0  0  0  0  0  0  0  0  0
  149.8575  137.3928  155.2606 C   0  0  0  0  0  0  0  0  0  0  0  0
  148.9862  136.4538  156.0344 C   0  0  0  0  0  0  0  0  0  0  0  0
  149.0870  135.0073  155.5241 C   0  0  0  0  0  0  0  0  0  0  0  0
  148.5019  134.8647  154.1964 N   0  0  0  0  0  0  0  0  0  0  0  0
  147.5523  133.9765  153.8709 C   0  0  0  0  0  0  0  0  0  0  0  0
  147.0600  133.1724  154.6631 O   0  0  0  0  0  0  0  0  0  0  0  0
  147.2081  134.0675  152.5788 N   0  0  0  0  0  0  0  0  0  0  0  0
  146.2066  133.2399  151.9132 C   0  0  0  0  0  0  0  0  0  0  0  0
  146.7544  132.6864  150.5809 C   0  0  0  0  0  0  0  0  0  0  0  0
  145.6864  131.8801  149.8244 C   0  0  0  0  0  0  0  0  0  0  0  0
  144.4158  132.7132  149.5947 C   0  0  0  0  0  0  0  0  0  0  0  0
  143.8634  133.2568  150.9217 C   0  0  0  0  0  0  0  0  0  0  0  0
  144.9287  134.0675  151.6772 C   0  0  0  0  0  0  0  0  0  0  0  0
  147.9258  139.2445  153.2066 H   0  0  0  0  0  0  0  0  0  0  0  0
  147.4660  138.9757  154.8991 H   0  0  0  0  0  0  0  0  0  0  0  0
  147.4976  137.6144  153.7565 H   0  0  0  0  0  0  0  0  0  0  0  0
  150.3843  139.7414  153.1281 H   0  0  0  0  0  0  0  0  0  0  0  0
  152.6288  138.6330  154.3096 H   0  0  0  0  0  0  0  0  0  0  0  0
  149.2814  136.4957  157.0836 H   0  0  0  0  0  0  0  0  0  0  0  0
  147.9547  136.8050  155.9968 H   0  0  0  0  0  0  0  0  0  0  0  0
  150.1271  134.6775  155.5083 H   0  0  0  0  0  0  0  0  0  0  0  0
  148.5599  134.3364  156.2031 H   0  0  0  0  0  0  0  0  0  0  0  0
  148.8459  135.4836  153.4768 H   0  0  0  0  0  0  0  0  0  0  0  0
  147.6730  134.7611  152.0114 H   0  0  0  0  0  0  0  0  0  0  0  0
  145.9507  132.4013  152.5641 H   0  0  0  0  0  0  0  0  0  0  0  0
  147.0983  133.5093  149.9525 H   0  0  0  0  0  0  0  0  0  0  0  0
  147.6242  132.0545  150.7635 H   0  0  0  0  0  0  0  0  0  0  0  0
  146.0855  131.5393  148.8685 H   0  0  0  0  0  0  0  0  0  0  0  0
  145.4368  130.9832  150.3925 H   0  0  0  0  0  0  0  0  0  0  0  0
  144.6390  133.5437  148.9236 H   0  0  0  0  0  0  0  0  0  0  0  0
  143.6589  132.1070  149.0961 H   0  0  0  0  0  0  0  0  0  0  0  0
  142.9876  133.8787  150.7334 H   0  0  0  0  0  0  0  0  0  0  0  0
  143.5254  132.4273  151.5443 H   0  0  0  0  0  0  0  0  0  0  0  0
  144.5221  134.4083  152.6302 H   0  0  0  0  0  0  0  0  0  0  0  0
  145.1693  134.9650  151.1052 H   0  0  0  0  0  0  0  0  0  0  0  0
  1  2  1  0  0  0  0
  1 19  1  0  0  0  0
  1 20  1  0  0  0  0
  1 21  1  0  0  0  0
  2  6  1  0  0  0  0
  2  3  1  0  0  0  0
  3  4  2  0  0  0  0
  3 22  1  0  0  0  0
  4  5  1  0  0  0  0
  4 23  1  0  0  0  0
  5  6  2  0  0  0  0
  6  7  1  0  0  0  0
  7  8  1  0  0  0  0
  7 24  1  0  0  0  0
  7 25  1  0  0  0  0
  8  9  1  0  0  0  0
  8 26  1  0  0  0  0
  8 27  1  0  0  0  0
  9 10  1  0  0  0  0
  9 28  1  0  0  0  0
 10 11  2  0  0  0  0
 10 12  1  0  0  0  0
 12 13  1  0  0  0  0
 12 29  1  0  0  0  0
 13 18  1  0  0  0  0
 13 14  1  0  0  0  0
 13 30  1  0  0  0  0
 14 15  1  0  0  0  0
 14 31  1  0  0  0  0
 14 32  1  0  0  0  0
 15 16  1  0  0  0  0
 15 33  1  0  0  0  0
 15 34  1  0  0  0  0
 16 17  1  0  0  0  0
 16 35  1  0  0  0  0
 16 36  1  0  0  0  0
 17 18  1  0  0  0  0
 17 37  1  0  0  0  0
 17 38  1  0  0  0  0
 18 39  1  0  0  0  0
 18 40  1  0  0  0  0
M  END
> <s_m_source_file>
AV-unprocessed.smi

> <i_m_source_file_index>
1849

> <i_lp_mmshare_version>
43012

> <i_f3d_flags>
0

> <s_epik_input>
W0NIM11uMVtjSF1bY0hdbmMxW0NIMl1bQ0gyXVtOSF1DKD1PKVtOSF1bQ0hdMltDSDJdW0NIMl1bQ0gyXVtDSDJdW0NIMl0y

> <s_epik_cmdline>
J2VwaWtfcHl0aG9uJywgJy1waCcsICc3LjAnLCAnLXRuJywgJzgnLCAnLW1hJywgJzIwMCcsICctbWV0YWxfYmluZGluZycsICctaW1hZScsICc8aW5maWxlLm1hZT4nLCAnLW9tYWUnLCAnPG91dGZpbGUubWFlPic=

> <r_lp_tautomer_probability>
1

> <r_epik_Ionization_Penalty>
1.48237

> <r_epik_Ionization_Penalty_Charging>
1.48231

> <r_epik_Ionization_Penalty_Neutral>
5.84917e-05

> <r_epik_State_Penalty>
1.57104

> <r_epik_Charging_Adjusted_Penalty>
3.05335

> <i_epik_Tot_Q>
0

> <i_epik_Tot_abs_Q>
0

> <r_epik_Metal_State_Penalty>
0.437242

> <b_epik_Metal_Only>
0

> <s_lp_Force_Field>
OPLS_2005

> <r_lp_Energy>
3.77176

> <b_lp_Chiralities_Consistent>
1

> <s_lp_Variant>
AV-unprocessed.smi:1849-2

> <Gold.Version>
5.8.1

> <Gold.Id.Protein>
6NUR|6NUR_protein|mol2

> <Gold.PLP.Fitness>
44.8159

> <Gold.PLP.PLP>
-33.4636

> <Gold.PLP.part.hbond>
-3.0000

> <Gold.PLP.part.metal>
0.0000

> <Gold.PLP.part.buried>
-4.5513

> <Gold.PLP.part.nonpolar>
-26.2752

> <Gold.PLP.part.repulsive>
0.1529

> <Gold.PLP.ligand.clash>
0.0000

> <Gold.PLP.ligand.torsion>
0.3182

> <Gold.PLP.Chemscore.Hbond>
3.0000

> <Gold.PLP.Chemscore.CHOScore>
0.9920

> <Gold.PLP.Chemscore.Metal>
0.0000

> <Gold.Chemscore.Hbonds>
donor molecule, donor type, donor heavy atom, donor atom, acceptor molecule, acceptor atom, score
      L1  H     9    28       P1  7948  1.00
      L1  H    12    29       P1  7948  1.00
      L1  C     3    22       P1  7957  1.00

> <Gold.PLP.Chemscore.Internal.Correction>
0.0127

> <Gold.Rescore>
     Score         DG    S(hbond)    S(metal)    S(lipo)     H(rot)  DE(clash)    DE(int)     intcor
     16.70     -16.84       2.16        0.00      71.81       1.66       0.00       0.14       ----

> <Gold.Chemscore.Fitness>
16.6980

> <Gold.Chemscore.DG>
-16.8393

> <Gold.Chemscore.ZeroCoef>
-5.4800

> <Gold.Chemscore.Hbond>
2.1558

> <Gold.Chemscore.Metal>
0.0000

> <Gold.Chemscore.Lipo>
71.8134

> <Gold.Chemscore.Internal_Hbond>
0.0000

> <Gold.Chemscore.DEClash>
0.0029

> <Gold.Chemscore.DEInternal>
0.1384

> <Gold.Chemscore.Rot>
1.6575

> <Gold.Chemscore.Internal.Correction>
   9.000000E+99

> <Gold.Chemscore.Hbonds>
donor molecule, donor type, donor heavy atom, donor atom, acceptor molecule, acceptor atom, score
      L1  H     9    28       P1  7948  0.85
      L1  H    12    29       P1  7948  0.62

> <Gold.Chemscore.Hbond.Weighted>
-7.2003

> <Gold.Chemscore.Metal.Weighted>
-0.0000

> <Gold.Chemscore.Lipo.Weighted>
-8.4022

> <Gold.Chemscore.Internal_Hbond.Weighted>
0.0000

> <Gold.Chemscore.DEClash.Weighted>
0.0029

> <Gold.Chemscore.DEInternal.Weighted>
0.1384

> <Gold.Chemscore.Rot.Weighted>
4.2432

> <Gold.Chemscore.Internal.Correction.Weighted>
   9.000000E+99

> <Gold.Protein.RotatedTorsions>
[ 6907 6896 6895 6894 ] final  113.25 input  -60.11 | X-H torsion
[ 7974 7965 7964 7962 ] final -135.44 input  175.53 | X-H torsion
[ 8008 7997 7996 7995 ] final  149.07 input   59.86 | X-H torsion
[ 10167 10162 10161 10158 ] final  -15.18 input  -65.29 | X-H torsion
[ 10718 10713 10712 10709 ] final -134.46 input   66.30 | X-H torsion
[ 10763 10752 10751 10750 ] final   69.34 input  -60.55 | X-H torsion
[ 11005 11000 10999 10996 ] final  123.34 input  -57.11 | X-H torsion

> <Gold.Protein.ActiveResidues>
 VAL166  LYS551  ARG553  GLY616  TRP617  ASP618  TYR619  PRO620  LYS621  CYS622 
 ASP623  PHE694  ASN695  SER759  ASP760  ASP761  ALA762  ILE779  LEU786  VAL792 
 PHE793  MET794  SER795  GLU796  ALA797  LYS798  CYS799  TRP800  GLU811  SER814 

> <Gold.Protein.RotatedAtoms>
  152.4871  133.8402  159.7148 H   0  0  0  0  0  0  0  0  0  0  0  0  # atno 6907 bound_to 6896
  150.8968  133.7162  159.2896 H   0  0  0  0  0  0  0  0  0  0  0  0  # atno 6908 bound_to 6896
  151.4616  135.1042  159.9778 H   0  0  0  0  0  0  0  0  0  0  0  0  # atno 6909 bound_to 6896
  144.9014  140.6775  143.5083 H   0  0  0  0  0  0  0  0  0  0  0  0  # atno 7974 bound_to 7965
  156.2768  140.2111  156.5799 H   0  0  0  0  0  0  0  0  0  0  0  0  # atno 8008 bound_to 7997
  154.7067  140.0516  157.0534 H   0  0  0  0  0  0  0  0  0  0  0  0  # atno 8009 bound_to 7997
  155.0661  140.3172  155.4648 H   0  0  0  0  0  0  0  0  0  0  0  0  # atno 8010 bound_to 7997
  140.7214  143.5244  150.9594 H   0  0  0  0  0  0  0  0  0  0  0  0  # atno 10167 bound_to 10162
  156.2557  130.7180  151.1096 H   0  0  0  0  0  0  0  0  0  0  0  0  # atno 10718 bound_to 10713
  153.0282  135.5214  154.7273 H   0  0  0  0  0  0  0  0  0  0  0  0  # atno 10763 bound_to 10752
  154.6311  135.2900  155.0218 H   0  0  0  0  0  0  0  0  0  0  0  0  # atno 10764 bound_to 10752
  154.1170  135.6613  153.4948 H   0  0  0  0  0  0  0  0  0  0  0  0  # atno 10765 bound_to 10752
  139.9308  134.9641  156.8245 H   0  0  0  0  0  0  0  0  0  0  0  0  # atno 11005 bound_to 11000
  145.3611  139.1681  143.4383 LP  0  0  0  0  0  0  0  0  0  0  0  0  # atno 17320 bound_to 7965
  146.3110  140.3673  142.8670 LP  0  0  0  0  0  0  0  0  0  0  0  0  # atno 17321 bound_to 7965
  139.8963  143.6891  152.3138 LP  0  0  0  0  0  0  0  0  0  0  0  0  # atno 17342 bound_to 10162
  139.7225  144.7600  151.0933 LP  0  0  0  0  0  0  0  0  0  0  0  0  # atno 17343 bound_to 10162
  157.7232  131.0668  150.6048 LP  0  0  0  0  0  0  0  0  0  0  0  0  # atno 17370 bound_to 10713
  156.6131  130.4385  149.5851 LP  0  0  0  0  0  0  0  0  0  0  0  0  # atno 17371 bound_to 10713
  140.6207  133.9996  155.7617 LP  0  0  0  0  0  0  0  0  0  0  0  0  # atno 17394 bound_to 11000
  141.0895  133.9938  157.3259 LP  0  0  0  0  0  0  0  0  0  0  0  0  # atno 17395 bound_to 11000

$$$$
