AV-unprocessed.smi:113|AV-procd|sdf|1095|dock5
  -GOLD-   2262018203D 1   1.00000     0.00000
 Structure written by MMmdl.
 52 55  0  0  0  0  0  0  0  0  1 V2000
  155.2478  139.2418  163.2683 C   0  0  0  0  0  0  0  0  0  0  0  0
  154.5031  139.6983  162.0311 C   0  0  0  0  0  0  0  0  0  0  0  0
  154.3222  138.8295  160.9405 C   0  0  0  0  0  0  0  0  0  0  0  0
  153.6274  139.2946  159.8006 C   0  0  0  0  0  0  0  0  0  0  0  0
  153.4026  138.3883  158.5849 C   0  0  0  0  0  0  0  0  0  0  0  0
  152.0394  138.2879  158.0827 N   0  0  0  0  0  0  0  0  0  0  0  0
  151.0863  137.6154  158.8859 C   0  0  0  0  0  0  0  0  0  0  0  0
  151.3939  137.1142  159.9695 O   0  0  0  0  0  0  0  0  0  0  0  0
  149.7257  137.5862  158.3436 C   0  0  0  0  0  0  0  0  0  0  0  0
  148.6448  136.8915  159.1570 C   0  0  0  0  0  0  0  0  0  0  0  0
  149.4631  138.1776  157.1532 C   0  0  0  0  0  0  0  0  0  0  0  0
  150.4160  138.8200  156.3821 N   0  0  0  0  0  0  0  0  0  0  0  0
  150.0009  139.5009  155.0957 C   0  0  2  0  0  0  0  0  0  0  0  0
  150.0418  141.0366  155.1725 C   0  0  0  0  0  0  0  0  0  0  0  0
  148.6010  141.4360  154.8897 C   0  0  1  0  0  0  0  0  0  0  0  0
  148.5524  142.5967  154.0852 O   0  0  0  0  0  0  0  0  0  0  0  0
  148.0296  140.2086  154.1707 C   0  0  2  0  0  0  0  0  0  0  0  0
  146.5114  140.0259  154.3197 C   0  0  0  0  0  0  0  0  0  0  0  0
  145.8374  141.2360  154.0458 O   0  0  0  0  0  0  0  0  0  0  0  0
  148.6942  139.1203  154.7970 O   0  0  0  0  0  0  0  0  0  0  0  0
  151.7433  138.9194  156.8538 C   0  0  0  0  0  0  0  0  0  0  0  0
  152.5994  139.5467  156.2268 O   0  0  0  0  0  0  0  0  0  0  0  0
  153.1425  140.6306  159.8164 C   0  0  0  0  0  0  0  0  0  0  0  0
  152.4355  141.1740  158.7165 C   0  0  0  0  0  0  0  0  0  0  0  0
  151.9632  142.4982  158.7526 C   0  0  0  0  0  0  0  0  0  0  0  0
  152.1928  143.2933  159.8875 C   0  0  0  0  0  0  0  0  0  0  0  0
  152.8950  142.7617  160.9839 C   0  0  0  0  0  0  0  0  0  0  0  0
  153.3776  141.4353  160.9704 C   0  0  0  0  0  0  0  0  0  0  0  0
  154.0460  140.9656  162.0466 N   0  0  0  0  0  0  0  0  0  0  0  0
  155.2337  138.1549  163.3535 H   0  0  0  0  0  0  0  0  0  0  0  0
  154.7956  139.6564  164.1700 H   0  0  0  0  0  0  0  0  0  0  0  0
  156.2869  139.5689  163.2227 H   0  0  0  0  0  0  0  0  0  0  0  0
  154.7169  137.8259  160.9928 H   0  0  0  0  0  0  0  0  0  0  0  0
  154.0308  138.7118  157.7534 H   0  0  0  0  0  0  0  0  0  0  0  0
  153.7448  137.3753  158.8022 H   0  0  0  0  0  0  0  0  0  0  0  0
  147.6764  136.9231  158.6572 H   0  0  0  0  0  0  0  0  0  0  0  0
  148.5335  137.3713  160.1302 H   0  0  0  0  0  0  0  0  0  0  0  0
  148.9023  135.8442  159.3187 H   0  0  0  0  0  0  0  0  0  0  0  0
  148.4468  138.1434  156.7874 H   0  0  0  0  0  0  0  0  0  0  0  0
  150.6666  139.1212  154.3198 H   0  0  0  0  0  0  0  0  0  0  0  0
  150.4042  141.3984  156.1353 H   0  0  0  0  0  0  0  0  0  0  0  0
  150.7202  141.3939  154.3964 H   0  0  0  0  0  0  0  0  0  0  0  0
  148.0715  141.6159  155.8256 H   0  0  0  0  0  0  0  0  0  0  0  0
  148.3301  143.3319  154.6364 H   0  0  0  0  0  0  0  0  0  0  0  0
  148.3189  140.2105  153.1178 H   0  0  0  0  0  0  0  0  0  0  0  0
  146.1556  139.2704  153.6186 H   0  0  0  0  0  0  0  0  0  0  0  0
  146.2554  139.6809  155.3222 H   0  0  0  0  0  0  0  0  0  0  0  0
  145.3001  141.1134  153.2781 H   0  0  0  0  0  0  0  0  0  0  0  0
  152.2423  140.5904  157.8293 H   0  0  0  0  0  0  0  0  0  0  0  0
  151.4244  142.9036  157.9087 H   0  0  0  0  0  0  0  0  0  0  0  0
  151.8311  144.3106  159.9185 H   0  0  0  0  0  0  0  0  0  0  0  0
  153.0655  143.3830  161.8510 H   0  0  0  0  0  0  0  0  0  0  0  0
  1  2  1  0  0  0  0
  1 30  1  0  0  0  0
  1 31  1  0  0  0  0
  1 32  1  0  0  0  0
  2 29  1  0  0  0  0
  2  3  2  0  0  0  0
  3  4  1  0  0  0  0
  3 33  1  0  0  0  0
  4  5  1  0  0  0  0
  4 23  2  0  0  0  0
  5  6  1  0  0  0  0
  5 34  1  0  0  0  0
  5 35  1  0  0  0  0
  6 21  1  0  0  0  0
  6  7  1  0  0  0  0
  7  8  2  0  0  0  0
  7  9  1  0  0  0  0
  9 10  1  0  0  0  0
  9 11  2  0  0  0  0
 10 36  1  0  0  0  0
 10 37  1  0  0  0  0
 10 38  1  0  0  0  0
 11 12  1  0  0  0  0
 11 39  1  0  0  0  0
 12 13  1  0  0  0  0
 12 21  1  0  0  0  0
 13 20  1  0  0  0  0
 13 14  1  0  0  0  0
 13 40  1  0  0  0  0
 14 15  1  0  0  0  0
 14 41  1  0  0  0  0
 14 42  1  0  0  0  0
 15 16  1  0  0  0  0
 15 17  1  0  0  0  0
 15 43  1  0  0  0  0
 16 44  1  0  0  0  0
 17 18  1  0  0  0  0
 17 20  1  0  0  0  0
 17 45  1  0  0  0  0
 18 19  1  0  0  0  0
 18 46  1  0  0  0  0
 18 47  1  0  0  0  0
 19 48  1  0  0  0  0
 21 22  2  0  0  0  0
 23 28  1  0  0  0  0
 23 24  1  0  0  0  0
 24 25  2  0  0  0  0
 24 49  1  0  0  0  0
 25 26  1  0  0  0  0
 25 50  1  0  0  0  0
 26 27  2  0  0  0  0
 26 51  1  0  0  0  0
 27 28  1  0  0  0  0
 27 52  1  0  0  0  0
 28 29  2  0  0  0  0
M  END
> <s_m_source_file>
AV-unprocessed.smi

> <i_m_source_file_index>
113

> <i_lp_mmshare_version>
43012

> <i_f3d_flags>
0

> <s_epik_input>
W2NIXTFbY0hdW2NIXVtjSF1jKGMxMiluYyhbQ0gzXSlbY0hdYzJbQ0gyXW4zYyg9TyljKFtDSDNdKVtjSF1uKGMzPU8pW0NAQEhdNFtDSDJdW0NAQEhdKFtPSF0pW0NASF0oTzQpW0NIMl1bT0hd

> <s_epik_cmdline>
J2VwaWtfcHl0aG9uJywgJy1waCcsICc3LjAnLCAnLXRuJywgJzgnLCAnLW1hJywgJzIwMCcsICctbWV0YWxfYmluZGluZycsICctaW1hZScsICc8aW5maWxlLm1hZT4nLCAnLW9tYWUnLCAnPG91dGZpbGUubWFlPic=

> <r_lp_tautomer_probability>
1

> <r_epik_Ionization_Penalty>
0.214728

> <r_epik_Ionization_Penalty_Charging>
3.04883e-08

> <r_epik_Ionization_Penalty_Neutral>
0.214728

> <r_epik_State_Penalty>
0.204913

> <r_epik_Charging_Adjusted_Penalty>
0.204913

> <i_epik_Tot_Q>
0

> <i_epik_Tot_abs_Q>
0

> <r_epik_Metal_State_Penalty>
0.000244761

> <b_epik_Metal_Only>
0

> <s_epik_Chemistry_Notes>
This compound contains an acetal/aminal-like group ( X-CH(R)-Y where X, Y are N, S, or O) that may be acid/base labile, releasing an aldehyde.

> <s_lp_Force_Field>
OPLS_2005

> <r_lp_Energy>
32.9041

> <b_lp_Chiralities_Consistent>
1

> <s_lp_Variant>
AV-unprocessed.smi:113-5

> <Gold.Version>
5.8.1

> <Gold.Id.Protein>
6NUR|6NUR_protein|mol2

> <Gold.PLP.Fitness>
60.4000

> <Gold.PLP.PLP>
-49.0003

> <Gold.PLP.part.hbond>
-6.0271

> <Gold.PLP.part.metal>
0.0000

> <Gold.PLP.part.buried>
-5.3389

> <Gold.PLP.part.nonpolar>
-37.9393

> <Gold.PLP.part.repulsive>
0.1056

> <Gold.PLP.ligand.clash>
0.0000

> <Gold.PLP.ligand.torsion>
0.4351

> <Gold.PLP.Chemscore.Hbond>
4.0769

> <Gold.PLP.Chemscore.CHOScore>
0.0000

> <Gold.PLP.Chemscore.Metal>
0.0000

> <Gold.Chemscore.Hbonds>
donor molecule, donor type, donor heavy atom, donor atom, acceptor molecule, acceptor atom, score
      L1  H    16    44       P1  8028  0.99
      L1  H    19    48       P1 10175  1.00
      P1  H  6896  6909       L1     8  1.00
      P1  H  7997  8010       L1    22  1.00
      P1  H  8011  8017       L1    16  0.07

> <Gold.PLP.Chemscore.Internal.Correction>
0.0391

> <Gold.Rescore>
     Score         DG    S(hbond)    S(metal)    S(lipo)     H(rot)  DE(clash)    DE(int)     intcor
     23.14     -24.59       3.68        0.00     122.89       2.95       0.10       1.35       ----

> <Gold.Chemscore.Fitness>
23.1367

> <Gold.Chemscore.DG>
-24.5902

> <Gold.Chemscore.ZeroCoef>
-5.4800

> <Gold.Chemscore.Hbond>
3.6753

> <Gold.Chemscore.Metal>
0.0000

> <Gold.Chemscore.Lipo>
122.8926

> <Gold.Chemscore.Internal_Hbond>
0.0000

> <Gold.Chemscore.DEClash>
0.1028

> <Gold.Chemscore.DEInternal>
1.3507

> <Gold.Chemscore.Rot>
2.9469

> <Gold.Chemscore.Internal.Correction>
   9.000000E+99

> <Gold.Chemscore.Hbonds>
donor molecule, donor type, donor heavy atom, donor atom, acceptor molecule, acceptor atom, score
      L1  H    16    44       P1  8028  0.93
      L1  H    19    48       P1 10175  0.33
      P1  H  6896  6909       L1     8  0.90
      P1  H  7997  8010       L1    22  1.00
      P1  H  8011  8017       L1    16  0.07

> <Gold.Chemscore.Hbond.Weighted>
-12.2757

> <Gold.Chemscore.Metal.Weighted>
-0.0000

> <Gold.Chemscore.Lipo.Weighted>
-14.3784

> <Gold.Chemscore.Internal_Hbond.Weighted>
0.0000

> <Gold.Chemscore.DEClash.Weighted>
0.1028

> <Gold.Chemscore.DEInternal.Weighted>
1.3507

> <Gold.Chemscore.Rot.Weighted>
7.5439

> <Gold.Chemscore.Internal.Correction.Weighted>
   9.000000E+99

> <Gold.Protein.RotatedTorsions>
[ 6907 6896 6895 6894 ] final  113.15 input  -60.11 | X-H torsion
[ 7974 7965 7964 7962 ] final   18.24 input  175.53 | X-H torsion
[ 8008 7997 7996 7995 ] final   79.68 input   59.86 | X-H torsion
[ 10167 10162 10161 10158 ] final  -39.41 input  -65.29 | X-H torsion
[ 10718 10713 10712 10709 ] final  168.54 input   66.30 | X-H torsion
[ 10763 10752 10751 10750 ] final   47.65 input  -60.55 | X-H torsion
[ 11005 11000 10999 10996 ] final   67.55 input  -57.11 | X-H torsion

> <Gold.Protein.ActiveResidues>
 VAL166  LYS551  ARG553  GLY616  TRP617  ASP618  TYR619  PRO620  LYS621  CYS622 
 ASP623  PHE694  ASN695  SER759  ASP760  ASP761  ALA762  ILE779  LEU786  VAL792 
 PHE793  MET794  SER795  GLU796  ALA797  LYS798  CYS799  TRP800  GLU811  SER814 

> <Gold.Protein.RotatedAtoms>
  152.4877  133.8416  159.7155 H   0  0  0  0  0  0  0  0  0  0  0  0  # atno 6907 bound_to 6896
  150.8978  133.7149  159.2893 H   0  0  0  0  0  0  0  0  0  0  0  0  # atno 6908 bound_to 6896
  151.4600  135.1041  159.9774 H   0  0  0  0  0  0  0  0  0  0  0  0  # atno 6909 bound_to 6896
  146.2191  139.8486  142.8627 H   0  0  0  0  0  0  0  0  0  0  0  0  # atno 7974 bound_to 7965
  155.8731  140.3448  155.5835 H   0  0  0  0  0  0  0  0  0  0  0  0  # atno 8008 bound_to 7997
  155.7805  140.0857  157.2081 H   0  0  0  0  0  0  0  0  0  0  0  0  # atno 8009 bound_to 7997
  154.4019  140.1501  156.3033 H   0  0  0  0  0  0  0  0  0  0  0  0  # atno 8010 bound_to 7997
  140.7065  143.3216  151.2779 H   0  0  0  0  0  0  0  0  0  0  0  0  # atno 10167 bound_to 10162
  157.0357  131.0272  151.2730 H   0  0  0  0  0  0  0  0  0  0  0  0  # atno 10718 bound_to 10713
  152.9798  135.5969  154.3798 H   0  0  0  0  0  0  0  0  0  0  0  0  # atno 10763 bound_to 10752
  154.3463  135.2767  155.2397 H   0  0  0  0  0  0  0  0  0  0  0  0  # atno 10764 bound_to 10752
  154.4457  135.6002  153.6213 H   0  0  0  0  0  0  0  0  0  0  0  0  # atno 10765 bound_to 10752
  139.9764  134.6816  156.0346 H   0  0  0  0  0  0  0  0  0  0  0  0  # atno 11005 bound_to 11000
  145.2825  141.0143  143.3709 LP  0  0  0  0  0  0  0  0  0  0  0  0  # atno 17320 bound_to 7965
  144.9139  139.4494  143.6574 LP  0  0  0  0  0  0  0  0  0  0  0  0  # atno 17321 bound_to 7965
  139.6671  144.0085  152.2730 LP  0  0  0  0  0  0  0  0  0  0  0  0  # atno 17342 bound_to 10162
  139.9672  144.6518  150.8023 LP  0  0  0  0  0  0  0  0  0  0  0  0  # atno 17343 bound_to 10162
  157.5143  130.7958  149.7739 LP  0  0  0  0  0  0  0  0  0  0  0  0  # atno 17370 bound_to 10713
  156.0055  130.3858  150.2449 LP  0  0  0  0  0  0  0  0  0  0  0  0  # atno 17371 bound_to 10713
  141.1440  133.6559  156.3814 LP  0  0  0  0  0  0  0  0  0  0  0  0  # atno 17394 bound_to 11000
  140.5186  134.6326  157.5310 LP  0  0  0  0  0  0  0  0  0  0  0  0  # atno 17395 bound_to 11000

$$$$
