AV-unprocessed.smi:57|AV-procd|sdf|581|dock5
  -GOLD-   2262016483D 1   1.00000     0.00000
 Structure written by MMmdl.
 27 28  0  0  0  0  0  0  0  0  1 V2000
  151.7010  137.2400  153.5226 N   0  0  0  0  0  0  0  0  0  0  0  0
  151.6182  138.2391  154.4110 C   0  0  0  0  0  0  0  0  0  0  0  0
  152.5735  138.2592  155.4249 N   0  0  0  0  0  0  0  0  0  0  0  0
  152.6314  139.2314  156.4323 C   0  0  0  0  0  0  0  0  0  0  0  0
  153.5122  139.1671  157.2872 O   0  0  0  0  0  0  0  0  0  0  0  0
  151.5897  140.2105  156.2995 C   0  0  0  0  0  0  0  0  0  0  0  0
  151.3006  141.3275  157.0789 N   0  0  0  0  0  0  0  0  0  0  0  0
  150.2594  141.8601  156.5012 C   0  0  0  0  0  0  0  0  0  0  0  0
  149.8274  141.1748  155.3932 N   0  0  0  0  0  0  0  0  0  0  0  0
  148.7180  141.4740  154.5100 C   0  0  0  0  0  0  0  0  0  0  0  0
  148.3982  140.3042  153.8336 O   0  0  0  0  0  0  0  0  0  0  0  0
  147.2316  140.4174  153.0360 C   0  0  0  0  0  0  0  0  0  0  0  0
  146.7033  139.0093  152.7453 C   0  0  0  0  0  0  0  0  0  0  0  0
  147.4888  138.3975  151.7457 O   0  0  0  0  0  0  0  0  0  0  0  0
  150.6869  140.1069  155.2596 C   0  0  0  0  0  0  0  0  0  0  0  0
  150.6591  139.1400  154.2907 N   0  0  0  0  0  0  0  0  0  0  0  0
  152.4298  136.5457  153.6019 H   0  0  0  0  0  0  0  0  0  0  0  0
  151.0306  137.1840  152.7693 H   0  0  0  0  0  0  0  0  0  0  0  0
  153.2766  137.5352  155.4491 H   0  0  0  0  0  0  0  0  0  0  0  0
  149.7851  142.7603  156.8643 H   0  0  0  0  0  0  0  0  0  0  0  0
  149.0165  142.2531  153.8066 H   0  0  0  0  0  0  0  0  0  0  0  0
  147.8815  141.8314  155.1136 H   0  0  0  0  0  0  0  0  0  0  0  0
  146.4727  141.0011  153.5601 H   0  0  0  0  0  0  0  0  0  0  0  0
  147.4646  140.9347  152.1036 H   0  0  0  0  0  0  0  0  0  0  0  0
  146.7304  138.3959  153.6463 H   0  0  0  0  0  0  0  0  0  0  0  0
  145.6668  139.0524  152.4093 H   0  0  0  0  0  0  0  0  0  0  0  0
  147.9666  137.6818  152.1368 H   0  0  0  0  0  0  0  0  0  0  0  0
  1  2  1  0  0  0  0
  1 18  1  0  0  0  0
  1 17  1  0  0  0  0
  2 16  2  0  0  0  0
  2  3  1  0  0  0  0
  3 19  1  0  0  0  0
  3  4  1  0  0  0  0
  4  5  2  0  0  0  0
  4  6  1  0  0  0  0
  6 15  2  0  0  0  0
  6  7  1  0  0  0  0
  7  8  2  0  0  0  0
  8 20  1  0  0  0  0
  8  9  1  0  0  0  0
  9 10  1  0  0  0  0
  9 15  1  0  0  0  0
 10 11  1  0  0  0  0
 10 21  1  0  0  0  0
 10 22  1  0  0  0  0
 11 12  1  0  0  0  0
 12 13  1  0  0  0  0
 12 23  1  0  0  0  0
 12 24  1  0  0  0  0
 13 14  1  0  0  0  0
 13 25  1  0  0  0  0
 13 26  1  0  0  0  0
 14 27  1  0  0  0  0
 15 16  1  0  0  0  0
M  END
> <s_m_source_file>
AV-unprocessed.smi

> <i_m_source_file_index>
57

> <i_lp_mmshare_version>
43012

> <i_f3d_flags>
0

> <s_epik_input>
Tz1jMW5jKFtOSDJdKVtuSF1jKGMxMiluKFtjSF1uMilbQ0gyXU9bQ0gyXVtDSDJdW09IXQ==

> <s_epik_cmdline>
J2VwaWtfcHl0aG9uJywgJy1waCcsICc3LjAnLCAnLXRuJywgJzgnLCAnLW1hJywgJzIwMCcsICctbWV0YWxfYmluZGluZycsICctaW1hZScsICc8aW5maWxlLm1hZT4nLCAnLW9tYWUnLCAnPG91dGZpbGUubWFlPic=

> <r_lp_tautomer_probability>
1

> <r_epik_Ionization_Penalty>
0.00151458

> <r_epik_Ionization_Penalty_Charging>
0.0014384

> <r_epik_Ionization_Penalty_Neutral>
7.61793e-05

> <r_epik_State_Penalty>
-0

> <r_epik_Charging_Adjusted_Penalty>
0.0014384

> <i_epik_Tot_Q>
0

> <i_epik_Tot_abs_Q>
0

> <r_epik_Metal_State_Penalty>
0.317918

> <b_epik_Metal_Only>
0

> <s_epik_Chemistry_Notes>
This compound contains an acetal/aminal-like group ( X-CH(R)-Y where X, Y are N, S, or O) that may be acid/base labile, releasing an aldehyde.

> <s_lp_Force_Field>
OPLS_2005

> <r_lp_Energy>
2.65481

> <b_lp_Chiralities_Consistent>
1

> <s_lp_Variant>
AV-unprocessed.smi:57-1

> <Gold.Version>
5.8.1

> <Gold.Id.Protein>
6NUR|6NUR_protein|mol2

> <Gold.PLP.Fitness>
38.7350

> <Gold.PLP.PLP>
-27.0408

> <Gold.PLP.part.hbond>
-5.3063

> <Gold.PLP.part.metal>
0.0000

> <Gold.PLP.part.buried>
-0.9670

> <Gold.PLP.part.nonpolar>
-23.4216

> <Gold.PLP.part.repulsive>
3.1437

> <Gold.PLP.ligand.clash>
0.0000

> <Gold.PLP.ligand.torsion>
0.4475

> <Gold.PLP.Chemscore.Hbond>
3.1940

> <Gold.PLP.Chemscore.CHOScore>
1.0000

> <Gold.PLP.Chemscore.Metal>
0.0000

> <Gold.Chemscore.Hbonds>
donor molecule, donor type, donor heavy atom, donor atom, acceptor molecule, acceptor atom, score
      L1  H     1    18       P1  7949  0.45
      L1  H    14    27       P1  7948  0.90
      P1  H  7954  7966       L1    14  0.50
      P1  H  7997  8008       L1     5  0.76
      L1  C     8    20       P1  8028  1.00

> <Gold.PLP.Chemscore.Internal.Correction>
0.0072

> <Gold.Rescore>
     Score         DG    S(hbond)    S(metal)    S(lipo)     H(rot)  DE(clash)    DE(int)     intcor
      1.59      -4.49       1.88        0.00      19.65       3.74       0.69       2.20       ----

> <Gold.Chemscore.Fitness>
1.5934

> <Gold.Chemscore.DG>
-4.4898

> <Gold.Chemscore.ZeroCoef>
-5.4800

> <Gold.Chemscore.Hbond>
1.8809

> <Gold.Chemscore.Metal>
0.0000

> <Gold.Chemscore.Lipo>
19.6460

> <Gold.Chemscore.Internal_Hbond>
0.0000

> <Gold.Chemscore.DEClash>
0.6931

> <Gold.Chemscore.DEInternal>
2.2033

> <Gold.Chemscore.Rot>
3.7387

> <Gold.Chemscore.Internal.Correction>
   9.000000E+99

> <Gold.Chemscore.Hbonds>
donor molecule, donor type, donor heavy atom, donor atom, acceptor molecule, acceptor atom, score
      L1  H     1    18       P1  7949  0.13
      L1  H    14    27       P1  7948  0.88
      P1  H  7954  7966       L1    14  0.02
      P1  H  7997  8008       L1     5  0.66

> <Gold.Chemscore.Hbond.Weighted>
-6.2821

> <Gold.Chemscore.Metal.Weighted>
-0.0000

> <Gold.Chemscore.Lipo.Weighted>
-2.2986

> <Gold.Chemscore.Internal_Hbond.Weighted>
0.0000

> <Gold.Chemscore.DEClash.Weighted>
0.6931

> <Gold.Chemscore.DEInternal.Weighted>
2.2033

> <Gold.Chemscore.Rot.Weighted>
9.5710

> <Gold.Chemscore.Internal.Correction.Weighted>
   9.000000E+99

> <Gold.Protein.RotatedTorsions>
[ 6907 6896 6895 6894 ] final -115.15 input  -60.11 | X-H torsion
[ 7974 7965 7964 7962 ] final -122.35 input  175.53 | X-H torsion
[ 8008 7997 7996 7995 ] final  -91.54 input   59.86 | X-H torsion
[ 10167 10162 10161 10158 ] final   61.41 input  -65.29 | X-H torsion
[ 10718 10713 10712 10709 ] final  -27.15 input   66.30 | X-H torsion
[ 10763 10752 10751 10750 ] final   62.86 input  -60.55 | X-H torsion
[ 11005 11000 10999 10996 ] final -114.16 input  -57.11 | X-H torsion

> <Gold.Protein.ActiveResidues>
 VAL166  LYS551  ARG553  GLY616  TRP617  ASP618  TYR619  PRO620  LYS621  CYS622 
 ASP623  PHE694  ASN695  SER759  ASP760  ASP761  ALA762  ILE779  LEU786  VAL792 
 PHE793  MET794  SER795  GLU796  ALA797  LYS798  CYS799  TRP800  GLU811  SER814 

> <Gold.Protein.RotatedAtoms>
  150.7956  133.8699  159.3255 H   0  0  0  0  0  0  0  0  0  0  0  0  # atno 6907 bound_to 6896
  151.6525  135.0998  160.0173 H   0  0  0  0  0  0  0  0  0  0  0  0  # atno 6908 bound_to 6896
  152.4037  133.6817  159.6373 H   0  0  0  0  0  0  0  0  0  0  0  0  # atno 6909 bound_to 6896
  145.0304  140.8063  143.4327 H   0  0  0  0  0  0  0  0  0  0  0  0  # atno 7974 bound_to 7965
  154.7120  140.0518  157.0559 H   0  0  0  0  0  0  0  0  0  0  0  0  # atno 8008 bound_to 7997
  155.0542  140.3182  155.4663 H   0  0  0  0  0  0  0  0  0  0  0  0  # atno 8009 bound_to 7997
  156.2792  140.2110  156.5668 H   0  0  0  0  0  0  0  0  0  0  0  0  # atno 8010 bound_to 7997
  140.1551  144.4425  150.6738 H   0  0  0  0  0  0  0  0  0  0  0  0  # atno 10167 bound_to 10162
  156.4419  130.4466  149.7047 H   0  0  0  0  0  0  0  0  0  0  0  0  # atno 10718 bound_to 10713
  152.9997  135.5450  154.6260 H   0  0  0  0  0  0  0  0  0  0  0  0  # atno 10763 bound_to 10752
  154.5548  135.2829  155.0977 H   0  0  0  0  0  0  0  0  0  0  0  0  # atno 10764 bound_to 10752
  154.2202  135.6452  153.5195 H   0  0  0  0  0  0  0  0  0  0  0  0  # atno 10765 bound_to 10752
  141.0569  133.9598  157.2737 H   0  0  0  0  0  0  0  0  0  0  0  0  # atno 11005 bound_to 11000
  145.1777  139.2369  143.5308 LP  0  0  0  0  0  0  0  0  0  0  0  0  # atno 17320 bound_to 7965
  146.3498  140.1544  142.8592 LP  0  0  0  0  0  0  0  0  0  0  0  0  # atno 17321 bound_to 7965
  140.6678  143.2274  151.5700 LP  0  0  0  0  0  0  0  0  0  0  0  0  # atno 17342 bound_to 10162
  139.5407  144.2655  152.1345 LP  0  0  0  0  0  0  0  0  0  0  0  0  # atno 17343 bound_to 10162
  156.3908  130.7626  151.2627 LP  0  0  0  0  0  0  0  0  0  0  0  0  # atno 17370 bound_to 10713
  157.7506  131.0268  150.3979 LP  0  0  0  0  0  0  0  0  0  0  0  0  # atno 17371 bound_to 10713
  139.9398  135.0192  156.8672 LP  0  0  0  0  0  0  0  0  0  0  0  0  # atno 17394 bound_to 11000
  140.5946  134.0230  155.7513 LP  0  0  0  0  0  0  0  0  0  0  0  0  # atno 17395 bound_to 11000

$$$$
