AV-unprocessed.smi:2060|AV-procd|sdf|8359|dock8
  -GOLD-   2272011 33D 1   1.00000     0.00000
 Structure written by MMmdl.
 45 46  0  0  0  0  0  0  0  0  3 V2000
  145.1388  143.7047  153.9451 C   0  0  0  0  0  0  0  0  0  0  0  0
  146.5128  142.9994  153.9926 C   0  0  0  0  0  0  0  0  0  0  0  0
  146.5730  141.5344  154.5583 C   0  0  2  0  0  0  0  0  0  0  0  0
  145.4092  141.3747  155.5896 C   0  0  0  0  0  0  0  0  0  0  0  0
  147.9299  141.2527  155.3072 C   0  0  0  0  0  0  0  0  0  0  0  0
  148.0694  142.1075  156.4926 N   0  5  0  0  0  0  0  0  0  0  0  0
  149.0441  141.9749  157.4330 C   0  0  0  0  0  0  0  0  0  0  0  0
  149.1601  141.0768  158.2748 O   0  0  0  0  0  0  0  0  0  0  0  0
  149.9423  142.9754  157.3777 N   0  0  0  0  0  0  0  0  0  0  0  0
  151.0856  143.1901  158.1924 C   0  0  0  0  0  0  0  0  0  0  0  0
  151.5602  142.1686  159.0580 C   0  0  0  0  0  0  0  0  0  0  0  0
  152.6462  142.7468  159.6525 C   0  0  0  0  0  0  0  0  0  0  0  0
  153.6254  142.2634  160.6665 C   0  0  0  0  0  0  0  0  0  0  0  0
  152.8214  144.0138  159.1892 O   0  0  0  0  0  0  0  0  0  0  0  0
  151.8187  144.2919  158.2527 N   0  0  0  0  0  0  0  0  0  0  0  0
  146.4411  140.5385  153.4185 N   0  3  0  0  0  0  0  0  0  0  0  0
  147.2374  140.8114  152.1866 C   0  0  0  0  0  0  0  0  0  0  0  0
  146.8350  139.8504  151.0537 C   0  0  0  0  0  0  0  0  0  0  0  0
  146.9874  138.5019  151.4718 O   0  0  0  0  0  0  0  0  0  0  0  0
  146.1589  138.2062  152.5867 C   0  0  0  0  0  0  0  0  0  0  0  0
  146.5770  139.0900  153.7704 C   0  0  0  0  0  0  0  0  0  0  0  0
  145.2500  144.7190  153.5616 H   0  0  0  0  0  0  0  0  0  0  0  0
  144.6788  143.7850  154.9299 H   0  0  0  0  0  0  0  0  0  0  0  0
  144.4398  143.1925  153.2847 H   0  0  0  0  0  0  0  0  0  0  0  0
  146.8907  142.9889  152.9695 H   0  0  0  0  0  0  0  0  0  0  0  0
  147.1926  143.6577  154.5377 H   0  0  0  0  0  0  0  0  0  0  0  0
  145.5418  141.9849  156.4857 H   0  0  0  0  0  0  0  0  0  0  0  0
  145.2888  140.3459  155.9357 H   0  0  0  0  0  0  0  0  0  0  0  0
  144.4547  141.6850  155.1633 H   0  0  0  0  0  0  0  0  0  0  0  0
  147.9642  140.1951  155.5712 H   0  0  0  0  0  0  0  0  0  0  0  0
  148.7611  141.3990  154.6175 H   0  0  0  0  0  0  0  0  0  0  0  0
  149.7853  143.6656  156.6588 H   0  0  0  0  0  0  0  0  0  0  0  0
  151.1691  141.1749  159.2185 H   0  0  0  0  0  0  0  0  0  0  0  0
  153.4740  141.2053  160.8809 H   0  0  0  0  0  0  0  0  0  0  0  0
  153.5185  142.8164  161.5997 H   0  0  0  0  0  0  0  0  0  0  0  0
  154.6473  142.3931  160.3100 H   0  0  0  0  0  0  0  0  0  0  0  0
  147.0726  141.8177  151.8071 H   0  0  0  0  0  0  0  0  0  0  0  0
  148.3015  140.7157  152.4058 H   0  0  0  0  0  0  0  0  0  0  0  0
  145.8048  140.0304  150.7420 H   0  0  0  0  0  0  0  0  0  0  0  0
  147.4636  140.0201  150.1793 H   0  0  0  0  0  0  0  0  0  0  0  0
  145.1076  138.3567  152.3349 H   0  0  0  0  0  0  0  0  0  0  0  0
  146.2787  137.1535  152.8433 H   0  0  0  0  0  0  0  0  0  0  0  0
  147.6104  138.8609  154.0329 H   0  0  0  0  0  0  0  0  0  0  0  0
  145.9648  138.8234  154.6312 H   0  0  0  0  0  0  0  0  0  0  0  0
  145.4783  140.6561  153.1319 H   0  0  0  0  0  0  0  0  0  0  0  0
  1  2  1  0  0  0  0
  1 22  1  0  0  0  0
  1 23  1  0  0  0  0
  1 24  1  0  0  0  0
  2  3  1  0  0  0  0
  2 25  1  0  0  0  0
  2 26  1  0  0  0  0
  3  4  1  0  0  0  0
  3  5  1  0  0  0  0
  3 16  1  0  0  0  0
  4 27  1  0  0  0  0
  4 28  1  0  0  0  0
  4 29  1  0  0  0  0
  5  6  1  0  0  0  0
  5 30  1  0  0  0  0
  5 31  1  0  0  0  0
  6  7  1  0  0  0  0
  7  8  2  0  0  0  0
  7  9  1  0  0  0  0
  9 10  1  0  0  0  0
  9 32  1  0  0  0  0
 10 15  2  0  0  0  0
 10 11  1  0  0  0  0
 11 12  2  0  0  0  0
 11 33  1  0  0  0  0
 12 13  1  0  0  0  0
 12 14  1  0  0  0  0
 13 34  1  0  0  0  0
 13 35  1  0  0  0  0
 13 36  1  0  0  0  0
 14 15  1  0  0  0  0
 16 21  1  0  0  0  0
 16 17  1  0  0  0  0
 16 45  1  0  0  0  0
 17 18  1  0  0  0  0
 17 37  1  0  0  0  0
 17 38  1  0  0  0  0
 18 19  1  0  0  0  0
 18 39  1  0  0  0  0
 18 40  1  0  0  0  0
 19 20  1  0  0  0  0
 20 21  1  0  0  0  0
 20 41  1  0  0  0  0
 20 42  1  0  0  0  0
 21 43  1  0  0  0  0
 21 44  1  0  0  0  0
M  CHG  1   6  -1
M  CHG  1  16   1
M  END
> <s_m_source_file>
AV-unprocessed.smi

> <i_m_source_file_index>
2060

> <i_lp_mmshare_version>
43012

> <i_f3d_flags>
0

> <s_epik_input>
W0NIMl0xW0NIMl1PW0NIMl1bQ0gyXU4xW0NAQF0oW0NIM10pKFtDSDJdW0NIM10pW0NIMl1bTkhdQyg9TylbTkhdYzJbY0hdYyhbQ0gzXSlvbjI=

> <s_epik_cmdline>
J2VwaWtfcHl0aG9uJywgJy1waCcsICc3LjAnLCAnLXRuJywgJzgnLCAnLW1hJywgJzIwMCcsICctbWV0YWxfYmluZGluZycsICctaW1hZScsICc8aW5maWxlLm1hZT4nLCAnLW9tYWUnLCAnPG91dGZpbGUubWFlPic=

> <r_epik_Ionization_Penalty>
6.79469

> <r_epik_Ionization_Penalty_Charging>
6.79469

> <r_epik_Ionization_Penalty_Neutral>
5.68576e-06

> <r_epik_State_Penalty>
7.33145

> <r_epik_Charging_Adjusted_Penalty>
14.1261

> <i_epik_Tot_Q>
0

> <i_epik_Tot_abs_Q>
2

> <r_epik_Metal_State_Penalty>
3.24803

> <b_epik_Metal_Only>
1

> <s_lp_Force_Field>
OPLS_2005

> <r_lp_Energy>
28.6548

> <b_lp_Chiralities_Consistent>
1

> <s_lp_Variant>
AV-unprocessed.smi:2060-6

> <Gold.Version>
5.8.1

> <Gold.Id.Protein>
6NUR|6NUR_protein|mol2

> <Gold.PLP.Fitness>
39.4843

> <Gold.PLP.PLP>
-30.4254

> <Gold.PLP.part.hbond>
-3.0000

> <Gold.PLP.part.metal>
0.0000

> <Gold.PLP.part.buried>
-2.9080

> <Gold.PLP.part.nonpolar>
-26.8683

> <Gold.PLP.part.repulsive>
2.7702

> <Gold.PLP.ligand.clash>
0.0000

> <Gold.PLP.ligand.torsion>
1.6184

> <Gold.PLP.Chemscore.Hbond>
4.0000

> <Gold.PLP.Chemscore.CHOScore>
0.0000

> <Gold.PLP.Chemscore.Metal>
0.0000

> <Gold.Chemscore.Hbonds>
donor molecule, donor type, donor heavy atom, donor atom, acceptor molecule, acceptor atom, score
      L1  H     9    32       P1  8028  1.00
      L1  H    16    45       P1 10175  2.00
      P1  H  7954  7966       L1    19  0.77

> <Gold.PLP.Chemscore.Internal.Correction>
0.2956

> <Gold.Rescore>
     Score         DG    S(hbond)    S(metal)    S(lipo)     H(rot)  DE(clash)    DE(int)     intcor
     13.92     -18.28       2.14        0.00      86.28       1.73       1.50       2.87       ----

> <Gold.Chemscore.Fitness>
13.9179

> <Gold.Chemscore.DG>
-18.2839

> <Gold.Chemscore.ZeroCoef>
-5.4800

> <Gold.Chemscore.Hbond>
2.1366

> <Gold.Chemscore.Metal>
0.0000

> <Gold.Chemscore.Lipo>
86.2809

> <Gold.Chemscore.Internal_Hbond>
0.0000

> <Gold.Chemscore.DEClash>
1.4955

> <Gold.Chemscore.DEInternal>
2.8705

> <Gold.Chemscore.Rot>
1.7294

> <Gold.Chemscore.Internal.Correction>
   9.000000E+99

> <Gold.Chemscore.Hbonds>
donor molecule, donor type, donor heavy atom, donor atom, acceptor molecule, acceptor atom, score
      L1  H     9    32       P1  8028  0.99
      L1  H    16    45       P1 10175  0.78
      P1  H  7954  7966       L1    19  0.13

> <Gold.Chemscore.Hbond.Weighted>
-7.1363

> <Gold.Chemscore.Metal.Weighted>
-0.0000

> <Gold.Chemscore.Lipo.Weighted>
-10.0949

> <Gold.Chemscore.Internal_Hbond.Weighted>
0.0000

> <Gold.Chemscore.DEClash.Weighted>
1.4955

> <Gold.Chemscore.DEInternal.Weighted>
2.8705

> <Gold.Chemscore.Rot.Weighted>
4.4272

> <Gold.Chemscore.Internal.Correction.Weighted>
   9.000000E+99

> <Gold.Protein.RotatedTorsions>
[ 6907 6896 6895 6894 ] final   -5.70 input  -60.11 | X-H torsion
[ 7974 7965 7964 7962 ] final -117.24 input  175.53 | X-H torsion
[ 8008 7997 7996 7995 ] final  173.00 input   59.86 | X-H torsion
[ 10167 10162 10161 10158 ] final  -33.42 input  -65.29 | X-H torsion
[ 10718 10713 10712 10709 ] final -126.70 input   66.30 | X-H torsion
[ 10763 10752 10751 10750 ] final   24.17 input  -60.55 | X-H torsion
[ 11005 11000 10999 10996 ] final -151.67 input  -57.11 | X-H torsion

> <Gold.Protein.ActiveResidues>
 VAL166  LYS551  ARG553  GLY616  TRP617  ASP618  TYR619  PRO620  LYS621  CYS622 
 ASP623  PHE694  ASN695  SER759  ASP760  ASP761  ALA762  ILE779  LEU786  VAL792 
 PHE793  MET794  SER795  GLU796  ALA797  LYS798  CYS799  TRP800  GLU811  SER814 

> <Gold.Protein.RotatedAtoms>
  151.4774  135.1050  159.9767 H   0  0  0  0  0  0  0  0  0  0  0  0  # atno 6907 bound_to 6896
  152.4793  133.8210  159.7064 H   0  0  0  0  0  0  0  0  0  0  0  0  # atno 6908 bound_to 6896
  150.8852  133.7256  159.2947 H   0  0  0  0  0  0  0  0  0  0  0  0  # atno 6909 bound_to 6896
  145.0875  140.8468  143.4002 H   0  0  0  0  0  0  0  0  0  0  0  0  # atno 7974 bound_to 7965
  156.1119  140.1471  156.9326 H   0  0  0  0  0  0  0  0  0  0  0  0  # atno 8008 bound_to 7997
  154.4773  140.0890  156.7336 H   0  0  0  0  0  0  0  0  0  0  0  0  # atno 8009 bound_to 7997
  155.4581  140.3437  155.4311 H   0  0  0  0  0  0  0  0  0  0  0  0  # atno 8010 bound_to 7997
  140.7205  143.3622  151.1941 H   0  0  0  0  0  0  0  0  0  0  0  0  # atno 10167 bound_to 10162
  156.1789  130.6718  151.0279 H   0  0  0  0  0  0  0  0  0  0  0  0  # atno 10718 bound_to 10713
  153.0784  135.6611  154.0097 H   0  0  0  0  0  0  0  0  0  0  0  0  # atno 10763 bound_to 10752
  153.9725  135.2963  155.3427 H   0  0  0  0  0  0  0  0  0  0  0  0  # atno 10764 bound_to 10752
  154.7177  135.5178  153.8835 H   0  0  0  0  0  0  0  0  0  0  0  0  # atno 10765 bound_to 10752
  140.7271  134.3662  157.5173 H   0  0  0  0  0  0  0  0  0  0  0  0  # atno 11005 bound_to 11000
  145.1105  139.2760  143.5640 LP  0  0  0  0  0  0  0  0  0  0  0  0  # atno 17320 bound_to 7965
  146.3531  140.0699  142.8624 LP  0  0  0  0  0  0  0  0  0  0  0  0  # atno 17321 bound_to 7965
  139.7176  143.9275  152.2973 LP  0  0  0  0  0  0  0  0  0  0  0  0  # atno 17342 bound_to 10162
  139.9021  144.6905  150.8654 LP  0  0  0  0  0  0  0  0  0  0  0  0  # atno 17343 bound_to 10162
  157.6855  131.0826  150.7255 LP  0  0  0  0  0  0  0  0  0  0  0  0  # atno 17370 bound_to 10713
  156.7312  130.4710  149.5499 LP  0  0  0  0  0  0  0  0  0  0  0  0  # atno 17371 bound_to 10713
  139.8834  134.8994  156.2765 LP  0  0  0  0  0  0  0  0  0  0  0  0  # atno 17394 bound_to 11000
  140.9953  133.7184  156.0876 LP  0  0  0  0  0  0  0  0  0  0  0  0  # atno 17395 bound_to 11000

$$$$
