AV-unprocessed.smi:1701|AV-procd|sdf|6828|dock1
  -GOLD-   22720 8 03D 1   1.00000     0.00000
 Structure written by MMmdl.
 55 57  0  0  0  0  0  0  0  0  3 V2000
  152.0185  144.6343  158.6671 C   0  0  0  0  0  0  0  0  0  0  0  0
  151.5666  143.5581  157.6685 C   0  0  0  0  0  0  0  0  0  0  0  0
  151.7531  142.1936  158.1628 N   0  0  0  0  0  0  0  0  0  0  0  0
  152.1905  141.9838  159.5451 C   0  0  0  0  0  0  0  0  0  0  0  0
  153.6581  141.5438  159.6552 C   0  0  0  0  0  0  0  0  0  0  0  0
  151.3349  141.0896  157.3800 C   0  0  0  0  0  0  0  0  0  0  0  0
  150.9948  141.1854  156.0072 C   0  0  0  0  0  0  0  0  0  0  0  0
  150.5842  140.0369  155.3003 C   0  0  0  0  0  0  0  0  0  0  0  0
  150.5210  138.7910  155.9570 C   0  0  0  0  0  0  0  0  0  0  0  0
  150.0859  137.6683  155.2012 N   0  0  0  0  0  0  0  0  0  0  0  0
  149.8495  136.4071  155.6146 C   0  0  0  0  0  0  0  0  0  0  0  0
  150.0143  136.0029  156.7629 O   0  0  0  0  0  0  0  0  0  0  0  0
  149.4277  135.5787  154.6426 N   0  0  0  0  0  0  0  0  0  0  0  0
  149.0855  134.1595  154.7520 C   0  0  1  0  0  0  0  0  0  0  0  0
  148.3940  133.5840  153.5049 C   0  0  0  0  0  0  0  0  0  0  0  0
  148.9807  132.1693  153.3252 C   0  0  0  0  0  0  0  0  0  0  0  0
  149.8838  131.9336  154.4751 N   0  3  2  0  0  0  0  0  0  0  0  0
  149.2229  131.1503  155.5550 C   0  0  0  0  0  0  0  0  0  0  0  0
  150.0664  131.1062  156.8356 C   0  0  0  0  0  0  0  0  0  0  0  0
  150.3464  132.5264  157.3326 C   0  0  0  0  0  0  0  0  0  0  0  0
  151.0713  133.3175  156.2382 C   0  0  0  0  0  0  0  0  0  0  0  0
  150.3385  133.2864  154.8779 C   0  0  2  0  0  0  0  0  0  0  0  0
  150.8641  138.7439  157.3285 C   0  0  0  0  0  0  0  0  0  0  0  0
  151.2503  139.8699  157.9663 N   0  3  0  0  0  0  0  0  0  0  0  0
  151.8180  145.6295  158.2703 H   0  0  0  0  0  0  0  0  0  0  0  0
  153.0876  144.5762  158.8655 H   0  0  0  0  0  0  0  0  0  0  0  0
  151.4954  144.5483  159.6197 H   0  0  0  0  0  0  0  0  0  0  0  0
  150.5267  143.7140  157.3828 H   0  0  0  0  0  0  0  0  0  0  0  0
  152.1342  143.6763  156.7450 H   0  0  0  0  0  0  0  0  0  0  0  0
  152.0240  142.8876  160.1318 H   0  0  0  0  0  0  0  0  0  0  0  0
  151.5581  141.2234  160.0039 H   0  0  0  0  0  0  0  0  0  0  0  0
  153.9423  141.4223  160.7006 H   0  0  0  0  0  0  0  0  0  0  0  0
  154.3327  142.2787  159.2156 H   0  0  0  0  0  0  0  0  0  0  0  0
  153.8327  140.5903  159.1593 H   0  0  0  0  0  0  0  0  0  0  0  0
  151.0332  142.1243  155.4768 H   0  0  0  0  0  0  0  0  0  0  0  0
  150.3215  140.1178  154.2557 H   0  0  0  0  0  0  0  0  0  0  0  0
  149.9697  137.8339  154.2124 H   0  0  0  0  0  0  0  0  0  0  0  0
  149.3558  135.9777  153.7172 H   0  0  0  0  0  0  0  0  0  0  0  0
  148.4512  133.9982  155.6252 H   0  0  0  0  0  0  0  0  0  0  0  0
  147.3117  133.5580  153.6355 H   0  0  0  0  0  0  0  0  0  0  0  0
  148.6024  134.1857  152.6189 H   0  0  0  0  0  0  0  0  0  0  0  0
  148.2069  131.4052  153.2364 H   0  0  0  0  0  0  0  0  0  0  0  0
  149.5747  132.1337  152.4110 H   0  0  0  0  0  0  0  0  0  0  0  0
  148.2458  131.5799  155.7820 H   0  0  0  0  0  0  0  0  0  0  0  0
  149.0403  130.1363  155.1972 H   0  0  0  0  0  0  0  0  0  0  0  0
  149.5430  130.5393  157.6062 H   0  0  0  0  0  0  0  0  0  0  0  0
  151.0051  130.5832  156.6472 H   0  0  0  0  0  0  0  0  0  0  0  0
  149.4127  133.0210  157.6023 H   0  0  0  0  0  0  0  0  0  0  0  0
  150.9540  132.4953  158.2375 H   0  0  0  0  0  0  0  0  0  0  0  0
  151.2278  134.3475  156.5601 H   0  0  0  0  0  0  0  0  0  0  0  0
  152.0666  132.8908  156.1068 H   0  0  0  0  0  0  0  0  0  0  0  0
  151.0497  133.6136  154.1165 H   0  0  0  0  0  0  0  0  0  0  0  0
  150.8372  137.8624  157.9505 H   0  0  0  0  0  0  0  0  0  0  0  0
  150.6853  131.4008  154.1679 H   0  0  0  0  0  0  0  0  0  0  0  0
  151.4893  139.7976  158.9554 H   0  0  0  0  0  0  0  0  0  0  0  0
  1  2  1  0  0  0  0
  1 25  1  0  0  0  0
  1 26  1  0  0  0  0
  1 27  1  0  0  0  0
  2  3  1  0  0  0  0
  2 28  1  0  0  0  0
  2 29  1  0  0  0  0
  3  4  1  0  0  0  0
  3  6  1  0  0  0  0
  4  5  1  0  0  0  0
  4 30  1  0  0  0  0
  4 31  1  0  0  0  0
  5 32  1  0  0  0  0
  5 33  1  0  0  0  0
  5 34  1  0  0  0  0
  6 24  1  0  0  0  0
  6  7  2  0  0  0  0
  7  8  1  0  0  0  0
  7 35  1  0  0  0  0
  8  9  2  0  0  0  0
  8 36  1  0  0  0  0
  9 10  1  0  0  0  0
  9 23  1  0  0  0  0
 10 11  1  0  0  0  0
 10 37  1  0  0  0  0
 11 12  2  0  0  0  0
 11 13  1  0  0  0  0
 13 14  1  0  0  0  0
 13 38  1  0  0  0  0
 14 22  1  0  0  0  0
 14 15  1  0  0  0  0
 14 39  1  0  0  0  0
 15 16  1  0  0  0  0
 15 40  1  0  0  0  0
 15 41  1  0  0  0  0
 16 17  1  0  0  0  0
 16 42  1  0  0  0  0
 16 43  1  0  0  0  0
 17 22  1  0  0  0  0
 17 18  1  0  0  0  0
 17 54  1  0  0  0  0
 18 19  1  0  0  0  0
 18 44  1  0  0  0  0
 18 45  1  0  0  0  0
 19 20  1  0  0  0  0
 19 46  1  0  0  0  0
 19 47  1  0  0  0  0
 20 21  1  0  0  0  0
 20 48  1  0  0  0  0
 20 49  1  0  0  0  0
 21 22  1  0  0  0  0
 21 50  1  0  0  0  0
 21 51  1  0  0  0  0
 22 52  1  0  0  0  0
 23 24  2  0  0  0  0
 23 53  1  0  0  0  0
 24 55  1  0  0  0  0
M  CHG  1  17   1
M  CHG  1  24   1
M  END
> <s_m_source_file>
AV-unprocessed.smi

> <i_m_source_file_index>
1701

> <i_lp_mmshare_version>
43012

> <i_f3d_flags>
0

> <s_epik_input>
W0NIM11bQ0gyXU4oW0NIMl1bQ0gzXSljMVtjSF1bY0hdYyhbY0hdbjEpW05IXUMoPU8pW05IXVtDQEhdKFtDSDJdW0NIMl0yKVtDQEBIXShOMjMpW0NIMl1bQ0gyXVtDSDJdW0NIMl0z

> <s_epik_cmdline>
J2VwaWtfcHl0aG9uJywgJy1waCcsICc3LjAnLCAnLXRuJywgJzgnLCAnLW1hJywgJzIwMCcsICctbWV0YWxfYmluZGluZycsICctaW1hZScsICc8aW5maWxlLm1hZT4nLCAnLW9tYWUnLCAnPG91dGZpbGUubWFlPic=

> <r_lp_tautomer_probability>
0.999994

> <r_epik_Ionization_Penalty>
0.302862

> <r_epik_Ionization_Penalty_Charging>
0.302842

> <r_epik_Ionization_Penalty_Neutral>
1.95166e-05

> <r_epik_State_Penalty>
0.019791

> <r_epik_Charging_Adjusted_Penalty>
0.322633

> <i_epik_Tot_Q>
2

> <i_epik_Tot_abs_Q>
2

> <r_epik_Metal_State_Penalty>
0.0536763

> <b_epik_Metal_Only>
0

> <s_lp_Force_Field>
OPLS_2005

> <r_lp_Energy>
65.6354

> <b_lp_Chiralities_Consistent>
1

> <s_lp_Variant>
AV-unprocessed.smi:1701-8

> <Gold.Version>
5.8.1

> <Gold.Id.Protein>
6NUR|6NUR_protein|mol2

> <Gold.PLP.Fitness>
41.2501

> <Gold.PLP.PLP>
-38.9158

> <Gold.PLP.part.hbond>
-1.0000

> <Gold.PLP.part.metal>
0.0000

> <Gold.PLP.part.buried>
-3.6085

> <Gold.PLP.part.nonpolar>
-34.3529

> <Gold.PLP.part.repulsive>
0.1314

> <Gold.PLP.ligand.clash>
0.0000

> <Gold.PLP.ligand.torsion>
0.4715

> <Gold.PLP.Chemscore.Hbond>
1.0000

> <Gold.PLP.Chemscore.CHOScore>
0.0000

> <Gold.PLP.Chemscore.Metal>
0.0000

> <Gold.Chemscore.Hbonds>
donor molecule, donor type, donor heavy atom, donor atom, acceptor molecule, acceptor atom, score
      L1  H    13    38       P1  7948  1.00

> <Gold.PLP.Chemscore.Internal.Correction>
0.2774

> <Gold.Rescore>
     Score         DG    S(hbond)    S(metal)    S(lipo)     H(rot)  DE(clash)    DE(int)     intcor
     14.62     -17.44       0.95        0.00     103.50       1.30       0.02       2.80       ----

> <Gold.Chemscore.Fitness>
14.6221

> <Gold.Chemscore.DG>
-17.4380

> <Gold.Chemscore.ZeroCoef>
-5.4800

> <Gold.Chemscore.Hbond>
0.9526

> <Gold.Chemscore.Metal>
0.0000

> <Gold.Chemscore.Lipo>
103.4994

> <Gold.Chemscore.Internal_Hbond>
0.0000

> <Gold.Chemscore.DEClash>
0.0202

> <Gold.Chemscore.DEInternal>
2.7956

> <Gold.Chemscore.Rot>
1.3020

> <Gold.Chemscore.Internal.Correction>
   9.000000E+99

> <Gold.Chemscore.Hbonds>
donor molecule, donor type, donor heavy atom, donor atom, acceptor molecule, acceptor atom, score
      L1  H    13    38       P1  7948  0.70

> <Gold.Chemscore.Hbond.Weighted>
-3.1816

> <Gold.Chemscore.Metal.Weighted>
-0.0000

> <Gold.Chemscore.Lipo.Weighted>
-12.1094

> <Gold.Chemscore.Internal_Hbond.Weighted>
0.0000

> <Gold.Chemscore.DEClash.Weighted>
0.0202

> <Gold.Chemscore.DEInternal.Weighted>
2.7956

> <Gold.Chemscore.Rot.Weighted>
3.3330

> <Gold.Chemscore.Internal.Correction.Weighted>
   9.000000E+99

> <Gold.Protein.RotatedTorsions>
[ 6907 6896 6895 6894 ] final  177.79 input  -60.11 | X-H torsion
[ 7974 7965 7964 7962 ] final -156.34 input  175.53 | X-H torsion
[ 8008 7997 7996 7995 ] final   52.41 input   59.86 | X-H torsion
[ 10167 10162 10161 10158 ] final   42.89 input  -65.29 | X-H torsion
[ 10718 10713 10712 10709 ] final -138.93 input   66.30 | X-H torsion
[ 10763 10752 10751 10750 ] final -166.06 input  -60.55 | X-H torsion
[ 11005 11000 10999 10996 ] final -111.93 input  -57.11 | X-H torsion

> <Gold.Protein.ActiveResidues>
 VAL166  LYS551  ARG553  GLY616  TRP617  ASP618  TYR619  PRO620  LYS621  CYS622 
 ASP623  PHE694  ASN695  SER759  ASP760  ASP761  ALA762  ILE779  LEU786  VAL792 
 PHE793  MET794  SER795  GLU796  ALA797  LYS798  CYS799  TRP800  GLU811  SER814 

> <Gold.Protein.RotatedAtoms>
  151.6984  133.3311  159.3260 H   0  0  0  0  0  0  0  0  0  0  0  0  # atno 6907 bound_to 6896
  150.7747  134.6637  159.6363 H   0  0  0  0  0  0  0  0  0  0  0  0  # atno 6908 bound_to 6896
  152.3785  134.6630  160.0203 H   0  0  0  0  0  0  0  0  0  0  0  0  # atno 6909 bound_to 6896
  144.7598  140.4123  143.5985 H   0  0  0  0  0  0  0  0  0  0  0  0  # atno 7974 bound_to 7965
  155.4513  140.3458  155.4301 H   0  0  0  0  0  0  0  0  0  0  0  0  # atno 8008 bound_to 7997
  156.1218  140.1489  156.9223 H   0  0  0  0  0  0  0  0  0  0  0  0  # atno 8009 bound_to 7997
  154.4829  140.0864  156.7399 H   0  0  0  0  0  0  0  0  0  0  0  0  # atno 8010 bound_to 7997
  140.3498  144.2364  150.6147 H   0  0  0  0  0  0  0  0  0  0  0  0  # atno 10167 bound_to 10162
  156.3050  130.7450  151.1511 H   0  0  0  0  0  0  0  0  0  0  0  0  # atno 10718 bound_to 10713
  154.6871  135.2964  154.9532 H   0  0  0  0  0  0  0  0  0  0  0  0  # atno 10763 bound_to 10752
  154.0508  135.6645  153.4804 H   0  0  0  0  0  0  0  0  0  0  0  0  # atno 10764 bound_to 10752
  153.0586  135.5129  154.7944 H   0  0  0  0  0  0  0  0  0  0  0  0  # atno 10765 bound_to 10752
  141.0705  133.9387  157.2494 H   0  0  0  0  0  0  0  0  0  0  0  0  # atno 11005 bound_to 11000
  145.6658  139.1590  143.2782 LP  0  0  0  0  0  0  0  0  0  0  0  0  # atno 17320 bound_to 7965
  146.1648  140.6734  142.9261 LP  0  0  0  0  0  0  0  0  0  0  0  0  # atno 17321 bound_to 7965
  140.5229  143.2261  151.8360 LP  0  0  0  0  0  0  0  0  0  0  0  0  # atno 17342 bound_to 10162
  139.4828  144.4814  151.9301 LP  0  0  0  0  0  0  0  0  0  0  0  0  # atno 17343 bound_to 10162
  157.7377  131.0549  150.5338 LP  0  0  0  0  0  0  0  0  0  0  0  0  # atno 17370 bound_to 10713
  156.5470  130.4222  149.6126 LP  0  0  0  0  0  0  0  0  0  0  0  0  # atno 17371 bound_to 10713
  139.9519  135.0173  156.9018 LP  0  0  0  0  0  0  0  0  0  0  0  0  # atno 17394 bound_to 11000
  140.5683  134.0468  155.7421 LP  0  0  0  0  0  0  0  0  0  0  0  0  # atno 17395 bound_to 11000

$$$$
