AV-unprocessed.smi:21|AV-procd|sdf|159|dock8
  -GOLD-   2262015393D 1   1.00000     0.00000
 Structure written by MMmdl.
 61 64  0  0  0  0  0  0  0  0  1 V2000
  147.5731  141.0867  159.4958 C   0  0  0  0  0  0  0  0  0  0  0  0
  147.1726  139.7292  159.5868 O   0  0  0  0  0  0  0  0  0  0  0  0
  148.0424  138.9343  160.3807 C   0  0  1  0  0  0  0  0  0  0  0  0
  147.7615  137.4416  160.1492 C   0  0  0  0  0  0  0  0  0  0  0  0
  149.0711  136.8821  159.5697 C   0  0  2  0  0  0  0  0  0  0  0  0
  149.3004  135.3876  159.8858 C   0  0  0  0  0  0  0  0  0  0  0  0
  148.1074  134.5728  159.6539 N   0  0  0  0  0  0  0  0  0  0  0  0
  147.2170  134.3061  160.7759 C   0  0  0  0  0  0  0  0  0  0  0  0
  148.0780  133.7516  158.5710 C   0  0  0  0  0  0  0  0  0  0  0  0
  149.1824  133.0043  158.3096 N   0  0  0  0  0  0  0  0  0  0  0  0
  149.2118  132.1773  157.2612 C   0  0  0  0  0  0  0  0  0  0  0  0
  148.2599  131.9433  156.3575 N   0  0  0  0  0  0  0  0  0  0  0  0
  147.1442  132.6833  156.6137 C   0  0  0  0  0  0  0  0  0  0  0  0
  146.9665  133.6029  157.6877 C   0  0  0  0  0  0  0  0  0  0  0  0
  145.6860  134.1435  157.6282 N   0  0  0  0  0  0  0  0  0  0  0  0
  145.1448  133.5852  156.5810 C   0  0  0  0  0  0  0  0  0  0  0  0
  145.9590  132.7103  155.8998 N   0  0  0  0  0  0  0  0  0  0  0  0
  145.6148  131.9496  154.7119 C   0  0  0  0  0  0  0  0  0  0  0  0
  145.5670  132.7771  153.3970 C   0  0  1  0  0  0  0  0  0  0  0  0
  147.0118  133.1442  152.9788 C   0  0  0  0  0  0  0  0  0  0  0  0
  147.8671  132.0213  153.0415 O   0  0  0  0  0  0  0  0  0  0  0  0
  144.8033  132.0530  152.2473 C   0  0  2  0  0  0  0  0  0  0  0  0
  144.8514  132.7515  150.8956 C   0  0  0  0  0  0  0  0  0  0  0  0
  143.6820  132.1162  150.1596 C   0  0  0  0  0  0  0  0  0  0  0  0
  142.6754  132.0028  151.1511 O   0  0  0  0  0  0  0  0  0  0  0  0
  143.2810  131.9171  152.4377 C   0  0  0  0  0  0  0  0  0  0  0  0
  150.1035  137.7731  160.0746 N   0  0  0  0  0  0  0  0  0  0  0  0
  151.3676  137.6770  159.3565 C   0  0  0  0  0  0  0  0  0  0  0  0
  149.5098  139.0908  159.9603 C   0  0  0  0  0  0  0  0  0  0  0  0
  147.9159  139.1605  161.4411 H   0  0  0  0  0  0  0  0  0  0  0  0
  149.0243  137.0025  158.4857 H   0  0  0  0  0  0  0  0  0  0  0  0
  146.8542  141.6385  158.8904 H   0  0  0  0  0  0  0  0  0  0  0  0
  148.5518  141.1862  159.0253 H   0  0  0  0  0  0  0  0  0  0  0  0
  147.6094  141.5535  160.4809 H   0  0  0  0  0  0  0  0  0  0  0  0
  147.5233  136.9650  161.1012 H   0  0  0  0  0  0  0  0  0  0  0  0
  146.9194  137.2716  159.4769 H   0  0  0  0  0  0  0  0  0  0  0  0
  150.0867  134.9912  159.2438 H   0  0  0  0  0  0  0  0  0  0  0  0
  149.6739  135.2741  160.9037 H   0  0  0  0  0  0  0  0  0  0  0  0
  146.2225  134.0248  160.4282 H   0  0  0  0  0  0  0  0  0  0  0  0
  147.1114  135.1957  161.3968 H   0  0  0  0  0  0  0  0  0  0  0  0
  147.6105  133.5044  161.4008 H   0  0  0  0  0  0  0  0  0  0  0  0
  150.1300  131.6246  157.1274 H   0  0  0  0  0  0  0  0  0  0  0  0
  144.1346  133.8074  156.2691 H   0  0  0  0  0  0  0  0  0  0  0  0
  146.3473  131.1461  154.6318 H   0  0  0  0  0  0  0  0  0  0  0  0
  144.6519  131.4652  154.8792 H   0  0  0  0  0  0  0  0  0  0  0  0
  145.0478  133.7155  153.5963 H   0  0  0  0  0  0  0  0  0  0  0  0
  147.0316  133.5579  151.9702 H   0  0  0  0  0  0  0  0  0  0  0  0
  147.4427  133.8935  153.6410 H   0  0  0  0  0  0  0  0  0  0  0  0
  148.3376  131.9559  152.2247 H   0  0  0  0  0  0  0  0  0  0  0  0
  145.2253  131.0552  152.1157 H   0  0  0  0  0  0  0  0  0  0  0  0
  144.6813  133.8231  151.0095 H   0  0  0  0  0  0  0  0  0  0  0  0
  145.7944  132.6046  150.3685 H   0  0  0  0  0  0  0  0  0  0  0  0
  143.3445  132.7080  149.3087 H   0  0  0  0  0  0  0  0  0  0  0  0
  143.9478  131.1198  149.8036 H   0  0  0  0  0  0  0  0  0  0  0  0
  143.0123  130.9711  152.9059 H   0  0  0  0  0  0  0  0  0  0  0  0
  142.8793  132.7239  153.0514 H   0  0  0  0  0  0  0  0  0  0  0  0
  152.0800  138.4092  159.7375 H   0  0  0  0  0  0  0  0  0  0  0  0
  151.2329  137.8593  158.2897 H   0  0  0  0  0  0  0  0  0  0  0  0
  151.8147  136.6909  159.4797 H   0  0  0  0  0  0  0  0  0  0  0  0
  149.5543  139.4259  158.9224 H   0  0  0  0  0  0  0  0  0  0  0  0
  150.0401  139.8249  160.5676 H   0  0  0  0  0  0  0  0  0  0  0  0
  1  2  1  0  0  0  0
  1 32  1  0  0  0  0
  1 33  1  0  0  0  0
  1 34  1  0  0  0  0
  2  3  1  0  0  0  0
  3 30  1  0  0  0  0
  3 29  1  0  0  0  0
  3  4  1  0  0  0  0
  4  5  1  0  0  0  0
  4 35  1  0  0  0  0
  4 36  1  0  0  0  0
  5 31  1  0  0  0  0
  5  6  1  0  0  0  0
  5 27  1  0  0  0  0
  6  7  1  0  0  0  0
  6 37  1  0  0  0  0
  6 38  1  0  0  0  0
  7  8  1  0  0  0  0
  7  9  1  0  0  0  0
  8 39  1  0  0  0  0
  8 40  1  0  0  0  0
  8 41  1  0  0  0  0
  9 14  1  0  0  0  0
  9 10  2  0  0  0  0
 10 11  1  0  0  0  0
 11 12  2  0  0  0  0
 11 42  1  0  0  0  0
 12 13  1  0  0  0  0
 13 17  1  0  0  0  0
 13 14  2  0  0  0  0
 14 15  1  0  0  0  0
 15 16  2  0  0  0  0
 16 17  1  0  0  0  0
 16 43  1  0  0  0  0
 17 18  1  0  0  0  0
 18 19  1  0  0  0  0
 18 44  1  0  0  0  0
 18 45  1  0  0  0  0
 19 20  1  0  0  0  0
 19 22  1  0  0  0  0
 19 46  1  0  0  0  0
 20 21  1  0  0  0  0
 20 47  1  0  0  0  0
 20 48  1  0  0  0  0
 21 49  1  0  0  0  0
 22 26  1  0  0  0  0
 22 23  1  0  0  0  0
 22 50  1  0  0  0  0
 23 24  1  0  0  0  0
 23 51  1  0  0  0  0
 23 52  1  0  0  0  0
 24 25  1  0  0  0  0
 24 53  1  0  0  0  0
 24 54  1  0  0  0  0
 25 26  1  0  0  0  0
 26 55  1  0  0  0  0
 26 56  1  0  0  0  0
 27 28  1  0  0  0  0
 27 29  1  0  0  0  0
 28 57  1  0  0  0  0
 28 58  1  0  0  0  0
 28 59  1  0  0  0  0
 29 60  1  0  0  0  0
 29 61  1  0  0  0  0
M  END
> <s_m_source_file>
AV-unprocessed.smi

> <i_m_source_file_index>
21

> <i_lp_mmshare_version>
43012

> <i_f3d_flags>
0

> <s_epik_input>
W0NIM11PW0NASF0xW0NIMl1bQ0BIXShOKFtDSDNdKVtDSDJdMSlbQ0gyXU4oW0NIM10pYyhuW2NIXW4yKWMoYzIzKW5bY0hdbjNbQ0gyXVtDQEhdKFtDSDJdW09IXSlbQ0BASF00W0NIMl1bQ0gyXU9bQ0gyXTQ=

> <s_epik_cmdline>
J2VwaWtfcHl0aG9uJywgJy1waCcsICc3LjAnLCAnLXRuJywgJzgnLCAnLW1hJywgJzIwMCcsICctbWV0YWxfYmluZGluZycsICctaW1hZScsICc8aW5maWxlLm1hZT4nLCAnLW9tYWUnLCAnPG91dGZpbGUubWFlPic=

> <r_lp_tautomer_probability>
1

> <r_epik_Ionization_Penalty>
2.17574

> <r_epik_Ionization_Penalty_Charging>
0

> <r_epik_Ionization_Penalty_Neutral>
2.17574

> <r_epik_State_Penalty>
2.31336

> <r_epik_Charging_Adjusted_Penalty>
2.31336

> <i_epik_Tot_Q>
0

> <i_epik_Tot_abs_Q>
0

> <r_epik_Metal_State_Penalty>
2.31025

> <b_epik_Metal_Only>
0

> <s_lp_Force_Field>
OPLS_2005

> <r_lp_Energy>
70.5477

> <b_lp_Chiralities_Consistent>
1

> <s_lp_Variant>
AV-unprocessed.smi:21-39

> <Gold.Version>
5.8.1

> <Gold.Id.Protein>
6NUR|6NUR_protein|mol2

> <Gold.PLP.Fitness>
44.7311

> <Gold.PLP.PLP>
-37.3330

> <Gold.PLP.part.hbond>
-3.0000

> <Gold.PLP.part.metal>
0.0000

> <Gold.PLP.part.buried>
-7.1139

> <Gold.PLP.part.nonpolar>
-27.6809

> <Gold.PLP.part.repulsive>
0.3043

> <Gold.PLP.ligand.clash>
0.0000

> <Gold.PLP.ligand.torsion>
1.8939

> <Gold.PLP.Chemscore.Hbond>
2.5175

> <Gold.PLP.Chemscore.CHOScore>
1.0000

> <Gold.PLP.Chemscore.Metal>
0.0000

> <Gold.Chemscore.Hbonds>
donor molecule, donor type, donor heavy atom, donor atom, acceptor molecule, acceptor atom, score
      L1  H    21    49       P1 10747  0.29
      P1  H  6896  6909       L1    10  0.79
      L1  C    16    43       P1 10957  0.06

> <Gold.PLP.Chemscore.Internal.Correction>
0.6334

> <Gold.Rescore>
     Score         DG    S(hbond)    S(metal)    S(lipo)     H(rot)  DE(clash)    DE(int)     intcor
     13.31     -15.69       2.20        0.00      90.27       3.00       0.08       2.30       ----

> <Gold.Chemscore.Fitness>
13.3084

> <Gold.Chemscore.DG>
-15.6925

> <Gold.Chemscore.ZeroCoef>
-5.4800

> <Gold.Chemscore.Hbond>
2.1973

> <Gold.Chemscore.Metal>
0.0000

> <Gold.Chemscore.Lipo>
90.2695

> <Gold.Chemscore.Internal_Hbond>
0.0000

> <Gold.Chemscore.DEClash>
0.0816

> <Gold.Chemscore.DEInternal>
2.3025

> <Gold.Chemscore.Rot>
3.0031

> <Gold.Chemscore.Internal.Correction>
   9.000000E+99

> <Gold.Chemscore.Hbonds>
donor molecule, donor type, donor heavy atom, donor atom, acceptor molecule, acceptor atom, score
      L1  H    21    49       P1 10747  0.28
      P1  H  6896  6909       L1    10  0.70

> <Gold.Chemscore.Hbond.Weighted>
-7.3389

> <Gold.Chemscore.Metal.Weighted>
-0.0000

> <Gold.Chemscore.Lipo.Weighted>
-10.5615

> <Gold.Chemscore.Internal_Hbond.Weighted>
0.0000

> <Gold.Chemscore.DEClash.Weighted>
0.0816

> <Gold.Chemscore.DEInternal.Weighted>
2.3025

> <Gold.Chemscore.Rot.Weighted>
7.6880

> <Gold.Chemscore.Internal.Correction.Weighted>
   9.000000E+99

> <Gold.Protein.RotatedTorsions>
[ 6907 6896 6895 6894 ] final  -20.31 input  -60.11 | X-H torsion
[ 7974 7965 7964 7962 ] final  -70.32 input  175.53 | X-H torsion
[ 8008 7997 7996 7995 ] final   -3.58 input   59.86 | X-H torsion
[ 10167 10162 10161 10158 ] final -138.00 input  -65.29 | X-H torsion
[ 10718 10713 10712 10709 ] final   64.58 input   66.30 | X-H torsion
[ 10763 10752 10751 10750 ] final   66.36 input  -60.55 | X-H torsion
[ 11005 11000 10999 10996 ] final    2.42 input  -57.11 | X-H torsion

> <Gold.Protein.ActiveResidues>
 VAL166  LYS551  ARG553  GLY616  TRP617  ASP618  TYR619  PRO620  LYS621  CYS622 
 ASP623  PHE694  ASN695  SER759  ASP760  ASP761  ALA762  ILE779  LEU786  VAL792 
 PHE793  MET794  SER795  GLU796  ALA797  LYS798  CYS799  TRP800  GLU811  SER814 

> <Gold.Protein.RotatedAtoms>
  151.2500  135.0619  159.9058 H   0  0  0  0  0  0  0  0  0  0  0  0  # atno 6907 bound_to 6896
  152.5381  134.0342  159.8048 H   0  0  0  0  0  0  0  0  0  0  0  0  # atno 6908 bound_to 6896
  151.0549  133.5544  159.2670 H   0  0  0  0  0  0  0  0  0  0  0  0  # atno 6909 bound_to 6896
  145.6925  140.9148  143.0774 H   0  0  0  0  0  0  0  0  0  0  0  0  # atno 7974 bound_to 7965
  154.6234  140.2505  155.7522 H   0  0  0  0  0  0  0  0  0  0  0  0  # atno 8008 bound_to 7997
  156.2439  140.2922  156.0471 H   0  0  0  0  0  0  0  0  0  0  0  0  # atno 8009 bound_to 7997
  155.1861  140.0390  157.2882 H   0  0  0  0  0  0  0  0  0  0  0  0  # atno 8010 bound_to 7997
  139.8522  143.7184  152.2657 H   0  0  0  0  0  0  0  0  0  0  0  0  # atno 10167 bound_to 10162
  157.6049  130.9167  149.9864 H   0  0  0  0  0  0  0  0  0  0  0  0  # atno 10718 bound_to 10713
  153.0136  135.5323  154.6811 H   0  0  0  0  0  0  0  0  0  0  0  0  # atno 10763 bound_to 10752
  154.5970  135.2864  155.0577 H   0  0  0  0  0  0  0  0  0  0  0  0  # atno 10764 bound_to 10752
  154.1648  135.6541  153.5047 H   0  0  0  0  0  0  0  0  0  0  0  0  # atno 10765 bound_to 10752
  140.6045  133.9805  155.8147 H   0  0  0  0  0  0  0  0  0  0  0  0  # atno 11005 bound_to 11000
  144.6992  139.8840  143.7449 LP  0  0  0  0  0  0  0  0  0  0  0  0  # atno 17320 bound_to 7965
  146.0869  139.3858  143.0429 LP  0  0  0  0  0  0  0  0  0  0  0  0  # atno 17321 bound_to 7965
  139.7454  144.7548  151.0587 LP  0  0  0  0  0  0  0  0  0  0  0  0  # atno 17342 bound_to 10162
  140.7786  143.4922  150.9878 LP  0  0  0  0  0  0  0  0  0  0  0  0  # atno 17343 bound_to 10162
  156.1132  130.3649  150.0013 LP  0  0  0  0  0  0  0  0  0  0  0  0  # atno 17370 bound_to 10713
  156.8107  130.9324  151.3644 LP  0  0  0  0  0  0  0  0  0  0  0  0  # atno 17371 bound_to 10713
  141.0850  134.0004  157.3327 LP  0  0  0  0  0  0  0  0  0  0  0  0  # atno 17394 bound_to 11000
  139.9218  135.0200  156.8093 LP  0  0  0  0  0  0  0  0  0  0  0  0  # atno 17395 bound_to 11000

$$$$
