AV-unprocessed.smi:198|AV-procd|sdf|1554|dock1
  -GOLD-   2262019423D 1   1.00000     0.00000
 Structure written by MMmdl.
 59 63  0  0  0  0  0  0  0  0  2 V2000
  150.4607  141.4451  155.5508 C   0  0  0  0  0  0  0  0  0  0  0  0
  149.2298  141.1267  154.7958 N   0  3  1  0  0  0  0  0  0  0  0  0
  149.1463  139.6914  154.4356 C   0  0  0  0  0  0  0  0  0  0  0  0
  147.9257  139.4260  153.5405 C   0  0  0  0  0  0  0  0  0  0  0  0
  146.6047  139.8779  154.2094 C   0  0  2  0  0  0  0  0  0  0  0  0
  146.7415  141.3642  154.6250 C   0  0  1  0  0  0  0  0  0  0  0  0
  145.4555  141.8591  155.3161 C   0  0  0  0  0  0  0  0  0  0  0  0
  145.0542  140.9404  156.4805 C   0  0  0  0  0  0  0  0  0  0  0  0
  144.9688  139.4787  156.0192 C   0  0  0  0  0  0  0  0  0  0  0  0
  146.2040  139.0552  155.3618 N   0  0  0  0  0  0  0  0  0  0  0  0
  146.2099  137.7168  155.1739 C   0  0  0  0  0  0  0  0  0  0  0  0
  146.4907  136.8828  156.2093 N   0  0  0  0  0  0  0  0  0  0  0  0
  146.4914  135.5604  156.0144 C   0  0  0  0  0  0  0  0  0  0  0  0
  146.2445  134.8814  154.8911 N   0  0  0  0  0  0  0  0  0  0  0  0
  145.9663  135.7206  153.8516 C   0  0  0  0  0  0  0  0  0  0  0  0
  145.9289  137.1411  153.9086 C   0  0  0  0  0  0  0  0  0  0  0  0
  145.6021  137.6644  152.6650 N   0  0  0  0  0  0  0  0  0  0  0  0
  145.4533  136.6091  151.9113 C   0  0  0  0  0  0  0  0  0  0  0  0
  145.6608  135.4001  152.5394 N   0  0  0  0  0  0  0  0  0  0  0  0
  145.5462  134.0952  151.9521 C   0  0  0  0  0  0  0  0  0  0  0  0
  145.9663  133.8294  150.5046 C   0  0  0  0  0  0  0  0  0  0  0  0
  144.8387  132.7784  150.3808 C   0  0  0  0  0  0  0  0  0  0  0  0
  144.0491  132.8060  149.0615 C   0  0  0  0  0  0  0  0  0  0  0  0
  142.8576  132.0530  149.1628 O   0  0  0  0  0  0  0  0  0  0  0  0
  145.2576  131.3268  150.6897 C   0  0  0  0  0  0  0  0  0  0  0  0
  146.4581  131.2830  151.4347 O   0  0  0  0  0  0  0  0  0  0  0  0
  144.1799  133.5362  151.5557 C   0  0  0  0  0  0  0  0  0  0  0  0
  148.0047  141.5967  155.4877 C   0  0  0  0  0  0  0  0  0  0  0  0
  150.4726  140.9335  156.5142 H   0  0  0  0  0  0  0  0  0  0  0  0
  150.5353  142.5178  155.7316 H   0  0  0  0  0  0  0  0  0  0  0  0
  151.3457  141.1408  154.9910 H   0  0  0  0  0  0  0  0  0  0  0  0
  150.0534  139.3946  153.9077 H   0  0  0  0  0  0  0  0  0  0  0  0
  149.0954  139.0850  155.3411 H   0  0  0  0  0  0  0  0  0  0  0  0
  148.0513  139.9762  152.6071 H   0  0  0  0  0  0  0  0  0  0  0  0
  147.8932  138.3754  153.2519 H   0  0  0  0  0  0  0  0  0  0  0  0
  145.8066  139.8035  153.4687 H   0  0  0  0  0  0  0  0  0  0  0  0
  146.8647  141.9544  153.7157 H   0  0  0  0  0  0  0  0  0  0  0  0
  145.5789  142.8839  155.6679 H   0  0  0  0  0  0  0  0  0  0  0  0
  144.6442  141.8821  154.5873 H   0  0  0  0  0  0  0  0  0  0  0  0
  145.7741  141.0270  157.2945 H   0  0  0  0  0  0  0  0  0  0  0  0
  144.0943  141.2556  156.8898 H   0  0  0  0  0  0  0  0  0  0  0  0
  144.7618  138.8373  156.8775 H   0  0  0  0  0  0  0  0  0  0  0  0
  144.1339  139.3604  155.3266 H   0  0  0  0  0  0  0  0  0  0  0  0
  146.7235  134.9606  156.8820 H   0  0  0  0  0  0  0  0  0  0  0  0
  145.1824  136.6859  150.8683 H   0  0  0  0  0  0  0  0  0  0  0  0
  146.0592  133.4010  152.6197 H   0  0  0  0  0  0  0  0  0  0  0  0
  145.8169  134.6900  149.8507 H   0  0  0  0  0  0  0  0  0  0  0  0
  146.9774  133.4356  150.3979 H   0  0  0  0  0  0  0  0  0  0  0  0
  143.7742  133.8273  148.7964 H   0  0  0  0  0  0  0  0  0  0  0  0
  144.6411  132.4241  148.2297 H   0  0  0  0  0  0  0  0  0  0  0  0
  142.1366  132.6493  149.2950 H   0  0  0  0  0  0  0  0  0  0  0  0
  144.4905  130.8101  151.2666 H   0  0  0  0  0  0  0  0  0  0  0  0
  145.3898  130.7458  149.7766 H   0  0  0  0  0  0  0  0  0  0  0  0
  147.1681  131.0710  150.8480 H   0  0  0  0  0  0  0  0  0  0  0  0
  143.7177  132.8990  152.3103 H   0  0  0  0  0  0  0  0  0  0  0  0
  143.4885  134.3138  151.2258 H   0  0  0  0  0  0  0  0  0  0  0  0
  147.9238  141.0827  156.4462 H   0  0  0  0  0  0  0  0  0  0  0  0
  148.1044  142.6603  155.7082 H   0  0  0  0  0  0  0  0  0  0  0  0
  149.2851  141.6394  153.9273 H   0  0  0  0  0  0  0  0  0  0  0  0
  1  2  1  0  0  0  0
  1 29  1  0  0  0  0
  1 30  1  0  0  0  0
  1 31  1  0  0  0  0
  2 28  1  0  0  0  0
  2  3  1  0  0  0  0
  2 59  1  0  0  0  0
  3  4  1  0  0  0  0
  3 32  1  0  0  0  0
  3 33  1  0  0  0  0
  4  5  1  0  0  0  0
  4 34  1  0  0  0  0
  4 35  1  0  0  0  0
  5 10  1  0  0  0  0
  5  6  1  0  0  0  0
  5 36  1  0  0  0  0
  6  7  1  0  0  0  0
  6 28  1  0  0  0  0
  6 37  1  0  0  0  0
  7  8  1  0  0  0  0
  7 38  1  0  0  0  0
  7 39  1  0  0  0  0
  8  9  1  0  0  0  0
  8 40  1  0  0  0  0
  8 41  1  0  0  0  0
  9 10  1  0  0  0  0
  9 42  1  0  0  0  0
  9 43  1  0  0  0  0
 10 11  1  0  0  0  0
 11 16  1  0  0  0  0
 11 12  2  0  0  0  0
 12 13  1  0  0  0  0
 13 14  2  0  0  0  0
 13 44  1  0  0  0  0
 14 15  1  0  0  0  0
 15 19  1  0  0  0  0
 15 16  2  0  0  0  0
 16 17  1  0  0  0  0
 17 18  2  0  0  0  0
 18 19  1  0  0  0  0
 18 45  1  0  0  0  0
 19 20  1  0  0  0  0
 20 27  1  0  0  0  0
 20 21  1  0  0  0  0
 20 46  1  0  0  0  0
 21 22  1  0  0  0  0
 21 47  1  0  0  0  0
 21 48  1  0  0  0  0
 22 23  1  0  0  0  0
 22 25  1  0  0  0  0
 22 27  1  0  0  0  0
 23 24  1  0  0  0  0
 23 49  1  0  0  0  0
 23 50  1  0  0  0  0
 24 51  1  0  0  0  0
 25 26  1  0  0  0  0
 25 52  1  0  0  0  0
 25 53  1  0  0  0  0
 26 54  1  0  0  0  0
 27 55  1  0  0  0  0
 27 56  1  0  0  0  0
 28 57  1  0  0  0  0
 28 58  1  0  0  0  0
M  CHG  1   2   1
M  END
> <s_m_source_file>
AV-unprocessed.smi

> <i_m_source_file_index>
198

> <i_lp_mmshare_version>
43012

> <i_f3d_flags>
0

> <s_epik_input>
W0NIMl0xW0NIMl1OKFtDSDNdKVtDSDJdW0NAQEhdKFtDQEhdMTIpW0NIMl1bQ0gyXVtDSDJdTjJjKG5bY0hdbjMpYyhjMzQpbltjSF1uNFtDSF0oW0NIMl01KVtDSDJdQzUoW0NIMl1bT0hdKVtDSDJdW09IXQ==

> <s_epik_cmdline>
J2VwaWtfcHl0aG9uJywgJy1waCcsICc3LjAnLCAnLXRuJywgJzgnLCAnLW1hJywgJzIwMCcsICctbWV0YWxfYmluZGluZycsICctaW1hZScsICc8aW5maWxlLm1hZT4nLCAnLW9tYWUnLCAnPG91dGZpbGUubWFlPic=

> <r_lp_tautomer_probability>
1

> <r_epik_Ionization_Penalty>
0.00239938

> <r_epik_Ionization_Penalty_Charging>
0.00138697

> <r_epik_Ionization_Penalty_Neutral>
0.00101241

> <r_epik_State_Penalty>
-0

> <r_epik_Charging_Adjusted_Penalty>
0.00138697

> <i_epik_Tot_Q>
1

> <i_epik_Tot_abs_Q>
1

> <r_epik_Metal_State_Penalty>
-0

> <b_epik_Metal_Only>
0

> <s_lp_Force_Field>
OPLS_2005

> <r_lp_Energy>
58.6864

> <b_lp_Chiralities_Consistent>
1

> <s_lp_Variant>
AV-unprocessed.smi:198-3

> <Gold.Version>
5.8.1

> <Gold.Id.Protein>
6NUR|6NUR_protein|mol2

> <Gold.PLP.Fitness>
44.8971

> <Gold.PLP.PLP>
-35.9929

> <Gold.PLP.part.hbond>
-4.0000

> <Gold.PLP.part.metal>
0.0000

> <Gold.PLP.part.buried>
-3.7642

> <Gold.PLP.part.nonpolar>
-28.0245

> <Gold.PLP.part.repulsive>
0.4920

> <Gold.PLP.ligand.clash>
0.0000

> <Gold.PLP.ligand.torsion>
1.6839

> <Gold.PLP.Chemscore.Hbond>
2.9500

> <Gold.PLP.Chemscore.CHOScore>
0.9124

> <Gold.PLP.Chemscore.Metal>
0.0000

> <Gold.Chemscore.Hbonds>
donor molecule, donor type, donor heavy atom, donor atom, acceptor molecule, acceptor atom, score
      L1  H    24    51       P1 10186  0.81
      L1  H    26    54       P1 10747  1.00
      P1  H 10785 10796       L1    24  1.00
      L1  C    18    45       P1 10171  0.92

> <Gold.PLP.Chemscore.Internal.Correction>
0.6847

> <Gold.Rescore>
     Score         DG    S(hbond)    S(metal)    S(lipo)     H(rot)  DE(clash)    DE(int)     intcor
     12.31     -16.45       2.64        0.00      85.78       3.08       0.11       4.02       ----

> <Gold.Chemscore.Fitness>
12.3131

> <Gold.Chemscore.DG>
-16.4497

> <Gold.Chemscore.ZeroCoef>
-5.4800

> <Gold.Chemscore.Hbond>
2.6388

> <Gold.Chemscore.Metal>
0.0000

> <Gold.Chemscore.Lipo>
85.7796

> <Gold.Chemscore.Internal_Hbond>
0.0000

> <Gold.Chemscore.DEClash>
0.1139

> <Gold.Chemscore.DEInternal>
4.0228

> <Gold.Chemscore.Rot>
3.0781

> <Gold.Chemscore.Internal.Correction>
   9.000000E+99

> <Gold.Chemscore.Hbonds>
donor molecule, donor type, donor heavy atom, donor atom, acceptor molecule, acceptor atom, score
      L1  H    24    51       P1 10186  0.80
      L1  H    26    54       P1 10747  0.99
      P1  H 10785 10796       L1    24  0.76

> <Gold.Chemscore.Hbond.Weighted>
-8.8135

> <Gold.Chemscore.Metal.Weighted>
-0.0000

> <Gold.Chemscore.Lipo.Weighted>
-10.0362

> <Gold.Chemscore.Internal_Hbond.Weighted>
0.0000

> <Gold.Chemscore.DEClash.Weighted>
0.1139

> <Gold.Chemscore.DEInternal.Weighted>
4.0228

> <Gold.Chemscore.Rot.Weighted>
7.8800

> <Gold.Chemscore.Internal.Correction.Weighted>
   9.000000E+99

> <Gold.Protein.RotatedTorsions>
[ 6907 6896 6895 6894 ] final -131.56 input  -60.11 | X-H torsion
[ 7974 7965 7964 7962 ] final   48.97 input  175.53 | X-H torsion
[ 8008 7997 7996 7995 ] final -136.14 input   59.86 | X-H torsion
[ 10167 10162 10161 10158 ] final  -30.00 input  -65.29 | X-H torsion
[ 10718 10713 10712 10709 ] final   91.60 input   66.30 | X-H torsion
[ 10763 10752 10751 10750 ] final  112.47 input  -60.55 | X-H torsion
[ 11005 11000 10999 10996 ] final  -91.44 input  -57.11 | X-H torsion

> <Gold.Protein.ActiveResidues>
 VAL166  LYS551  ARG553  GLY616  TRP617  ASP618  TYR619  PRO620  LYS621  CYS622 
 ASP623  PHE694  ASN695  SER759  ASP760  ASP761  ALA762  ILE779  LEU786  VAL792 
 PHE793  MET794  SER795  GLU796  ALA797  LYS798  CYS799  TRP800  GLU811  SER814 

> <Gold.Protein.RotatedAtoms>
  150.9524  133.6535  159.2769 H   0  0  0  0  0  0  0  0  0  0  0  0  # atno 6907 bound_to 6896
  151.3886  135.0951  159.9528 H   0  0  0  0  0  0  0  0  0  0  0  0  # atno 6908 bound_to 6896
  152.5115  133.9043  159.7511 H   0  0  0  0  0  0  0  0  0  0  0  0  # atno 6909 bound_to 6896
  146.0154  139.4590  142.9930 H   0  0  0  0  0  0  0  0  0  0  0  0  # atno 7974 bound_to 7965
  155.3902  140.0499  157.3041 H   0  0  0  0  0  0  0  0  0  0  0  0  # atno 8008 bound_to 7997
  154.5040  140.2167  155.9251 H   0  0  0  0  0  0  0  0  0  0  0  0  # atno 8009 bound_to 7997
  156.1502  140.3137  155.8641 H   0  0  0  0  0  0  0  0  0  0  0  0  # atno 8010 bound_to 7997
  140.7254  143.3883  151.1475 H   0  0  0  0  0  0  0  0  0  0  0  0  # atno 10167 bound_to 10162
  157.6960  131.0413  150.3755 H   0  0  0  0  0  0  0  0  0  0  0  0  # atno 10718 bound_to 10713
  153.4783  135.3685  155.2428 H   0  0  0  0  0  0  0  0  0  0  0  0  # atno 10763 bound_to 10752
  154.8756  135.3948  154.3731 H   0  0  0  0  0  0  0  0  0  0  0  0  # atno 10764 bound_to 10752
  153.4330  135.7082  153.6283 H   0  0  0  0  0  0  0  0  0  0  0  0  # atno 10765 bound_to 10752
  141.1544  133.7756  156.9880 H   0  0  0  0  0  0  0  0  0  0  0  0  # atno 11005 bound_to 11000
  145.7277  141.0053  143.1368 LP  0  0  0  0  0  0  0  0  0  0  0  0  # atno 17320 bound_to 7965
  144.6969  139.8947  143.7455 LP  0  0  0  0  0  0  0  0  0  0  0  0  # atno 17321 bound_to 7965
  139.7484  143.8817  152.3070 LP  0  0  0  0  0  0  0  0  0  0  0  0  # atno 17342 bound_to 10162
  139.8662  144.7092  150.9041 LP  0  0  0  0  0  0  0  0  0  0  0  0  # atno 17343 bound_to 10162
  156.4175  130.3946  149.6848 LP  0  0  0  0  0  0  0  0  0  0  0  0  # atno 17370 bound_to 10713
  156.4111  130.7722  151.2735 LP  0  0  0  0  0  0  0  0  0  0  0  0  # atno 17371 bound_to 10713
  140.1022  134.9528  157.1940 LP  0  0  0  0  0  0  0  0  0  0  0  0  # atno 17394 bound_to 11000
  140.3304  134.2816  155.7229 LP  0  0  0  0  0  0  0  0  0  0  0  0  # atno 17395 bound_to 11000

$$$$
