AV-unprocessed.smi:906|AV-procd|sdf|4102|dock9
  -GOLD-   22720 1593D 1   1.00000     0.00000
 Structure written by MMmdl.
 48 49  0  0  0  0  0  0  0  0  2 V2000
  143.4430  132.6877  148.0723 C   0  0  0  0  0  0  0  0  0  0  0  0
  144.1774  132.8906  149.3804 C   0  0  0  0  0  0  0  0  0  0  0  0
  145.4175  132.2744  149.6528 C   0  0  0  0  0  0  0  0  0  0  0  0
  146.0419  132.5044  150.8961 C   0  0  0  0  0  0  0  0  0  0  0  0
  145.4142  133.3447  151.8420 C   0  0  0  0  0  0  0  0  0  0  0  0
  146.0399  133.5844  153.2051 C   0  0  0  0  0  0  0  0  0  0  0  0
  146.1706  132.3071  154.0577 C   0  0  0  0  0  0  0  0  0  0  0  0
  145.7929  132.5267  155.4521 N   0  0  0  0  0  0  0  0  0  0  0  0
  146.4389  132.0452  156.5287 C   0  0  0  0  0  0  0  0  0  0  0  0
  147.4544  131.3546  156.4310 O   0  0  0  0  0  0  0  0  0  0  0  0
  145.9279  132.4468  157.7180 N   0  0  0  0  0  0  0  0  0  0  0  0
  146.3275  131.9684  159.0493 C   0  0  0  0  0  0  0  0  0  0  0  0
  147.1230  133.0810  159.7593 C   0  0  0  0  0  0  0  0  0  0  0  0
  146.3037  134.2960  159.8699 N   0  0  0  0  0  0  0  0  0  0  0  0
  146.9121  135.3924  160.6427 C   0  0  2  0  0  0  0  0  0  0  0  0
  148.3260  135.7862  160.1612 C   0  0  0  0  0  0  0  0  0  0  0  0
  146.8621  135.1227  162.1659 C   0  0  0  0  0  0  0  0  0  0  0  0
  145.6125  134.8538  162.5466 F   0  0  0  0  0  0  0  0  0  0  0  0
  147.6525  134.1117  162.5265 F   0  0  0  0  0  0  0  0  0  0  0  0
  147.2639  136.2153  162.8151 F   0  0  0  0  0  0  0  0  0  0  0  0
  145.8571  134.7467  158.5461 C   0  0  0  0  0  0  0  0  0  0  0  0
  145.0665  133.6250  157.8469 C   0  0  0  0  0  0  0  0  0  0  0  0
  144.1778  133.9396  151.5106 C   0  0  0  0  0  0  0  0  0  0  0  0
  143.6113  133.6927  150.3098 N   0  3  0  0  0  0  0  0  0  0  0  0
  143.9720  131.9825  147.4303 H   0  0  0  0  0  0  0  0  0  0  0  0
  143.3515  133.6333  147.5373 H   0  0  0  0  0  0  0  0  0  0  0  0
  142.4421  132.2956  148.2548 H   0  0  0  0  0  0  0  0  0  0  0  0
  145.8842  131.6291  148.9227 H   0  0  0  0  0  0  0  0  0  0  0  0
  146.9856  132.0299  151.1232 H   0  0  0  0  0  0  0  0  0  0  0  0
  147.0226  134.0400  153.0744 H   0  0  0  0  0  0  0  0  0  0  0  0
  145.4357  134.3188  153.7390 H   0  0  0  0  0  0  0  0  0  0  0  0
  145.5192  131.5328  153.6520 H   0  0  0  0  0  0  0  0  0  0  0  0
  147.1854  131.9109  153.9925 H   0  0  0  0  0  0  0  0  0  0  0  0
  144.9779  133.1002  155.6152 H   0  0  0  0  0  0  0  0  0  0  0  0
  145.4351  131.7185  159.6254 H   0  0  0  0  0  0  0  0  0  0  0  0
  146.9257  131.0578  159.0285 H   0  0  0  0  0  0  0  0  0  0  0  0
  147.4158  132.7256  160.7451 H   0  0  0  0  0  0  0  0  0  0  0  0
  148.0382  133.2865  159.2033 H   0  0  0  0  0  0  0  0  0  0  0  0
  146.2693  136.2597  160.4853 H   0  0  0  0  0  0  0  0  0  0  0  0
  148.6774  136.6713  160.6918 H   0  0  0  0  0  0  0  0  0  0  0  0
  148.3470  136.0254  159.0986 H   0  0  0  0  0  0  0  0  0  0  0  0
  149.0540  134.9957  160.3432 H   0  0  0  0  0  0  0  0  0  0  0  0
  145.2189  135.6248  158.6497 H   0  0  0  0  0  0  0  0  0  0  0  0
  146.7092  135.0373  157.9310 H   0  0  0  0  0  0  0  0  0  0  0  0
  144.6933  133.9783  156.8848 H   0  0  0  0  0  0  0  0  0  0  0  0
  144.1811  133.3661  158.4297 H   0  0  0  0  0  0  0  0  0  0  0  0
  143.6213  134.5883  152.1711 H   0  0  0  0  0  0  0  0  0  0  0  0
  142.7131  134.1273  150.0970 H   0  0  0  0  0  0  0  0  0  0  0  0
  1  2  1  0  0  0  0
  1 25  1  0  0  0  0
  1 26  1  0  0  0  0
  1 27  1  0  0  0  0
  2 24  1  0  0  0  0
  2  3  2  0  0  0  0
  3  4  1  0  0  0  0
  3 28  1  0  0  0  0
  4  5  2  0  0  0  0
  4 29  1  0  0  0  0
  5  6  1  0  0  0  0
  5 23  1  0  0  0  0
  6  7  1  0  0  0  0
  6 30  1  0  0  0  0
  6 31  1  0  0  0  0
  7  8  1  0  0  0  0
  7 32  1  0  0  0  0
  7 33  1  0  0  0  0
  8  9  1  0  0  0  0
  8 34  1  0  0  0  0
  9 10  2  0  0  0  0
  9 11  1  0  0  0  0
 11 22  1  0  0  0  0
 11 12  1  0  0  0  0
 12 13  1  0  0  0  0
 12 35  1  0  0  0  0
 12 36  1  0  0  0  0
 13 14  1  0  0  0  0
 13 37  1  0  0  0  0
 13 38  1  0  0  0  0
 14 15  1  0  0  0  0
 14 21  1  0  0  0  0
 15 16  1  0  0  0  0
 15 17  1  0  0  0  0
 15 39  1  0  0  0  0
 16 40  1  0  0  0  0
 16 41  1  0  0  0  0
 16 42  1  0  0  0  0
 17 18  1  0  0  0  0
 17 19  1  0  0  0  0
 17 20  1  0  0  0  0
 21 22  1  0  0  0  0
 21 43  1  0  0  0  0
 21 44  1  0  0  0  0
 22 45  1  0  0  0  0
 22 46  1  0  0  0  0
 23 24  2  0  0  0  0
 23 47  1  0  0  0  0
 24 48  1  0  0  0  0
M  CHG  1  24   1
M  END
> <s_m_source_file>
AV-unprocessed.smi

> <i_m_source_file_index>
906

> <i_lp_mmshare_version>
43012

> <i_f3d_flags>
0

> <s_epik_input>
W0NIM11jMVtjSF1bY0hdYyhbY0hdbjEpW0NIMl1bQ0gyXVtOSF1DKD1PKU4yW0NIMl1bQ0gyXU4oW0NASF0oW0NIM10pQyhGKShGKUYpW0NIMl1bQ0gyXTI=

> <s_epik_cmdline>
J2VwaWtfcHl0aG9uJywgJy1waCcsICc3LjAnLCAnLXRuJywgJzgnLCAnLW1hJywgJzIwMCcsICctbWV0YWxfYmluZGluZycsICctaW1hZScsICc8aW5maWxlLm1hZT4nLCAnLW9tYWUnLCAnPG91dGZpbGUubWFlPic=

> <r_epik_Ionization_Penalty>
1.4413

> <r_epik_Ionization_Penalty_Charging>
1.42075

> <r_epik_Ionization_Penalty_Neutral>
0.0205507

> <r_epik_State_Penalty>
1.52216

> <r_epik_Charging_Adjusted_Penalty>
2.94291

> <i_epik_Tot_Q>
1

> <i_epik_Tot_abs_Q>
1

> <r_epik_Metal_State_Penalty>
1.57308

> <b_epik_Metal_Only>
0

> <s_lp_Force_Field>
OPLS_2005

> <r_lp_Energy>
52.9553

> <b_lp_Chiralities_Consistent>
1

> <s_lp_Variant>
AV-unprocessed.smi:906-3

> <Gold.Version>
5.8.1

> <Gold.Id.Protein>
6NUR|6NUR_protein|mol2

> <Gold.PLP.Fitness>
44.2788

> <Gold.PLP.PLP>
-39.8889

> <Gold.PLP.part.hbond>
-1.5515

> <Gold.PLP.part.metal>
0.0000

> <Gold.PLP.part.buried>
-4.4376

> <Gold.PLP.part.nonpolar>
-34.0655

> <Gold.PLP.part.repulsive>
0.0368

> <Gold.PLP.ligand.clash>
0.6189

> <Gold.PLP.ligand.torsion>
0.8460

> <Gold.PLP.Chemscore.Hbond>
2.0000

> <Gold.PLP.Chemscore.CHOScore>
0.0000

> <Gold.PLP.Chemscore.Metal>
0.0000

> <Gold.Chemscore.Hbonds>
donor molecule, donor type, donor heavy atom, donor atom, acceptor molecule, acceptor atom, score
      L1  H    24    48       P1 10186  2.00

> <Gold.PLP.Chemscore.Internal.Correction>
0.7007

> <Gold.Rescore>
     Score         DG    S(hbond)    S(metal)    S(lipo)     H(rot)  DE(clash)    DE(int)     intcor
     13.79     -15.02       1.00        0.00      89.17       1.66       0.19       1.03       ----

> <Gold.Chemscore.Fitness>
13.7857

> <Gold.Chemscore.DG>
-15.0154

> <Gold.Chemscore.ZeroCoef>
-5.4800

> <Gold.Chemscore.Hbond>
0.9999

> <Gold.Chemscore.Metal>
0.0000

> <Gold.Chemscore.Lipo>
89.1738

> <Gold.Chemscore.Internal_Hbond>
0.0000

> <Gold.Chemscore.DEClash>
0.1950

> <Gold.Chemscore.DEInternal>
1.0347

> <Gold.Chemscore.Rot>
1.6553

> <Gold.Chemscore.Internal.Correction>
   9.000000E+99

> <Gold.Chemscore.Hbonds>
donor molecule, donor type, donor heavy atom, donor atom, acceptor molecule, acceptor atom, score
      L1  H    24    48       P1 10186  0.97

> <Gold.Chemscore.Hbond.Weighted>
-3.3397

> <Gold.Chemscore.Metal.Weighted>
-0.0000

> <Gold.Chemscore.Lipo.Weighted>
-10.4333

> <Gold.Chemscore.Internal_Hbond.Weighted>
0.0000

> <Gold.Chemscore.DEClash.Weighted>
0.1950

> <Gold.Chemscore.DEInternal.Weighted>
1.0347

> <Gold.Chemscore.Rot.Weighted>
4.2376

> <Gold.Chemscore.Internal.Correction.Weighted>
   9.000000E+99

> <Gold.Protein.RotatedTorsions>
[ 6907 6896 6895 6894 ] final -168.33 input  -60.11 | X-H torsion
[ 7974 7965 7964 7962 ] final   73.44 input  175.53 | X-H torsion
[ 8008 7997 7996 7995 ] final  -60.20 input   59.86 | X-H torsion
[ 10167 10162 10161 10158 ] final   -2.78 input  -65.29 | X-H torsion
[ 10718 10713 10712 10709 ] final    5.04 input   66.30 | X-H torsion
[ 10763 10752 10751 10750 ] final -107.86 input  -60.55 | X-H torsion
[ 11005 11000 10999 10996 ] final  120.40 input  -57.11 | X-H torsion

> <Gold.Protein.ActiveResidues>
 VAL166  LYS551  ARG553  GLY616  TRP617  ASP618  TYR619  PRO620  LYS621  CYS622 
 ASP623  PHE694  ASN695  SER759  ASP760  ASP761  ALA762  ILE779  LEU786  VAL792 
 PHE793  MET794  SER795  GLU796  ALA797  LYS798  CYS799  TRP800  GLU811  SER814 

> <Gold.Protein.RotatedAtoms>
  151.4738  133.3563  159.2827 H   0  0  0  0  0  0  0  0  0  0  0  0  # atno 6907 bound_to 6896
  150.8943  134.8352  159.7326 H   0  0  0  0  0  0  0  0  0  0  0  0  # atno 6908 bound_to 6896
  152.4842  134.4651  159.9669 H   0  0  0  0  0  0  0  0  0  0  0  0  # atno 6909 bound_to 6896
  145.7409  139.2720  143.1487 H   0  0  0  0  0  0  0  0  0  0  0  0  # atno 7974 bound_to 7965
  154.4387  140.1045  156.6235 H   0  0  0  0  0  0  0  0  0  0  0  0  # atno 8008 bound_to 7997
  155.5681  140.3488  155.4489 H   0  0  0  0  0  0  0  0  0  0  0  0  # atno 8009 bound_to 7997
  156.0410  140.1282  157.0145 H   0  0  0  0  0  0  0  0  0  0  0  0  # atno 8010 bound_to 7997
  140.6864  143.6617  150.8261 H   0  0  0  0  0  0  0  0  0  0  0  0  # atno 10167 bound_to 10162
  156.9015  130.5723  149.5648 H   0  0  0  0  0  0  0  0  0  0  0  0  # atno 10718 bound_to 10713
  154.8101  135.4659  154.0493 H   0  0  0  0  0  0  0  0  0  0  0  0  # atno 10763 bound_to 10752
  153.1931  135.6858  153.8334 H   0  0  0  0  0  0  0  0  0  0  0  0  # atno 10764 bound_to 10752
  153.7844  135.3252  155.3347 H   0  0  0  0  0  0  0  0  0  0  0  0  # atno 10765 bound_to 10752
  139.9184  134.9634  156.7802 H   0  0  0  0  0  0  0  0  0  0  0  0  # atno 11005 bound_to 11000
  146.0449  140.8128  142.9810 LP  0  0  0  0  0  0  0  0  0  0  0  0  # atno 17320 bound_to 7965
  144.6871  140.2965  143.7270 LP  0  0  0  0  0  0  0  0  0  0  0  0  # atno 17321 bound_to 7965
  140.0324  143.5429  152.2754 LP  0  0  0  0  0  0  0  0  0  0  0  0  # atno 17342 bound_to 10162
  139.6227  144.7632  151.2705 LP  0  0  0  0  0  0  0  0  0  0  0  0  # atno 17343 bound_to 10162
  156.0579  130.5637  150.9131 LP  0  0  0  0  0  0  0  0  0  0  0  0  # atno 17370 bound_to 10713
  157.6023  131.0940  150.8939 LP  0  0  0  0  0  0  0  0  0  0  0  0  # atno 17371 bound_to 10713
  140.6550  133.9696  155.7775 LP  0  0  0  0  0  0  0  0  0  0  0  0  # atno 17394 bound_to 11000
  141.0682  134.0245  157.3564 LP  0  0  0  0  0  0  0  0  0  0  0  0  # atno 17395 bound_to 11000

$$$$
