AV-unprocessed.smi:2855|AV-procd|sdf|10989|dock5
  -GOLD-   2272015443D 1   1.00000     0.00000
 Structure written by MMmdl.
 46 47  0  0  0  0  0  0  0  0  2 V2000
  145.1172  136.2971  151.6194 C   0  0  0  0  0  0  0  0  0  0  0  0
  145.6482  137.3176  152.6360 C   0  0  2  0  0  0  0  0  0  0  0  0
  146.5038  138.3988  151.9555 C   0  0  0  0  0  0  0  0  0  0  0  0
  147.0268  139.4231  152.9735 C   0  0  0  0  0  0  0  0  0  0  0  0
  147.8412  138.7534  154.1065 C   0  0  1  0  0  0  0  0  0  0  0  0
  148.4606  139.7791  155.1035 C   0  0  0  0  0  0  0  0  0  0  0  0
  147.5502  140.1243  156.2965 C   0  0  0  0  0  0  0  0  0  0  0  0
  148.9453  141.0606  154.4036 C   0  0  0  0  0  0  0  0  0  0  0  0
  146.9913  137.6421  154.7860 C   0  0  2  0  0  0  0  0  0  0  0  0
  147.7770  136.9095  155.7784 N   0  0  0  0  0  0  0  0  0  0  0  0
  147.2941  136.0710  156.7085 C   0  0  0  0  0  0  0  0  0  0  0  0
  146.0954  135.8169  156.8352 O   0  0  0  0  0  0  0  0  0  0  0  0
  148.3410  135.4522  157.6456 C   0  0  0  0  0  0  0  0  0  0  0  0
  148.0859  135.7153  159.0713 N   0  0  0  0  0  0  0  0  0  0  0  0
  147.9295  134.6044  159.9188 C   0  0  0  0  0  0  0  0  0  0  0  0
  147.6960  134.7439  161.2376 C   0  0  0  0  0  0  0  0  0  0  0  0
  147.6057  136.0924  161.7834 C   0  0  0  0  0  0  0  0  0  0  0  0
  147.3858  136.2390  162.9842 O   0  0  0  0  0  0  0  0  0  0  0  0
  147.7720  137.1383  160.9217 N   0  5  0  0  0  0  0  0  0  0  0  0
  148.0132  136.9812  159.5828 C   0  0  0  0  0  0  0  0  0  0  0  0
  148.1651  137.9389  158.8238 O   0  0  0  0  0  0  0  0  0  0  0  0
  146.4550  136.6321  153.7522 C   0  0  0  0  0  0  0  0  0  0  0  0
  145.9328  135.7687  151.1243 H   0  0  0  0  0  0  0  0  0  0  0  0
  144.5195  136.7846  150.8487 H   0  0  0  0  0  0  0  0  0  0  0  0
  144.4848  135.5533  152.1051 H   0  0  0  0  0  0  0  0  0  0  0  0
  144.7862  137.8059  153.0932 H   0  0  0  0  0  0  0  0  0  0  0  0
  147.3454  137.9362  151.4379 H   0  0  0  0  0  0  0  0  0  0  0  0
  145.9174  138.9123  151.1926 H   0  0  0  0  0  0  0  0  0  0  0  0
  147.6346  140.1571  152.4458 H   0  0  0  0  0  0  0  0  0  0  0  0
  146.1795  139.9672  153.3913 H   0  0  0  0  0  0  0  0  0  0  0  0
  148.6816  138.2466  153.6286 H   0  0  0  0  0  0  0  0  0  0  0  0
  149.3609  139.3288  155.5214 H   0  0  0  0  0  0  0  0  0  0  0  0
  146.6471  140.6453  155.9795 H   0  0  0  0  0  0  0  0  0  0  0  0
  148.0681  140.7743  157.0019 H   0  0  0  0  0  0  0  0  0  0  0  0
  147.2485  139.2345  156.8477 H   0  0  0  0  0  0  0  0  0  0  0  0
  148.1157  141.6580  154.0260 H   0  0  0  0  0  0  0  0  0  0  0  0
  149.6026  140.8299  153.5649 H   0  0  0  0  0  0  0  0  0  0  0  0
  149.5082  141.6900  155.0937 H   0  0  0  0  0  0  0  0  0  0  0  0
  146.1251  138.1068  155.2591 H   0  0  0  0  0  0  0  0  0  0  0  0
  148.7759  137.0538  155.7564 H   0  0  0  0  0  0  0  0  0  0  0  0
  148.3960  134.3783  157.4587 H   0  0  0  0  0  0  0  0  0  0  0  0
  149.3213  135.8405  157.3657 H   0  0  0  0  0  0  0  0  0  0  0  0
  148.0174  133.6425  159.4356 H   0  0  0  0  0  0  0  0  0  0  0  0
  147.5815  133.8799  161.8756 H   0  0  0  0  0  0  0  0  0  0  0  0
  145.8283  135.8939  154.2552 H   0  0  0  0  0  0  0  0  0  0  0  0
  147.2865  136.0791  153.3122 H   0  0  0  0  0  0  0  0  0  0  0  0
  1  2  1  0  0  0  0
  1 23  1  0  0  0  0
  1 24  1  0  0  0  0
  1 25  1  0  0  0  0
  2 22  1  0  0  0  0
  2  3  1  0  0  0  0
  2 26  1  0  0  0  0
  3  4  1  0  0  0  0
  3 27  1  0  0  0  0
  3 28  1  0  0  0  0
  4  5  1  0  0  0  0
  4 29  1  0  0  0  0
  4 30  1  0  0  0  0
  5  6  1  0  0  0  0
  5  9  1  0  0  0  0
  5 31  1  0  0  0  0
  6  7  1  0  0  0  0
  6  8  1  0  0  0  0
  6 32  1  0  0  0  0
  7 33  1  0  0  0  0
  7 34  1  0  0  0  0
  7 35  1  0  0  0  0
  8 36  1  0  0  0  0
  8 37  1  0  0  0  0
  8 38  1  0  0  0  0
  9 10  1  0  0  0  0
  9 22  1  0  0  0  0
  9 39  1  0  0  0  0
 10 11  1  0  0  0  0
 10 40  1  0  0  0  0
 11 12  2  0  0  0  0
 11 13  1  0  0  0  0
 13 14  1  0  0  0  0
 13 41  1  0  0  0  0
 13 42  1  0  0  0  0
 14 20  1  0  0  0  0
 14 15  1  0  0  0  0
 15 16  2  0  0  0  0
 15 43  1  0  0  0  0
 16 17  1  0  0  0  0
 16 44  1  0  0  0  0
 17 18  2  0  0  0  0
 17 19  1  0  0  0  0
 19 20  1  0  0  0  0
 20 21  2  0  0  0  0
 22 45  1  0  0  0  0
 22 46  1  0  0  0  0
M  CHG  1  19  -1
M  END
> <s_m_source_file>
AV-unprocessed.smi

> <i_m_source_file_index>
2855

> <i_lp_mmshare_version>
43012

> <i_f3d_flags>
0

> <s_epik_input>
W0NIM11bQ0BASF0xW0NIMl1bQ0gyXVtDQEBIXShbQ0hdKFtDSDNdKVtDSDNdKVtDQEhdKFtDSDJdMSlbTkhdQyg9TylbQ0gyXW4yW2NIXVtjSF1jKD1PKVtuSF1jMj1P

> <s_epik_cmdline>
J2VwaWtfcHl0aG9uJywgJy1waCcsICc3LjAnLCAnLXRuJywgJzgnLCAnLW1hJywgJzIwMCcsICctbWV0YWxfYmluZGluZycsICctaW1hZScsICc8aW5maWxlLm1hZT4nLCAnLW9tYWUnLCAnPG91dGZpbGUubWFlPic=

> <r_lp_tautomer_probability>
0.999537

> <r_epik_Ionization_Penalty>
3.12102

> <r_epik_Ionization_Penalty_Charging>
2.9581e-08

> <r_epik_Ionization_Penalty_Neutral>
3.12102

> <r_epik_State_Penalty>
3.12011

> <r_epik_Charging_Adjusted_Penalty>
3.12011

> <i_epik_Tot_Q>
-1

> <i_epik_Tot_abs_Q>
1

> <r_epik_Metal_State_Penalty>
0.463583

> <b_epik_Metal_Only>
1

> <s_lp_Force_Field>
OPLS_2005

> <r_lp_Energy>
24.0282

> <b_lp_Chiralities_Consistent>
1

> <s_lp_Variant>
AV-unprocessed.smi:2855-13

> <Gold.Version>
5.8.1

> <Gold.Id.Protein>
6NUR|6NUR_protein|mol2

> <Gold.PLP.Fitness>
37.3484

> <Gold.PLP.PLP>
-27.7962

> <Gold.PLP.part.hbond>
-2.8610

> <Gold.PLP.part.metal>
0.0000

> <Gold.PLP.part.buried>
-2.7423

> <Gold.PLP.part.nonpolar>
-23.0130

> <Gold.PLP.part.repulsive>
0.0050

> <Gold.PLP.ligand.clash>
0.0000

> <Gold.PLP.ligand.torsion>
0.6338

> <Gold.PLP.Chemscore.Hbond>
3.5840

> <Gold.PLP.Chemscore.CHOScore>
0.0000

> <Gold.PLP.Chemscore.Metal>
0.0000

> <Gold.Chemscore.Hbonds>
donor molecule, donor type, donor heavy atom, donor atom, acceptor molecule, acceptor atom, score
      P1  H  6931  6943       L1    19  1.82
      P1  H  6934  6947       L1    19  1.73

> <Gold.PLP.Chemscore.Internal.Correction>
0.0678

> <Gold.Rescore>
     Score         DG    S(hbond)    S(metal)    S(lipo)     H(rot)  DE(clash)    DE(int)     intcor
      8.31     -10.06       0.69        0.00      59.13       1.81       0.01       1.75       ----

> <Gold.Chemscore.Fitness>
8.3090

> <Gold.Chemscore.DG>
-10.0619

> <Gold.Chemscore.ZeroCoef>
-5.4800

> <Gold.Chemscore.Hbond>
0.6876

> <Gold.Chemscore.Metal>
0.0000

> <Gold.Chemscore.Lipo>
59.1339

> <Gold.Chemscore.Internal_Hbond>
0.0000

> <Gold.Chemscore.DEClash>
0.0052

> <Gold.Chemscore.DEInternal>
1.7477

> <Gold.Chemscore.Rot>
1.8100

> <Gold.Chemscore.Internal.Correction>
   9.000000E+99

> <Gold.Chemscore.Hbonds>
donor molecule, donor type, donor heavy atom, donor atom, acceptor molecule, acceptor atom, score
      P1  H  6931  6943       L1    19  0.28
      P1  H  6934  6947       L1    19  0.22

> <Gold.Chemscore.Hbond.Weighted>
-2.2967

> <Gold.Chemscore.Metal.Weighted>
-0.0000

> <Gold.Chemscore.Lipo.Weighted>
-6.9187

> <Gold.Chemscore.Internal_Hbond.Weighted>
0.0000

> <Gold.Chemscore.DEClash.Weighted>
0.0052

> <Gold.Chemscore.DEInternal.Weighted>
1.7477

> <Gold.Chemscore.Rot.Weighted>
4.6335

> <Gold.Chemscore.Internal.Correction.Weighted>
   9.000000E+99

> <Gold.Protein.RotatedTorsions>
[ 6907 6896 6895 6894 ] final   53.75 input  -60.11 | X-H torsion
[ 7974 7965 7964 7962 ] final  129.70 input  175.53 | X-H torsion
[ 8008 7997 7996 7995 ] final  -75.20 input   59.86 | X-H torsion
[ 10167 10162 10161 10158 ] final   17.56 input  -65.29 | X-H torsion
[ 10718 10713 10712 10709 ] final   -5.87 input   66.30 | X-H torsion
[ 10763 10752 10751 10750 ] final   60.32 input  -60.55 | X-H torsion
[ 11005 11000 10999 10996 ] final   81.42 input  -57.11 | X-H torsion

> <Gold.Protein.ActiveResidues>
 VAL166  LYS551  ARG553  GLY616  TRP617  ASP618  TYR619  PRO620  LYS621  CYS622 
 ASP623  PHE694  ASN695  SER759  ASP760  ASP761  ALA762  ILE779  LEU786  VAL792 
 PHE793  MET794  SER795  GLU796  ALA797  LYS798  CYS799  TRP800  GLU811  SER814 

> <Gold.Protein.RotatedAtoms>
  152.3369  134.7186  160.0274 H   0  0  0  0  0  0  0  0  0  0  0  0  # atno 6907 bound_to 6896
  151.7584  133.3326  159.3419 H   0  0  0  0  0  0  0  0  0  0  0  0  # atno 6908 bound_to 6896
  150.7456  134.6060  159.6106 H   0  0  0  0  0  0  0  0  0  0  0  0  # atno 6909 bound_to 6896
  145.0258  139.4090  143.5174 H   0  0  0  0  0  0  0  0  0  0  0  0  # atno 7974 bound_to 7965
  154.5396  140.0748  156.8487 H   0  0  0  0  0  0  0  0  0  0  0  0  # atno 8008 bound_to 7997
  155.3208  140.3396  155.4223 H   0  0  0  0  0  0  0  0  0  0  0  0  # atno 8009 bound_to 7997
  156.1861  140.1669  156.8168 H   0  0  0  0  0  0  0  0  0  0  0  0  # atno 8010 bound_to 7997
  140.5717  143.9148  150.6718 H   0  0  0  0  0  0  0  0  0  0  0  0  # atno 10167 bound_to 10162
  156.7402  130.5207  149.5826 H   0  0  0  0  0  0  0  0  0  0  0  0  # atno 10718 bound_to 10713
  152.9918  135.5540  154.5855 H   0  0  0  0  0  0  0  0  0  0  0  0  # atno 10763 bound_to 10752
  154.5227  135.2808  155.1250 H   0  0  0  0  0  0  0  0  0  0  0  0  # atno 10764 bound_to 10752
  154.2597  135.6383  153.5323 H   0  0  0  0  0  0  0  0  0  0  0  0  # atno 10765 bound_to 10752
  139.9099  134.7995  156.2039 H   0  0  0  0  0  0  0  0  0  0  0  0  # atno 11005 bound_to 11000
  146.3492  139.9781  142.8699 LP  0  0  0  0  0  0  0  0  0  0  0  0  # atno 17320 bound_to 7965
  145.1835  140.9778  143.4252 LP  0  0  0  0  0  0  0  0  0  0  0  0  # atno 17321 bound_to 7965
  140.2625  143.3513  152.1310 LP  0  0  0  0  0  0  0  0  0  0  0  0  # atno 17342 bound_to 10162
  139.5121  144.6911  151.5756 LP  0  0  0  0  0  0  0  0  0  0  0  0  # atno 17343 bound_to 10162
  156.1469  130.6283  151.0544 LP  0  0  0  0  0  0  0  0  0  0  0  0  # atno 17370 bound_to 10713
  157.6821  131.0835  150.7340 LP  0  0  0  0  0  0  0  0  0  0  0  0  # atno 17371 bound_to 10713
  141.0507  133.6890  156.1767 LP  0  0  0  0  0  0  0  0  0  0  0  0  # atno 17394 bound_to 11000
  140.6814  134.4763  157.5589 LP  0  0  0  0  0  0  0  0  0  0  0  0  # atno 17395 bound_to 11000

$$$$
