AV-unprocessed.smi:2136|AV-procd|sdf|8705|dock1
  -GOLD-   2272011463D 1   1.00000     0.00000
 Structure written by MMmdl.
 43 44  0  0  0  0  0  0  0  0  2 V2000
  151.5777  140.4494  155.9956 C   0  0  0  0  0  0  0  0  0  0  0  0
  151.9060  140.2456  157.7950 S   0  0  0  0  0  0  0  0  0  0  0  0
  150.6852  139.7204  158.4241 O   0  0  0  0  0  0  0  0  0  0  0  0
  153.1641  139.4988  157.9478 O   0  0  0  0  0  0  0  0  0  0  0  0
  152.1885  141.8922  158.3321 N   0  0  0  0  0  0  0  0  0  0  0  0
  151.3775  142.9094  157.6174 C   0  0  0  0  0  0  0  0  0  0  0  0
  151.8115  144.3507  157.9087 C   0  0  0  0  0  0  0  0  0  0  0  0
  151.7929  144.6224  159.4075 C   0  0  0  0  0  0  0  0  0  0  0  0
  152.7566  143.6472  160.0749 C   0  0  0  0  0  0  0  0  0  0  0  0
  152.3995  142.1670  159.7919 C   0  0  2  0  0  0  0  0  0  0  0  0
  153.4400  141.2963  160.5118 C   0  0  0  0  0  0  0  0  0  0  0  0
  154.3783  141.8272  161.1058 O   0  0  0  0  0  0  0  0  0  0  0  0
  153.2651  139.9658  160.4532 N   0  0  0  0  0  0  0  0  0  0  0  0
  154.1227  138.9812  161.0998 C   0  0  0  0  0  0  0  0  0  0  0  0
  153.5872  137.5522  160.9138 C   0  0  0  0  0  0  0  0  0  0  0  0
  153.9508  136.6516  162.0779 C   0  0  0  0  0  0  0  0  0  0  0  0
  153.6225  137.0159  163.4026 C   0  0  0  0  0  0  0  0  0  0  0  0
  153.9779  136.1572  164.4637 C   0  0  0  0  0  0  0  0  0  0  0  0
  154.6551  134.9543  164.1761 C   0  0  0  0  0  0  0  0  0  0  0  0
  154.9538  134.6402  162.8962 N   0  3  0  0  0  0  0  0  0  0  0  0
  154.6300  135.4347  161.8524 C   0  0  0  0  0  0  0  0  0  0  0  0
  151.4221  139.4690  155.5462 H   0  0  0  0  0  0  0  0  0  0  0  0
  152.4280  140.9327  155.5162 H   0  0  0  0  0  0  0  0  0  0  0  0
  150.6830  141.0542  155.8510 H   0  0  0  0  0  0  0  0  0  0  0  0
  151.4417  142.7433  156.5425 H   0  0  0  0  0  0  0  0  0  0  0  0
  150.3303  142.7798  157.8917 H   0  0  0  0  0  0  0  0  0  0  0  0
  152.8106  144.5271  157.5073 H   0  0  0  0  0  0  0  0  0  0  0  0
  151.1455  145.0466  157.3979 H   0  0  0  0  0  0  0  0  0  0  0  0
  152.0931  145.6505  159.6111 H   0  0  0  0  0  0  0  0  0  0  0  0
  150.7855  144.4977  159.8066 H   0  0  0  0  0  0  0  0  0  0  0  0
  153.7684  143.8636  159.7275 H   0  0  0  0  0  0  0  0  0  0  0  0
  152.7609  143.8317  161.1504 H   0  0  0  0  0  0  0  0  0  0  0  0
  151.4432  141.9749  160.2808 H   0  0  0  0  0  0  0  0  0  0  0  0
  152.4616  139.6165  159.9505 H   0  0  0  0  0  0  0  0  0  0  0  0
  155.1387  139.0658  160.7095 H   0  0  0  0  0  0  0  0  0  0  0  0
  154.1772  139.2243  162.1614 H   0  0  0  0  0  0  0  0  0  0  0  0
  152.5026  137.5708  160.7974 H   0  0  0  0  0  0  0  0  0  0  0  0
  153.9860  137.1129  159.9985 H   0  0  0  0  0  0  0  0  0  0  0  0
  153.1056  137.9428  163.6053 H   0  0  0  0  0  0  0  0  0  0  0  0
  153.7350  136.4184  165.4832 H   0  0  0  0  0  0  0  0  0  0  0  0
  154.9648  134.2399  164.9248 H   0  0  0  0  0  0  0  0  0  0  0  0
  154.9239  135.0765  160.8762 H   0  0  0  0  0  0  0  0  0  0  0  0
  155.4457  133.7658  162.7096 H   0  0  0  0  0  0  0  0  0  0  0  0
  1  2  1  0  0  0  0
  1 22  1  0  0  0  0
  1 23  1  0  0  0  0
  1 24  1  0  0  0  0
  2  3  2  0  0  0  0
  2  4  2  0  0  0  0
  2  5  1  0  0  0  0
  5 10  1  0  0  0  0
  5  6  1  0  0  0  0
  6  7  1  0  0  0  0
  6 25  1  0  0  0  0
  6 26  1  0  0  0  0
  7  8  1  0  0  0  0
  7 27  1  0  0  0  0
  7 28  1  0  0  0  0
  8  9  1  0  0  0  0
  8 29  1  0  0  0  0
  8 30  1  0  0  0  0
  9 10  1  0  0  0  0
  9 31  1  0  0  0  0
  9 32  1  0  0  0  0
 10 11  1  0  0  0  0
 10 33  1  0  0  0  0
 11 12  2  0  0  0  0
 11 13  1  0  0  0  0
 13 14  1  0  0  0  0
 13 34  1  0  0  0  0
 14 15  1  0  0  0  0
 14 35  1  0  0  0  0
 14 36  1  0  0  0  0
 15 16  1  0  0  0  0
 15 37  1  0  0  0  0
 15 38  1  0  0  0  0
 16 21  1  0  0  0  0
 16 17  2  0  0  0  0
 17 18  1  0  0  0  0
 17 39  1  0  0  0  0
 18 19  2  0  0  0  0
 18 40  1  0  0  0  0
 19 20  1  0  0  0  0
 19 41  1  0  0  0  0
 20 21  2  0  0  0  0
 20 43  1  0  0  0  0
 21 42  1  0  0  0  0
M  CHG  1  20   1
M  END
> <s_m_source_file>
AV-unprocessed.smi

> <i_m_source_file_index>
2136

> <i_lp_mmshare_version>
43012

> <i_f3d_flags>
0

> <s_epik_input>
W0NIM11TKD1PKSg9TylOMVtDSDJdW0NIMl1bQ0gyXVtDSDJdW0NASF0xQyg9TylbTkhdW0NIMl1bQ0gyXWMyW2NIXVtjSF1bY0hdbltjSF0y

> <s_epik_cmdline>
J2VwaWtfcHl0aG9uJywgJy1waCcsICc3LjAnLCAnLXRuJywgJzgnLCAnLW1hJywgJzIwMCcsICctbWV0YWxfYmluZGluZycsICctaW1hZScsICc8aW5maWxlLm1hZT4nLCAnLW9tYWUnLCAnPG91dGZpbGUubWFlPic=

> <r_epik_Ionization_Penalty>
2.2835

> <r_epik_Ionization_Penalty_Charging>
2.2835

> <r_epik_Ionization_Penalty_Neutral>
1.35461e-07

> <r_epik_State_Penalty>
2.43297

> <r_epik_Charging_Adjusted_Penalty>
4.71647

> <i_epik_Tot_Q>
1

> <i_epik_Tot_abs_Q>
1

> <r_epik_Metal_State_Penalty>
2.44557

> <b_epik_Metal_Only>
0

> <s_lp_Force_Field>
OPLS_2005

> <r_lp_Energy>
10.903

> <b_lp_Chiralities_Consistent>
1

> <s_lp_Variant>
AV-unprocessed.smi:2136-4

> <Gold.Version>
5.8.1

> <Gold.Id.Protein>
6NUR|6NUR_protein|mol2

> <Gold.PLP.Fitness>
48.2053

> <Gold.PLP.PLP>
-45.9566

> <Gold.PLP.part.hbond>
-2.0000

> <Gold.PLP.part.metal>
0.0000

> <Gold.PLP.part.buried>
-3.0828

> <Gold.PLP.part.nonpolar>
-40.6442

> <Gold.PLP.part.repulsive>
0.1160

> <Gold.PLP.ligand.clash>
0.0464

> <Gold.PLP.ligand.torsion>
0.8246

> <Gold.PLP.Chemscore.Hbond>
1.0000

> <Gold.PLP.Chemscore.CHOScore>
0.0000

> <Gold.PLP.Chemscore.Metal>
0.0000

> <Gold.Chemscore.Hbonds>
donor molecule, donor type, donor heavy atom, donor atom, acceptor molecule, acceptor atom, score
      P1  H  7997  8010       L1     4  1.00

> <Gold.PLP.Chemscore.Internal.Correction>
0.9442

> <Gold.Rescore>
     Score         DG    S(hbond)    S(metal)    S(lipo)     H(rot)  DE(clash)    DE(int)     intcor
     15.74     -17.68       0.98        0.00     118.89       1.95       0.06       1.88       ----

> <Gold.Chemscore.Fitness>
15.7433

> <Gold.Chemscore.DG>
-17.6831

> <Gold.Chemscore.ZeroCoef>
-5.4800

> <Gold.Chemscore.Hbond>
0.9809

> <Gold.Chemscore.Metal>
0.0000

> <Gold.Chemscore.Lipo>
118.8900

> <Gold.Chemscore.Internal_Hbond>
0.0000

> <Gold.Chemscore.DEClash>
0.0583

> <Gold.Chemscore.DEInternal>
1.8815

> <Gold.Chemscore.Rot>
1.9466

> <Gold.Chemscore.Internal.Correction>
   9.000000E+99

> <Gold.Chemscore.Hbonds>
donor molecule, donor type, donor heavy atom, donor atom, acceptor molecule, acceptor atom, score
      P1  H  7997  8010       L1     4  0.96

> <Gold.Chemscore.Hbond.Weighted>
-3.2762

> <Gold.Chemscore.Metal.Weighted>
-0.0000

> <Gold.Chemscore.Lipo.Weighted>
-13.9101

> <Gold.Chemscore.Internal_Hbond.Weighted>
0.0000

> <Gold.Chemscore.DEClash.Weighted>
0.0583

> <Gold.Chemscore.DEInternal.Weighted>
1.8815

> <Gold.Chemscore.Rot.Weighted>
4.9832

> <Gold.Chemscore.Internal.Correction.Weighted>
   9.000000E+99

> <Gold.Protein.RotatedTorsions>
[ 6907 6896 6895 6894 ] final   59.86 input  -60.11 | X-H torsion
[ 7974 7965 7964 7962 ] final   15.49 input  175.53 | X-H torsion
[ 8008 7997 7996 7995 ] final   35.75 input   59.86 | X-H torsion
[ 10167 10162 10161 10158 ] final   40.84 input  -65.29 | X-H torsion
[ 10718 10713 10712 10709 ] final  140.99 input   66.30 | X-H torsion
[ 10763 10752 10751 10750 ] final  109.24 input  -60.55 | X-H torsion
[ 11005 11000 10999 10996 ] final  -60.78 input  -57.11 | X-H torsion

> <Gold.Protein.ActiveResidues>
 VAL166  LYS551  ARG553  GLY616  TRP617  ASP618  TYR619  PRO620  LYS621  CYS622 
 ASP623  PHE694  ASN695  SER759  ASP760  ASP761  ALA762  ILE779  LEU786  VAL792 
 PHE793  MET794  SER795  GLU796  ALA797  LYS798  CYS799  TRP800  GLU811  SER814 

> <Gold.Protein.RotatedAtoms>
  152.3952  134.6377  160.0091 H   0  0  0  0  0  0  0  0  0  0  0  0  # atno 6907 bound_to 6896
  151.6599  133.3312  159.3179 H   0  0  0  0  0  0  0  0  0  0  0  0  # atno 6908 bound_to 6896
  150.7861  134.6890  159.6530 H   0  0  0  0  0  0  0  0  0  0  0  0  # atno 6909 bound_to 6896
  146.2277  139.8887  142.8558 H   0  0  0  0  0  0  0  0  0  0  0  0  # atno 7974 bound_to 7965
  155.1761  140.3296  155.4383 H   0  0  0  0  0  0  0  0  0  0  0  0  # atno 8008 bound_to 7997
  156.2493  140.1935  156.6812 H   0  0  0  0  0  0  0  0  0  0  0  0  # atno 8009 bound_to 7997
  154.6303  140.0583  156.9710 H   0  0  0  0  0  0  0  0  0  0  0  0  # atno 8010 bound_to 7997
  140.3702  144.2115  150.6133 H   0  0  0  0  0  0  0  0  0  0  0  0  # atno 10167 bound_to 10162
  157.3970  131.1012  151.0590 H   0  0  0  0  0  0  0  0  0  0  0  0  # atno 10718 bound_to 10713
  153.4319  135.3786  155.2175 H   0  0  0  0  0  0  0  0  0  0  0  0  # atno 10763 bound_to 10752
  154.8750  135.3842  154.4258 H   0  0  0  0  0  0  0  0  0  0  0  0  # atno 10764 bound_to 10752
  153.4791  135.7088  153.6011 H   0  0  0  0  0  0  0  0  0  0  0  0  # atno 10765 bound_to 10752
  141.1300  133.6625  156.5275 H   0  0  0  0  0  0  0  0  0  0  0  0  # atno 11005 bound_to 11000
  145.2439  141.0019  143.3920 LP  0  0  0  0  0  0  0  0  0  0  0  0  # atno 17320 bound_to 7965
  144.9429  139.4169  143.6440 LP  0  0  0  0  0  0  0  0  0  0  0  0  # atno 17321 bound_to 7965
  140.5041  143.2309  151.8635 LP  0  0  0  0  0  0  0  0  0  0  0  0  # atno 17342 bound_to 10162
  139.4804  144.5026  151.9040 LP  0  0  0  0  0  0  0  0  0  0  0  0  # atno 17343 bound_to 10162
  157.1602  130.6222  149.5608 LP  0  0  0  0  0  0  0  0  0  0  0  0  # atno 17370 bound_to 10713
  155.9813  130.4819  150.6820 LP  0  0  0  0  0  0  0  0  0  0  0  0  # atno 17371 bound_to 10713
  140.4242  134.7160  157.4907 LP  0  0  0  0  0  0  0  0  0  0  0  0  # atno 17394 bound_to 11000
  140.0338  134.6366  155.9070 LP  0  0  0  0  0  0  0  0  0  0  0  0  # atno 17395 bound_to 11000

$$$$
