AV-unprocessed.smi:3253|AV-procd|sdf|12447|dock5
  -GOLD-   2272018343D 1   1.00000     0.00000
 Structure written by MMmdl.
 37 38  0  0  0  0  0  0  0  0  2 V2000
  146.1500  134.5473  152.8236 C   0  0  0  0  0  0  0  0  0  0  0  0
  146.8866  133.5490  151.9159 C   0  0  2  0  0  0  0  0  0  0  0  0
  146.0593  132.2784  151.6190 C   0  0  0  0  0  0  0  0  0  0  0  0
  145.0170  132.4998  150.6129 N   0  0  0  0  0  0  0  0  0  0  0  0
  145.0443  132.1451  149.2883 C   0  0  0  0  0  0  0  0  0  0  0  0
  143.8524  132.5568  148.7496 C   0  0  0  0  0  0  0  0  0  0  0  0
  143.1511  133.1494  149.7657 N   0  3  0  0  0  0  0  0  0  0  0  0
  143.8624  133.1161  150.8973 C   0  0  0  0  0  0  0  0  0  0  0  0
  148.1626  133.1934  152.5297 N   0  0  0  0  0  0  0  0  0  0  0  0
  148.3098  132.6463  153.7467 C   0  0  0  0  0  0  0  0  0  0  0  0
  147.3618  132.3993  154.4934 O   0  0  0  0  0  0  0  0  0  0  0  0
  149.7473  132.3299  154.1884 C   0  0  1  0  0  0  0  0  0  0  0  0
  150.1907  133.2377  155.3539 C   0  0  0  0  0  0  0  0  0  0  0  0
  150.3261  132.2867  156.5313 C   0  0  0  0  0  0  0  0  0  0  0  0
  150.5748  132.6687  157.6738 O   0  0  0  0  0  0  0  0  0  0  0  0
  150.1314  131.0216  156.1487 N   0  0  0  0  0  0  0  0  0  0  0  0
  150.1761  129.8534  157.0175 C   0  0  0  0  0  0  0  0  0  0  0  0
  149.8973  130.8875  154.7211 C   0  0  0  0  0  0  0  0  0  0  0  0
  145.2344  134.9117  152.3576 H   0  0  0  0  0  0  0  0  0  0  0  0
  146.7722  135.4178  153.0346 H   0  0  0  0  0  0  0  0  0  0  0  0
  145.8803  134.0919  153.7772 H   0  0  0  0  0  0  0  0  0  0  0  0
  147.0945  134.0591  150.9731 H   0  0  0  0  0  0  0  0  0  0  0  0
  146.6976  131.4713  151.2561 H   0  0  0  0  0  0  0  0  0  0  0  0
  145.5767  131.9138  152.5271 H   0  0  0  0  0  0  0  0  0  0  0  0
  145.8858  131.6369  148.8397 H   0  0  0  0  0  0  0  0  0  0  0  0
  143.4615  132.4758  147.7457 H   0  0  0  0  0  0  0  0  0  0  0  0
  143.5626  133.5074  151.8536 H   0  0  0  0  0  0  0  0  0  0  0  0
  148.9953  133.3641  151.9842 H   0  0  0  0  0  0  0  0  0  0  0  0
  150.4183  132.4712  153.3391 H   0  0  0  0  0  0  0  0  0  0  0  0
  151.1567  133.6995  155.1472 H   0  0  0  0  0  0  0  0  0  0  0  0
  149.4802  134.0330  155.5865 H   0  0  0  0  0  0  0  0  0  0  0  0
  151.1566  129.7617  157.4861 H   0  0  0  0  0  0  0  0  0  0  0  0
  149.9821  128.9386  156.4564 H   0  0  0  0  0  0  0  0  0  0  0  0
  149.4246  129.9337  157.8039 H   0  0  0  0  0  0  0  0  0  0  0  0
  149.0181  130.2679  154.5347 H   0  0  0  0  0  0  0  0  0  0  0  0
  150.7524  130.3910  154.2604 H   0  0  0  0  0  0  0  0  0  0  0  0
  142.2286  133.5570  149.6759 H   0  0  0  0  0  0  0  0  0  0  0  0
  1  2  1  0  0  0  0
  1 19  1  0  0  0  0
  1 20  1  0  0  0  0
  1 21  1  0  0  0  0
  2  3  1  0  0  0  0
  2  9  1  0  0  0  0
  2 22  1  0  0  0  0
  3  4  1  0  0  0  0
  3 23  1  0  0  0  0
  3 24  1  0  0  0  0
  4  8  1  0  0  0  0
  4  5  1  0  0  0  0
  5  6  2  0  0  0  0
  5 25  1  0  0  0  0
  6  7  1  0  0  0  0
  6 26  1  0  0  0  0
  7  8  2  0  0  0  0
  7 37  1  0  0  0  0
  8 27  1  0  0  0  0
  9 10  1  0  0  0  0
  9 28  1  0  0  0  0
 10 11  2  0  0  0  0
 10 12  1  0  0  0  0
 12 18  1  0  0  0  0
 12 13  1  0  0  0  0
 12 29  1  0  0  0  0
 13 14  1  0  0  0  0
 13 30  1  0  0  0  0
 13 31  1  0  0  0  0
 14 15  2  0  0  0  0
 14 16  1  0  0  0  0
 16 17  1  0  0  0  0
 16 18  1  0  0  0  0
 17 32  1  0  0  0  0
 17 33  1  0  0  0  0
 17 34  1  0  0  0  0
 18 35  1  0  0  0  0
 18 36  1  0  0  0  0
M  CHG  1   7   1
M  END
> <s_m_source_file>
AV-unprocessed.smi

> <i_m_source_file_index>
3253

> <i_lp_mmshare_version>
43012

> <i_f3d_flags>
0

> <s_epik_input>
W2NIXTFuW2NIXVtjSF1uMVtDSDJdW0NAQEhdKFtDSDNdKVtOSF1DKD1PKVtDQEBIXTJbQ0gyXUMoPU8pTihbQ0gzXSlbQ0gyXTI=

> <s_epik_cmdline>
J2VwaWtfcHl0aG9uJywgJy1waCcsICc3LjAnLCAnLXRuJywgJzgnLCAnLW1hJywgJzIwMCcsICctbWV0YWxfYmluZGluZycsICctaW1hZScsICc8aW5maWxlLm1hZT4nLCAnLW9tYWUnLCAnPG91dGZpbGUubWFlPic=

> <r_lp_tautomer_probability>
1

> <r_epik_Ionization_Penalty>
0.251561

> <r_epik_Ionization_Penalty_Charging>
0

> <r_epik_Ionization_Penalty_Neutral>
0.251561

> <r_epik_State_Penalty>
0.242926

> <r_epik_Charging_Adjusted_Penalty>
0.242926

> <i_epik_Tot_Q>
1

> <i_epik_Tot_abs_Q>
1

> <r_epik_Metal_State_Penalty>
0.533885

> <b_epik_Metal_Only>
0

> <s_lp_Force_Field>
OPLS_2005

> <r_lp_Energy>
14.6529

> <b_lp_Chiralities_Consistent>
1

> <s_lp_Variant>
AV-unprocessed.smi:3253-3

> <Gold.Version>
5.8.1

> <Gold.Id.Protein>
6NUR|6NUR_protein|mol2

> <Gold.PLP.Fitness>
42.2211

> <Gold.PLP.PLP>
-34.3690

> <Gold.PLP.part.hbond>
-2.7801

> <Gold.PLP.part.metal>
0.0000

> <Gold.PLP.part.buried>
-4.1400

> <Gold.PLP.part.nonpolar>
-25.6099

> <Gold.PLP.part.repulsive>
0.1083

> <Gold.PLP.ligand.clash>
0.0000

> <Gold.PLP.ligand.torsion>
0.5899

> <Gold.PLP.Chemscore.Hbond>
3.0000

> <Gold.PLP.Chemscore.CHOScore>
0.0000

> <Gold.PLP.Chemscore.Metal>
0.0000

> <Gold.Chemscore.Hbonds>
donor molecule, donor type, donor heavy atom, donor atom, acceptor molecule, acceptor atom, score
      L1  H     7    37       P1 10186  1.85
      P1  H  6896  6907       L1    15  1.00

> <Gold.PLP.Chemscore.Internal.Correction>
0.0319

> <Gold.Rescore>
     Score         DG    S(hbond)    S(metal)    S(lipo)     H(rot)  DE(clash)    DE(int)     intcor
     12.78     -14.02       2.00        0.00      60.45       2.03       0.04       1.20       ----

> <Gold.Chemscore.Fitness>
12.7756

> <Gold.Chemscore.DG>
-14.0172

> <Gold.Chemscore.ZeroCoef>
-5.4800

> <Gold.Chemscore.Hbond>
1.9974

> <Gold.Chemscore.Metal>
0.0000

> <Gold.Chemscore.Lipo>
60.4545

> <Gold.Chemscore.Internal_Hbond>
0.0000

> <Gold.Chemscore.DEClash>
0.0391

> <Gold.Chemscore.DEInternal>
1.2024

> <Gold.Chemscore.Rot>
2.0341

> <Gold.Chemscore.Internal.Correction>
   9.000000E+99

> <Gold.Chemscore.Hbonds>
donor molecule, donor type, donor heavy atom, donor atom, acceptor molecule, acceptor atom, score
      L1  H     7    37       P1 10186  0.89
      P1  H  6896  6907       L1    15  1.00

> <Gold.Chemscore.Hbond.Weighted>
-6.6712

> <Gold.Chemscore.Metal.Weighted>
-0.0000

> <Gold.Chemscore.Lipo.Weighted>
-7.0732

> <Gold.Chemscore.Internal_Hbond.Weighted>
0.0000

> <Gold.Chemscore.DEClash.Weighted>
0.0391

> <Gold.Chemscore.DEInternal.Weighted>
1.2024

> <Gold.Chemscore.Rot.Weighted>
5.2072

> <Gold.Chemscore.Internal.Correction.Weighted>
   9.000000E+99

> <Gold.Protein.RotatedTorsions>
[ 6907 6896 6895 6894 ] final -156.53 input  -60.11 | X-H torsion
[ 7974 7965 7964 7962 ] final   -9.46 input  175.53 | X-H torsion
[ 8008 7997 7996 7995 ] final -135.90 input   59.86 | X-H torsion
[ 10167 10162 10161 10158 ] final  117.42 input  -65.29 | X-H torsion
[ 10718 10713 10712 10709 ] final -110.30 input   66.30 | X-H torsion
[ 10763 10752 10751 10750 ] final -148.87 input  -60.55 | X-H torsion
[ 11005 11000 10999 10996 ] final  162.05 input  -57.11 | X-H torsion

> <Gold.Protein.ActiveResidues>
 VAL166  LYS551  ARG553  GLY616  TRP617  ASP618  TYR619  PRO620  LYS621  CYS622 
 ASP623  PHE694  ASN695  SER759  ASP760  ASP761  ALA762  ILE779  LEU786  VAL792 
 PHE793  MET794  SER795  GLU796  ALA797  LYS798  CYS799  TRP800  GLU811  SER814 

> <Gold.Protein.RotatedAtoms>
  151.2891  133.4174  159.2631 H   0  0  0  0  0  0  0  0  0  0  0  0  # atno 6907 bound_to 6896
  151.0293  134.9528  159.8113 H   0  0  0  0  0  0  0  0  0  0  0  0  # atno 6908 bound_to 6896
  152.5342  134.2852  159.9075 H   0  0  0  0  0  0  0  0  0  0  0  0  # atno 6909 bound_to 6896
  146.2251  140.2619  142.8352 H   0  0  0  0  0  0  0  0  0  0  0  0  # atno 7974 bound_to 7965
  155.3863  140.0497  157.3042 H   0  0  0  0  0  0  0  0  0  0  0  0  # atno 8008 bound_to 7997
  154.5058  140.2173  155.9216 H   0  0  0  0  0  0  0  0  0  0  0  0  # atno 8009 bound_to 7997
  156.1523  140.3133  155.8674 H   0  0  0  0  0  0  0  0  0  0  0  0  # atno 8010 bound_to 7997
  139.6180  144.7095  151.2697 H   0  0  0  0  0  0  0  0  0  0  0  0  # atno 10167 bound_to 10162
  156.0583  130.5808  150.8218 H   0  0  0  0  0  0  0  0  0  0  0  0  # atno 10718 bound_to 10713
  154.8209  135.3323  154.7040 H   0  0  0  0  0  0  0  0  0  0  0  0  # atno 10763 bound_to 10752
  153.7673  135.6928  153.4918 H   0  0  0  0  0  0  0  0  0  0  0  0  # atno 10764 bound_to 10752
  153.2069  135.4496  155.0282 H   0  0  0  0  0  0  0  0  0  0  0  0  # atno 10765 bound_to 10752
  140.2219  134.8189  157.3229 H   0  0  0  0  0  0  0  0  0  0  0  0  # atno 11005 bound_to 11000
  144.9333  140.7999  143.5676 LP  0  0  0  0  0  0  0  0  0  0  0  0  # atno 17320 bound_to 7965
  145.2565  139.2010  143.4915 LP  0  0  0  0  0  0  0  0  0  0  0  0  # atno 17321 bound_to 7965
  140.7363  143.6711  150.8081 LP  0  0  0  0  0  0  0  0  0  0  0  0  # atno 17342 bound_to 10162
  140.0317  143.5437  152.2757 LP  0  0  0  0  0  0  0  0  0  0  0  0  # atno 17343 bound_to 10162
  157.5572  131.0945  150.9612 LP  0  0  0  0  0  0  0  0  0  0  0  0  # atno 17370 bound_to 10713
  156.9858  130.5544  149.5299 LP  0  0  0  0  0  0  0  0  0  0  0  0  # atno 17371 bound_to 10713
  140.1841  134.4453  155.7754 LP  0  0  0  0  0  0  0  0  0  0  0  0  # atno 17394 bound_to 11000
  141.2222  133.6997  156.7917 LP  0  0  0  0  0  0  0  0  0  0  0  0  # atno 17395 bound_to 11000

$$$$
