AV-unprocessed.smi:2525|AV-procd|sdf|9933|dock10
  -GOLD-   2272013573D 1   1.00000     0.00000
 Structure written by MMmdl.
 44 45  0  0  0  0  0  0  0  0  1 V2000
  149.1852  141.1092  154.5006 C   0  0  0  0  0  0  0  0  0  0  0  0
  149.4489  141.3842  155.9909 C   0  0  0  0  0  0  0  0  0  0  0  0
  150.1663  140.2453  156.7560 C   0  0  0  0  0  0  0  0  0  0  0  0
  150.6711  140.8042  158.1124 C   0  0  0  0  0  0  0  0  0  0  0  0
  151.5263  142.0781  158.0138 C   0  0  0  0  0  0  0  0  0  0  0  0
  149.3706  138.9067  156.7680 C   0  0  2  0  0  0  0  0  0  0  0  0
  149.6540  138.0556  157.9221 N   0  0  0  0  0  0  0  0  0  0  0  0
  148.7309  137.4578  158.6895 C   0  0  0  0  0  0  0  0  0  0  0  0
  147.5194  137.5858  158.5159 O   0  0  0  0  0  0  0  0  0  0  0  0
  149.2533  136.5928  159.8394 C   0  0  0  0  0  0  0  0  0  0  0  0
  148.1946  136.2450  160.7733 N   0  0  0  0  0  0  0  0  0  0  0  0
  147.7454  134.9917  161.1361 C   0  0  0  0  0  0  0  0  0  0  0  0
  146.7640  135.2575  162.0477 C   0  0  0  0  0  0  0  0  0  0  0  0
  146.6579  136.6390  162.2001 N   0  0  0  0  0  0  0  0  0  0  0  0
  147.5199  137.2217  161.4275 N   0  0  0  0  0  0  0  0  0  0  0  0
  150.1513  138.4485  155.5247 C   0  0  2  0  0  0  0  0  0  0  0  0
  150.5130  136.9782  155.3162 C   0  0  0  0  0  0  0  0  0  0  0  0
  151.2208  139.4909  155.9000 C   0  0  2  0  0  0  0  0  0  0  0  0
  152.2615  138.9398  156.7001 O   0  0  0  0  0  0  0  0  0  0  0  0
  153.2161  138.2099  155.9486 C   0  0  0  0  0  0  0  0  0  0  0  0
  148.7999  142.0032  154.0104 H   0  0  0  0  0  0  0  0  0  0  0  0
  148.4445  140.3233  154.3568 H   0  0  0  0  0  0  0  0  0  0  0  0
  150.0948  140.8154  153.9771 H   0  0  0  0  0  0  0  0  0  0  0  0
  150.0444  142.2955  156.0462 H   0  0  0  0  0  0  0  0  0  0  0  0
  148.5116  141.6500  156.4787 H   0  0  0  0  0  0  0  0  0  0  0  0
  149.8402  140.9753  158.7959 H   0  0  0  0  0  0  0  0  0  0  0  0
  151.2857  140.0624  158.6218 H   0  0  0  0  0  0  0  0  0  0  0  0
  151.9512  142.3278  158.9862 H   0  0  0  0  0  0  0  0  0  0  0  0
  150.9410  142.9385  157.6912 H   0  0  0  0  0  0  0  0  0  0  0  0
  152.3545  141.9491  157.3168 H   0  0  0  0  0  0  0  0  0  0  0  0
  148.3058  139.0189  156.5586 H   0  0  0  0  0  0  0  0  0  0  0  0
  150.6275  137.9045  158.1452 H   0  0  0  0  0  0  0  0  0  0  0  0
  149.7016  135.6825  159.4375 H   0  0  0  0  0  0  0  0  0  0  0  0
  150.0359  137.1251  160.3822 H   0  0  0  0  0  0  0  0  0  0  0  0
  148.1464  134.0711  160.7383 H   0  0  0  0  0  0  0  0  0  0  0  0
  146.1337  134.5775  162.6018 H   0  0  0  0  0  0  0  0  0  0  0  0
  149.6191  138.8103  154.6435 H   0  0  0  0  0  0  0  0  0  0  0  0
  151.1249  136.5857  156.1290 H   0  0  0  0  0  0  0  0  0  0  0  0
  151.0700  136.8388  154.3901 H   0  0  0  0  0  0  0  0  0  0  0  0
  149.6177  136.3595  155.2554 H   0  0  0  0  0  0  0  0  0  0  0  0
  151.5875  140.0833  155.0594 H   0  0  0  0  0  0  0  0  0  0  0  0
  153.9629  137.7868  156.6203 H   0  0  0  0  0  0  0  0  0  0  0  0
  153.7320  138.8581  155.2390 H   0  0  0  0  0  0  0  0  0  0  0  0
  152.7547  137.3899  155.3984 H   0  0  0  0  0  0  0  0  0  0  0  0
  1  2  1  0  0  0  0
  1 21  1  0  0  0  0
  1 22  1  0  0  0  0
  1 23  1  0  0  0  0
  2  3  1  0  0  0  0
  2 24  1  0  0  0  0
  2 25  1  0  0  0  0
  3 18  1  0  0  0  0
  3  4  1  0  0  0  0
  3  6  1  0  0  0  0
  4  5  1  0  0  0  0
  4 26  1  0  0  0  0
  4 27  1  0  0  0  0
  5 28  1  0  0  0  0
  5 29  1  0  0  0  0
  5 30  1  0  0  0  0
  6  7  1  0  0  0  0
  6 16  1  0  0  0  0
  6 31  1  0  0  0  0
  7  8  1  0  0  0  0
  7 32  1  0  0  0  0
  8  9  2  0  0  0  0
  8 10  1  0  0  0  0
 10 11  1  0  0  0  0
 10 33  1  0  0  0  0
 10 34  1  0  0  0  0
 11 15  1  0  0  0  0
 11 12  1  0  0  0  0
 12 13  2  0  0  0  0
 12 35  1  0  0  0  0
 13 14  1  0  0  0  0
 13 36  1  0  0  0  0
 14 15  2  0  0  0  0
 16 17  1  0  0  0  0
 16 18  1  0  0  0  0
 16 37  1  0  0  0  0
 17 38  1  0  0  0  0
 17 39  1  0  0  0  0
 17 40  1  0  0  0  0
 18 19  1  0  0  0  0
 18 41  1  0  0  0  0
 19 20  1  0  0  0  0
 20 42  1  0  0  0  0
 20 43  1  0  0  0  0
 20 44  1  0  0  0  0
M  END
> <s_m_source_file>
AV-unprocessed.smi

> <i_m_source_file_index>
2525

> <i_lp_mmshare_version>
43012

> <i_f3d_flags>
0

> <s_epik_input>
W0NIM11PW0NAQEhdMVtDQEhdKFtDSDNdKVtDQEBIXShDMShbQ0gyXVtDSDNdKVtDSDJdW0NIM10pW05IXUMoPU8pW0NIMl1uMltjSF1bY0hdbm4y

> <s_epik_cmdline>
J2VwaWtfcHl0aG9uJywgJy1waCcsICc3LjAnLCAnLXRuJywgJzgnLCAnLW1hJywgJzIwMCcsICctbWV0YWxfYmluZGluZycsICctaW1hZScsICc8aW5maWxlLm1hZT4nLCAnLW9tYWUnLCAnPG91dGZpbGUubWFlPic=

> <r_lp_tautomer_probability>
1

> <r_epik_Ionization_Penalty>
1.18045e-06

> <r_epik_Ionization_Penalty_Charging>
0

> <r_epik_Ionization_Penalty_Neutral>
1.18045e-06

> <r_epik_State_Penalty>
-0

> <r_epik_Charging_Adjusted_Penalty>
0

> <i_epik_Tot_Q>
0

> <i_epik_Tot_abs_Q>
0

> <r_epik_Metal_State_Penalty>
-0

> <b_epik_Metal_Only>
0

> <s_lp_Force_Field>
OPLS_2005

> <r_lp_Energy>
29.0326

> <b_lp_Chiralities_Consistent>
1

> <s_lp_Variant>
AV-unprocessed.smi:2525-8

> <Gold.Version>
5.8.1

> <Gold.Id.Protein>
6NUR|6NUR_protein|mol2

> <Gold.PLP.Fitness>
34.3803

> <Gold.PLP.PLP>
-29.4991

> <Gold.PLP.part.hbond>
-2.0000

> <Gold.PLP.part.metal>
0.0000

> <Gold.PLP.part.buried>
-4.5074

> <Gold.PLP.part.nonpolar>
-23.7637

> <Gold.PLP.part.repulsive>
0.0857

> <Gold.PLP.ligand.clash>
0.0000

> <Gold.PLP.ligand.torsion>
0.5898

> <Gold.PLP.Chemscore.Hbond>
1.8080

> <Gold.PLP.Chemscore.CHOScore>
0.0000

> <Gold.PLP.Chemscore.Metal>
0.0000

> <Gold.Chemscore.Hbonds>
donor molecule, donor type, donor heavy atom, donor atom, acceptor molecule, acceptor atom, score
      P1  H  6931  6943       L1    15  0.79
      P1  H  6934  6947       L1    15  0.86

> <Gold.PLP.Chemscore.Internal.Correction>
0.6369

> <Gold.Rescore>
     Score         DG    S(hbond)    S(metal)    S(lipo)     H(rot)  DE(clash)    DE(int)     intcor
     12.02     -13.94       1.40        0.00      75.76       1.98       0.06       1.86       ----

> <Gold.Chemscore.Fitness>
12.0216

> <Gold.Chemscore.DG>
-13.9392

> <Gold.Chemscore.ZeroCoef>
-5.4800

> <Gold.Chemscore.Hbond>
1.3977

> <Gold.Chemscore.Metal>
0.0000

> <Gold.Chemscore.Lipo>
75.7592

> <Gold.Chemscore.Internal_Hbond>
0.0000

> <Gold.Chemscore.DEClash>
0.0618

> <Gold.Chemscore.DEInternal>
1.8558

> <Gold.Chemscore.Rot>
1.9817

> <Gold.Chemscore.Internal.Correction>
   9.000000E+99

> <Gold.Chemscore.Hbonds>
donor molecule, donor type, donor heavy atom, donor atom, acceptor molecule, acceptor atom, score
      P1  H  6931  6943       L1    15  0.13
      P1  H  6934  6947       L1    15  0.81

> <Gold.Chemscore.Hbond.Weighted>
-4.6685

> <Gold.Chemscore.Metal.Weighted>
-0.0000

> <Gold.Chemscore.Lipo.Weighted>
-8.8638

> <Gold.Chemscore.Internal_Hbond.Weighted>
0.0000

> <Gold.Chemscore.DEClash.Weighted>
0.0618

> <Gold.Chemscore.DEInternal.Weighted>
1.8558

> <Gold.Chemscore.Rot.Weighted>
5.0731

> <Gold.Chemscore.Internal.Correction.Weighted>
   9.000000E+99

> <Gold.Protein.RotatedTorsions>
[ 6907 6896 6895 6894 ] final  -47.65 input  -60.11 | X-H torsion
[ 7974 7965 7964 7962 ] final  148.58 input  175.53 | X-H torsion
[ 8008 7997 7996 7995 ] final -106.70 input   59.86 | X-H torsion
[ 10167 10162 10161 10158 ] final  131.42 input  -65.29 | X-H torsion
[ 10718 10713 10712 10709 ] final -178.78 input   66.30 | X-H torsion
[ 10763 10752 10751 10750 ] final -118.09 input  -60.55 | X-H torsion
[ 11005 11000 10999 10996 ] final  -76.87 input  -57.11 | X-H torsion

> <Gold.Protein.ActiveResidues>
 VAL166  LYS551  ARG553  GLY616  TRP617  ASP618  TYR619  PRO620  LYS621  CYS622 
 ASP623  PHE694  ASN695  SER759  ASP760  ASP761  ALA762  ILE779  LEU786  VAL792 
 PHE793  MET794  SER795  GLU796  ALA797  LYS798  CYS799  TRP800  GLU811  SER814 

> <Gold.Protein.RotatedAtoms>
  150.8986  134.8396  159.7343 H   0  0  0  0  0  0  0  0  0  0  0  0  # atno 6907 bound_to 6896
  152.4879  134.4537  159.9593 H   0  0  0  0  0  0  0  0  0  0  0  0  # atno 6908 bound_to 6896
  151.4592  133.3558  159.2842 H   0  0  0  0  0  0  0  0  0  0  0  0  # atno 6909 bound_to 6896
  144.8503  139.6172  143.5977 H   0  0  0  0  0  0  0  0  0  0  0  0  # atno 7974 bound_to 7965
  154.9184  140.0408  157.1984 H   0  0  0  0  0  0  0  0  0  0  0  0  # atno 8008 bound_to 7997
  154.8278  140.2894  155.5721 H   0  0  0  0  0  0  0  0  0  0  0  0  # atno 8009 bound_to 7997
  156.2985  140.2506  156.3198 H   0  0  0  0  0  0  0  0  0  0  0  0  # atno 8010 bound_to 7997
  139.5385  144.6707  151.4705 H   0  0  0  0  0  0  0  0  0  0  0  0  # atno 10167 bound_to 10162
  156.8493  130.9713  151.3093 H   0  0  0  0  0  0  0  0  0  0  0  0  # atno 10718 bound_to 10713
  154.8576  135.4286  154.2083 H   0  0  0  0  0  0  0  0  0  0  0  0  # atno 10763 bound_to 10752
  153.3115  135.6976  153.7118 H   0  0  0  0  0  0  0  0  0  0  0  0  # atno 10764 bound_to 10752
  153.6208  135.3502  155.2984 H   0  0  0  0  0  0  0  0  0  0  0  0  # atno 10765 bound_to 10752
  141.1657  133.7000  156.7735 H   0  0  0  0  0  0  0  0  0  0  0  0  # atno 11005 bound_to 11000
  146.2779  139.6799  142.9250 LP  0  0  0  0  0  0  0  0  0  0  0  0  # atno 17320 bound_to 7965
  145.4514  141.0428  143.2802 LP  0  0  0  0  0  0  0  0  0  0  0  0  # atno 17321 bound_to 7965
  140.6603  143.8512  150.6881 LP  0  0  0  0  0  0  0  0  0  0  0  0  # atno 17342 bound_to 10162
  140.1904  143.4041  152.1867 LP  0  0  0  0  0  0  0  0  0  0  0  0  # atno 17343 bound_to 10162
  157.6312  130.8731  149.9278 LP  0  0  0  0  0  0  0  0  0  0  0  0  # atno 17370 bound_to 10713
  156.0837  130.3670  150.0530 LP  0  0  0  0  0  0  0  0  0  0  0  0  # atno 17371 bound_to 10713
  140.2447  134.8587  157.3608 LP  0  0  0  0  0  0  0  0  0  0  0  0  # atno 17394 bound_to 11000
  140.1761  134.4547  155.7801 LP  0  0  0  0  0  0  0  0  0  0  0  0  # atno 17395 bound_to 11000

$$$$
