AV-unprocessed.smi:2712|AV-procd|sdf|10474|dock5
  -GOLD-   2272014513D 1   1.00000     0.00000
 Structure written by MMmdl.
 52 53  0  0  0  0  0  0  0  0  1 V2000
  144.7122  137.7864  162.0317 C   0  0  0  0  0  0  0  0  0  0  0  0
  145.9452  137.2095  161.4014 C   0  0  0  0  0  0  0  0  0  0  0  0
  146.9095  136.4154  162.1386 C   0  0  0  0  0  0  0  0  0  0  0  0
  147.9955  135.9315  161.4989 C   0  0  0  0  0  0  0  0  0  0  0  0
  148.2258  136.1834  160.0782 C   0  0  0  0  0  0  0  0  0  0  0  0
  149.1974  135.7443  159.4638 O   0  0  0  0  0  0  0  0  0  0  0  0
  147.2529  136.9413  159.4895 N   0  0  0  0  0  0  0  0  0  0  0  0
  147.3053  137.2731  158.0558 C   0  0  0  0  0  0  0  0  0  0  0  0
  147.6985  138.7281  157.7439 C   0  0  0  0  0  0  0  0  0  0  0  0
  146.8891  139.6283  157.9642 O   0  0  0  0  0  0  0  0  0  0  0  0
  148.9251  138.9558  157.2441 N   0  0  0  0  0  0  0  0  0  0  0  0
  149.4973  140.2583  156.9182 C   0  0  2  0  0  0  0  0  0  0  0  0
  151.0170  140.1112  156.7162 C   0  0  0  0  0  0  0  0  0  0  0  0
  151.8440  140.1569  158.0098 C   0  0  0  0  0  0  0  0  0  0  0  0
  152.2672  141.5834  158.4074 C   0  0  0  0  0  0  0  0  0  0  0  0
  151.1502  142.4996  158.9811 C   0  0  1  0  0  0  0  0  0  0  0  0
  151.6746  143.9154  159.4260 C   0  0  0  0  0  0  0  0  0  0  0  0
  152.5815  143.8266  160.6729 C   0  0  0  0  0  0  0  0  0  0  0  0
  150.5032  144.8722  159.7481 C   0  0  0  0  0  0  0  0  0  0  0  0
  152.4725  144.5844  158.2810 C   0  0  0  0  0  0  0  0  0  0  0  0
  149.9219  142.5760  158.0283 C   0  0  0  0  0  0  0  0  0  0  0  0
  149.0839  141.2863  157.9927 C   0  0  0  0  0  0  0  0  0  0  0  0
  146.1400  137.4421  160.1449 N   0  0  0  0  0  0  0  0  0  0  0  0
  144.6145  137.4697  163.0704 H   0  0  0  0  0  0  0  0  0  0  0  0
  143.8162  137.4652  161.4996 H   0  0  0  0  0  0  0  0  0  0  0  0
  144.7429  138.8761  162.0160 H   0  0  0  0  0  0  0  0  0  0  0  0
  146.7535  136.2190  163.1890 H   0  0  0  0  0  0  0  0  0  0  0  0
  148.7135  135.3411  162.0495 H   0  0  0  0  0  0  0  0  0  0  0  0
  148.0185  136.6186  157.5516 H   0  0  0  0  0  0  0  0  0  0  0  0
  146.3426  137.0646  157.5853 H   0  0  0  0  0  0  0  0  0  0  0  0
  149.5202  138.1542  157.0931 H   0  0  0  0  0  0  0  0  0  0  0  0
  149.0865  140.5780  155.9587 H   0  0  0  0  0  0  0  0  0  0  0  0
  151.2152  139.1722  156.1969 H   0  0  0  0  0  0  0  0  0  0  0  0
  151.3716  140.8855  156.0349 H   0  0  0  0  0  0  0  0  0  0  0  0
  151.3279  139.6550  158.8293 H   0  0  0  0  0  0  0  0  0  0  0  0
  152.7547  139.5813  157.8412 H   0  0  0  0  0  0  0  0  0  0  0  0
  153.0474  141.4574  159.1563 H   0  0  0  0  0  0  0  0  0  0  0  0
  152.7493  142.0628  157.5556 H   0  0  0  0  0  0  0  0  0  0  0  0
  150.8102  142.0133  159.8966 H   0  0  0  0  0  0  0  0  0  0  0  0
  152.9216  144.8158  160.9812 H   0  0  0  0  0  0  0  0  0  0  0  0
  153.4742  143.2296  160.4863 H   0  0  0  0  0  0  0  0  0  0  0  0
  152.0623  143.3874  161.5244 H   0  0  0  0  0  0  0  0  0  0  0  0
  149.9751  144.5851  160.6573 H   0  0  0  0  0  0  0  0  0  0  0  0
  149.7790  144.9050  158.9332 H   0  0  0  0  0  0  0  0  0  0  0  0
  150.8547  145.8914  159.9119 H   0  0  0  0  0  0  0  0  0  0  0  0
  152.7308  145.6149  158.5279 H   0  0  0  0  0  0  0  0  0  0  0  0
  151.8956  144.6113  157.3561 H   0  0  0  0  0  0  0  0  0  0  0  0
  153.4150  144.0819  158.0698 H   0  0  0  0  0  0  0  0  0  0  0  0
  149.2455  143.3593  158.3604 H   0  0  0  0  0  0  0  0  0  0  0  0
  150.2213  142.8665  157.0209 H   0  0  0  0  0  0  0  0  0  0  0  0
  148.0425  141.5552  157.8104 H   0  0  0  0  0  0  0  0  0  0  0  0
  149.0857  140.8258  158.9817 H   0  0  0  0  0  0  0  0  0  0  0  0
  1  2  1  0  0  0  0
  1 24  1  0  0  0  0
  1 25  1  0  0  0  0
  1 26  1  0  0  0  0
  2 23  2  0  0  0  0
  2  3  1  0  0  0  0
  3  4  2  0  0  0  0
  3 27  1  0  0  0  0
  4  5  1  0  0  0  0
  4 28  1  0  0  0  0
  5  6  2  0  0  0  0
  5  7  1  0  0  0  0
  7  8  1  0  0  0  0
  7 23  1  0  0  0  0
  8  9  1  0  0  0  0
  8 29  1  0  0  0  0
  8 30  1  0  0  0  0
  9 10  2  0  0  0  0
  9 11  1  0  0  0  0
 11 12  1  0  0  0  0
 11 31  1  0  0  0  0
 12 22  1  0  0  0  0
 12 13  1  0  0  0  0
 12 32  1  0  0  0  0
 13 14  1  0  0  0  0
 13 33  1  0  0  0  0
 13 34  1  0  0  0  0
 14 15  1  0  0  0  0
 14 35  1  0  0  0  0
 14 36  1  0  0  0  0
 15 16  1  0  0  0  0
 15 37  1  0  0  0  0
 15 38  1  0  0  0  0
 16 17  1  0  0  0  0
 16 21  1  0  0  0  0
 16 39  1  0  0  0  0
 17 18  1  0  0  0  0
 17 19  1  0  0  0  0
 17 20  1  0  0  0  0
 18 40  1  0  0  0  0
 18 41  1  0  0  0  0
 18 42  1  0  0  0  0
 19 43  1  0  0  0  0
 19 44  1  0  0  0  0
 19 45  1  0  0  0  0
 20 46  1  0  0  0  0
 20 47  1  0  0  0  0
 20 48  1  0  0  0  0
 21 22  1  0  0  0  0
 21 49  1  0  0  0  0
 21 50  1  0  0  0  0
 22 51  1  0  0  0  0
 22 52  1  0  0  0  0
M  END
> <s_m_source_file>
AV-unprocessed.smi

> <i_m_source_file_index>
2712

> <i_lp_mmshare_version>
43012

> <i_f3d_flags>
0

> <s_epik_input>
W0NIM11jMVtjSF1bY0hdYyg9TyluKG4xKVtDSDJdQyg9TylbTkhdW0NAQEhdMltDSDJdW0NIMl1bQ0gyXVtDQEBIXShDKFtDSDNdKShbQ0gzXSlbQ0gzXSlbQ0gyXVtDSDJdMg==

> <s_epik_cmdline>
J2VwaWtfcHl0aG9uJywgJy1waCcsICc3LjAnLCAnLXRuJywgJzgnLCAnLW1hJywgJzIwMCcsICctbWV0YWxfYmluZGluZycsICctaW1hZScsICc8aW5maWxlLm1hZT4nLCAnLW9tYWUnLCAnPG91dGZpbGUubWFlPic=

> <r_lp_tautomer_probability>
1

> <r_epik_Ionization_Penalty>
8.71758e-07

> <r_epik_Ionization_Penalty_Charging>
8.50442e-07

> <r_epik_Ionization_Penalty_Neutral>
2.13165e-08

> <r_epik_State_Penalty>
-0

> <r_epik_Charging_Adjusted_Penalty>
8.50442e-07

> <i_epik_Tot_Q>
0

> <i_epik_Tot_abs_Q>
0

> <r_epik_Metal_State_Penalty>
-0

> <b_epik_Metal_Only>
0

> <s_lp_Force_Field>
OPLS_2005

> <r_lp_Energy>
38.8827

> <b_lp_Chiralities_Consistent>
1

> <s_lp_Variant>
AV-unprocessed.smi:2712-1

> <Gold.Version>
5.8.1

> <Gold.Id.Protein>
6NUR|6NUR_protein|mol2

> <Gold.PLP.Fitness>
41.6267

> <Gold.PLP.PLP>
-40.0044

> <Gold.PLP.part.hbond>
-2.7019

> <Gold.PLP.part.metal>
0.0000

> <Gold.PLP.part.buried>
-6.1412

> <Gold.PLP.part.nonpolar>
-31.5991

> <Gold.PLP.part.repulsive>
0.0536

> <Gold.PLP.ligand.clash>
0.0000

> <Gold.PLP.ligand.torsion>
0.8369

> <Gold.PLP.Chemscore.Hbond>
1.0694

> <Gold.PLP.Chemscore.CHOScore>
0.0000

> <Gold.PLP.Chemscore.Metal>
0.0000

> <Gold.Chemscore.Hbonds>
donor molecule, donor type, donor heavy atom, donor atom, acceptor molecule, acceptor atom, score
      P1  H  6896  6907       L1     6  1.00
      P1  H  6934  6947       L1    23  0.03

> <Gold.PLP.Chemscore.Internal.Correction>
0.0880

> <Gold.Rescore>
     Score         DG    S(hbond)    S(metal)    S(lipo)     H(rot)  DE(clash)    DE(int)     intcor
     16.20     -18.09       1.00        0.00     112.39       1.52       0.02       1.86       ----

> <Gold.Chemscore.Fitness>
16.2039

> <Gold.Chemscore.DG>
-18.0861

> <Gold.Chemscore.ZeroCoef>
-5.4800

> <Gold.Chemscore.Hbond>
0.9994

> <Gold.Chemscore.Metal>
0.0000

> <Gold.Chemscore.Lipo>
112.3896

> <Gold.Chemscore.Internal_Hbond>
0.0000

> <Gold.Chemscore.DEClash>
0.0174

> <Gold.Chemscore.DEInternal>
1.8648

> <Gold.Chemscore.Rot>
1.5162

> <Gold.Chemscore.Internal.Correction>
   9.000000E+99

> <Gold.Chemscore.Hbonds>
donor molecule, donor type, donor heavy atom, donor atom, acceptor molecule, acceptor atom, score
      P1  H  6896  6907       L1     6  0.94

> <Gold.Chemscore.Hbond.Weighted>
-3.3379

> <Gold.Chemscore.Metal.Weighted>
-0.0000

> <Gold.Chemscore.Lipo.Weighted>
-13.1496

> <Gold.Chemscore.Internal_Hbond.Weighted>
0.0000

> <Gold.Chemscore.DEClash.Weighted>
0.0174

> <Gold.Chemscore.DEInternal.Weighted>
1.8648

> <Gold.Chemscore.Rot.Weighted>
3.8814

> <Gold.Chemscore.Internal.Correction.Weighted>
   9.000000E+99

> <Gold.Protein.RotatedTorsions>
[ 6907 6896 6895 6894 ] final  -77.56 input  -60.11 | X-H torsion
[ 7974 7965 7964 7962 ] final  114.53 input  175.53 | X-H torsion
[ 8008 7997 7996 7995 ] final  -24.91 input   59.86 | X-H torsion
[ 10167 10162 10161 10158 ] final   73.17 input  -65.29 | X-H torsion
[ 10718 10713 10712 10709 ] final  118.78 input   66.30 | X-H torsion
[ 10763 10752 10751 10750 ] final -138.48 input  -60.55 | X-H torsion
[ 11005 11000 10999 10996 ] final  -20.07 input  -57.11 | X-H torsion

> <Gold.Protein.ActiveResidues>
 VAL166  LYS551  ARG553  GLY616  TRP617  ASP618  TYR619  PRO620  LYS621  CYS622 
 ASP623  PHE694  ASN695  SER759  ASP760  ASP761  ALA762  ILE779  LEU786  VAL792 
 PHE793  MET794  SER795  GLU796  ALA797  LYS798  CYS799  TRP800  GLU811  SER814 

> <Gold.Protein.RotatedAtoms>
  150.6995  134.4403  159.5288 H   0  0  0  0  0  0  0  0  0  0  0  0  # atno 6907 bound_to 6896
  152.2114  134.8495  160.0506 H   0  0  0  0  0  0  0  0  0  0  0  0  # atno 6908 bound_to 6896
  151.9378  133.3594  159.3991 H   0  0  0  0  0  0  0  0  0  0  0  0  # atno 6909 bound_to 6896
  145.2033  139.2941  143.4307 H   0  0  0  0  0  0  0  0  0  0  0  0  # atno 7974 bound_to 7965
  154.4504  140.1941  156.0537 H   0  0  0  0  0  0  0  0  0  0  0  0  # atno 8008 bound_to 7997
  156.0635  140.3294  155.7462 H   0  0  0  0  0  0  0  0  0  0  0  0  # atno 8009 bound_to 7997
  155.5375  140.0583  157.2867 H   0  0  0  0  0  0  0  0  0  0  0  0  # atno 8010 bound_to 7997
  140.0273  144.5493  150.7534 H   0  0  0  0  0  0  0  0  0  0  0  0  # atno 10167 bound_to 10162
  157.6007  131.1051  150.7805 H   0  0  0  0  0  0  0  0  0  0  0  0  # atno 10718 bound_to 10713
  154.8635  135.3611  154.5392 H   0  0  0  0  0  0  0  0  0  0  0  0  # atno 10763 bound_to 10752
  153.6014  135.7012  153.5387 H   0  0  0  0  0  0  0  0  0  0  0  0  # atno 10764 bound_to 10752
  153.3287  135.4130  155.1439 H   0  0  0  0  0  0  0  0  0  0  0  0  # atno 10765 bound_to 10752
  140.8428  133.7913  155.9880 H   0  0  0  0  0  0  0  0  0  0  0  0  # atno 11005 bound_to 11000
  146.3413  140.2285  142.8593 LP  0  0  0  0  0  0  0  0  0  0  0  0  # atno 17320 bound_to 7965
  144.9926  140.8561  143.5330 LP  0  0  0  0  0  0  0  0  0  0  0  0  # atno 17321 bound_to 7965
  140.7317  143.2697  151.3928 LP  0  0  0  0  0  0  0  0  0  0  0  0  # atno 17342 bound_to 10162
  139.6099  144.1120  152.2288 LP  0  0  0  0  0  0  0  0  0  0  0  0  # atno 17343 bound_to 10162
  156.8204  130.4982  149.5344 LP  0  0  0  0  0  0  0  0  0  0  0  0  # atno 17370 bound_to 10713
  156.1079  130.6018  151.0000 LP  0  0  0  0  0  0  0  0  0  0  0  0  # atno 17371 bound_to 10713
  140.8876  134.2535  157.5111 LP  0  0  0  0  0  0  0  0  0  0  0  0  # atno 17394 bound_to 11000
  139.8703  134.9646  156.4500 LP  0  0  0  0  0  0  0  0  0  0  0  0  # atno 17395 bound_to 11000

$$$$
