AV-unprocessed.smi:2586|AV-procd|sdf|10145|dock6
  -GOLD-   2272014153D 1   1.00000     0.00000
 Structure written by MMmdl.
 30 31  0  0  0  0  0  0  0  0  1 V2000
  143.8130  139.2100  151.1253 C   0  0  0  0  0  0  0  0  0  0  0  0
  144.8484  139.4216  150.1729 O   0  0  0  0  0  0  0  0  0  0  0  0
  146.1587  138.9697  150.5324 C   0  0  0  0  0  0  0  0  0  0  0  0
  146.6245  139.5579  151.8699 C   0  0  0  0  0  0  0  0  0  0  0  0
  147.8977  138.9710  152.2765 N   0  0  0  0  0  0  0  0  0  0  0  0
  148.8180  139.5620  153.0511 C   0  0  0  0  0  0  0  0  0  0  0  0
  148.7092  140.7098  153.4827 O   0  0  0  0  0  0  0  0  0  0  0  0
  149.8510  138.7348  153.2871 N   0  0  0  0  0  0  0  0  0  0  0  0
  150.9633  138.9588  154.0335 C   0  0  0  0  0  0  0  0  0  0  0  0
  152.1515  138.2856  153.9397 C   0  0  0  0  0  0  0  0  0  0  0  0
  153.1358  138.7271  154.8384 N   0  0  0  0  0  0  0  0  0  0  0  0
  152.7544  139.7030  155.6089 N   0  0  0  0  0  0  0  0  0  0  0  0
  151.1715  140.1428  155.2863 S   0  0  0  0  0  0  0  0  0  0  0  0
  146.1635  137.4372  150.3762 C   0  0  0  0  0  0  0  0  0  0  0  0
  146.6141  137.6123  148.9249 C   0  0  0  0  0  0  0  0  0  0  0  0
  147.1071  139.0069  149.3154 C   0  0  0  0  0  0  0  0  0  0  0  0
  142.9084  139.7128  150.7840 H   0  0  0  0  0  0  0  0  0  0  0  0
  144.0627  139.6107  152.1070 H   0  0  0  0  0  0  0  0  0  0  0  0
  143.5708  138.1535  151.2324 H   0  0  0  0  0  0  0  0  0  0  0  0
  146.7790  140.6327  151.7702 H   0  0  0  0  0  0  0  0  0  0  0  0
  145.8560  139.4487  152.6359 H   0  0  0  0  0  0  0  0  0  0  0  0
  148.0746  138.0259  151.9695 H   0  0  0  0  0  0  0  0  0  0  0  0
  149.7923  137.8198  152.8647 H   0  0  0  0  0  0  0  0  0  0  0  0
  152.3901  137.4774  153.2642 H   0  0  0  0  0  0  0  0  0  0  0  0
  146.9232  136.9522  150.9913 H   0  0  0  0  0  0  0  0  0  0  0  0
  145.1913  136.9583  150.4970 H   0  0  0  0  0  0  0  0  0  0  0  0
  147.3958  136.9241  148.6015 H   0  0  0  0  0  0  0  0  0  0  0  0
  145.7792  137.6391  148.2230 H   0  0  0  0  0  0  0  0  0  0  0  0
  146.9050  139.7757  148.5703 H   0  0  0  0  0  0  0  0  0  0  0  0
  148.1597  139.0072  149.6032 H   0  0  0  0  0  0  0  0  0  0  0  0
  1  2  1  0  0  0  0
  1 17  1  0  0  0  0
  1 18  1  0  0  0  0
  1 19  1  0  0  0  0
  2  3  1  0  0  0  0
  3 16  1  0  0  0  0
  3  4  1  0  0  0  0
  3 14  1  0  0  0  0
  4  5  1  0  0  0  0
  4 20  1  0  0  0  0
  4 21  1  0  0  0  0
  5  6  1  0  0  0  0
  5 22  1  0  0  0  0
  6  7  2  0  0  0  0
  6  8  1  0  0  0  0
  8  9  1  0  0  0  0
  8 23  1  0  0  0  0
  9 13  1  0  0  0  0
  9 10  2  0  0  0  0
 10 11  1  0  0  0  0
 10 24  1  0  0  0  0
 11 12  2  0  0  0  0
 12 13  1  0  0  0  0
 14 15  1  0  0  0  0
 14 25  1  0  0  0  0
 14 26  1  0  0  0  0
 15 16  1  0  0  0  0
 15 27  1  0  0  0  0
 15 28  1  0  0  0  0
 16 29  1  0  0  0  0
 16 30  1  0  0  0  0
M  END
> <s_m_source_file>
AV-unprocessed.smi

> <i_m_source_file_index>
2586

> <i_lp_mmshare_version>
43012

> <i_f3d_flags>
0

> <s_epik_input>
W0NIMl0xW0NIMl1bQ0gyXUMxKE9bQ0gzXSlbQ0gyXVtOSF1DKD1PKVtOSF1jMltjSF1ubnMy

> <s_epik_cmdline>
J2VwaWtfcHl0aG9uJywgJy1waCcsICc3LjAnLCAnLXRuJywgJzgnLCAnLW1hJywgJzIwMCcsICctbWV0YWxfYmluZGluZycsICctaW1hZScsICc8aW5maWxlLm1hZT4nLCAnLW9tYWUnLCAnPG91dGZpbGUubWFlPic=

> <r_lp_tautomer_probability>
1

> <r_epik_Ionization_Penalty>
2.25632e-05

> <r_epik_Ionization_Penalty_Charging>
0

> <r_epik_Ionization_Penalty_Neutral>
2.25632e-05

> <r_epik_State_Penalty>
-0

> <r_epik_Charging_Adjusted_Penalty>
0

> <i_epik_Tot_Q>
0

> <i_epik_Tot_abs_Q>
0

> <r_epik_Metal_State_Penalty>
-0

> <b_epik_Metal_Only>
0

> <s_lp_Force_Field>
OPLS_2005

> <r_lp_Energy>
14.9091

> <b_lp_Chiralities_Consistent>
1

> <s_lp_Variant>
AV-unprocessed.smi:2586-1

> <Gold.Version>
5.8.1

> <Gold.Id.Protein>
6NUR|6NUR_protein|mol2

> <Gold.PLP.Fitness>
38.6879

> <Gold.PLP.PLP>
-25.5695

> <Gold.PLP.part.hbond>
-4.9518

> <Gold.PLP.part.metal>
0.0000

> <Gold.PLP.part.buried>
-3.4093

> <Gold.PLP.part.nonpolar>
-18.3479

> <Gold.PLP.part.repulsive>
0.2547

> <Gold.PLP.ligand.clash>
0.0000

> <Gold.PLP.ligand.torsion>
0.4254

> <Gold.PLP.Chemscore.Hbond>
3.5688

> <Gold.PLP.Chemscore.CHOScore>
1.0000

> <Gold.PLP.Chemscore.Metal>
0.0000

> <Gold.Chemscore.Hbonds>
donor molecule, donor type, donor heavy atom, donor atom, acceptor molecule, acceptor atom, score
      L1  H     5    22       P1  7948  1.00
      L1  H     8    23       P1  7948  1.00
      P1  H  7997  8010       L1    12  0.90
      P1  H  8011  8017       L1     7  0.28
      L1  C    10    24       P1  7949  0.80

> <Gold.PLP.Chemscore.Internal.Correction>
0.2627

> <Gold.Rescore>
     Score         DG    S(hbond)    S(metal)    S(lipo)     H(rot)  DE(clash)    DE(int)     intcor
     14.21     -14.87       2.35        0.00      48.55       1.61       0.25       0.41       ----

> <Gold.Chemscore.Fitness>
14.2096

> <Gold.Chemscore.DG>
-14.8719

> <Gold.Chemscore.ZeroCoef>
-5.4800

> <Gold.Chemscore.Hbond>
2.3483

> <Gold.Chemscore.Metal>
0.0000

> <Gold.Chemscore.Lipo>
48.5506

> <Gold.Chemscore.Internal_Hbond>
0.0000

> <Gold.Chemscore.DEClash>
0.2503

> <Gold.Chemscore.DEInternal>
0.4120

> <Gold.Chemscore.Rot>
1.6141

> <Gold.Chemscore.Internal.Correction>
   9.000000E+99

> <Gold.Chemscore.Hbonds>
donor molecule, donor type, donor heavy atom, donor atom, acceptor molecule, acceptor atom, score
      L1  H     5    22       P1  7948  0.98
      L1  H     8    23       P1  7948  0.42
      P1  H  7997  8010       L1    12  0.18
      P1  H  8011  8017       L1     7  0.25

> <Gold.Chemscore.Hbond.Weighted>
-7.8435

> <Gold.Chemscore.Metal.Weighted>
-0.0000

> <Gold.Chemscore.Lipo.Weighted>
-5.6804

> <Gold.Chemscore.Internal_Hbond.Weighted>
0.0000

> <Gold.Chemscore.DEClash.Weighted>
0.2503

> <Gold.Chemscore.DEInternal.Weighted>
0.4120

> <Gold.Chemscore.Rot.Weighted>
4.1320

> <Gold.Chemscore.Internal.Correction.Weighted>
   9.000000E+99

> <Gold.Protein.RotatedTorsions>
[ 6907 6896 6895 6894 ] final  145.91 input  -60.11 | X-H torsion
[ 7974 7965 7964 7962 ] final -166.22 input  175.53 | X-H torsion
[ 8008 7997 7996 7995 ] final   82.59 input   59.86 | X-H torsion
[ 10167 10162 10161 10158 ] final   95.51 input  -65.29 | X-H torsion
[ 10718 10713 10712 10709 ] final   39.25 input   66.30 | X-H torsion
[ 10763 10752 10751 10750 ] final   63.93 input  -60.55 | X-H torsion
[ 11005 11000 10999 10996 ] final   71.94 input  -57.11 | X-H torsion

> <Gold.Protein.ActiveResidues>
 VAL166  LYS551  ARG553  GLY616  TRP617  ASP618  TYR619  PRO620  LYS621  CYS622 
 ASP623  PHE694  ASN695  SER759  ASP760  ASP761  ALA762  ILE779  LEU786  VAL792 
 PHE793  MET794  SER795  GLU796  ALA797  LYS798  CYS799  TRP800  GLU811  SER814 

> <Gold.Protein.RotatedAtoms>
  152.1748  133.4667  159.4927 H   0  0  0  0  0  0  0  0  0  0  0  0  # atno 6907 bound_to 6896
  150.6925  134.1908  159.4293 H   0  0  0  0  0  0  0  0  0  0  0  0  # atno 6908 bound_to 6896
  151.9817  135.0025  160.0608 H   0  0  0  0  0  0  0  0  0  0  0  0  # atno 6909 bound_to 6896
  144.7250  140.2698  143.6252 H   0  0  0  0  0  0  0  0  0  0  0  0  # atno 7974 bound_to 7965
  155.9126  140.3426  155.6110 H   0  0  0  0  0  0  0  0  0  0  0  0  # atno 8008 bound_to 7997
  155.7369  140.0802  157.2282 H   0  0  0  0  0  0  0  0  0  0  0  0  # atno 8009 bound_to 7997
  154.4058  140.1578  156.2559 H   0  0  0  0  0  0  0  0  0  0  0  0  # atno 8010 bound_to 7997
  139.7981  144.6825  150.9801 H   0  0  0  0  0  0  0  0  0  0  0  0  # atno 10167 bound_to 10162
  157.3684  130.7687  149.7100 H   0  0  0  0  0  0  0  0  0  0  0  0  # atno 10718 bound_to 10713
  153.0036  135.5411  154.6430 H   0  0  0  0  0  0  0  0  0  0  0  0  # atno 10763 bound_to 10752
  154.5681  135.2839  155.0856 H   0  0  0  0  0  0  0  0  0  0  0  0  # atno 10764 bound_to 10752
  154.2033  135.6480  153.5146 H   0  0  0  0  0  0  0  0  0  0  0  0  # atno 10765 bound_to 10752
  139.9517  134.7216  156.0848 H   0  0  0  0  0  0  0  0  0  0  0  0  # atno 11005 bound_to 11000
  145.8054  139.1981  143.2024 LP  0  0  0  0  0  0  0  0  0  0  0  0  # atno 17320 bound_to 7965
  146.0641  140.7939  142.9720 LP  0  0  0  0  0  0  0  0  0  0  0  0  # atno 17321 bound_to 7965
  140.7820  143.4310  151.0695 LP  0  0  0  0  0  0  0  0  0  0  0  0  # atno 17342 bound_to 10162
  139.7983  143.8120  152.3160 LP  0  0  0  0  0  0  0  0  0  0  0  0  # atno 17343 bound_to 10162
  155.9750  130.4094  150.3878 LP  0  0  0  0  0  0  0  0  0  0  0  0  # atno 17370 bound_to 10713
  157.1965  131.0428  151.2673 LP  0  0  0  0  0  0  0  0  0  0  0  0  # atno 17371 bound_to 10713
  141.1181  133.6621  156.3144 LP  0  0  0  0  0  0  0  0  0  0  0  0  # atno 17394 bound_to 11000
  140.5704  134.5846  157.5456 LP  0  0  0  0  0  0  0  0  0  0  0  0  # atno 17395 bound_to 11000

$$$$
