AV-unprocessed.smi:145|AV-procd|sdf|1198|dock8
  -GOLD-   2262018353D 1   1.00000     0.00000
 Structure written by MMmdl.
 40 42  0  0  0  0  0  0  0  0  1 V2000
  151.0295  137.2462  159.8596 O   0  0  0  0  0  0  0  0  0  0  0  0
  150.5071  137.4077  158.7557 C   0  0  0  0  0  0  0  0  0  0  0  0
  151.2123  138.2394  157.6721 C   0  0  0  0  0  0  0  0  0  0  0  0
  150.8055  139.6618  157.6585 N   0  0  0  0  0  0  0  0  0  0  0  0
  149.4729  139.9875  157.3042 C   0  0  0  0  0  0  0  0  0  0  0  0
  148.6556  139.1113  157.0186 O   0  0  0  0  0  0  0  0  0  0  0  0
  149.1525  141.4105  157.2985 C   0  0  0  0  0  0  0  0  0  0  0  0
  147.9076  141.8108  156.9889 F   0  0  0  0  0  0  0  0  0  0  0  0
  150.0870  142.3351  157.6013 C   0  0  0  0  0  0  0  0  0  0  0  0
  151.3901  142.0035  157.9277 N   0  0  0  0  0  0  0  0  0  0  0  0
  152.4301  143.0533  158.2590 C   0  0  1  0  0  0  0  0  0  0  0  0
  151.8865  144.4659  157.9708 C   0  0  0  0  0  0  0  0  0  0  0  0
  152.1574  145.2008  159.2683 C   0  0  0  0  0  0  0  0  0  0  0  0
  152.0819  144.0755  160.2890 C   0  0  0  0  0  0  0  0  0  0  0  0
  152.7384  143.0046  159.6234 O   0  0  0  0  0  0  0  0  0  0  0  0
  151.7745  140.6457  157.9680 C   0  0  0  0  0  0  0  0  0  0  0  0
  152.9303  140.3291  158.2592 O   0  0  0  0  0  0  0  0  0  0  0  0
  149.3083  136.9102  158.4017 N   0  0  0  0  0  0  0  0  0  0  0  0
  148.4223  136.1082  159.1704 C   0  0  0  0  0  0  0  0  0  0  0  0
  147.6184  135.0830  158.6149 C   0  0  0  0  0  0  0  0  0  0  0  0
  146.7468  134.3419  159.4368 C   0  0  0  0  0  0  0  0  0  0  0  0
  146.6633  134.6228  160.8135 C   0  0  0  0  0  0  0  0  0  0  0  0
  147.4472  135.6519  161.3683 C   0  0  0  0  0  0  0  0  0  0  0  0
  147.3173  136.0808  163.4107 I   0  0  0  0  0  0  0  0  0  0  0  0
  148.3182  136.3947  160.5477 C   0  0  0  0  0  0  0  0  0  0  0  0
  152.2898  138.1385  157.8107 H   0  0  0  0  0  0  0  0  0  0  0  0
  151.0286  137.7775  156.7004 H   0  0  0  0  0  0  0  0  0  0  0  0
  149.7833  143.3704  157.5821 H   0  0  0  0  0  0  0  0  0  0  0  0
  153.3145  142.7864  157.6778 H   0  0  0  0  0  0  0  0  0  0  0  0
  152.3884  144.9106  157.1110 H   0  0  0  0  0  0  0  0  0  0  0  0
  150.8138  144.4260  157.7737 H   0  0  0  0  0  0  0  0  0  0  0  0
  153.1612  145.6275  159.2560 H   0  0  0  0  0  0  0  0  0  0  0  0
  151.4452  146.0030  159.4625 H   0  0  0  0  0  0  0  0  0  0  0  0
  152.5726  144.3245  161.2301 H   0  0  0  0  0  0  0  0  0  0  0  0
  151.0449  143.8102  160.4993 H   0  0  0  0  0  0  0  0  0  0  0  0
  148.9583  137.2015  157.5005 H   0  0  0  0  0  0  0  0  0  0  0  0
  147.6435  134.8584  157.5597 H   0  0  0  0  0  0  0  0  0  0  0  0
  146.1373  133.5600  159.0083 H   0  0  0  0  0  0  0  0  0  0  0  0
  145.9938  134.0532  161.4410 H   0  0  0  0  0  0  0  0  0  0  0  0
  148.9140  137.1837  160.9833 H   0  0  0  0  0  0  0  0  0  0  0  0
  1  2  2  0  0  0  0
  2  3  1  0  0  0  0
  2 18  1  0  0  0  0
  3  4  1  0  0  0  0
  3 26  1  0  0  0  0
  3 27  1  0  0  0  0
  4 16  1  0  0  0  0
  4  5  1  0  0  0  0
  5  6  2  0  0  0  0
  5  7  1  0  0  0  0
  7  8  1  0  0  0  0
  7  9  2  0  0  0  0
  9 10  1  0  0  0  0
  9 28  1  0  0  0  0
 10 11  1  0  0  0  0
 10 16  1  0  0  0  0
 11 15  1  0  0  0  0
 11 12  1  0  0  0  0
 11 29  1  0  0  0  0
 12 13  1  0  0  0  0
 12 30  1  0  0  0  0
 12 31  1  0  0  0  0
 13 14  1  0  0  0  0
 13 32  1  0  0  0  0
 13 33  1  0  0  0  0
 14 15  1  0  0  0  0
 14 34  1  0  0  0  0
 14 35  1  0  0  0  0
 16 17  2  0  0  0  0
 18 19  1  0  0  0  0
 18 36  1  0  0  0  0
 19 25  1  0  0  0  0
 19 20  2  0  0  0  0
 20 21  1  0  0  0  0
 20 37  1  0  0  0  0
 21 22  2  0  0  0  0
 21 38  1  0  0  0  0
 22 23  1  0  0  0  0
 22 39  1  0  0  0  0
 23 24  1  0  0  0  0
 23 25  2  0  0  0  0
 25 40  1  0  0  0  0
M  END
> <s_m_source_file>
AV-unprocessed.smi

> <i_m_source_file_index>
145

> <i_lp_mmshare_version>
43012

> <i_f3d_flags>
0

> <s_epik_input>
SWMoW2NIXTEpW2NIXVtjSF1bY0hdYzFbTkhdQyg9TylbQ0gyXW4yYyg9TyljKEYpW2NIXW4oYzI9TylbQ0BASF0zW0NIMl1bQ0gyXVtDSDJdTzM=

> <s_epik_cmdline>
J2VwaWtfcHl0aG9uJywgJy1waCcsICc3LjAnLCAnLXRuJywgJzgnLCAnLW1hJywgJzIwMCcsICctbWV0YWxfYmluZGluZycsICctaW1hZScsICc8aW5maWxlLm1hZT4nLCAnLW9tYWUnLCAnPG91dGZpbGUubWFlPic=

> <r_lp_tautomer_probability>
1

> <r_epik_Ionization_Penalty>
9.72367e-07

> <r_epik_Ionization_Penalty_Charging>
3.88729e-08

> <r_epik_Ionization_Penalty_Neutral>
9.33494e-07

> <r_epik_State_Penalty>
-0

> <r_epik_Charging_Adjusted_Penalty>
3.88729e-08

> <i_epik_Tot_Q>
0

> <i_epik_Tot_abs_Q>
0

> <r_epik_Metal_State_Penalty>
-0

> <b_epik_Metal_Only>
0

> <s_epik_Chemistry_Notes>
This compound contains an acetal/aminal-like group ( X-CH(R)-Y where X, Y are N, S, or O) that may be acid/base labile, releasing an aldehyde.

> <s_lp_Force_Field>
OPLS_2005

> <r_lp_Energy>
33.5039

> <b_lp_Chiralities_Consistent>
1

> <s_lp_Variant>
AV-unprocessed.smi:145-2

> <Gold.Version>
5.8.1

> <Gold.Id.Protein>
6NUR|6NUR_protein|mol2

> <Gold.PLP.Fitness>
48.7132

> <Gold.PLP.PLP>
-41.7655

> <Gold.PLP.part.hbond>
-1.9305

> <Gold.PLP.part.metal>
0.0000

> <Gold.PLP.part.buried>
-7.0962

> <Gold.PLP.part.nonpolar>
-33.2718

> <Gold.PLP.part.repulsive>
0.1179

> <Gold.PLP.ligand.clash>
0.0000

> <Gold.PLP.ligand.torsion>
0.8177

> <Gold.PLP.Chemscore.Hbond>
1.9030

> <Gold.PLP.Chemscore.CHOScore>
0.9542

> <Gold.PLP.Chemscore.Metal>
0.0000

> <Gold.Chemscore.Hbonds>
donor molecule, donor type, donor heavy atom, donor atom, acceptor molecule, acceptor atom, score
      P1  H  6896  6907       L1     1  0.80
      P1  H  7997  8009       L1    17  0.80
      L1  C     9    28       P1  8028  1.00

> <Gold.PLP.Chemscore.Internal.Correction>
0.0114

> <Gold.Rescore>
     Score         DG    S(hbond)    S(metal)    S(lipo)     H(rot)  DE(clash)    DE(int)     intcor
     14.61     -17.80       1.93        0.00      86.46       1.66       0.14       3.05       ----

> <Gold.Chemscore.Fitness>
14.6065

> <Gold.Chemscore.DG>
-17.7978

> <Gold.Chemscore.ZeroCoef>
-5.4800

> <Gold.Chemscore.Hbond>
1.9332

> <Gold.Chemscore.Metal>
0.0000

> <Gold.Chemscore.Lipo>
86.4614

> <Gold.Chemscore.Internal_Hbond>
0.0000

> <Gold.Chemscore.DEClash>
0.1390

> <Gold.Chemscore.DEInternal>
3.0523

> <Gold.Chemscore.Rot>
1.6621

> <Gold.Chemscore.Internal.Correction>
   9.000000E+99

> <Gold.Chemscore.Hbonds>
donor molecule, donor type, donor heavy atom, donor atom, acceptor molecule, acceptor atom, score
      P1  H  6896  6907       L1     1  0.31
      P1  H  7997  8009       L1    17  0.77

> <Gold.Chemscore.Hbond.Weighted>
-6.4567

> <Gold.Chemscore.Metal.Weighted>
-0.0000

> <Gold.Chemscore.Lipo.Weighted>
-10.1160

> <Gold.Chemscore.Internal_Hbond.Weighted>
0.0000

> <Gold.Chemscore.DEClash.Weighted>
0.1390

> <Gold.Chemscore.DEInternal.Weighted>
3.0523

> <Gold.Chemscore.Rot.Weighted>
4.2550

> <Gold.Chemscore.Internal.Correction.Weighted>
   9.000000E+99

> <Gold.Protein.RotatedTorsions>
[ 6907 6896 6895 6894 ] final  -13.91 input  -60.11 | X-H torsion
[ 7974 7965 7964 7962 ] final  113.83 input  175.53 | X-H torsion
[ 8008 7997 7996 7995 ] final  160.24 input   59.86 | X-H torsion
[ 10167 10162 10161 10158 ] final -101.52 input  -65.29 | X-H torsion
[ 10718 10713 10712 10709 ] final -100.26 input   66.30 | X-H torsion
[ 10763 10752 10751 10750 ] final -167.59 input  -60.55 | X-H torsion
[ 11005 11000 10999 10996 ] final   31.72 input  -57.11 | X-H torsion

> <Gold.Protein.ActiveResidues>
 VAL166  LYS551  ARG553  GLY616  TRP617  ASP618  TYR619  PRO620  LYS621  CYS622 
 ASP623  PHE694  ASN695  SER759  ASP760  ASP761  ALA762  ILE779  LEU786  VAL792 
 PHE793  MET794  SER795  GLU796  ALA797  LYS798  CYS799  TRP800  GLU811  SER814 

> <Gold.Protein.RotatedAtoms>
  151.3476  135.0877  159.9391 H   0  0  0  0  0  0  0  0  0  0  0  0  # atno 6907 bound_to 6896
  152.5195  133.9384  159.7625 H   0  0  0  0  0  0  0  0  0  0  0  0  # atno 6908 bound_to 6896
  150.9753  133.6247  159.2761 H   0  0  0  0  0  0  0  0  0  0  0  0  # atno 6909 bound_to 6896
  145.2120  139.2901  143.4263 H   0  0  0  0  0  0  0  0  0  0  0  0  # atno 7974 bound_to 7965
  156.2186  140.1809  156.7531 H   0  0  0  0  0  0  0  0  0  0  0  0  # atno 8008 bound_to 7997
  154.5829  140.0663  156.9159 H   0  0  0  0  0  0  0  0  0  0  0  0  # atno 8009 bound_to 7997
  155.2470  140.3326  155.4288 H   0  0  0  0  0  0  0  0  0  0  0  0  # atno 8010 bound_to 7997
  140.2404  143.3543  152.0807 H   0  0  0  0  0  0  0  0  0  0  0  0  # atno 10167 bound_to 10162
  156.0158  130.5320  150.6791 H   0  0  0  0  0  0  0  0  0  0  0  0  # atno 10718 bound_to 10713
  154.6717  135.2940  154.9733 H   0  0  0  0  0  0  0  0  0  0  0  0  # atno 10763 bound_to 10752
  154.0758  135.6611  153.4834 H   0  0  0  0  0  0  0  0  0  0  0  0  # atno 10764 bound_to 10752
  153.0490  135.5186  154.7716 H   0  0  0  0  0  0  0  0  0  0  0  0  # atno 10765 bound_to 10752
  140.2810  134.2973  155.7801 H   0  0  0  0  0  0  0  0  0  0  0  0  # atno 11005 bound_to 11000
  146.3395  140.2399  142.8595 LP  0  0  0  0  0  0  0  0  0  0  0  0  # atno 17320 bound_to 7965
  144.9846  140.8491  143.5376 LP  0  0  0  0  0  0  0  0  0  0  0  0  # atno 17321 bound_to 7965
  139.5079  144.6841  151.5934 LP  0  0  0  0  0  0  0  0  0  0  0  0  # atno 17342 bound_to 10162
  140.6118  143.9422  150.6459 LP  0  0  0  0  0  0  0  0  0  0  0  0  # atno 17343 bound_to 10162
  157.4497  131.0871  151.0858 LP  0  0  0  0  0  0  0  0  0  0  0  0  # atno 17370 bound_to 10713
  157.1378  130.6130  149.5547 LP  0  0  0  0  0  0  0  0  0  0  0  0  # atno 17371 bound_to 10713
  141.2163  133.7525  156.9480 LP  0  0  0  0  0  0  0  0  0  0  0  0  # atno 17394 bound_to 11000
  140.1284  134.9372  157.2302 LP  0  0  0  0  0  0  0  0  0  0  0  0  # atno 17395 bound_to 11000

$$$$
