AV-unprocessed.smi:1563|AV-procd|sdf|6291|dock1
  -GOLD-   22720 6493D 1   1.00000     0.00000
 Structure written by MMmdl.
 44 45  0  0  0  0  0  0  0  0  2 V2000
  143.9629  137.1078  154.5377 C   0  0  0  0  0  0  0  0  0  0  0  0
  145.0319  138.0747  155.0348 C   0  0  0  0  0  0  0  0  0  0  0  0
  145.6995  137.7990  156.0319 O   0  0  0  0  0  0  0  0  0  0  0  0
  145.1819  139.2058  154.3286 N   0  0  0  0  0  0  0  0  0  0  0  0
  146.1487  140.2564  154.6273 C   0  0  2  0  0  0  0  0  0  0  0  0
  145.4330  141.6116  154.8096 C   0  0  0  0  0  0  0  0  0  0  0  0
  146.4378  142.7695  154.9772 C   0  0  0  0  0  0  0  0  0  0  0  0
  147.5104  142.7358  153.8723 C   0  0  0  0  0  0  0  0  0  0  0  0
  148.1570  141.4137  153.8869 N   0  0  0  0  0  0  0  0  0  0  0  0
  149.3842  141.1237  154.3845 C   0  0  0  0  0  0  0  0  0  0  0  0
  149.9816  140.0756  154.1355 O   0  0  0  0  0  0  0  0  0  0  0  0
  149.8641  142.0293  155.2559 N   0  0  0  0  0  0  0  0  0  0  0  0
  151.0521  141.8556  156.0895 C   0  0  0  0  0  0  0  0  0  0  0  0
  150.7020  141.7059  157.5857 C   0  0  0  0  0  0  0  0  0  0  0  0
  151.1112  142.8967  158.4380 C   0  0  0  0  0  0  0  0  0  0  0  0
  151.9500  142.7605  159.5664 C   0  0  0  0  0  0  0  0  0  0  0  0
  152.3294  143.9124  160.2864 C   0  0  0  0  0  0  0  0  0  0  0  0
  151.8640  145.1747  159.8642 C   0  0  0  0  0  0  0  0  0  0  0  0
  151.0233  145.2525  158.7355 C   0  0  0  0  0  0  0  0  0  0  0  0
  150.6785  144.1257  158.0740 N   0  3  0  0  0  0  0  0  0  0  0  0
  147.2118  140.3562  153.5124 C   0  0  0  0  0  0  0  0  0  0  0  0
  144.1605  136.8196  153.5048 H   0  0  0  0  0  0  0  0  0  0  0  0
  142.9778  137.5725  154.5854 H   0  0  0  0  0  0  0  0  0  0  0  0
  143.9441  136.2031  155.1463 H   0  0  0  0  0  0  0  0  0  0  0  0
  144.5881  139.3457  153.5237 H   0  0  0  0  0  0  0  0  0  0  0  0
  146.6516  140.0201  155.5664 H   0  0  0  0  0  0  0  0  0  0  0  0
  144.8090  141.8113  153.9372 H   0  0  0  0  0  0  0  0  0  0  0  0
  144.7607  141.5734  155.6675 H   0  0  0  0  0  0  0  0  0  0  0  0
  145.9124  143.7247  154.9634 H   0  0  0  0  0  0  0  0  0  0  0  0
  146.9198  142.6955  155.9528 H   0  0  0  0  0  0  0  0  0  0  0  0
  147.0445  142.8956  152.8988 H   0  0  0  0  0  0  0  0  0  0  0  0
  148.2098  143.5633  153.9937 H   0  0  0  0  0  0  0  0  0  0  0  0
  149.3185  142.8647  155.4113 H   0  0  0  0  0  0  0  0  0  0  0  0
  151.6283  140.9919  155.7536 H   0  0  0  0  0  0  0  0  0  0  0  0
  151.7001  142.7209  155.9501 H   0  0  0  0  0  0  0  0  0  0  0  0
  149.6296  141.5423  157.6977 H   0  0  0  0  0  0  0  0  0  0  0  0
  151.1857  140.8118  157.9812 H   0  0  0  0  0  0  0  0  0  0  0  0
  152.3119  141.7886  159.8689 H   0  0  0  0  0  0  0  0  0  0  0  0
  152.9785  143.8300  161.1459 H   0  0  0  0  0  0  0  0  0  0  0  0
  152.1522  146.0704  160.3950 H   0  0  0  0  0  0  0  0  0  0  0  0
  150.6255  146.1756  158.3398 H   0  0  0  0  0  0  0  0  0  0  0  0
  147.6988  139.3911  153.3643 H   0  0  0  0  0  0  0  0  0  0  0  0
  146.7445  140.6011  152.5572 H   0  0  0  0  0  0  0  0  0  0  0  0
  150.0806  144.2084  157.2514 H   0  0  0  0  0  0  0  0  0  0  0  0
  1  2  1  0  0  0  0
  1 22  1  0  0  0  0
  1 23  1  0  0  0  0
  1 24  1  0  0  0  0
  2  3  2  0  0  0  0
  2  4  1  0  0  0  0
  4  5  1  0  0  0  0
  4 25  1  0  0  0  0
  5 21  1  0  0  0  0
  5  6  1  0  0  0  0
  5 26  1  0  0  0  0
  6  7  1  0  0  0  0
  6 27  1  0  0  0  0
  6 28  1  0  0  0  0
  7  8  1  0  0  0  0
  7 29  1  0  0  0  0
  7 30  1  0  0  0  0
  8  9  1  0  0  0  0
  8 31  1  0  0  0  0
  8 32  1  0  0  0  0
  9 10  1  0  0  0  0
  9 21  1  0  0  0  0
 10 11  2  0  0  0  0
 10 12  1  0  0  0  0
 12 13  1  0  0  0  0
 12 33  1  0  0  0  0
 13 14  1  0  0  0  0
 13 34  1  0  0  0  0
 13 35  1  0  0  0  0
 14 15  1  0  0  0  0
 14 36  1  0  0  0  0
 14 37  1  0  0  0  0
 15 20  1  0  0  0  0
 15 16  2  0  0  0  0
 16 17  1  0  0  0  0
 16 38  1  0  0  0  0
 17 18  2  0  0  0  0
 17 39  1  0  0  0  0
 18 19  1  0  0  0  0
 18 40  1  0  0  0  0
 19 20  2  0  0  0  0
 19 41  1  0  0  0  0
 20 44  1  0  0  0  0
 21 42  1  0  0  0  0
 21 43  1  0  0  0  0
M  CHG  1  20   1
M  END
> <s_m_source_file>
AV-unprocessed.smi

> <i_m_source_file_index>
1563

> <i_lp_mmshare_version>
43012

> <i_f3d_flags>
0

> <s_epik_input>
W0NIM11DKD1PKVtOSF1bQ0BASF0xW0NIMl1bQ0gyXVtDSDJdTihbQ0gyXTEpQyg9TylbTkhdW0NIMl1bQ0gyXWMyW2NIXVtjSF1bY0hdW2NIXW4y

> <s_epik_cmdline>
J2VwaWtfcHl0aG9uJywgJy1waCcsICc3LjAnLCAnLXRuJywgJzgnLCAnLW1hJywgJzIwMCcsICctbWV0YWxfYmluZGluZycsICctaW1hZScsICc8aW5maWxlLm1hZT4nLCAnLW9tYWUnLCAnPG91dGZpbGUubWFlPic=

> <r_epik_Ionization_Penalty>
1.56048

> <r_epik_Ionization_Penalty_Charging>
1.56043

> <r_epik_Ionization_Penalty_Neutral>
4.90601e-05

> <r_epik_State_Penalty>
1.65539

> <r_epik_Charging_Adjusted_Penalty>
3.21583

> <i_epik_Tot_Q>
1

> <i_epik_Tot_abs_Q>
1

> <r_epik_Metal_State_Penalty>
1.6969

> <b_epik_Metal_Only>
0

> <s_lp_Force_Field>
OPLS_2005

> <r_lp_Energy>
29.9669

> <b_lp_Chiralities_Consistent>
1

> <s_lp_Variant>
AV-unprocessed.smi:1563-3

> <Gold.Version>
5.8.1

> <Gold.Id.Protein>
6NUR|6NUR_protein|mol2

> <Gold.PLP.Fitness>
52.1060

> <Gold.PLP.PLP>
-39.1617

> <Gold.PLP.part.hbond>
-4.0000

> <Gold.PLP.part.metal>
0.0000

> <Gold.PLP.part.buried>
-3.8288

> <Gold.PLP.part.nonpolar>
-31.0667

> <Gold.PLP.part.repulsive>
1.0086

> <Gold.PLP.ligand.clash>
0.0000

> <Gold.PLP.ligand.torsion>
0.6879

> <Gold.PLP.Chemscore.Hbond>
4.7378

> <Gold.PLP.Chemscore.CHOScore>
0.0000

> <Gold.PLP.Chemscore.Metal>
0.0000

> <Gold.Chemscore.Hbonds>
donor molecule, donor type, donor heavy atom, donor atom, acceptor molecule, acceptor atom, score
      L1  H     4    25       P1 10175  0.98
      L1  H    12    33       P1  8028  1.00
      L1  H    20    44       P1  8028  2.00
      P1  H  7989  7998       L1    11  0.79

> <Gold.PLP.Chemscore.Internal.Correction>
0.1066

> <Gold.Rescore>
     Score         DG    S(hbond)    S(metal)    S(lipo)     H(rot)  DE(clash)    DE(int)     intcor
     19.98     -21.57       2.84        0.00      95.14       1.77       0.83       0.76       ----

> <Gold.Chemscore.Fitness>
19.9849

> <Gold.Chemscore.DG>
-21.5651

> <Gold.Chemscore.ZeroCoef>
-5.4800

> <Gold.Chemscore.Hbond>
2.8369

> <Gold.Chemscore.Metal>
0.0000

> <Gold.Chemscore.Lipo>
95.1375

> <Gold.Chemscore.Internal_Hbond>
0.0000

> <Gold.Chemscore.DEClash>
0.8252

> <Gold.Chemscore.DEInternal>
0.7550

> <Gold.Chemscore.Rot>
1.7661

> <Gold.Chemscore.Internal.Correction>
   9.000000E+99

> <Gold.Chemscore.Hbonds>
donor molecule, donor type, donor heavy atom, donor atom, acceptor molecule, acceptor atom, score
      L1  H     4    25       P1 10175  0.93
      L1  H    12    33       P1  8028  0.99
      L1  H    20    44       P1  8028  0.65
      P1  H  7989  7998       L1    11  0.13

> <Gold.Chemscore.Hbond.Weighted>
-9.4752

> <Gold.Chemscore.Metal.Weighted>
-0.0000

> <Gold.Chemscore.Lipo.Weighted>
-11.1311

> <Gold.Chemscore.Internal_Hbond.Weighted>
0.0000

> <Gold.Chemscore.DEClash.Weighted>
0.8252

> <Gold.Chemscore.DEInternal.Weighted>
0.7550

> <Gold.Chemscore.Rot.Weighted>
4.5211

> <Gold.Chemscore.Internal.Correction.Weighted>
   9.000000E+99

> <Gold.Protein.RotatedTorsions>
[ 6907 6896 6895 6894 ] final   64.18 input  -60.11 | X-H torsion
[ 7974 7965 7964 7962 ] final  -12.33 input  175.53 | X-H torsion
[ 8008 7997 7996 7995 ] final   19.35 input   59.86 | X-H torsion
[ 10167 10162 10161 10158 ] final   10.38 input  -65.29 | X-H torsion
[ 10718 10713 10712 10709 ] final  147.56 input   66.30 | X-H torsion
[ 10763 10752 10751 10750 ] final   66.86 input  -60.55 | X-H torsion
[ 11005 11000 10999 10996 ] final   60.17 input  -57.11 | X-H torsion

> <Gold.Protein.ActiveResidues>
 VAL166  LYS551  ARG553  GLY616  TRP617  ASP618  TYR619  PRO620  LYS621  CYS622 
 ASP623  PHE694  ASN695  SER759  ASP760  ASP761  ALA762  ILE779  LEU786  VAL792 
 PHE793  MET794  SER795  GLU796  ALA797  LYS798  CYS799  TRP800  GLU811  SER814 

> <Gold.Protein.RotatedAtoms>
  152.4312  134.5775  159.9938 H   0  0  0  0  0  0  0  0  0  0  0  0  # atno 6907 bound_to 6896
  151.5897  133.3362  159.3033 H   0  0  0  0  0  0  0  0  0  0  0  0  # atno 6908 bound_to 6896
  150.8205  134.7445  159.6832 H   0  0  0  0  0  0  0  0  0  0  0  0  # atno 6909 bound_to 6896
  146.2156  140.3041  142.8377 H   0  0  0  0  0  0  0  0  0  0  0  0  # atno 7974 bound_to 7965
  154.9194  140.3025  155.5224 H   0  0  0  0  0  0  0  0  0  0  0  0  # atno 8008 bound_to 7997
  156.3010  140.2374  156.4178 H   0  0  0  0  0  0  0  0  0  0  0  0  # atno 8009 bound_to 7997
  154.8346  140.0417  157.1489 H   0  0  0  0  0  0  0  0  0  0  0  0  # atno 8010 bound_to 7997
  140.6197  143.8230  150.7161 H   0  0  0  0  0  0  0  0  0  0  0  0  # atno 10167 bound_to 10162
  157.3194  131.0901  151.1253 H   0  0  0  0  0  0  0  0  0  0  0  0  # atno 10718 bound_to 10713
  153.0159  135.5305  154.6889 H   0  0  0  0  0  0  0  0  0  0  0  0  # atno 10763 bound_to 10752
  154.6029  135.2870  155.0518 H   0  0  0  0  0  0  0  0  0  0  0  0  # atno 10764 bound_to 10752
  154.1568  135.6554  153.5029 H   0  0  0  0  0  0  0  0  0  0  0  0  # atno 10765 bound_to 10752
  140.0251  134.6095  155.9585 H   0  0  0  0  0  0  0  0  0  0  0  0  # atno 11005 bound_to 11000
  144.9035  140.7672  143.5852 LP  0  0  0  0  0  0  0  0  0  0  0  0  # atno 17320 bound_to 7965
  145.2968  139.1864  143.4711 LP  0  0  0  0  0  0  0  0  0  0  0  0  # atno 17321 bound_to 7965
  140.1818  143.4109  152.1927 LP  0  0  0  0  0  0  0  0  0  0  0  0  # atno 17342 bound_to 10162
  139.5428  144.7272  151.4678 LP  0  0  0  0  0  0  0  0  0  0  0  0  # atno 17343 bound_to 10162
  157.2543  130.6629  149.5946 LP  0  0  0  0  0  0  0  0  0  0  0  0  # atno 17370 bound_to 10713
  155.9684  130.4528  150.5789 LP  0  0  0  0  0  0  0  0  0  0  0  0  # atno 17371 bound_to 10713
  141.1797  133.6545  156.4971 LP  0  0  0  0  0  0  0  0  0  0  0  0  # atno 17394 bound_to 11000
  140.4321  134.7092  157.4947 LP  0  0  0  0  0  0  0  0  0  0  0  0  # atno 17395 bound_to 11000

$$$$
