AV-unprocessed.smi:867|AV-procd|sdf|4001|dock5
  -GOLD-   22720 1483D 1   1.00000     0.00000
 Structure written by MMmdl.
 54 57  0  0  0  0  0  0  0  0  3 V2000
  149.8374  139.4698  153.6329 O   0  0  0  0  0  0  0  0  0  0  0  0
  149.0327  140.2967  154.0640 C   0  0  0  0  0  0  0  0  0  0  0  0
  149.3216  141.1091  155.0957 N   0  0  0  0  0  0  0  0  0  0  0  0
  150.5968  141.1742  155.8057 C   0  0  0  0  0  0  0  0  0  0  0  0
  150.4788  140.7209  157.2735 C   0  0  0  0  0  0  0  0  0  0  0  0
  151.4651  141.4051  158.2039 C   0  0  0  0  0  0  0  0  0  0  0  0
  151.4973  142.8132  158.3168 C   0  0  0  0  0  0  0  0  0  0  0  0
  152.4104  143.4147  159.2077 C   0  0  0  0  0  0  0  0  0  0  0  0
  153.2726  142.5948  159.9643 C   0  0  0  0  0  0  0  0  0  0  0  0
  153.2157  141.2521  159.8271 N   0  3  0  0  0  0  0  0  0  0  0  0
  152.3565  140.6379  158.9849 C   0  0  0  0  0  0  0  0  0  0  0  0
  147.7692  140.4191  153.5858 N   0  0  0  0  0  0  0  0  0  0  0  0
  147.2239  139.7425  152.4018 C   0  0  0  0  0  0  0  0  0  0  0  0
  146.3166  138.5865  152.8621 C   0  0  0  0  0  0  0  0  0  0  0  0
  145.2372  139.0596  153.7769 N   0  3  0  0  0  0  0  0  0  0  0  0
  144.3515  137.9622  154.2619 C   0  0  1  0  0  0  0  0  0  0  0  0
  143.0206  138.4479  154.8867 C   0  0  0  0  0  0  0  0  0  0  0  0
  141.9640  137.5811  154.1757 C   0  0  1  0  0  0  0  0  0  0  0  0
  141.7673  138.1142  152.7463 C   0  0  0  0  0  0  0  0  0  0  0  0
  143.0806  137.7072  152.0554 C   0  0  0  0  0  0  0  0  0  0  0  0
  143.8519  136.9762  153.1762 C   0  0  2  0  0  0  0  0  0  0  0  0
  142.7173  136.2807  153.9212 C   0  0  0  0  0  0  0  0  0  0  0  0
  145.7692  139.8944  154.8927 C   0  0  0  0  0  0  0  0  0  0  0  0
  146.6916  141.0147  154.3786 C   0  0  0  0  0  0  0  0  0  0  0  0
  148.6004  141.7430  155.4084 H   0  0  0  0  0  0  0  0  0  0  0  0
  151.3587  140.5905  155.2862 H   0  0  0  0  0  0  0  0  0  0  0  0
  150.9388  142.2089  155.7755 H   0  0  0  0  0  0  0  0  0  0  0  0
  149.4698  140.9221  157.6350 H   0  0  0  0  0  0  0  0  0  0  0  0
  150.6111  139.6399  157.3367 H   0  0  0  0  0  0  0  0  0  0  0  0
  150.8256  143.4275  157.7348 H   0  0  0  0  0  0  0  0  0  0  0  0
  152.4475  144.4894  159.3104 H   0  0  0  0  0  0  0  0  0  0  0  0
  154.0003  142.9692  160.6694 H   0  0  0  0  0  0  0  0  0  0  0  0
  152.4011  139.5586  158.9694 H   0  0  0  0  0  0  0  0  0  0  0  0
  146.6452  140.4589  151.8167 H   0  0  0  0  0  0  0  0  0  0  0  0
  147.9841  139.3615  151.7201 H   0  0  0  0  0  0  0  0  0  0  0  0
  145.8881  138.1128  151.9795 H   0  0  0  0  0  0  0  0  0  0  0  0
  146.9137  137.8278  153.3705 H   0  0  0  0  0  0  0  0  0  0  0  0
  144.9062  137.3915  155.0094 H   0  0  0  0  0  0  0  0  0  0  0  0
  143.0164  138.2697  155.9627 H   0  0  0  0  0  0  0  0  0  0  0  0
  142.8254  139.5088  154.7257 H   0  0  0  0  0  0  0  0  0  0  0  0
  141.0332  137.4758  154.7340 H   0  0  0  0  0  0  0  0  0  0  0  0
  140.9153  137.6318  152.2651 H   0  0  0  0  0  0  0  0  0  0  0  0
  141.5983  139.1913  152.7214 H   0  0  0  0  0  0  0  0  0  0  0  0
  142.8772  137.0299  151.2249 H   0  0  0  0  0  0  0  0  0  0  0  0
  143.6205  138.5651  151.6542 H   0  0  0  0  0  0  0  0  0  0  0  0
  144.6213  136.2962  152.8092 H   0  0  0  0  0  0  0  0  0  0  0  0
  143.0386  135.7802  154.8364 H   0  0  0  0  0  0  0  0  0  0  0  0
  142.1625  135.5725  153.3030 H   0  0  0  0  0  0  0  0  0  0  0  0
  144.9526  140.3407  155.4594 H   0  0  0  0  0  0  0  0  0  0  0  0
  146.3201  139.2579  155.5872 H   0  0  0  0  0  0  0  0  0  0  0  0
  147.0642  141.6071  155.2156 H   0  0  0  0  0  0  0  0  0  0  0  0
  146.1265  141.7099  153.7560 H   0  0  0  0  0  0  0  0  0  0  0  0
  144.6540  139.6695  153.2217 H   0  0  0  0  0  0  0  0  0  0  0  0
  153.8469  140.6766  160.3851 H   0  0  0  0  0  0  0  0  0  0  0  0
  1  2  2  0  0  0  0
  2  3  1  0  0  0  0
  2 12  1  0  0  0  0
  3  4  1  0  0  0  0
  3 25  1  0  0  0  0
  4  5  1  0  0  0  0
  4 26  1  0  0  0  0
  4 27  1  0  0  0  0
  5  6  1  0  0  0  0
  5 28  1  0  0  0  0
  5 29  1  0  0  0  0
  6 11  1  0  0  0  0
  6  7  2  0  0  0  0
  7  8  1  0  0  0  0
  7 30  1  0  0  0  0
  8  9  2  0  0  0  0
  8 31  1  0  0  0  0
  9 10  1  0  0  0  0
  9 32  1  0  0  0  0
 10 11  2  0  0  0  0
 10 54  1  0  0  0  0
 11 33  1  0  0  0  0
 12 24  1  0  0  0  0
 12 13  1  0  0  0  0
 13 14  1  0  0  0  0
 13 34  1  0  0  0  0
 13 35  1  0  0  0  0
 14 15  1  0  0  0  0
 14 36  1  0  0  0  0
 14 37  1  0  0  0  0
 15 16  1  0  0  0  0
 15 23  1  0  0  0  0
 15 53  1  0  0  0  0
 16 21  1  0  0  0  0
 16 17  1  0  0  0  0
 16 38  1  0  0  0  0
 17 18  1  0  0  0  0
 17 39  1  0  0  0  0
 17 40  1  0  0  0  0
 18 22  1  0  0  0  0
 18 19  1  0  0  0  0
 18 41  1  0  0  0  0
 19 20  1  0  0  0  0
 19 42  1  0  0  0  0
 19 43  1  0  0  0  0
 20 21  1  0  0  0  0
 20 44  1  0  0  0  0
 20 45  1  0  0  0  0
 21 22  1  0  0  0  0
 21 46  1  0  0  0  0
 22 47  1  0  0  0  0
 22 48  1  0  0  0  0
 23 24  1  0  0  0  0
 23 49  1  0  0  0  0
 23 50  1  0  0  0  0
 24 51  1  0  0  0  0
 24 52  1  0  0  0  0
M  CHG  1  10   1
M  CHG  1  15   1
M  END
> <s_m_source_file>
AV-unprocessed.smi

> <i_m_source_file_index>
867

> <i_lp_mmshare_version>
43012

> <i_f3d_flags>
0

> <s_epik_input>
W0NIMl0xW0NIMl1bQ0BASF0oW0NIMl0yKVtDQEBIXShbQ0gyXVtDQEhdMTIpTihbQ0gyXVtDSDJdMylbQ0gyXVtDSDJdTjNDKD1PKVtOSF1bQ0gyXVtDSDJdYzRbY0hdW2NIXVtjSF1uW2NIXTQ=

> <s_epik_cmdline>
J2VwaWtfcHl0aG9uJywgJy1waCcsICc3LjAnLCAnLXRuJywgJzgnLCAnLW1hJywgJzIwMCcsICctbWV0YWxfYmluZGluZycsICctaW1hZScsICc8aW5maWxlLm1hZT4nLCAnLW9tYWUnLCAnPG91dGZpbGUubWFlPic=

> <r_epik_Ionization_Penalty>
2.25108

> <r_epik_Ionization_Penalty_Charging>
2.25105

> <r_epik_Ionization_Penalty_Neutral>
2.64641e-05

> <r_epik_State_Penalty>
2.39519

> <r_epik_Charging_Adjusted_Penalty>
4.64625

> <i_epik_Tot_Q>
2

> <i_epik_Tot_abs_Q>
2

> <r_epik_Metal_State_Penalty>
2.40865

> <b_epik_Metal_Only>
0

> <s_lp_Force_Field>
OPLS_2005

> <r_lp_Energy>
106.845

> <b_lp_Chiralities_Consistent>
1

> <s_lp_Variant>
AV-unprocessed.smi:867-8

> <Gold.Version>
5.8.1

> <Gold.Id.Protein>
6NUR|6NUR_protein|mol2

> <Gold.PLP.Fitness>
42.7877

> <Gold.PLP.PLP>
-38.3810

> <Gold.PLP.part.hbond>
-1.0000

> <Gold.PLP.part.metal>
0.0000

> <Gold.PLP.part.buried>
-4.3173

> <Gold.PLP.part.nonpolar>
-33.5960

> <Gold.PLP.part.repulsive>
0.3785

> <Gold.PLP.ligand.clash>
0.8097

> <Gold.PLP.ligand.torsion>
0.4470

> <Gold.PLP.Chemscore.Hbond>
2.0000

> <Gold.PLP.Chemscore.CHOScore>
0.0000

> <Gold.PLP.Chemscore.Metal>
0.0000

> <Gold.Chemscore.Hbonds>
donor molecule, donor type, donor heavy atom, donor atom, acceptor molecule, acceptor atom, score
      L1  H    15    53       P1 10175  1.69
      P1  H  7989  7998       L1     1  0.29

> <Gold.PLP.Chemscore.Internal.Correction>
0.1104

> <Gold.Rescore>
     Score         DG    S(hbond)    S(metal)    S(lipo)     H(rot)  DE(clash)    DE(int)     intcor
     16.09     -16.59       1.00        0.00      98.30       1.46       0.02       0.48       ----

> <Gold.Chemscore.Fitness>
16.0928

> <Gold.Chemscore.DG>
-16.5881

> <Gold.Chemscore.ZeroCoef>
-5.4800

> <Gold.Chemscore.Hbond>
0.9991

> <Gold.Chemscore.Metal>
0.0000

> <Gold.Chemscore.Lipo>
98.3049

> <Gold.Chemscore.Internal_Hbond>
0.0000

> <Gold.Chemscore.DEClash>
0.0201

> <Gold.Chemscore.DEInternal>
0.4752

> <Gold.Chemscore.Rot>
1.4572

> <Gold.Chemscore.Internal.Correction>
   9.000000E+99

> <Gold.Chemscore.Hbonds>
donor molecule, donor type, donor heavy atom, donor atom, acceptor molecule, acceptor atom, score
      L1  H    15    53       P1 10175  0.82
      P1  H  7989  7998       L1     1  0.05

> <Gold.Chemscore.Hbond.Weighted>
-3.3369

> <Gold.Chemscore.Metal.Weighted>
-0.0000

> <Gold.Chemscore.Lipo.Weighted>
-11.5017

> <Gold.Chemscore.Internal_Hbond.Weighted>
0.0000

> <Gold.Chemscore.DEClash.Weighted>
0.0201

> <Gold.Chemscore.DEInternal.Weighted>
0.4752

> <Gold.Chemscore.Rot.Weighted>
3.7305

> <Gold.Chemscore.Internal.Correction.Weighted>
   9.000000E+99

> <Gold.Protein.RotatedTorsions>
[ 6907 6896 6895 6894 ] final -167.86 input  -60.11 | X-H torsion
[ 7974 7965 7964 7962 ] final   60.45 input  175.53 | X-H torsion
[ 8008 7997 7996 7995 ] final   92.81 input   59.86 | X-H torsion
[ 10167 10162 10161 10158 ] final  117.89 input  -65.29 | X-H torsion
[ 10718 10713 10712 10709 ] final  -10.74 input   66.30 | X-H torsion
[ 10763 10752 10751 10750 ] final  -29.53 input  -60.55 | X-H torsion
[ 11005 11000 10999 10996 ] final  -10.80 input  -57.11 | X-H torsion

> <Gold.Protein.ActiveResidues>
 VAL166  LYS551  ARG553  GLY616  TRP617  ASP618  TYR619  PRO620  LYS621  CYS622 
 ASP623  PHE694  ASN695  SER759  ASP760  ASP761  ALA762  ILE779  LEU786  VAL792 
 PHE793  MET794  SER795  GLU796  ALA797  LYS798  CYS799  TRP800  GLU811  SER814 

> <Gold.Protein.RotatedAtoms>
  151.4663  133.3580  159.2816 H   0  0  0  0  0  0  0  0  0  0  0  0  # atno 6907 bound_to 6896
  150.8991  134.8403  159.7358 H   0  0  0  0  0  0  0  0  0  0  0  0  # atno 6908 bound_to 6896
  152.4869  134.4582  159.9648 H   0  0  0  0  0  0  0  0  0  0  0  0  # atno 6909 bound_to 6896
  145.8959  139.3545  143.0621 H   0  0  0  0  0  0  0  0  0  0  0  0  # atno 7974 bound_to 7965
  156.0397  140.3321  155.7230 H   0  0  0  0  0  0  0  0  0  0  0  0  # atno 8008 bound_to 7997
  155.5763  140.0632  157.2812 H   0  0  0  0  0  0  0  0  0  0  0  0  # atno 8009 bound_to 7997
  154.4387  140.1852  156.0919 H   0  0  0  0  0  0  0  0  0  0  0  0  # atno 8010 bound_to 7997
  139.6148  144.7089  151.2763 H   0  0  0  0  0  0  0  0  0  0  0  0  # atno 10167 bound_to 10162
  156.6692  130.5004  149.6005 H   0  0  0  0  0  0  0  0  0  0  0  0  # atno 10718 bound_to 10713
  153.7662  135.6915  153.4915 H   0  0  0  0  0  0  0  0  0  0  0  0  # atno 10763 bound_to 10752
  153.1905  135.4473  155.0142 H   0  0  0  0  0  0  0  0  0  0  0  0  # atno 10764 bound_to 10752
  154.8135  135.3388  154.7174 H   0  0  0  0  0  0  0  0  0  0  0  0  # atno 10765 bound_to 10752
  140.7486  133.8611  155.9026 H   0  0  0  0  0  0  0  0  0  0  0  0  # atno 11005 bound_to 11000
  145.8851  140.9339  143.0581 LP  0  0  0  0  0  0  0  0  0  0  0  0  # atno 17320 bound_to 7965
  144.6733  140.0831  143.7468 LP  0  0  0  0  0  0  0  0  0  0  0  0  # atno 17321 bound_to 7965
  140.7344  143.6768  150.8035 LP  0  0  0  0  0  0  0  0  0  0  0  0  # atno 17342 bound_to 10162
  140.0369  143.5386  152.2735 LP  0  0  0  0  0  0  0  0  0  0  0  0  # atno 17343 bound_to 10162
  156.1952  130.6585  151.1106 LP  0  0  0  0  0  0  0  0  0  0  0  0  # atno 17370 bound_to 10713
  157.7083  131.0746  150.6590 LP  0  0  0  0  0  0  0  0  0  0  0  0  # atno 17371 bound_to 10713
  140.9772  134.1454  157.4526 LP  0  0  0  0  0  0  0  0  0  0  0  0  # atno 17394 bound_to 11000
  139.8792  134.9998  156.5977 LP  0  0  0  0  0  0  0  0  0  0  0  0  # atno 17395 bound_to 11000

$$$$
