AV-unprocessed.smi:2459|AV-procd|sdf|9713|dock10
  -GOLD-   2272013353D 1   1.00000     0.00000
 Structure written by MMmdl.
 46 47  0  0  0  0  0  0  0  0  1 V2000
  156.9363  134.3202  156.5020 C   0  0  0  0  0  0  0  0  0  0  0  0
  155.9233  135.2823  156.7910 O   0  0  0  0  0  0  0  0  0  0  0  0
  154.9895  134.9871  157.8404 C   0  0  0  0  0  0  0  0  0  0  0  0
  154.2371  133.6681  157.5448 C   0  0  0  0  0  0  0  0  0  0  0  0
  155.8385  134.8125  159.1120 C   0  0  0  0  0  0  0  0  0  0  0  0
  154.0126  136.1677  158.0516 C   0  0  0  0  0  0  0  0  0  0  0  0
  152.8133  136.0155  157.8192 O   0  0  0  0  0  0  0  0  0  0  0  0
  154.5582  137.3204  158.4860 N   0  0  0  0  0  0  0  0  0  0  0  0
  153.9302  138.5683  158.7462 C   0  0  0  0  0  0  0  0  0  0  0  0
  154.4606  139.3663  159.7792 C   0  0  0  0  0  0  0  0  0  0  0  0
  153.9551  140.5657  160.1322 N   0  0  0  0  0  0  0  0  0  0  0  0
  152.8720  141.0313  159.4665 C   0  0  0  0  0  0  0  0  0  0  0  0
  152.3680  142.2851  159.8456 N   0  0  0  0  0  0  0  0  0  0  0  0
  152.4900  143.2971  158.7994 C   0  0  0  0  0  0  0  0  0  0  0  0
  151.7215  144.5730  159.1834 C   0  0  0  0  0  0  0  0  0  0  0  0
  152.1716  145.0915  160.5590 C   0  0  0  0  0  0  0  0  0  0  0  0
  152.0516  143.9785  161.6130 C   0  0  0  0  0  0  0  0  0  0  0  0
  152.8116  142.7170  161.1686 C   0  0  0  0  0  0  0  0  0  0  0  0
  152.2502  140.3032  158.4237 C   0  0  0  0  0  0  0  0  0  0  0  0
  151.0293  140.8431  157.6995 C   0  0  0  0  0  0  0  0  0  0  0  0
  152.7879  139.0496  158.0639 C   0  0  0  0  0  0  0  0  0  0  0  0
  157.4808  134.6351  155.6122 H   0  0  0  0  0  0  0  0  0  0  0  0
  156.5329  133.3272  156.3038 H   0  0  0  0  0  0  0  0  0  0  0  0
  157.6607  134.2457  157.3129 H   0  0  0  0  0  0  0  0  0  0  0  0
  153.6649  133.3333  158.4111 H   0  0  0  0  0  0  0  0  0  0  0  0
  154.9336  132.8689  157.2893 H   0  0  0  0  0  0  0  0  0  0  0  0
  153.5338  133.7716  156.7178 H   0  0  0  0  0  0  0  0  0  0  0  0
  155.2197  134.5739  159.9783 H   0  0  0  0  0  0  0  0  0  0  0  0
  156.4003  135.7177  159.3461 H   0  0  0  0  0  0  0  0  0  0  0  0
  156.5606  134.0044  158.9918 H   0  0  0  0  0  0  0  0  0  0  0  0
  155.5646  137.3173  158.5720 H   0  0  0  0  0  0  0  0  0  0  0  0
  155.3236  139.0362  160.3389 H   0  0  0  0  0  0  0  0  0  0  0  0
  153.5435  143.5326  158.6419 H   0  0  0  0  0  0  0  0  0  0  0  0
  152.1061  142.9012  157.8582 H   0  0  0  0  0  0  0  0  0  0  0  0
  151.8708  145.3418  158.4249 H   0  0  0  0  0  0  0  0  0  0  0  0
  150.6517  144.3611  159.2046 H   0  0  0  0  0  0  0  0  0  0  0  0
  153.2064  145.4312  160.5014 H   0  0  0  0  0  0  0  0  0  0  0  0
  151.5740  145.9553  160.8515 H   0  0  0  0  0  0  0  0  0  0  0  0
  152.4344  144.3269  162.5724 H   0  0  0  0  0  0  0  0  0  0  0  0
  151.0000  143.7340  161.7682 H   0  0  0  0  0  0  0  0  0  0  0  0
  152.6524  141.9141  161.8897 H   0  0  0  0  0  0  0  0  0  0  0  0
  153.8834  142.9195  161.1461 H   0  0  0  0  0  0  0  0  0  0  0  0
  150.6840  140.1517  156.9306 H   0  0  0  0  0  0  0  0  0  0  0  0
  151.2630  141.7935  157.2188 H   0  0  0  0  0  0  0  0  0  0  0  0
  150.2112  141.0045  158.4020 H   0  0  0  0  0  0  0  0  0  0  0  0
  152.3091  138.4785  157.2840 H   0  0  0  0  0  0  0  0  0  0  0  0
  1  2  1  0  0  0  0
  1 22  1  0  0  0  0
  1 23  1  0  0  0  0
  1 24  1  0  0  0  0
  2  3  1  0  0  0  0
  3  4  1  0  0  0  0
  3  5  1  0  0  0  0
  3  6  1  0  0  0  0
  4 25  1  0  0  0  0
  4 26  1  0  0  0  0
  4 27  1  0  0  0  0
  5 28  1  0  0  0  0
  5 29  1  0  0  0  0
  5 30  1  0  0  0  0
  6  7  2  0  0  0  0
  6  8  1  0  0  0  0
  8  9  1  0  0  0  0
  8 31  1  0  0  0  0
  9 21  1  0  0  0  0
  9 10  2  0  0  0  0
 10 11  1  0  0  0  0
 10 32  1  0  0  0  0
 11 12  2  0  0  0  0
 12 13  1  0  0  0  0
 12 19  1  0  0  0  0
 13 18  1  0  0  0  0
 13 14  1  0  0  0  0
 14 15  1  0  0  0  0
 14 33  1  0  0  0  0
 14 34  1  0  0  0  0
 15 16  1  0  0  0  0
 15 35  1  0  0  0  0
 15 36  1  0  0  0  0
 16 17  1  0  0  0  0
 16 37  1  0  0  0  0
 16 38  1  0  0  0  0
 17 18  1  0  0  0  0
 17 39  1  0  0  0  0
 17 40  1  0  0  0  0
 18 41  1  0  0  0  0
 18 42  1  0  0  0  0
 19 20  1  0  0  0  0
 19 21  2  0  0  0  0
 20 43  1  0  0  0  0
 20 44  1  0  0  0  0
 20 45  1  0  0  0  0
 21 46  1  0  0  0  0
M  END
> <s_m_source_file>
AV-unprocessed.smi

> <i_m_source_file_index>
2459

> <i_lp_mmshare_version>
43012

> <i_f3d_flags>
0

> <s_epik_input>
W0NIM11PQyhbQ0gzXSkoW0NIM10pQyg9TylbTkhdYzFbY0hdbmMoYyhbQ0gzXSlbY0hdMSlOMltDSDJdW0NIMl1bQ0gyXVtDSDJdW0NIMl0y

> <s_epik_cmdline>
J2VwaWtfcHl0aG9uJywgJy1waCcsICc3LjAnLCAnLXRuJywgJzgnLCAnLW1hJywgJzIwMCcsICctbWV0YWxfYmluZGluZycsICctaW1hZScsICc8aW5maWxlLm1hZT4nLCAnLW9tYWUnLCAnPG91dGZpbGUubWFlPic=

> <r_lp_tautomer_probability>
1

> <r_epik_Ionization_Penalty>
0.0966188

> <r_epik_Ionization_Penalty_Charging>
0

> <r_epik_Ionization_Penalty_Neutral>
0.0966188

> <r_epik_State_Penalty>
1.07001

> <r_epik_Charging_Adjusted_Penalty>
1.07001

> <i_epik_Tot_Q>
0

> <i_epik_Tot_abs_Q>
0

> <r_epik_Metal_State_Penalty>
1.00145

> <b_epik_Metal_Only>
0

> <s_lp_Force_Field>
OPLS_2005

> <r_lp_Energy>
29.1962

> <b_lp_Chiralities_Consistent>
1

> <s_lp_Variant>
AV-unprocessed.smi:2459-2

> <Gold.Version>
5.8.1

> <Gold.Id.Protein>
6NUR|6NUR_protein|mol2

> <Gold.PLP.Fitness>
37.5342

> <Gold.PLP.PLP>
-35.2636

> <Gold.PLP.part.hbond>
-2.0000

> <Gold.PLP.part.metal>
0.0000

> <Gold.PLP.part.buried>
-5.9529

> <Gold.PLP.part.nonpolar>
-27.0647

> <Gold.PLP.part.repulsive>
0.0970

> <Gold.PLP.ligand.clash>
0.0000

> <Gold.PLP.ligand.torsion>
0.6588

> <Gold.PLP.Chemscore.Hbond>
1.1278

> <Gold.PLP.Chemscore.CHOScore>
0.0000

> <Gold.PLP.Chemscore.Metal>
0.0000

> <Gold.Chemscore.Hbonds>
donor molecule, donor type, donor heavy atom, donor atom, acceptor molecule, acceptor atom, score
      P1  H 10752 10765       L1     2  0.67

> <Gold.PLP.Chemscore.Internal.Correction>
0.2050

> <Gold.Rescore>
     Score         DG    S(hbond)    S(metal)    S(lipo)     H(rot)  DE(clash)    DE(int)     intcor
     15.61     -17.29       1.32        0.00      92.13       1.32       0.05       1.63       ----

> <Gold.Chemscore.Fitness>
15.6057

> <Gold.Chemscore.DG>
-17.2899

> <Gold.Chemscore.ZeroCoef>
-5.4800

> <Gold.Chemscore.Hbond>
1.3196

> <Gold.Chemscore.Metal>
0.0000

> <Gold.Chemscore.Lipo>
92.1264

> <Gold.Chemscore.Internal_Hbond>
0.0000

> <Gold.Chemscore.DEClash>
0.0550

> <Gold.Chemscore.DEInternal>
1.6291

> <Gold.Chemscore.Rot>
1.3189

> <Gold.Chemscore.Internal.Correction>
   9.000000E+99

> <Gold.Chemscore.Hbonds>
donor molecule, donor type, donor heavy atom, donor atom, acceptor molecule, acceptor atom, score
      P1  H 10752 10765       L1     2  0.13

> <Gold.Chemscore.Hbond.Weighted>
-4.4075

> <Gold.Chemscore.Metal.Weighted>
-0.0000

> <Gold.Chemscore.Lipo.Weighted>
-10.7788

> <Gold.Chemscore.Internal_Hbond.Weighted>
0.0000

> <Gold.Chemscore.DEClash.Weighted>
0.0550

> <Gold.Chemscore.DEInternal.Weighted>
1.6291

> <Gold.Chemscore.Rot.Weighted>
3.3764

> <Gold.Chemscore.Internal.Correction.Weighted>
   9.000000E+99

> <Gold.Protein.RotatedTorsions>
[ 6907 6896 6895 6894 ] final  -77.87 input  -60.11 | X-H torsion
[ 7974 7965 7964 7962 ] final  -44.29 input  175.53 | X-H torsion
[ 8008 7997 7996 7995 ] final  137.25 input   59.86 | X-H torsion
[ 10167 10162 10161 10158 ] final   -7.63 input  -65.29 | X-H torsion
[ 10718 10713 10712 10709 ] final   32.39 input   66.30 | X-H torsion
[ 10763 10752 10751 10750 ] final  -42.93 input  -60.55 | X-H torsion
[ 11005 11000 10999 10996 ] final  160.34 input  -57.11 | X-H torsion

> <Gold.Protein.ActiveResidues>
 VAL166  LYS551  ARG553  GLY616  TRP617  ASP618  TYR619  PRO620  LYS621  CYS622 
 ASP623  PHE694  ASN695  SER759  ASP760  ASP761  ALA762  ILE779  LEU786  VAL792 
 PHE793  MET794  SER795  GLU796  ALA797  LYS798  CYS799  TRP800  GLU811  SER814 

> <Gold.Protein.RotatedAtoms>
  150.6987  134.4357  159.5268 H   0  0  0  0  0  0  0  0  0  0  0  0  # atno 6907 bound_to 6896
  152.2076  134.8528  160.0510 H   0  0  0  0  0  0  0  0  0  0  0  0  # atno 6908 bound_to 6896
  151.9425  133.3607  159.4007 H   0  0  0  0  0  0  0  0  0  0  0  0  # atno 6909 bound_to 6896
  145.9935  140.7154  142.9305 H   0  0  0  0  0  0  0  0  0  0  0  0  # atno 7974 bound_to 7965
  156.3002  140.2424  156.3878 H   0  0  0  0  0  0  0  0  0  0  0  0  # atno 8008 bound_to 7997
  154.8641  140.0419  157.1704 H   0  0  0  0  0  0  0  0  0  0  0  0  # atno 8009 bound_to 7997
  154.8864  140.2957  155.5399 H   0  0  0  0  0  0  0  0  0  0  0  0  # atno 8010 bound_to 7997
  140.7035  143.6059  150.8752 H   0  0  0  0  0  0  0  0  0  0  0  0  # atno 10167 bound_to 10162
  157.2846  130.7272  149.6575 H   0  0  0  0  0  0  0  0  0  0  0  0  # atno 10718 bound_to 10713
  153.9872  135.6710  153.4752 H   0  0  0  0  0  0  0  0  0  0  0  0  # atno 10763 bound_to 10752
  153.0721  135.4968  154.8324 H   0  0  0  0  0  0  0  0  0  0  0  0  # atno 10764 bound_to 10752
  154.7130  135.3101  154.9129 H   0  0  0  0  0  0  0  0  0  0  0  0  # atno 10765 bound_to 10752
  140.2050  134.8310  157.3059 H   0  0  0  0  0  0  0  0  0  0  0  0  # atno 11005 bound_to 11000
  144.6896  140.3111  143.7248 LP  0  0  0  0  0  0  0  0  0  0  0  0  # atno 17320 bound_to 7965
  145.7594  139.1820  143.2276 LP  0  0  0  0  0  0  0  0  0  0  0  0  # atno 17321 bound_to 7965
  139.9782  143.5980  152.2951 LP  0  0  0  0  0  0  0  0  0  0  0  0  # atno 17342 bound_to 10162
  139.6592  144.7662  151.1996 LP  0  0  0  0  0  0  0  0  0  0  0  0  # atno 17343 bound_to 10162
  155.9665  130.4327  150.4977 LP  0  0  0  0  0  0  0  0  0  0  0  0  # atno 17370 bound_to 10713
  157.2927  131.0629  151.2122 LP  0  0  0  0  0  0  0  0  0  0  0  0  # atno 17371 bound_to 10713
  140.2013  134.4251  155.7661 LP  0  0  0  0  0  0  0  0  0  0  0  0  # atno 17394 bound_to 11000
  141.2227  133.7073  156.8188 LP  0  0  0  0  0  0  0  0  0  0  0  0  # atno 17395 bound_to 11000

$$$$
