AV-unprocessed.smi:3329|AV-procd|sdf|12800|dock9
  -GOLD-   2272019163D 1   1.00000     0.00000
 Structure written by MMmdl.
 41 42  0  0  0  0  0  0  0  0  3 V2000
  151.8205  145.5522  160.1900 C   0  0  0  0  0  0  0  0  0  0  0  0
  152.1168  144.0983  159.9603 C   0  0  0  0  0  0  0  0  0  0  0  0
  152.5891  143.1448  160.9063 C   0  0  0  0  0  0  0  0  0  0  0  0
  152.7514  141.9396  160.3851 N   0  0  0  0  0  0  0  0  0  0  0  0
  152.3882  142.0793  159.0930 N   0  0  0  0  0  0  0  0  0  0  0  0
  152.4285  140.9310  158.2049 C   0  0  0  0  0  0  0  0  0  0  0  0
  152.2421  139.6071  158.9641 C   0  0  0  0  0  0  0  0  0  0  0  0
  150.9605  138.9703  158.6074 N   0  3  0  0  0  0  0  0  0  0  0  0
  150.7760  137.6053  159.1374 C   0  0  0  0  0  0  0  0  0  0  0  0
  149.3476  137.1447  158.8421 C   0  0  0  0  0  0  0  0  0  0  0  0
  148.6087  137.8644  158.1724 O   0  0  0  0  0  0  0  0  0  0  0  0
  149.0849  135.9387  159.4068 N   0  5  0  0  0  0  0  0  0  0  0  0
  147.8076  135.6040  160.0361 C   0  0  2  0  0  0  0  0  0  0  0  0
  147.1563  134.4153  159.3021 C   0  0  0  0  0  0  0  0  0  0  0  0
  146.8928  136.7671  160.0298 C   0  0  0  0  0  0  0  0  0  0  0  0
  146.1770  137.6773  160.0254 N   0  0  0  0  0  0  0  0  0  0  0  0
  148.1234  135.1957  161.4741 C   0  0  0  0  0  0  0  0  0  0  0  0
  147.0766  134.6047  162.3929 C   0  0  0  0  0  0  0  0  0  0  0  0
  147.6357  135.9812  162.6720 C   0  0  0  0  0  0  0  0  0  0  0  0
  152.0029  143.3728  158.8084 C   0  0  0  0  0  0  0  0  0  0  0  0
  152.7345  146.1348  160.3044 H   0  0  0  0  0  0  0  0  0  0  0  0
  151.2273  145.7037  161.0919 H   0  0  0  0  0  0  0  0  0  0  0  0
  151.2619  145.9891  159.3619 H   0  0  0  0  0  0  0  0  0  0  0  0
  152.8170  143.2928  161.9518 H   0  0  0  0  0  0  0  0  0  0  0  0
  151.6546  141.0472  157.4448 H   0  0  0  0  0  0  0  0  0  0  0  0
  153.3855  140.9327  157.6815 H   0  0  0  0  0  0  0  0  0  0  0  0
  153.0568  138.9220  158.7279 H   0  0  0  0  0  0  0  0  0  0  0  0
  152.2752  139.7853  160.0399 H   0  0  0  0  0  0  0  0  0  0  0  0
  150.2099  139.5320  158.9853 H   0  0  0  0  0  0  0  0  0  0  0  0
  151.4970  136.9294  158.6757 H   0  0  0  0  0  0  0  0  0  0  0  0
  150.9495  137.5886  160.2147 H   0  0  0  0  0  0  0  0  0  0  0  0
  146.2406  134.1036  159.8057 H   0  0  0  0  0  0  0  0  0  0  0  0
  147.8215  133.5515  159.2687 H   0  0  0  0  0  0  0  0  0  0  0  0
  146.8874  134.6672  158.2761 H   0  0  0  0  0  0  0  0  0  0  0  0
  149.1180  134.7646  161.5824 H   0  0  0  0  0  0  0  0  0  0  0  0
  146.0513  134.5420  162.0343 H   0  0  0  0  0  0  0  0  0  0  0  0
  147.3877  133.7948  163.0495 H   0  0  0  0  0  0  0  0  0  0  0  0
  148.3204  136.0834  163.5109 H   0  0  0  0  0  0  0  0  0  0  0  0
  146.9869  136.8369  162.4980 H   0  0  0  0  0  0  0  0  0  0  0  0
  151.6778  143.6671  157.8213 H   0  0  0  0  0  0  0  0  0  0  0  0
  150.8633  138.9434  157.6029 H   0  0  0  0  0  0  0  0  0  0  0  0
  1  2  1  0  0  0  0
  1 21  1  0  0  0  0
  1 22  1  0  0  0  0
  1 23  1  0  0  0  0
  2 20  2  0  0  0  0
  2  3  1  0  0  0  0
  3  4  2  0  0  0  0
  3 24  1  0  0  0  0
  4  5  1  0  0  0  0
  5  6  1  0  0  0  0
  5 20  1  0  0  0  0
  6  7  1  0  0  0  0
  6 25  1  0  0  0  0
  6 26  1  0  0  0  0
  7  8  1  0  0  0  0
  7 27  1  0  0  0  0
  7 28  1  0  0  0  0
  8  9  1  0  0  0  0
  8 29  1  0  0  0  0
  8 41  1  0  0  0  0
  9 10  1  0  0  0  0
  9 30  1  0  0  0  0
  9 31  1  0  0  0  0
 10 11  2  0  0  0  0
 10 12  1  0  0  0  0
 12 13  1  0  0  0  0
 13 14  1  0  0  0  0
 13 15  1  0  0  0  0
 13 17  1  0  0  0  0
 14 32  1  0  0  0  0
 14 33  1  0  0  0  0
 14 34  1  0  0  0  0
 15 16  3  0  0  0  0
 17 19  1  0  0  0  0
 17 18  1  0  0  0  0
 17 35  1  0  0  0  0
 18 19  1  0  0  0  0
 18 36  1  0  0  0  0
 18 37  1  0  0  0  0
 19 38  1  0  0  0  0
 19 39  1  0  0  0  0
 20 40  1  0  0  0  0
M  CHG  1   8   1
M  CHG  1  12  -1
M  END
> <s_m_source_file>
AV-unprocessed.smi

> <i_m_source_file_index>
3329

> <i_lp_mmshare_version>
43012

> <i_f3d_flags>
0

> <s_epik_input>
W0NIM11jMVtjSF1ubihbY0hdMSlbQ0gyXVtDSDJdW05IXVtDSDJdQyg9TylbTkhdW0NAQF0oW0NIM10pKEMjTilbQ0hdMltDSDJdW0NIMl0y

> <s_epik_cmdline>
J2VwaWtfcHl0aG9uJywgJy1waCcsICc3LjAnLCAnLXRuJywgJzgnLCAnLW1hJywgJzIwMCcsICctbWV0YWxfYmluZGluZycsICctaW1hZScsICc8aW5maWxlLm1hZT4nLCAnLW9tYWUnLCAnPG91dGZpbGUubWFlPic=

> <r_lp_tautomer_probability>
1

> <r_epik_Ionization_Penalty>
5.61187

> <r_epik_Ionization_Penalty_Charging>
5.61186

> <r_epik_Ionization_Penalty_Neutral>
4.91277e-06

> <r_epik_State_Penalty>
5.94522

> <r_epik_Charging_Adjusted_Penalty>
11.5571

> <i_epik_Tot_Q>
0

> <i_epik_Tot_abs_Q>
2

> <r_epik_Metal_State_Penalty>
1.9215

> <b_epik_Metal_Only>
1

> <s_lp_Force_Field>
OPLS_2005

> <r_lp_Energy>
5.18635

> <b_lp_Chiralities_Consistent>
1

> <s_lp_Variant>
AV-unprocessed.smi:3329-6

> <Gold.Version>
5.8.1

> <Gold.Id.Protein>
6NUR|6NUR_protein|mol2

> <Gold.PLP.Fitness>
48.4673

> <Gold.PLP.PLP>
-42.2403

> <Gold.PLP.part.hbond>
-2.0000

> <Gold.PLP.part.metal>
0.0000

> <Gold.PLP.part.buried>
-6.2083

> <Gold.PLP.part.nonpolar>
-34.4689

> <Gold.PLP.part.repulsive>
0.1411

> <Gold.PLP.ligand.clash>
0.0000

> <Gold.PLP.ligand.torsion>
2.2421

> <Gold.PLP.Chemscore.Hbond>
3.0000

> <Gold.PLP.Chemscore.CHOScore>
0.0000

> <Gold.PLP.Chemscore.Metal>
0.0000

> <Gold.Chemscore.Hbonds>
donor molecule, donor type, donor heavy atom, donor atom, acceptor molecule, acceptor atom, score
      P1  H  6896  6909       L1    12  1.89
      P1  H  6934  6947       L1    16  1.00

> <Gold.PLP.Chemscore.Internal.Correction>
1.7113

> <Gold.Rescore>
     Score         DG    S(hbond)    S(metal)    S(lipo)     H(rot)  DE(clash)    DE(int)     intcor
     12.47     -17.81       1.81        0.00     104.27       2.31       1.51       3.83       ----

> <Gold.Chemscore.Fitness>
12.4718

> <Gold.Chemscore.DG>
-17.8149

> <Gold.Chemscore.ZeroCoef>
-5.4800

> <Gold.Chemscore.Hbond>
1.8141

> <Gold.Chemscore.Metal>
0.0000

> <Gold.Chemscore.Lipo>
104.2697

> <Gold.Chemscore.Internal_Hbond>
0.0000

> <Gold.Chemscore.DEClash>
1.5086

> <Gold.Chemscore.DEInternal>
3.8345

> <Gold.Chemscore.Rot>
2.3140

> <Gold.Chemscore.Internal.Correction>
   9.000000E+99

> <Gold.Chemscore.Hbonds>
donor molecule, donor type, donor heavy atom, donor atom, acceptor molecule, acceptor atom, score
      P1  H  6896  6909       L1    12  0.78
      P1  H  6934  6947       L1    16  0.44

> <Gold.Chemscore.Hbond.Weighted>
-6.0591

> <Gold.Chemscore.Metal.Weighted>
-0.0000

> <Gold.Chemscore.Lipo.Weighted>
-12.1996

> <Gold.Chemscore.Internal_Hbond.Weighted>
0.0000

> <Gold.Chemscore.DEClash.Weighted>
1.5086

> <Gold.Chemscore.DEInternal.Weighted>
3.8345

> <Gold.Chemscore.Rot.Weighted>
5.9238

> <Gold.Chemscore.Internal.Correction.Weighted>
   9.000000E+99

> <Gold.Protein.RotatedTorsions>
[ 6907 6896 6895 6894 ] final   62.08 input  -60.11 | X-H torsion
[ 7974 7965 7964 7962 ] final  -15.38 input  175.53 | X-H torsion
[ 8008 7997 7996 7995 ] final    6.96 input   59.86 | X-H torsion
[ 10167 10162 10161 10158 ] final -157.23 input  -65.29 | X-H torsion
[ 10718 10713 10712 10709 ] final    2.28 input   66.30 | X-H torsion
[ 10763 10752 10751 10750 ] final  -68.22 input  -60.55 | X-H torsion
[ 11005 11000 10999 10996 ] final -160.23 input  -57.11 | X-H torsion

> <Gold.Protein.ActiveResidues>
 VAL166  LYS551  ARG553  GLY616  TRP617  ASP618  TYR619  PRO620  LYS621  CYS622 
 ASP623  PHE694  ASN695  SER759  ASP760  ASP761  ALA762  ILE779  LEU786  VAL792 
 PHE793  MET794  SER795  GLU796  ALA797  LYS798  CYS799  TRP800  GLU811  SER814 

> <Gold.Protein.RotatedAtoms>
  152.4143  134.6069  160.0015 H   0  0  0  0  0  0  0  0  0  0  0  0  # atno 6907 bound_to 6896
  151.6238  133.3331  159.3101 H   0  0  0  0  0  0  0  0  0  0  0  0  # atno 6908 bound_to 6896
  150.8032  134.7179  159.6686 H   0  0  0  0  0  0  0  0  0  0  0  0  # atno 6909 bound_to 6896
  146.2034  140.3484  142.8415 H   0  0  0  0  0  0  0  0  0  0  0  0  # atno 7974 bound_to 7965
  154.7476  140.2761  155.6319 H   0  0  0  0  0  0  0  0  0  0  0  0  # atno 8008 bound_to 7997
  156.2888  140.2684  156.2147 H   0  0  0  0  0  0  0  0  0  0  0  0  # atno 8009 bound_to 7997
  155.0177  140.0371  157.2415 H   0  0  0  0  0  0  0  0  0  0  0  0  # atno 8010 bound_to 7997
  139.6787  143.9618  152.2325 H   0  0  0  0  0  0  0  0  0  0  0  0  # atno 10167 bound_to 10162
  156.8607  130.5586  149.5663 H   0  0  0  0  0  0  0  0  0  0  0  0  # atno 10718 bound_to 10713
  154.3859  135.6063  153.5816 H   0  0  0  0  0  0  0  0  0  0  0  0  # atno 10763 bound_to 10752
  152.9787  135.5872  154.4355 H   0  0  0  0  0  0  0  0  0  0  0  0  # atno 10764 bound_to 10752
  154.4132  135.2844  155.2001 H   0  0  0  0  0  0  0  0  0  0  0  0  # atno 10765 bound_to 10752
  140.6338  134.4623  157.5231 H   0  0  0  0  0  0  0  0  0  0  0  0  # atno 11005 bound_to 11000
  144.8736  140.7306  143.6031 LP  0  0  0  0  0  0  0  0  0  0  0  0  # atno 17320 bound_to 7965
  145.3404  139.1734  143.4489 LP  0  0  0  0  0  0  0  0  0  0  0  0  # atno 17321 bound_to 7965
  139.9402  144.6686  150.8274 LP  0  0  0  0  0  0  0  0  0  0  0  0  # atno 17342 bound_to 10162
  140.7645  143.3249  151.2538 LP  0  0  0  0  0  0  0  0  0  0  0  0  # atno 17343 bound_to 10162
  156.0778  130.5796  150.9506 LP  0  0  0  0  0  0  0  0  0  0  0  0  # atno 17370 bound_to 10713
  157.6251  131.0926  150.8548 LP  0  0  0  0  0  0  0  0  0  0  0  0  # atno 17371 bound_to 10713
  139.9106  134.8353  156.1543 LP  0  0  0  0  0  0  0  0  0  0  0  0  # atno 17394 bound_to 11000
  141.0656  133.6820  156.2039 LP  0  0  0  0  0  0  0  0  0  0  0  0  # atno 17395 bound_to 11000

$$$$
