AV-unprocessed.smi:567|AV-procd|sdf|2956|dock4
  -GOLD-   2262023463D 1   1.00000     0.00000
 Structure written by MMmdl.
 53 54  0  0  0  0  0  0  0  0  2 V2000
  148.6483  126.3737  151.2396 C   0  0  0  0  0  0  0  0  0  0  0  0
  147.6800  127.0817  151.9926 O   0  0  0  0  0  0  0  0  0  0  0  0
  147.0256  128.0861  151.2323 C   0  0  0  0  0  0  0  0  0  0  0  0
  145.9330  128.7462  152.0882 C   0  0  0  0  0  0  0  0  0  0  0  0
  146.3282  130.0879  152.5315 N   0  0  0  0  0  0  0  0  0  0  0  0
  145.7497  131.1068  151.7973 N   0  0  0  0  0  0  0  0  0  0  0  0
  146.0084  132.3424  152.0783 C   0  0  0  0  0  0  0  0  0  0  0  0
  145.4143  133.4556  151.2908 C   0  0  0  0  0  0  0  0  0  0  0  0
  145.0233  133.3050  150.1327 O   0  0  0  0  0  0  0  0  0  0  0  0
  145.3551  134.6307  151.9409 N   0  0  0  0  0  0  0  0  0  0  0  0
  144.9085  135.9059  151.3944 C   0  0  0  0  0  0  0  0  0  0  0  0
  145.9000  137.0478  151.6769 C   0  0  0  0  0  0  0  0  0  0  0  0
  145.9037  137.5677  153.1381 C   0  0  0  0  0  0  0  0  0  0  0  0
  146.7055  136.6527  154.0916 C   0  0  0  0  0  0  0  0  0  0  0  0
  146.6110  138.9370  153.1503 C   0  0  0  0  0  0  0  0  0  0  0  0
  144.5167  137.7960  153.6348 N   0  3  0  0  0  0  0  0  0  0  0  0
  143.4517  136.7871  153.3682 C   0  0  0  0  0  0  0  0  0  0  0  0
  143.4888  135.6331  154.3967 C   0  0  0  0  0  0  0  0  0  0  0  0
  142.1029  137.5055  153.5674 C   0  0  0  0  0  0  0  0  0  0  0  0
  143.5077  136.2812  151.9028 C   0  0  0  0  0  0  0  0  0  0  0  0
  146.8914  132.6868  153.1783 C   0  0  0  0  0  0  0  0  0  0  0  0
  147.4671  131.6808  153.8736 C   0  0  0  0  0  0  0  0  0  0  0  0
  147.2160  130.2733  153.5547 C   0  0  0  0  0  0  0  0  0  0  0  0
  147.7560  129.3421  154.1509 O   0  0  0  0  0  0  0  0  0  0  0  0
  149.1233  125.6218  151.8697 H   0  0  0  0  0  0  0  0  0  0  0  0
  149.4260  127.0423  150.8681 H   0  0  0  0  0  0  0  0  0  0  0  0
  148.1904  125.8628  150.3918 H   0  0  0  0  0  0  0  0  0  0  0  0
  147.7544  128.8393  150.9297 H   0  0  0  0  0  0  0  0  0  0  0  0
  146.5961  127.6649  150.3219 H   0  0  0  0  0  0  0  0  0  0  0  0
  145.0018  128.8007  151.5214 H   0  0  0  0  0  0  0  0  0  0  0  0
  145.7072  128.1085  152.9443 H   0  0  0  0  0  0  0  0  0  0  0  0
  145.6849  134.6421  152.8956 H   0  0  0  0  0  0  0  0  0  0  0  0
  144.8345  135.7834  150.3123 H   0  0  0  0  0  0  0  0  0  0  0  0
  146.9079  136.7583  151.3747 H   0  0  0  0  0  0  0  0  0  0  0  0
  145.6289  137.8724  151.0154 H   0  0  0  0  0  0  0  0  0  0  0  0
  147.7545  136.6107  153.7963 H   0  0  0  0  0  0  0  0  0  0  0  0
  146.3596  135.6250  154.1135 H   0  0  0  0  0  0  0  0  0  0  0  0
  146.6738  137.0254  155.1159 H   0  0  0  0  0  0  0  0  0  0  0  0
  147.6336  138.8606  152.7781 H   0  0  0  0  0  0  0  0  0  0  0  0
  146.6602  139.3537  154.1573 H   0  0  0  0  0  0  0  0  0  0  0  0
  146.0909  139.6634  152.5245 H   0  0  0  0  0  0  0  0  0  0  0  0
  144.5486  137.9871  154.6260 H   0  0  0  0  0  0  0  0  0  0  0  0
  142.6171  134.9870  154.2862 H   0  0  0  0  0  0  0  0  0  0  0  0
  143.4774  136.0149  155.4181 H   0  0  0  0  0  0  0  0  0  0  0  0
  144.3540  134.9852  154.3064 H   0  0  0  0  0  0  0  0  0  0  0  0
  141.2625  136.8394  153.3668 H   0  0  0  0  0  0  0  0  0  0  0  0
  142.0031  138.3645  152.9024 H   0  0  0  0  0  0  0  0  0  0  0  0
  141.9920  137.8728  154.5887 H   0  0  0  0  0  0  0  0  0  0  0  0
  143.1353  137.0710  151.2479 H   0  0  0  0  0  0  0  0  0  0  0  0
  142.8205  135.4453  151.7629 H   0  0  0  0  0  0  0  0  0  0  0  0
  147.0929  133.7170  153.4337 H   0  0  0  0  0  0  0  0  0  0  0  0
  148.1303  131.9196  154.6922 H   0  0  0  0  0  0  0  0  0  0  0  0
  144.2054  138.6384  153.1724 H   0  0  0  0  0  0  0  0  0  0  0  0
  1  2  1  0  0  0  0
  1 25  1  0  0  0  0
  1 26  1  0  0  0  0
  1 27  1  0  0  0  0
  2  3  1  0  0  0  0
  3  4  1  0  0  0  0
  3 28  1  0  0  0  0
  3 29  1  0  0  0  0
  4  5  1  0  0  0  0
  4 30  1  0  0  0  0
  4 31  1  0  0  0  0
  5 23  1  0  0  0  0
  5  6  1  0  0  0  0
  6  7  2  0  0  0  0
  7  8  1  0  0  0  0
  7 21  1  0  0  0  0
  8  9  2  0  0  0  0
  8 10  1  0  0  0  0
 10 11  1  0  0  0  0
 10 32  1  0  0  0  0
 11 20  1  0  0  0  0
 11 12  1  0  0  0  0
 11 33  1  0  0  0  0
 12 13  1  0  0  0  0
 12 34  1  0  0  0  0
 12 35  1  0  0  0  0
 13 14  1  0  0  0  0
 13 15  1  0  0  0  0
 13 16  1  0  0  0  0
 14 36  1  0  0  0  0
 14 37  1  0  0  0  0
 14 38  1  0  0  0  0
 15 39  1  0  0  0  0
 15 40  1  0  0  0  0
 15 41  1  0  0  0  0
 16 17  1  0  0  0  0
 16 42  1  0  0  0  0
 16 53  1  0  0  0  0
 17 18  1  0  0  0  0
 17 19  1  0  0  0  0
 17 20  1  0  0  0  0
 18 43  1  0  0  0  0
 18 44  1  0  0  0  0
 18 45  1  0  0  0  0
 19 46  1  0  0  0  0
 19 47  1  0  0  0  0
 19 48  1  0  0  0  0
 20 49  1  0  0  0  0
 20 50  1  0  0  0  0
 21 22  2  0  0  0  0
 21 51  1  0  0  0  0
 22 23  1  0  0  0  0
 22 52  1  0  0  0  0
 23 24  2  0  0  0  0
M  CHG  1  16   1
M  END
> <s_m_source_file>
AV-unprocessed.smi

> <i_m_source_file_index>
567

> <i_lp_mmshare_version>
43012

> <i_f3d_flags>
0

> <s_epik_input>
W0NIM11PW0NIMl1bQ0gyXW4xbmMoW2NIXVtjSF1jMT1PKUMoPU8pW05IXVtDSF0oW0NIMl1DMihbQ0gzXSlbQ0gzXSlbQ0gyXUMoW05IXTIpKFtDSDNdKVtDSDNd

> <s_epik_cmdline>
J2VwaWtfcHl0aG9uJywgJy1waCcsICc3LjAnLCAnLXRuJywgJzgnLCAnLW1hJywgJzIwMCcsICctbWV0YWxfYmluZGluZycsICctaW1hZScsICc8aW5maWxlLm1hZT4nLCAnLW9tYWUnLCAnPG91dGZpbGUubWFlPic=

> <r_lp_tautomer_probability>
1

> <r_epik_Ionization_Penalty>
0.000138804

> <r_epik_Ionization_Penalty_Charging>
0.000136152

> <r_epik_Ionization_Penalty_Neutral>
2.65225e-06

> <r_epik_State_Penalty>
-0

> <r_epik_Charging_Adjusted_Penalty>
0.000136152

> <i_epik_Tot_Q>
1

> <i_epik_Tot_abs_Q>
1

> <r_epik_Metal_State_Penalty>
-0

> <b_epik_Metal_Only>
0

> <s_lp_Force_Field>
OPLS_2005

> <r_lp_Energy>
46.3617

> <b_lp_Chiralities_Consistent>
1

> <s_lp_Variant>
AV-unprocessed.smi:567-1

> <Gold.Version>
5.8.1

> <Gold.Id.Protein>
6NUR|6NUR_protein|mol2

> <Gold.PLP.Fitness>
40.1486

> <Gold.PLP.PLP>
-35.9809

> <Gold.PLP.part.hbond>
-0.9770

> <Gold.PLP.part.metal>
0.0000

> <Gold.PLP.part.buried>
-3.7913

> <Gold.PLP.part.nonpolar>
-32.1170

> <Gold.PLP.part.repulsive>
0.6650

> <Gold.PLP.ligand.clash>
0.0000

> <Gold.PLP.ligand.torsion>
0.9441

> <Gold.PLP.Chemscore.Hbond>
2.0000

> <Gold.PLP.Chemscore.CHOScore>
0.0000

> <Gold.PLP.Chemscore.Metal>
0.0000

> <Gold.Chemscore.Hbonds>
donor molecule, donor type, donor heavy atom, donor atom, acceptor molecule, acceptor atom, score
      L1  H    16    53       P1 10175  2.00

> <Gold.PLP.Chemscore.Internal.Correction>
0.0558

> <Gold.Rescore>
     Score         DG    S(hbond)    S(metal)    S(lipo)     H(rot)  DE(clash)    DE(int)     intcor
     12.91     -14.08       1.00        0.00      80.32       1.61       0.17       1.00       ----

> <Gold.Chemscore.Fitness>
12.9067

> <Gold.Chemscore.DG>
-14.0769

> <Gold.Chemscore.ZeroCoef>
-5.4800

> <Gold.Chemscore.Hbond>
0.9953

> <Gold.Chemscore.Metal>
0.0000

> <Gold.Chemscore.Lipo>
80.3179

> <Gold.Chemscore.Internal_Hbond>
0.0000

> <Gold.Chemscore.DEClash>
0.1702

> <Gold.Chemscore.DEInternal>
1.0000

> <Gold.Chemscore.Rot>
1.6112

> <Gold.Chemscore.Internal.Correction>
   9.000000E+99

> <Gold.Chemscore.Hbonds>
donor molecule, donor type, donor heavy atom, donor atom, acceptor molecule, acceptor atom, score
      L1  H    16    53       P1 10175  0.95

> <Gold.Chemscore.Hbond.Weighted>
-3.3244

> <Gold.Chemscore.Metal.Weighted>
-0.0000

> <Gold.Chemscore.Lipo.Weighted>
-9.3972

> <Gold.Chemscore.Internal_Hbond.Weighted>
0.0000

> <Gold.Chemscore.DEClash.Weighted>
0.1702

> <Gold.Chemscore.DEInternal.Weighted>
1.0000

> <Gold.Chemscore.Rot.Weighted>
4.1247

> <Gold.Chemscore.Internal.Correction.Weighted>
   9.000000E+99

> <Gold.Protein.RotatedTorsions>
[ 6907 6896 6895 6894 ] final -111.65 input  -60.11 | X-H torsion
[ 7974 7965 7964 7962 ] final   57.19 input  175.53 | X-H torsion
[ 8008 7997 7996 7995 ] final   19.12 input   59.86 | X-H torsion
[ 10167 10162 10161 10158 ] final  147.65 input  -65.29 | X-H torsion
[ 10718 10713 10712 10709 ] final   47.15 input   66.30 | X-H torsion
[ 10763 10752 10751 10750 ] final   78.14 input  -60.55 | X-H torsion
[ 11005 11000 10999 10996 ] final  105.19 input  -57.11 | X-H torsion

> <Gold.Protein.ActiveResidues>
 VAL166  LYS551  ARG553  GLY616  TRP617  ASP618  TYR619  PRO620  LYS621  CYS622 
 ASP623  PHE694  ASN695  SER759  ASP760  ASP761  ALA762  ILE779  LEU786  VAL792 
 PHE793  MET794  SER795  GLU796  ALA797  LYS798  CYS799  TRP800  GLU811  SER814 

> <Gold.Protein.RotatedAtoms>
  150.7705  133.9204  159.3396 H   0  0  0  0  0  0  0  0  0  0  0  0  # atno 6907 bound_to 6896
  151.7092  135.0914  160.0274 H   0  0  0  0  0  0  0  0  0  0  0  0  # atno 6908 bound_to 6896
  152.3720  133.6393  159.6130 H   0  0  0  0  0  0  0  0  0  0  0  0  # atno 6909 bound_to 6896
  145.9318  139.3814  143.0416 H   0  0  0  0  0  0  0  0  0  0  0  0  # atno 7974 bound_to 7965
  154.9160  140.3021  155.5241 H   0  0  0  0  0  0  0  0  0  0  0  0  # atno 8008 bound_to 7997
  156.3012  140.2380  156.4141 H   0  0  0  0  0  0  0  0  0  0  0  0  # atno 8009 bound_to 7997
  154.8377  140.0415  157.1509 H   0  0  0  0  0  0  0  0  0  0  0  0  # atno 8010 bound_to 7997
  139.4887  144.5739  151.7002 H   0  0  0  0  0  0  0  0  0  0  0  0  # atno 10167 bound_to 10162
  157.4556  130.8165  149.7833 H   0  0  0  0  0  0  0  0  0  0  0  0  # atno 10718 bound_to 10713
  153.0851  135.4888  154.8581 H   0  0  0  0  0  0  0  0  0  0  0  0  # atno 10763 bound_to 10752
  154.7201  135.3037  154.9064 H   0  0  0  0  0  0  0  0  0  0  0  0  # atno 10764 bound_to 10752
  153.9731  135.6799  153.4801 H   0  0  0  0  0  0  0  0  0  0  0  0  # atno 10765 bound_to 10752
  139.8799  134.9327  156.5476 H   0  0  0  0  0  0  0  0  0  0  0  0  # atno 11005 bound_to 11000
  145.8416  140.9577  143.0796 LP  0  0  0  0  0  0  0  0  0  0  0  0  # atno 17320 bound_to 7965
  144.6766  140.0292  143.7483 LP  0  0  0  0  0  0  0  0  0  0  0  0  # atno 17321 bound_to 7965
  140.5332  144.0697  150.6061 LP  0  0  0  0  0  0  0  0  0  0  0  0  # atno 17342 bound_to 10162
  140.3694  143.2863  152.0295 LP  0  0  0  0  0  0  0  0  0  0  0  0  # atno 17343 bound_to 10162
  156.0006  130.3882  150.2623 LP  0  0  0  0  0  0  0  0  0  0  0  0  # atno 17370 bound_to 10713
  157.0797  131.0140  151.3161 LP  0  0  0  0  0  0  0  0  0  0  0  0  # atno 17371 bound_to 10713
  140.8264  133.8313  155.8943 LP  0  0  0  0  0  0  0  0  0  0  0  0  # atno 17394 bound_to 11000
  140.9370  134.1949  157.4824 LP  0  0  0  0  0  0  0  0  0  0  0  0  # atno 17395 bound_to 11000

$$$$
