AV-unprocessed.smi:381|AV-procd|sdf|2462|dock5
  -GOLD-   2262022403D 1   1.00000     0.00000
 Structure written by MMmdl.
 46 47  0  0  0  0  0  0  0  0  2 V2000
  151.3382  140.5274  155.3206 O   0  0  0  0  0  0  0  0  0  0  0  0
  150.4104  140.5067  156.1271 C   0  0  0  0  0  0  0  0  0  0  0  0
  149.2451  139.8822  155.8924 N   0  0  0  0  0  0  0  0  0  0  0  0
  148.9403  139.1437  154.6753 C   0  0  0  0  0  0  0  0  0  0  0  0
  147.6676  139.6875  154.0130 C   0  0  0  0  0  0  0  0  0  0  0  0
  146.8681  138.5929  153.3331 C   0  0  0  0  0  0  0  0  0  0  0  0
  146.5447  137.4052  154.0262 C   0  0  0  0  0  0  0  0  0  0  0  0
  145.7909  136.4070  153.3743 C   0  0  0  0  0  0  0  0  0  0  0  0
  145.3789  136.6180  152.0427 C   0  0  0  0  0  0  0  0  0  0  0  0
  145.7080  137.7664  151.4110 N   0  3  0  0  0  0  0  0  0  0  0  0
  146.4267  138.7470  152.0010 C   0  0  0  0  0  0  0  0  0  0  0  0
  150.4978  141.1135  157.3247 N   0  0  0  0  0  0  0  0  0  0  0  0
  151.6154  141.8747  157.8915 C   0  0  0  0  0  0  0  0  0  0  0  0
  151.9636  141.2643  159.2692 C   0  0  0  0  0  0  0  0  0  0  0  0
  153.0242  142.0090  160.1015 C   0  0  0  0  0  0  0  0  0  0  0  0
  152.4672  143.0188  161.1308 C   0  0  0  0  0  0  0  0  0  0  0  0
  152.2635  144.4536  160.6095 C   0  0  0  0  0  0  0  0  0  0  0  0
  150.8678  144.7870  160.0407 C   0  0  0  0  0  0  0  0  0  0  0  0
  150.2909  143.8185  158.9925 C   0  0  0  0  0  0  0  0  0  0  0  0
  151.2894  143.3859  157.9010 C   0  0  0  0  0  0  0  0  0  0  0  0
  148.5336  139.9119  156.6081 H   0  0  0  0  0  0  0  0  0  0  0  0
  149.7803  139.2153  153.9822 H   0  0  0  0  0  0  0  0  0  0  0  0
  148.8153  138.0886  154.9233 H   0  0  0  0  0  0  0  0  0  0  0  0
  147.0408  140.1826  154.7562 H   0  0  0  0  0  0  0  0  0  0  0  0
  147.9253  140.4462  153.2726 H   0  0  0  0  0  0  0  0  0  0  0  0
  146.8664  137.2616  155.0477 H   0  0  0  0  0  0  0  0  0  0  0  0
  145.5314  135.4937  153.8896 H   0  0  0  0  0  0  0  0  0  0  0  0
  144.7995  135.9098  151.4689 H   0  0  0  0  0  0  0  0  0  0  0  0
  146.6225  139.6188  151.3938 H   0  0  0  0  0  0  0  0  0  0  0  0
  149.6833  141.0399  157.9174 H   0  0  0  0  0  0  0  0  0  0  0  0
  152.4926  141.7335  157.2580 H   0  0  0  0  0  0  0  0  0  0  0  0
  151.0675  141.1118  159.8714 H   0  0  0  0  0  0  0  0  0  0  0  0
  152.3394  140.2570  159.0831 H   0  0  0  0  0  0  0  0  0  0  0  0
  153.5616  141.2501  160.6717 H   0  0  0  0  0  0  0  0  0  0  0  0
  153.7778  142.4672  159.4603 H   0  0  0  0  0  0  0  0  0  0  0  0
  151.5601  142.6437  161.6057 H   0  0  0  0  0  0  0  0  0  0  0  0
  153.2023  143.0808  161.9344 H   0  0  0  0  0  0  0  0  0  0  0  0
  152.4330  145.1383  161.4413 H   0  0  0  0  0  0  0  0  0  0  0  0
  153.0447  144.7024  159.8914 H   0  0  0  0  0  0  0  0  0  0  0  0
  150.1565  144.8611  160.8643 H   0  0  0  0  0  0  0  0  0  0  0  0
  150.9134  145.7857  159.6050 H   0  0  0  0  0  0  0  0  0  0  0  0
  149.8629  142.9534  159.4966 H   0  0  0  0  0  0  0  0  0  0  0  0
  149.4372  144.3017  158.5162 H   0  0  0  0  0  0  0  0  0  0  0  0
  152.2163  143.9513  157.9758 H   0  0  0  0  0  0  0  0  0  0  0  0
  150.8892  143.6751  156.9287 H   0  0  0  0  0  0  0  0  0  0  0  0
  145.3990  137.8996  150.4479 H   0  0  0  0  0  0  0  0  0  0  0  0
  1  2  2  0  0  0  0
  2  3  1  0  0  0  0
  2 12  1  0  0  0  0
  3  4  1  0  0  0  0
  3 21  1  0  0  0  0
  4  5  1  0  0  0  0
  4 22  1  0  0  0  0
  4 23  1  0  0  0  0
  5  6  1  0  0  0  0
  5 24  1  0  0  0  0
  5 25  1  0  0  0  0
  6 11  1  0  0  0  0
  6  7  2  0  0  0  0
  7  8  1  0  0  0  0
  7 26  1  0  0  0  0
  8  9  2  0  0  0  0
  8 27  1  0  0  0  0
  9 10  1  0  0  0  0
  9 28  1  0  0  0  0
 10 11  2  0  0  0  0
 10 46  1  0  0  0  0
 11 29  1  0  0  0  0
 12 13  1  0  0  0  0
 12 30  1  0  0  0  0
 13 20  1  0  0  0  0
 13 14  1  0  0  0  0
 13 31  1  0  0  0  0
 14 15  1  0  0  0  0
 14 32  1  0  0  0  0
 14 33  1  0  0  0  0
 15 16  1  0  0  0  0
 15 34  1  0  0  0  0
 15 35  1  0  0  0  0
 16 17  1  0  0  0  0
 16 36  1  0  0  0  0
 16 37  1  0  0  0  0
 17 18  1  0  0  0  0
 17 38  1  0  0  0  0
 17 39  1  0  0  0  0
 18 19  1  0  0  0  0
 18 40  1  0  0  0  0
 18 41  1  0  0  0  0
 19 20  1  0  0  0  0
 19 42  1  0  0  0  0
 19 43  1  0  0  0  0
 20 44  1  0  0  0  0
 20 45  1  0  0  0  0
M  CHG  1  10   1
M  END
> <s_m_source_file>
AV-unprocessed.smi

> <i_m_source_file_index>
381

> <i_lp_mmshare_version>
43012

> <i_f3d_flags>
0

> <s_epik_input>
W0NIMl0xW0NIMl1bQ0gyXVtDSDJdW0NIMl1bQ0gyXVtDSDJdW0NIXTFbTkhdQyg9TylbTkhdW0NIMl1bQ0gyXWMyW2NIXVtjSF1bY0hdbltjSF0y

> <s_epik_cmdline>
J2VwaWtfcHl0aG9uJywgJy1waCcsICc3LjAnLCAnLXRuJywgJzgnLCAnLW1hJywgJzIwMCcsICctbWV0YWxfYmluZGluZycsICctaW1hZScsICc8aW5maWxlLm1hZT4nLCAnLW9tYWUnLCAnPG91dGZpbGUubWFlPic=

> <r_epik_Ionization_Penalty>
2.21063

> <r_epik_Ionization_Penalty_Charging>
2.21057

> <r_epik_Ionization_Penalty_Neutral>
5.85974e-05

> <r_epik_State_Penalty>
2.35476

> <r_epik_Charging_Adjusted_Penalty>
4.56533

> <i_epik_Tot_Q>
1

> <i_epik_Tot_abs_Q>
1

> <r_epik_Metal_State_Penalty>
2.36886

> <b_epik_Metal_Only>
0

> <s_lp_Force_Field>
OPLS_2005

> <r_lp_Energy>
36.9097

> <b_lp_Chiralities_Consistent>
1

> <s_lp_Variant>
AV-unprocessed.smi:381-2

> <Gold.Version>
5.8.1

> <Gold.Id.Protein>
6NUR|6NUR_protein|mol2

> <Gold.PLP.Fitness>
44.5135

> <Gold.PLP.PLP>
-41.8751

> <Gold.PLP.part.hbond>
-2.0000

> <Gold.PLP.part.metal>
0.0000

> <Gold.PLP.part.buried>
-4.6052

> <Gold.PLP.part.nonpolar>
-35.9574

> <Gold.PLP.part.repulsive>
0.1825

> <Gold.PLP.ligand.clash>
0.0000

> <Gold.PLP.ligand.torsion>
0.4205

> <Gold.PLP.Chemscore.Hbond>
1.1495

> <Gold.PLP.Chemscore.CHOScore>
0.0000

> <Gold.PLP.Chemscore.Metal>
0.0000

> <Gold.Chemscore.Hbonds>
donor molecule, donor type, donor heavy atom, donor atom, acceptor molecule, acceptor atom, score
      L1  H    10    46       P1 10171  0.62
      P1  H  7989  7998       L1     1  0.88

> <Gold.PLP.Chemscore.Internal.Correction>
0.0309

> <Gold.Rescore>
     Score         DG    S(hbond)    S(metal)    S(lipo)     H(rot)  DE(clash)    DE(int)     intcor
     19.89     -20.41       1.53        0.00     117.07       1.51       0.13       0.40       ----

> <Gold.Chemscore.Fitness>
19.8886

> <Gold.Chemscore.DG>
-20.4142

> <Gold.Chemscore.ZeroCoef>
-5.4800

> <Gold.Chemscore.Hbond>
1.5267

> <Gold.Chemscore.Metal>
0.0000

> <Gold.Chemscore.Lipo>
117.0667

> <Gold.Chemscore.Internal_Hbond>
0.0000

> <Gold.Chemscore.DEClash>
0.1286

> <Gold.Chemscore.DEInternal>
0.3970

> <Gold.Chemscore.Rot>
1.5085

> <Gold.Chemscore.Internal.Correction>
   9.000000E+99

> <Gold.Chemscore.Hbonds>
donor molecule, donor type, donor heavy atom, donor atom, acceptor molecule, acceptor atom, score
      L1  H    10    46       P1 10171  0.62
      P1  H  7989  7998       L1     1  0.86

> <Gold.Chemscore.Hbond.Weighted>
-5.0991

> <Gold.Chemscore.Metal.Weighted>
-0.0000

> <Gold.Chemscore.Lipo.Weighted>
-13.6968

> <Gold.Chemscore.Internal_Hbond.Weighted>
0.0000

> <Gold.Chemscore.DEClash.Weighted>
0.1286

> <Gold.Chemscore.DEInternal.Weighted>
0.3970

> <Gold.Chemscore.Rot.Weighted>
3.8617

> <Gold.Chemscore.Internal.Correction.Weighted>
   9.000000E+99

> <Gold.Protein.RotatedTorsions>
[ 6907 6896 6895 6894 ] final   81.68 input  -60.11 | X-H torsion
[ 7974 7965 7964 7962 ] final  -97.77 input  175.53 | X-H torsion
[ 8008 7997 7996 7995 ] final  -96.54 input   59.86 | X-H torsion
[ 10167 10162 10161 10158 ] final  167.36 input  -65.29 | X-H torsion
[ 10718 10713 10712 10709 ] final  118.25 input   66.30 | X-H torsion
[ 10763 10752 10751 10750 ] final -158.39 input  -60.55 | X-H torsion
[ 11005 11000 10999 10996 ] final -162.91 input  -57.11 | X-H torsion

> <Gold.Protein.ActiveResidues>
 VAL166  LYS551  ARG553  GLY616  TRP617  ASP618  TYR619  PRO620  LYS621  CYS622 
 ASP623  PHE694  ASN695  SER759  ASP760  ASP761  ALA762  ILE779  LEU786  VAL792 
 PHE793  MET794  SER795  GLU796  ALA797  LYS798  CYS799  TRP800  GLU811  SER814 

> <Gold.Protein.RotatedAtoms>
  152.5276  134.3166  159.9132 H   0  0  0  0  0  0  0  0  0  0  0  0  # atno 6907 bound_to 6896
  151.3115  133.4072  159.2655 H   0  0  0  0  0  0  0  0  0  0  0  0  # atno 6908 bound_to 6896
  151.0034  134.9357  159.8024 H   0  0  0  0  0  0  0  0  0  0  0  0  # atno 6909 bound_to 6896
  145.3293  140.9438  143.2671 H   0  0  0  0  0  0  0  0  0  0  0  0  # atno 7974 bound_to 7965
  154.7758  140.0470  157.1088 H   0  0  0  0  0  0  0  0  0  0  0  0  # atno 8008 bound_to 7997
  154.9765  140.3096  155.4945 H   0  0  0  0  0  0  0  0  0  0  0  0  # atno 8009 bound_to 7997
  156.2928  140.2244  156.4861 H   0  0  0  0  0  0  0  0  0  0  0  0  # atno 8010 bound_to 7997
  139.4944  144.3930  151.9496 H   0  0  0  0  0  0  0  0  0  0  0  0  # atno 10167 bound_to 10162
  157.6043  131.1046  150.7729 H   0  0  0  0  0  0  0  0  0  0  0  0  # atno 10718 bound_to 10713
  154.7560  135.3105  154.8468 H   0  0  0  0  0  0  0  0  0  0  0  0  # atno 10763 bound_to 10752
  153.9242  135.6792  153.4751 H   0  0  0  0  0  0  0  0  0  0  0  0  # atno 10764 bound_to 10752
  153.1158  135.4845  154.9042 H   0  0  0  0  0  0  0  0  0  0  0  0  # atno 10765 bound_to 10752
  140.6040  134.4918  157.5208 H   0  0  0  0  0  0  0  0  0  0  0  0  # atno 11005 bound_to 11000
  144.8877  139.4817  143.6693 LP  0  0  0  0  0  0  0  0  0  0  0  0  # atno 17320 bound_to 7965
  146.3052  139.7555  142.9062 LP  0  0  0  0  0  0  0  0  0  0  0  0  # atno 17321 bound_to 7965
  140.3367  144.3252  150.5975 LP  0  0  0  0  0  0  0  0  0  0  0  0  # atno 17342 bound_to 10162
  140.5600  143.2193  151.7782 LP  0  0  0  0  0  0  0  0  0  0  0  0  # atno 17343 bound_to 10162
  156.8121  130.4956  149.5354 LP  0  0  0  0  0  0  0  0  0  0  0  0  # atno 17370 bound_to 10713
  156.1125  130.6050  151.0069 LP  0  0  0  0  0  0  0  0  0  0  0  0  # atno 17371 bound_to 10713
  139.9220  134.8130  156.1182 LP  0  0  0  0  0  0  0  0  0  0  0  0  # atno 17394 bound_to 11000
  141.0853  133.6737  156.2423 LP  0  0  0  0  0  0  0  0  0  0  0  0  # atno 17395 bound_to 11000

$$$$
