AV-unprocessed.smi:1179|AV-procd|sdf|4959|dock1
  -GOLD-   22720 3553D 1   1.00000     0.00000
 Structure written by MMmdl.
 47 48  0  0  0  0  0  0  0  0  2 V2000
  147.6749  140.2478  153.7969 C   0  0  0  0  0  0  0  0  0  0  0  0
  146.7675  141.3326  154.2976 C   0  0  0  0  0  0  0  0  0  0  0  0
  145.8457  142.1237  153.5563 C   0  0  0  0  0  0  0  0  0  0  0  0
  145.2841  142.9507  154.4881 C   0  0  0  0  0  0  0  0  0  0  0  0
  144.2448  144.0119  154.3335 C   0  0  0  0  0  0  0  0  0  0  0  0
  145.8661  142.6386  155.7040 N   0  0  0  0  0  0  0  0  0  0  0  0
  145.6207  143.2188  157.0155 C   0  0  0  0  0  0  0  0  0  0  0  0
  146.7052  142.8153  158.0163 C   0  0  0  0  0  0  0  0  0  0  0  0
  146.3909  142.3785  159.1234 O   0  0  0  0  0  0  0  0  0  0  0  0
  147.9779  142.9682  157.6180 N   0  0  0  0  0  0  0  0  0  0  0  0
  149.1500  142.6479  158.4226 C   0  0  0  0  0  0  0  0  0  0  0  0
  150.2823  142.0519  157.5632 C   0  0  0  0  0  0  0  0  0  0  0  0
  151.6108  142.1738  158.2150 N   0  3  2  0  0  0  0  0  0  0  0  0
  151.7079  141.3556  159.4512 C   0  0  0  0  0  0  0  0  0  0  0  0
  153.1352  141.3824  160.0275 C   0  0  0  0  0  0  0  0  0  0  0  0
  153.6333  142.8155  160.2882 C   0  0  2  0  0  0  0  0  0  0  0  0
  152.9819  143.4574  161.5256 C   0  0  0  0  0  0  0  0  0  0  0  0
  153.4513  143.6605  159.0142 C   0  0  0  0  0  0  0  0  0  0  0  0
  152.0162  143.5832  158.4627 C   0  0  0  0  0  0  0  0  0  0  0  0
  146.7730  141.6440  155.5831 N   0  0  0  0  0  0  0  0  0  0  0  0
  147.6434  140.1777  152.7095 H   0  0  0  0  0  0  0  0  0  0  0  0
  147.3854  139.2773  154.2004 H   0  0  0  0  0  0  0  0  0  0  0  0
  148.7094  140.4348  154.0862 H   0  0  0  0  0  0  0  0  0  0  0  0
  145.6301  142.0896  152.4986 H   0  0  0  0  0  0  0  0  0  0  0  0
  143.9190  144.0900  153.2961 H   0  0  0  0  0  0  0  0  0  0  0  0
  144.6342  144.9842  154.6360 H   0  0  0  0  0  0  0  0  0  0  0  0
  143.3690  143.7911  154.9438 H   0  0  0  0  0  0  0  0  0  0  0  0
  145.5817  144.3062  156.9317 H   0  0  0  0  0  0  0  0  0  0  0  0
  144.6421  142.8942  157.3707 H   0  0  0  0  0  0  0  0  0  0  0  0
  148.1415  143.3328  156.6897 H   0  0  0  0  0  0  0  0  0  0  0  0
  149.4917  143.5656  158.9019 H   0  0  0  0  0  0  0  0  0  0  0  0
  148.8537  141.9708  159.2241 H   0  0  0  0  0  0  0  0  0  0  0  0
  150.0888  141.0050  157.3245 H   0  0  0  0  0  0  0  0  0  0  0  0
  150.2970  142.5854  156.6114 H   0  0  0  0  0  0  0  0  0  0  0  0
  150.9890  141.7159  160.1883 H   0  0  0  0  0  0  0  0  0  0  0  0
  151.4375  140.3225  159.2293 H   0  0  0  0  0  0  0  0  0  0  0  0
  153.1809  140.7938  160.9445 H   0  0  0  0  0  0  0  0  0  0  0  0
  153.8089  140.8938  159.3220 H   0  0  0  0  0  0  0  0  0  0  0  0
  154.7027  142.7606  160.4975 H   0  0  0  0  0  0  0  0  0  0  0  0
  151.9022  143.5564  161.4186 H   0  0  0  0  0  0  0  0  0  0  0  0
  153.3875  144.4532  161.7069 H   0  0  0  0  0  0  0  0  0  0  0  0
  153.1712  142.8616  162.4188 H   0  0  0  0  0  0  0  0  0  0  0  0
  153.7230  144.6991  159.2077 H   0  0  0  0  0  0  0  0  0  0  0  0
  154.1435  143.3061  158.2491 H   0  0  0  0  0  0  0  0  0  0  0  0
  151.9687  144.1595  157.5399 H   0  0  0  0  0  0  0  0  0  0  0  0
  151.3151  144.0507  159.1556 H   0  0  0  0  0  0  0  0  0  0  0  0
  152.2817  141.7832  157.5689 H   0  0  0  0  0  0  0  0  0  0  0  0
  1  2  1  0  0  0  0
  1 21  1  0  0  0  0
  1 22  1  0  0  0  0
  1 23  1  0  0  0  0
  2 20  2  0  0  0  0
  2  3  1  0  0  0  0
  3  4  2  0  0  0  0
  3 24  1  0  0  0  0
  4  5  1  0  0  0  0
  4  6  1  0  0  0  0
  5 25  1  0  0  0  0
  5 26  1  0  0  0  0
  5 27  1  0  0  0  0
  6  7  1  0  0  0  0
  6 20  1  0  0  0  0
  7  8  1  0  0  0  0
  7 28  1  0  0  0  0
  7 29  1  0  0  0  0
  8  9  2  0  0  0  0
  8 10  1  0  0  0  0
 10 11  1  0  0  0  0
 10 30  1  0  0  0  0
 11 12  1  0  0  0  0
 11 31  1  0  0  0  0
 11 32  1  0  0  0  0
 12 13  1  0  0  0  0
 12 33  1  0  0  0  0
 12 34  1  0  0  0  0
 13 19  1  0  0  0  0
 13 14  1  0  0  0  0
 13 47  1  0  0  0  0
 14 15  1  0  0  0  0
 14 35  1  0  0  0  0
 14 36  1  0  0  0  0
 15 16  1  0  0  0  0
 15 37  1  0  0  0  0
 15 38  1  0  0  0  0
 16 17  1  0  0  0  0
 16 18  1  0  0  0  0
 16 39  1  0  0  0  0
 17 40  1  0  0  0  0
 17 41  1  0  0  0  0
 17 42  1  0  0  0  0
 18 19  1  0  0  0  0
 18 43  1  0  0  0  0
 18 44  1  0  0  0  0
 19 45  1  0  0  0  0
 19 46  1  0  0  0  0
M  CHG  1  13   1
M  END
> <s_m_source_file>
AV-unprocessed.smi

> <i_m_source_file_index>
1179

> <i_lp_mmshare_version>
43012

> <i_f3d_flags>
0

> <s_epik_input>
W0NIM11jMVtjSF1jKFtDSDNdKW4objEpW0NIMl1DKD1PKVtOSF1bQ0gyXVtDSDJdTjJbQ0gyXVtDSDJdW0NIXShbQ0gzXSlbQ0gyXVtDSDJdMg==

> <s_epik_cmdline>
J2VwaWtfcHl0aG9uJywgJy1waCcsICc3LjAnLCAnLXRuJywgJzgnLCAnLW1hJywgJzIwMCcsICctbWV0YWxfYmluZGluZycsICctaW1hZScsICc8aW5maWxlLm1hZT4nLCAnLW9tYWUnLCAnPG91dGZpbGUubWFlPic=

> <r_lp_tautomer_probability>
1

> <r_epik_Ionization_Penalty>
0.00206343

> <r_epik_Ionization_Penalty_Charging>
0.00187095

> <r_epik_Ionization_Penalty_Neutral>
0.000192474

> <r_epik_State_Penalty>
-0

> <r_epik_Charging_Adjusted_Penalty>
0.00187095

> <i_epik_Tot_Q>
1

> <i_epik_Tot_abs_Q>
1

> <r_epik_Metal_State_Penalty>
-0

> <b_epik_Metal_Only>
0

> <s_lp_Force_Field>
OPLS_2005

> <r_lp_Energy>
16.047

> <b_lp_Chiralities_Consistent>
1

> <s_lp_Variant>
AV-unprocessed.smi:1179-2

> <Gold.Version>
5.8.1

> <Gold.Id.Protein>
6NUR|6NUR_protein|mol2

> <Gold.PLP.Fitness>
46.2515

> <Gold.PLP.PLP>
-42.6868

> <Gold.PLP.part.hbond>
-2.8767

> <Gold.PLP.part.metal>
0.0000

> <Gold.PLP.part.buried>
-5.5139

> <Gold.PLP.part.nonpolar>
-34.8666

> <Gold.PLP.part.repulsive>
0.2884

> <Gold.PLP.ligand.clash>
0.0000

> <Gold.PLP.ligand.torsion>
0.5453

> <Gold.PLP.Chemscore.Hbond>
1.5199

> <Gold.PLP.Chemscore.CHOScore>
0.0000

> <Gold.PLP.Chemscore.Metal>
0.0000

> <Gold.Chemscore.Hbonds>
donor molecule, donor type, donor heavy atom, donor atom, acceptor molecule, acceptor atom, score
      L1  H    10    30       P1  8028  0.79
      P1  H  6934  6946       L1     9  0.44

> <Gold.PLP.Chemscore.Internal.Correction>
0.0957

> <Gold.Rescore>
     Score         DG    S(hbond)    S(metal)    S(lipo)     H(rot)  DE(clash)    DE(int)     intcor
     14.89     -16.91       0.94        0.00     107.27       1.67       0.03       2.00       ----

> <Gold.Chemscore.Fitness>
14.8853

> <Gold.Chemscore.DG>
-16.9149

> <Gold.Chemscore.ZeroCoef>
-5.4800

> <Gold.Chemscore.Hbond>
0.9428

> <Gold.Chemscore.Metal>
0.0000

> <Gold.Chemscore.Lipo>
107.2658

> <Gold.Chemscore.Internal_Hbond>
0.0000

> <Gold.Chemscore.DEClash>
0.0252

> <Gold.Chemscore.DEInternal>
2.0044

> <Gold.Chemscore.Rot>
1.6657

> <Gold.Chemscore.Internal.Correction>
   9.000000E+99

> <Gold.Chemscore.Hbonds>
donor molecule, donor type, donor heavy atom, donor atom, acceptor molecule, acceptor atom, score
      L1  H    10    30       P1  8028  0.13
      P1  H  6934  6946       L1     9  0.42

> <Gold.Chemscore.Hbond.Weighted>
-3.1488

> <Gold.Chemscore.Metal.Weighted>
-0.0000

> <Gold.Chemscore.Lipo.Weighted>
-12.5501

> <Gold.Chemscore.Internal_Hbond.Weighted>
0.0000

> <Gold.Chemscore.DEClash.Weighted>
0.0252

> <Gold.Chemscore.DEInternal.Weighted>
2.0044

> <Gold.Chemscore.Rot.Weighted>
4.2641

> <Gold.Chemscore.Internal.Correction.Weighted>
   9.000000E+99

> <Gold.Protein.RotatedTorsions>
[ 6907 6896 6895 6894 ] final  -34.72 input  -60.11 | X-H torsion
[ 7974 7965 7964 7962 ] final   56.98 input  175.53 | X-H torsion
[ 8008 7997 7996 7995 ] final  163.32 input   59.86 | X-H torsion
[ 10167 10162 10161 10158 ] final  161.94 input  -65.29 | X-H torsion
[ 10718 10713 10712 10709 ] final  -23.22 input   66.30 | X-H torsion
[ 10763 10752 10751 10750 ] final  173.69 input  -60.55 | X-H torsion
[ 11005 11000 10999 10996 ] final  147.09 input  -57.11 | X-H torsion

> <Gold.Protein.ActiveResidues>
 VAL166  LYS551  ARG553  GLY616  TRP617  ASP618  TYR619  PRO620  LYS621  CYS622 
 ASP623  PHE694  ASN695  SER759  ASP760  ASP761  ALA762  ILE779  LEU786  VAL792 
 PHE793  MET794  SER795  GLU796  ALA797  LYS798  CYS799  TRP800  GLU811  SER814 

> <Gold.Protein.RotatedAtoms>
  151.0490  134.9660  159.8201 H   0  0  0  0  0  0  0  0  0  0  0  0  # atno 6907 bound_to 6896
  152.5377  134.2561  159.8927 H   0  0  0  0  0  0  0  0  0  0  0  0  # atno 6908 bound_to 6896
  151.2576  133.4275  159.2648 H   0  0  0  0  0  0  0  0  0  0  0  0  # atno 6909 bound_to 6896
  145.9340  139.3831  143.0404 H   0  0  0  0  0  0  0  0  0  0  0  0  # atno 7974 bound_to 7965
  156.1966  140.1727  156.7986 H   0  0  0  0  0  0  0  0  0  0  0  0  # atno 8008 bound_to 7997
  154.5537  140.0712  156.8741 H   0  0  0  0  0  0  0  0  0  0  0  0  # atno 8009 bound_to 7997
  155.2979  140.3359  155.4251 H   0  0  0  0  0  0  0  0  0  0  0  0  # atno 8010 bound_to 7997
  139.4855  144.4486  151.8859 H   0  0  0  0  0  0  0  0  0  0  0  0  # atno 10167 bound_to 10162
  156.4939  130.4572  149.6739 H   0  0  0  0  0  0  0  0  0  0  0  0  # atno 10718 bound_to 10713
  154.4435  135.2762  155.1831 H   0  0  0  0  0  0  0  0  0  0  0  0  # atno 10763 bound_to 10752
  154.3687  135.6113  153.5732 H   0  0  0  0  0  0  0  0  0  0  0  0  # atno 10764 bound_to 10752
  152.9842  135.5852  154.4767 H   0  0  0  0  0  0  0  0  0  0  0  0  # atno 10765 bound_to 10752
  140.0847  134.9076  157.1557 H   0  0  0  0  0  0  0  0  0  0  0  0  # atno 11005 bound_to 11000
  145.8389  140.9591  143.0810 LP  0  0  0  0  0  0  0  0  0  0  0  0  # atno 17320 bound_to 7965
  144.6769  140.0258  143.7483 LP  0  0  0  0  0  0  0  0  0  0  0  0  # atno 17321 bound_to 7965
  140.3942  144.2576  150.5897 LP  0  0  0  0  0  0  0  0  0  0  0  0  # atno 17342 bound_to 10162
  140.5118  143.2289  151.8524 LP  0  0  0  0  0  0  0  0  0  0  0  0  # atno 17343 bound_to 10162
  156.3399  130.7376  151.2320 LP  0  0  0  0  0  0  0  0  0  0  0  0  # atno 17370 bound_to 10713
  157.7470  131.0406  150.4608 LP  0  0  0  0  0  0  0  0  0  0  0  0  # atno 17371 bound_to 10713
  140.3437  134.2676  155.7208 LP  0  0  0  0  0  0  0  0  0  0  0  0  # atno 17394 bound_to 11000
  141.2058  133.7849  157.0209 LP  0  0  0  0  0  0  0  0  0  0  0  0  # atno 17395 bound_to 11000

$$$$
