AV-unprocessed.smi:2810|AV-procd|sdf|10827|dock2
  -GOLD-   2272015263D 1   1.00000     0.00000
 Structure written by MMmdl.
 39 40  0  0  0  0  0  0  0  0  1 V2000
  147.2157  127.8681  153.1345 C   0  0  0  0  0  0  0  0  0  0  0  0
  147.2341  129.3766  153.0085 C   0  0  0  0  0  0  0  0  0  0  0  0
  146.2253  130.0695  152.3082 C   0  0  0  0  0  0  0  0  0  0  0  0
  146.3510  131.4787  152.2443 C   0  0  0  0  0  0  0  0  0  0  0  0
  145.4204  132.3045  151.5814 N   0  0  0  0  0  0  0  0  0  0  0  0
  145.0953  131.7908  150.2525 C   0  0  0  0  0  0  0  0  0  0  0  0
  143.9179  132.5657  149.6434 C   0  0  0  0  0  0  0  0  0  0  0  0
  144.2277  133.9526  149.6309 O   0  0  0  0  0  0  0  0  0  0  0  0
  144.4071  134.4585  150.9483 C   0  0  0  0  0  0  0  0  0  0  0  0
  145.6034  133.7624  151.6392 C   0  0  1  0  0  0  0  0  0  0  0  0
  145.7403  134.3431  153.0589 C   0  0  0  0  0  0  0  0  0  0  0  0
  146.8274  135.0762  153.3111 N   0  0  0  0  0  0  0  0  0  0  0  0
  144.8751  134.1440  153.9098 O   0  0  0  0  0  0  0  0  0  0  0  0
  147.3854  132.1069  152.8484 N   0  0  0  0  0  0  0  0  0  0  0  0
  148.2861  131.3521  153.4864 C   0  0  0  0  0  0  0  0  0  0  0  0
  149.4484  132.0784  154.1504 C   0  0  0  0  0  0  0  0  0  0  0  0
  149.6194  131.6656  155.6205 C   0  0  0  0  0  0  0  0  0  0  0  0
  149.3588  133.6004  153.9600 C   0  0  0  0  0  0  0  0  0  0  0  0
  148.2646  130.0204  153.5965 N   0  0  0  0  0  0  0  0  0  0  0  0
  146.2731  127.4547  152.7751 H   0  0  0  0  0  0  0  0  0  0  0  0
  147.3429  127.5696  154.1754 H   0  0  0  0  0  0  0  0  0  0  0  0
  148.0255  127.4320  152.5492 H   0  0  0  0  0  0  0  0  0  0  0  0
  145.4050  129.5390  151.8490 H   0  0  0  0  0  0  0  0  0  0  0  0
  145.9722  131.8814  149.6092 H   0  0  0  0  0  0  0  0  0  0  0  0
  144.8401  130.7308  150.2944 H   0  0  0  0  0  0  0  0  0  0  0  0
  143.7371  132.2328  148.6212 H   0  0  0  0  0  0  0  0  0  0  0  0
  142.9991  132.3869  150.2045 H   0  0  0  0  0  0  0  0  0  0  0  0
  144.5803  135.5333  150.8788 H   0  0  0  0  0  0  0  0  0  0  0  0
  143.4859  134.3253  151.5196 H   0  0  0  0  0  0  0  0  0  0  0  0
  146.5018  134.0088  151.0708 H   0  0  0  0  0  0  0  0  0  0  0  0
  146.9626  135.4809  154.2259 H   0  0  0  0  0  0  0  0  0  0  0  0
  147.5104  135.2245  152.5825 H   0  0  0  0  0  0  0  0  0  0  0  0
  150.3591  131.7621  153.6387 H   0  0  0  0  0  0  0  0  0  0  0  0
  149.7541  130.5873  155.7104 H   0  0  0  0  0  0  0  0  0  0  0  0
  148.7499  131.9438  156.2169 H   0  0  0  0  0  0  0  0  0  0  0  0
  150.4920  132.1459  156.0633 H   0  0  0  0  0  0  0  0  0  0  0  0
  149.3143  133.8603  152.9018 H   0  0  0  0  0  0  0  0  0  0  0  0
  150.2279  134.1011  154.3870 H   0  0  0  0  0  0  0  0  0  0  0  0
  148.4707  134.0107  154.4417 H   0  0  0  0  0  0  0  0  0  0  0  0
  1  2  1  0  0  0  0
  1 20  1  0  0  0  0
  1 21  1  0  0  0  0
  1 22  1  0  0  0  0
  2 19  1  0  0  0  0
  2  3  2  0  0  0  0
  3  4  1  0  0  0  0
  3 23  1  0  0  0  0
  4  5  1  0  0  0  0
  4 14  2  0  0  0  0
  5 10  1  0  0  0  0
  5  6  1  0  0  0  0
  6  7  1  0  0  0  0
  6 24  1  0  0  0  0
  6 25  1  0  0  0  0
  7  8  1  0  0  0  0
  7 26  1  0  0  0  0
  7 27  1  0  0  0  0
  8  9  1  0  0  0  0
  9 10  1  0  0  0  0
  9 28  1  0  0  0  0
  9 29  1  0  0  0  0
 10 11  1  0  0  0  0
 10 30  1  0  0  0  0
 11 12  1  0  0  0  0
 11 13  2  0  0  0  0
 12 31  1  0  0  0  0
 12 32  1  0  0  0  0
 14 15  1  0  0  0  0
 15 16  1  0  0  0  0
 15 19  2  0  0  0  0
 16 17  1  0  0  0  0
 16 18  1  0  0  0  0
 16 33  1  0  0  0  0
 17 34  1  0  0  0  0
 17 35  1  0  0  0  0
 17 36  1  0  0  0  0
 18 37  1  0  0  0  0
 18 38  1  0  0  0  0
 18 39  1  0  0  0  0
M  END
> <s_m_source_file>
AV-unprocessed.smi

> <i_m_source_file_index>
2810

> <i_lp_mmshare_version>
43012

> <i_f3d_flags>
0

> <s_epik_input>
W0NIM11bQ0hdKFtDSDNdKWMobjEpbmMoW2NIXWMxW0NIM10pTjJbQ0gyXVtDSDJdT1tDSDJdW0NASF0yQyg9TylbTkgyXQ==

> <s_epik_cmdline>
J2VwaWtfcHl0aG9uJywgJy1waCcsICc3LjAnLCAnLXRuJywgJzgnLCAnLW1hJywgJzIwMCcsICctbWV0YWxfYmluZGluZycsICctaW1hZScsICc8aW5maWxlLm1hZT4nLCAnLW9tYWUnLCAnPG91dGZpbGUubWFlPic=

> <r_lp_tautomer_probability>
1

> <r_epik_Ionization_Penalty>
0.00607782

> <r_epik_Ionization_Penalty_Charging>
0

> <r_epik_Ionization_Penalty_Neutral>
0.00607782

> <r_epik_State_Penalty>
0.00441345

> <r_epik_Charging_Adjusted_Penalty>
0.00441345

> <i_epik_Tot_Q>
0

> <i_epik_Tot_abs_Q>
0

> <r_epik_Metal_State_Penalty>
-0

> <b_epik_Metal_Only>
0

> <s_lp_Force_Field>
OPLS_2005

> <r_lp_Energy>
6.57668

> <b_lp_Chiralities_Consistent>
1

> <s_lp_Variant>
AV-unprocessed.smi:2810-1

> <Gold.Version>
5.8.1

> <Gold.Id.Protein>
6NUR|6NUR_protein|mol2

> <Gold.PLP.Fitness>
32.9496

> <Gold.PLP.PLP>
-30.2332

> <Gold.PLP.part.hbond>
-1.0000

> <Gold.PLP.part.metal>
0.0000

> <Gold.PLP.part.buried>
-5.7744

> <Gold.PLP.part.nonpolar>
-25.5200

> <Gold.PLP.part.repulsive>
2.0599

> <Gold.PLP.ligand.clash>
0.0000

> <Gold.PLP.ligand.torsion>
0.2966

> <Gold.PLP.Chemscore.Hbond>
0.9920

> <Gold.PLP.Chemscore.CHOScore>
0.0000

> <Gold.PLP.Chemscore.Metal>
0.0000

> <Gold.Chemscore.Hbonds>
donor molecule, donor type, donor heavy atom, donor atom, acceptor molecule, acceptor atom, score
      L1  H    12    32       P1  7948  1.00

> <Gold.PLP.Chemscore.Internal.Correction>
0.3335

> <Gold.Rescore>
     Score         DG    S(hbond)    S(metal)    S(lipo)     H(rot)  DE(clash)    DE(int)     intcor
     10.31     -12.21       1.00        0.00      66.61       1.71       0.13       1.77       ----

> <Gold.Chemscore.Fitness>
10.3149

> <Gold.Chemscore.DG>
-12.2145

> <Gold.Chemscore.ZeroCoef>
-5.4800

> <Gold.Chemscore.Hbond>
0.9950

> <Gold.Chemscore.Metal>
0.0000

> <Gold.Chemscore.Lipo>
66.6077

> <Gold.Chemscore.Internal_Hbond>
0.0000

> <Gold.Chemscore.DEClash>
0.1284

> <Gold.Chemscore.DEInternal>
1.7712

> <Gold.Chemscore.Rot>
1.7117

> <Gold.Chemscore.Internal.Correction>
   9.000000E+99

> <Gold.Chemscore.Hbonds>
donor molecule, donor type, donor heavy atom, donor atom, acceptor molecule, acceptor atom, score
      L1  H    12    32       P1  7948  0.95

> <Gold.Chemscore.Hbond.Weighted>
-3.3234

> <Gold.Chemscore.Metal.Weighted>
-0.0000

> <Gold.Chemscore.Lipo.Weighted>
-7.7931

> <Gold.Chemscore.Internal_Hbond.Weighted>
0.0000

> <Gold.Chemscore.DEClash.Weighted>
0.1284

> <Gold.Chemscore.DEInternal.Weighted>
1.7712

> <Gold.Chemscore.Rot.Weighted>
4.3820

> <Gold.Chemscore.Internal.Correction.Weighted>
   9.000000E+99

> <Gold.Protein.RotatedTorsions>
[ 6907 6896 6895 6894 ] final  171.45 input  -60.11 | X-H torsion
[ 7974 7965 7964 7962 ] final -135.78 input  175.53 | X-H torsion
[ 8008 7997 7996 7995 ] final  133.64 input   59.86 | X-H torsion
[ 10167 10162 10161 10158 ] final -134.11 input  -65.29 | X-H torsion
[ 10718 10713 10712 10709 ] final  108.51 input   66.30 | X-H torsion
[ 10763 10752 10751 10750 ] final  139.96 input  -60.55 | X-H torsion
[ 11005 11000 10999 10996 ] final    5.68 input  -57.11 | X-H torsion

> <Gold.Protein.ActiveResidues>
 VAL166  LYS551  ARG553  GLY616  TRP617  ASP618  TYR619  PRO620  LYS621  CYS622 
 ASP623  PHE694  ASN695  SER759  ASP760  ASP761  ALA762  ILE779  LEU786  VAL792 
 PHE793  MET794  SER795  GLU796  ALA797  LYS798  CYS799  TRP800  GLU811  SER814 

> <Gold.Protein.RotatedAtoms>
  151.8000  133.3369  159.3523 H   0  0  0  0  0  0  0  0  0  0  0  0  # atno 6907 bound_to 6896
  150.7362  134.5762  159.5925 H   0  0  0  0  0  0  0  0  0  0  0  0  # atno 6908 bound_to 6896
  152.3149  134.7453  160.0379 H   0  0  0  0  0  0  0  0  0  0  0  0  # atno 6909 bound_to 6896
  144.8984  140.6738  143.5100 H   0  0  0  0  0  0  0  0  0  0  0  0  # atno 7974 bound_to 7965
  156.2994  140.2516  156.3286 H   0  0  0  0  0  0  0  0  0  0  0  0  # atno 8008 bound_to 7997
  154.9167  140.0402  157.1995 H   0  0  0  0  0  0  0  0  0  0  0  0  # atno 8009 bound_to 7997
  154.8352  140.2882  155.5700 H   0  0  0  0  0  0  0  0  0  0  0  0  # atno 8010 bound_to 7997
  139.8914  143.6718  152.2611 H   0  0  0  0  0  0  0  0  0  0  0  0  # atno 10167 bound_to 10162
  157.6583  131.0895  150.6316 H   0  0  0  0  0  0  0  0  0  0  0  0  # atno 10718 bound_to 10713
  153.9148  135.3007  155.3448 H   0  0  0  0  0  0  0  0  0  0  0  0  # atno 10763 bound_to 10752
  154.7605  135.4936  153.9459 H   0  0  0  0  0  0  0  0  0  0  0  0  # atno 10764 bound_to 10752
  153.1173  135.6774  153.9498 H   0  0  0  0  0  0  0  0  0  0  0  0  # atno 10765 bound_to 10752
  140.5679  134.0130  155.7997 H   0  0  0  0  0  0  0  0  0  0  0  0  # atno 11005 bound_to 11000
  145.3659  139.1670  143.4358 LP  0  0  0  0  0  0  0  0  0  0  0  0  # atno 17320 bound_to 7965
  146.3094  140.3726  142.8675 LP  0  0  0  0  0  0  0  0  0  0  0  0  # atno 17321 bound_to 7965
  139.7107  144.7621  151.1118 LP  0  0  0  0  0  0  0  0  0  0  0  0  # atno 17342 bound_to 10162
  140.7726  143.5335  150.9395 LP  0  0  0  0  0  0  0  0  0  0  0  0  # atno 17343 bound_to 10162
  156.6620  130.4515  149.5684 LP  0  0  0  0  0  0  0  0  0  0  0  0  # atno 17370 bound_to 10713
  156.2060  130.6649  151.1218 LP  0  0  0  0  0  0  0  0  0  0  0  0  # atno 17371 bound_to 10713
  141.1074  133.9671  157.2972 LP  0  0  0  0  0  0  0  0  0  0  0  0  # atno 17394 bound_to 11000
  139.9376  135.0195  156.8605 LP  0  0  0  0  0  0  0  0  0  0  0  0  # atno 17395 bound_to 11000

$$$$
