AV-unprocessed.smi:3237|AV-procd|sdf|12374|dock2
  -GOLD-   2272018233D 1   1.00000     0.00000
 Structure written by MMmdl.
 36 38  0  0  0  0  0  0  0  0  3 V2000
  151.8960  145.3241  160.1167 C   0  0  0  0  0  0  0  0  0  0  0  0
  151.8598  144.1606  159.1864 C   0  0  0  0  0  0  0  0  0  0  0  0
  151.1469  143.9001  158.0503 C   0  0  0  0  0  0  0  0  0  0  0  0
  151.6033  142.6090  157.6731 C   0  0  0  0  0  0  0  0  0  0  0  0
  151.0899  141.9702  156.5134 N   0  0  0  0  0  0  0  0  0  0  0  0
  151.3968  140.7600  156.0113 C   0  0  0  0  0  0  0  0  0  0  0  0
  152.2236  140.0390  156.5818 O   0  0  0  0  0  0  0  0  0  0  0  0
  150.7062  140.4862  154.8699 N   0  5  0  0  0  0  0  0  0  0  0  0
  150.2362  139.1585  154.4706 C   0  0  1  0  0  0  0  0  0  0  0  0
  150.2666  138.1723  155.6390 C   0  0  0  0  0  0  0  0  0  0  0  0
  149.1660  137.1548  155.3061 C   0  0  0  0  0  0  0  0  0  0  0  0
  148.3212  137.7697  154.2550 N   0  3  1  0  0  0  0  0  0  0  0  0
  146.8671  137.6019  154.4657 C   0  0  0  0  0  0  0  0  0  0  0  0
  146.2853  136.4193  153.7290 C   0  0  0  0  0  0  0  0  0  0  0  0
  146.0450  137.8237  153.2187 C   0  0  0  0  0  0  0  0  0  0  0  0
  148.7541  139.1726  154.1013 C   0  0  0  0  0  0  0  0  0  0  0  0
  152.5140  142.1260  158.5055 N   0  0  0  0  0  0  0  0  0  0  0  0
  152.6824  143.1174  159.4794 O   0  0  0  0  0  0  0  0  0  0  0  0
  151.2684  146.1363  159.7495 H   0  0  0  0  0  0  0  0  0  0  0  0
  152.9123  145.7039  160.2217 H   0  0  0  0  0  0  0  0  0  0  0  0
  151.5364  145.0392  161.1054 H   0  0  0  0  0  0  0  0  0  0  0  0
  150.4169  144.5327  157.5677 H   0  0  0  0  0  0  0  0  0  0  0  0
  150.4048  142.4981  155.9936 H   0  0  0  0  0  0  0  0  0  0  0  0
  150.7943  138.7271  153.6379 H   0  0  0  0  0  0  0  0  0  0  0  0
  151.2440  137.7056  155.7652 H   0  0  0  0  0  0  0  0  0  0  0  0
  150.0175  138.6767  156.5746 H   0  0  0  0  0  0  0  0  0  0  0  0
  149.5847  136.2235  154.9215 H   0  0  0  0  0  0  0  0  0  0  0  0
  148.5894  136.9089  156.1994 H   0  0  0  0  0  0  0  0  0  0  0  0
  146.4816  137.8898  155.4422 H   0  0  0  0  0  0  0  0  0  0  0  0
  146.9608  135.7851  153.1574 H   0  0  0  0  0  0  0  0  0  0  0  0
  145.4443  135.9055  154.1903 H   0  0  0  0  0  0  0  0  0  0  0  0
  145.0445  138.2333  153.3420 H   0  0  0  0  0  0  0  0  0  0  0  0
  146.5615  138.1240  152.3087 H   0  0  0  0  0  0  0  0  0  0  0  0
  148.1921  139.8046  154.7924 H   0  0  0  0  0  0  0  0  0  0  0  0
  148.5777  139.5373  153.0890 H   0  0  0  0  0  0  0  0  0  0  0  0
  148.5643  137.3056  153.3917 H   0  0  0  0  0  0  0  0  0  0  0  0
  1  2  1  0  0  0  0
  1 19  1  0  0  0  0
  1 20  1  0  0  0  0
  1 21  1  0  0  0  0
  2 18  1  0  0  0  0
  2  3  2  0  0  0  0
  3  4  1  0  0  0  0
  3 22  1  0  0  0  0
  4  5  1  0  0  0  0
  4 17  2  0  0  0  0
  5  6  1  0  0  0  0
  5 23  1  0  0  0  0
  6  7  2  0  0  0  0
  6  8  1  0  0  0  0
  8  9  1  0  0  0  0
  9 16  1  0  0  0  0
  9 10  1  0  0  0  0
  9 24  1  0  0  0  0
 10 11  1  0  0  0  0
 10 25  1  0  0  0  0
 10 26  1  0  0  0  0
 11 12  1  0  0  0  0
 11 27  1  0  0  0  0
 11 28  1  0  0  0  0
 12 13  1  0  0  0  0
 12 16  1  0  0  0  0
 12 36  1  0  0  0  0
 13 15  1  0  0  0  0
 13 14  1  0  0  0  0
 13 29  1  0  0  0  0
 14 15  1  0  0  0  0
 14 30  1  0  0  0  0
 14 31  1  0  0  0  0
 15 32  1  0  0  0  0
 15 33  1  0  0  0  0
 16 34  1  0  0  0  0
 16 35  1  0  0  0  0
 17 18  1  0  0  0  0
M  CHG  1   8  -1
M  CHG  1  12   1
M  END
> <s_m_source_file>
AV-unprocessed.smi

> <i_m_source_file_index>
3237

> <i_lp_mmshare_version>
43012

> <i_f3d_flags>
0

> <s_epik_input>
W0NIM11jMVtjSF1jKG5vMSlbTkhdQyg9TylbTkhdW0NAQEhdMltDSDJdW0NIMl1OKFtDSDJdMilbQ0hdM1tDSDJdW0NIMl0z

> <s_epik_cmdline>
J2VwaWtfcHl0aG9uJywgJy1waCcsICc3LjAnLCAnLXRuJywgJzgnLCAnLW1hJywgJzIwMCcsICctbWV0YWxfYmluZGluZycsICctaW1hZScsICc8aW5maWxlLm1hZT4nLCAnLW9tYWUnLCAnPG91dGZpbGUubWFlPic=

> <r_epik_Ionization_Penalty>
6.76456

> <r_epik_Ionization_Penalty_Charging>
6.76456

> <r_epik_Ionization_Penalty_Neutral>
5.76722e-06

> <r_epik_State_Penalty>
6.78919

> <r_epik_Charging_Adjusted_Penalty>
13.5538

> <i_epik_Tot_Q>
0

> <i_epik_Tot_abs_Q>
2

> <r_epik_Metal_State_Penalty>
2.728

> <b_epik_Metal_Only>
1

> <s_lp_Force_Field>
OPLS_2005

> <r_lp_Energy>
31.1689

> <b_lp_Chiralities_Consistent>
1

> <s_lp_Variant>
AV-unprocessed.smi:3237-12

> <Gold.Version>
5.8.1

> <Gold.Id.Protein>
6NUR|6NUR_protein|mol2

> <Gold.PLP.Fitness>
39.2607

> <Gold.PLP.PLP>
-28.7153

> <Gold.PLP.part.hbond>
-2.8024

> <Gold.PLP.part.metal>
0.0000

> <Gold.PLP.part.buried>
-3.2962

> <Gold.PLP.part.nonpolar>
-21.3426

> <Gold.PLP.part.repulsive>
0.1799

> <Gold.PLP.ligand.clash>
0.0000

> <Gold.PLP.ligand.torsion>
1.0223

> <Gold.PLP.Chemscore.Hbond>
3.7638

> <Gold.PLP.Chemscore.CHOScore>
0.0000

> <Gold.PLP.Chemscore.Metal>
0.0000

> <Gold.Chemscore.Hbonds>
donor molecule, donor type, donor heavy atom, donor atom, acceptor molecule, acceptor atom, score
      L1  H    12    36       P1  7948  2.00
      P1  H  7989  7998       L1     8  1.00
      P1  H  7997  8008       L1     7  0.78

> <Gold.PLP.Chemscore.Internal.Correction>
1.2987

> <Gold.Rescore>
     Score         DG    S(hbond)    S(metal)    S(lipo)     H(rot)  DE(clash)    DE(int)     intcor
     13.11     -16.99       2.15        0.00      64.39       1.25       0.23       3.65       ----

> <Gold.Chemscore.Fitness>
13.1064

> <Gold.Chemscore.DG>
-16.9917

> <Gold.Chemscore.ZeroCoef>
-5.4800

> <Gold.Chemscore.Hbond>
2.1465

> <Gold.Chemscore.Metal>
0.0000

> <Gold.Chemscore.Lipo>
64.3868

> <Gold.Chemscore.Internal_Hbond>
0.0000

> <Gold.Chemscore.DEClash>
0.2313

> <Gold.Chemscore.DEInternal>
3.6540

> <Gold.Chemscore.Rot>
1.2464

> <Gold.Chemscore.Internal.Correction>
   9.000000E+99

> <Gold.Chemscore.Hbonds>
donor molecule, donor type, donor heavy atom, donor atom, acceptor molecule, acceptor atom, score
      L1  H    12    36       P1  7948  1.00
      P1  H  7989  7998       L1     8  0.19
      P1  H  7997  8008       L1     7  0.76

> <Gold.Chemscore.Hbond.Weighted>
-7.1693

> <Gold.Chemscore.Metal.Weighted>
-0.0000

> <Gold.Chemscore.Lipo.Weighted>
-7.5333

> <Gold.Chemscore.Internal_Hbond.Weighted>
0.0000

> <Gold.Chemscore.DEClash.Weighted>
0.2313

> <Gold.Chemscore.DEInternal.Weighted>
3.6540

> <Gold.Chemscore.Rot.Weighted>
3.1909

> <Gold.Chemscore.Internal.Correction.Weighted>
   9.000000E+99

> <Gold.Protein.RotatedTorsions>
[ 6907 6896 6895 6894 ] final -153.94 input  -60.11 | X-H torsion
[ 7974 7965 7964 7962 ] final  -81.69 input  175.53 | X-H torsion
[ 8008 7997 7996 7995 ] final  -44.41 input   59.86 | X-H torsion
[ 10167 10162 10161 10158 ] final  -20.27 input  -65.29 | X-H torsion
[ 10718 10713 10712 10709 ] final  143.53 input   66.30 | X-H torsion
[ 10763 10752 10751 10750 ] final   23.40 input  -60.55 | X-H torsion
[ 11005 11000 10999 10996 ] final  -51.50 input  -57.11 | X-H torsion

> <Gold.Protein.ActiveResidues>
 VAL166  LYS551  ARG553  GLY616  TRP617  ASP618  TYR619  PRO620  LYS621  CYS622 
 ASP623  PHE694  ASN695  SER759  ASP760  ASP761  ALA762  ILE779  LEU786  VAL792 
 PHE793  MET794  SER795  GLU796  ALA797  LYS798  CYS799  TRP800  GLU811  SER814 

> <Gold.Protein.RotatedAtoms>
  151.2501  133.4355  159.2610 H   0  0  0  0  0  0  0  0  0  0  0  0  # atno 6907 bound_to 6896
  151.0626  134.9746  159.8278 H   0  0  0  0  0  0  0  0  0  0  0  0  # atno 6908 bound_to 6896
  152.5400  134.2450  159.8929 H   0  0  0  0  0  0  0  0  0  0  0  0  # atno 6909 bound_to 6896
  145.5433  140.9507  143.1539 H   0  0  0  0  0  0  0  0  0  0  0  0  # atno 7974 bound_to 7965
  154.3997  140.1423  156.3679 H   0  0  0  0  0  0  0  0  0  0  0  0  # atno 8008 bound_to 7997
  155.8120  140.3472  155.5442 H   0  0  0  0  0  0  0  0  0  0  0  0  # atno 8009 bound_to 7997
  155.8377  140.0922  157.1744 H   0  0  0  0  0  0  0  0  0  0  0  0  # atno 8010 bound_to 7997
  140.7275  143.4738  151.0210 H   0  0  0  0  0  0  0  0  0  0  0  0  # atno 10167 bound_to 10162
  157.3679  131.0974  151.0856 H   0  0  0  0  0  0  0  0  0  0  0  0  # atno 10718 bound_to 10713
  153.0841  135.6628  153.9984 H   0  0  0  0  0  0  0  0  0  0  0  0  # atno 10763 bound_to 10752
  153.9598  135.2975  155.3435 H   0  0  0  0  0  0  0  0  0  0  0  0  # atno 10764 bound_to 10752
  154.7246  135.5150  153.8938 H   0  0  0  0  0  0  0  0  0  0  0  0  # atno 10765 bound_to 10752
  141.0874  133.6639  156.3886 H   0  0  0  0  0  0  0  0  0  0  0  0  # atno 11005 bound_to 11000
  144.7566  139.7059  143.7251 LP  0  0  0  0  0  0  0  0  0  0  0  0  # atno 17320 bound_to 7965
  146.1966  139.5237  142.9770 LP  0  0  0  0  0  0  0  0  0  0  0  0  # atno 17321 bound_to 7965
  139.8432  143.7536  152.3180 LP  0  0  0  0  0  0  0  0  0  0  0  0  # atno 17342 bound_to 10162
  139.7692  144.7482  151.0249 LP  0  0  0  0  0  0  0  0  0  0  0  0  # atno 17343 bound_to 10162
  157.1971  130.6378  149.5725 LP  0  0  0  0  0  0  0  0  0  0  0  0  # atno 17370 bound_to 10713
  155.9749  130.4703  150.6425 LP  0  0  0  0  0  0  0  0  0  0  0  0  # atno 17371 bound_to 10713
  140.5331  134.6193  157.5356 LP  0  0  0  0  0  0  0  0  0  0  0  0  # atno 17394 bound_to 11000
  139.9694  134.7318  156.0071 LP  0  0  0  0  0  0  0  0  0  0  0  0  # atno 17395 bound_to 11000

$$$$
