AV-unprocessed.smi:1637|AV-procd|sdf|6544|dock7
  -GOLD-   22720 7223D 1   1.00000     0.00000
 Structure written by MMmdl.
 38 39  0  0  0  0  0  0  0  0  1 V2000
  153.8232  141.6846  161.8067 C   0  0  0  0  0  0  0  0  0  0  0  0
  153.7089  142.8508  160.9985 O   0  0  0  0  0  0  0  0  0  0  0  0
  152.8351  142.8246  159.9309 C   0  0  0  0  0  0  0  0  0  0  0  0
  152.7408  143.9651  159.1088 C   0  0  0  0  0  0  0  0  0  0  0  0
  151.8487  143.9486  158.0194 C   0  0  0  0  0  0  0  0  0  0  0  0
  151.0708  142.7887  157.7906 C   0  0  0  0  0  0  0  0  0  0  0  0
  150.1502  142.6421  156.7184 N   0  0  0  0  0  0  0  0  0  0  0  0
  149.6199  141.5115  156.2221 C   0  0  0  0  0  0  0  0  0  0  0  0
  149.8619  140.3744  156.6260 O   0  0  0  0  0  0  0  0  0  0  0  0
  148.7945  141.7740  155.1989 N   0  0  0  0  0  0  0  0  0  0  0  0
  148.0445  140.7810  154.4296 C   0  0  2  0  0  0  0  0  0  0  0  0
  146.8881  140.1905  155.2772 C   0  0  0  0  0  0  0  0  0  0  0  0
  146.4006  138.7829  154.8742 C   0  0  0  0  0  0  0  0  0  0  0  0
  146.0029  138.6162  153.3936 C   0  0  0  0  0  0  0  0  0  0  0  0
  147.0671  139.0048  152.3397 C   0  0  0  0  0  0  0  0  0  0  0  0
  148.4460  138.9458  152.8235 N   0  0  0  0  0  0  0  0  0  0  0  0
  148.9734  139.7459  153.7663 C   0  0  0  0  0  0  0  0  0  0  0  0
  150.1512  139.6461  154.1078 O   0  0  0  0  0  0  0  0  0  0  0  0
  151.2524  141.6944  158.6612 C   0  0  0  0  0  0  0  0  0  0  0  0
  152.1038  141.7045  159.7083 N   0  0  0  0  0  0  0  0  0  0  0  0
  154.5518  141.8632  162.5971 H   0  0  0  0  0  0  0  0  0  0  0  0
  154.1690  140.8283  161.2259 H   0  0  0  0  0  0  0  0  0  0  0  0
  152.8737  141.4351  162.2823 H   0  0  0  0  0  0  0  0  0  0  0  0
  153.3450  144.8378  159.3081 H   0  0  0  0  0  0  0  0  0  0  0  0
  151.7905  144.8148  157.3786 H   0  0  0  0  0  0  0  0  0  0  0  0
  149.9173  143.4937  156.2284 H   0  0  0  0  0  0  0  0  0  0  0  0
  148.6550  142.7391  154.9366 H   0  0  0  0  0  0  0  0  0  0  0  0
  147.5930  141.3261  153.5996 H   0  0  0  0  0  0  0  0  0  0  0  0
  147.1950  140.1420  156.3230 H   0  0  0  0  0  0  0  0  0  0  0  0
  146.0453  140.8822  155.2519 H   0  0  0  0  0  0  0  0  0  0  0  0
  147.1668  138.0484  155.1262 H   0  0  0  0  0  0  0  0  0  0  0  0
  145.5443  138.5209  155.4965 H   0  0  0  0  0  0  0  0  0  0  0  0
  145.7375  137.5694  153.2414 H   0  0  0  0  0  0  0  0  0  0  0  0
  145.0898  139.1783  153.1956 H   0  0  0  0  0  0  0  0  0  0  0  0
  146.9788  138.3468  151.4751 H   0  0  0  0  0  0  0  0  0  0  0  0
  146.8658  140.0064  151.9579 H   0  0  0  0  0  0  0  0  0  0  0  0
  149.0498  138.2572  152.3983 H   0  0  0  0  0  0  0  0  0  0  0  0
  150.6925  140.7817  158.5183 H   0  0  0  0  0  0  0  0  0  0  0  0
  1  2  1  0  0  0  0
  1 21  1  0  0  0  0
  1 22  1  0  0  0  0
  1 23  1  0  0  0  0
  2  3  1  0  0  0  0
  3 20  1  0  0  0  0
  3  4  2  0  0  0  0
  4  5  1  0  0  0  0
  4 24  1  0  0  0  0
  5  6  2  0  0  0  0
  5 25  1  0  0  0  0
  6  7  1  0  0  0  0
  6 19  1  0  0  0  0
  7  8  1  0  0  0  0
  7 26  1  0  0  0  0
  8  9  2  0  0  0  0
  8 10  1  0  0  0  0
 10 11  1  0  0  0  0
 10 27  1  0  0  0  0
 11 17  1  0  0  0  0
 11 12  1  0  0  0  0
 11 28  1  0  0  0  0
 12 13  1  0  0  0  0
 12 29  1  0  0  0  0
 12 30  1  0  0  0  0
 13 14  1  0  0  0  0
 13 31  1  0  0  0  0
 13 32  1  0  0  0  0
 14 15  1  0  0  0  0
 14 33  1  0  0  0  0
 14 34  1  0  0  0  0
 15 16  1  0  0  0  0
 15 35  1  0  0  0  0
 15 36  1  0  0  0  0
 16 17  1  0  0  0  0
 16 37  1  0  0  0  0
 17 18  2  0  0  0  0
 19 20  2  0  0  0  0
 19 38  1  0  0  0  0
M  END
> <s_m_source_file>
AV-unprocessed.smi

> <i_m_source_file_index>
1637

> <i_lp_mmshare_version>
43012

> <i_f3d_flags>
0

> <s_epik_input>
W0NIM11PYzFbY0hdW2NIXWMoW2NIXW4xKVtOSF1DKD1PKVtOSF1bQ0BASF0yW0NIMl1bQ0gyXVtDSDJdW0NIMl1bTkhdQzI9Tw==

> <s_epik_cmdline>
J2VwaWtfcHl0aG9uJywgJy1waCcsICc3LjAnLCAnLXRuJywgJzgnLCAnLW1hJywgJzIwMCcsICctbWV0YWxfYmluZGluZycsICctaW1hZScsICc8aW5maWxlLm1hZT4nLCAnLW9tYWUnLCAnPG91dGZpbGUubWFlPic=

> <r_lp_tautomer_probability>
1

> <r_epik_Ionization_Penalty>
8.30847e-05

> <r_epik_Ionization_Penalty_Charging>
0

> <r_epik_Ionization_Penalty_Neutral>
8.30847e-05

> <r_epik_State_Penalty>
-0

> <r_epik_Charging_Adjusted_Penalty>
0

> <i_epik_Tot_Q>
0

> <i_epik_Tot_abs_Q>
0

> <r_epik_Metal_State_Penalty>
-0

> <b_epik_Metal_Only>
0

> <s_lp_Force_Field>
OPLS_2005

> <r_lp_Energy>
17.0101

> <b_lp_Chiralities_Consistent>
1

> <s_lp_Variant>
AV-unprocessed.smi:1637-1

> <Gold.Version>
5.8.1

> <Gold.Id.Protein>
6NUR|6NUR_protein|mol2

> <Gold.PLP.Fitness>
41.4543

> <Gold.PLP.PLP>
-31.2615

> <Gold.PLP.part.hbond>
-4.2665

> <Gold.PLP.part.metal>
0.0000

> <Gold.PLP.part.buried>
3.8704

> <Gold.PLP.part.nonpolar>
-30.5292

> <Gold.PLP.part.repulsive>
0.8980

> <Gold.PLP.ligand.clash>
0.0000

> <Gold.PLP.ligand.torsion>
0.1269

> <Gold.PLP.Chemscore.Hbond>
3.4644

> <Gold.PLP.Chemscore.CHOScore>
0.0000

> <Gold.PLP.Chemscore.Metal>
0.0000

> <Gold.Chemscore.Hbonds>
donor molecule, donor type, donor heavy atom, donor atom, acceptor molecule, acceptor atom, score
      L1  H     7    26       P1  8028  1.00
      L1  H    10    27       P1  8028  0.70
      L1  H    16    37       P1  7948  0.74
      P1  H  7989  7998       L1    18  1.00

> <Gold.PLP.Chemscore.Internal.Correction>
0.0535

> <Gold.Rescore>
     Score         DG    S(hbond)    S(metal)    S(lipo)     H(rot)  DE(clash)    DE(int)     intcor
     12.33     -21.32       3.16        0.00      73.86       1.31       3.26       5.74       ----

> <Gold.Chemscore.Fitness>
12.3326

> <Gold.Chemscore.DG>
-21.3246

> <Gold.Chemscore.ZeroCoef>
-5.4800

> <Gold.Chemscore.Hbond>
3.1599

> <Gold.Chemscore.Metal>
0.0000

> <Gold.Chemscore.Lipo>
73.8587

> <Gold.Chemscore.Internal_Hbond>
0.0000

> <Gold.Chemscore.DEClash>
3.2565

> <Gold.Chemscore.DEInternal>
5.7355

> <Gold.Chemscore.Rot>
1.3090

> <Gold.Chemscore.Internal.Correction>
   9.000000E+99

> <Gold.Chemscore.Hbonds>
donor molecule, donor type, donor heavy atom, donor atom, acceptor molecule, acceptor atom, score
      L1  H     7    26       P1  8028  0.98
      L1  H    10    27       P1  8028  0.68
      L1  H    16    37       P1  7948  0.67
      P1  H  7989  7998       L1    18  0.93

> <Gold.Chemscore.Hbond.Weighted>
-10.5541

> <Gold.Chemscore.Metal.Weighted>
-0.0000

> <Gold.Chemscore.Lipo.Weighted>
-8.6415

> <Gold.Chemscore.Internal_Hbond.Weighted>
0.0000

> <Gold.Chemscore.DEClash.Weighted>
3.2565

> <Gold.Chemscore.DEInternal.Weighted>
5.7355

> <Gold.Chemscore.Rot.Weighted>
3.3509

> <Gold.Chemscore.Internal.Correction.Weighted>
   9.000000E+99

> <Gold.Protein.RotatedTorsions>
[ 6907 6896 6895 6894 ] final  -35.18 input  -60.11 | X-H torsion
[ 7974 7965 7964 7962 ] final   19.91 input  175.53 | X-H torsion
[ 8008 7997 7996 7995 ] final  118.67 input   59.86 | X-H torsion
[ 10167 10162 10161 10158 ] final -176.99 input  -65.29 | X-H torsion
[ 10718 10713 10712 10709 ] final -131.04 input   66.30 | X-H torsion
[ 10763 10752 10751 10750 ] final  -25.02 input  -60.55 | X-H torsion
[ 11005 11000 10999 10996 ] final  108.75 input  -57.11 | X-H torsion

> <Gold.Protein.ActiveResidues>
 VAL166  LYS551  ARG553  GLY616  TRP617  ASP618  TYR619  PRO620  LYS621  CYS622 
 ASP623  PHE694  ASN695  SER759  ASP760  ASP761  ALA762  ILE779  LEU786  VAL792 
 PHE793  MET794  SER795  GLU796  ALA797  LYS798  CYS799  TRP800  GLU811  SER814 

> <Gold.Protein.RotatedAtoms>
  151.0431  134.9621  159.8171 H   0  0  0  0  0  0  0  0  0  0  0  0  # atno 6907 bound_to 6896
  152.5367  134.2633  159.8953 H   0  0  0  0  0  0  0  0  0  0  0  0  # atno 6908 bound_to 6896
  151.2646  133.4242  159.2652 H   0  0  0  0  0  0  0  0  0  0  0  0  # atno 6909 bound_to 6896
  146.2131  139.8245  142.8673 H   0  0  0  0  0  0  0  0  0  0  0  0  # atno 7974 bound_to 7965
  156.2558  140.2869  156.0872 H   0  0  0  0  0  0  0  0  0  0  0  0  # atno 8008 bound_to 7997
  155.1502  140.0397  157.2837 H   0  0  0  0  0  0  0  0  0  0  0  0  # atno 8009 bound_to 7997
  154.6466  140.2535  155.7268 H   0  0  0  0  0  0  0  0  0  0  0  0  # atno 8010 bound_to 7997
  139.5502  144.2129  152.1063 H   0  0  0  0  0  0  0  0  0  0  0  0  # atno 10167 bound_to 10162
  156.2204  130.6975  151.0749 H   0  0  0  0  0  0  0  0  0  0  0  0  # atno 10718 bound_to 10713
  153.6931  135.6960  153.5084 H   0  0  0  0  0  0  0  0  0  0  0  0  # atno 10763 bound_to 10752
  153.2398  135.4310  155.0685 H   0  0  0  0  0  0  0  0  0  0  0  0  # atno 10764 bound_to 10752
  154.8367  135.3505  154.6472 H   0  0  0  0  0  0  0  0  0  0  0  0  # atno 10765 bound_to 10752
  139.8849  134.9439  156.6021 H   0  0  0  0  0  0  0  0  0  0  0  0  # atno 11005 bound_to 11000
  145.3062  141.0207  143.3581 LP  0  0  0  0  0  0  0  0  0  0  0  0  # atno 17320 bound_to 7965
  144.8969  139.4700  143.6651 LP  0  0  0  0  0  0  0  0  0  0  0  0  # atno 17321 bound_to 7965
  140.1623  144.5014  150.6625 LP  0  0  0  0  0  0  0  0  0  0  0  0  # atno 17342 bound_to 10162
  140.6762  143.2306  151.5500 LP  0  0  0  0  0  0  0  0  0  0  0  0  # atno 17343 bound_to 10162
  157.7084  131.0745  150.6586 LP  0  0  0  0  0  0  0  0  0  0  0  0  # atno 17370 bound_to 10713
  156.6649  130.4523  149.5676 LP  0  0  0  0  0  0  0  0  0  0  0  0  # atno 17371 bound_to 10713
  140.7876  133.8609  155.8619 LP  0  0  0  0  0  0  0  0  0  0  0  0  # atno 17394 bound_to 11000
  140.9706  134.1537  157.4580 LP  0  0  0  0  0  0  0  0  0  0  0  0  # atno 17395 bound_to 11000

$$$$
