AV-unprocessed.smi:758|AV-procd|sdf|3618|dock7
  -GOLD-   22720 1 13D 1   1.00000     0.00000
 Structure written by MMmdl.
 47 48  0  0  0  0  0  0  0  0  1 V2000
  150.4337  143.9264  159.6478 C   0  0  0  0  0  0  0  0  0  0  0  0
  151.8359  143.6911  159.0443 C   0  0  0  0  0  0  0  0  0  0  0  0
  152.2394  144.9504  158.2452 C   0  0  0  0  0  0  0  0  0  0  0  0
  152.8489  143.5552  160.2031 C   0  0  0  0  0  0  0  0  0  0  0  0
  151.8843  142.4194  158.1267 C   0  0  2  0  0  0  0  0  0  0  0  0
  150.6551  142.2580  157.1940 C   0  0  0  0  0  0  0  0  0  0  0  0
  150.7728  141.0302  156.2714 C   0  0  0  0  0  0  0  0  0  0  0  0
  151.0172  139.7174  157.0461 C   0  0  2  0  0  0  0  0  0  0  0  0
  151.3140  138.7323  156.0740 O   0  0  0  0  0  0  0  0  0  0  0  0
  149.7372  139.2398  157.7822 C   0  0  0  0  0  0  0  0  0  0  0  0
  149.9200  137.9551  158.4551 N   0  0  0  0  0  0  0  0  0  0  0  0
  148.9711  137.2629  159.1059 C   0  0  0  0  0  0  0  0  0  0  0  0
  147.8014  137.6326  159.2044 O   0  0  0  0  0  0  0  0  0  0  0  0
  149.4122  135.9509  159.7561 C   0  0  0  0  0  0  0  0  0  0  0  0
  148.8254  135.7938  161.0744 N   0  0  0  0  0  0  0  0  0  0  0  0
  148.5717  134.6944  161.7870 C   0  0  0  0  0  0  0  0  0  0  0  0
  148.0157  134.9364  162.9658 N   0  0  0  0  0  0  0  0  0  0  0  0
  147.9510  136.3002  162.9116 C   0  0  0  0  0  0  0  0  0  0  0  0
  148.4232  136.8640  161.7997 N   0  0  0  0  0  0  0  0  0  0  0  0
  152.2594  139.8911  157.9480 C   0  0  0  0  0  0  0  0  0  0  0  0
  152.1236  141.0940  158.8956 C   0  0  0  0  0  0  0  0  0  0  0  0
  150.4219  144.8232  160.2682 H   0  0  0  0  0  0  0  0  0  0  0  0
  150.1175  143.1002  160.2840 H   0  0  0  0  0  0  0  0  0  0  0  0
  149.6741  144.0627  158.8788 H   0  0  0  0  0  0  0  0  0  0  0  0
  151.4960  145.2169  157.4942 H   0  0  0  0  0  0  0  0  0  0  0  0
  153.1942  144.8116  157.7367 H   0  0  0  0  0  0  0  0  0  0  0  0
  152.3415  145.8188  158.8971 H   0  0  0  0  0  0  0  0  0  0  0  0
  152.9143  144.4768  160.7828 H   0  0  0  0  0  0  0  0  0  0  0  0
  153.8507  143.3331  159.8336 H   0  0  0  0  0  0  0  0  0  0  0  0
  152.5715  142.7705  160.9060 H   0  0  0  0  0  0  0  0  0  0  0  0
  152.7456  142.5502  157.4693 H   0  0  0  0  0  0  0  0  0  0  0  0
  149.7390  142.1894  157.7786 H   0  0  0  0  0  0  0  0  0  0  0  0
  150.5397  143.1333  156.5566 H   0  0  0  0  0  0  0  0  0  0  0  0
  149.8767  140.9458  155.6552 H   0  0  0  0  0  0  0  0  0  0  0  0
  151.5982  141.2031  155.5785 H   0  0  0  0  0  0  0  0  0  0  0  0
  152.2485  138.5912  156.0658 H   0  0  0  0  0  0  0  0  0  0  0  0
  149.4129  139.9917  158.5013 H   0  0  0  0  0  0  0  0  0  0  0  0
  148.9110  139.1400  157.0773 H   0  0  0  0  0  0  0  0  0  0  0  0
  150.8540  137.5719  158.4390 H   0  0  0  0  0  0  0  0  0  0  0  0
  149.1156  135.1058  159.1334 H   0  0  0  0  0  0  0  0  0  0  0  0
  150.4999  135.9217  159.8395 H   0  0  0  0  0  0  0  0  0  0  0  0
  148.7959  133.6978  161.4359 H   0  0  0  0  0  0  0  0  0  0  0  0
  147.5437  136.8955  163.7156 H   0  0  0  0  0  0  0  0  0  0  0  0
  152.4622  138.9861  158.5205 H   0  0  0  0  0  0  0  0  0  0  0  0
  153.1412  140.0436  157.3238 H   0  0  0  0  0  0  0  0  0  0  0  0
  153.0327  141.1495  159.4920 H   0  0  0  0  0  0  0  0  0  0  0  0
  151.3100  140.9069  159.5950 H   0  0  0  0  0  0  0  0  0  0  0  0
  1  2  1  0  0  0  0
  1 22  1  0  0  0  0
  1 23  1  0  0  0  0
  1 24  1  0  0  0  0
  2  3  1  0  0  0  0
  2  4  1  0  0  0  0
  2  5  1  0  0  0  0
  3 25  1  0  0  0  0
  3 26  1  0  0  0  0
  3 27  1  0  0  0  0
  4 28  1  0  0  0  0
  4 29  1  0  0  0  0
  4 30  1  0  0  0  0
  5 21  1  0  0  0  0
  5  6  1  0  0  0  0
  5 31  1  0  0  0  0
  6  7  1  0  0  0  0
  6 32  1  0  0  0  0
  6 33  1  0  0  0  0
  7  8  1  0  0  0  0
  7 34  1  0  0  0  0
  7 35  1  0  0  0  0
  8  9  1  0  0  0  0
  8 10  1  0  0  0  0
  8 20  1  0  0  0  0
  9 36  1  0  0  0  0
 10 11  1  0  0  0  0
 10 37  1  0  0  0  0
 10 38  1  0  0  0  0
 11 12  1  0  0  0  0
 11 39  1  0  0  0  0
 12 13  2  0  0  0  0
 12 14  1  0  0  0  0
 14 15  1  0  0  0  0
 14 40  1  0  0  0  0
 14 41  1  0  0  0  0
 15 19  1  0  0  0  0
 15 16  1  0  0  0  0
 16 17  2  0  0  0  0
 16 42  1  0  0  0  0
 17 18  1  0  0  0  0
 18 19  2  0  0  0  0
 18 43  1  0  0  0  0
 20 21  1  0  0  0  0
 20 44  1  0  0  0  0
 20 45  1  0  0  0  0
 21 46  1  0  0  0  0
 21 47  1  0  0  0  0
M  END
> <s_m_source_file>
AV-unprocessed.smi

> <i_m_source_file_index>
758

> <i_lp_mmshare_version>
43012

> <i_f3d_flags>
0

> <s_epik_input>
W0NIM11DKFtDSDNdKShbQ0gzXSlbQ0BASF0oW0NIMl1bQ0gyXTEpW0NIMl1bQ0gyXVtDQEBdMShbT0hdKVtDSDJdW05IXUMoPU8pW0NIMl1uMltjSF1uW2NIXW4y

> <s_epik_cmdline>
J2VwaWtfcHl0aG9uJywgJy1waCcsICc3LjAnLCAnLXRuJywgJzgnLCAnLW1hJywgJzIwMCcsICctbWV0YWxfYmluZGluZycsICctaW1hZScsICc8aW5maWxlLm1hZT4nLCAnLW9tYWUnLCAnPG91dGZpbGUubWFlPic=

> <r_lp_tautomer_probability>
1

> <r_epik_Ionization_Penalty>
1.04836e-05

> <r_epik_Ionization_Penalty_Charging>
0

> <r_epik_Ionization_Penalty_Neutral>
1.04836e-05

> <r_epik_State_Penalty>
-0

> <r_epik_Charging_Adjusted_Penalty>
0

> <i_epik_Tot_Q>
0

> <i_epik_Tot_abs_Q>
0

> <r_epik_Metal_State_Penalty>
-0

> <b_epik_Metal_Only>
0

> <s_lp_Force_Field>
OPLS_2005

> <r_lp_Energy>
24.1988

> <b_lp_Chiralities_Consistent>
1

> <s_lp_Variant>
AV-unprocessed.smi:758-2

> <Gold.Version>
5.8.1

> <Gold.Id.Protein>
6NUR|6NUR_protein|mol2

> <Gold.PLP.Fitness>
46.0421

> <Gold.PLP.PLP>
-43.1721

> <Gold.PLP.part.hbond>
-3.0000

> <Gold.PLP.part.metal>
0.0000

> <Gold.PLP.part.buried>
-6.5319

> <Gold.PLP.part.nonpolar>
-33.8777

> <Gold.PLP.part.repulsive>
0.1477

> <Gold.PLP.ligand.clash>
0.0000

> <Gold.PLP.ligand.torsion>
1.2402

> <Gold.PLP.Chemscore.Hbond>
1.7600

> <Gold.PLP.Chemscore.CHOScore>
0.0000

> <Gold.PLP.Chemscore.Metal>
0.0000

> <Gold.Chemscore.Hbonds>
donor molecule, donor type, donor heavy atom, donor atom, acceptor molecule, acceptor atom, score
      P1  H  6931  6943       L1    19  0.96
      P1  H  6934  6947       L1    13  0.21

> <Gold.PLP.Chemscore.Internal.Correction>
0.0704

> <Gold.Rescore>
     Score         DG    S(hbond)    S(metal)    S(lipo)     H(rot)  DE(clash)    DE(int)     intcor
     13.11     -13.95       1.66        0.00      94.21       3.17       0.11       0.73       ----

> <Gold.Chemscore.Fitness>
13.1083

> <Gold.Chemscore.DG>
-13.9486

> <Gold.Chemscore.ZeroCoef>
-5.4800

> <Gold.Chemscore.Hbond>
1.6620

> <Gold.Chemscore.Metal>
0.0000

> <Gold.Chemscore.Lipo>
94.2142

> <Gold.Chemscore.Internal_Hbond>
0.0000

> <Gold.Chemscore.DEClash>
0.1141

> <Gold.Chemscore.DEInternal>
0.7262

> <Gold.Chemscore.Rot>
3.1663

> <Gold.Chemscore.Internal.Correction>
   9.000000E+99

> <Gold.Chemscore.Hbonds>
donor molecule, donor type, donor heavy atom, donor atom, acceptor molecule, acceptor atom, score
      P1  H  6931  6943       L1    19  0.86
      P1  H  6934  6947       L1    13  0.21

> <Gold.Chemscore.Hbond.Weighted>
-5.5511

> <Gold.Chemscore.Metal.Weighted>
-0.0000

> <Gold.Chemscore.Lipo.Weighted>
-11.0231

> <Gold.Chemscore.Internal_Hbond.Weighted>
0.0000

> <Gold.Chemscore.DEClash.Weighted>
0.1141

> <Gold.Chemscore.DEInternal.Weighted>
0.7262

> <Gold.Chemscore.Rot.Weighted>
8.1056

> <Gold.Chemscore.Internal.Correction.Weighted>
   9.000000E+99

> <Gold.Protein.RotatedTorsions>
[ 6907 6896 6895 6894 ] final -164.44 input  -60.11 | X-H torsion
[ 7974 7965 7964 7962 ] final -106.87 input  175.53 | X-H torsion
[ 8008 7997 7996 7995 ] final  -42.52 input   59.86 | X-H torsion
[ 10167 10162 10161 10158 ] final   76.18 input  -65.29 | X-H torsion
[ 10718 10713 10712 10709 ] final  -78.52 input   66.30 | X-H torsion
[ 10763 10752 10751 10750 ] final -153.91 input  -60.55 | X-H torsion
[ 11005 11000 10999 10996 ] final  133.98 input  -57.11 | X-H torsion

> <Gold.Protein.ActiveResidues>
 VAL166  LYS551  ARG553  GLY616  TRP617  ASP618  TYR619  PRO620  LYS621  CYS622 
 ASP623  PHE694  ASN695  SER759  ASP760  ASP761  ALA762  ILE779  LEU786  VAL792 
 PHE793  MET794  SER795  GLU796  ALA797  LYS798  CYS799  TRP800  GLU811  SER814 

> <Gold.Protein.RotatedAtoms>
  151.4119  133.3724  159.2744 H   0  0  0  0  0  0  0  0  0  0  0  0  # atno 6907 bound_to 6896
  150.9357  134.8770  159.7590 H   0  0  0  0  0  0  0  0  0  0  0  0  # atno 6908 bound_to 6896
  152.5048  134.4067  159.9487 H   0  0  0  0  0  0  0  0  0  0  0  0  # atno 6909 bound_to 6896
  145.2124  140.9102  143.3306 H   0  0  0  0  0  0  0  0  0  0  0  0  # atno 7974 bound_to 7965
  154.3999  140.1471  156.3368 H   0  0  0  0  0  0  0  0  0  0  0  0  # atno 8008 bound_to 7997
  155.8393  140.3462  155.5600 H   0  0  0  0  0  0  0  0  0  0  0  0  # atno 8009 bound_to 7997
  155.8104  140.0883  157.1897 H   0  0  0  0  0  0  0  0  0  0  0  0  # atno 8010 bound_to 7997
  139.9950  144.5729  150.7786 H   0  0  0  0  0  0  0  0  0  0  0  0  # atno 10167 bound_to 10162
  156.0115  130.4520  150.3509 H   0  0  0  0  0  0  0  0  0  0  0  0  # atno 10718 bound_to 10713
  154.7895  135.3202  154.7809 H   0  0  0  0  0  0  0  0  0  0  0  0  # atno 10763 bound_to 10752
  153.8502  135.6863  153.4797 H   0  0  0  0  0  0  0  0  0  0  0  0  # atno 10764 bound_to 10752
  153.1560  135.4680  154.9644 H   0  0  0  0  0  0  0  0  0  0  0  0  # atno 10765 bound_to 10752
  139.9886  134.9523  156.9802 H   0  0  0  0  0  0  0  0  0  0  0  0  # atno 11005 bound_to 11000
  144.9843  139.3752  143.6246 LP  0  0  0  0  0  0  0  0  0  0  0  0  # atno 17320 bound_to 7965
  146.3394  139.8997  142.8796 LP  0  0  0  0  0  0  0  0  0  0  0  0  # atno 17321 bound_to 7965
  140.7440  143.2855  151.3476 LP  0  0  0  0  0  0  0  0  0  0  0  0  # atno 17342 bound_to 10162
  139.6313  144.0716  152.2478 LP  0  0  0  0  0  0  0  0  0  0  0  0  # atno 17343 bound_to 10162
  157.1602  131.0343  151.2844 LP  0  0  0  0  0  0  0  0  0  0  0  0  # atno 17370 bound_to 10713
  157.4318  130.7495  149.6996 LP  0  0  0  0  0  0  0  0  0  0  0  0  # atno 17371 bound_to 10713
  140.4953  134.1152  155.7240 LP  0  0  0  0  0  0  0  0  0  0  0  0  # atno 17394 bound_to 11000
  141.1546  133.8906  157.2010 LP  0  0  0  0  0  0  0  0  0  0  0  0  # atno 17395 bound_to 11000

$$$$
