AV-unprocessed.smi:1320|AV-procd|sdf|5461|dock7
  -GOLD-   22720 5 33D 1   1.00000     0.00000
 Structure written by MMmdl.
 37 38  0  0  0  0  0  0  0  0  2 V2000
  145.8054  138.6533  154.0214 O   0  0  0  0  0  0  0  0  0  0  0  0
  146.6506  138.0893  153.3291 C   0  0  0  0  0  0  0  0  0  0  0  0
  146.3703  137.0629  152.5069 N   0  0  0  0  0  0  0  0  0  0  0  0
  145.0481  136.4777  152.2987 C   0  0  0  0  0  0  0  0  0  0  0  0
  144.8861  135.8377  150.9055 C   0  0  0  0  0  0  0  0  0  0  0  0
  144.8918  134.3189  150.9200 C   0  0  0  0  0  0  0  0  0  0  0  0
  146.0239  133.5806  151.3267 C   0  0  0  0  0  0  0  0  0  0  0  0
  145.9781  132.1714  151.2893 C   0  0  0  0  0  0  0  0  0  0  0  0
  144.8029  131.5305  150.8453 C   0  0  0  0  0  0  0  0  0  0  0  0
  143.7016  132.3163  150.4498 C   0  0  0  0  0  0  0  0  0  0  0  0
  143.7841  133.6637  150.5013 N   0  3  0  0  0  0  0  0  0  0  0  0
  147.9437  138.4573  153.3482 N   0  0  0  0  0  0  0  0  0  0  0  0
  148.5674  139.5281  154.1295 C   0  0  0  0  0  0  0  0  0  0  0  0
  148.2812  139.3418  155.6320 C   0  0  0  0  0  0  0  0  0  0  0  0
  147.8397  140.7105  156.1513 C   0  0  0  0  0  0  0  0  0  0  0  0
  147.1614  141.3646  154.9525 C   0  0  0  0  0  0  0  0  0  0  0  0
  147.9987  140.9127  153.7554 C   0  0  0  0  0  0  0  0  0  0  0  0
  147.1302  136.6705  151.9698 H   0  0  0  0  0  0  0  0  0  0  0  0
  144.8266  135.7443  153.0758 H   0  0  0  0  0  0  0  0  0  0  0  0
  144.3119  137.2727  152.4172 H   0  0  0  0  0  0  0  0  0  0  0  0
  143.9509  136.1766  150.4580 H   0  0  0  0  0  0  0  0  0  0  0  0
  145.6796  136.1901  150.2448 H   0  0  0  0  0  0  0  0  0  0  0  0
  146.9204  134.0865  151.6546 H   0  0  0  0  0  0  0  0  0  0  0  0
  146.8356  131.5897  151.5935 H   0  0  0  0  0  0  0  0  0  0  0  0
  144.7491  130.4522  150.8063 H   0  0  0  0  0  0  0  0  0  0  0  0
  142.7656  131.9115  150.0934 H   0  0  0  0  0  0  0  0  0  0  0  0
  148.5646  137.9440  152.7390 H   0  0  0  0  0  0  0  0  0  0  0  0
  149.6479  139.5226  153.9749 H   0  0  0  0  0  0  0  0  0  0  0  0
  147.4683  138.6296  155.7837 H   0  0  0  0  0  0  0  0  0  0  0  0
  149.1473  138.9603  156.1734 H   0  0  0  0  0  0  0  0  0  0  0  0
  147.1835  140.6382  157.0189 H   0  0  0  0  0  0  0  0  0  0  0  0
  148.7145  141.2939  156.4421 H   0  0  0  0  0  0  0  0  0  0  0  0
  146.1440  140.9842  154.8542 H   0  0  0  0  0  0  0  0  0  0  0  0
  147.1053  142.4499  155.0405 H   0  0  0  0  0  0  0  0  0  0  0  0
  148.8236  141.6114  153.6099 H   0  0  0  0  0  0  0  0  0  0  0  0
  147.4168  140.9109  152.8326 H   0  0  0  0  0  0  0  0  0  0  0  0
  142.9774  134.2126  150.2034 H   0  0  0  0  0  0  0  0  0  0  0  0
  1  2  2  0  0  0  0
  2  3  1  0  0  0  0
  2 12  1  0  0  0  0
  3  4  1  0  0  0  0
  3 18  1  0  0  0  0
  4  5  1  0  0  0  0
  4 19  1  0  0  0  0
  4 20  1  0  0  0  0
  5  6  1  0  0  0  0
  5 21  1  0  0  0  0
  5 22  1  0  0  0  0
  6 11  1  0  0  0  0
  6  7  2  0  0  0  0
  7  8  1  0  0  0  0
  7 23  1  0  0  0  0
  8  9  2  0  0  0  0
  8 24  1  0  0  0  0
  9 10  1  0  0  0  0
  9 25  1  0  0  0  0
 10 11  2  0  0  0  0
 10 26  1  0  0  0  0
 11 37  1  0  0  0  0
 12 13  1  0  0  0  0
 12 27  1  0  0  0  0
 13 17  1  0  0  0  0
 13 14  1  0  0  0  0
 13 28  1  0  0  0  0
 14 15  1  0  0  0  0
 14 29  1  0  0  0  0
 14 30  1  0  0  0  0
 15 16  1  0  0  0  0
 15 31  1  0  0  0  0
 15 32  1  0  0  0  0
 16 17  1  0  0  0  0
 16 33  1  0  0  0  0
 16 34  1  0  0  0  0
 17 35  1  0  0  0  0
 17 36  1  0  0  0  0
M  CHG  1  11   1
M  END
> <s_m_source_file>
AV-unprocessed.smi

> <i_m_source_file_index>
1320

> <i_lp_mmshare_version>
43012

> <i_f3d_flags>
0

> <s_epik_input>
W0NIMl0xW0NIMl1bQ0gyXVtDSDJdW0NIXTFbTkhdQyg9TylbTkhdW0NIMl1bQ0gyXWMyW2NIXVtjSF1bY0hdW2NIXW4y

> <s_epik_cmdline>
J2VwaWtfcHl0aG9uJywgJy1waCcsICc3LjAnLCAnLXRuJywgJzgnLCAnLW1hJywgJzIwMCcsICctbWV0YWxfYmluZGluZycsICctaW1hZScsICc8aW5maWxlLm1hZT4nLCAnLW9tYWUnLCAnPG91dGZpbGUubWFlPic=

> <r_epik_Ionization_Penalty>
1.56194

> <r_epik_Ionization_Penalty_Charging>
1.56188

> <r_epik_Ionization_Penalty_Neutral>
5.76468e-05

> <r_epik_State_Penalty>
1.65696

> <r_epik_Charging_Adjusted_Penalty>
3.21884

> <i_epik_Tot_Q>
1

> <i_epik_Tot_abs_Q>
1

> <r_epik_Metal_State_Penalty>
1.69837

> <b_epik_Metal_Only>
0

> <s_lp_Force_Field>
OPLS_2005

> <r_lp_Energy>
32.6171

> <b_lp_Chiralities_Consistent>
1

> <s_lp_Variant>
AV-unprocessed.smi:1320-2

> <Gold.Version>
5.8.1

> <Gold.Id.Protein>
6NUR|6NUR_protein|mol2

> <Gold.PLP.Fitness>
40.0590

> <Gold.PLP.PLP>
-29.1440

> <Gold.PLP.part.hbond>
-3.5712

> <Gold.PLP.part.metal>
0.0000

> <Gold.PLP.part.buried>
-3.5579

> <Gold.PLP.part.nonpolar>
-23.4537

> <Gold.PLP.part.repulsive>
0.2150

> <Gold.PLP.ligand.clash>
0.0000

> <Gold.PLP.ligand.torsion>
0.5368

> <Gold.PLP.Chemscore.Hbond>
3.9920

> <Gold.PLP.Chemscore.CHOScore>
0.0000

> <Gold.PLP.Chemscore.Metal>
0.0000

> <Gold.Chemscore.Hbonds>
donor molecule, donor type, donor heavy atom, donor atom, acceptor molecule, acceptor atom, score
      L1  H     3    18       P1  7948  0.99
      L1  H    11    37       P1 10186  1.76
      L1  H    12    27       P1  7948  0.96

> <Gold.PLP.Chemscore.Internal.Correction>
0.0125

> <Gold.Rescore>
     Score         DG    S(hbond)    S(metal)    S(lipo)     H(rot)  DE(clash)    DE(int)     intcor
     17.80     -19.11       2.78        0.00      72.08       1.59       0.21       1.10       ----

> <Gold.Chemscore.Fitness>
17.7977

> <Gold.Chemscore.DG>
-19.1082

> <Gold.Chemscore.ZeroCoef>
-5.4800

> <Gold.Chemscore.Hbond>
2.7764

> <Gold.Chemscore.Metal>
0.0000

> <Gold.Chemscore.Lipo>
72.0807

> <Gold.Chemscore.Internal_Hbond>
0.0000

> <Gold.Chemscore.DEClash>
0.2063

> <Gold.Chemscore.DEInternal>
1.1041

> <Gold.Chemscore.Rot>
1.5932

> <Gold.Chemscore.Internal.Correction>
   9.000000E+99

> <Gold.Chemscore.Hbonds>
donor molecule, donor type, donor heavy atom, donor atom, acceptor molecule, acceptor atom, score
      L1  H     3    18       P1  7948  0.94
      L1  H    11    37       P1 10186  0.77
      L1  H    12    27       P1  7948  0.91

> <Gold.Chemscore.Hbond.Weighted>
-9.2733

> <Gold.Chemscore.Metal.Weighted>
-0.0000

> <Gold.Chemscore.Lipo.Weighted>
-8.4334

> <Gold.Chemscore.Internal_Hbond.Weighted>
0.0000

> <Gold.Chemscore.DEClash.Weighted>
0.2063

> <Gold.Chemscore.DEInternal.Weighted>
1.1041

> <Gold.Chemscore.Rot.Weighted>
4.0785

> <Gold.Chemscore.Internal.Correction.Weighted>
   9.000000E+99

> <Gold.Protein.RotatedTorsions>
[ 6907 6896 6895 6894 ] final -166.39 input  -60.11 | X-H torsion
[ 7974 7965 7964 7962 ] final   81.52 input  175.53 | X-H torsion
[ 8008 7997 7996 7995 ] final  145.17 input   59.86 | X-H torsion
[ 10167 10162 10161 10158 ] final  -17.03 input  -65.29 | X-H torsion
[ 10718 10713 10712 10709 ] final   47.44 input   66.30 | X-H torsion
[ 10763 10752 10751 10750 ] final  -26.17 input  -60.55 | X-H torsion
[ 11005 11000 10999 10996 ] final -106.99 input  -57.11 | X-H torsion

> <Gold.Protein.ActiveResidues>
 VAL166  LYS551  ARG553  GLY616  TRP617  ASP618  TYR619  PRO620  LYS621  CYS622 
 ASP623  PHE694  ASN695  SER759  ASP760  ASP761  ALA762  ILE779  LEU786  VAL792 
 PHE793  MET794  SER795  GLU796  ALA797  LYS798  CYS799  TRP800  GLU811  SER814 

> <Gold.Protein.RotatedAtoms>
  151.4429  133.3638  159.2784 H   0  0  0  0  0  0  0  0  0  0  0  0  # atno 6907 bound_to 6896
  150.9145  134.8564  159.7458 H   0  0  0  0  0  0  0  0  0  0  0  0  # atno 6908 bound_to 6896
  152.4950  134.4361  159.9580 H   0  0  0  0  0  0  0  0  0  0  0  0  # atno 6909 bound_to 6896
  145.6370  139.2417  143.2052 H   0  0  0  0  0  0  0  0  0  0  0  0  # atno 7974 bound_to 7965
  156.2890  140.2216  156.5172 H   0  0  0  0  0  0  0  0  0  0  0  0  # atno 8008 bound_to 7997
  154.7559  140.0477  157.0954 H   0  0  0  0  0  0  0  0  0  0  0  0  # atno 8009 bound_to 7997
  155.0051  140.3106  155.4855 H   0  0  0  0  0  0  0  0  0  0  0  0  # atno 8010 bound_to 7997
  140.7242  143.5056  150.9814 H   0  0  0  0  0  0  0  0  0  0  0  0  # atno 10167 bound_to 10162
  157.4585  130.8181  149.7861 H   0  0  0  0  0  0  0  0  0  0  0  0  # atno 10718 bound_to 10713
  153.7115  135.6950  153.5036 H   0  0  0  0  0  0  0  0  0  0  0  0  # atno 10763 bound_to 10752
  153.2269  135.4351  155.0551 H   0  0  0  0  0  0  0  0  0  0  0  0  # atno 10764 bound_to 10752
  154.8313  135.3474  154.6652 H   0  0  0  0  0  0  0  0  0  0  0  0  # atno 10765 bound_to 10752
  141.0977  133.8941  157.1922 H   0  0  0  0  0  0  0  0  0  0  0  0  # atno 11005 bound_to 11000
  146.1311  140.7184  142.9412 LP  0  0  0  0  0  0  0  0  0  0  0  0  # atno 17320 bound_to 7965
  144.7172  140.4249  143.7036 LP  0  0  0  0  0  0  0  0  0  0  0  0  # atno 17321 bound_to 7965
  139.8768  143.7123  152.3161 LP  0  0  0  0  0  0  0  0  0  0  0  0  # atno 17342 bound_to 10162
  139.7391  144.7564  151.0681 LP  0  0  0  0  0  0  0  0  0  0  0  0  # atno 17343 bound_to 10162
  156.0018  130.3876  150.2578 LP  0  0  0  0  0  0  0  0  0  0  0  0  # atno 17370 bound_to 10713
  157.0754  131.0128  151.3175 LP  0  0  0  0  0  0  0  0  0  0  0  0  # atno 17371 bound_to 10713
  139.9818  135.0095  156.9768 LP  0  0  0  0  0  0  0  0  0  0  0  0  # atno 17394 bound_to 11000
  140.5100  134.1012  155.7268 LP  0  0  0  0  0  0  0  0  0  0  0  0  # atno 17395 bound_to 11000

$$$$
