AV-unprocessed.smi:99|AV-procd|sdf|868|dock1
  -GOLD-   2262017323D 1   1.00000     0.00000
 Structure written by MMmdl.
 53 56  0  0  0  0  0  0  0  0  1 V2000
  143.9967  134.8489  154.0467 O   0  0  0  0  0  0  0  0  0  0  0  0
  144.9837  134.3501  153.5018 C   0  0  0  0  0  0  0  0  0  0  0  0
  146.2206  134.3734  154.0350 O   0  0  0  0  0  0  0  0  0  0  0  0
  146.4363  134.9876  155.2944 C   0  0  0  0  0  0  0  0  0  0  0  0
  147.9492  135.1520  155.5233 C   0  0  1  0  0  0  0  0  0  0  0  0
  148.4451  136.1454  154.6284 O   0  0  0  0  0  0  0  0  0  0  0  0
  148.4772  137.4026  155.2459 C   0  0  2  0  0  0  0  0  0  0  0  0
  149.8596  137.9902  155.0779 N   0  0  0  0  0  0  0  0  0  0  0  0
  150.8684  137.2841  154.4357 C   0  0  0  0  0  0  0  0  0  0  0  0
  152.1229  137.7678  154.2774 C   0  0  0  0  0  0  0  0  0  0  0  0
  152.4786  139.0855  154.7934 C   0  0  0  0  0  0  0  0  0  0  0  0
  153.5855  139.6101  154.6942 O   0  0  0  0  0  0  0  0  0  0  0  0
  151.4379  139.7539  155.4446 N   0  0  0  0  0  0  0  0  0  0  0  0
  150.1429  139.2635  155.6194 C   0  0  0  0  0  0  0  0  0  0  0  0
  149.3104  139.9319  156.2308 O   0  0  0  0  0  0  0  0  0  0  0  0
  148.1555  137.2206  156.7383 C   0  0  1  0  0  0  0  0  0  0  0  0
  146.8362  137.6481  157.0224 O   0  0  0  0  0  0  0  0  0  0  0  0
  148.3292  135.7149  156.8932 C   0  0  1  0  0  0  0  0  0  0  0  0
  147.6183  135.1468  157.9883 O   0  0  0  0  0  0  0  0  0  0  0  0
  148.0639  135.2923  159.2543 C   0  0  0  0  0  0  0  0  0  0  0  0
  149.0997  135.8918  159.5491 O   0  0  0  0  0  0  0  0  0  0  0  0
  147.1650  134.6573  160.2605 C   0  0  0  0  0  0  0  0  0  0  0  0
  146.0533  133.9033  159.8178 C   0  0  0  0  0  0  0  0  0  0  0  0
  145.1868  133.2909  160.7442 C   0  0  0  0  0  0  0  0  0  0  0  0
  145.4213  133.4260  162.1250 C   0  0  0  0  0  0  0  0  0  0  0  0
  146.5236  134.1737  162.5782 C   0  0  0  0  0  0  0  0  0  0  0  0
  147.3918  134.7861  161.6534 C   0  0  0  0  0  0  0  0  0  0  0  0
  144.9331  133.6601  152.1802 C   0  0  0  0  0  0  0  0  0  0  0  0
  143.6841  133.2401  151.6658 C   0  0  0  0  0  0  0  0  0  0  0  0
  143.6037  132.5896  150.4191 C   0  0  0  0  0  0  0  0  0  0  0  0
  144.7716  132.3499  149.6721 C   0  0  0  0  0  0  0  0  0  0  0  0
  146.0203  132.7610  150.1736 C   0  0  0  0  0  0  0  0  0  0  0  0
  146.1027  133.4127  151.4199 C   0  0  0  0  0  0  0  0  0  0  0  0
  151.6417  140.6666  155.8253 H   0  0  0  0  0  0  0  0  0  0  0  0
  145.9245  135.9496  155.3375 H   0  0  0  0  0  0  0  0  0  0  0  0
  146.0066  134.3506  156.0686 H   0  0  0  0  0  0  0  0  0  0  0  0
  148.4528  134.1998  155.3540 H   0  0  0  0  0  0  0  0  0  0  0  0
  147.7849  138.0615  154.7180 H   0  0  0  0  0  0  0  0  0  0  0  0
  150.6604  136.3004  154.0413 H   0  0  0  0  0  0  0  0  0  0  0  0
  152.8689  137.1758  153.7667 H   0  0  0  0  0  0  0  0  0  0  0  0
  148.8495  137.7811  157.3666 H   0  0  0  0  0  0  0  0  0  0  0  0
  146.2372  136.9655  156.7604 H   0  0  0  0  0  0  0  0  0  0  0  0
  149.3935  135.5121  157.0238 H   0  0  0  0  0  0  0  0  0  0  0  0
  145.8526  133.7857  158.7626 H   0  0  0  0  0  0  0  0  0  0  0  0
  144.3416  132.7168  160.3944 H   0  0  0  0  0  0  0  0  0  0  0  0
  144.7567  132.9563  162.8351 H   0  0  0  0  0  0  0  0  0  0  0  0
  146.7046  134.2782  163.6379 H   0  0  0  0  0  0  0  0  0  0  0  0
  148.2284  135.3525  162.0360 H   0  0  0  0  0  0  0  0  0  0  0  0
  142.7736  133.4141  152.2209 H   0  0  0  0  0  0  0  0  0  0  0  0
  142.6441  132.2750  150.0361 H   0  0  0  0  0  0  0  0  0  0  0  0
  144.7097  131.8513  148.7160 H   0  0  0  0  0  0  0  0  0  0  0  0
  146.9176  132.5765  149.6015 H   0  0  0  0  0  0  0  0  0  0  0  0
  147.0768  133.7152  151.7755 H   0  0  0  0  0  0  0  0  0  0  0  0
  1  2  2  0  0  0  0
  2  3  1  0  0  0  0
  2 28  1  0  0  0  0
  3  4  1  0  0  0  0
  4  5  1  0  0  0  0
  4 35  1  0  0  0  0
  4 36  1  0  0  0  0
  5 18  1  0  0  0  0
  5  6  1  0  0  0  0
  5 37  1  0  0  0  0
  6  7  1  0  0  0  0
  7  8  1  0  0  0  0
  7 16  1  0  0  0  0
  7 38  1  0  0  0  0
  8 14  1  0  0  0  0
  8  9  1  0  0  0  0
  9 10  2  0  0  0  0
  9 39  1  0  0  0  0
 10 11  1  0  0  0  0
 10 40  1  0  0  0  0
 11 12  2  0  0  0  0
 11 13  1  0  0  0  0
 13 34  1  0  0  0  0
 13 14  1  0  0  0  0
 14 15  2  0  0  0  0
 16 17  1  0  0  0  0
 16 18  1  0  0  0  0
 16 41  1  0  0  0  0
 17 42  1  0  0  0  0
 18 19  1  0  0  0  0
 18 43  1  0  0  0  0
 19 20  1  0  0  0  0
 20 21  2  0  0  0  0
 20 22  1  0  0  0  0
 22 27  1  0  0  0  0
 22 23  2  0  0  0  0
 23 24  1  0  0  0  0
 23 44  1  0  0  0  0
 24 25  2  0  0  0  0
 24 45  1  0  0  0  0
 25 26  1  0  0  0  0
 25 46  1  0  0  0  0
 26 27  2  0  0  0  0
 26 47  1  0  0  0  0
 27 48  1  0  0  0  0
 28 33  1  0  0  0  0
 28 29  2  0  0  0  0
 29 30  1  0  0  0  0
 29 49  1  0  0  0  0
 30 31  2  0  0  0  0
 30 50  1  0  0  0  0
 31 32  1  0  0  0  0
 31 51  1  0  0  0  0
 32 33  2  0  0  0  0
 32 52  1  0  0  0  0
 33 53  1  0  0  0  0
M  END
> <s_m_source_file>
AV-unprocessed.smi

> <i_m_source_file_index>
99

> <i_lp_mmshare_version>
43012

> <i_f3d_flags>
0

> <s_epik_input>
W2NIXTFbY0hdW2NIXVtjSF1bY0hdYzFDKD1PKU9bQ0gyXVtDQEBIXTJPW0NAQEhdKG4zW2NIXVtjSF1jKD1PKVtuSF1jMz1PKVtDQEBIXShbT0hdKVtDQEhdMk9DKD1PKWM0W2NIXVtjSF1bY0hdW2NIXVtjSF00

> <s_epik_cmdline>
J2VwaWtfcHl0aG9uJywgJy1waCcsICc3LjAnLCAnLXRuJywgJzgnLCAnLW1hJywgJzIwMCcsICctbWV0YWxfYmluZGluZycsICctaW1hZScsICc8aW5maWxlLm1hZT4nLCAnLW9tYWUnLCAnPG91dGZpbGUubWFlPic=

> <r_lp_tautomer_probability>
1

> <r_epik_Ionization_Penalty>
0.00454555

> <r_epik_Ionization_Penalty_Charging>
0.0045191

> <r_epik_Ionization_Penalty_Neutral>
2.64449e-05

> <r_epik_State_Penalty>
-0

> <r_epik_Charging_Adjusted_Penalty>
0.0045191

> <i_epik_Tot_Q>
0

> <i_epik_Tot_abs_Q>
0

> <r_epik_Metal_State_Penalty>
1.27877

> <b_epik_Metal_Only>
0

> <s_epik_Chemistry_Notes>
This compound has an ester and may undergo hydrolysis at high or low pH. This compound contains an acetal/aminal-like group ( X-CH(R)-Y where X, Y are N, S, or O) that may be acid/base labile, releasing an aldehyde.

> <s_lp_Force_Field>
OPLS_2005

> <r_lp_Energy>
39.5306

> <b_lp_Chiralities_Consistent>
1

> <s_lp_Variant>
AV-unprocessed.smi:99-4

> <Gold.Version>
5.8.1

> <Gold.Id.Protein>
6NUR|6NUR_protein|mol2

> <Gold.PLP.Fitness>
47.7105

> <Gold.PLP.PLP>
-40.7235

> <Gold.PLP.part.hbond>
-3.0000

> <Gold.PLP.part.metal>
0.0000

> <Gold.PLP.part.buried>
-3.6233

> <Gold.PLP.part.nonpolar>
-36.1982

> <Gold.PLP.part.repulsive>
2.5083

> <Gold.PLP.ligand.clash>
0.0000

> <Gold.PLP.ligand.torsion>
0.3460

> <Gold.PLP.Chemscore.Hbond>
2.0000

> <Gold.PLP.Chemscore.CHOScore>
0.5031

> <Gold.PLP.Chemscore.Metal>
0.0000

> <Gold.Chemscore.Hbonds>
donor molecule, donor type, donor heavy atom, donor atom, acceptor molecule, acceptor atom, score
      P1  H  6896  6909       L1    21  1.00
      P1  H  7997  8008       L1    12  1.00
      L1  C     9    39       P1  7948  0.15
      L1  C     9    39       P1  7949  0.36

> <Gold.PLP.Chemscore.Internal.Correction>
0.1695

> <Gold.Rescore>
     Score         DG    S(hbond)    S(metal)    S(lipo)     H(rot)  DE(clash)    DE(int)     intcor
     14.80     -16.02       1.98        0.00     103.25       3.19       0.83       0.39       ----

> <Gold.Chemscore.Fitness>
14.8047

> <Gold.Chemscore.DG>
-16.0202

> <Gold.Chemscore.ZeroCoef>
-5.4800

> <Gold.Chemscore.Hbond>
1.9843

> <Gold.Chemscore.Metal>
0.0000

> <Gold.Chemscore.Lipo>
103.2466

> <Gold.Chemscore.Internal_Hbond>
0.0000

> <Gold.Chemscore.DEClash>
0.8255

> <Gold.Chemscore.DEInternal>
0.3900

> <Gold.Chemscore.Rot>
3.1903

> <Gold.Chemscore.Internal.Correction>
   9.000000E+99

> <Gold.Chemscore.Hbonds>
donor molecule, donor type, donor heavy atom, donor atom, acceptor molecule, acceptor atom, score
      P1  H  6896  6909       L1    21  0.77
      P1  H  7997  8008       L1    12  0.97

> <Gold.Chemscore.Hbond.Weighted>
-6.6274

> <Gold.Chemscore.Metal.Weighted>
-0.0000

> <Gold.Chemscore.Lipo.Weighted>
-12.0799

> <Gold.Chemscore.Internal_Hbond.Weighted>
0.0000

> <Gold.Chemscore.DEClash.Weighted>
0.8255

> <Gold.Chemscore.DEInternal.Weighted>
0.3900

> <Gold.Chemscore.Rot.Weighted>
8.1671

> <Gold.Chemscore.Internal.Correction.Weighted>
   9.000000E+99

> <Gold.Protein.RotatedTorsions>
[ 6907 6896 6895 6894 ] final   53.78 input  -60.11 | X-H torsion
[ 7974 7965 7964 7962 ] final -108.37 input  175.53 | X-H torsion
[ 8008 7997 7996 7995 ] final    7.99 input   59.86 | X-H torsion
[ 10167 10162 10161 10158 ] final  -29.99 input  -65.29 | X-H torsion
[ 10718 10713 10712 10709 ] final -145.83 input   66.30 | X-H torsion
[ 10763 10752 10751 10750 ] final -112.42 input  -60.55 | X-H torsion
[ 11005 11000 10999 10996 ] final   79.41 input  -57.11 | X-H torsion

> <Gold.Protein.ActiveResidues>
 VAL166  LYS551  ARG553  GLY616  TRP617  ASP618  TYR619  PRO620  LYS621  CYS622 
 ASP623  PHE694  ASN695  SER759  ASP760  ASP761  ALA762  ILE779  LEU786  VAL792 
 PHE793  MET794  SER795  GLU796  ALA797  LYS798  CYS799  TRP800  GLU811  SER814 

> <Gold.Protein.RotatedAtoms>
  152.3372  134.7182  160.0273 H   0  0  0  0  0  0  0  0  0  0  0  0  # atno 6907 bound_to 6896
  151.7580  133.3326  159.3418 H   0  0  0  0  0  0  0  0  0  0  0  0  # atno 6908 bound_to 6896
  150.7457  134.6064  159.6108 H   0  0  0  0  0  0  0  0  0  0  0  0  # atno 6909 bound_to 6896
  145.1937  140.9026  143.3410 H   0  0  0  0  0  0  0  0  0  0  0  0  # atno 7974 bound_to 7965
  154.7610  140.2784  155.6214 H   0  0  0  0  0  0  0  0  0  0  0  0  # atno 8008 bound_to 7997
  156.2915  140.2660  156.2316 H   0  0  0  0  0  0  0  0  0  0  0  0  # atno 8009 bound_to 7997
  155.0017  140.0372  157.2353 H   0  0  0  0  0  0  0  0  0  0  0  0  # atno 8010 bound_to 7997
  140.7254  143.3884  151.1474 H   0  0  0  0  0  0  0  0  0  0  0  0  # atno 10167 bound_to 10162
  156.3873  130.7868  151.2066 H   0  0  0  0  0  0  0  0  0  0  0  0  # atno 10718 bound_to 10713
  154.8348  135.4491  154.1191 H   0  0  0  0  0  0  0  0  0  0  0  0  # atno 10763 bound_to 10752
  153.2432  135.6918  153.7766 H   0  0  0  0  0  0  0  0  0  0  0  0  # atno 10764 bound_to 10752
  153.7106  135.3357  155.3221 H   0  0  0  0  0  0  0  0  0  0  0  0  # atno 10765 bound_to 10752
  139.9174  134.7840  156.1775 H   0  0  0  0  0  0  0  0  0  0  0  0  # atno 11005 bound_to 11000
  145.0016  139.3593  143.6165 LP  0  0  0  0  0  0  0  0  0  0  0  0  # atno 17320 bound_to 7965
  146.3431  139.9241  142.8762 LP  0  0  0  0  0  0  0  0  0  0  0  0  # atno 17321 bound_to 7965
  139.7485  143.8815  152.3070 LP  0  0  0  0  0  0  0  0  0  0  0  0  # atno 17342 bound_to 10162
  139.8660  144.7093  150.9043 LP  0  0  0  0  0  0  0  0  0  0  0  0  # atno 17343 bound_to 10162
  157.7497  131.0326  150.4234 LP  0  0  0  0  0  0  0  0  0  0  0  0  # atno 17370 bound_to 10713
  156.4489  130.4007  149.6649 LP  0  0  0  0  0  0  0  0  0  0  0  0  # atno 17371 bound_to 10713
  141.0662  133.6818  156.2050 LP  0  0  0  0  0  0  0  0  0  0  0  0  # atno 17394 bound_to 11000
  140.6581  134.4997  157.5582 LP  0  0  0  0  0  0  0  0  0  0  0  0  # atno 17395 bound_to 11000

$$$$
