AV-unprocessed.smi:2124|AV-procd|sdf|8657|dock9
  -GOLD-   2272011403D 1   1.00000     0.00000
 Structure written by MMmdl.
 47 49  0  0  0  0  0  0  0  0  1 V2000
  153.5067  142.3137  162.6122 C   0  0  0  0  0  0  0  0  0  0  0  0
  153.0223  142.6049  161.2073 C   0  0  0  0  0  0  0  0  0  0  0  0
  152.5614  143.7507  160.8261 N   0  0  0  0  0  0  0  0  0  0  0  0
  152.1398  143.8991  159.4973 C   0  0  0  0  0  0  0  0  0  0  0  0
  151.6056  145.2723  159.1275 C   0  0  0  0  0  0  0  0  0  0  0  0
  152.2071  142.8674  158.6054 C   0  0  0  0  0  0  0  0  0  0  0  0
  151.7476  142.9983  157.1540 C   0  0  0  0  0  0  0  0  0  0  0  0
  150.6575  142.0171  156.7164 C   0  0  0  0  0  0  0  0  0  0  0  0
  150.9614  140.8887  156.3290 O   0  0  0  0  0  0  0  0  0  0  0  0
  149.3929  142.4615  156.7929 N   0  0  0  0  0  0  0  0  0  0  0  0
  148.1880  141.6964  156.4738 C   0  0  1  0  0  0  0  0  0  0  0  0
  146.9663  142.4710  156.9920 C   0  0  0  0  0  0  0  0  0  0  0  0
  148.1186  141.4328  154.9495 C   0  0  1  0  0  0  0  0  0  0  0  0
  148.9960  140.2626  154.4465 C   0  0  0  0  0  0  0  0  0  0  0  0
  148.0205  139.4414  153.5836 C   0  0  1  0  0  0  0  0  0  0  0  0
  147.0478  138.6867  154.5082 C   0  0  0  0  0  0  0  0  0  0  0  0
  146.1342  139.8119  155.0265 C   0  0  0  0  0  0  0  0  0  0  0  0
  146.7305  141.0708  154.3632 C   0  0  2  0  0  0  0  0  0  0  0  0
  147.1225  140.5228  152.9946 C   0  0  0  0  0  0  0  0  0  0  0  0
  152.7366  141.5640  159.0512 C   0  0  0  0  0  0  0  0  0  0  0  0
  152.8380  140.5692  158.3352 O   0  0  0  0  0  0  0  0  0  0  0  0
  153.1188  141.5126  160.3468 N   0  0  0  0  0  0  0  0  0  0  0  0
  153.4868  140.6418  160.7007 H   0  0  0  0  0  0  0  0  0  0  0  0
  152.6931  142.4492  163.3250 H   0  0  0  0  0  0  0  0  0  0  0  0
  154.3144  142.9953  162.8796 H   0  0  0  0  0  0  0  0  0  0  0  0
  153.8769  141.2922  162.7072 H   0  0  0  0  0  0  0  0  0  0  0  0
  152.2180  145.7249  158.3474 H   0  0  0  0  0  0  0  0  0  0  0  0
  151.6104  145.9440  159.9870 H   0  0  0  0  0  0  0  0  0  0  0  0
  150.5792  145.2014  158.7670 H   0  0  0  0  0  0  0  0  0  0  0  0
  151.3926  144.0178  156.9976 H   0  0  0  0  0  0  0  0  0  0  0  0
  152.5912  142.8919  156.4715 H   0  0  0  0  0  0  0  0  0  0  0  0
  149.2500  143.4070  157.1172 H   0  0  0  0  0  0  0  0  0  0  0  0
  148.2195  140.7433  157.0018 H   0  0  0  0  0  0  0  0  0  0  0  0
  146.0454  141.9074  156.8424 H   0  0  0  0  0  0  0  0  0  0  0  0
  146.8573  143.4290  156.4828 H   0  0  0  0  0  0  0  0  0  0  0  0
  147.0531  142.6694  158.0609 H   0  0  0  0  0  0  0  0  0  0  0  0
  148.4535  142.3414  154.4449 H   0  0  0  0  0  0  0  0  0  0  0  0
  149.8280  140.6386  153.8500 H   0  0  0  0  0  0  0  0  0  0  0  0
  149.4154  139.6611  155.2535 H   0  0  0  0  0  0  0  0  0  0  0  0
  148.5152  138.8003  152.8535 H   0  0  0  0  0  0  0  0  0  0  0  0
  146.4698  137.9488  153.9506 H   0  0  0  0  0  0  0  0  0  0  0  0
  147.5649  138.1662  155.3152 H   0  0  0  0  0  0  0  0  0  0  0  0
  145.1110  139.6527  154.6833 H   0  0  0  0  0  0  0  0  0  0  0  0
  146.1029  139.8650  156.1137 H   0  0  0  0  0  0  0  0  0  0  0  0
  146.0389  141.9131  154.3262 H   0  0  0  0  0  0  0  0  0  0  0  0
  147.6611  141.2418  152.3745 H   0  0  0  0  0  0  0  0  0  0  0  0
  146.2790  140.1237  152.4282 H   0  0  0  0  0  0  0  0  0  0  0  0
  1  2  1  0  0  0  0
  1 24  1  0  0  0  0
  1 25  1  0  0  0  0
  1 26  1  0  0  0  0
  2 22  1  0  0  0  0
  2  3  2  0  0  0  0
  3  4  1  0  0  0  0
  4  5  1  0  0  0  0
  4  6  2  0  0  0  0
  5 27  1  0  0  0  0
  5 28  1  0  0  0  0
  5 29  1  0  0  0  0
  6  7  1  0  0  0  0
  6 20  1  0  0  0  0
  7  8  1  0  0  0  0
  7 30  1  0  0  0  0
  7 31  1  0  0  0  0
  8  9  2  0  0  0  0
  8 10  1  0  0  0  0
 10 11  1  0  0  0  0
 10 32  1  0  0  0  0
 11 12  1  0  0  0  0
 11 13  1  0  0  0  0
 11 33  1  0  0  0  0
 12 34  1  0  0  0  0
 12 35  1  0  0  0  0
 12 36  1  0  0  0  0
 13 18  1  0  0  0  0
 13 14  1  0  0  0  0
 13 37  1  0  0  0  0
 14 15  1  0  0  0  0
 14 38  1  0  0  0  0
 14 39  1  0  0  0  0
 15 19  1  0  0  0  0
 15 16  1  0  0  0  0
 15 40  1  0  0  0  0
 16 17  1  0  0  0  0
 16 41  1  0  0  0  0
 16 42  1  0  0  0  0
 17 18  1  0  0  0  0
 17 43  1  0  0  0  0
 17 44  1  0  0  0  0
 18 19  1  0  0  0  0
 18 45  1  0  0  0  0
 19 46  1  0  0  0  0
 19 47  1  0  0  0  0
 20 21  2  0  0  0  0
 20 22  1  0  0  0  0
 22 23  1  0  0  0  0
M  END
> <s_m_source_file>
AV-unprocessed.smi

> <i_m_source_file_index>
2124

> <i_lp_mmshare_version>
43012

> <i_f3d_flags>
0

> <s_epik_input>
W0NIM11jMW5jKFtDSDNdKWMoYyg9TylbbkhdMSlbQ0gyXUMoPU8pW05IXVtDQEhdKFtDSDNdKVtDQEhdKFtDSDJdW0NASF0yMylbQ0BIXShbQ0gyXTMpW0NIMl1bQ0gyXTI=

> <s_epik_cmdline>
J2VwaWtfcHl0aG9uJywgJy1waCcsICc3LjAnLCAnLXRuJywgJzgnLCAnLW1hJywgJzIwMCcsICctbWV0YWxfYmluZGluZycsICctaW1hZScsICc8aW5maWxlLm1hZT4nLCAnLW9tYWUnLCAnPG91dGZpbGUubWFlPic=

> <r_lp_tautomer_probability>
0.839158

> <r_epik_Ionization_Penalty>
0.000383628

> <r_epik_Ionization_Penalty_Charging>
0.00035045

> <r_epik_Ionization_Penalty_Neutral>
3.31781e-05

> <r_epik_State_Penalty>
0.09125

> <r_epik_Charging_Adjusted_Penalty>
0.0916005

> <i_epik_Tot_Q>
0

> <i_epik_Tot_abs_Q>
0

> <r_epik_Metal_State_Penalty>
0.255229

> <b_epik_Metal_Only>
0

> <s_lp_Force_Field>
OPLS_2005

> <r_lp_Energy>
52.5586

> <b_lp_Chiralities_Consistent>
1

> <s_lp_Variant>
AV-unprocessed.smi:2124-8

> <Gold.Version>
5.8.1

> <Gold.Id.Protein>
6NUR|6NUR_protein|mol2

> <Gold.PLP.Fitness>
41.3529

> <Gold.PLP.PLP>
-40.9102

> <Gold.PLP.part.hbond>
-2.0000

> <Gold.PLP.part.metal>
0.0000

> <Gold.PLP.part.buried>
-3.3195

> <Gold.PLP.part.nonpolar>
-35.2447

> <Gold.PLP.part.repulsive>
0.1994

> <Gold.PLP.ligand.clash>
0.0000

> <Gold.PLP.ligand.torsion>
0.8560

> <Gold.PLP.Chemscore.Hbond>
0.7121

> <Gold.PLP.Chemscore.CHOScore>
0.0000

> <Gold.PLP.Chemscore.Metal>
0.0000

> <Gold.Chemscore.Hbonds>
donor molecule, donor type, donor heavy atom, donor atom, acceptor molecule, acceptor atom, score
      L1  H    10    32       P1  8028  0.30
      P1  H  7997  8008       L1    21  0.37

> <Gold.PLP.Chemscore.Internal.Correction>
0.0182

> <Gold.Rescore>
     Score         DG    S(hbond)    S(metal)    S(lipo)     H(rot)  DE(clash)    DE(int)     intcor
     10.84     -15.70       0.90        0.00      97.69       1.65       1.20       3.65       ----

> <Gold.Chemscore.Fitness>
10.8416

> <Gold.Chemscore.DG>
-15.6951

> <Gold.Chemscore.ZeroCoef>
-5.4800

> <Gold.Chemscore.Hbond>
0.9036

> <Gold.Chemscore.Metal>
0.0000

> <Gold.Chemscore.Lipo>
97.6904

> <Gold.Chemscore.Internal_Hbond>
0.0000

> <Gold.Chemscore.DEClash>
1.2020

> <Gold.Chemscore.DEInternal>
3.6515

> <Gold.Chemscore.Rot>
1.6534

> <Gold.Chemscore.Internal.Correction>
   9.000000E+99

> <Gold.Chemscore.Hbonds>
donor molecule, donor type, donor heavy atom, donor atom, acceptor molecule, acceptor atom, score
      L1  H    10    32       P1  8028  0.24
      P1  H  7997  8008       L1    21  0.35

> <Gold.Chemscore.Hbond.Weighted>
-3.0179

> <Gold.Chemscore.Metal.Weighted>
-0.0000

> <Gold.Chemscore.Lipo.Weighted>
-11.4298

> <Gold.Chemscore.Internal_Hbond.Weighted>
0.0000

> <Gold.Chemscore.DEClash.Weighted>
1.2020

> <Gold.Chemscore.DEInternal.Weighted>
3.6515

> <Gold.Chemscore.Rot.Weighted>
4.2326

> <Gold.Chemscore.Internal.Correction.Weighted>
   9.000000E+99

> <Gold.Protein.RotatedTorsions>
[ 6907 6896 6895 6894 ] final   24.72 input  -60.11 | X-H torsion
[ 7974 7965 7964 7962 ] final  -49.90 input  175.53 | X-H torsion
[ 8008 7997 7996 7995 ] final  -87.49 input   59.86 | X-H torsion
[ 10167 10162 10161 10158 ] final    3.03 input  -65.29 | X-H torsion
[ 10718 10713 10712 10709 ] final   71.53 input   66.30 | X-H torsion
[ 10763 10752 10751 10750 ] final  179.68 input  -60.55 | X-H torsion
[ 11005 11000 10999 10996 ] final -157.81 input  -57.11 | X-H torsion

> <Gold.Protein.ActiveResidues>
 VAL166  LYS551  ARG553  GLY616  TRP617  ASP618  TYR619  PRO620  LYS621  CYS622 
 ASP623  PHE694  ASN695  SER759  ASP760  ASP761  ALA762  ILE779  LEU786  VAL792 
 PHE793  MET794  SER795  GLU796  ALA797  LYS798  CYS799  TRP800  GLU811  SER814 

> <Gold.Protein.RotatedAtoms>
  151.9618  135.0120  160.0547 H   0  0  0  0  0  0  0  0  0  0  0  0  # atno 6907 bound_to 6896
  152.1862  133.4736  159.4992 H   0  0  0  0  0  0  0  0  0  0  0  0  # atno 6908 bound_to 6896
  150.6926  134.1688  159.4247 H   0  0  0  0  0  0  0  0  0  0  0  0  # atno 6909 bound_to 6896
  145.9356  140.7710  142.9578 H   0  0  0  0  0  0  0  0  0  0  0  0  # atno 7974 bound_to 7965
  154.6639  140.0565  157.0092 H   0  0  0  0  0  0  0  0  0  0  0  0  # atno 8008 bound_to 7997
  155.1188  140.3245  155.4484 H   0  0  0  0  0  0  0  0  0  0  0  0  # atno 8009 bound_to 7997
  156.2630  140.2001  156.6310 H   0  0  0  0  0  0  0  0  0  0  0  0  # atno 8010 bound_to 7997
  140.6606  143.7313  150.7732 H   0  0  0  0  0  0  0  0  0  0  0  0  # atno 10167 bound_to 10162
  157.6456  130.9533  150.0801 H   0  0  0  0  0  0  0  0  0  0  0  0  # atno 10718 bound_to 10713
  154.5238  135.2795  155.1240 H   0  0  0  0  0  0  0  0  0  0  0  0  # atno 10763 bound_to 10752
  154.2787  135.6289  153.5342 H   0  0  0  0  0  0  0  0  0  0  0  0  # atno 10764 bound_to 10752
  152.9942  135.5646  154.5734 H   0  0  0  0  0  0  0  0  0  0  0  0  # atno 10765 bound_to 10752
  140.6605  134.4354  157.5234 H   0  0  0  0  0  0  0  0  0  0  0  0  # atno 11005 bound_to 11000
  144.6771  140.2197  143.7368 LP  0  0  0  0  0  0  0  0  0  0  0  0  # atno 17320 bound_to 7965
  145.8368  139.2111  143.1850 LP  0  0  0  0  0  0  0  0  0  0  0  0  # atno 17321 bound_to 7965
  140.0981  143.4813  152.2441 LP  0  0  0  0  0  0  0  0  0  0  0  0  # atno 17342 bound_to 10162
  139.5839  144.7522  151.3569 LP  0  0  0  0  0  0  0  0  0  0  0  0  # atno 17343 bound_to 10162
  156.1780  130.3649  149.9074 LP  0  0  0  0  0  0  0  0  0  0  0  0  # atno 17370 bound_to 10713
  156.7033  130.8941  151.3602 LP  0  0  0  0  0  0  0  0  0  0  0  0  # atno 17371 bound_to 10713
  139.9014  134.8546  156.1878 LP  0  0  0  0  0  0  0  0  0  0  0  0  # atno 17394 bound_to 11000
  141.0469  133.6909  156.1699 LP  0  0  0  0  0  0  0  0  0  0  0  0  # atno 17395 bound_to 11000

$$$$
