AV-unprocessed.smi:224|AV-procd|sdf|1715|dock2
  -GOLD-   2262020183D 1   1.00000     0.00000
 Structure written by MMmdl.
 56 59  0  0  0  0  0  0  0  0  2 V2000
  144.2548  132.0185  150.2686 C   0  0  0  0  0  0  0  0  0  0  0  0
  145.7288  132.1632  150.6688 C   0  0  2  0  0  0  0  0  0  0  0  0
  146.5151  131.6118  149.6313 O   0  0  0  0  0  0  0  0  0  0  0  0
  146.0321  131.4324  151.9936 C   0  0  0  0  0  0  0  0  0  0  0  0
  147.4083  131.6619  152.5145 N   0  3  2  0  0  0  0  0  0  0  0  0
  147.7170  130.7803  153.6713 C   0  0  0  0  0  0  0  0  0  0  0  0
  149.1878  130.9153  154.1034 C   0  0  0  0  0  0  0  0  0  0  0  0
  149.5418  132.3122  154.3429 N   0  0  0  0  0  0  0  0  0  0  0  0
  149.3936  132.8358  155.5902 C   0  0  0  0  0  0  0  0  0  0  0  0
  149.6366  134.1579  155.7973 N   0  0  0  0  0  0  0  0  0  0  0  0
  149.5263  134.6860  157.0191 C   0  0  0  0  0  0  0  0  0  0  0  0
  149.1863  134.0836  158.1588 N   0  0  0  0  0  0  0  0  0  0  0  0
  148.9183  132.7620  157.9589 C   0  0  0  0  0  0  0  0  0  0  0  0
  148.9961  132.0635  156.7200 C   0  0  0  0  0  0  0  0  0  0  0  0
  148.6414  130.7325  156.9097 N   0  0  0  0  0  0  0  0  0  0  0  0
  148.3840  130.6464  158.1859 C   0  0  0  0  0  0  0  0  0  0  0  0
  148.5199  131.8202  158.8914 N   0  0  0  0  0  0  0  0  0  0  0  0
  148.2958  132.0108  160.3161 C   0  0  0  0  0  0  0  0  0  0  0  0
  147.3280  133.1732  160.6377 C   0  0  1  0  0  0  0  0  0  0  0  0
  146.2686  133.1661  159.6968 O   0  0  0  0  0  0  0  0  0  0  0  0
  146.7288  133.1180  162.0401 C   0  0  0  0  0  0  0  0  0  0  0  0
  146.5545  134.5883  162.3930 C   0  0  0  0  0  0  0  0  0  0  0  0
  147.7267  135.1745  161.8541 O   0  0  0  0  0  0  0  0  0  0  0  0
  148.0052  134.5580  160.6009 C   0  0  0  0  0  0  0  0  0  0  0  0
  149.2632  133.1949  153.2120 C   0  0  0  0  0  0  0  0  0  0  0  0
  147.7938  133.0908  152.7430 C   0  0  2  0  0  0  0  0  0  0  0  0
  146.8291  133.8490  153.6799 C   0  0  0  0  0  0  0  0  0  0  0  0
  143.5994  132.4456  151.0285 H   0  0  0  0  0  0  0  0  0  0  0  0
  143.9762  130.9717  150.1400 H   0  0  0  0  0  0  0  0  0  0  0  0
  144.0496  132.5351  149.3303 H   0  0  0  0  0  0  0  0  0  0  0  0
  145.9486  133.2271  150.7484 H   0  0  0  0  0  0  0  0  0  0  0  0
  147.3006  131.2416  150.0032 H   0  0  0  0  0  0  0  0  0  0  0  0
  145.3011  131.7088  152.7540 H   0  0  0  0  0  0  0  0  0  0  0  0
  145.8954  130.3619  151.8321 H   0  0  0  0  0  0  0  0  0  0  0  0
  147.0507  131.0178  154.5010 H   0  0  0  0  0  0  0  0  0  0  0  0
  147.5206  129.7414  153.4048 H   0  0  0  0  0  0  0  0  0  0  0  0
  149.3934  130.2987  154.9792 H   0  0  0  0  0  0  0  0  0  0  0  0
  149.8358  130.5354  153.3126 H   0  0  0  0  0  0  0  0  0  0  0  0
  149.7440  135.7412  157.0949 H   0  0  0  0  0  0  0  0  0  0  0  0
  148.0817  129.7186  158.6494 H   0  0  0  0  0  0  0  0  0  0  0  0
  147.9053  131.0769  160.7224 H   0  0  0  0  0  0  0  0  0  0  0  0
  149.2596  132.1746  160.8000 H   0  0  0  0  0  0  0  0  0  0  0  0
  145.4492  133.1491  160.1671 H   0  0  0  0  0  0  0  0  0  0  0  0
  145.8021  132.5457  162.1029 H   0  0  0  0  0  0  0  0  0  0  0  0
  147.4410  132.6747  162.7373 H   0  0  0  0  0  0  0  0  0  0  0  0
  145.6728  135.0090  161.9071 H   0  0  0  0  0  0  0  0  0  0  0  0
  146.4750  134.7591  163.4667 H   0  0  0  0  0  0  0  0  0  0  0  0
  149.0859  134.4883  160.4726 H   0  0  0  0  0  0  0  0  0  0  0  0
  147.6214  135.1826  159.7924 H   0  0  0  0  0  0  0  0  0  0  0  0
  149.5080  134.2342  153.4238 H   0  0  0  0  0  0  0  0  0  0  0  0
  149.9229  132.8970  152.3963 H   0  0  0  0  0  0  0  0  0  0  0  0
  147.7620  133.6009  151.7813 H   0  0  0  0  0  0  0  0  0  0  0  0
  147.1872  134.8621  153.8643 H   0  0  0  0  0  0  0  0  0  0  0  0
  146.7236  133.3609  154.6479 H   0  0  0  0  0  0  0  0  0  0  0  0
  145.8340  133.9428  153.2457 H   0  0  0  0  0  0  0  0  0  0  0  0
  148.0228  131.3402  151.7807 H   0  0  0  0  0  0  0  0  0  0  0  0
  1  2  1  0  0  0  0
  1 28  1  0  0  0  0
  1 29  1  0  0  0  0
  1 30  1  0  0  0  0
  2  3  1  0  0  0  0
  2  4  1  0  0  0  0
  2 31  1  0  0  0  0
  3 32  1  0  0  0  0
  4  5  1  0  0  0  0
  4 33  1  0  0  0  0
  4 34  1  0  0  0  0
  5 26  1  0  0  0  0
  5  6  1  0  0  0  0
  5 56  1  0  0  0  0
  6  7  1  0  0  0  0
  6 35  1  0  0  0  0
  6 36  1  0  0  0  0
  7  8  1  0  0  0  0
  7 37  1  0  0  0  0
  7 38  1  0  0  0  0
  8  9  1  0  0  0  0
  8 25  1  0  0  0  0
  9 14  1  0  0  0  0
  9 10  2  0  0  0  0
 10 11  1  0  0  0  0
 11 12  2  0  0  0  0
 11 39  1  0  0  0  0
 12 13  1  0  0  0  0
 13 17  1  0  0  0  0
 13 14  2  0  0  0  0
 14 15  1  0  0  0  0
 15 16  2  0  0  0  0
 16 17  1  0  0  0  0
 16 40  1  0  0  0  0
 17 18  1  0  0  0  0
 18 19  1  0  0  0  0
 18 41  1  0  0  0  0
 18 42  1  0  0  0  0
 19 24  1  0  0  0  0
 19 20  1  0  0  0  0
 19 21  1  0  0  0  0
 20 43  1  0  0  0  0
 21 22  1  0  0  0  0
 21 44  1  0  0  0  0
 21 45  1  0  0  0  0
 22 23  1  0  0  0  0
 22 46  1  0  0  0  0
 22 47  1  0  0  0  0
 23 24  1  0  0  0  0
 24 48  1  0  0  0  0
 24 49  1  0  0  0  0
 25 26  1  0  0  0  0
 25 50  1  0  0  0  0
 25 51  1  0  0  0  0
 26 27  1  0  0  0  0
 26 52  1  0  0  0  0
 27 53  1  0  0  0  0
 27 54  1  0  0  0  0
 27 55  1  0  0  0  0
M  CHG  1   5   1
M  END
> <s_m_source_file>
AV-unprocessed.smi

> <i_m_source_file_index>
224

> <i_lp_mmshare_version>
43012

> <i_f3d_flags>
0

> <s_epik_input>
W0NIM11bQ0BIXShbT0hdKVtDSDJdTjFbQ0gyXVtDSDJdTihbQ0gyXVtDQEhdMVtDSDNdKWMobltjSF1uMiljKGMyMyluW2NIXW4zW0NIMl1bQ0BAXTQoW09IXSlbQ0gyXVtDSDJdT1tDSDJdNA==

> <s_epik_cmdline>
J2VwaWtfcHl0aG9uJywgJy1waCcsICc3LjAnLCAnLXRuJywgJzgnLCAnLW1hJywgJzIwMCcsICctbWV0YWxfYmluZGluZycsICctaW1hZScsICc8aW5maWxlLm1hZT4nLCAnLW9tYWUnLCAnPG91dGZpbGUubWFlPic=

> <r_lp_tautomer_probability>
1

> <r_epik_Ionization_Penalty>
0.00516958

> <r_epik_Ionization_Penalty_Charging>
0.00509693

> <r_epik_Ionization_Penalty_Neutral>
7.26542e-05

> <r_epik_State_Penalty>
-0

> <r_epik_Charging_Adjusted_Penalty>
0.00509693

> <i_epik_Tot_Q>
1

> <i_epik_Tot_abs_Q>
1

> <r_epik_Metal_State_Penalty>
-0

> <b_epik_Metal_Only>
0

> <s_lp_Force_Field>
OPLS_2005

> <r_lp_Energy>
50.3788

> <b_lp_Chiralities_Consistent>
1

> <s_lp_Variant>
AV-unprocessed.smi:224-9

> <Gold.Version>
5.8.1

> <Gold.Id.Protein>
6NUR|6NUR_protein|mol2

> <Gold.PLP.Fitness>
48.9738

> <Gold.PLP.PLP>
-40.7792

> <Gold.PLP.part.hbond>
-3.0000

> <Gold.PLP.part.metal>
0.0000

> <Gold.PLP.part.buried>
-6.3380

> <Gold.PLP.part.nonpolar>
-31.3207

> <Gold.PLP.part.repulsive>
0.0309

> <Gold.PLP.ligand.clash>
0.0000

> <Gold.PLP.ligand.torsion>
0.5871

> <Gold.PLP.Chemscore.Hbond>
3.0000

> <Gold.PLP.Chemscore.CHOScore>
0.0000

> <Gold.PLP.Chemscore.Metal>
0.0000

> <Gold.Chemscore.Hbonds>
donor molecule, donor type, donor heavy atom, donor atom, acceptor molecule, acceptor atom, score
      L1  H     3    32       P1 10747  1.00
      L1  H     5    56       P1 10747  1.00
      P1  H  6896  6908       L1    12  1.00

> <Gold.PLP.Chemscore.Internal.Correction>
0.3686

> <Gold.Rescore>
     Score         DG    S(hbond)    S(metal)    S(lipo)     H(rot)  DE(clash)    DE(int)     intcor
     13.67     -17.09       2.71        0.00      87.95       3.02       0.12       3.30       ----

> <Gold.Chemscore.Fitness>
13.6664

> <Gold.Chemscore.DG>
-17.0861

> <Gold.Chemscore.ZeroCoef>
-5.4800

> <Gold.Chemscore.Hbond>
2.7112

> <Gold.Chemscore.Metal>
0.0000

> <Gold.Chemscore.Lipo>
87.9481

> <Gold.Chemscore.Internal_Hbond>
0.0000

> <Gold.Chemscore.DEClash>
0.1223

> <Gold.Chemscore.DEInternal>
3.2974

> <Gold.Chemscore.Rot>
3.0231

> <Gold.Chemscore.Internal.Correction>
   9.000000E+99

> <Gold.Chemscore.Hbonds>
donor molecule, donor type, donor heavy atom, donor atom, acceptor molecule, acceptor atom, score
      L1  H     3    32       P1 10747  1.00
      L1  H     5    56       P1 10747  1.00
      P1  H  6896  6908       L1    12  0.33

> <Gold.Chemscore.Hbond.Weighted>
-9.0553

> <Gold.Chemscore.Metal.Weighted>
-0.0000

> <Gold.Chemscore.Lipo.Weighted>
-10.2899

> <Gold.Chemscore.Internal_Hbond.Weighted>
0.0000

> <Gold.Chemscore.DEClash.Weighted>
0.1223

> <Gold.Chemscore.DEInternal.Weighted>
3.2974

> <Gold.Chemscore.Rot.Weighted>
7.7391

> <Gold.Chemscore.Internal.Correction.Weighted>
   9.000000E+99

> <Gold.Protein.RotatedTorsions>
[ 6907 6896 6895 6894 ] final  139.08 input  -60.11 | X-H torsion
[ 7974 7965 7964 7962 ] final -104.87 input  175.53 | X-H torsion
[ 8008 7997 7996 7995 ] final  -26.70 input   59.86 | X-H torsion
[ 10167 10162 10161 10158 ] final -176.72 input  -65.29 | X-H torsion
[ 10718 10713 10712 10709 ] final   52.98 input   66.30 | X-H torsion
[ 10763 10752 10751 10750 ] final  122.58 input  -60.55 | X-H torsion
[ 11005 11000 10999 10996 ] final    1.06 input  -57.11 | X-H torsion

> <Gold.Protein.ActiveResidues>
 VAL166  LYS551  ARG553  GLY616  TRP617  ASP618  TYR619  PRO620  LYS621  CYS622 
 ASP623  PHE694  ASN695  SER759  ASP760  ASP761  ALA762  ILE779  LEU786  VAL792 
 PHE793  MET794  SER795  GLU796  ALA797  LYS798  CYS799  TRP800  GLU811  SER814 

> <Gold.Protein.RotatedAtoms>
  152.2591  133.5281  159.5370 H   0  0  0  0  0  0  0  0  0  0  0  0  # atno 6907 bound_to 6896
  150.7119  134.0854  159.3922 H   0  0  0  0  0  0  0  0  0  0  0  0  # atno 6908 bound_to 6896
  151.8772  135.0467  160.0536 H   0  0  0  0  0  0  0  0  0  0  0  0  # atno 6909 bound_to 6896
  145.2376  140.9193  143.3168 H   0  0  0  0  0  0  0  0  0  0  0  0  # atno 7974 bound_to 7965
  154.4412  140.1892  156.0817 H   0  0  0  0  0  0  0  0  0  0  0  0  # atno 8008 bound_to 7997
  156.0434  140.3317  155.7242 H   0  0  0  0  0  0  0  0  0  0  0  0  # atno 8009 bound_to 7997
  155.5666  140.0608  157.2807 H   0  0  0  0  0  0  0  0  0  0  0  0  # atno 8010 bound_to 7997
  139.5515  144.2096  152.1086 H   0  0  0  0  0  0  0  0  0  0  0  0  # atno 10167 bound_to 10162
  157.5125  130.8510  149.8453 H   0  0  0  0  0  0  0  0  0  0  0  0  # atno 10718 bound_to 10713
  153.6320  135.3394  155.3044 H   0  0  0  0  0  0  0  0  0  0  0  0  # atno 10763 bound_to 10752
  154.8578  135.4298  154.2096 H   0  0  0  0  0  0  0  0  0  0  0  0  # atno 10764 bound_to 10752
  153.2994  135.7023  153.7291 H   0  0  0  0  0  0  0  0  0  0  0  0  # atno 10765 bound_to 10752
  140.6197  133.9673  155.8218 H   0  0  0  0  0  0  0  0  0  0  0  0  # atno 11005 bound_to 11000
  144.9618  139.3971  143.6352 LP  0  0  0  0  0  0  0  0  0  0  0  0  # atno 17320 bound_to 7965
  146.3337  139.8675  142.8845 LP  0  0  0  0  0  0  0  0  0  0  0  0  # atno 17321 bound_to 7965
  140.1592  144.5041  150.6642 LP  0  0  0  0  0  0  0  0  0  0  0  0  # atno 17342 bound_to 10162
  140.6779  143.2313  151.5460 LP  0  0  0  0  0  0  0  0  0  0  0  0  # atno 17343 bound_to 10162
  156.0298  130.3768  150.1719 LP  0  0  0  0  0  0  0  0  0  0  0  0  # atno 17370 bound_to 10713
  156.9908  130.9893  151.3415 LP  0  0  0  0  0  0  0  0  0  0  0  0  # atno 17371 bound_to 10713
  141.0751  134.0147  157.3469 LP  0  0  0  0  0  0  0  0  0  0  0  0  # atno 17394 bound_to 11000
  139.9158  135.0196  156.7876 LP  0  0  0  0  0  0  0  0  0  0  0  0  # atno 17395 bound_to 11000

$$$$
