AV-unprocessed.smi:153|AV-procd|sdf|1256|dock2
  -GOLD-   2262018493D 1   1.00000     0.00000
 Structure written by MMmdl.
 60 63  0  0  0  0  0  0  0  0  2 V2000
  151.3212  144.7509  160.1204 C   0  0  0  0  0  0  0  0  0  0  0  0
  151.6089  143.2604  159.8659 C   0  0  2  0  0  0  0  0  0  0  0  0
  152.2154  142.6730  161.0162 O   0  0  0  0  0  0  0  0  0  0  0  0
  153.5056  142.1824  160.6861 C   0  0  0  0  0  0  0  0  0  0  0  0
  153.3876  141.8039  159.2160 C   0  0  0  0  0  0  0  0  0  0  0  0
  152.5186  142.9206  158.6566 C   0  0  2  0  0  0  0  0  0  0  0  0
  153.3643  144.0141  158.3369 O   0  0  0  0  0  0  0  0  0  0  0  0
  151.7572  142.4945  157.3774 C   0  0  0  0  0  0  0  0  0  0  0  0
  151.1861  141.1596  157.4622 N   0  0  0  0  0  0  0  0  0  0  0  0
  150.2033  140.7400  158.3274 C   0  0  0  0  0  0  0  0  0  0  0  0
  149.8387  139.4959  158.1887 N   0  0  0  0  0  0  0  0  0  0  0  0
  150.6417  139.0067  157.1625 C   0  0  0  0  0  0  0  0  0  0  0  0
  150.7643  137.7503  156.4913 C   0  0  0  0  0  0  0  0  0  0  0  0
  150.0228  136.6380  156.7579 N   0  0  0  0  0  0  0  0  0  0  0  0
  148.9093  136.7187  157.6953 C   0  0  0  0  0  0  0  0  0  0  0  0
  150.0259  135.5400  155.7887 C   0  0  0  0  0  0  0  0  0  0  0  0
  148.6230  135.2515  155.2147 C   0  0  1  0  0  0  0  0  0  0  0  0
  148.2293  136.3547  154.4217 O   0  0  0  0  0  0  0  0  0  0  0  0
  148.6291  134.0089  154.3020 C   0  0  0  0  0  0  0  0  0  0  0  0
  147.5057  134.0088  153.3303 N   0  3  0  0  0  0  0  0  0  0  0  0
  147.5217  132.8224  152.4420 C   0  0  0  0  0  0  0  0  0  0  0  0
  146.3843  132.9104  151.4106 C   0  0  0  0  0  0  0  0  0  0  0  0
  145.1382  133.0284  152.0859 O   0  0  0  0  0  0  0  0  0  0  0  0
  145.0728  134.2064  152.8800 C   0  0  0  0  0  0  0  0  0  0  0  0
  146.1699  134.1670  153.9577 C   0  0  0  0  0  0  0  0  0  0  0  0
  151.6907  137.6724  155.4990 N   0  0  0  0  0  0  0  0  0  0  0  0
  152.4437  138.7273  155.1792 C   0  0  0  0  0  0  0  0  0  0  0  0
  152.4327  139.9490  155.7112 N   0  0  0  0  0  0  0  0  0  0  0  0
  151.5039  140.0461  156.7040 C   0  0  0  0  0  0  0  0  0  0  0  0
  150.8695  145.2231  159.2482 H   0  0  0  0  0  0  0  0  0  0  0  0
  152.2311  145.2986  160.3668 H   0  0  0  0  0  0  0  0  0  0  0  0
  150.6316  144.8727  160.9557 H   0  0  0  0  0  0  0  0  0  0  0  0
  150.6558  142.7437  159.7494 H   0  0  0  0  0  0  0  0  0  0  0  0
  154.2393  142.9778  160.8238 H   0  0  0  0  0  0  0  0  0  0  0  0
  153.7893  141.3407  161.3182 H   0  0  0  0  0  0  0  0  0  0  0  0
  154.3537  141.7065  158.7190 H   0  0  0  0  0  0  0  0  0  0  0  0
  152.8735  140.8453  159.1354 H   0  0  0  0  0  0  0  0  0  0  0  0
  153.0058  144.7962  158.7279 H   0  0  0  0  0  0  0  0  0  0  0  0
  150.9560  143.2012  157.1572 H   0  0  0  0  0  0  0  0  0  0  0  0
  152.4272  142.5173  156.5170 H   0  0  0  0  0  0  0  0  0  0  0  0
  149.7502  141.3936  159.0588 H   0  0  0  0  0  0  0  0  0  0  0  0
  149.2105  137.2202  158.6155 H   0  0  0  0  0  0  0  0  0  0  0  0
  148.5601  135.7223  157.9669 H   0  0  0  0  0  0  0  0  0  0  0  0
  148.0707  137.2590  157.2554 H   0  0  0  0  0  0  0  0  0  0  0  0
  150.7572  135.6928  154.9939 H   0  0  0  0  0  0  0  0  0  0  0  0
  150.3763  134.6560  156.3222 H   0  0  0  0  0  0  0  0  0  0  0  0
  147.9117  135.1188  156.0295 H   0  0  0  0  0  0  0  0  0  0  0  0
  148.5979  136.2503  153.5569 H   0  0  0  0  0  0  0  0  0  0  0  0
  149.5782  133.9796  153.7639 H   0  0  0  0  0  0  0  0  0  0  0  0
  148.5885  133.0947  154.8964 H   0  0  0  0  0  0  0  0  0  0  0  0
  148.4795  132.7586  151.9241 H   0  0  0  0  0  0  0  0  0  0  0  0
  147.4174  131.9151  153.0391 H   0  0  0  0  0  0  0  0  0  0  0  0
  146.5312  133.7587  150.7399 H   0  0  0  0  0  0  0  0  0  0  0  0
  146.3680  132.0138  150.7908 H   0  0  0  0  0  0  0  0  0  0  0  0
  145.1771  135.0912  152.2499 H   0  0  0  0  0  0  0  0  0  0  0  0
  144.0894  134.2628  153.3472 H   0  0  0  0  0  0  0  0  0  0  0  0
  145.9867  133.3386  154.6437 H   0  0  0  0  0  0  0  0  0  0  0  0
  146.1269  135.0832  154.5454 H   0  0  0  0  0  0  0  0  0  0  0  0
  153.1528  138.5710  154.3795 H   0  0  0  0  0  0  0  0  0  0  0  0
  147.6511  134.8102  152.7322 H   0  0  0  0  0  0  0  0  0  0  0  0
  1  2  1  0  0  0  0
  1 30  1  0  0  0  0
  1 31  1  0  0  0  0
  1 32  1  0  0  0  0
  2  6  1  0  0  0  0
  2  3  1  0  0  0  0
  2 33  1  0  0  0  0
  3  4  1  0  0  0  0
  4  5  1  0  0  0  0
  4 34  1  0  0  0  0
  4 35  1  0  0  0  0
  5  6  1  0  0  0  0
  5 36  1  0  0  0  0
  5 37  1  0  0  0  0
  6  7  1  0  0  0  0
  6  8  1  0  0  0  0
  7 38  1  0  0  0  0
  8  9  1  0  0  0  0
  8 39  1  0  0  0  0
  8 40  1  0  0  0  0
  9 29  1  0  0  0  0
  9 10  1  0  0  0  0
 10 11  2  0  0  0  0
 10 41  1  0  0  0  0
 11 12  1  0  0  0  0
 12 29  2  0  0  0  0
 12 13  1  0  0  0  0
 13 14  1  0  0  0  0
 13 26  2  0  0  0  0
 14 15  1  0  0  0  0
 14 16  1  0  0  0  0
 15 42  1  0  0  0  0
 15 43  1  0  0  0  0
 15 44  1  0  0  0  0
 16 17  1  0  0  0  0
 16 45  1  0  0  0  0
 16 46  1  0  0  0  0
 17 18  1  0  0  0  0
 17 19  1  0  0  0  0
 17 47  1  0  0  0  0
 18 48  1  0  0  0  0
 19 20  1  0  0  0  0
 19 49  1  0  0  0  0
 19 50  1  0  0  0  0
 20 25  1  0  0  0  0
 20 21  1  0  0  0  0
 20 60  1  0  0  0  0
 21 22  1  0  0  0  0
 21 51  1  0  0  0  0
 21 52  1  0  0  0  0
 22 23  1  0  0  0  0
 22 53  1  0  0  0  0
 22 54  1  0  0  0  0
 23 24  1  0  0  0  0
 24 25  1  0  0  0  0
 24 55  1  0  0  0  0
 24 56  1  0  0  0  0
 25 57  1  0  0  0  0
 25 58  1  0  0  0  0
 26 27  1  0  0  0  0
 27 28  2  0  0  0  0
 27 59  1  0  0  0  0
 28 29  1  0  0  0  0
M  CHG  1  20   1
M  END
> <s_m_source_file>
AV-unprocessed.smi

> <i_m_source_file_index>
153

> <i_lp_mmshare_version>
43012

> <i_f3d_flags>
0

> <s_epik_input>
W0NIMl0xW0NIMl1PW0NAQEhdKFtDSDNdKVtDQEBdMShbT0hdKVtDSDJdbihbY0hdbjIpYyhjMjMpbltjSF1uYzNOKFtDSDNdKVtDSDJdW0NASF0oW09IXSlbQ0gyXU40W0NIMl1bQ0gyXU9bQ0gyXVtDSDJdNA==

> <s_epik_cmdline>
J2VwaWtfcHl0aG9uJywgJy1waCcsICc3LjAnLCAnLXRuJywgJzgnLCAnLW1hJywgJzIwMCcsICctbWV0YWxfYmluZGluZycsICctaW1hZScsICc8aW5maWxlLm1hZT4nLCAnLW9tYWUnLCAnPG91dGZpbGUubWFlPic=

> <r_lp_tautomer_probability>
1

> <r_epik_Ionization_Penalty>
0.403509

> <r_epik_Ionization_Penalty_Charging>
0.40072

> <r_epik_Ionization_Penalty_Neutral>
0.00278876

> <r_epik_State_Penalty>
0.400058

> <r_epik_Charging_Adjusted_Penalty>
0.800778

> <i_epik_Tot_Q>
1

> <i_epik_Tot_abs_Q>
1

> <r_epik_Metal_State_Penalty>
0.400321

> <b_epik_Metal_Only>
0

> <s_lp_Force_Field>
OPLS_2005

> <r_lp_Energy>
47.9216

> <b_lp_Chiralities_Consistent>
1

> <s_lp_Variant>
AV-unprocessed.smi:153-7

> <Gold.Version>
5.8.1

> <Gold.Id.Protein>
6NUR|6NUR_protein|mol2

> <Gold.PLP.Fitness>
52.1318

> <Gold.PLP.PLP>
-40.8708

> <Gold.PLP.part.hbond>
-3.8832

> <Gold.PLP.part.metal>
0.0000

> <Gold.PLP.part.buried>
-6.1150

> <Gold.PLP.part.nonpolar>
-31.8992

> <Gold.PLP.part.repulsive>
0.2415

> <Gold.PLP.ligand.clash>
0.0000

> <Gold.PLP.ligand.torsion>
0.6671

> <Gold.PLP.Chemscore.Hbond>
3.9748

> <Gold.PLP.Chemscore.CHOScore>
0.0000

> <Gold.PLP.Chemscore.Metal>
0.0000

> <Gold.Chemscore.Hbonds>
donor molecule, donor type, donor heavy atom, donor atom, acceptor molecule, acceptor atom, score
      L1  H    18    48       P1  7948  1.00
      L1  H    20    60       P1  7948  1.71
      P1  H  7997  8009       L1    28  0.72

> <Gold.PLP.Chemscore.Internal.Correction>
0.6708

> <Gold.Rescore>
     Score         DG    S(hbond)    S(metal)    S(lipo)     H(rot)  DE(clash)    DE(int)     intcor
     12.52     -14.40       2.13        0.00      94.54       3.62       0.00       1.88       ----

> <Gold.Chemscore.Fitness>
12.5207

> <Gold.Chemscore.DG>
-14.4024

> <Gold.Chemscore.ZeroCoef>
-5.4800

> <Gold.Chemscore.Hbond>
2.1329

> <Gold.Chemscore.Metal>
0.0000

> <Gold.Chemscore.Lipo>
94.5387

> <Gold.Chemscore.Internal_Hbond>
0.0000

> <Gold.Chemscore.DEClash>
0.0000

> <Gold.Chemscore.DEInternal>
1.8817

> <Gold.Chemscore.Rot>
3.6182

> <Gold.Chemscore.Internal.Correction>
   9.000000E+99

> <Gold.Chemscore.Hbonds>
donor molecule, donor type, donor heavy atom, donor atom, acceptor molecule, acceptor atom, score
      L1  H    18    48       P1  7948  1.00
      L1  H    20    60       P1  7948  0.75
      P1  H  7997  8009       L1    28  0.21

> <Gold.Chemscore.Hbond.Weighted>
-7.1238

> <Gold.Chemscore.Metal.Weighted>
-0.0000

> <Gold.Chemscore.Lipo.Weighted>
-11.0610

> <Gold.Chemscore.Internal_Hbond.Weighted>
0.0000

> <Gold.Chemscore.DEClash.Weighted>
0.0000

> <Gold.Chemscore.DEInternal.Weighted>
1.8817

> <Gold.Chemscore.Rot.Weighted>
9.2625

> <Gold.Chemscore.Internal.Correction.Weighted>
   9.000000E+99

> <Gold.Protein.RotatedTorsions>
[ 6907 6896 6895 6894 ] final  -89.94 input  -60.11 | X-H torsion
[ 7974 7965 7964 7962 ] final  156.03 input  175.53 | X-H torsion
[ 8008 7997 7996 7995 ] final -175.75 input   59.86 | X-H torsion
[ 10167 10162 10161 10158 ] final   80.48 input  -65.29 | X-H torsion
[ 10718 10713 10712 10709 ] final  163.91 input   66.30 | X-H torsion
[ 10763 10752 10751 10750 ] final   65.86 input  -60.55 | X-H torsion
[ 11005 11000 10999 10996 ] final  111.24 input  -57.11 | X-H torsion

> <Gold.Protein.ActiveResidues>
 VAL166  LYS551  ARG553  GLY616  TRP617  ASP618  TYR619  PRO620  LYS621  CYS622 
 ASP623  PHE694  ASN695  SER759  ASP760  ASP761  ALA762  ILE779  LEU786  VAL792 
 PHE793  MET794  SER795  GLU796  ALA797  LYS798  CYS799  TRP800  GLU811  SER814 

> <Gold.Protein.RotatedAtoms>
  150.6877  134.2510  159.4510 H   0  0  0  0  0  0  0  0  0  0  0  0  # atno 6907 bound_to 6896
  152.0447  134.9687  160.0583 H   0  0  0  0  0  0  0  0  0  0  0  0  # atno 6908 bound_to 6896
  152.1175  133.4300  159.4697 H   0  0  0  0  0  0  0  0  0  0  0  0  # atno 6909 bound_to 6896
  144.7988  139.7149  143.6191 H   0  0  0  0  0  0  0  0  0  0  0  0  # atno 7974 bound_to 7965
  155.9864  140.1192  157.0679 H   0  0  0  0  0  0  0  0  0  0  0  0  # atno 8008 bound_to 7997
  154.4198  140.1134  156.5573 H   0  0  0  0  0  0  0  0  0  0  0  0  # atno 8009 bound_to 7997
  155.6402  140.3473  155.4714 H   0  0  0  0  0  0  0  0  0  0  0  0  # atno 8010 bound_to 7997
  139.9493  144.6037  150.8176 H   0  0  0  0  0  0  0  0  0  0  0  0  # atno 10167 bound_to 10162
  157.1018  131.0445  151.2495 H   0  0  0  0  0  0  0  0  0  0  0  0  # atno 10718 bound_to 10713
  153.0114  135.5341  154.6733 H   0  0  0  0  0  0  0  0  0  0  0  0  # atno 10763 bound_to 10752
  154.5912  135.2859  155.0636 H   0  0  0  0  0  0  0  0  0  0  0  0  # atno 10764 bound_to 10752
  154.1728  135.6529  153.5066 H   0  0  0  0  0  0  0  0  0  0  0  0  # atno 10765 bound_to 10752
  139.8899  134.9503  156.6402 H   0  0  0  0  0  0  0  0  0  0  0  0  # atno 11005 bound_to 11000
  146.2263  139.5730  142.9585 LP  0  0  0  0  0  0  0  0  0  0  0  0  # atno 17320 bound_to 7965
  145.5606  141.0405  143.2228 LP  0  0  0  0  0  0  0  0  0  0  0  0  # atno 17321 bound_to 7965
  140.7588  143.3114  151.2835 LP  0  0  0  0  0  0  0  0  0  0  0  0  # atno 17342 bound_to 10162
  139.6641  144.0136  152.2712 LP  0  0  0  0  0  0  0  0  0  0  0  0  # atno 17343 bound_to 10162
  157.4634  130.7667  149.7257 LP  0  0  0  0  0  0  0  0  0  0  0  0  # atno 17370 bound_to 10713
  155.9872  130.3969  150.3177 LP  0  0  0  0  0  0  0  0  0  0  0  0  # atno 17371 bound_to 10713
  140.7599  133.8826  155.8410 LP  0  0  0  0  0  0  0  0  0  0  0  0  # atno 17394 bound_to 11000
  140.9930  134.1252  157.4390 LP  0  0  0  0  0  0  0  0  0  0  0  0  # atno 17395 bound_to 11000

$$$$
