AV-unprocessed.smi:109|AV-procd|sdf|1039|dock3
  -GOLD-   2262018 63D 1   1.00000     0.00000
 Structure written by MMmdl.
 58 61  0  0  0  0  0  0  0  0  1 V2000
  143.0531  133.4234  157.0770 O   0  0  0  0  0  0  0  0  0  0  0  0
  144.2071  134.2059  157.2948 C   0  0  0  0  0  0  0  0  0  0  0  0
  145.3357  133.3271  157.8614 C   0  0  0  0  0  0  0  0  0  0  0  0
  146.7032  134.0451  157.9723 C   0  0  2  0  0  0  0  0  0  0  0  0
  147.7581  133.1648  157.4654 N   0  0  0  0  0  0  0  0  0  0  0  0
  148.1136  133.1383  156.1613 C   0  0  0  0  0  0  0  0  0  0  0  0
  149.4168  133.1419  155.7778 N   0  0  0  0  0  0  0  0  0  0  0  0
  149.7327  133.1278  154.4795 C   0  0  0  0  0  0  0  0  0  0  0  0
  148.9170  133.1056  153.4231 N   0  0  0  0  0  0  0  0  0  0  0  0
  147.6064  133.0925  153.8027 C   0  0  0  0  0  0  0  0  0  0  0  0
  147.1276  133.1159  155.1417 C   0  0  0  0  0  0  0  0  0  0  0  0
  145.7395  133.1200  155.1445 N   0  0  0  0  0  0  0  0  0  0  0  0
  145.4219  133.1077  153.8779 C   0  0  0  0  0  0  0  0  0  0  0  0
  146.4850  133.0561  152.9994 N   0  0  0  0  0  0  0  0  0  0  0  0
  146.4687  133.0607  151.4999 C   0  0  2  0  0  0  0  0  0  0  0  0
  145.7849  134.2037  151.0705 O   0  0  0  0  0  0  0  0  0  0  0  0
  144.4820  133.8787  150.5892 C   0  0  2  0  0  0  0  0  0  0  0  0
  143.4518  133.9323  151.7407 C   0  0  0  0  0  0  0  0  0  0  0  0
  142.2568  133.2975  151.3399 O   0  0  0  0  0  0  0  0  0  0  0  0
  144.7160  132.4895  149.9814 C   0  0  2  0  0  0  0  0  0  0  0  0
  143.5289  131.7300  149.8606 O   0  0  0  0  0  0  0  0  0  0  0  0
  145.7102  131.8422  150.9370 C   0  0  1  0  0  0  0  0  0  0  0  0
  146.5660  130.9784  150.2151 O   0  0  0  0  0  0  0  0  0  0  0  0
  147.0587  134.4915  159.4199 C   0  0  0  0  0  0  0  0  0  0  0  0
  147.1035  133.3173  160.4297 C   0  0  0  0  0  0  0  0  0  0  0  0
  147.4177  133.7851  161.8605 C   0  0  0  0  0  0  0  0  0  0  0  0
  146.4185  134.8461  162.3370 C   0  0  0  0  0  0  0  0  0  0  0  0
  146.3823  136.0288  161.3622 C   0  0  0  0  0  0  0  0  0  0  0  0
  146.0609  135.5612  159.9345 C   0  0  0  0  0  0  0  0  0  0  0  0
  147.5216  133.1105  151.2187 H   0  0  0  0  0  0  0  0  0  0  0  0
  144.1867  134.5795  149.8072 H   0  0  0  0  0  0  0  0  0  0  0  0
  145.1648  132.6130  148.9941 H   0  0  0  0  0  0  0  0  0  0  0  0
  145.1959  131.3095  151.7389 H   0  0  0  0  0  0  0  0  0  0  0  0
  143.1635  132.9434  156.2706 H   0  0  0  0  0  0  0  0  0  0  0  0
  144.4976  134.6633  156.3490 H   0  0  0  0  0  0  0  0  0  0  0  0
  143.9630  135.0116  157.9877 H   0  0  0  0  0  0  0  0  0  0  0  0
  145.0106  132.9976  158.8467 H   0  0  0  0  0  0  0  0  0  0  0  0
  145.4412  132.4266  157.2546 H   0  0  0  0  0  0  0  0  0  0  0  0
  146.6438  134.9557  157.3767 H   0  0  0  0  0  0  0  0  0  0  0  0
  148.2356  132.6160  158.1660 H   0  0  0  0  0  0  0  0  0  0  0  0
  150.7890  133.1346  154.2549 H   0  0  0  0  0  0  0  0  0  0  0  0
  144.3920  133.1294  153.5532 H   0  0  0  0  0  0  0  0  0  0  0  0
  143.8148  133.3800  152.6073 H   0  0  0  0  0  0  0  0  0  0  0  0
  143.2521  134.9471  152.0804 H   0  0  0  0  0  0  0  0  0  0  0  0
  141.9539  133.7036  150.5423 H   0  0  0  0  0  0  0  0  0  0  0  0
  142.8244  132.3098  149.6144 H   0  0  0  0  0  0  0  0  0  0  0  0
  147.4573  131.1481  150.4784 H   0  0  0  0  0  0  0  0  0  0  0  0
  148.0519  134.9432  159.3974 H   0  0  0  0  0  0  0  0  0  0  0  0
  146.1503  132.7871  160.4205 H   0  0  0  0  0  0  0  0  0  0  0  0
  147.8665  132.5930  160.1500 H   0  0  0  0  0  0  0  0  0  0  0  0
  147.4050  132.9327  162.5402 H   0  0  0  0  0  0  0  0  0  0  0  0
  148.4286  134.1931  161.8968 H   0  0  0  0  0  0  0  0  0  0  0  0
  145.4241  134.4053  162.4186 H   0  0  0  0  0  0  0  0  0  0  0  0
  146.6887  135.1926  163.3350 H   0  0  0  0  0  0  0  0  0  0  0  0
  145.6396  136.7569  161.6898 H   0  0  0  0  0  0  0  0  0  0  0  0
  147.3447  136.5424  161.3712 H   0  0  0  0  0  0  0  0  0  0  0  0
  146.0591  136.4355  159.2832 H   0  0  0  0  0  0  0  0  0  0  0  0
  145.0471  135.1592  159.9050 H   0  0  0  0  0  0  0  0  0  0  0  0
  1  2  1  0  0  0  0
  1 34  1  0  0  0  0
  2  3  1  0  0  0  0
  2 35  1  0  0  0  0
  2 36  1  0  0  0  0
  3  4  1  0  0  0  0
  3 37  1  0  0  0  0
  3 38  1  0  0  0  0
  4  5  1  0  0  0  0
  4 24  1  0  0  0  0
  4 39  1  0  0  0  0
  5  6  1  0  0  0  0
  5 40  1  0  0  0  0
  6 11  1  0  0  0  0
  6  7  2  0  0  0  0
  7  8  1  0  0  0  0
  8  9  2  0  0  0  0
  8 41  1  0  0  0  0
  9 10  1  0  0  0  0
 10 14  1  0  0  0  0
 10 11  2  0  0  0  0
 11 12  1  0  0  0  0
 12 13  2  0  0  0  0
 13 14  1  0  0  0  0
 13 42  1  0  0  0  0
 14 15  1  0  0  0  0
 15 30  1  0  0  0  0
 15 22  1  0  0  0  0
 15 16  1  0  0  0  0
 16 17  1  0  0  0  0
 17 31  1  0  0  0  0
 17 18  1  0  0  0  0
 17 20  1  0  0  0  0
 18 19  1  0  0  0  0
 18 43  1  0  0  0  0
 18 44  1  0  0  0  0
 19 45  1  0  0  0  0
 20 32  1  0  0  0  0
 20 21  1  0  0  0  0
 20 22  1  0  0  0  0
 21 46  1  0  0  0  0
 22 33  1  0  0  0  0
 22 23  1  0  0  0  0
 23 47  1  0  0  0  0
 24 29  1  0  0  0  0
 24 25  1  0  0  0  0
 24 48  1  0  0  0  0
 25 26  1  0  0  0  0
 25 49  1  0  0  0  0
 25 50  1  0  0  0  0
 26 27  1  0  0  0  0
 26 51  1  0  0  0  0
 26 52  1  0  0  0  0
 27 28  1  0  0  0  0
 27 53  1  0  0  0  0
 27 54  1  0  0  0  0
 28 29  1  0  0  0  0
 28 55  1  0  0  0  0
 28 56  1  0  0  0  0
 29 57  1  0  0  0  0
 29 58  1  0  0  0  0
M  END
> <s_m_source_file>
AV-unprocessed.smi

> <i_m_source_file_index>
109

> <i_lp_mmshare_version>
43012

> <i_f3d_flags>
0

> <s_epik_input>
W0NIMl0xW0NIMl1bQ0gyXVtDSDJdW0NIMl1bQ0hdMVtDQEhdKFtDSDJdW0NIMl1bT0hdKVtOSF1jKG5bY0hdbjIpYyhjMjMpbltjSF1uM1tDQEBIXTRPW0NASF0oW0NIMl1bT0hdKVtDQEBIXShbT0hdKVtDQEhdNFtPSF0=

> <s_epik_cmdline>
J2VwaWtfcHl0aG9uJywgJy1waCcsICc3LjAnLCAnLXRuJywgJzgnLCAnLW1hJywgJzIwMCcsICctbWV0YWxfYmluZGluZycsICctaW1hZScsICc8aW5maWxlLm1hZT4nLCAnLW9tYWUnLCAnPG91dGZpbGUubWFlPic=

> <r_lp_tautomer_probability>
1

> <r_epik_Ionization_Penalty>
0.000793976

> <r_epik_Ionization_Penalty_Charging>
0

> <r_epik_Ionization_Penalty_Neutral>
0.000793976

> <r_epik_State_Penalty>
-0

> <r_epik_Charging_Adjusted_Penalty>
0

> <i_epik_Tot_Q>
0

> <i_epik_Tot_abs_Q>
0

> <r_epik_Metal_State_Penalty>
-0

> <b_epik_Metal_Only>
0

> <s_epik_Chemistry_Notes>
This compound contains an acetal/aminal-like group ( X-CH(R)-Y where X, Y are N, S, or O) that may be acid/base labile, releasing an aldehyde.

> <s_lp_Force_Field>
OPLS_2005

> <r_lp_Energy>
51.6151

> <b_lp_Chiralities_Consistent>
1

> <s_lp_Variant>
AV-unprocessed.smi:109-9

> <Gold.Version>
5.8.1

> <Gold.Id.Protein>
6NUR|6NUR_protein|mol2

> <Gold.PLP.Fitness>
52.6841

> <Gold.PLP.PLP>
-38.0520

> <Gold.PLP.part.hbond>
-5.4897

> <Gold.PLP.part.metal>
0.0000

> <Gold.PLP.part.buried>
-7.7424

> <Gold.PLP.part.nonpolar>
-26.1408

> <Gold.PLP.part.repulsive>
0.4949

> <Gold.PLP.ligand.clash>
0.0000

> <Gold.PLP.ligand.torsion>
1.4871

> <Gold.PLP.Chemscore.Hbond>
4.9345

> <Gold.PLP.Chemscore.CHOScore>
0.8424

> <Gold.PLP.Chemscore.Metal>
0.0000

> <Gold.Chemscore.Hbonds>
donor molecule, donor type, donor heavy atom, donor atom, acceptor molecule, acceptor atom, score
      L1  H     1    34       P1 10957  1.00
      L1  H    19    45       P1 10186  1.00
      L1  H    23    47       P1 10747  0.94
      P1  H 10785 10796       L1    21  0.99
      P1  H 11000 11005       L1     1  1.00
      L1  C    13    42       P1 10957  0.79

> <Gold.PLP.Chemscore.Internal.Correction>
0.2756

> <Gold.Rescore>
     Score         DG    S(hbond)    S(metal)    S(lipo)     H(rot)  DE(clash)    DE(int)     intcor
      8.06     -11.95       3.68        0.00      69.99       5.47       0.13       3.77       ----

> <Gold.Chemscore.Fitness>
8.0589

> <Gold.Chemscore.DG>
-11.9517

> <Gold.Chemscore.ZeroCoef>
-5.4800

> <Gold.Chemscore.Hbond>
3.6757

> <Gold.Chemscore.Metal>
0.0000

> <Gold.Chemscore.Lipo>
69.9867

> <Gold.Chemscore.Internal_Hbond>
0.0000

> <Gold.Chemscore.DEClash>
0.1254

> <Gold.Chemscore.DEInternal>
3.7674

> <Gold.Chemscore.Rot>
5.4662

> <Gold.Chemscore.Internal.Correction>
   9.000000E+99

> <Gold.Chemscore.Hbonds>
donor molecule, donor type, donor heavy atom, donor atom, acceptor molecule, acceptor atom, score
      L1  H     1    34       P1 10957  0.98
      L1  H    19    45       P1 10186  0.83
      L1  H    23    47       P1 10747  0.87
      P1  H 10785 10796       L1    21  0.36
      P1  H 11000 11005       L1     1  0.39

> <Gold.Chemscore.Hbond.Weighted>
-12.2768

> <Gold.Chemscore.Metal.Weighted>
-0.0000

> <Gold.Chemscore.Lipo.Weighted>
-8.1884

> <Gold.Chemscore.Internal_Hbond.Weighted>
0.0000

> <Gold.Chemscore.DEClash.Weighted>
0.1254

> <Gold.Chemscore.DEInternal.Weighted>
3.7674

> <Gold.Chemscore.Rot.Weighted>
13.9935

> <Gold.Chemscore.Internal.Correction.Weighted>
   9.000000E+99

> <Gold.Protein.RotatedTorsions>
[ 6907 6896 6895 6894 ] final  123.91 input  -60.11 | X-H torsion
[ 7974 7965 7964 7962 ] final -166.86 input  175.53 | X-H torsion
[ 8008 7997 7996 7995 ] final  -69.97 input   59.86 | X-H torsion
[ 10167 10162 10161 10158 ] final  113.17 input  -65.29 | X-H torsion
[ 10718 10713 10712 10709 ] final   85.76 input   66.30 | X-H torsion
[ 10763 10752 10751 10750 ] final  -49.26 input  -60.55 | X-H torsion
[ 11005 11000 10999 10996 ] final  -98.31 input  -57.11 | X-H torsion

> <Gold.Protein.ActiveResidues>
 VAL166  LYS551  ARG553  GLY616  TRP617  ASP618  TYR619  PRO620  LYS621  CYS622 
 ASP623  PHE694  ASN695  SER759  ASP760  ASP761  ALA762  ILE779  LEU786  VAL792 
 PHE793  MET794  SER795  GLU796  ALA797  LYS798  CYS799  TRP800  GLU811  SER814 

> <Gold.Protein.RotatedAtoms>
  152.4123  133.6982  159.6408 H   0  0  0  0  0  0  0  0  0  0  0  0  # atno 6907 bound_to 6896
  150.8002  133.8603  159.3238 H   0  0  0  0  0  0  0  0  0  0  0  0  # atno 6908 bound_to 6896
  151.6342  135.1021  160.0179 H   0  0  0  0  0  0  0  0  0  0  0  0  # atno 6909 bound_to 6896
  144.7236  140.2604  143.6265 H   0  0  0  0  0  0  0  0  0  0  0  0  # atno 7974 bound_to 7965
  154.4977  140.0843  156.7732 H   0  0  0  0  0  0  0  0  0  0  0  0  # atno 8008 bound_to 7997
  155.4077  140.3440  155.4243 H   0  0  0  0  0  0  0  0  0  0  0  0  # atno 8009 bound_to 7997
  156.1416  140.1531  156.8900 H   0  0  0  0  0  0  0  0  0  0  0  0  # atno 8010 bound_to 7997
  139.6481  144.7127  151.2101 H   0  0  0  0  0  0  0  0  0  0  0  0  # atno 10167 bound_to 10162
  157.6919  131.0188  150.2871 H   0  0  0  0  0  0  0  0  0  0  0  0  # atno 10718 bound_to 10713
  154.0911  135.6577  153.4852 H   0  0  0  0  0  0  0  0  0  0  0  0  # atno 10763 bound_to 10752
  153.0321  135.5202  154.7379 H   0  0  0  0  0  0  0  0  0  0  0  0  # atno 10764 bound_to 10752
  154.6503  135.3000  154.9963 H   0  0  0  0  0  0  0  0  0  0  0  0  # atno 10765 bound_to 10752
  141.1349  133.8235  157.0822 H   0  0  0  0  0  0  0  0  0  0  0  0  # atno 11005 bound_to 11000
  145.8141  139.2015  143.1976 LP  0  0  0  0  0  0  0  0  0  0  0  0  # atno 17320 bound_to 7965
  146.0571  140.8010  142.9753 LP  0  0  0  0  0  0  0  0  0  0  0  0  # atno 17321 bound_to 7965
  140.7525  143.6196  150.8526 LP  0  0  0  0  0  0  0  0  0  0  0  0  # atno 17342 bound_to 10162
  139.9841  143.5919  152.2933 LP  0  0  0  0  0  0  0  0  0  0  0  0  # atno 17343 bound_to 10162
  156.3408  130.3815  149.7411 LP  0  0  0  0  0  0  0  0  0  0  0  0  # atno 17370 bound_to 10713
  156.4920  130.8089  151.3098 LP  0  0  0  0  0  0  0  0  0  0  0  0  # atno 17371 bound_to 10713
  140.0444  134.9838  157.1022 LP  0  0  0  0  0  0  0  0  0  0  0  0  # atno 17394 bound_to 11000
  140.4085  134.2007  155.7163 LP  0  0  0  0  0  0  0  0  0  0  0  0  # atno 17395 bound_to 11000

$$$$
