AV-unprocessed.smi:2529|AV-procd|sdf|9961|dock3
  -GOLD-   2272014 03D 1   1.00000     0.00000
 Structure written by MMmdl.
 44 46  0  0  0  0  0  0  0  0  1 V2000
  144.9340  143.3324  156.0134 C   0  0  0  0  0  0  0  0  0  0  0  0
  145.7267  142.1553  155.4275 C   0  0  2  0  0  0  0  0  0  0  0  0
  146.8024  141.6586  156.4095 C   0  0  0  0  0  0  0  0  0  0  0  0
  147.5979  140.4781  155.8244 C   0  0  0  0  0  0  0  0  0  0  0  0
  148.2462  140.8021  154.4564 C   0  0  2  0  0  0  0  0  0  0  0  0
  148.6699  139.5452  153.9619 O   0  0  0  0  0  0  0  0  0  0  0  0
  149.5293  141.6771  154.6288 C   0  0  0  0  0  0  0  0  0  0  0  0
  150.2886  141.4526  155.8776 N   0  0  0  0  0  0  0  0  0  0  0  0
  149.9241  142.2567  156.9764 C   0  0  0  0  0  0  0  0  0  0  0  0
  150.5043  142.1486  158.1286 N   0  0  0  0  0  0  0  0  0  0  0  0
  151.5364  141.2207  158.3029 C   0  0  0  0  0  0  0  0  0  0  0  0
  152.1497  141.0998  159.6910 C   0  0  0  0  0  0  0  0  0  0  0  0
  152.8599  142.3556  160.2230 C   0  0  0  0  0  0  0  0  0  0  0  0
  153.9140  141.4228  160.8300 C   0  0  0  0  0  0  0  0  0  0  0  0
  153.5114  140.3890  159.7724 C   0  0  0  0  0  0  0  0  0  0  0  0
  151.9471  140.4477  157.2703 C   0  0  0  0  0  0  0  0  0  0  0  0
  151.3261  140.5653  155.9510 C   0  0  0  0  0  0  0  0  0  0  0  0
  151.7162  139.9107  154.9847 O   0  0  0  0  0  0  0  0  0  0  0  0
  147.1690  141.3509  153.4858 C   0  0  0  0  0  0  0  0  0  0  0  0
  146.3671  142.5236  154.0776 C   0  0  0  0  0  0  0  0  0  0  0  0
  145.5817  144.1874  156.2104 H   0  0  0  0  0  0  0  0  0  0  0  0
  144.4550  143.0540  156.9526 H   0  0  0  0  0  0  0  0  0  0  0  0
  144.1511  143.6591  155.3286 H   0  0  0  0  0  0  0  0  0  0  0  0
  145.0237  141.3388  155.2554 H   0  0  0  0  0  0  0  0  0  0  0  0
  147.4752  142.4763  156.6680 H   0  0  0  0  0  0  0  0  0  0  0  0
  146.3330  141.3482  157.3436 H   0  0  0  0  0  0  0  0  0  0  0  0
  148.3572  140.1543  156.5375 H   0  0  0  0  0  0  0  0  0  0  0  0
  146.9120  139.6359  155.7144 H   0  0  0  0  0  0  0  0  0  0  0  0
  148.9934  139.6620  153.0817 H   0  0  0  0  0  0  0  0  0  0  0  0
  150.1847  141.5134  153.7742 H   0  0  0  0  0  0  0  0  0  0  0  0
  149.2720  142.7353  154.5459 H   0  0  0  0  0  0  0  0  0  0  0  0
  149.1238  142.9735  156.7869 H   0  0  0  0  0  0  0  0  0  0  0  0
  151.4374  140.6986  160.4143 H   0  0  0  0  0  0  0  0  0  0  0  0
  153.2700  142.9904  159.4351 H   0  0  0  0  0  0  0  0  0  0  0  0
  152.2871  142.9322  160.9498 H   0  0  0  0  0  0  0  0  0  0  0  0
  154.9412  141.7800  160.7524 H   0  0  0  0  0  0  0  0  0  0  0  0
  153.6679  141.1079  161.8456 H   0  0  0  0  0  0  0  0  0  0  0  0
  153.4691  139.3601  160.1305 H   0  0  0  0  0  0  0  0  0  0  0  0
  154.1072  140.4760  158.8617 H   0  0  0  0  0  0  0  0  0  0  0  0
  152.7424  139.7309  157.4136 H   0  0  0  0  0  0  0  0  0  0  0  0
  147.6053  141.6380  152.5291 H   0  0  0  0  0  0  0  0  0  0  0  0
  146.4627  140.5526  153.2517 H   0  0  0  0  0  0  0  0  0  0  0  0
  145.5933  142.8238  153.3703 H   0  0  0  0  0  0  0  0  0  0  0  0
  147.0098  143.3915  154.2069 H   0  0  0  0  0  0  0  0  0  0  0  0
  1  2  1  0  0  0  0
  1 21  1  0  0  0  0
  1 22  1  0  0  0  0
  1 23  1  0  0  0  0
  2 20  1  0  0  0  0
  2  3  1  0  0  0  0
  2 24  1  0  0  0  0
  3  4  1  0  0  0  0
  3 25  1  0  0  0  0
  3 26  1  0  0  0  0
  4  5  1  0  0  0  0
  4 27  1  0  0  0  0
  4 28  1  0  0  0  0
  5  6  1  0  0  0  0
  5  7  1  0  0  0  0
  5 19  1  0  0  0  0
  6 29  1  0  0  0  0
  7  8  1  0  0  0  0
  7 30  1  0  0  0  0
  7 31  1  0  0  0  0
  8 17  1  0  0  0  0
  8  9  1  0  0  0  0
  9 10  2  0  0  0  0
  9 32  1  0  0  0  0
 10 11  1  0  0  0  0
 11 12  1  0  0  0  0
 11 16  2  0  0  0  0
 12 15  1  0  0  0  0
 12 13  1  0  0  0  0
 12 33  1  0  0  0  0
 13 14  1  0  0  0  0
 13 34  1  0  0  0  0
 13 35  1  0  0  0  0
 14 15  1  0  0  0  0
 14 36  1  0  0  0  0
 14 37  1  0  0  0  0
 15 38  1  0  0  0  0
 15 39  1  0  0  0  0
 16 17  1  0  0  0  0
 16 40  1  0  0  0  0
 17 18  2  0  0  0  0
 19 20  1  0  0  0  0
 19 41  1  0  0  0  0
 19 42  1  0  0  0  0
 20 43  1  0  0  0  0
 20 44  1  0  0  0  0
M  END
> <s_m_source_file>
AV-unprocessed.smi

> <i_m_source_file_index>
2529

> <i_lp_mmshare_version>
43012

> <i_f3d_flags>
0

> <s_epik_input>
W0NIMl0xW0NIMl1bQ0BIXShbQ0gzXSlbQ0gyXVtDSDJdW0NAQF0xKFtPSF0pW0NIMl1uMltjSF1uYyhbY0hdYzI9TylbQ0hdM1tDSDJdW0NIMl1bQ0gyXTM=

> <s_epik_cmdline>
J2VwaWtfcHl0aG9uJywgJy1waCcsICc3LjAnLCAnLXRuJywgJzgnLCAnLW1hJywgJzIwMCcsICctbWV0YWxfYmluZGluZycsICctaW1hZScsICc8aW5maWxlLm1hZT4nLCAnLW9tYWUnLCAnPG91dGZpbGUubWFlPic=

> <r_lp_tautomer_probability>
1

> <r_epik_Ionization_Penalty>
9.15498e-05

> <r_epik_Ionization_Penalty_Charging>
1.67865e-07

> <r_epik_Ionization_Penalty_Neutral>
9.13819e-05

> <r_epik_State_Penalty>
-0

> <r_epik_Charging_Adjusted_Penalty>
1.67865e-07

> <i_epik_Tot_Q>
0

> <i_epik_Tot_abs_Q>
0

> <r_epik_Metal_State_Penalty>
-0

> <b_epik_Metal_Only>
0

> <s_lp_Force_Field>
OPLS_2005

> <r_lp_Energy>
33.1946

> <b_lp_Chiralities_Consistent>
1

> <s_lp_Variant>
AV-unprocessed.smi:2529-2

> <Gold.Version>
5.8.1

> <Gold.Id.Protein>
6NUR|6NUR_protein|mol2

> <Gold.PLP.Fitness>
47.2114

> <Gold.PLP.PLP>
-39.7643

> <Gold.PLP.part.hbond>
-2.0000

> <Gold.PLP.part.metal>
0.0000

> <Gold.PLP.part.buried>
-2.1666

> <Gold.PLP.part.nonpolar>
-33.9622

> <Gold.PLP.part.repulsive>
0.1127

> <Gold.PLP.ligand.clash>
0.0000

> <Gold.PLP.ligand.torsion>
1.0109

> <Gold.PLP.Chemscore.Hbond>
2.0000

> <Gold.PLP.Chemscore.CHOScore>
1.0000

> <Gold.PLP.Chemscore.Metal>
0.0000

> <Gold.Chemscore.Hbonds>
donor molecule, donor type, donor heavy atom, donor atom, acceptor molecule, acceptor atom, score
      L1  H     6    29       P1  7957  0.94
      P1  H  7989  7998       L1    18  1.00
      L1  C     9    32       P1  8028  1.00

> <Gold.PLP.Chemscore.Internal.Correction>
0.4688

> <Gold.Rescore>
     Score         DG    S(hbond)    S(metal)    S(lipo)     H(rot)  DE(clash)    DE(int)     intcor
     15.52     -17.32       1.85        0.00      87.79       1.80       0.51       1.29       ----

> <Gold.Chemscore.Fitness>
15.5233

> <Gold.Chemscore.DG>
-17.3235

> <Gold.Chemscore.ZeroCoef>
-5.4800

> <Gold.Chemscore.Hbond>
1.8480

> <Gold.Chemscore.Metal>
0.0000

> <Gold.Chemscore.Lipo>
87.7861

> <Gold.Chemscore.Internal_Hbond>
0.0000

> <Gold.Chemscore.DEClash>
0.5069

> <Gold.Chemscore.DEInternal>
1.2933

> <Gold.Chemscore.Rot>
1.7968

> <Gold.Chemscore.Internal.Correction>
   9.000000E+99

> <Gold.Chemscore.Hbonds>
donor molecule, donor type, donor heavy atom, donor atom, acceptor molecule, acceptor atom, score
      L1  H     6    29       P1  7957  0.90
      P1  H  7989  7998       L1    18  0.75

> <Gold.Chemscore.Hbond.Weighted>
-6.1723

> <Gold.Chemscore.Metal.Weighted>
-0.0000

> <Gold.Chemscore.Lipo.Weighted>
-10.2710

> <Gold.Chemscore.Internal_Hbond.Weighted>
0.0000

> <Gold.Chemscore.DEClash.Weighted>
0.5069

> <Gold.Chemscore.DEInternal.Weighted>
1.2933

> <Gold.Chemscore.Rot.Weighted>
4.5997

> <Gold.Chemscore.Internal.Correction.Weighted>
   9.000000E+99

> <Gold.Protein.RotatedTorsions>
[ 6907 6896 6895 6894 ] final    3.79 input  -60.11 | X-H torsion
[ 7974 7965 7964 7962 ] final  119.63 input  175.53 | X-H torsion
[ 8008 7997 7996 7995 ] final  -25.13 input   59.86 | X-H torsion
[ 10167 10162 10161 10158 ] final  -11.64 input  -65.29 | X-H torsion
[ 10718 10713 10712 10709 ] final  162.49 input   66.30 | X-H torsion
[ 10763 10752 10751 10750 ] final  -97.32 input  -60.55 | X-H torsion
[ 11005 11000 10999 10996 ] final -168.57 input  -57.11 | X-H torsion

> <Gold.Protein.ActiveResidues>
 VAL166  LYS551  ARG553  GLY616  TRP617  ASP618  TYR619  PRO620  LYS621  CYS622 
 ASP623  PHE694  ASN695  SER759  ASP760  ASP761  ALA762  ILE779  LEU786  VAL792 
 PHE793  MET794  SER795  GLU796  ALA797  LYS798  CYS799  TRP800  GLU811  SER814 

> <Gold.Protein.RotatedAtoms>
  151.6308  135.1023  160.0121 H   0  0  0  0  0  0  0  0  0  0  0  0  # atno 6907 bound_to 6896
  152.4107  133.6955  159.6404 H   0  0  0  0  0  0  0  0  0  0  0  0  # atno 6908 bound_to 6896
  150.7998  133.8546  159.3256 H   0  0  0  0  0  0  0  0  0  0  0  0  # atno 6909 bound_to 6896
  145.1408  139.3269  143.4617 H   0  0  0  0  0  0  0  0  0  0  0  0  # atno 7974 bound_to 7965
  154.4492  140.1935  156.0572 H   0  0  0  0  0  0  0  0  0  0  0  0  # atno 8008 bound_to 7997
  156.0610  140.3297  155.7435 H   0  0  0  0  0  0  0  0  0  0  0  0  # atno 8009 bound_to 7997
  155.5411  140.0586  157.2860 H   0  0  0  0  0  0  0  0  0  0  0  0  # atno 8010 bound_to 7997
  140.7143  143.5618  150.9188 H   0  0  0  0  0  0  0  0  0  0  0  0  # atno 10167 bound_to 10162
  157.1218  131.0494  151.2411 H   0  0  0  0  0  0  0  0  0  0  0  0  # atno 10718 bound_to 10713
  154.7318  135.5051  153.8976 H   0  0  0  0  0  0  0  0  0  0  0  0  # atno 10763 bound_to 10752
  153.0957  135.6671  153.9777 H   0  0  0  0  0  0  0  0  0  0  0  0  # atno 10764 bound_to 10752
  153.9576  135.3051  155.3414 H   0  0  0  0  0  0  0  0  0  0  0  0  # atno 10765 bound_to 10752
  140.5405  134.5527  157.5098 H   0  0  0  0  0  0  0  0  0  0  0  0  # atno 11005 bound_to 11000
  146.3505  140.1444  142.8594 LP  0  0  0  0  0  0  0  0  0  0  0  0  # atno 17320 bound_to 7965
  145.0535  140.9035  143.4981 LP  0  0  0  0  0  0  0  0  0  0  0  0  # atno 17321 bound_to 7965
  139.9343  143.6456  152.3069 LP  0  0  0  0  0  0  0  0  0  0  0  0  # atno 17342 bound_to 10162
  139.6918  144.7646  151.1425 LP  0  0  0  0  0  0  0  0  0  0  0  0  # atno 17343 bound_to 10162
  157.4470  130.7576  149.7118 LP  0  0  0  0  0  0  0  0  0  0  0  0  # atno 17370 bound_to 10713
  155.9827  130.4007  150.3404 LP  0  0  0  0  0  0  0  0  0  0  0  0  # atno 17371 bound_to 10713
  139.9507  134.7623  156.0456 LP  0  0  0  0  0  0  0  0  0  0  0  0  # atno 17394 bound_to 11000
  141.1230  133.6607  156.3264 LP  0  0  0  0  0  0  0  0  0  0  0  0  # atno 17395 bound_to 11000

$$$$
