AV-unprocessed.smi:563|AV-procd|sdf|2946|dock4
  -GOLD-   2262023443D 1   1.00000     0.00000
 Structure written by MMmdl.
 31 32  0  0  0  0  0  0  0  0  1 V2000
  149.3048  141.2860  155.7457 C   0  0  0  0  0  0  0  0  0  0  0  0
  150.3022  140.2427  156.1164 C   0  0  0  0  0  0  0  0  0  0  0  0
  150.8114  140.1105  157.3440 N   0  0  0  0  0  0  0  0  0  0  0  0
  151.7258  139.0556  157.4379 C   0  0  0  0  0  0  0  0  0  0  0  0
  152.4036  138.7633  158.7445 C   0  0  0  0  0  0  0  0  0  0  0  0
  153.2368  139.9654  159.1906 C   0  0  0  0  0  0  0  0  0  0  0  0
  154.4658  139.9145  159.1423 O   0  0  0  0  0  0  0  0  0  0  0  0
  152.5566  141.0420  159.6151 N   0  0  0  0  0  0  0  0  0  0  0  0
  153.1594  142.2916  160.0711 C   0  0  0  0  0  0  0  0  0  0  0  0
  152.7177  142.6203  161.5104 C   0  0  0  0  0  0  0  0  0  0  0  0
  152.2764  144.0850  161.4945 C   0  0  0  0  0  0  0  0  0  0  0  0
  151.7646  144.3090  160.0755 C   0  0  0  0  0  0  0  0  0  0  0  0
  152.7117  143.4851  159.2030 C   0  0  0  0  0  0  0  0  0  0  0  0
  151.9037  138.3887  156.2508 C   0  0  0  0  0  0  0  0  0  0  0  0
  150.9237  139.0569  154.9751 S   0  0  0  0  0  0  0  0  0  0  0  0
  149.3295  142.1103  156.4591 H   0  0  0  0  0  0  0  0  0  0  0  0
  148.3027  140.8567  155.7389 H   0  0  0  0  0  0  0  0  0  0  0  0
  149.5249  141.6787  154.7529 H   0  0  0  0  0  0  0  0  0  0  0  0
  151.6659  138.5346  159.5147 H   0  0  0  0  0  0  0  0  0  0  0  0
  153.0450  137.8844  158.6649 H   0  0  0  0  0  0  0  0  0  0  0  0
  151.5480  140.9916  159.6239 H   0  0  0  0  0  0  0  0  0  0  0  0
  154.2472  142.2057  160.0376 H   0  0  0  0  0  0  0  0  0  0  0  0
  151.8705  141.9987  161.8052 H   0  0  0  0  0  0  0  0  0  0  0  0
  153.5130  142.4431  162.2351 H   0  0  0  0  0  0  0  0  0  0  0  0
  151.5250  144.3063  162.2527 H   0  0  0  0  0  0  0  0  0  0  0  0
  153.1362  144.7306  161.6793 H   0  0  0  0  0  0  0  0  0  0  0  0
  150.7491  143.9203  159.9855 H   0  0  0  0  0  0  0  0  0  0  0  0
  151.7449  145.3627  159.7959 H   0  0  0  0  0  0  0  0  0  0  0  0
  153.5836  144.0894  158.9496 H   0  0  0  0  0  0  0  0  0  0  0  0
  152.2453  143.1900  158.2621 H   0  0  0  0  0  0  0  0  0  0  0  0
  152.5481  137.5451  156.0521 H   0  0  0  0  0  0  0  0  0  0  0  0
  1  2  1  0  0  0  0
  1 16  1  0  0  0  0
  1 17  1  0  0  0  0
  1 18  1  0  0  0  0
  2 15  1  0  0  0  0
  2  3  2  0  0  0  0
  3  4  1  0  0  0  0
  4  5  1  0  0  0  0
  4 14  2  0  0  0  0
  5  6  1  0  0  0  0
  5 19  1  0  0  0  0
  5 20  1  0  0  0  0
  6  7  2  0  0  0  0
  6  8  1  0  0  0  0
  8  9  1  0  0  0  0
  8 21  1  0  0  0  0
  9 13  1  0  0  0  0
  9 10  1  0  0  0  0
  9 22  1  0  0  0  0
 10 11  1  0  0  0  0
 10 23  1  0  0  0  0
 10 24  1  0  0  0  0
 11 12  1  0  0  0  0
 11 25  1  0  0  0  0
 11 26  1  0  0  0  0
 12 13  1  0  0  0  0
 12 27  1  0  0  0  0
 12 28  1  0  0  0  0
 13 29  1  0  0  0  0
 13 30  1  0  0  0  0
 14 15  1  0  0  0  0
 14 31  1  0  0  0  0
M  END
> <s_m_source_file>
AV-unprocessed.smi

> <i_m_source_file_index>
563

> <i_lp_mmshare_version>
43012

> <i_f3d_flags>
0

> <s_epik_input>
W0NIM11jMW5jKFtjSF1zMSlbQ0gyXUMoPU8pW05IXVtDSF0yW0NIMl1bQ0gyXVtDSDJdW0NIMl0y

> <s_epik_cmdline>
J2VwaWtfcHl0aG9uJywgJy1waCcsICc3LjAnLCAnLXRuJywgJzgnLCAnLW1hJywgJzIwMCcsICctbWV0YWxfYmluZGluZycsICctaW1hZScsICc8aW5maWxlLm1hZT4nLCAnLW9tYWUnLCAnPG91dGZpbGUubWFlPic=

> <r_lp_tautomer_probability>
1

> <r_epik_Ionization_Penalty>
6.26871e-05

> <r_epik_Ionization_Penalty_Charging>
0

> <r_epik_Ionization_Penalty_Neutral>
6.26871e-05

> <r_epik_State_Penalty>
-0

> <r_epik_Charging_Adjusted_Penalty>
0

> <i_epik_Tot_Q>
0

> <i_epik_Tot_abs_Q>
0

> <r_epik_Metal_State_Penalty>
-0

> <b_epik_Metal_Only>
0

> <s_lp_Force_Field>
OPLS_2005

> <r_lp_Energy>
15.9106

> <b_lp_Chiralities_Consistent>
1

> <s_lp_Variant>
AV-unprocessed.smi:563-1

> <Gold.Version>
5.8.1

> <Gold.Id.Protein>
6NUR|6NUR_protein|mol2

> <Gold.PLP.Fitness>
38.5797

> <Gold.PLP.PLP>
-35.8390

> <Gold.PLP.part.hbond>
-1.0000

> <Gold.PLP.part.metal>
0.0000

> <Gold.PLP.part.buried>
-3.4839

> <Gold.PLP.part.nonpolar>
-31.3678

> <Gold.PLP.part.repulsive>
0.1215

> <Gold.PLP.ligand.clash>
0.0000

> <Gold.PLP.ligand.torsion>
0.1314

> <Gold.PLP.Chemscore.Hbond>
1.0000

> <Gold.PLP.Chemscore.CHOScore>
0.0000

> <Gold.PLP.Chemscore.Metal>
0.0000

> <Gold.Chemscore.Hbonds>
donor molecule, donor type, donor heavy atom, donor atom, acceptor molecule, acceptor atom, score
      P1  H  7997  8008       L1     7  1.00

> <Gold.PLP.Chemscore.Internal.Correction>
0.0034

> <Gold.Rescore>
     Score         DG    S(hbond)    S(metal)    S(lipo)     H(rot)  DE(clash)    DE(int)     intcor
     16.49     -16.68       0.90        0.00      98.29       1.29       0.04       0.15       ----

> <Gold.Chemscore.Fitness>
16.4859

> <Gold.Chemscore.DG>
-16.6760

> <Gold.Chemscore.ZeroCoef>
-5.4800

> <Gold.Chemscore.Hbond>
0.9014

> <Gold.Chemscore.Metal>
0.0000

> <Gold.Chemscore.Lipo>
98.2871

> <Gold.Chemscore.Internal_Hbond>
0.0000

> <Gold.Chemscore.DEClash>
0.0376

> <Gold.Chemscore.DEInternal>
0.1525

> <Gold.Chemscore.Rot>
1.2946

> <Gold.Chemscore.Internal.Correction>
   9.000000E+99

> <Gold.Chemscore.Hbonds>
donor molecule, donor type, donor heavy atom, donor atom, acceptor molecule, acceptor atom, score
      P1  H  7997  8008       L1     7  0.68

> <Gold.Chemscore.Hbond.Weighted>
-3.0106

> <Gold.Chemscore.Metal.Weighted>
-0.0000

> <Gold.Chemscore.Lipo.Weighted>
-11.4996

> <Gold.Chemscore.Internal_Hbond.Weighted>
0.0000

> <Gold.Chemscore.DEClash.Weighted>
0.0376

> <Gold.Chemscore.DEInternal.Weighted>
0.1525

> <Gold.Chemscore.Rot.Weighted>
3.3141

> <Gold.Chemscore.Internal.Correction.Weighted>
   9.000000E+99

> <Gold.Protein.RotatedTorsions>
[ 6907 6896 6895 6894 ] final -132.97 input  -60.11 | X-H torsion
[ 7974 7965 7964 7962 ] final  -54.23 input  175.53 | X-H torsion
[ 8008 7997 7996 7995 ] final -114.68 input   59.86 | X-H torsion
[ 10167 10162 10161 10158 ] final -159.65 input  -65.29 | X-H torsion
[ 10718 10713 10712 10709 ] final   19.77 input   66.30 | X-H torsion
[ 10763 10752 10751 10750 ] final   78.16 input  -60.55 | X-H torsion
[ 11005 11000 10999 10996 ] final    3.30 input  -57.11 | X-H torsion

> <Gold.Protein.ActiveResidues>
 VAL166  LYS551  ARG553  GLY616  TRP617  ASP618  TYR619  PRO620  LYS621  CYS622 
 ASP623  PHE694  ASN695  SER759  ASP760  ASP761  ALA762  ILE779  LEU786  VAL792 
 PHE793  MET794  SER795  GLU796  ALA797  LYS798  CYS799  TRP800  GLU811  SER814 

> <Gold.Protein.RotatedAtoms>
  150.9686  133.6368  159.2741 H   0  0  0  0  0  0  0  0  0  0  0  0  # atno 6907 bound_to 6896
  151.3665  135.0913  159.9461 H   0  0  0  0  0  0  0  0  0  0  0  0  # atno 6908 bound_to 6896
  152.5174  133.9249  159.7607 H   0  0  0  0  0  0  0  0  0  0  0  0  # atno 6909 bound_to 6896
  145.8879  140.8094  142.9806 H   0  0  0  0  0  0  0  0  0  0  0  0  # atno 7974 bound_to 7965
  155.0402  140.0392  157.2506 H   0  0  0  0  0  0  0  0  0  0  0  0  # atno 8008 bound_to 7997
  154.7223  140.2714  155.6506 H   0  0  0  0  0  0  0  0  0  0  0  0  # atno 8009 bound_to 7997
  156.2820  140.2700  156.1898 H   0  0  0  0  0  0  0  0  0  0  0  0  # atno 8010 bound_to 7997
  139.6599  143.9931  152.2218 H   0  0  0  0  0  0  0  0  0  0  0  0  # atno 10167 bound_to 10162
  157.1152  130.6525  149.5908 H   0  0  0  0  0  0  0  0  0  0  0  0  # atno 10718 bound_to 10713
  153.0853  135.4887  154.8584 H   0  0  0  0  0  0  0  0  0  0  0  0  # atno 10763 bound_to 10752
  154.7203  135.3038  154.9061 H   0  0  0  0  0  0  0  0  0  0  0  0  # atno 10764 bound_to 10752
  153.9727  135.6799  153.4800 H   0  0  0  0  0  0  0  0  0  0  0  0  # atno 10765 bound_to 10752
  140.5947  133.9892  155.8104 H   0  0  0  0  0  0  0  0  0  0  0  0  # atno 11005 bound_to 11000
  144.6729  140.1484  143.7432 LP  0  0  0  0  0  0  0  0  0  0  0  0  # atno 17320 bound_to 7965
  145.8944  139.2394  143.1530 LP  0  0  0  0  0  0  0  0  0  0  0  0  # atno 17321 bound_to 7965
  139.9667  144.6521  150.8027 LP  0  0  0  0  0  0  0  0  0  0  0  0  # atno 17342 bound_to 10162
  140.7575  143.3088  151.2895 LP  0  0  0  0  0  0  0  0  0  0  0  0  # atno 17343 bound_to 10162
  155.9841  130.4864  150.6967 LP  0  0  0  0  0  0  0  0  0  0  0  0  # atno 17370 bound_to 10713
  157.4525  131.0874  151.0831 LP  0  0  0  0  0  0  0  0  0  0  0  0  # atno 17371 bound_to 10713
  141.0912  133.9914  157.3234 LP  0  0  0  0  0  0  0  0  0  0  0  0  # atno 17394 bound_to 11000
  139.9259  135.0201  156.8231 LP  0  0  0  0  0  0  0  0  0  0  0  0  # atno 17395 bound_to 11000

$$$$
