AV-unprocessed.smi:1281|AV-procd|sdf|5359|dock4
  -GOLD-   22720 4493D 1   1.00000     0.00000
 Structure written by MMmdl.
 45 46  0  0  0  0  0  0  0  0  1 V2000
  155.9269  134.0880  158.4846 C   0  0  0  0  0  0  0  0  0  0  0  0
  155.3525  134.1869  159.7754 O   0  0  0  0  0  0  0  0  0  0  0  0
  156.2009  133.6735  160.7899 C   0  0  0  0  0  0  0  0  0  0  0  0
  155.4695  133.7240  162.1409 C   0  0  0  0  0  0  0  0  0  0  0  0
  155.3543  135.0958  162.6481 N   0  0  0  0  0  0  0  0  0  0  0  0
  154.8926  136.0048  161.7110 N   0  0  0  0  0  0  0  0  0  0  0  0
  154.7512  137.2512  162.0278 C   0  0  0  0  0  0  0  0  0  0  0  0
  154.2651  138.2606  161.0469 C   0  0  0  0  0  0  0  0  0  0  0  0
  153.6433  137.9358  160.0337 O   0  0  0  0  0  0  0  0  0  0  0  0
  154.5505  139.5407  161.3475 N   0  0  0  0  0  0  0  0  0  0  0  0
  154.1793  140.6969  160.5408 C   0  0  0  0  0  0  0  0  0  0  0  0
  153.5311  141.8012  161.3945 C   0  0  0  0  0  0  0  0  0  0  0  0
  152.8240  142.8508  160.5538 C   0  0  0  0  0  0  0  0  0  0  0  0
  152.9180  142.8690  159.2098 C   0  0  0  0  0  0  0  0  0  0  0  0
  152.2518  143.9046  158.3208 C   0  0  0  0  0  0  0  0  0  0  0  0
  151.7459  145.1204  159.1153 C   0  0  0  0  0  0  0  0  0  0  0  0
  151.0522  144.6847  160.4118 C   0  0  0  0  0  0  0  0  0  0  0  0
  152.0073  143.8870  161.3180 C   0  0  0  0  0  0  0  0  0  0  0  0
  155.0661  137.7184  163.3676 C   0  0  0  0  0  0  0  0  0  0  0  0
  155.5223  136.8213  164.2690 C   0  0  0  0  0  0  0  0  0  0  0  0
  155.7017  135.4079  163.9331 C   0  0  0  0  0  0  0  0  0  0  0  0
  156.1285  134.5749  164.7322 O   0  0  0  0  0  0  0  0  0  0  0  0
  155.2372  134.4955  157.7453 H   0  0  0  0  0  0  0  0  0  0  0  0
  156.1283  133.0489  158.2206 H   0  0  0  0  0  0  0  0  0  0  0  0
  156.8582  134.6526  158.4237 H   0  0  0  0  0  0  0  0  0  0  0  0
  156.4612  132.6402  160.5562 H   0  0  0  0  0  0  0  0  0  0  0  0
  157.1323  134.2400  160.8341 H   0  0  0  0  0  0  0  0  0  0  0  0
  154.4807  133.2730  162.0392 H   0  0  0  0  0  0  0  0  0  0  0  0
  155.9953  133.1007  162.8661 H   0  0  0  0  0  0  0  0  0  0  0  0
  155.0629  139.7227  162.1988 H   0  0  0  0  0  0  0  0  0  0  0  0
  155.0841  141.0713  160.0618 H   0  0  0  0  0  0  0  0  0  0  0  0
  153.5065  140.3896  159.7383 H   0  0  0  0  0  0  0  0  0  0  0  0
  152.8135  141.3577  162.0862 H   0  0  0  0  0  0  0  0  0  0  0  0
  154.2844  142.2933  162.0110 H   0  0  0  0  0  0  0  0  0  0  0  0
  153.4926  142.1083  158.7014 H   0  0  0  0  0  0  0  0  0  0  0  0
  152.9577  144.2295  157.5560 H   0  0  0  0  0  0  0  0  0  0  0  0
  151.4230  143.4211  157.8032 H   0  0  0  0  0  0  0  0  0  0  0  0
  152.5863  145.7707  159.3610 H   0  0  0  0  0  0  0  0  0  0  0  0
  151.0671  145.7115  158.5000 H   0  0  0  0  0  0  0  0  0  0  0  0
  150.6697  145.5536  160.9479 H   0  0  0  0  0  0  0  0  0  0  0  0
  150.1862  144.0694  160.1642 H   0  0  0  0  0  0  0  0  0  0  0  0
  151.4351  143.3942  162.1047 H   0  0  0  0  0  0  0  0  0  0  0  0
  152.6997  144.5697  161.8113 H   0  0  0  0  0  0  0  0  0  0  0  0
  154.9439  138.7559  163.6432 H   0  0  0  0  0  0  0  0  0  0  0  0
  155.7619  137.1550  165.2679 H   0  0  0  0  0  0  0  0  0  0  0  0
  1  2  1  0  0  0  0
  1 23  1  0  0  0  0
  1 24  1  0  0  0  0
  1 25  1  0  0  0  0
  2  3  1  0  0  0  0
  3  4  1  0  0  0  0
  3 26  1  0  0  0  0
  3 27  1  0  0  0  0
  4  5  1  0  0  0  0
  4 28  1  0  0  0  0
  4 29  1  0  0  0  0
  5 21  1  0  0  0  0
  5  6  1  0  0  0  0
  6  7  2  0  0  0  0
  7  8  1  0  0  0  0
  7 19  1  0  0  0  0
  8  9  2  0  0  0  0
  8 10  1  0  0  0  0
 10 11  1  0  0  0  0
 10 30  1  0  0  0  0
 11 12  1  0  0  0  0
 11 31  1  0  0  0  0
 11 32  1  0  0  0  0
 12 13  1  0  0  0  0
 12 33  1  0  0  0  0
 12 34  1  0  0  0  0
 13 18  1  0  0  0  0
 13 14  2  0  0  0  0
 14 15  1  0  0  0  0
 14 35  1  0  0  0  0
 15 16  1  0  0  0  0
 15 36  1  0  0  0  0
 15 37  1  0  0  0  0
 16 17  1  0  0  0  0
 16 38  1  0  0  0  0
 16 39  1  0  0  0  0
 17 18  1  0  0  0  0
 17 40  1  0  0  0  0
 17 41  1  0  0  0  0
 18 42  1  0  0  0  0
 18 43  1  0  0  0  0
 19 20  2  0  0  0  0
 19 44  1  0  0  0  0
 20 21  1  0  0  0  0
 20 45  1  0  0  0  0
 21 22  2  0  0  0  0
M  END
> <s_m_source_file>
AV-unprocessed.smi

> <i_m_source_file_index>
1281

> <i_lp_mmshare_version>
43012

> <i_f3d_flags>
0

> <s_epik_input>
W0NIM11PW0NIMl1bQ0gyXW4xbmMoW2NIXVtjSF1jMT1PKUMoPU8pW05IXVtDSDJdW0NIMl1DMj1bQ0hdW0NIMl1bQ0gyXVtDSDJdW0NIMl0y

> <s_epik_cmdline>
J2VwaWtfcHl0aG9uJywgJy1waCcsICc3LjAnLCAnLXRuJywgJzgnLCAnLW1hJywgJzIwMCcsICctbWV0YWxfYmluZGluZycsICctaW1hZScsICc8aW5maWxlLm1hZT4nLCAnLW9tYWUnLCAnPG91dGZpbGUubWFlPic=

> <r_lp_tautomer_probability>
1

> <r_epik_Ionization_Penalty>
8.17845e-07

> <r_epik_Ionization_Penalty_Charging>
5.79962e-09

> <r_epik_Ionization_Penalty_Neutral>
8.12046e-07

> <r_epik_State_Penalty>
-0

> <r_epik_Charging_Adjusted_Penalty>
5.79962e-09

> <i_epik_Tot_Q>
0

> <i_epik_Tot_abs_Q>
0

> <r_epik_Metal_State_Penalty>
-0

> <b_epik_Metal_Only>
0

> <s_lp_Force_Field>
OPLS_2005

> <r_lp_Energy>
28.483

> <b_lp_Chiralities_Consistent>
1

> <s_lp_Variant>
AV-unprocessed.smi:1281-1

> <Gold.Version>
5.8.1

> <Gold.Id.Protein>
6NUR|6NUR_protein|mol2

> <Gold.PLP.Fitness>
52.2127

> <Gold.PLP.PLP>
-50.0608

> <Gold.PLP.part.hbond>
-1.0000

> <Gold.PLP.part.metal>
0.0000

> <Gold.PLP.part.buried>
-6.2353

> <Gold.PLP.part.nonpolar>
-42.5501

> <Gold.PLP.part.repulsive>
0.0951

> <Gold.PLP.ligand.clash>
0.0000

> <Gold.PLP.ligand.torsion>
0.5025

> <Gold.PLP.Chemscore.Hbond>
1.0000

> <Gold.PLP.Chemscore.CHOScore>
0.0000

> <Gold.PLP.Chemscore.Metal>
0.0000

> <Gold.PLP.Chemscore.Internal.Correction>
0.1570

> <Gold.Rescore>
     Score         DG    S(hbond)    S(metal)    S(lipo)     H(rot)  DE(clash)    DE(int)     intcor
     17.29     -19.07       0.98        0.00     128.94       1.86       0.04       1.75       ----

> <Gold.Chemscore.Fitness>
17.2888

> <Gold.Chemscore.DG>
-19.0721

> <Gold.Chemscore.ZeroCoef>
-5.4800

> <Gold.Chemscore.Hbond>
0.9820

> <Gold.Chemscore.Metal>
0.0000

> <Gold.Chemscore.Lipo>
128.9425

> <Gold.Chemscore.Internal_Hbond>
0.0000

> <Gold.Chemscore.DEClash>
0.0368

> <Gold.Chemscore.DEInternal>
1.7465

> <Gold.Chemscore.Rot>
1.8649

> <Gold.Chemscore.Internal.Correction>
   9.000000E+99

> <Gold.Chemscore.Hbond.Weighted>
-3.2800

> <Gold.Chemscore.Metal.Weighted>
-0.0000

> <Gold.Chemscore.Lipo.Weighted>
-15.0863

> <Gold.Chemscore.Internal_Hbond.Weighted>
0.0000

> <Gold.Chemscore.DEClash.Weighted>
0.0368

> <Gold.Chemscore.DEInternal.Weighted>
1.7465

> <Gold.Chemscore.Rot.Weighted>
4.7741

> <Gold.Chemscore.Internal.Correction.Weighted>
   9.000000E+99

> <Gold.Protein.RotatedTorsions>
[ 6907 6896 6895 6894 ] final  -30.07 input  -60.11 | X-H torsion
[ 7974 7965 7964 7962 ] final  120.41 input  175.53 | X-H torsion
[ 8008 7997 7996 7995 ] final  117.95 input   59.86 | X-H torsion
[ 10167 10162 10161 10158 ] final -140.53 input  -65.29 | X-H torsion
[ 10718 10713 10712 10709 ] final  -74.12 input   66.30 | X-H torsion
[ 10763 10752 10751 10750 ] final    2.79 input  -60.55 | X-H torsion
[ 11005 11000 10999 10996 ] final  -48.75 input  -57.11 | X-H torsion

> <Gold.Protein.ActiveResidues>
 VAL166  LYS551  ARG553  GLY616  TRP617  ASP618  TYR619  PRO620  LYS621  CYS622 
 ASP623  PHE694  ASN695  SER759  ASP760  ASP761  ALA762  ILE779  LEU786  VAL792 
 PHE793  MET794  SER795  GLU796  ALA797  LYS798  CYS799  TRP800  GLU811  SER814 

> <Gold.Protein.RotatedAtoms>
  151.1105  135.0024  159.8491 H   0  0  0  0  0  0  0  0  0  0  0  0  # atno 6907 bound_to 6896
  152.5443  134.1841  159.8657 H   0  0  0  0  0  0  0  0  0  0  0  0  # atno 6908 bound_to 6896
  151.1891  133.4633  159.2628 H   0  0  0  0  0  0  0  0  0  0  0  0  # atno 6909 bound_to 6896
  145.1315  139.3325  143.4663 H   0  0  0  0  0  0  0  0  0  0  0  0  # atno 7974 bound_to 7965
  156.2521  140.2885  156.0758 H   0  0  0  0  0  0  0  0  0  0  0  0  # atno 8008 bound_to 7997
  155.1621  140.0400  157.2862 H   0  0  0  0  0  0  0  0  0  0  0  0  # atno 8009 bound_to 7997
  154.6385  140.2516  155.7356 H   0  0  0  0  0  0  0  0  0  0  0  0  # atno 8010 bound_to 7997
  139.8273  143.7494  152.2666 H   0  0  0  0  0  0  0  0  0  0  0  0  # atno 10167 bound_to 10162
  156.0254  130.4409  150.2845 H   0  0  0  0  0  0  0  0  0  0  0  0  # atno 10718 bound_to 10713
  153.2913  135.6948  153.7291 H   0  0  0  0  0  0  0  0  0  0  0  0  # atno 10763 bound_to 10752
  153.6240  135.3422  155.3021 H   0  0  0  0  0  0  0  0  0  0  0  0  # atno 10764 bound_to 10752
  154.8524  135.4393  154.1996 H   0  0  0  0  0  0  0  0  0  0  0  0  # atno 10765 bound_to 10752
  141.0719  133.6676  156.3486 H   0  0  0  0  0  0  0  0  0  0  0  0  # atno 11005 bound_to 11000
  146.3513  140.1315  142.8597 LP  0  0  0  0  0  0  0  0  0  0  0  0  # atno 17320 bound_to 7965
  145.0630  140.9101  143.4927 LP  0  0  0  0  0  0  0  0  0  0  0  0  # atno 17321 bound_to 7965
  139.7690  144.7482  151.0252 LP  0  0  0  0  0  0  0  0  0  0  0  0  # atno 17342 bound_to 10162
  140.7809  143.4665  151.0204 LP  0  0  0  0  0  0  0  0  0  0  0  0  # atno 17343 bound_to 10162
  157.0948  131.0179  151.3108 LP  0  0  0  0  0  0  0  0  0  0  0  0  # atno 17370 bound_to 10713
  157.4826  130.7774  149.7428 LP  0  0  0  0  0  0  0  0  0  0  0  0  # atno 17371 bound_to 10713
  140.5655  134.5892  157.5444 LP  0  0  0  0  0  0  0  0  0  0  0  0  # atno 17394 bound_to 11000
  139.9532  134.7580  156.0400 LP  0  0  0  0  0  0  0  0  0  0  0  0  # atno 17395 bound_to 11000

$$$$
