AV-unprocessed.smi:1072|AV-procd|sdf|4684|dock9
  -GOLD-   22720 3203D 1   1.00000     0.00000
 Structure written by MMmdl.
 46 47  0  0  0  0  0  0  0  0  1 V2000
  146.8871  137.3421  154.2484 C   0  0  0  0  0  0  0  0  0  0  0  0
  147.5660  138.6693  154.5133 C   0  0  0  0  0  0  0  0  0  0  0  0
  146.9306  139.7760  154.7187 N   0  0  0  0  0  0  0  0  0  0  0  0
  147.6698  140.9438  154.9531 C   0  0  0  0  0  0  0  0  0  0  0  0
  146.8514  142.2014  155.1919 C   0  0  0  0  0  0  0  0  0  0  0  0
  149.0354  140.9362  154.9658 C   0  0  0  0  0  0  0  0  0  0  0  0
  149.8669  142.1923  155.2224 C   0  0  0  0  0  0  0  0  0  0  0  0
  150.8168  142.1257  156.4208 C   0  0  0  0  0  0  0  0  0  0  0  0
  151.3083  141.0488  156.7576 O   0  0  0  0  0  0  0  0  0  0  0  0
  151.0427  143.2911  157.0536 N   0  0  0  0  0  0  0  0  0  0  0  0
  151.8415  143.5604  158.2575 C   0  0  1  0  0  0  0  0  0  0  0  0
  152.8065  144.6971  157.8574 C   0  0  0  0  0  0  0  0  0  0  0  0
  150.9204  144.0212  159.4204 C   0  0  0  0  0  0  0  0  0  0  0  0
  151.6661  144.1777  160.7577 C   0  0  0  0  0  0  0  0  0  0  0  0
  152.4159  142.8905  161.1457 C   0  0  2  0  0  0  0  0  0  0  0  0
  153.1524  143.0531  162.4831 C   0  0  0  0  0  0  0  0  0  0  0  0
  153.3778  142.4678  160.0203 C   0  0  0  0  0  0  0  0  0  0  0  0
  152.6448  142.2983  158.6768 C   0  0  0  0  0  0  0  0  0  0  0  0
  149.7502  139.6669  154.7289 C   0  0  0  0  0  0  0  0  0  0  0  0
  150.9743  139.5455  154.7218 O   0  0  0  0  0  0  0  0  0  0  0  0
  148.9575  138.5931  154.5141 N   0  0  0  0  0  0  0  0  0  0  0  0
  149.3992  137.7004  154.3494 H   0  0  0  0  0  0  0  0  0  0  0  0
  146.2635  137.0630  155.0981 H   0  0  0  0  0  0  0  0  0  0  0  0
  147.6125  136.5448  154.0808 H   0  0  0  0  0  0  0  0  0  0  0  0
  146.2512  137.4158  153.3658 H   0  0  0  0  0  0  0  0  0  0  0  0
  147.0586  142.9454  154.4224 H   0  0  0  0  0  0  0  0  0  0  0  0
  147.0823  142.6336  156.1657 H   0  0  0  0  0  0  0  0  0  0  0  0
  145.7822  141.9875  155.1698 H   0  0  0  0  0  0  0  0  0  0  0  0
  150.4530  142.4556  154.3415 H   0  0  0  0  0  0  0  0  0  0  0  0
  149.1831  143.0305  155.3602 H   0  0  0  0  0  0  0  0  0  0  0  0
  150.5782  144.0989  156.6646 H   0  0  0  0  0  0  0  0  0  0  0  0
  153.4597  145.0000  158.6743 H   0  0  0  0  0  0  0  0  0  0  0  0
  152.2597  145.5857  157.5394 H   0  0  0  0  0  0  0  0  0  0  0  0
  153.4487  144.3961  157.0289 H   0  0  0  0  0  0  0  0  0  0  0  0
  150.4282  144.9596  159.1616 H   0  0  0  0  0  0  0  0  0  0  0  0
  150.1180  143.3012  159.5797 H   0  0  0  0  0  0  0  0  0  0  0  0
  152.3633  145.0141  160.7027 H   0  0  0  0  0  0  0  0  0  0  0  0
  150.9501  144.4361  161.5387 H   0  0  0  0  0  0  0  0  0  0  0  0
  151.6777  142.0970  161.2717 H   0  0  0  0  0  0  0  0  0  0  0  0
  153.9078  143.8376  162.4272 H   0  0  0  0  0  0  0  0  0  0  0  0
  153.6534  142.1286  162.7708 H   0  0  0  0  0  0  0  0  0  0  0  0
  152.4595  143.3145  163.2834 H   0  0  0  0  0  0  0  0  0  0  0  0
  154.1795  143.1997  159.9204 H   0  0  0  0  0  0  0  0  0  0  0  0
  153.8626  141.5273  160.2848 H   0  0  0  0  0  0  0  0  0  0  0  0
  151.9825  141.4392  158.7768 H   0  0  0  0  0  0  0  0  0  0  0  0
  153.3607  142.0312  157.8982 H   0  0  0  0  0  0  0  0  0  0  0  0
  1  2  1  0  0  0  0
  1 23  1  0  0  0  0
  1 24  1  0  0  0  0
  1 25  1  0  0  0  0
  2 21  1  0  0  0  0
  2  3  2  0  0  0  0
  3  4  1  0  0  0  0
  4  5  1  0  0  0  0
  4  6  2  0  0  0  0
  5 26  1  0  0  0  0
  5 27  1  0  0  0  0
  5 28  1  0  0  0  0
  6  7  1  0  0  0  0
  6 19  1  0  0  0  0
  7  8  1  0  0  0  0
  7 29  1  0  0  0  0
  7 30  1  0  0  0  0
  8  9  2  0  0  0  0
  8 10  1  0  0  0  0
 10 11  1  0  0  0  0
 10 31  1  0  0  0  0
 11 18  1  0  0  0  0
 11 12  1  0  0  0  0
 11 13  1  0  0  0  0
 12 32  1  0  0  0  0
 12 33  1  0  0  0  0
 12 34  1  0  0  0  0
 13 14  1  0  0  0  0
 13 35  1  0  0  0  0
 13 36  1  0  0  0  0
 14 15  1  0  0  0  0
 14 37  1  0  0  0  0
 14 38  1  0  0  0  0
 15 16  1  0  0  0  0
 15 17  1  0  0  0  0
 15 39  1  0  0  0  0
 16 40  1  0  0  0  0
 16 41  1  0  0  0  0
 16 42  1  0  0  0  0
 17 18  1  0  0  0  0
 17 43  1  0  0  0  0
 17 44  1  0  0  0  0
 18 45  1  0  0  0  0
 18 46  1  0  0  0  0
 19 20  2  0  0  0  0
 19 21  1  0  0  0  0
 21 22  1  0  0  0  0
M  END
> <s_m_source_file>
AV-unprocessed.smi

> <i_m_source_file_index>
1072

> <i_lp_mmshare_version>
43012

> <i_f3d_flags>
0

> <s_epik_input>
W0NIM11jMW5jKFtDSDNdKWMoYyg9TylbbkhdMSlbQ0gyXUMoPU8pW05IXVtDQEBdMihbQ0gzXSlbQ0gyXVtDSDJdW0NAQEhdKFtDSDNdKVtDSDJdW0NIMl0y

> <s_epik_cmdline>
J2VwaWtfcHl0aG9uJywgJy1waCcsICc3LjAnLCAnLXRuJywgJzgnLCAnLW1hJywgJzIwMCcsICctbWV0YWxfYmluZGluZycsICctaW1hZScsICc8aW5maWxlLm1hZT4nLCAnLW9tYWUnLCAnPG91dGZpbGUubWFlPic=

> <r_lp_tautomer_probability>
0.839158

> <r_epik_Ionization_Penalty>
0.000352328

> <r_epik_Ionization_Penalty_Charging>
0.000314696

> <r_epik_Ionization_Penalty_Neutral>
3.76315e-05

> <r_epik_State_Penalty>
0.09125

> <r_epik_Charging_Adjusted_Penalty>
0.0915647

> <i_epik_Tot_Q>
0

> <i_epik_Tot_abs_Q>
0

> <r_epik_Metal_State_Penalty>
0.245598

> <b_epik_Metal_Only>
0

> <s_lp_Force_Field>
OPLS_2005

> <r_lp_Energy>
14.8959

> <b_lp_Chiralities_Consistent>
1

> <s_lp_Variant>
AV-unprocessed.smi:1072-2

> <Gold.Version>
5.8.1

> <Gold.Id.Protein>
6NUR|6NUR_protein|mol2

> <Gold.PLP.Fitness>
44.0939

> <Gold.PLP.PLP>
-42.7404

> <Gold.PLP.part.hbond>
-2.0000

> <Gold.PLP.part.metal>
0.0000

> <Gold.PLP.part.buried>
-3.8933

> <Gold.PLP.part.nonpolar>
-36.9642

> <Gold.PLP.part.repulsive>
0.2184

> <Gold.PLP.ligand.clash>
3.5154

> <Gold.PLP.ligand.torsion>
0.4592

> <Gold.PLP.Chemscore.Hbond>
1.9280

> <Gold.PLP.Chemscore.CHOScore>
0.0000

> <Gold.PLP.Chemscore.Metal>
0.0000

> <Gold.Chemscore.Hbonds>
donor molecule, donor type, donor heavy atom, donor atom, acceptor molecule, acceptor atom, score
      L1  H    10    31       P1  8028  0.87
      P1  H  7989  7998       L1    20  1.00

> <Gold.PLP.Chemscore.Internal.Correction>
0.0034

> <Gold.Rescore>
     Score         DG    S(hbond)    S(metal)    S(lipo)     H(rot)  DE(clash)    DE(int)     intcor
     16.04     -21.87       1.93        0.00     117.25       1.47       1.27       4.56       ----

> <Gold.Chemscore.Fitness>
16.0392

> <Gold.Chemscore.DG>
-21.8712

> <Gold.Chemscore.ZeroCoef>
-5.4800

> <Gold.Chemscore.Hbond>
1.9263

> <Gold.Chemscore.Metal>
0.0000

> <Gold.Chemscore.Lipo>
117.2471

> <Gold.Chemscore.Internal_Hbond>
0.0000

> <Gold.Chemscore.DEClash>
1.2733

> <Gold.Chemscore.DEInternal>
4.5587

> <Gold.Chemscore.Rot>
1.4690

> <Gold.Chemscore.Internal.Correction>
   9.000000E+99

> <Gold.Chemscore.Hbonds>
donor molecule, donor type, donor heavy atom, donor atom, acceptor molecule, acceptor atom, score
      L1  H    10    31       P1  8028  0.80
      P1  H  7989  7998       L1    20  0.55

> <Gold.Chemscore.Hbond.Weighted>
-6.4339

> <Gold.Chemscore.Metal.Weighted>
-0.0000

> <Gold.Chemscore.Lipo.Weighted>
-13.7179

> <Gold.Chemscore.Internal_Hbond.Weighted>
0.0000

> <Gold.Chemscore.DEClash.Weighted>
1.2733

> <Gold.Chemscore.DEInternal.Weighted>
4.5587

> <Gold.Chemscore.Rot.Weighted>
3.7607

> <Gold.Chemscore.Internal.Correction.Weighted>
   9.000000E+99

> <Gold.Protein.RotatedTorsions>
[ 6907 6896 6895 6894 ] final  -71.63 input  -60.11 | X-H torsion
[ 7974 7965 7964 7962 ] final  115.83 input  175.53 | X-H torsion
[ 8008 7997 7996 7995 ] final  -23.53 input   59.86 | X-H torsion
[ 10167 10162 10161 10158 ] final   91.24 input  -65.29 | X-H torsion
[ 10718 10713 10712 10709 ] final  -54.73 input   66.30 | X-H torsion
[ 10763 10752 10751 10750 ] final -162.38 input  -60.55 | X-H torsion
[ 11005 11000 10999 10996 ] final -151.52 input  -57.11 | X-H torsion

> <Gold.Protein.ActiveResidues>
 VAL166  LYS551  ARG553  GLY616  TRP617  ASP618  TYR619  PRO620  LYS621  CYS622 
 ASP623  PHE694  ASN695  SER759  ASP760  ASP761  ALA762  ILE779  LEU786  VAL792 
 PHE793  MET794  SER795  GLU796  ALA797  LYS798  CYS799  TRP800  GLU811  SER814 

> <Gold.Protein.RotatedAtoms>
  150.7204  134.5281  159.5686 H   0  0  0  0  0  0  0  0  0  0  0  0  # atno 6907 bound_to 6896
  152.2820  134.7814  160.0403 H   0  0  0  0  0  0  0  0  0  0  0  0  # atno 6908 bound_to 6896
  151.8458  133.3396  159.3694 H   0  0  0  0  0  0  0  0  0  0  0  0  # atno 6909 bound_to 6896
  145.1871  139.3019  143.4388 H   0  0  0  0  0  0  0  0  0  0  0  0  # atno 7974 bound_to 7965
  154.4580  140.1978  156.0324 H   0  0  0  0  0  0  0  0  0  0  0  0  # atno 8008 bound_to 7997
  156.0785  140.3275  155.7635 H   0  0  0  0  0  0  0  0  0  0  0  0  # atno 8009 bound_to 7997
  155.5150  140.0565  157.2907 H   0  0  0  0  0  0  0  0  0  0  0  0  # atno 8010 bound_to 7997
  139.8394  144.6648  150.9302 H   0  0  0  0  0  0  0  0  0  0  0  0  # atno 10167 bound_to 10162
  156.1427  130.4154  150.0076 H   0  0  0  0  0  0  0  0  0  0  0  0  # atno 10718 bound_to 10713
  154.7219  135.3027  154.9033 H   0  0  0  0  0  0  0  0  0  0  0  0  # atno 10763 bound_to 10752
  153.9902  135.6719  153.4758 H   0  0  0  0  0  0  0  0  0  0  0  0  # atno 10764 bound_to 10752
  153.0842  135.4993  154.8481 H   0  0  0  0  0  0  0  0  0  0  0  0  # atno 10765 bound_to 10752
  140.7286  134.3646  157.5171 H   0  0  0  0  0  0  0  0  0  0  0  0  # atno 11005 bound_to 11000
  146.3443  140.2071  142.8589 LP  0  0  0  0  0  0  0  0  0  0  0  0  # atno 17320 bound_to 7965
  145.0078  140.8688  143.5242 LP  0  0  0  0  0  0  0  0  0  0  0  0  # atno 17321 bound_to 7965
  140.7799  143.3927  151.1283 LP  0  0  0  0  0  0  0  0  0  0  0  0  # atno 17342 bound_to 10162
  139.7574  143.8687  152.3092 LP  0  0  0  0  0  0  0  0  0  0  0  0  # atno 17343 bound_to 10162
  156.7957  130.9272  151.3646 LP  0  0  0  0  0  0  0  0  0  0  0  0  # atno 17370 bound_to 10713
  157.6589  130.8949  149.9788 LP  0  0  0  0  0  0  0  0  0  0  0  0  # atno 17371 bound_to 10713
  139.8831  134.9003  156.2786 LP  0  0  0  0  0  0  0  0  0  0  0  0  # atno 17394 bound_to 11000
  140.9940  133.7191  156.0858 LP  0  0  0  0  0  0  0  0  0  0  0  0  # atno 17395 bound_to 11000

$$$$
