AV-unprocessed.smi:3269|AV-procd|sdf|12510|dock10
  -GOLD-   2272018423D 1   1.00000     0.00000
 Structure written by MMmdl.
 39 40  0  0  0  0  0  0  0  0  1 V2000
  146.7512  139.0167  152.9904 C   0  0  0  0  0  0  0  0  0  0  0  0
  146.5077  139.7064  154.3018 C   0  0  0  0  0  0  0  0  0  0  0  0
  145.5005  139.3157  155.0651 N   0  0  0  0  0  0  0  0  0  0  0  0
  145.5597  140.1160  156.1484 N   0  0  0  0  0  0  0  0  0  0  0  0
  144.5805  139.9559  157.2057 C   0  0  0  0  0  0  0  0  0  0  0  0
  146.6074  141.0129  156.0695 C   0  0  0  0  0  0  0  0  0  0  0  0
  146.8917  142.0042  157.1515 C   0  0  0  0  0  0  0  0  0  0  0  0
  147.2428  140.7832  154.8784 C   0  0  0  0  0  0  0  0  0  0  0  0
  148.4413  141.4915  154.2937 C   0  0  0  0  0  0  0  0  0  0  0  0
  149.7199  141.1972  155.0874 C   0  0  0  0  0  0  0  0  0  0  0  0
  150.4398  140.2382  154.8053 O   0  0  0  0  0  0  0  0  0  0  0  0
  149.9865  142.0446  156.0927 N   0  0  0  0  0  0  0  0  0  0  0  0
  151.1573  141.9836  156.9627 C   0  0  0  0  0  0  0  0  0  0  0  0
  151.1479  143.0760  158.0495 C   0  0  2  0  0  0  0  0  0  0  0  0
  151.8161  144.4006  157.6698 C   0  0  0  0  0  0  0  0  0  0  0  0
  152.1625  144.9608  159.0307 C   0  0  0  0  0  0  0  0  0  0  0  0
  152.5822  143.7026  159.7851 C   0  0  0  0  0  0  0  0  0  0  0  0
  151.8074  142.6401  159.2361 O   0  0  0  0  0  0  0  0  0  0  0  0
  147.8050  138.7656  152.8742 H   0  0  0  0  0  0  0  0  0  0  0  0
  146.4684  139.6578  152.1556 H   0  0  0  0  0  0  0  0  0  0  0  0
  146.1814  138.0906  152.9077 H   0  0  0  0  0  0  0  0  0  0  0  0
  144.0678  140.9029  157.3764 H   0  0  0  0  0  0  0  0  0  0  0  0
  145.0808  139.6501  158.1247 H   0  0  0  0  0  0  0  0  0  0  0  0
  143.8418  139.1993  156.9369 H   0  0  0  0  0  0  0  0  0  0  0  0
  147.8594  142.4832  157.0040 H   0  0  0  0  0  0  0  0  0  0  0  0
  146.9091  141.5208  158.1283 H   0  0  0  0  0  0  0  0  0  0  0  0
  146.1294  142.7830  157.1715 H   0  0  0  0  0  0  0  0  0  0  0  0
  148.5969  141.1902  153.2571 H   0  0  0  0  0  0  0  0  0  0  0  0
  148.2918  142.5711  154.2722 H   0  0  0  0  0  0  0  0  0  0  0  0
  149.3393  142.8021  156.2557 H   0  0  0  0  0  0  0  0  0  0  0  0
  151.1646  141.0027  157.4384 H   0  0  0  0  0  0  0  0  0  0  0  0
  152.0765  142.0429  156.3773 H   0  0  0  0  0  0  0  0  0  0  0  0
  150.1137  143.2824  158.3288 H   0  0  0  0  0  0  0  0  0  0  0  0
  152.7309  144.2410  157.0984 H   0  0  0  0  0  0  0  0  0  0  0  0
  151.1632  145.0547  157.0915 H   0  0  0  0  0  0  0  0  0  0  0  0
  152.9449  145.7193  158.9976 H   0  0  0  0  0  0  0  0  0  0  0  0
  151.2771  145.3997  159.4925 H   0  0  0  0  0  0  0  0  0  0  0  0
  153.6361  143.4885  159.6067 H   0  0  0  0  0  0  0  0  0  0  0  0
  152.4328  143.7917  160.8611 H   0  0  0  0  0  0  0  0  0  0  0  0
  1  2  1  0  0  0  0
  1 19  1  0  0  0  0
  1 20  1  0  0  0  0
  1 21  1  0  0  0  0
  2  8  1  0  0  0  0
  2  3  2  0  0  0  0
  3  4  1  0  0  0  0
  4  5  1  0  0  0  0
  4  6  1  0  0  0  0
  5 22  1  0  0  0  0
  5 23  1  0  0  0  0
  5 24  1  0  0  0  0
  6  7  1  0  0  0  0
  6  8  2  0  0  0  0
  7 25  1  0  0  0  0
  7 26  1  0  0  0  0
  7 27  1  0  0  0  0
  8  9  1  0  0  0  0
  9 10  1  0  0  0  0
  9 28  1  0  0  0  0
  9 29  1  0  0  0  0
 10 11  2  0  0  0  0
 10 12  1  0  0  0  0
 12 13  1  0  0  0  0
 12 30  1  0  0  0  0
 13 14  1  0  0  0  0
 13 31  1  0  0  0  0
 13 32  1  0  0  0  0
 14 18  1  0  0  0  0
 14 15  1  0  0  0  0
 14 33  1  0  0  0  0
 15 16  1  0  0  0  0
 15 34  1  0  0  0  0
 15 35  1  0  0  0  0
 16 17  1  0  0  0  0
 16 36  1  0  0  0  0
 16 37  1  0  0  0  0
 17 18  1  0  0  0  0
 17 38  1  0  0  0  0
 17 39  1  0  0  0  0
M  END
> <s_m_source_file>
AV-unprocessed.smi

> <i_m_source_file_index>
3269

> <i_lp_mmshare_version>
43012

> <i_f3d_flags>
0

> <s_epik_input>
W0NIM11jMW5uKFtDSDNdKWMoW0NIM10pYzFbQ0gyXUMoPU8pW05IXVtDSDJdW0NAQEhdMltDSDJdW0NIMl1bQ0gyXU8y

> <s_epik_cmdline>
J2VwaWtfcHl0aG9uJywgJy1waCcsICc3LjAnLCAnLXRuJywgJzgnLCAnLW1hJywgJzIwMCcsICctbWV0YWxfYmluZGluZycsICctaW1hZScsICc8aW5maWxlLm1hZT4nLCAnLW9tYWUnLCAnPG91dGZpbGUubWFlPic=

> <r_lp_tautomer_probability>
1

> <r_epik_Ionization_Penalty>
0.00306713

> <r_epik_Ionization_Penalty_Charging>
0

> <r_epik_Ionization_Penalty_Neutral>
0.00306713

> <r_epik_State_Penalty>
0.00215672

> <r_epik_Charging_Adjusted_Penalty>
0.00215672

> <i_epik_Tot_Q>
0

> <i_epik_Tot_abs_Q>
0

> <r_epik_Metal_State_Penalty>
-0

> <b_epik_Metal_Only>
0

> <s_lp_Force_Field>
OPLS_2005

> <r_lp_Energy>
13.6043

> <b_lp_Chiralities_Consistent>
1

> <s_lp_Variant>
AV-unprocessed.smi:3269-1

> <Gold.Version>
5.8.1

> <Gold.Id.Protein>
6NUR|6NUR_protein|mol2

> <Gold.PLP.Fitness>
38.9910

> <Gold.PLP.PLP>
-34.6463

> <Gold.PLP.part.hbond>
-2.0000

> <Gold.PLP.part.metal>
0.0000

> <Gold.PLP.part.buried>
-4.1376

> <Gold.PLP.part.nonpolar>
-28.5449

> <Gold.PLP.part.repulsive>
0.3745

> <Gold.PLP.ligand.clash>
0.0000

> <Gold.PLP.ligand.torsion>
0.8304

> <Gold.PLP.Chemscore.Hbond>
2.0000

> <Gold.PLP.Chemscore.CHOScore>
0.0000

> <Gold.PLP.Chemscore.Metal>
0.0000

> <Gold.Chemscore.Hbonds>
donor molecule, donor type, donor heavy atom, donor atom, acceptor molecule, acceptor atom, score
      L1  H    12    30       P1  8028  0.79
      P1  H  7989  7998       L1    11  1.00

> <Gold.PLP.Chemscore.Internal.Correction>
0.0055

> <Gold.Rescore>
     Score         DG    S(hbond)    S(metal)    S(lipo)     H(rot)  DE(clash)    DE(int)     intcor
     16.15     -17.10       1.61        0.00      86.20       1.50       0.17       0.79       ----

> <Gold.Chemscore.Fitness>
16.1466

> <Gold.Chemscore.DG>
-17.1038

> <Gold.Chemscore.ZeroCoef>
-5.4800

> <Gold.Chemscore.Hbond>
1.6095

> <Gold.Chemscore.Metal>
0.0000

> <Gold.Chemscore.Lipo>
86.1991

> <Gold.Chemscore.Internal_Hbond>
0.0000

> <Gold.Chemscore.DEClash>
0.1683

> <Gold.Chemscore.DEInternal>
0.7889

> <Gold.Chemscore.Rot>
1.4989

> <Gold.Chemscore.Internal.Correction>
   9.000000E+99

> <Gold.Chemscore.Hbonds>
donor molecule, donor type, donor heavy atom, donor atom, acceptor molecule, acceptor atom, score
      L1  H    12    30       P1  8028  0.75
      P1  H  7989  7998       L1    11  0.49

> <Gold.Chemscore.Hbond.Weighted>
-5.3756

> <Gold.Chemscore.Metal.Weighted>
-0.0000

> <Gold.Chemscore.Lipo.Weighted>
-10.0853

> <Gold.Chemscore.Internal_Hbond.Weighted>
0.0000

> <Gold.Chemscore.DEClash.Weighted>
0.1683

> <Gold.Chemscore.DEInternal.Weighted>
0.7889

> <Gold.Chemscore.Rot.Weighted>
3.8371

> <Gold.Chemscore.Internal.Correction.Weighted>
   9.000000E+99

> <Gold.Protein.RotatedTorsions>
[ 6907 6896 6895 6894 ] final  -22.81 input  -60.11 | X-H torsion
[ 7974 7965 7964 7962 ] final   66.58 input  175.53 | X-H torsion
[ 8008 7997 7996 7995 ] final  -74.93 input   59.86 | X-H torsion
[ 10167 10162 10161 10158 ] final -107.52 input  -65.29 | X-H torsion
[ 10718 10713 10712 10709 ] final -169.26 input   66.30 | X-H torsion
[ 10763 10752 10751 10750 ] final  134.67 input  -60.55 | X-H torsion
[ 11005 11000 10999 10996 ] final   63.36 input  -57.11 | X-H torsion

> <Gold.Protein.ActiveResidues>
 VAL166  LYS551  ARG553  GLY616  TRP617  ASP618  TYR619  PRO620  LYS621  CYS622 
 ASP623  PHE694  ASN695  SER759  ASP760  ASP761  ALA762  ILE779  LEU786  VAL792 
 PHE793  MET794  SER795  GLU796  ALA797  LYS798  CYS799  TRP800  GLU811  SER814 

> <Gold.Protein.RotatedAtoms>
  151.2132  135.0489  159.8919 H   0  0  0  0  0  0  0  0  0  0  0  0  # atno 6907 bound_to 6896
  152.5422  134.0722  159.8209 H   0  0  0  0  0  0  0  0  0  0  0  0  # atno 6908 bound_to 6896
  151.0878  133.5292  159.2648 H   0  0  0  0  0  0  0  0  0  0  0  0  # atno 6909 bound_to 6896
  145.8249  139.3105  143.1022 H   0  0  0  0  0  0  0  0  0  0  0  0  # atno 7974 bound_to 7965
  154.5372  140.0753  156.8449 H   0  0  0  0  0  0  0  0  0  0  0  0  # atno 8008 bound_to 7997
  155.3253  140.3398  155.4222 H   0  0  0  0  0  0  0  0  0  0  0  0  # atno 8009 bound_to 7997
  156.1840  140.1662  156.8207 H   0  0  0  0  0  0  0  0  0  0  0  0  # atno 8010 bound_to 7997
  140.1760  143.4004  152.1318 H   0  0  0  0  0  0  0  0  0  0  0  0  # atno 10167 bound_to 10162
  156.7090  130.9226  151.3087 H   0  0  0  0  0  0  0  0  0  0  0  0  # atno 10718 bound_to 10713
  153.8275  135.3108  155.3416 H   0  0  0  0  0  0  0  0  0  0  0  0  # atno 10763 bound_to 10752
  154.7987  135.4740  154.0226 H   0  0  0  0  0  0  0  0  0  0  0  0  # atno 10764 bound_to 10752
  153.1655  135.6868  153.8772 H   0  0  0  0  0  0  0  0  0  0  0  0  # atno 10765 bound_to 10752
  140.0030  134.6413  155.9901 H   0  0  0  0  0  0  0  0  0  0  0  0  # atno 11005 bound_to 11000
  145.9635  140.8817  143.0199 LP  0  0  0  0  0  0  0  0  0  0  0  0  # atno 17320 bound_to 7965
  144.6744  140.1845  143.7402 LP  0  0  0  0  0  0  0  0  0  0  0  0  # atno 17321 bound_to 7965
  139.5317  144.7166  151.5034 LP  0  0  0  0  0  0  0  0  0  0  0  0  # atno 17342 bound_to 10162
  140.6551  143.8617  150.6826 LP  0  0  0  0  0  0  0  0  0  0  0  0  # atno 17343 bound_to 10162
  157.6943  130.9266  150.0601 LP  0  0  0  0  0  0  0  0  0  0  0  0  # atno 17370 bound_to 10713
  156.1674  130.3645  149.9212 LP  0  0  0  0  0  0  0  0  0  0  0  0  # atno 17371 bound_to 10713
  141.1656  133.6537  156.4467 LP  0  0  0  0  0  0  0  0  0  0  0  0  # atno 17394 bound_to 11000
  140.4694  134.6768  157.5122 LP  0  0  0  0  0  0  0  0  0  0  0  0  # atno 17395 bound_to 11000

$$$$
