AV-unprocessed.smi:1292|AV-procd|sdf|5396|dock1
  -GOLD-   22720 4553D 1   1.00000     0.00000
 Structure written by MMmdl.
 40 41  0  0  0  0  0  0  0  0  1 V2000
  148.3634  142.0723  155.5176 C   0  0  0  0  0  0  0  0  0  0  0  0
  149.3389  140.8922  155.6232 C   0  0  1  0  0  0  0  0  0  0  0  0
  149.8015  140.4196  154.2360 C   0  0  0  0  0  0  0  0  0  0  0  0
  150.7569  139.2274  154.3702 C   0  0  0  0  0  0  0  0  0  0  0  0
  151.9413  139.5418  155.3004 C   0  0  0  0  0  0  0  0  0  0  0  0
  151.5033  140.1208  156.5877 N   0  0  0  0  0  0  0  0  0  0  0  0
  151.6803  139.2590  158.0885 S   0  0  0  0  0  0  0  0  0  0  0  0
  152.9632  138.5390  158.0930 O   0  0  0  0  0  0  0  0  0  0  0  0
  151.3214  140.1789  159.1784 O   0  0  0  0  0  0  0  0  0  0  0  0
  150.3968  138.1135  157.9434 N   0  0  0  0  0  0  0  0  0  0  0  0
  149.6052  137.6675  159.0912 C   0  0  0  0  0  0  0  0  0  0  0  0
  148.1206  137.5506  158.7126 C   0  0  0  0  0  0  0  0  0  0  0  0
  147.2643  137.0298  159.8541 C   0  0  0  0  0  0  0  0  0  0  0  0
  146.8866  135.6710  159.9118 C   0  0  0  0  0  0  0  0  0  0  0  0
  146.1140  135.2351  161.0053 C   0  0  0  0  0  0  0  0  0  0  0  0
  145.7504  136.1693  161.9941 C   0  0  0  0  0  0  0  0  0  0  0  0
  146.1757  137.5042  161.8436 C   0  0  0  0  0  0  0  0  0  0  0  0
  146.9170  137.9327  160.7991 N   0  0  0  0  0  0  0  0  0  0  0  0
  150.5588  141.2498  156.4941 C   0  0  0  0  0  0  0  0  0  0  0  0
  148.8335  142.9347  155.0441 H   0  0  0  0  0  0  0  0  0  0  0  0
  148.0146  142.3818  156.5033 H   0  0  0  0  0  0  0  0  0  0  0  0
  147.4864  141.8048  154.9276 H   0  0  0  0  0  0  0  0  0  0  0  0
  148.8032  140.0732  156.1033 H   0  0  0  0  0  0  0  0  0  0  0  0
  148.9431  140.1361  153.6261 H   0  0  0  0  0  0  0  0  0  0  0  0
  150.3020  141.2351  153.7121 H   0  0  0  0  0  0  0  0  0  0  0  0
  150.2154  138.3582  154.7353 H   0  0  0  0  0  0  0  0  0  0  0  0
  151.1325  138.9474  153.3858 H   0  0  0  0  0  0  0  0  0  0  0  0
  152.5383  138.6458  155.4651 H   0  0  0  0  0  0  0  0  0  0  0  0
  152.5991  140.2623  154.8136 H   0  0  0  0  0  0  0  0  0  0  0  0
  150.5270  137.4217  157.2056 H   0  0  0  0  0  0  0  0  0  0  0  0
  149.9744  136.7018  159.4294 H   0  0  0  0  0  0  0  0  0  0  0  0
  149.7237  138.3716  159.9146 H   0  0  0  0  0  0  0  0  0  0  0  0
  147.7429  138.5283  158.4105 H   0  0  0  0  0  0  0  0  0  0  0  0
  148.0062  136.9011  157.8436 H   0  0  0  0  0  0  0  0  0  0  0  0
  147.1883  134.9767  159.1411 H   0  0  0  0  0  0  0  0  0  0  0  0
  145.8091  134.2020  161.0855 H   0  0  0  0  0  0  0  0  0  0  0  0
  145.1606  135.8699  162.8478 H   0  0  0  0  0  0  0  0  0  0  0  0
  145.9157  138.2470  162.5830 H   0  0  0  0  0  0  0  0  0  0  0  0
  151.0844  142.1063  156.0703 H   0  0  0  0  0  0  0  0  0  0  0  0
  150.2367  141.5467  157.4925 H   0  0  0  0  0  0  0  0  0  0  0  0
  1  2  1  0  0  0  0
  1 20  1  0  0  0  0
  1 21  1  0  0  0  0
  1 22  1  0  0  0  0
  2 19  1  0  0  0  0
  2  3  1  0  0  0  0
  2 23  1  0  0  0  0
  3  4  1  0  0  0  0
  3 24  1  0  0  0  0
  3 25  1  0  0  0  0
  4  5  1  0  0  0  0
  4 26  1  0  0  0  0
  4 27  1  0  0  0  0
  5  6  1  0  0  0  0
  5 28  1  0  0  0  0
  5 29  1  0  0  0  0
  6  7  1  0  0  0  0
  6 19  1  0  0  0  0
  7  8  2  0  0  0  0
  7  9  2  0  0  0  0
  7 10  1  0  0  0  0
 10 11  1  0  0  0  0
 10 30  1  0  0  0  0
 11 12  1  0  0  0  0
 11 31  1  0  0  0  0
 11 32  1  0  0  0  0
 12 13  1  0  0  0  0
 12 33  1  0  0  0  0
 12 34  1  0  0  0  0
 13 18  1  0  0  0  0
 13 14  2  0  0  0  0
 14 15  1  0  0  0  0
 14 35  1  0  0  0  0
 15 16  2  0  0  0  0
 15 36  1  0  0  0  0
 16 17  1  0  0  0  0
 16 37  1  0  0  0  0
 17 18  2  0  0  0  0
 17 38  1  0  0  0  0
 19 39  1  0  0  0  0
 19 40  1  0  0  0  0
M  END
> <s_m_source_file>
AV-unprocessed.smi

> <i_m_source_file_index>
1292

> <i_lp_mmshare_version>
43012

> <i_f3d_flags>
0

> <s_epik_input>
W0NIM11bQ0BASF0xW0NIMl1bQ0gyXVtDSDJdTihbQ0gyXTEpUyg9TykoPU8pW05IXVtDSDJdW0NIMl1jMltjSF1bY0hdW2NIXVtjSF1uMg==

> <s_epik_cmdline>
J2VwaWtfcHl0aG9uJywgJy1waCcsICc3LjAnLCAnLXRuJywgJzgnLCAnLW1hJywgJzIwMCcsICctbWV0YWxfYmluZGluZycsICctaW1hZScsICc8aW5maWxlLm1hZT4nLCAnLW9tYWUnLCAnPG91dGZpbGUubWFlPic=

> <r_epik_Ionization_Penalty>
0.0252758

> <r_epik_Ionization_Penalty_Charging>
0

> <r_epik_Ionization_Penalty_Neutral>
0.0252758

> <r_epik_State_Penalty>
0.0138562

> <r_epik_Charging_Adjusted_Penalty>
0.0138562

> <i_epik_Tot_Q>
0

> <i_epik_Tot_abs_Q>
0

> <r_epik_Metal_State_Penalty>
0.204365

> <b_epik_Metal_Only>
0

> <s_lp_Force_Field>
OPLS_2005

> <r_lp_Energy>
8.19125

> <b_lp_Chiralities_Consistent>
1

> <s_lp_Variant>
AV-unprocessed.smi:1292-2

> <Gold.Version>
5.8.1

> <Gold.Id.Protein>
6NUR|6NUR_protein|mol2

> <Gold.PLP.Fitness>
43.6681

> <Gold.PLP.PLP>
-36.4865

> <Gold.PLP.part.hbond>
-3.0000

> <Gold.PLP.part.metal>
0.0000

> <Gold.PLP.part.buried>
-1.6053

> <Gold.PLP.part.nonpolar>
-31.3533

> <Gold.PLP.part.repulsive>
0.0650

> <Gold.PLP.ligand.clash>
0.0000

> <Gold.PLP.ligand.torsion>
2.0171

> <Gold.PLP.Chemscore.Hbond>
2.7360

> <Gold.PLP.Chemscore.CHOScore>
0.0000

> <Gold.PLP.Chemscore.Metal>
0.0000

> <Gold.Chemscore.Hbonds>
donor molecule, donor type, donor heavy atom, donor atom, acceptor molecule, acceptor atom, score
      P1  H  6931  6943       L1    18  0.04

> <Gold.PLP.Chemscore.Internal.Correction>
3.0078

> <Gold.Rescore>
     Score         DG    S(hbond)    S(metal)    S(lipo)     H(rot)  DE(clash)    DE(int)     intcor
     16.52     -18.22       2.35        0.00      70.44       1.30       0.07       1.64       ----

> <Gold.Chemscore.Fitness>
16.5156

> <Gold.Chemscore.DG>
-18.2236

> <Gold.Chemscore.ZeroCoef>
-5.4800

> <Gold.Chemscore.Hbond>
2.3472

> <Gold.Chemscore.Metal>
0.0000

> <Gold.Chemscore.Lipo>
70.4432

> <Gold.Chemscore.Internal_Hbond>
0.0000

> <Gold.Chemscore.DEClash>
0.0690

> <Gold.Chemscore.DEInternal>
1.6390

> <Gold.Chemscore.Rot>
1.3039

> <Gold.Chemscore.Internal.Correction>
   9.000000E+99

> <Gold.Chemscore.Hbonds>
donor molecule, donor type, donor heavy atom, donor atom, acceptor molecule, acceptor atom, score
      P1  H  6934  6947       L1    18  0.05
      P1  H  7997  8008       L1     8  0.03

> <Gold.Chemscore.Hbond.Weighted>
-7.8397

> <Gold.Chemscore.Metal.Weighted>
-0.0000

> <Gold.Chemscore.Lipo.Weighted>
-8.2418

> <Gold.Chemscore.Internal_Hbond.Weighted>
0.0000

> <Gold.Chemscore.DEClash.Weighted>
0.0690

> <Gold.Chemscore.DEInternal.Weighted>
1.6390

> <Gold.Chemscore.Rot.Weighted>
3.3379

> <Gold.Chemscore.Internal.Correction.Weighted>
   9.000000E+99

> <Gold.Protein.RotatedTorsions>
[ 6907 6896 6895 6894 ] final  -57.30 input  -60.11 | X-H torsion
[ 7974 7965 7964 7962 ] final   45.08 input  175.53 | X-H torsion
[ 8008 7997 7996 7995 ] final  -83.00 input   59.86 | X-H torsion
[ 10167 10162 10161 10158 ] final  -35.34 input  -65.29 | X-H torsion
[ 10718 10713 10712 10709 ] final  -36.95 input   66.30 | X-H torsion
[ 10763 10752 10751 10750 ] final   14.10 input  -60.55 | X-H torsion
[ 11005 11000 10999 10996 ] final   93.75 input  -57.11 | X-H torsion

> <Gold.Protein.ActiveResidues>
 VAL166  LYS551  ARG553  GLY616  TRP617  ASP618  TYR619  PRO620  LYS621  CYS622 
 ASP623  PHE694  ASN695  SER759  ASP760  ASP761  ALA762  ILE779  LEU786  VAL792 
 PHE793  MET794  SER795  GLU796  ALA797  LYS798  CYS799  TRP800  GLU811  SER814 

> <Gold.Protein.RotatedAtoms>
  150.8097  134.7244  159.6676 H   0  0  0  0  0  0  0  0  0  0  0  0  # atno 6907 bound_to 6896
  152.4217  134.5940  159.9991 H   0  0  0  0  0  0  0  0  0  0  0  0  # atno 6908 bound_to 6896
  151.6153  133.3306  159.3112 H   0  0  0  0  0  0  0  0  0  0  0  0  # atno 6909 bound_to 6896
  146.0512  139.5004  142.9717 H   0  0  0  0  0  0  0  0  0  0  0  0  # atno 7974 bound_to 7965
  154.6145  140.0625  156.9537 H   0  0  0  0  0  0  0  0  0  0  0  0  # atno 8008 bound_to 7997
  155.1918  140.3308  155.4339 H   0  0  0  0  0  0  0  0  0  0  0  0  # atno 8009 bound_to 7997
  156.2396  140.1880  156.7007 H   0  0  0  0  0  0  0  0  0  0  0  0  # atno 8010 bound_to 7997
  140.7167  143.3484  151.2208 H   0  0  0  0  0  0  0  0  0  0  0  0  # atno 10167 bound_to 10162
  156.3209  130.4265  149.7961 H   0  0  0  0  0  0  0  0  0  0  0  0  # atno 10718 bound_to 10713
  153.1656  135.6803  153.8680 H   0  0  0  0  0  0  0  0  0  0  0  0  # atno 10763 bound_to 10752
  153.8062  135.3149  155.3397 H   0  0  0  0  0  0  0  0  0  0  0  0  # atno 10764 bound_to 10752
  154.7963  135.4805  154.0258 H   0  0  0  0  0  0  0  0  0  0  0  0  # atno 10765 bound_to 10752
  139.8806  134.8807  156.3763 H   0  0  0  0  0  0  0  0  0  0  0  0  # atno 11005 bound_to 11000
  145.6721  141.0213  143.1652 LP  0  0  0  0  0  0  0  0  0  0  0  0  # atno 17320 bound_to 7965
  144.7123  139.8323  143.7410 LP  0  0  0  0  0  0  0  0  0  0  0  0  # atno 17321 bound_to 7965
  139.7009  143.9535  152.2905 LP  0  0  0  0  0  0  0  0  0  0  0  0  # atno 17342 bound_to 10162
  139.9228  144.6789  150.8444 LP  0  0  0  0  0  0  0  0  0  0  0  0  # atno 17343 bound_to 10162
  156.5269  130.8240  151.3223 LP  0  0  0  0  0  0  0  0  0  0  0  0  # atno 17370 bound_to 10713
  157.7411  130.9864  150.2425 LP  0  0  0  0  0  0  0  0  0  0  0  0  # atno 17371 bound_to 10713
  140.9429  133.7502  156.0170 LP  0  0  0  0  0  0  0  0  0  0  0  0  # atno 17394 bound_to 11000
  140.8197  134.3303  157.5385 LP  0  0  0  0  0  0  0  0  0  0  0  0  # atno 17395 bound_to 11000

$$$$
