AV-unprocessed.smi:1667|AV-procd|sdf|6673|dock7
  -GOLD-   22720 7383D 1   1.00000     0.00000
 Structure written by MMmdl.
 45 47  0  0  0  0  0  0  0  0  1 V2000
  147.6079  134.7934  159.1650 C   0  0  0  0  0  0  0  0  0  0  0  0
  148.8356  135.0738  158.3056 C   0  0  0  0  0  0  0  0  0  0  0  0
  149.6724  134.1905  158.1267 O   0  0  0  0  0  0  0  0  0  0  0  0
  148.9184  136.3099  157.7849 N   0  0  0  0  0  0  0  0  0  0  0  0
  149.9646  136.8552  156.9160 C   0  0  1  0  0  0  0  0  0  0  0  0
  150.7435  135.7760  156.1388 C   0  0  0  0  0  0  0  0  0  0  0  0
  149.3910  137.9521  156.0496 C   0  0  0  0  0  0  0  0  0  0  0  0
  148.6499  137.6841  154.9719 N   0  0  0  0  0  0  0  0  0  0  0  0
  148.2766  138.9357  154.5305 C   0  0  0  0  0  0  0  0  0  0  0  0
  147.4845  139.3188  153.4248 C   0  0  0  0  0  0  0  0  0  0  0  0
  147.2217  140.6809  153.1730 C   0  0  0  0  0  0  0  0  0  0  0  0
  147.7443  141.6764  154.0233 C   0  0  0  0  0  0  0  0  0  0  0  0
  148.5354  141.3147  155.1305 C   0  0  0  0  0  0  0  0  0  0  0  0
  148.8003  139.9532  155.3750 C   0  0  0  0  0  0  0  0  0  0  0  0
  149.5239  139.2729  156.3520 N   0  0  0  0  0  0  0  0  0  0  0  0
  150.2373  139.8890  157.4689 C   0  0  0  0  0  0  0  0  0  0  0  0
  151.4818  140.7089  157.0525 C   0  0  2  0  0  0  0  0  0  0  0  0
  152.5301  139.8478  156.6538 O   0  0  0  0  0  0  0  0  0  0  0  0
  151.9168  141.7127  158.1122 C   0  0  0  0  0  0  0  0  0  0  0  0
  152.8893  141.3738  159.0804 C   0  0  0  0  0  0  0  0  0  0  0  0
  153.2679  142.3073  160.0643 C   0  0  0  0  0  0  0  0  0  0  0  0
  152.6752  143.5839  160.0898 C   0  0  0  0  0  0  0  0  0  0  0  0
  151.7056  143.9276  159.1286 C   0  0  0  0  0  0  0  0  0  0  0  0
  151.1317  145.1535  159.1542 F   0  0  0  0  0  0  0  0  0  0  0  0
  151.3293  142.9956  158.1419 C   0  0  0  0  0  0  0  0  0  0  0  0
  150.6931  137.2970  157.5907 H   0  0  0  0  0  0  0  0  0  0  0  0
  147.5764  135.4713  160.0183 H   0  0  0  0  0  0  0  0  0  0  0  0
  147.6239  133.7705  159.5422 H   0  0  0  0  0  0  0  0  0  0  0  0
  146.6964  134.9275  158.5820 H   0  0  0  0  0  0  0  0  0  0  0  0
  148.1662  136.9449  158.0088 H   0  0  0  0  0  0  0  0  0  0  0  0
  151.5758  136.2182  155.5916 H   0  0  0  0  0  0  0  0  0  0  0  0
  150.1184  135.2553  155.4136 H   0  0  0  0  0  0  0  0  0  0  0  0
  151.1568  135.0289  156.8167 H   0  0  0  0  0  0  0  0  0  0  0  0
  147.0759  138.5624  152.7711 H   0  0  0  0  0  0  0  0  0  0  0  0
  146.6143  140.9630  152.3257 H   0  0  0  0  0  0  0  0  0  0  0  0
  147.5374  142.7180  153.8256 H   0  0  0  0  0  0  0  0  0  0  0  0
  148.9360  142.0761  155.7827 H   0  0  0  0  0  0  0  0  0  0  0  0
  149.5356  140.5404  157.9914 H   0  0  0  0  0  0  0  0  0  0  0  0
  150.5090  139.1244  158.1959 H   0  0  0  0  0  0  0  0  0  0  0  0
  151.2166  141.2769  156.1601 H   0  0  0  0  0  0  0  0  0  0  0  0
  152.2523  138.9549  156.7898 H   0  0  0  0  0  0  0  0  0  0  0  0
  153.3414  140.3927  159.0806 H   0  0  0  0  0  0  0  0  0  0  0  0
  154.0083  142.0408  160.8039 H   0  0  0  0  0  0  0  0  0  0  0  0
  152.9627  144.2978  160.8473 H   0  0  0  0  0  0  0  0  0  0  0  0
  150.5809  143.2667  157.4118 H   0  0  0  0  0  0  0  0  0  0  0  0
  1  2  1  0  0  0  0
  1 27  1  0  0  0  0
  1 28  1  0  0  0  0
  1 29  1  0  0  0  0
  2  3  2  0  0  0  0
  2  4  1  0  0  0  0
  4  5  1  0  0  0  0
  4 30  1  0  0  0  0
  5 26  1  0  0  0  0
  5  6  1  0  0  0  0
  5  7  1  0  0  0  0
  6 31  1  0  0  0  0
  6 32  1  0  0  0  0
  6 33  1  0  0  0  0
  7 15  1  0  0  0  0
  7  8  2  0  0  0  0
  8  9  1  0  0  0  0
  9 14  2  0  0  0  0
  9 10  1  0  0  0  0
 10 11  2  0  0  0  0
 10 34  1  0  0  0  0
 11 12  1  0  0  0  0
 11 35  1  0  0  0  0
 12 13  2  0  0  0  0
 12 36  1  0  0  0  0
 13 14  1  0  0  0  0
 13 37  1  0  0  0  0
 14 15  1  0  0  0  0
 15 16  1  0  0  0  0
 16 17  1  0  0  0  0
 16 38  1  0  0  0  0
 16 39  1  0  0  0  0
 17 18  1  0  0  0  0
 17 19  1  0  0  0  0
 17 40  1  0  0  0  0
 18 41  1  0  0  0  0
 19 25  1  0  0  0  0
 19 20  2  0  0  0  0
 20 21  1  0  0  0  0
 20 42  1  0  0  0  0
 21 22  2  0  0  0  0
 21 43  1  0  0  0  0
 22 23  1  0  0  0  0
 22 44  1  0  0  0  0
 23 24  1  0  0  0  0
 23 25  2  0  0  0  0
 25 45  1  0  0  0  0
M  END
> <s_m_source_file>
AV-unprocessed.smi

> <i_m_source_file_index>
1667

> <i_lp_mmshare_version>
43012

> <i_f3d_flags>
0

> <s_epik_input>
W0NIM11DKD1PKVtOSF1bQ0BASF0oW0NIM10pYyhuMSluKGMoYzEyKVtjSF1bY0hdW2NIXVtjSF0yKVtDSDJdW0NASF0oW09IXSljM1tjSF1bY0hdW2NIXWMoRilbY0hdMw==

> <s_epik_cmdline>
J2VwaWtfcHl0aG9uJywgJy1waCcsICc3LjAnLCAnLXRuJywgJzgnLCAnLW1hJywgJzIwMCcsICctbWV0YWxfYmluZGluZycsICctaW1hZScsICc8aW5maWxlLm1hZT4nLCAnLW9tYWUnLCAnPG91dGZpbGUubWFlPic=

> <r_epik_Ionization_Penalty>
0.133011

> <r_epik_Ionization_Penalty_Charging>
0

> <r_epik_Ionization_Penalty_Neutral>
0.133011

> <r_epik_State_Penalty>
0.122384

> <r_epik_Charging_Adjusted_Penalty>
0.122384

> <i_epik_Tot_Q>
0

> <i_epik_Tot_abs_Q>
0

> <r_epik_Metal_State_Penalty>
0.0997374

> <b_epik_Metal_Only>
0

> <s_lp_Force_Field>
OPLS_2005

> <r_lp_Energy>
8.264

> <b_lp_Chiralities_Consistent>
1

> <s_lp_Variant>
AV-unprocessed.smi:1667-1

> <Gold.Version>
5.8.1

> <Gold.Id.Protein>
6NUR|6NUR_protein|mol2

> <Gold.PLP.Fitness>
44.8729

> <Gold.PLP.PLP>
-41.9700

> <Gold.PLP.part.hbond>
-2.0000

> <Gold.PLP.part.metal>
0.0000

> <Gold.PLP.part.buried>
-6.0375

> <Gold.PLP.part.nonpolar>
-34.6656

> <Gold.PLP.part.repulsive>
0.1469

> <Gold.PLP.ligand.clash>
0.0000

> <Gold.PLP.ligand.torsion>
1.6541

> <Gold.PLP.Chemscore.Hbond>
2.0000

> <Gold.PLP.Chemscore.CHOScore>
0.0000

> <Gold.PLP.Chemscore.Metal>
0.0000

> <Gold.Chemscore.Hbonds>
donor molecule, donor type, donor heavy atom, donor atom, acceptor molecule, acceptor atom, score
      P1  H  6896  6907       L1     3  1.00
      P1  H  7997  8008       L1    18  0.98

> <Gold.PLP.Chemscore.Internal.Correction>
0.2112

> <Gold.Rescore>
     Score         DG    S(hbond)    S(metal)    S(lipo)     H(rot)  DE(clash)    DE(int)     intcor
     16.24     -19.34       1.98        0.00     116.15       2.48       0.22       2.89       ----

> <Gold.Chemscore.Fitness>
16.2361

> <Gold.Chemscore.DG>
-19.3433

> <Gold.Chemscore.ZeroCoef>
-5.4800

> <Gold.Chemscore.Hbond>
1.9798

> <Gold.Chemscore.Metal>
0.0000

> <Gold.Chemscore.Lipo>
116.1485

> <Gold.Chemscore.Internal_Hbond>
0.0000

> <Gold.Chemscore.DEClash>
0.2195

> <Gold.Chemscore.DEInternal>
2.8877

> <Gold.Chemscore.Rot>
2.4760

> <Gold.Chemscore.Internal.Correction>
   9.000000E+99

> <Gold.Chemscore.Hbonds>
donor molecule, donor type, donor heavy atom, donor atom, acceptor molecule, acceptor atom, score
      P1  H  6896  6907       L1     3  0.94
      P1  H  7997  8008       L1    18  0.78

> <Gold.Chemscore.Hbond.Weighted>
-6.6125

> <Gold.Chemscore.Metal.Weighted>
-0.0000

> <Gold.Chemscore.Lipo.Weighted>
-13.5894

> <Gold.Chemscore.Internal_Hbond.Weighted>
0.0000

> <Gold.Chemscore.DEClash.Weighted>
0.2195

> <Gold.Chemscore.DEInternal.Weighted>
2.8877

> <Gold.Chemscore.Rot.Weighted>
6.3385

> <Gold.Chemscore.Internal.Correction.Weighted>
   9.000000E+99

> <Gold.Protein.RotatedTorsions>
[ 6907 6896 6895 6894 ] final -113.85 input  -60.11 | X-H torsion
[ 7974 7965 7964 7962 ] final  165.46 input  175.53 | X-H torsion
[ 8008 7997 7996 7995 ] final  -69.79 input   59.86 | X-H torsion
[ 10167 10162 10161 10158 ] final -138.79 input  -65.29 | X-H torsion
[ 10718 10713 10712 10709 ] final   35.07 input   66.30 | X-H torsion
[ 10763 10752 10751 10750 ] final  101.87 input  -60.55 | X-H torsion
[ 11005 11000 10999 10996 ] final  -15.98 input  -57.11 | X-H torsion

> <Gold.Protein.ActiveResidues>
 VAL166  LYS551  ARG553  GLY616  TRP617  ASP618  TYR619  PRO620  LYS621  CYS622 
 ASP623  PHE694  ASN695  SER759  ASP760  ASP761  ALA762  ILE779  LEU786  VAL792 
 PHE793  MET794  SER795  GLU796  ALA797  LYS798  CYS799  TRP800  GLU811  SER814 

> <Gold.Protein.RotatedAtoms>
  150.7859  133.8885  159.3306 H   0  0  0  0  0  0  0  0  0  0  0  0  # atno 6907 bound_to 6896
  151.6736  135.0970  160.0212 H   0  0  0  0  0  0  0  0  0  0  0  0  # atno 6908 bound_to 6896
  152.3923  133.6657  159.6283 H   0  0  0  0  0  0  0  0  0  0  0  0  # atno 6909 bound_to 6896
  144.7502  139.8473  143.6369 H   0  0  0  0  0  0  0  0  0  0  0  0  # atno 7974 bound_to 7965
  154.4964  140.0847  156.7706 H   0  0  0  0  0  0  0  0  0  0  0  0  # atno 8008 bound_to 7997
  155.4106  140.3441  155.4245 H   0  0  0  0  0  0  0  0  0  0  0  0  # atno 8009 bound_to 7997
  156.1399  140.1526  156.8924 H   0  0  0  0  0  0  0  0  0  0  0  0  # atno 8010 bound_to 7997
  139.8443  143.7281  152.2661 H   0  0  0  0  0  0  0  0  0  0  0  0  # atno 10167 bound_to 10162
  157.3182  130.7434  149.6768 H   0  0  0  0  0  0  0  0  0  0  0  0  # atno 10718 bound_to 10713
  153.3323  135.4029  155.1505 H   0  0  0  0  0  0  0  0  0  0  0  0  # atno 10763 bound_to 10752
  154.8625  135.3613  154.5454 H   0  0  0  0  0  0  0  0  0  0  0  0  # atno 10764 bound_to 10752
  153.5894  135.7074  153.5489 H   0  0  0  0  0  0  0  0  0  0  0  0  # atno 10765 bound_to 10752
  140.8022  133.8205  155.9481 H   0  0  0  0  0  0  0  0  0  0  0  0  # atno 11005 bound_to 11000
  146.1440  139.4505  143.0090 LP  0  0  0  0  0  0  0  0  0  0  0  0  # atno 17320 bound_to 7965
  145.6973  141.0146  143.1523 LP  0  0  0  0  0  0  0  0  0  0  0  0  # atno 17321 bound_to 7965
  139.7528  144.7529  151.0481 LP  0  0  0  0  0  0  0  0  0  0  0  0  # atno 17342 bound_to 10162
  140.7795  143.4841  150.9979 LP  0  0  0  0  0  0  0  0  0  0  0  0  # atno 17343 bound_to 10162
  155.9683  130.4231  150.4547 LP  0  0  0  0  0  0  0  0  0  0  0  0  # atno 17370 bound_to 10713
  157.2557  131.0556  151.2351 LP  0  0  0  0  0  0  0  0  0  0  0  0  # atno 17371 bound_to 10713
  140.9283  134.2054  157.4881 LP  0  0  0  0  0  0  0  0  0  0  0  0  # atno 17394 bound_to 11000
  139.8721  134.9822  156.5147 LP  0  0  0  0  0  0  0  0  0  0  0  0  # atno 17395 bound_to 11000

$$$$
