AV-unprocessed.smi:2901|AV-procd|sdf|11150|dock10
  -GOLD-   2272016 33D 1   1.00000     0.00000
 Structure written by MMmdl.
 40 41  0  0  0  0  0  0  0  0  1 V2000
  152.7287  138.4632  155.1332 C   0  0  0  0  0  0  0  0  0  0  0  0
  151.3130  138.8994  154.9757 C   0  0  0  0  0  0  0  0  0  0  0  0
  150.2216  138.1379  155.0229 N   0  0  0  0  0  0  0  0  0  0  0  0
  149.1676  139.0177  154.8186 C   0  0  0  0  0  0  0  0  0  0  0  0
  147.7395  138.5656  154.8084 C   0  0  0  0  0  0  0  0  0  0  0  0
  147.0350  138.9185  153.4885 C   0  0  0  0  0  0  0  0  0  0  0  0
  146.9661  137.7723  152.5895 N   0  0  0  0  0  0  0  0  0  0  0  0
  145.8335  137.1613  152.2148 C   0  0  0  0  0  0  0  0  0  0  0  0
  144.7106  137.5061  152.5840 O   0  0  0  0  0  0  0  0  0  0  0  0
  146.0721  136.1316  151.3909 N   0  0  0  0  0  0  0  0  0  0  0  0
  145.0469  135.2813  150.7969 C   0  0  0  0  0  0  0  0  0  0  0  0
  145.3018  133.7958  151.0997 C   0  0  1  0  0  0  0  0  0  0  0  0
  144.0602  132.9198  150.9497 C   0  0  0  0  0  0  0  0  0  0  0  0
  144.6758  131.5540  150.7500 C   0  0  0  0  0  0  0  0  0  0  0  0
  145.9020  131.8780  149.8995 C   0  0  0  0  0  0  0  0  0  0  0  0
  146.2385  133.2340  150.1844 O   0  0  0  0  0  0  0  0  0  0  0  0
  149.6862  140.2784  154.6669 C   0  0  0  0  0  0  0  0  0  0  0  0
  149.0648  141.6145  154.4380 C   0  0  0  0  0  0  0  0  0  0  0  0
  151.0504  140.2168  154.7611 O   0  0  0  0  0  0  0  0  0  0  0  0
  152.7905  137.3749  155.1598 H   0  0  0  0  0  0  0  0  0  0  0  0
  153.1400  138.8616  156.0608 H   0  0  0  0  0  0  0  0  0  0  0  0
  153.3266  138.8276  154.2978 H   0  0  0  0  0  0  0  0  0  0  0  0
  147.6942  137.4889  154.9761 H   0  0  0  0  0  0  0  0  0  0  0  0
  147.2008  139.0196  155.6412 H   0  0  0  0  0  0  0  0  0  0  0  0
  146.0175  139.2561  153.6883 H   0  0  0  0  0  0  0  0  0  0  0  0
  147.5454  139.7474  152.9946 H   0  0  0  0  0  0  0  0  0  0  0  0
  147.8416  137.4186  152.2321 H   0  0  0  0  0  0  0  0  0  0  0  0
  147.0303  135.9273  151.1480 H   0  0  0  0  0  0  0  0  0  0  0  0
  144.0877  135.5799  151.2200 H   0  0  0  0  0  0  0  0  0  0  0  0
  144.9742  135.4495  149.7209 H   0  0  0  0  0  0  0  0  0  0  0  0
  145.7011  133.6780  152.1086 H   0  0  0  0  0  0  0  0  0  0  0  0
  143.3971  132.9684  151.8139 H   0  0  0  0  0  0  0  0  0  0  0  0
  143.4916  133.2053  150.0635 H   0  0  0  0  0  0  0  0  0  0  0  0
  144.9836  131.1407  151.7114 H   0  0  0  0  0  0  0  0  0  0  0  0
  144.0006  130.8433  150.2727 H   0  0  0  0  0  0  0  0  0  0  0  0
  146.7368  131.2098  150.1130 H   0  0  0  0  0  0  0  0  0  0  0  0
  145.6666  131.7962  148.8379 H   0  0  0  0  0  0  0  0  0  0  0  0
  148.0288  141.6259  154.7772 H   0  0  0  0  0  0  0  0  0  0  0  0
  149.0768  141.8684  153.3781 H   0  0  0  0  0  0  0  0  0  0  0  0
  149.6039  142.3918  154.9798 H   0  0  0  0  0  0  0  0  0  0  0  0
  1  2  1  0  0  0  0
  1 20  1  0  0  0  0
  1 21  1  0  0  0  0
  1 22  1  0  0  0  0
  2 19  1  0  0  0  0
  2  3  2  0  0  0  0
  3  4  1  0  0  0  0
  4  5  1  0  0  0  0
  4 17  2  0  0  0  0
  5  6  1  0  0  0  0
  5 23  1  0  0  0  0
  5 24  1  0  0  0  0
  6  7  1  0  0  0  0
  6 25  1  0  0  0  0
  6 26  1  0  0  0  0
  7  8  1  0  0  0  0
  7 27  1  0  0  0  0
  8  9  2  0  0  0  0
  8 10  1  0  0  0  0
 10 11  1  0  0  0  0
 10 28  1  0  0  0  0
 11 12  1  0  0  0  0
 11 29  1  0  0  0  0
 11 30  1  0  0  0  0
 12 16  1  0  0  0  0
 12 13  1  0  0  0  0
 12 31  1  0  0  0  0
 13 14  1  0  0  0  0
 13 32  1  0  0  0  0
 13 33  1  0  0  0  0
 14 15  1  0  0  0  0
 14 34  1  0  0  0  0
 14 35  1  0  0  0  0
 15 16  1  0  0  0  0
 15 36  1  0  0  0  0
 15 37  1  0  0  0  0
 17 18  1  0  0  0  0
 17 19  1  0  0  0  0
 18 38  1  0  0  0  0
 18 39  1  0  0  0  0
 18 40  1  0  0  0  0
M  END
> <s_m_source_file>
AV-unprocessed.smi

> <i_m_source_file_index>
2901

> <i_lp_mmshare_version>
43012

> <i_f3d_flags>
0

> <s_epik_input>
W0NIM11jMW5jKGMobzEpW0NIM10pW0NIMl1bQ0gyXVtOSF1DKD1PKVtOSF1bQ0gyXVtDQEBIXTJbQ0gyXVtDSDJdW0NIMl1PMg==

> <s_epik_cmdline>
J2VwaWtfcHl0aG9uJywgJy1waCcsICc3LjAnLCAnLXRuJywgJzgnLCAnLW1hJywgJzIwMCcsICctbWV0YWxfYmluZGluZycsICctaW1hZScsICc8aW5maWxlLm1hZT4nLCAnLW9tYWUnLCAnPG91dGZpbGUubWFlPic=

> <r_lp_tautomer_probability>
1

> <r_epik_Ionization_Penalty>
9.58254e-05

> <r_epik_Ionization_Penalty_Charging>
0

> <r_epik_Ionization_Penalty_Neutral>
9.58254e-05

> <r_epik_State_Penalty>
-0

> <r_epik_Charging_Adjusted_Penalty>
0

> <i_epik_Tot_Q>
0

> <i_epik_Tot_abs_Q>
0

> <r_epik_Metal_State_Penalty>
-0

> <b_epik_Metal_Only>
0

> <s_lp_Force_Field>
OPLS_2005

> <r_lp_Energy>
8.56878

> <b_lp_Chiralities_Consistent>
1

> <s_lp_Variant>
AV-unprocessed.smi:2901-2

> <Gold.Version>
5.8.1

> <Gold.Id.Protein>
6NUR|6NUR_protein|mol2

> <Gold.PLP.Fitness>
43.8888

> <Gold.PLP.PLP>
-36.4250

> <Gold.PLP.part.hbond>
-2.9649

> <Gold.PLP.part.metal>
0.0000

> <Gold.PLP.part.buried>
-4.9039

> <Gold.PLP.part.nonpolar>
-29.5122

> <Gold.PLP.part.repulsive>
1.6012

> <Gold.PLP.ligand.clash>
0.0000

> <Gold.PLP.ligand.torsion>
0.5346

> <Gold.PLP.Chemscore.Hbond>
2.8320

> <Gold.PLP.Chemscore.CHOScore>
0.0000

> <Gold.PLP.Chemscore.Metal>
0.0000

> <Gold.Chemscore.Hbonds>
donor molecule, donor type, donor heavy atom, donor atom, acceptor molecule, acceptor atom, score
      L1  H     7    27       P1  7948  1.00
      L1  H    10    28       P1  7948  0.83
      P1  H  7989  7998       L1    19  1.00

> <Gold.PLP.Chemscore.Internal.Correction>
0.0370

> <Gold.Rescore>
     Score         DG    S(hbond)    S(metal)    S(lipo)     H(rot)  DE(clash)    DE(int)     intcor
     17.03     -17.78       2.52        0.00      75.13       1.92       0.17       0.58       ----

> <Gold.Chemscore.Fitness>
17.0284

> <Gold.Chemscore.DG>
-17.7753

> <Gold.Chemscore.ZeroCoef>
-5.4800

> <Gold.Chemscore.Hbond>
2.5184

> <Gold.Chemscore.Metal>
0.0000

> <Gold.Chemscore.Lipo>
75.1340

> <Gold.Chemscore.Internal_Hbond>
0.0000

> <Gold.Chemscore.DEClash>
0.1713

> <Gold.Chemscore.DEInternal>
0.5756

> <Gold.Chemscore.Rot>
1.9167

> <Gold.Chemscore.Internal.Correction>
   9.000000E+99

> <Gold.Chemscore.Hbonds>
donor molecule, donor type, donor heavy atom, donor atom, acceptor molecule, acceptor atom, score
      L1  H     7    27       P1  7948  0.98
      L1  H    10    28       P1  7948  0.76
      P1  H  7989  7998       L1    19  0.58

> <Gold.Chemscore.Hbond.Weighted>
-8.4115

> <Gold.Chemscore.Metal.Weighted>
-0.0000

> <Gold.Chemscore.Lipo.Weighted>
-8.7907

> <Gold.Chemscore.Internal_Hbond.Weighted>
0.0000

> <Gold.Chemscore.DEClash.Weighted>
0.1713

> <Gold.Chemscore.DEInternal.Weighted>
0.5756

> <Gold.Chemscore.Rot.Weighted>
4.9069

> <Gold.Chemscore.Internal.Correction.Weighted>
   9.000000E+99

> <Gold.Protein.RotatedTorsions>
[ 6907 6896 6895 6894 ] final  161.28 input  -60.11 | X-H torsion
[ 7974 7965 7964 7962 ] final  -10.63 input  175.53 | X-H torsion
[ 8008 7997 7996 7995 ] final  -37.91 input   59.86 | X-H torsion
[ 10167 10162 10161 10158 ] final   68.87 input  -65.29 | X-H torsion
[ 10718 10713 10712 10709 ] final -170.96 input   66.30 | X-H torsion
[ 10763 10752 10751 10750 ] final -105.01 input  -60.55 | X-H torsion
[ 11005 11000 10999 10996 ] final   44.12 input  -57.11 | X-H torsion

> <Gold.Protein.ActiveResidues>
 VAL166  LYS551  ARG553  GLY616  TRP617  ASP618  TYR619  PRO620  LYS621  CYS622 
 ASP623  PHE694  ASN695  SER759  ASP760  ASP761  ALA762  ILE779  LEU786  VAL792 
 PHE793  MET794  SER795  GLU796  ALA797  LYS798  CYS799  TRP800  GLU811  SER814 

> <Gold.Protein.RotatedAtoms>
  151.9580  133.3686  159.4024 H   0  0  0  0  0  0  0  0  0  0  0  0  # atno 6907 bound_to 6896
  150.6969  134.4270  159.5240 H   0  0  0  0  0  0  0  0  0  0  0  0  # atno 6908 bound_to 6896
  152.1954  134.8635  160.0564 H   0  0  0  0  0  0  0  0  0  0  0  0  # atno 6909 bound_to 6896
  146.2214  140.2792  142.8361 H   0  0  0  0  0  0  0  0  0  0  0  0  # atno 7974 bound_to 7965
  154.4045  140.1592  156.2614 H   0  0  0  0  0  0  0  0  0  0  0  0  # atno 8008 bound_to 7997
  155.9033  140.3432  155.6021 H   0  0  0  0  0  0  0  0  0  0  0  0  # atno 8009 bound_to 7997
  155.7422  140.0794  157.2231 H   0  0  0  0  0  0  0  0  0  0  0  0  # atno 8010 bound_to 7997
  140.0739  144.5128  150.7208 H   0  0  0  0  0  0  0  0  0  0  0  0  # atno 10167 bound_to 10162
  156.7339  130.9317  151.3106 H   0  0  0  0  0  0  0  0  0  0  0  0  # atno 10718 bound_to 10713
  154.7917  135.4765  154.0069 H   0  0  0  0  0  0  0  0  0  0  0  0  # atno 10763 bound_to 10752
  153.1642  135.6814  153.8707 H   0  0  0  0  0  0  0  0  0  0  0  0  # atno 10764 bound_to 10752
  153.8310  135.3191  155.3396 H   0  0  0  0  0  0  0  0  0  0  0  0  # atno 10765 bound_to 10752
  140.1581  134.4376  155.8336 H   0  0  0  0  0  0  0  0  0  0  0  0  # atno 11005 bound_to 11000
  144.9209  140.7867  143.5748 LP  0  0  0  0  0  0  0  0  0  0  0  0  # atno 17320 bound_to 7965
  145.2729  139.1947  143.4832 LP  0  0  0  0  0  0  0  0  0  0  0  0  # atno 17321 bound_to 7965
  140.7111  143.2506  151.4577 LP  0  0  0  0  0  0  0  0  0  0  0  0  # atno 17342 bound_to 10162
  139.5819  144.1690  152.1979 LP  0  0  0  0  0  0  0  0  0  0  0  0  # atno 17343 bound_to 10162
  157.6847  130.9174  150.0356 LP  0  0  0  0  0  0  0  0  0  0  0  0  # atno 17370 bound_to 10713
  156.1510  130.3642  149.9438 LP  0  0  0  0  0  0  0  0  0  0  0  0  # atno 17371 bound_to 10713
  141.2206  133.6901  156.7544 LP  0  0  0  0  0  0  0  0  0  0  0  0  # atno 17394 bound_to 11000
  140.2523  134.8531  157.3679 LP  0  0  0  0  0  0  0  0  0  0  0  0  # atno 17395 bound_to 11000

$$$$
