AV-unprocessed.smi:686|AV-procd|sdf|3348|dock6
  -GOLD-   22720 0323D 1   1.00000     0.00000
 Structure written by MMmdl.
 40 41  0  0  0  0  0  0  0  0  3 V2000
  150.0758  140.4737  155.5710 C   0  0  0  0  0  0  0  0  0  0  0  0
  150.4463  141.2903  156.8269 C   0  0  1  0  0  0  0  0  0  0  0  0
  151.1492  142.6290  156.5442 C   0  0  0  0  0  0  0  0  0  0  0  0
  150.7469  143.5617  157.6287 N   0  3  2  0  0  0  0  0  0  0  0  0
  151.8412  144.4056  158.1862 C   0  0  0  0  0  0  0  0  0  0  0  0
  152.9721  143.5505  158.7895 C   0  0  0  0  0  0  0  0  0  0  0  0
  151.3010  145.3718  159.2572 C   0  0  0  0  0  0  0  0  0  0  0  0
  149.9723  142.7704  158.6139 C   0  0  0  0  0  0  0  0  0  0  0  0
  149.3152  141.6445  157.8085 C   0  0  1  0  0  0  0  0  0  0  0  0
  148.1416  142.1576  157.1021 N   0  5  0  0  0  0  0  0  0  0  0  0
  146.6546  141.5524  157.3679 S   0  0  0  0  0  0  0  0  0  0  0  0
  145.9393  141.1715  156.1379 O   0  0  0  0  0  0  0  0  0  0  0  0
  146.6827  140.5531  158.4466 O   0  0  0  0  0  0  0  0  0  0  0  0
  145.7590  143.0117  158.0696 C   0  0  0  0  0  0  0  0  0  0  0  0
  146.3979  143.4320  159.3634 C   0  0  0  0  0  0  0  0  0  0  0  0
  146.9504  144.6965  159.7090 C   0  0  0  0  0  0  0  0  0  0  0  0
  147.3829  144.5166  160.9909 C   0  0  0  0  0  0  0  0  0  0  0  0
  147.1143  143.2547  161.4103 O   0  0  0  0  0  0  0  0  0  0  0  0
  146.4825  142.5707  160.3656 N   0  0  0  0  0  0  0  0  0  0  0  0
  149.4073  141.0191  154.9028 H   0  0  0  0  0  0  0  0  0  0  0  0
  149.5943  139.5289  155.8287 H   0  0  0  0  0  0  0  0  0  0  0  0
  150.9713  140.2323  154.9982 H   0  0  0  0  0  0  0  0  0  0  0  0
  151.1540  140.6818  157.3930 H   0  0  0  0  0  0  0  0  0  0  0  0
  152.2292  142.4795  156.5056 H   0  0  0  0  0  0  0  0  0  0  0  0
  150.8420  143.0553  155.5875 H   0  0  0  0  0  0  0  0  0  0  0  0
  152.2628  144.9948  157.3704 H   0  0  0  0  0  0  0  0  0  0  0  0
  153.7393  144.1804  159.2410 H   0  0  0  0  0  0  0  0  0  0  0  0
  153.4709  142.9404  158.0363 H   0  0  0  0  0  0  0  0  0  0  0  0
  152.5945  142.8836  159.5654 H   0  0  0  0  0  0  0  0  0  0  0  0
  152.1045  145.9773  159.6774 H   0  0  0  0  0  0  0  0  0  0  0  0
  150.8337  144.8284  160.0793 H   0  0  0  0  0  0  0  0  0  0  0  0
  150.5614  146.0632  158.8537 H   0  0  0  0  0  0  0  0  0  0  0  0
  150.6542  142.3374  159.3477 H   0  0  0  0  0  0  0  0  0  0  0  0
  149.2548  143.3881  159.1548 H   0  0  0  0  0  0  0  0  0  0  0  0
  149.0754  140.7912  158.4433 H   0  0  0  0  0  0  0  0  0  0  0  0
  145.7959  143.8188  157.3384 H   0  0  0  0  0  0  0  0  0  0  0  0
  144.7123  142.7467  158.2181 H   0  0  0  0  0  0  0  0  0  0  0  0
  147.0244  145.5899  159.1070 H   0  0  0  0  0  0  0  0  0  0  0  0
  147.8754  145.1597  161.7050 H   0  0  0  0  0  0  0  0  0  0  0  0
  150.0732  144.1878  157.2102 H   0  0  0  0  0  0  0  0  0  0  0  0
  1  2  1  0  0  0  0
  1 20  1  0  0  0  0
  1 21  1  0  0  0  0
  1 22  1  0  0  0  0
  2  9  1  0  0  0  0
  2  3  1  0  0  0  0
  2 23  1  0  0  0  0
  3  4  1  0  0  0  0
  3 24  1  0  0  0  0
  3 25  1  0  0  0  0
  4  5  1  0  0  0  0
  4  8  1  0  0  0  0
  4 40  1  0  0  0  0
  5  6  1  0  0  0  0
  5  7  1  0  0  0  0
  5 26  1  0  0  0  0
  6 27  1  0  0  0  0
  6 28  1  0  0  0  0
  6 29  1  0  0  0  0
  7 30  1  0  0  0  0
  7 31  1  0  0  0  0
  7 32  1  0  0  0  0
  8  9  1  0  0  0  0
  8 33  1  0  0  0  0
  8 34  1  0  0  0  0
  9 10  1  0  0  0  0
  9 35  1  0  0  0  0
 10 11  1  0  0  0  0
 11 12  2  0  0  0  0
 11 13  2  0  0  0  0
 11 14  1  0  0  0  0
 14 15  1  0  0  0  0
 14 36  1  0  0  0  0
 14 37  1  0  0  0  0
 15 19  2  0  0  0  0
 15 16  1  0  0  0  0
 16 17  2  0  0  0  0
 16 38  1  0  0  0  0
 17 18  1  0  0  0  0
 17 39  1  0  0  0  0
 18 19  1  0  0  0  0
M  CHG  1   4   1
M  CHG  1  10  -1
M  END
> <s_m_source_file>
AV-unprocessed.smi

> <i_m_source_file_index>
686

> <i_lp_mmshare_version>
43012

> <i_f3d_flags>
0

> <s_epik_input>
W0NIM11bQ0BASF0xW0NIMl1OKFtDSF0oW0NIM10pW0NIM10pW0NIMl1bQ0BIXTFbTkhdUyg9TykoPU8pW0NIMl1jMltjSF1bY0hdb24y

> <s_epik_cmdline>
J2VwaWtfcHl0aG9uJywgJy1waCcsICc3LjAnLCAnLXRuJywgJzgnLCAnLW1hJywgJzIwMCcsICctbWV0YWxfYmluZGluZycsICctaW1hZScsICc8aW5maWxlLm1hZT4nLCAnLW9tYWUnLCAnPG91dGZpbGUubWFlPic=

> <r_epik_Ionization_Penalty>
3.62478

> <r_epik_Ionization_Penalty_Charging>
3.62478

> <r_epik_Ionization_Penalty_Neutral>
2.03645e-10

> <r_epik_State_Penalty>
3.6247

> <r_epik_Charging_Adjusted_Penalty>
7.24949

> <i_epik_Tot_Q>
0

> <i_epik_Tot_abs_Q>
2

> <r_epik_Metal_State_Penalty>
0.530836

> <b_epik_Metal_Only>
1

> <s_lp_Force_Field>
OPLS_2005

> <r_lp_Energy>
18.5921

> <b_lp_Chiralities_Consistent>
1

> <s_lp_Variant>
AV-unprocessed.smi:686-12

> <Gold.Version>
5.8.1

> <Gold.Id.Protein>
6NUR|6NUR_protein|mol2

> <Gold.PLP.Fitness>
44.2520

> <Gold.PLP.PLP>
-32.3825

> <Gold.PLP.part.hbond>
-5.3835

> <Gold.PLP.part.metal>
0.0000

> <Gold.PLP.part.buried>
-3.7945

> <Gold.PLP.part.nonpolar>
-24.0606

> <Gold.PLP.part.repulsive>
1.0023

> <Gold.PLP.ligand.clash>
0.0000

> <Gold.PLP.ligand.torsion>
0.6143

> <Gold.PLP.Chemscore.Hbond>
4.0000

> <Gold.PLP.Chemscore.CHOScore>
0.0000

> <Gold.PLP.Chemscore.Metal>
0.0000

> <Gold.Chemscore.Hbonds>
donor molecule, donor type, donor heavy atom, donor atom, acceptor molecule, acceptor atom, score
      L1  H     4    40       P1  8028  2.00
      P1  H  6933  6944       L1    18  0.90
      P1  H  6934  6946       L1    19  1.00

> <Gold.PLP.Chemscore.Internal.Correction>
1.0980

> <Gold.Rescore>
     Score         DG    S(hbond)    S(metal)    S(lipo)     H(rot)  DE(clash)    DE(int)     intcor
     13.35     -16.62       1.86        0.00      77.52       1.61       1.39       1.88       ----

> <Gold.Chemscore.Fitness>
13.3537

> <Gold.Chemscore.DG>
-16.6180

> <Gold.Chemscore.ZeroCoef>
-5.4800

> <Gold.Chemscore.Hbond>
1.8571

> <Gold.Chemscore.Metal>
0.0000

> <Gold.Chemscore.Lipo>
77.5164

> <Gold.Chemscore.Internal_Hbond>
0.0000

> <Gold.Chemscore.DEClash>
1.3861

> <Gold.Chemscore.DEInternal>
1.8782

> <Gold.Chemscore.Rot>
1.6149

> <Gold.Chemscore.Internal.Correction>
   9.000000E+99

> <Gold.Chemscore.Hbonds>
donor molecule, donor type, donor heavy atom, donor atom, acceptor molecule, acceptor atom, score
      L1  H     4    40       P1  8028  0.69
      P1  H  6933  6944       L1    18  0.14
      P1  H  6934  6946       L1    19  0.34

> <Gold.Chemscore.Hbond.Weighted>
-6.2027

> <Gold.Chemscore.Metal.Weighted>
-0.0000

> <Gold.Chemscore.Lipo.Weighted>
-9.0694

> <Gold.Chemscore.Internal_Hbond.Weighted>
0.0000

> <Gold.Chemscore.DEClash.Weighted>
1.3861

> <Gold.Chemscore.DEInternal.Weighted>
1.8782

> <Gold.Chemscore.Rot.Weighted>
4.1341

> <Gold.Chemscore.Internal.Correction.Weighted>
   9.000000E+99

> <Gold.Protein.RotatedTorsions>
[ 6907 6896 6895 6894 ] final  -41.54 input  -60.11 | X-H torsion
[ 7974 7965 7964 7962 ] final   95.40 input  175.53 | X-H torsion
[ 8008 7997 7996 7995 ] final  124.03 input   59.86 | X-H torsion
[ 10167 10162 10161 10158 ] final   80.96 input  -65.29 | X-H torsion
[ 10718 10713 10712 10709 ] final  154.44 input   66.30 | X-H torsion
[ 10763 10752 10751 10750 ] final  176.21 input  -60.55 | X-H torsion
[ 11005 11000 10999 10996 ] final   12.92 input  -57.11 | X-H torsion

> <Gold.Protein.ActiveResidues>
 VAL166  LYS551  ARG553  GLY616  TRP617  ASP618  TYR619  PRO620  LYS621  CYS622 
 ASP623  PHE694  ASN695  SER759  ASP760  ASP761  ALA762  ILE779  LEU786  VAL792 
 PHE793  MET794  SER795  GLU796  ALA797  LYS798  CYS799  TRP800  GLU811  SER814 

> <Gold.Protein.RotatedAtoms>
  150.9656  134.9037  159.7756 H   0  0  0  0  0  0  0  0  0  0  0  0  # atno 6907 bound_to 6896
  152.5172  134.3612  159.9295 H   0  0  0  0  0  0  0  0  0  0  0  0  # atno 6908 bound_to 6896
  151.3623  133.3844  159.2725 H   0  0  0  0  0  0  0  0  0  0  0  0  # atno 6909 bound_to 6896
  145.4527  139.2292  143.3031 H   0  0  0  0  0  0  0  0  0  0  0  0  # atno 7974 bound_to 7965
  156.2787  140.2749  156.1722 H   0  0  0  0  0  0  0  0  0  0  0  0  # atno 8008 bound_to 7997
  155.0643  140.0387  157.2605 H   0  0  0  0  0  0  0  0  0  0  0  0  # atno 8009 bound_to 7997
  154.7092  140.2665  155.6651 H   0  0  0  0  0  0  0  0  0  0  0  0  # atno 8010 bound_to 7997
  139.9443  144.6069  150.8222 H   0  0  0  0  0  0  0  0  0  0  0  0  # atno 10167 bound_to 10162
  157.2315  131.0740  151.1850 H   0  0  0  0  0  0  0  0  0  0  0  0  # atno 10718 bound_to 10713
  154.4780  135.2773  155.1592 H   0  0  0  0  0  0  0  0  0  0  0  0  # atno 10763 bound_to 10752
  154.3314  135.6189  153.5557 H   0  0  0  0  0  0  0  0  0  0  0  0  # atno 10764 bound_to 10752
  152.9872  135.5766  154.5175 H   0  0  0  0  0  0  0  0  0  0  0  0  # atno 10765 bound_to 10752
  140.4865  134.0883  155.7762 H   0  0  0  0  0  0  0  0  0  0  0  0  # atno 11005 bound_to 11000
  146.2495  140.5287  142.8899 LP  0  0  0  0  0  0  0  0  0  0  0  0  # atno 17320 bound_to 7965
  144.8052  140.6286  143.6452 LP  0  0  0  0  0  0  0  0  0  0  0  0  # atno 17321 bound_to 7965
  140.7602  143.3145  151.2765 LP  0  0  0  0  0  0  0  0  0  0  0  0  # atno 17342 bound_to 10162
  139.6679  144.0072  152.2735 LP  0  0  0  0  0  0  0  0  0  0  0  0  # atno 17343 bound_to 10162
  157.3473  130.7064  149.6418 LP  0  0  0  0  0  0  0  0  0  0  0  0  # atno 17370 bound_to 10713
  155.9675  130.4262  150.4691 LP  0  0  0  0  0  0  0  0  0  0  0  0  # atno 17371 bound_to 10713
  141.1505  133.8977  157.2109 LP  0  0  0  0  0  0  0  0  0  0  0  0  # atno 17394 bound_to 11000
  139.9794  135.0103  156.9713 LP  0  0  0  0  0  0  0  0  0  0  0  0  # atno 17395 bound_to 11000

$$$$
