AV-unprocessed.smi:1411|AV-procd|sdf|5739|dock7
  -GOLD-   22720 5373D 1   1.00000     0.00000
 Structure written by MMmdl.
 43 44  0  0  0  0  0  0  0  0  3 V2000
  151.3981  143.2839  156.6648 O   0  0  0  0  0  0  0  0  0  0  0  0
  150.8585  142.3178  157.2060 C   0  0  0  0  0  0  0  0  0  0  0  0
  149.5448  141.7374  156.6629 C   0  0  0  0  0  0  0  0  0  0  0  0
  149.7452  140.6488  155.6919 N   0  0  0  0  0  0  0  0  0  0  0  0
  151.0607  140.1667  155.5444 C   0  0  0  0  0  0  0  0  0  0  0  0
  151.3669  139.1690  154.6922 C   0  0  0  0  0  0  0  0  0  0  0  0
  152.7231  138.6839  154.5578 N   0  3  0  0  0  0  0  0  0  0  0  0
  153.6130  139.2420  155.1916 O   0  0  0  0  0  0  0  0  0  0  0  0
  152.9439  137.7309  153.8164 O   0  5  0  0  0  0  0  0  0  0  0  0
  150.2876  138.5928  153.9140 C   0  0  0  0  0  0  0  0  0  0  0  0
  149.0262  139.0461  154.0540 C   0  0  0  0  0  0  0  0  0  0  0  0
  148.6947  140.1291  154.9856 C   0  0  0  0  0  0  0  0  0  0  0  0
  147.5433  140.5424  155.1228 O   0  0  0  0  0  0  0  0  0  0  0  0
  151.3646  141.7043  158.2868 N   0  0  0  0  0  0  0  0  0  0  0  0
  152.5944  142.0774  158.9831 C   0  0  0  0  0  0  0  0  0  0  0  0
  152.7515  141.1872  160.2353 C   0  0  0  0  0  0  0  0  0  0  0  0
  153.8706  141.6000  161.2125 C   0  0  0  0  0  0  0  0  0  0  0  0
  153.3766  142.3273  162.4801 C   0  0  0  0  0  0  0  0  0  0  0  0
  152.8147  143.7518  162.2932 C   0  0  0  0  0  0  0  0  0  0  0  0
  151.4655  143.8220  161.5488 C   0  0  0  0  0  0  0  0  0  0  0  0
  151.5462  144.2439  160.0688 C   0  0  0  0  0  0  0  0  0  0  0  0
  152.6645  143.6049  159.2220 C   0  0  0  0  0  0  0  0  0  0  0  0
  148.9375  141.4032  157.5058 H   0  0  0  0  0  0  0  0  0  0  0  0
  148.9678  142.5404  156.2008 H   0  0  0  0  0  0  0  0  0  0  0  0
  151.7896  140.6579  156.1732 H   0  0  0  0  0  0  0  0  0  0  0  0
  150.4823  137.7929  153.2148 H   0  0  0  0  0  0  0  0  0  0  0  0
  148.2375  138.6009  153.4652 H   0  0  0  0  0  0  0  0  0  0  0  0
  150.8562  140.9163  158.6613 H   0  0  0  0  0  0  0  0  0  0  0  0
  153.4337  141.8302  158.3303 H   0  0  0  0  0  0  0  0  0  0  0  0
  151.8065  141.0856  160.7678 H   0  0  0  0  0  0  0  0  0  0  0  0
  152.9684  140.1773  159.8840 H   0  0  0  0  0  0  0  0  0  0  0  0
  154.3654  140.6872  161.5463 H   0  0  0  0  0  0  0  0  0  0  0  0
  154.6508  142.1710  160.7095 H   0  0  0  0  0  0  0  0  0  0  0  0
  152.6359  141.7087  162.9884 H   0  0  0  0  0  0  0  0  0  0  0  0
  154.2181  142.3934  163.1708 H   0  0  0  0  0  0  0  0  0  0  0  0
  152.6571  144.1610  163.2919 H   0  0  0  0  0  0  0  0  0  0  0  0
  153.5559  144.4086  161.8379 H   0  0  0  0  0  0  0  0  0  0  0  0
  150.9216  142.8846  161.6531 H   0  0  0  0  0  0  0  0  0  0  0  0
  150.8352  144.5544  162.0545 H   0  0  0  0  0  0  0  0  0  0  0  0
  150.5791  144.0756  159.5944 H   0  0  0  0  0  0  0  0  0  0  0  0
  151.6973  145.3236  160.0399 H   0  0  0  0  0  0  0  0  0  0  0  0
  153.6376  143.8746  159.6281 H   0  0  0  0  0  0  0  0  0  0  0  0
  152.6491  144.0958  158.2481 H   0  0  0  0  0  0  0  0  0  0  0  0
  1  2  2  0  0  0  0
  2  3  1  0  0  0  0
  2 14  1  0  0  0  0
  3  4  1  0  0  0  0
  3 23  1  0  0  0  0
  3 24  1  0  0  0  0
  4 12  1  0  0  0  0
  4  5  1  0  0  0  0
  5  6  2  0  0  0  0
  5 25  1  0  0  0  0
  6  7  1  0  0  0  0
  6 10  1  0  0  0  0
  7  8  2  0  0  0  0
  7  9  1  0  0  0  0
 10 11  2  0  0  0  0
 10 26  1  0  0  0  0
 11 12  1  0  0  0  0
 11 27  1  0  0  0  0
 12 13  2  0  0  0  0
 14 15  1  0  0  0  0
 14 28  1  0  0  0  0
 15 22  1  0  0  0  0
 15 16  1  0  0  0  0
 15 29  1  0  0  0  0
 16 17  1  0  0  0  0
 16 30  1  0  0  0  0
 16 31  1  0  0  0  0
 17 18  1  0  0  0  0
 17 32  1  0  0  0  0
 17 33  1  0  0  0  0
 18 19  1  0  0  0  0
 18 34  1  0  0  0  0
 18 35  1  0  0  0  0
 19 20  1  0  0  0  0
 19 36  1  0  0  0  0
 19 37  1  0  0  0  0
 20 21  1  0  0  0  0
 20 38  1  0  0  0  0
 20 39  1  0  0  0  0
 21 22  1  0  0  0  0
 21 40  1  0  0  0  0
 21 41  1  0  0  0  0
 22 42  1  0  0  0  0
 22 43  1  0  0  0  0
M  CHG  1   7   1
M  CHG  1   9  -1
M  END
> <s_m_source_file>
AV-unprocessed.smi

> <i_m_source_file_index>
1411

> <i_lp_mmshare_version>
43012

> <i_f3d_flags>
0

> <s_epik_input>
Tz1jMVtjSF1bY0hdYyhbTitdKD1PKVtPLV0pW2NIXW4xW0NIMl1DKD1PKVtOSF1bQ0hdMltDSDJdW0NIMl1bQ0gyXVtDSDJdW0NIMl1bQ0gyXVtDSDJdMg==

> <s_epik_cmdline>
J2VwaWtfcHl0aG9uJywgJy1waCcsICc3LjAnLCAnLXRuJywgJzgnLCAnLW1hJywgJzIwMCcsICctbWV0YWxfYmluZGluZycsICctaW1hZScsICc8aW5maWxlLm1hZT4nLCAnLW9tYWUnLCAnPG91dGZpbGUubWFlPic=

> <r_lp_tautomer_probability>
1

> <r_epik_Ionization_Penalty>
2.02954e-08

> <r_epik_Ionization_Penalty_Charging>
8.05481e-11

> <r_epik_Ionization_Penalty_Neutral>
2.02148e-08

> <r_epik_State_Penalty>
-0

> <r_epik_Charging_Adjusted_Penalty>
8.05481e-11

> <i_epik_Tot_Q>
0

> <i_epik_Tot_abs_Q>
2

> <r_epik_Metal_State_Penalty>
-0

> <b_epik_Metal_Only>
0

> <s_lp_Force_Field>
OPLS_2005

> <r_lp_Energy>
31.3753

> <b_lp_Chiralities_Consistent>
1

> <s_lp_Variant>
AV-unprocessed.smi:1411-1

> <Gold.Version>
5.8.1

> <Gold.Id.Protein>
6NUR|6NUR_protein|mol2

> <Gold.PLP.Fitness>
49.2841

> <Gold.PLP.PLP>
-46.6992

> <Gold.PLP.part.hbond>
-1.5767

> <Gold.PLP.part.metal>
0.0000

> <Gold.PLP.part.buried>
-0.8113

> <Gold.PLP.part.nonpolar>
-44.4796

> <Gold.PLP.part.repulsive>
0.3956

> <Gold.PLP.ligand.clash>
0.8821

> <Gold.PLP.ligand.torsion>
0.5359

> <Gold.PLP.Chemscore.Hbond>
1.4960

> <Gold.PLP.Chemscore.CHOScore>
0.0000

> <Gold.PLP.Chemscore.Metal>
0.0000

> <Gold.Chemscore.Hbonds>
donor molecule, donor type, donor heavy atom, donor atom, acceptor molecule, acceptor atom, score
      P1  H  7997  8010       L1     8  0.78
      P1  H 10752 10763       L1     9  0.46

> <Gold.PLP.Chemscore.Internal.Correction>
0.0508

> <Gold.Rescore>
     Score         DG    S(hbond)    S(metal)    S(lipo)     H(rot)  DE(clash)    DE(int)     intcor
     18.45     -21.50       1.68        0.00     122.62       1.54       2.56       0.49       ----

> <Gold.Chemscore.Fitness>
18.4477

> <Gold.Chemscore.DG>
-21.4972

> <Gold.Chemscore.ZeroCoef>
-5.4800

> <Gold.Chemscore.Hbond>
1.6801

> <Gold.Chemscore.Metal>
0.0000

> <Gold.Chemscore.Lipo>
122.6181

> <Gold.Chemscore.Internal_Hbond>
0.0000

> <Gold.Chemscore.DEClash>
2.5602

> <Gold.Chemscore.DEInternal>
0.4893

> <Gold.Chemscore.Rot>
1.5393

> <Gold.Chemscore.Internal.Correction>
   9.000000E+99

> <Gold.Chemscore.Hbonds>
donor molecule, donor type, donor heavy atom, donor atom, acceptor molecule, acceptor atom, score
      P1  H  7997  8010       L1     8  0.76
      P1  H 10752 10763       L1     9  0.43

> <Gold.Chemscore.Hbond.Weighted>
-5.6116

> <Gold.Chemscore.Metal.Weighted>
-0.0000

> <Gold.Chemscore.Lipo.Weighted>
-14.3463

> <Gold.Chemscore.Internal_Hbond.Weighted>
0.0000

> <Gold.Chemscore.DEClash.Weighted>
2.5602

> <Gold.Chemscore.DEInternal.Weighted>
0.4893

> <Gold.Chemscore.Rot.Weighted>
3.9407

> <Gold.Chemscore.Internal.Correction.Weighted>
   9.000000E+99

> <Gold.Protein.RotatedTorsions>
[ 6907 6896 6895 6894 ] final  -59.46 input  -60.11 | X-H torsion
[ 7974 7965 7964 7962 ] final  -59.68 input  175.53 | X-H torsion
[ 8008 7997 7996 7995 ] final  103.09 input   59.86 | X-H torsion
[ 10167 10162 10161 10158 ] final  145.53 input  -65.29 | X-H torsion
[ 10718 10713 10712 10709 ] final  168.22 input   66.30 | X-H torsion
[ 10763 10752 10751 10750 ] final   29.31 input  -60.55 | X-H torsion
[ 11005 11000 10999 10996 ] final   35.77 input  -57.11 | X-H torsion

> <Gold.Protein.ActiveResidues>
 VAL166  LYS551  ARG553  GLY616  TRP617  ASP618  TYR619  PRO620  LYS621  CYS622 
 ASP623  PHE694  ASN695  SER759  ASP760  ASP761  ALA762  ILE779  LEU786  VAL792 
 PHE793  MET794  SER795  GLU796  ALA797  LYS798  CYS799  TRP800  GLU811  SER814 

> <Gold.Protein.RotatedAtoms>
  150.7929  134.6966  159.6526 H   0  0  0  0  0  0  0  0  0  0  0  0  # atno 6907 bound_to 6896
  152.4037  134.6240  160.0068 H   0  0  0  0  0  0  0  0  0  0  0  0  # atno 6908 bound_to 6896
  151.6504  133.3284  159.3186 H   0  0  0  0  0  0  0  0  0  0  0  0  # atno 6909 bound_to 6896
  145.8245  140.8519  143.0115 H   0  0  0  0  0  0  0  0  0  0  0  0  # atno 7974 bound_to 7965
  156.1452  140.3170  155.8559 H   0  0  0  0  0  0  0  0  0  0  0  0  # atno 8008 bound_to 7997
  155.4077  140.0504  157.3050 H   0  0  0  0  0  0  0  0  0  0  0  0  # atno 8009 bound_to 7997
  154.5010  140.2129  155.9358 H   0  0  0  0  0  0  0  0  0  0  0  0  # atno 8010 bound_to 7997
  139.4924  144.5895  151.6709 H   0  0  0  0  0  0  0  0  0  0  0  0  # atno 10167 bound_to 10162
  157.0403  131.0284  151.2715 H   0  0  0  0  0  0  0  0  0  0  0  0  # atno 10718 bound_to 10713
  153.0438  135.6492  154.0871 H   0  0  0  0  0  0  0  0  0  0  0  0  # atno 10763 bound_to 10752
  154.0572  135.2891  155.3332 H   0  0  0  0  0  0  0  0  0  0  0  0  # atno 10764 bound_to 10752
  154.6681  135.5366  153.8168 H   0  0  0  0  0  0  0  0  0  0  0  0  # atno 10765 bound_to 10752
  140.2393  134.3434  155.7932 H   0  0  0  0  0  0  0  0  0  0  0  0  # atno 11005 bound_to 11000
  144.6745  140.0582  143.7477 LP  0  0  0  0  0  0  0  0  0  0  0  0  # atno 17320 bound_to 7965
  145.9638  139.2820  143.1139 LP  0  0  0  0  0  0  0  0  0  0  0  0  # atno 17321 bound_to 7965
  140.5519  144.0411  150.6130 LP  0  0  0  0  0  0  0  0  0  0  0  0  # atno 17342 bound_to 10162
  140.3468  143.2986  152.0529 LP  0  0  0  0  0  0  0  0  0  0  0  0  # atno 17343 bound_to 10162
  157.5110  130.7938  149.7705 LP  0  0  0  0  0  0  0  0  0  0  0  0  # atno 17370 bound_to 10713
  156.0040  130.3865  150.2498 LP  0  0  0  0  0  0  0  0  0  0  0  0  # atno 17371 bound_to 10713
  141.2212  133.7289  156.8859 LP  0  0  0  0  0  0  0  0  0  0  0  0  # atno 17394 bound_to 11000
  140.1670  134.9126  157.2786 LP  0  0  0  0  0  0  0  0  0  0  0  0  # atno 17395 bound_to 11000

$$$$
