AV-unprocessed.smi:3056|AV-procd|sdf|11655|dock8
  -GOLD-   2272017 53D 1   1.00000     0.00000
 Structure written by MMmdl.
 47 48  0  0  0  0  0  0  0  0  1 V2000
  145.8027  131.8759  149.8877 C   0  0  0  0  0  0  0  0  0  0  0  0
  145.4109  133.1604  150.5588 C   0  0  0  0  0  0  0  0  0  0  0  0
  144.2383  133.9371  150.3428 C   0  0  0  0  0  0  0  0  0  0  0  0
  144.1909  135.0172  151.1042 N   0  0  0  0  0  0  0  0  0  0  0  0
  145.3341  134.9830  151.8237 N   0  0  0  0  0  0  0  0  0  0  0  0
  145.5883  136.0341  152.8045 C   0  0  2  0  0  0  0  0  0  0  0  0
  145.6842  135.4556  154.2323 C   0  0  0  0  0  0  0  0  0  0  0  0
  144.5736  137.2007  152.6611 C   0  0  1  0  0  0  0  0  0  0  0  0
  143.1375  136.8359  153.0936 C   0  0  0  0  0  0  0  0  0  0  0  0
  145.1041  138.3614  153.3792 N   0  0  0  0  0  0  0  0  0  0  0  0
  146.5597  138.5677  153.2819 C   0  0  0  0  0  0  0  0  0  0  0  0
  147.0715  139.8395  153.9850 C   0  0  0  0  0  0  0  0  0  0  0  0
  146.2704  140.5375  154.6099 O   0  0  0  0  0  0  0  0  0  0  0  0
  148.3860  140.1543  153.9020 N   0  0  0  0  0  0  0  0  0  0  0  0
  149.3826  139.2807  153.2785 C   0  0  0  0  0  0  0  0  0  0  0  0
  150.3475  138.8013  154.3778 C   0  0  0  0  0  0  0  0  0  0  0  0
  150.9425  139.9260  155.0232 O   0  0  0  0  0  0  0  0  0  0  0  0
  149.9931  140.8189  155.6060 C   0  0  1  0  0  0  0  0  0  0  0  0
  150.7601  141.9647  156.2748 C   0  0  0  0  0  0  0  0  0  0  0  0
  149.0386  141.3201  154.5041 C   0  0  0  0  0  0  0  0  0  0  0  0
  146.0822  133.8612  151.5199 C   0  0  0  0  0  0  0  0  0  0  0  0
  144.9352  131.3405  149.5010 H   0  0  0  0  0  0  0  0  0  0  0  0
  146.3155  131.2018  150.5740 H   0  0  0  0  0  0  0  0  0  0  0  0
  146.4737  132.0514  149.0469 H   0  0  0  0  0  0  0  0  0  0  0  0
  143.4216  133.7462  149.6622 H   0  0  0  0  0  0  0  0  0  0  0  0
  146.5778  136.4331  152.5705 H   0  0  0  0  0  0  0  0  0  0  0  0
  145.9903  136.2163  154.9503 H   0  0  0  0  0  0  0  0  0  0  0  0
  146.4239  134.6558  154.2780 H   0  0  0  0  0  0  0  0  0  0  0  0
  144.7344  135.0458  154.5751 H   0  0  0  0  0  0  0  0  0  0  0  0
  144.5434  137.4652  151.6029 H   0  0  0  0  0  0  0  0  0  0  0  0
  142.7819  135.9409  152.5849 H   0  0  0  0  0  0  0  0  0  0  0  0
  142.4312  137.6275  152.8445 H   0  0  0  0  0  0  0  0  0  0  0  0
  143.0703  136.6562  154.1665 H   0  0  0  0  0  0  0  0  0  0  0  0
  144.5839  139.2007  153.1653 H   0  0  0  0  0  0  0  0  0  0  0  0
  147.0505  137.7182  153.7573 H   0  0  0  0  0  0  0  0  0  0  0  0
  146.8571  138.5574  152.2328 H   0  0  0  0  0  0  0  0  0  0  0  0
  148.9414  138.4199  152.7746 H   0  0  0  0  0  0  0  0  0  0  0  0
  149.9263  139.8347  152.5122 H   0  0  0  0  0  0  0  0  0  0  0  0
  149.8247  138.1859  155.1116 H   0  0  0  0  0  0  0  0  0  0  0  0
  151.1355  138.1840  153.9463 H   0  0  0  0  0  0  0  0  0  0  0  0
  149.4253  140.2853  156.3705 H   0  0  0  0  0  0  0  0  0  0  0  0
  150.0770  142.6699  156.7485 H   0  0  0  0  0  0  0  0  0  0  0  0
  151.3600  142.5145  155.5493 H   0  0  0  0  0  0  0  0  0  0  0  0
  151.4324  141.5857  157.0447 H   0  0  0  0  0  0  0  0  0  0  0  0
  149.6015  141.8499  153.7344 H   0  0  0  0  0  0  0  0  0  0  0  0
  148.3428  142.0536  154.9076 H   0  0  0  0  0  0  0  0  0  0  0  0
  147.0225  133.6497  152.0073 H   0  0  0  0  0  0  0  0  0  0  0  0
  1  2  1  0  0  0  0
  1 22  1  0  0  0  0
  1 23  1  0  0  0  0
  1 24  1  0  0  0  0
  2 21  2  0  0  0  0
  2  3  1  0  0  0  0
  3  4  2  0  0  0  0
  3 25  1  0  0  0  0
  4  5  1  0  0  0  0
  5  6  1  0  0  0  0
  5 21  1  0  0  0  0
  6  7  1  0  0  0  0
  6  8  1  0  0  0  0
  6 26  1  0  0  0  0
  7 27  1  0  0  0  0
  7 28  1  0  0  0  0
  7 29  1  0  0  0  0
  8  9  1  0  0  0  0
  8 10  1  0  0  0  0
  8 30  1  0  0  0  0
  9 31  1  0  0  0  0
  9 32  1  0  0  0  0
  9 33  1  0  0  0  0
 10 11  1  0  0  0  0
 10 34  1  0  0  0  0
 11 12  1  0  0  0  0
 11 35  1  0  0  0  0
 11 36  1  0  0  0  0
 12 13  2  0  0  0  0
 12 14  1  0  0  0  0
 14 20  1  0  0  0  0
 14 15  1  0  0  0  0
 15 16  1  0  0  0  0
 15 37  1  0  0  0  0
 15 38  1  0  0  0  0
 16 17  1  0  0  0  0
 16 39  1  0  0  0  0
 16 40  1  0  0  0  0
 17 18  1  0  0  0  0
 18 19  1  0  0  0  0
 18 20  1  0  0  0  0
 18 41  1  0  0  0  0
 19 42  1  0  0  0  0
 19 43  1  0  0  0  0
 19 44  1  0  0  0  0
 20 45  1  0  0  0  0
 20 46  1  0  0  0  0
 21 47  1  0  0  0  0
M  END
> <s_m_source_file>
AV-unprocessed.smi

> <i_m_source_file_index>
3056

> <i_lp_mmshare_version>
43012

> <i_f3d_flags>
0

> <s_epik_input>
W0NIM11jMVtjSF1ubihbY0hdMSlbQ0BIXShbQ0gzXSlbQ0BIXShbQ0gzXSlbTkhdW0NIMl1DKD1PKU4yW0NIMl1bQ0gyXU9bQ0BASF0oW0NIM10pW0NIMl0y

> <s_epik_cmdline>
J2VwaWtfcHl0aG9uJywgJy1waCcsICc3LjAnLCAnLXRuJywgJzgnLCAnLW1hJywgJzIwMCcsICctbWV0YWxfYmluZGluZycsICctaW1hZScsICc8aW5maWxlLm1hZT4nLCAnLW9tYWUnLCAnPG91dGZpbGUubWFlPic=

> <r_lp_tautomer_probability>
1

> <r_epik_Ionization_Penalty>
0.667689

> <r_epik_Ionization_Penalty_Charging>
0

> <r_epik_Ionization_Penalty_Neutral>
0.667689

> <r_epik_State_Penalty>
0.684601

> <r_epik_Charging_Adjusted_Penalty>
0.684601

> <i_epik_Tot_Q>
0

> <i_epik_Tot_abs_Q>
0

> <r_epik_Metal_State_Penalty>
0.681448

> <b_epik_Metal_Only>
0

> <s_lp_Force_Field>
OPLS_2005

> <r_lp_Energy>
33.6961

> <b_lp_Chiralities_Consistent>
1

> <s_lp_Variant>
AV-unprocessed.smi:3056-11

> <Gold.Version>
5.8.1

> <Gold.Id.Protein>
6NUR|6NUR_protein|mol2

> <Gold.PLP.Fitness>
41.6758

> <Gold.PLP.PLP>
-33.3778

> <Gold.PLP.part.hbond>
-2.0000

> <Gold.PLP.part.metal>
0.0000

> <Gold.PLP.part.buried>
1.8657

> <Gold.PLP.part.nonpolar>
-33.8439

> <Gold.PLP.part.repulsive>
0.3530

> <Gold.PLP.ligand.clash>
0.0000

> <Gold.PLP.ligand.torsion>
0.3814

> <Gold.PLP.Chemscore.Hbond>
1.9500

> <Gold.PLP.Chemscore.CHOScore>
0.9975

> <Gold.PLP.Chemscore.Metal>
0.0000

> <Gold.Chemscore.Hbonds>
donor molecule, donor type, donor heavy atom, donor atom, acceptor molecule, acceptor atom, score
      L1  H    10    34       P1 10175  1.00
      P1  H  7989  7998       L1    17  1.00
      L1  C     3    25       P1 10186  1.00

> <Gold.PLP.Chemscore.Internal.Correction>
0.2183

> <Gold.Rescore>
     Score         DG    S(hbond)    S(metal)    S(lipo)     H(rot)  DE(clash)    DE(int)     intcor
     12.12     -15.88       1.24        0.00      90.14       1.68       2.19       1.57       ----

> <Gold.Chemscore.Fitness>
12.1183

> <Gold.Chemscore.DG>
-15.8806

> <Gold.Chemscore.ZeroCoef>
-5.4800

> <Gold.Chemscore.Hbond>
1.2436

> <Gold.Chemscore.Metal>
0.0000

> <Gold.Chemscore.Lipo>
90.1382

> <Gold.Chemscore.Internal_Hbond>
0.0000

> <Gold.Chemscore.DEClash>
2.1948

> <Gold.Chemscore.DEInternal>
1.5675

> <Gold.Chemscore.Rot>
1.6793

> <Gold.Chemscore.Internal.Correction>
   9.000000E+99

> <Gold.Chemscore.Hbonds>
donor molecule, donor type, donor heavy atom, donor atom, acceptor molecule, acceptor atom, score
      L1  H    10    34       P1 10175  1.00
      P1  H  7989  7998       L1    17  0.13

> <Gold.Chemscore.Hbond.Weighted>
-4.1535

> <Gold.Chemscore.Metal.Weighted>
-0.0000

> <Gold.Chemscore.Lipo.Weighted>
-10.5462

> <Gold.Chemscore.Internal_Hbond.Weighted>
0.0000

> <Gold.Chemscore.DEClash.Weighted>
2.1948

> <Gold.Chemscore.DEInternal.Weighted>
1.5675

> <Gold.Chemscore.Rot.Weighted>
4.2990

> <Gold.Chemscore.Internal.Correction.Weighted>
   9.000000E+99

> <Gold.Protein.RotatedTorsions>
[ 6907 6896 6895 6894 ] final -126.45 input  -60.11 | X-H torsion
[ 7974 7965 7964 7962 ] final  111.05 input  175.53 | X-H torsion
[ 8008 7997 7996 7995 ] final  155.42 input   59.86 | X-H torsion
[ 10167 10162 10161 10158 ] final  -52.55 input  -65.29 | X-H torsion
[ 10718 10713 10712 10709 ] final  125.39 input   66.30 | X-H torsion
[ 10763 10752 10751 10750 ] final  160.07 input  -60.55 | X-H torsion
[ 11005 11000 10999 10996 ] final  -52.36 input  -57.11 | X-H torsion

> <Gold.Protein.ActiveResidues>
 VAL166  LYS551  ARG553  GLY616  TRP617  ASP618  TYR619  PRO620  LYS621  CYS622 
 ASP623  PHE694  ASN695  SER759  ASP760  ASP761  ALA762  ILE779  LEU786  VAL792 
 PHE793  MET794  SER795  GLU796  ALA797  LYS798  CYS799  TRP800  GLU811  SER814 

> <Gold.Protein.RotatedAtoms>
  150.8970  133.7167  159.2888 H   0  0  0  0  0  0  0  0  0  0  0  0  # atno 6907 bound_to 6896
  151.4698  135.1043  159.9758 H   0  0  0  0  0  0  0  0  0  0  0  0  # atno 6908 bound_to 6896
  152.4855  133.8313  159.7160 H   0  0  0  0  0  0  0  0  0  0  0  0  # atno 6909 bound_to 6896
  145.2472  139.2754  143.4087 H   0  0  0  0  0  0  0  0  0  0  0  0  # atno 7974 bound_to 7965
  156.2479  140.1940  156.6798 H   0  0  0  0  0  0  0  0  0  0  0  0  # atno 8008 bound_to 7997
  154.6330  140.0593  156.9781 H   0  0  0  0  0  0  0  0  0  0  0  0  # atno 8009 bound_to 7997
  155.1680  140.3265  155.4401 H   0  0  0  0  0  0  0  0  0  0  0  0  # atno 8010 bound_to 7997
  140.6531  143.2580  151.4664 H   0  0  0  0  0  0  0  0  0  0  0  0  # atno 10167 bound_to 10162
  157.5507  131.1094  150.8707 H   0  0  0  0  0  0  0  0  0  0  0  0  # atno 10718 bound_to 10713
  154.2416  135.2774  155.2851 H   0  0  0  0  0  0  0  0  0  0  0  0  # atno 10763 bound_to 10752
  154.5540  135.5666  153.6951 H   0  0  0  0  0  0  0  0  0  0  0  0  # atno 10764 bound_to 10752
  152.9998  135.6281  154.2560 H   0  0  0  0  0  0  0  0  0  0  0  0  # atno 10765 bound_to 10752
  141.0920  133.6631  156.4013 H   0  0  0  0  0  0  0  0  0  0  0  0  # atno 11005 bound_to 11000
  146.3312  140.2852  142.8612 LP  0  0  0  0  0  0  0  0  0  0  0  0  # atno 17320 bound_to 7965
  144.9536  140.8203  143.5557 LP  0  0  0  0  0  0  0  0  0  0  0  0  # atno 17321 bound_to 7965
  139.5750  144.1841  152.1890 LP  0  0  0  0  0  0  0  0  0  0  0  0  # atno 17342 bound_to 10162
  140.1149  144.5425  150.6901 LP  0  0  0  0  0  0  0  0  0  0  0  0  # atno 17343 bound_to 10162
  156.9232  130.5323  149.5279 LP  0  0  0  0  0  0  0  0  0  0  0  0  # atno 17370 bound_to 10713
  156.0574  130.5633  150.9121 LP  0  0  0  0  0  0  0  0  0  0  0  0  # atno 17371 bound_to 10713
  140.5229  134.6286  157.5324 LP  0  0  0  0  0  0  0  0  0  0  0  0  # atno 17394 bound_to 11000
  139.9748  134.7233  155.9971 LP  0  0  0  0  0  0  0  0  0  0  0  0  # atno 17395 bound_to 11000

$$$$
