AV-unprocessed.smi:3023|AV-procd|sdf|11501|dock1
  -GOLD-   2272016433D 1   1.00000     0.00000
 Structure written by MMmdl.
 43 44  0  0  0  0  0  0  0  0  2 V2000
  144.1065  141.6266  155.5395 C   0  0  0  0  0  0  0  0  0  0  0  0
  145.3314  141.2742  154.7862 N   0  3  2  0  0  0  0  0  0  0  0  0
  145.9072  139.9782  155.2389 C   0  0  0  0  0  0  0  0  0  0  0  0
  146.5020  139.1403  154.0850 C   0  0  0  0  0  0  0  0  0  0  0  0
  147.4106  139.9032  153.0995 C   0  0  0  0  0  0  0  0  0  0  0  0
  148.1172  141.0126  153.7579 N   0  0  0  0  0  0  0  0  0  0  0  0
  149.2477  140.8913  154.4991 C   0  0  0  0  0  0  0  0  0  0  0  0
  149.9951  139.9149  154.4278 O   0  0  0  0  0  0  0  0  0  0  0  0
  149.4864  141.9207  155.3301 N   0  0  0  0  0  0  0  0  0  0  0  0
  150.6368  142.0321  156.2191 C   0  0  0  0  0  0  0  0  0  0  0  0
  150.2096  142.1425  157.6914 C   0  0  0  0  0  0  0  0  0  0  0  0
  151.3886  142.4069  158.5844 C   0  0  0  0  0  0  0  0  0  0  0  0
  152.2425  143.5466  158.5859 C   0  0  0  0  0  0  0  0  0  0  0  0
  153.1913  143.4773  159.5053 N   0  0  0  0  0  0  0  0  0  0  0  0
  152.9787  142.2950  160.1188 N   0  0  0  0  0  0  0  0  0  0  0  0
  153.8482  141.8858  161.2010 C   0  0  0  0  0  0  0  0  0  0  0  0
  151.8973  141.6277  159.5849 C   0  0  0  0  0  0  0  0  0  0  0  0
  147.3844  142.2833  153.6859 C   0  0  0  0  0  0  0  0  0  0  0  0
  146.3146  142.3949  154.7913 C   0  0  0  0  0  0  0  0  0  0  0  0
  144.3288  141.7798  156.5966 H   0  0  0  0  0  0  0  0  0  0  0  0
  143.3594  140.8365  155.4560 H   0  0  0  0  0  0  0  0  0  0  0  0
  143.6583  142.5404  155.1478 H   0  0  0  0  0  0  0  0  0  0  0  0
  146.6544  140.1534  156.0146 H   0  0  0  0  0  0  0  0  0  0  0  0
  145.1361  139.3711  155.7153 H   0  0  0  0  0  0  0  0  0  0  0  0
  147.0675  138.3180  154.5245 H   0  0  0  0  0  0  0  0  0  0  0  0
  145.6948  138.6717  153.5208 H   0  0  0  0  0  0  0  0  0  0  0  0
  148.1007  139.2173  152.6059 H   0  0  0  0  0  0  0  0  0  0  0  0
  146.7927  140.2866  152.2869 H   0  0  0  0  0  0  0  0  0  0  0  0
  148.8248  142.6832  155.3431 H   0  0  0  0  0  0  0  0  0  0  0  0
  151.3022  141.1787  156.0760 H   0  0  0  0  0  0  0  0  0  0  0  0
  151.2028  142.9181  155.9297 H   0  0  0  0  0  0  0  0  0  0  0  0
  149.4676  142.9354  157.7935 H   0  0  0  0  0  0  0  0  0  0  0  0
  149.7052  141.2249  157.9964 H   0  0  0  0  0  0  0  0  0  0  0  0
  152.1991  144.4179  157.9494 H   0  0  0  0  0  0  0  0  0  0  0  0
  153.6829  140.8339  161.4355 H   0  0  0  0  0  0  0  0  0  0  0  0
  153.6382  142.4852  162.0872 H   0  0  0  0  0  0  0  0  0  0  0  0
  154.8911  142.0240  160.9135 H   0  0  0  0  0  0  0  0  0  0  0  0
  151.5809  140.6646  159.9580 H   0  0  0  0  0  0  0  0  0  0  0  0
  148.0696  143.1300  153.7562 H   0  0  0  0  0  0  0  0  0  0  0  0
  146.9129  142.3973  152.7091 H   0  0  0  0  0  0  0  0  0  0  0  0
  145.7854  143.3372  154.6431 H   0  0  0  0  0  0  0  0  0  0  0  0
  146.7865  142.4665  155.7727 H   0  0  0  0  0  0  0  0  0  0  0  0
  145.0334  141.1446  153.8297 H   0  0  0  0  0  0  0  0  0  0  0  0
  1  2  1  0  0  0  0
  1 20  1  0  0  0  0
  1 21  1  0  0  0  0
  1 22  1  0  0  0  0
  2 19  1  0  0  0  0
  2  3  1  0  0  0  0
  2 43  1  0  0  0  0
  3  4  1  0  0  0  0
  3 23  1  0  0  0  0
  3 24  1  0  0  0  0
  4  5  1  0  0  0  0
  4 25  1  0  0  0  0
  4 26  1  0  0  0  0
  5  6  1  0  0  0  0
  5 27  1  0  0  0  0
  5 28  1  0  0  0  0
  6  7  1  0  0  0  0
  6 18  1  0  0  0  0
  7  8  2  0  0  0  0
  7  9  1  0  0  0  0
  9 10  1  0  0  0  0
  9 29  1  0  0  0  0
 10 11  1  0  0  0  0
 10 30  1  0  0  0  0
 10 31  1  0  0  0  0
 11 12  1  0  0  0  0
 11 32  1  0  0  0  0
 11 33  1  0  0  0  0
 12 17  2  0  0  0  0
 12 13  1  0  0  0  0
 13 14  2  0  0  0  0
 13 34  1  0  0  0  0
 14 15  1  0  0  0  0
 15 16  1  0  0  0  0
 15 17  1  0  0  0  0
 16 35  1  0  0  0  0
 16 36  1  0  0  0  0
 16 37  1  0  0  0  0
 17 38  1  0  0  0  0
 18 19  1  0  0  0  0
 18 39  1  0  0  0  0
 18 40  1  0  0  0  0
 19 41  1  0  0  0  0
 19 42  1  0  0  0  0
M  CHG  1   2   1
M  END
> <s_m_source_file>
AV-unprocessed.smi

> <i_m_source_file_index>
3023

> <i_lp_mmshare_version>
43012

> <i_f3d_flags>
0

> <s_epik_input>
W0NIM11OMVtDSDJdW0NIMl1bQ0gyXU4oW0NIMl1bQ0gyXTEpQyg9TylbTkhdW0NIMl1bQ0gyXWMyW2NIXW5uKFtDSDNdKVtjSF0y

> <s_epik_cmdline>
J2VwaWtfcHl0aG9uJywgJy1waCcsICc3LjAnLCAnLXRuJywgJzgnLCAnLW1hJywgJzIwMCcsICctbWV0YWxfYmluZGluZycsICctaW1hZScsICc8aW5maWxlLm1hZT4nLCAnLW9tYWUnLCAnPG91dGZpbGUubWFlPic=

> <r_lp_tautomer_probability>
1

> <r_epik_Ionization_Penalty>
0.00258886

> <r_epik_Ionization_Penalty_Charging>
0.00208099

> <r_epik_Ionization_Penalty_Neutral>
0.00050787

> <r_epik_State_Penalty>
-0

> <r_epik_Charging_Adjusted_Penalty>
0.00208099

> <i_epik_Tot_Q>
1

> <i_epik_Tot_abs_Q>
1

> <r_epik_Metal_State_Penalty>
-0

> <b_epik_Metal_Only>
0

> <s_lp_Force_Field>
OPLS_2005

> <r_lp_Energy>
38.3541

> <b_lp_Chiralities_Consistent>
1

> <s_lp_Variant>
AV-unprocessed.smi:3023-1

> <Gold.Version>
5.8.1

> <Gold.Id.Protein>
6NUR|6NUR_protein|mol2

> <Gold.PLP.Fitness>
47.3572

> <Gold.PLP.PLP>
-38.6612

> <Gold.PLP.part.hbond>
-3.0000

> <Gold.PLP.part.metal>
0.0000

> <Gold.PLP.part.buried>
-4.1362

> <Gold.PLP.part.nonpolar>
-32.4922

> <Gold.PLP.part.repulsive>
0.2874

> <Gold.PLP.ligand.clash>
2.0468

> <Gold.PLP.ligand.torsion>
0.1335

> <Gold.PLP.Chemscore.Hbond>
3.6545

> <Gold.PLP.Chemscore.CHOScore>
0.0000

> <Gold.PLP.Chemscore.Metal>
0.0000

> <Gold.Chemscore.Hbonds>
donor molecule, donor type, donor heavy atom, donor atom, acceptor molecule, acceptor atom, score
      L1  H     2    43       P1 10175  2.00
      L1  H     9    29       P1  8028  0.71
      P1  H  7989  7998       L1     8  0.73

> <Gold.PLP.Chemscore.Internal.Correction>
0.0462

> <Gold.Rescore>
     Score         DG    S(hbond)    S(metal)    S(lipo)     H(rot)  DE(clash)    DE(int)     intcor
     16.83     -18.27       2.09        0.00      80.15       1.39       1.30       0.14       ----

> <Gold.Chemscore.Fitness>
16.8328

> <Gold.Chemscore.DG>
-18.2693

> <Gold.Chemscore.ZeroCoef>
-5.4800

> <Gold.Chemscore.Hbond>
2.0872

> <Gold.Chemscore.Metal>
0.0000

> <Gold.Chemscore.Lipo>
80.1538

> <Gold.Chemscore.Internal_Hbond>
0.0000

> <Gold.Chemscore.DEClash>
1.2960

> <Gold.Chemscore.DEInternal>
0.1405

> <Gold.Chemscore.Rot>
1.3906

> <Gold.Chemscore.Internal.Correction>
   9.000000E+99

> <Gold.Chemscore.Hbonds>
donor molecule, donor type, donor heavy atom, donor atom, acceptor molecule, acceptor atom, score
      L1  H     2    43       P1 10175  0.59
      L1  H     9    29       P1  8028  0.68
      P1  H  7989  7998       L1     8  0.14

> <Gold.Chemscore.Hbond.Weighted>
-6.9711

> <Gold.Chemscore.Metal.Weighted>
-0.0000

> <Gold.Chemscore.Lipo.Weighted>
-9.3780

> <Gold.Chemscore.Internal_Hbond.Weighted>
0.0000

> <Gold.Chemscore.DEClash.Weighted>
1.2960

> <Gold.Chemscore.DEInternal.Weighted>
0.1405

> <Gold.Chemscore.Rot.Weighted>
3.5598

> <Gold.Chemscore.Internal.Correction.Weighted>
   9.000000E+99

> <Gold.Protein.RotatedTorsions>
[ 6907 6896 6895 6894 ] final  -68.80 input  -60.11 | X-H torsion
[ 7974 7965 7964 7962 ] final -113.80 input  175.53 | X-H torsion
[ 8008 7997 7996 7995 ] final  -19.23 input   59.86 | X-H torsion
[ 10167 10162 10161 10158 ] final  136.26 input  -65.29 | X-H torsion
[ 10718 10713 10712 10709 ] final -172.59 input   66.30 | X-H torsion
[ 10763 10752 10751 10750 ] final  -76.61 input  -60.55 | X-H torsion
[ 11005 11000 10999 10996 ] final  -53.76 input  -57.11 | X-H torsion

> <Gold.Protein.ActiveResidues>
 VAL166  LYS551  ARG553  GLY616  TRP617  ASP618  TYR619  PRO620  LYS621  CYS622 
 ASP623  PHE694  ASN695  SER759  ASP760  ASP761  ALA762  ILE779  LEU786  VAL792 
 PHE793  MET794  SER795  GLU796  ALA797  LYS798  CYS799  TRP800  GLU811  SER814 

> <Gold.Protein.RotatedAtoms>
  150.7337  134.5687  159.5879 H   0  0  0  0  0  0  0  0  0  0  0  0  # atno 6907 bound_to 6896
  152.3132  134.7469  160.0340 H   0  0  0  0  0  0  0  0  0  0  0  0  # atno 6908 bound_to 6896
  151.8010  133.3334  159.3563 H   0  0  0  0  0  0  0  0  0  0  0  0  # atno 6909 bound_to 6896
  145.1278  140.8707  143.3776 H   0  0  0  0  0  0  0  0  0  0  0  0  # atno 7974 bound_to 7965
  154.4851  140.2094  155.9674 H   0  0  0  0  0  0  0  0  0  0  0  0  # atno 8008 bound_to 7997
  156.1223  140.3211  155.8196 H   0  0  0  0  0  0  0  0  0  0  0  0  # atno 8009 bound_to 7997
  155.4445  140.0512  157.2998 H   0  0  0  0  0  0  0  0  0  0  0  0  # atno 8010 bound_to 7997
  139.5186  144.6474  151.5400 H   0  0  0  0  0  0  0  0  0  0  0  0  # atno 10167 bound_to 10162
  156.7578  130.9402  151.3117 H   0  0  0  0  0  0  0  0  0  0  0  0  # atno 10718 bound_to 10713
  154.5021  135.5792  153.6539 H   0  0  0  0  0  0  0  0  0  0  0  0  # atno 10763 bound_to 10752
  152.9881  135.6138  154.2988 H   0  0  0  0  0  0  0  0  0  0  0  0  # atno 10764 bound_to 10752
  154.2897  135.2849  155.2640 H   0  0  0  0  0  0  0  0  0  0  0  0  # atno 10765 bound_to 10752
  141.0992  133.6620  156.4220 H   0  0  0  0  0  0  0  0  0  0  0  0  # atno 11005 bound_to 11000
  145.0669  139.3061  143.5852 LP  0  0  0  0  0  0  0  0  0  0  0  0  # atno 17320 bound_to 7965
  146.3516  140.0130  142.8665 LP  0  0  0  0  0  0  0  0  0  0  0  0  # atno 17321 bound_to 7965
  140.6265  143.9159  150.6569 LP  0  0  0  0  0  0  0  0  0  0  0  0  # atno 17342 bound_to 10162
  140.2450  143.3636  152.1455 LP  0  0  0  0  0  0  0  0  0  0  0  0  # atno 17343 bound_to 10162
  157.6748  130.9084  150.0125 LP  0  0  0  0  0  0  0  0  0  0  0  0  # atno 17370 bound_to 10713
  156.1359  130.3642  149.9658 LP  0  0  0  0  0  0  0  0  0  0  0  0  # atno 17371 bound_to 10713
  140.5064  134.6437  157.5268 LP  0  0  0  0  0  0  0  0  0  0  0  0  # atno 17394 bound_to 11000
  139.9838  134.7094  155.9811 LP  0  0  0  0  0  0  0  0  0  0  0  0  # atno 17395 bound_to 11000

$$$$
