AV-unprocessed.smi:2193|AV-procd|sdf|8900|dock5
  -GOLD-   2272012113D 1   1.00000     0.00000
 Structure written by MMmdl.
 41 43  0  0  0  0  0  0  0  0  2 V2000
  149.7323  140.9578  153.6785 O   0  0  0  0  0  0  0  0  0  0  0  0
  149.3667  140.4958  154.9595 C   0  0  0  0  0  0  0  0  0  0  0  0
  150.1383  141.1695  156.0454 C   0  0  0  0  0  0  0  0  0  0  0  0
  150.1714  142.5100  156.2869 N   0  3  0  0  0  0  0  0  0  0  0  0
  151.0062  142.7740  157.3734 C   0  0  0  0  0  0  0  0  0  0  0  0
  151.3507  143.9749  157.9860 C   0  0  0  0  0  0  0  0  0  0  0  0
  152.2326  143.8952  159.0836 C   0  0  0  0  0  0  0  0  0  0  0  0
  152.7362  142.6570  159.5322 C   0  0  0  0  0  0  0  0  0  0  0  0
  152.3807  141.4461  158.9023 C   0  0  0  0  0  0  0  0  0  0  0  0
  151.5085  141.5329  157.8171 C   0  0  0  0  0  0  0  0  0  0  0  0
  150.9465  140.5719  156.9677 N   0  0  0  0  0  0  0  0  0  0  0  0
  151.2761  139.1494  157.1511 C   0  0  0  0  0  0  0  0  0  0  0  0
  150.7656  138.5855  158.4922 C   0  0  2  0  0  0  0  0  0  0  0  0
  151.6935  137.6537  159.0101 O   0  0  0  0  0  0  0  0  0  0  0  0
  149.4010  137.8951  158.3563 C   0  0  0  0  0  0  0  0  0  0  0  0
  148.8070  137.7979  159.6442 O   0  0  0  0  0  0  0  0  0  0  0  0
  148.2865  136.5828  160.0341 C   0  0  0  0  0  0  0  0  0  0  0  0
  147.7822  136.4955  161.3483 C   0  0  0  0  0  0  0  0  0  0  0  0
  147.2314  135.2928  161.8313 C   0  0  0  0  0  0  0  0  0  0  0  0
  147.1800  134.1593  160.9994 C   0  0  0  0  0  0  0  0  0  0  0  0
  146.6507  133.0017  161.4611 F   0  0  0  0  0  0  0  0  0  0  0  0
  147.6804  134.2315  159.6861 C   0  0  0  0  0  0  0  0  0  0  0  0
  148.2310  135.4349  159.2032 C   0  0  0  0  0  0  0  0  0  0  0  0
  149.5488  140.2770  153.0488 H   0  0  0  0  0  0  0  0  0  0  0  0
  148.3011  140.6693  155.1104 H   0  0  0  0  0  0  0  0  0  0  0  0
  149.5258  139.4187  155.0097 H   0  0  0  0  0  0  0  0  0  0  0  0
  150.9657  144.9247  157.6445 H   0  0  0  0  0  0  0  0  0  0  0  0
  152.5283  144.8016  159.5919 H   0  0  0  0  0  0  0  0  0  0  0  0
  153.4089  142.6349  160.3775 H   0  0  0  0  0  0  0  0  0  0  0  0
  152.7705  140.5041  159.2586 H   0  0  0  0  0  0  0  0  0  0  0  0
  150.8213  138.6072  156.3214 H   0  0  0  0  0  0  0  0  0  0  0  0
  152.3519  139.0090  157.0453 H   0  0  0  0  0  0  0  0  0  0  0  0
  150.6790  139.3933  159.2198 H   0  0  0  0  0  0  0  0  0  0  0  0
  151.3880  137.3673  159.8572 H   0  0  0  0  0  0  0  0  0  0  0  0
  148.7605  138.4574  157.6745 H   0  0  0  0  0  0  0  0  0  0  0  0
  149.5376  136.8933  157.9448 H   0  0  0  0  0  0  0  0  0  0  0  0
  147.8173  137.3606  161.9940 H   0  0  0  0  0  0  0  0  0  0  0  0
  146.8485  135.2408  162.8398 H   0  0  0  0  0  0  0  0  0  0  0  0
  147.6426  133.3618  159.0467 H   0  0  0  0  0  0  0  0  0  0  0  0
  148.6051  135.4505  158.1909 H   0  0  0  0  0  0  0  0  0  0  0  0
  149.6621  143.1933  155.7411 H   0  0  0  0  0  0  0  0  0  0  0  0
  1  2  1  0  0  0  0
  1 24  1  0  0  0  0
  2  3  1  0  0  0  0
  2 25  1  0  0  0  0
  2 26  1  0  0  0  0
  3 11  1  0  0  0  0
  3  4  2  0  0  0  0
  4  5  1  0  0  0  0
  4 41  1  0  0  0  0
  5 10  2  0  0  0  0
  5  6  1  0  0  0  0
  6  7  2  0  0  0  0
  6 27  1  0  0  0  0
  7  8  1  0  0  0  0
  7 28  1  0  0  0  0
  8  9  2  0  0  0  0
  8 29  1  0  0  0  0
  9 10  1  0  0  0  0
  9 30  1  0  0  0  0
 10 11  1  0  0  0  0
 11 12  1  0  0  0  0
 12 13  1  0  0  0  0
 12 31  1  0  0  0  0
 12 32  1  0  0  0  0
 13 14  1  0  0  0  0
 13 15  1  0  0  0  0
 13 33  1  0  0  0  0
 14 34  1  0  0  0  0
 15 16  1  0  0  0  0
 15 35  1  0  0  0  0
 15 36  1  0  0  0  0
 16 17  1  0  0  0  0
 17 23  1  0  0  0  0
 17 18  2  0  0  0  0
 18 19  1  0  0  0  0
 18 37  1  0  0  0  0
 19 20  2  0  0  0  0
 19 38  1  0  0  0  0
 20 21  1  0  0  0  0
 20 22  1  0  0  0  0
 22 23  2  0  0  0  0
 22 39  1  0  0  0  0
 23 40  1  0  0  0  0
M  CHG  1   4   1
M  END
> <s_m_source_file>
AV-unprocessed.smi

> <i_m_source_file_index>
2193

> <i_lp_mmshare_version>
43012

> <i_f3d_flags>
0

> <s_epik_input>
W2NIXTFbY0hdW2NIXVtjSF1jKGMxMiluKGMobjIpW0NIMl1bT0hdKVtDSDJdW0NASF0oW09IXSlbQ0gyXU9jM1tjSF1bY0hdYyhGKVtjSF1bY0hdMw==

> <s_epik_cmdline>
J2VwaWtfcHl0aG9uJywgJy1waCcsICc3LjAnLCAnLXRuJywgJzgnLCAnLW1hJywgJzIwMCcsICctbWV0YWxfYmluZGluZycsICctaW1hZScsICc8aW5maWxlLm1hZT4nLCAnLW9tYWUnLCAnPG91dGZpbGUubWFlPic=

> <r_lp_tautomer_probability>
1

> <r_epik_Ionization_Penalty>
1.43752

> <r_epik_Ionization_Penalty_Charging>
1.43666

> <r_epik_Ionization_Penalty_Neutral>
0.000858184

> <r_epik_State_Penalty>
1.52171

> <r_epik_Charging_Adjusted_Penalty>
2.95837

> <i_epik_Tot_Q>
1

> <i_epik_Tot_abs_Q>
1

> <r_epik_Metal_State_Penalty>
5.56725

> <b_epik_Metal_Only>
0

> <s_lp_Force_Field>
OPLS_2005

> <r_lp_Energy>
17.6251

> <b_lp_Chiralities_Consistent>
1

> <s_lp_Variant>
AV-unprocessed.smi:2193-3

> <Gold.Version>
5.8.1

> <Gold.Id.Protein>
6NUR|6NUR_protein|mol2

> <Gold.PLP.Fitness>
57.6240

> <Gold.PLP.PLP>
-48.1427

> <Gold.PLP.part.hbond>
-5.8495

> <Gold.PLP.part.metal>
0.0000

> <Gold.PLP.part.buried>
-3.7743

> <Gold.PLP.part.nonpolar>
-38.9486

> <Gold.PLP.part.repulsive>
0.0956

> <Gold.PLP.ligand.clash>
0.0000

> <Gold.PLP.ligand.torsion>
1.0173

> <Gold.PLP.Chemscore.Hbond>
3.8090

> <Gold.PLP.Chemscore.CHOScore>
0.0000

> <Gold.PLP.Chemscore.Metal>
0.0000

> <Gold.Chemscore.Hbonds>
donor molecule, donor type, donor heavy atom, donor atom, acceptor molecule, acceptor atom, score
      L1  H     1    24       P1  7957  0.75
      L1  H     4    41       P1  8028  1.95
      P1  H  6931  6943       L1    16  0.03
      P1  H  6934  6947       L1    16  0.02
      P1  H  7989  7998       L1     1  0.26
      P1  H  8011  8017       L1     1  0.74

> <Gold.PLP.Chemscore.Internal.Correction>
0.0890

> <Gold.Rescore>
     Score         DG    S(hbond)    S(metal)    S(lipo)     H(rot)  DE(clash)    DE(int)     intcor
     15.73     -16.98       1.91        0.00     116.29       3.31       0.07       1.17       ----

> <Gold.Chemscore.Fitness>
15.7350

> <Gold.Chemscore.DG>
-16.9781

> <Gold.Chemscore.ZeroCoef>
-5.4800

> <Gold.Chemscore.Hbond>
1.9085

> <Gold.Chemscore.Metal>
0.0000

> <Gold.Chemscore.Lipo>
116.2910

> <Gold.Chemscore.Internal_Hbond>
0.0000

> <Gold.Chemscore.DEClash>
0.0749

> <Gold.Chemscore.DEInternal>
1.1682

> <Gold.Chemscore.Rot>
3.3134

> <Gold.Chemscore.Internal.Correction>
   9.000000E+99

> <Gold.Chemscore.Hbonds>
donor molecule, donor type, donor heavy atom, donor atom, acceptor molecule, acceptor atom, score
      L1  H     1    24       P1  7957  0.76
      L1  H     4    41       P1  8028  0.93
      P1  H  7989  7998       L1     1  0.03
      P1  H  8011  8017       L1     1  0.09

> <Gold.Chemscore.Hbond.Weighted>
-6.3744

> <Gold.Chemscore.Metal.Weighted>
-0.0000

> <Gold.Chemscore.Lipo.Weighted>
-13.6061

> <Gold.Chemscore.Internal_Hbond.Weighted>
0.0000

> <Gold.Chemscore.DEClash.Weighted>
0.0749

> <Gold.Chemscore.DEInternal.Weighted>
1.1682

> <Gold.Chemscore.Rot.Weighted>
8.4823

> <Gold.Chemscore.Internal.Correction.Weighted>
   9.000000E+99

> <Gold.Protein.RotatedTorsions>
[ 6907 6896 6895 6894 ] final   99.34 input  -60.11 | X-H torsion
[ 7974 7965 7964 7962 ] final   75.41 input  175.53 | X-H torsion
[ 8008 7997 7996 7995 ] final   10.21 input   59.86 | X-H torsion
[ 10167 10162 10161 10158 ] final   35.72 input  -65.29 | X-H torsion
[ 10718 10713 10712 10709 ] final -140.76 input   66.30 | X-H torsion
[ 10763 10752 10751 10750 ] final  -24.45 input  -60.55 | X-H torsion
[ 11005 11000 10999 10996 ] final -133.71 input  -57.11 | X-H torsion

> <Gold.Protein.ActiveResidues>
 VAL166  LYS551  ARG553  GLY616  TRP617  ASP618  TYR619  PRO620  LYS621  CYS622 
 ASP623  PHE694  ASN695  SER759  ASP760  ASP761  ALA762  ILE779  LEU786  VAL792 
 PHE793  MET794  SER795  GLU796  ALA797  LYS798  CYS799  TRP800  GLU811  SER814 

> <Gold.Protein.RotatedAtoms>
  152.5394  134.0443  159.8081 H   0  0  0  0  0  0  0  0  0  0  0  0  # atno 6907 bound_to 6896
  151.0594  133.5549  159.2643 H   0  0  0  0  0  0  0  0  0  0  0  0  # atno 6908 bound_to 6896
  151.2453  135.0611  159.9095 H   0  0  0  0  0  0  0  0  0  0  0  0  # atno 6909 bound_to 6896
  145.7160  139.2631  143.1623 H   0  0  0  0  0  0  0  0  0  0  0  0  # atno 7974 bound_to 7965
  154.7904  140.2834  155.5996 H   0  0  0  0  0  0  0  0  0  0  0  0  # atno 8008 bound_to 7997
  156.2963  140.2606  156.2678 H   0  0  0  0  0  0  0  0  0  0  0  0  # atno 8009 bound_to 7997
  154.9678  140.0376  157.2210 H   0  0  0  0  0  0  0  0  0  0  0  0  # atno 8010 bound_to 7997
  140.4195  144.1480  150.6146 H   0  0  0  0  0  0  0  0  0  0  0  0  # atno 10167 bound_to 10162
  156.3260  130.7560  151.1668 H   0  0  0  0  0  0  0  0  0  0  0  0  # atno 10718 bound_to 10713
  153.6839  135.6965  153.5110 H   0  0  0  0  0  0  0  0  0  0  0  0  # atno 10763 bound_to 10752
  153.2464  135.4289  155.0751 H   0  0  0  0  0  0  0  0  0  0  0  0  # atno 10764 bound_to 10752
  154.8392  135.3520  154.6382 H   0  0  0  0  0  0  0  0  0  0  0  0  # atno 10765 bound_to 10752
  140.9056  134.1634  157.4428 H   0  0  0  0  0  0  0  0  0  0  0  0  # atno 11005 bound_to 11000
  146.0669  140.7910  142.9707 LP  0  0  0  0  0  0  0  0  0  0  0  0  # atno 17320 bound_to 7965
  144.6929  140.3283  143.7220 LP  0  0  0  0  0  0  0  0  0  0  0  0  # atno 17321 bound_to 7965
  140.4550  143.2471  151.9297 LP  0  0  0  0  0  0  0  0  0  0  0  0  # atno 17342 bound_to 10162
  139.4782  144.5525  151.8364 LP  0  0  0  0  0  0  0  0  0  0  0  0  # atno 17343 bound_to 10162
  157.7421  131.0494  150.5047 LP  0  0  0  0  0  0  0  0  0  0  0  0  # atno 17370 bound_to 10713
  156.5206  130.4161  149.6253 LP  0  0  0  0  0  0  0  0  0  0  0  0  # atno 17371 bound_to 10713
  139.8749  134.9915  156.5554 LP  0  0  0  0  0  0  0  0  0  0  0  0  # atno 17394 bound_to 11000
  140.8175  133.8380  155.8865 LP  0  0  0  0  0  0  0  0  0  0  0  0  # atno 17395 bound_to 11000

$$$$
