AV-unprocessed.smi:1144|AV-procd|sdf|4881|dock1
  -GOLD-   22720 3453D 1   1.00000     0.00000
 Structure written by MMmdl.
 34 35  0  0  0  0  0  0  0  0  1 V2000
  153.6121  141.7218  160.9538 C   0  0  0  0  0  0  0  0  0  0  0  0
  153.1093  142.6183  159.9242 N   0  0  0  0  0  0  0  0  0  0  0  0
  152.4481  143.7813  160.5005 C   0  0  0  0  0  0  0  0  0  0  0  0
  151.9039  144.7209  159.4117 C   0  0  0  0  0  0  0  0  0  0  0  0
  151.0303  143.9955  158.5518 O   0  0  0  0  0  0  0  0  0  0  0  0
  151.6602  142.8811  157.9214 C   0  0  2  0  0  0  0  0  0  0  0  0
  150.6279  142.1834  157.0258 C   0  0  0  0  0  0  0  0  0  0  0  0
  151.2668  141.3940  155.9836 N   0  0  0  0  0  0  0  0  0  0  0  0
  150.9100  140.0983  155.6626 C   0  0  0  0  0  0  0  0  0  0  0  0
  150.4578  139.8527  154.4276 N   0  0  0  0  0  0  0  0  0  0  0  0
  150.1171  138.5780  154.1411 C   0  0  0  0  0  0  0  0  0  0  0  0
  150.2292  137.5473  155.0950 C   0  0  0  0  0  0  0  0  0  0  0  0
  150.7181  137.9219  156.3667 C   0  0  0  0  0  0  0  0  0  0  0  0
  150.8941  136.9157  157.4940 C   0  0  0  0  0  0  0  0  0  0  0  0
  150.5357  135.6883  157.1151 F   0  0  0  0  0  0  0  0  0  0  0  0
  152.1715  136.8844  157.8737 F   0  0  0  0  0  0  0  0  0  0  0  0
  150.1435  137.2723  158.5365 F   0  0  0  0  0  0  0  0  0  0  0  0
  151.0565  139.2033  156.6419 N   0  0  0  0  0  0  0  0  0  0  0  0
  152.1953  141.9365  159.0164 C   0  0  0  0  0  0  0  0  0  0  0  0
  154.3172  142.2392  161.6052 H   0  0  0  0  0  0  0  0  0  0  0  0
  154.1333  140.8747  160.5071 H   0  0  0  0  0  0  0  0  0  0  0  0
  152.8002  141.3347  161.5708 H   0  0  0  0  0  0  0  0  0  0  0  0
  151.6263  143.4595  161.1421 H   0  0  0  0  0  0  0  0  0  0  0  0
  153.1455  144.3272  161.1368 H   0  0  0  0  0  0  0  0  0  0  0  0
  151.3561  145.5481  159.8632 H   0  0  0  0  0  0  0  0  0  0  0  0
  152.7196  145.1548  158.8311 H   0  0  0  0  0  0  0  0  0  0  0  0
  152.4941  143.2317  157.3099 H   0  0  0  0  0  0  0  0  0  0  0  0
  150.0099  141.5175  157.6293 H   0  0  0  0  0  0  0  0  0  0  0  0
  149.9613  142.9184  156.5730 H   0  0  0  0  0  0  0  0  0  0  0  0
  151.9753  141.8351  155.4154 H   0  0  0  0  0  0  0  0  0  0  0  0
  149.7528  138.3787  153.1442 H   0  0  0  0  0  0  0  0  0  0  0  0
  149.9545  136.5306  154.8571 H   0  0  0  0  0  0  0  0  0  0  0  0
  152.7042  141.0918  158.5502 H   0  0  0  0  0  0  0  0  0  0  0  0
  151.3571  141.5227  159.5793 H   0  0  0  0  0  0  0  0  0  0  0  0
  1  2  1  0  0  0  0
  1 20  1  0  0  0  0
  1 21  1  0  0  0  0
  1 22  1  0  0  0  0
  2 19  1  0  0  0  0
  2  3  1  0  0  0  0
  3  4  1  0  0  0  0
  3 23  1  0  0  0  0
  3 24  1  0  0  0  0
  4  5  1  0  0  0  0
  4 25  1  0  0  0  0
  4 26  1  0  0  0  0
  5  6  1  0  0  0  0
  6  7  1  0  0  0  0
  6 19  1  0  0  0  0
  6 27  1  0  0  0  0
  7  8  1  0  0  0  0
  7 28  1  0  0  0  0
  7 29  1  0  0  0  0
  8  9  1  0  0  0  0
  8 30  1  0  0  0  0
  9 18  1  0  0  0  0
  9 10  2  0  0  0  0
 10 11  1  0  0  0  0
 11 12  2  0  0  0  0
 11 31  1  0  0  0  0
 12 13  1  0  0  0  0
 12 32  1  0  0  0  0
 13 14  1  0  0  0  0
 13 18  2  0  0  0  0
 14 15  1  0  0  0  0
 14 16  1  0  0  0  0
 14 17  1  0  0  0  0
 19 33  1  0  0  0  0
 19 34  1  0  0  0  0
M  END
> <s_m_source_file>
AV-unprocessed.smi

> <i_m_source_file_index>
1144

> <i_lp_mmshare_version>
43012

> <i_f3d_flags>
0

> <s_epik_input>
W0NIM11OMVtDSDJdW0NIMl1PW0NASF0oW0NIMl0xKVtDSDJdW05IXWMybltjSF1bY0hdYyhuMilDKEYpKEYpRg==

> <s_epik_cmdline>
J2VwaWtfcHl0aG9uJywgJy1waCcsICc3LjAnLCAnLXRuJywgJzgnLCAnLW1hJywgJzIwMCcsICctbWV0YWxfYmluZGluZycsICctaW1hZScsICc8aW5maWxlLm1hZT4nLCAnLW9tYWUnLCAnPG91dGZpbGUubWFlPic=

> <r_lp_tautomer_probability>
1

> <r_epik_Ionization_Penalty>
0.797829

> <r_epik_Ionization_Penalty_Charging>
0

> <r_epik_Ionization_Penalty_Neutral>
0.797829

> <r_epik_State_Penalty>
0.828842

> <r_epik_Charging_Adjusted_Penalty>
0.828842

> <i_epik_Tot_Q>
0

> <i_epik_Tot_abs_Q>
0

> <r_epik_Metal_State_Penalty>
0.828842

> <b_epik_Metal_Only>
0

> <s_lp_Force_Field>
OPLS_2005

> <r_lp_Energy>
14.496

> <b_lp_Chiralities_Consistent>
1

> <s_lp_Variant>
AV-unprocessed.smi:1144-6

> <Gold.Version>
5.8.1

> <Gold.Id.Protein>
6NUR|6NUR_protein|mol2

> <Gold.PLP.Fitness>
38.4845

> <Gold.PLP.PLP>
-31.8043

> <Gold.PLP.part.hbond>
-1.0000

> <Gold.PLP.part.metal>
0.0000

> <Gold.PLP.part.buried>
-4.6612

> <Gold.PLP.part.nonpolar>
-26.7135

> <Gold.PLP.part.repulsive>
0.4119

> <Gold.PLP.ligand.clash>
0.0000

> <Gold.PLP.ligand.torsion>
0.8862

> <Gold.PLP.Chemscore.Hbond>
1.0000

> <Gold.PLP.Chemscore.CHOScore>
1.8010

> <Gold.PLP.Chemscore.Metal>
0.0000

> <Gold.Chemscore.Hbonds>
donor molecule, donor type, donor heavy atom, donor atom, acceptor molecule, acceptor atom, score
      P1  H  7989  7998       L1    10  0.95
      L1  C    11    31       P1  7948  0.87
      L1  C    11    31       P1  7957  0.86

> <Gold.PLP.Chemscore.Internal.Correction>
0.0498

> <Gold.Rescore>
     Score         DG    S(hbond)    S(metal)    S(lipo)     H(rot)  DE(clash)    DE(int)     intcor
     13.94     -14.71       0.93        0.00      80.98       1.31       0.07       0.69       ----

> <Gold.Chemscore.Fitness>
13.9396

> <Gold.Chemscore.DG>
-14.7071

> <Gold.Chemscore.ZeroCoef>
-5.4800

> <Gold.Chemscore.Hbond>
0.9339

> <Gold.Chemscore.Metal>
0.0000

> <Gold.Chemscore.Lipo>
80.9757

> <Gold.Chemscore.Internal_Hbond>
0.0000

> <Gold.Chemscore.DEClash>
0.0727

> <Gold.Chemscore.DEInternal>
0.6947

> <Gold.Chemscore.Rot>
1.3149

> <Gold.Chemscore.Internal.Correction>
   9.000000E+99

> <Gold.Chemscore.Hbonds>
donor molecule, donor type, donor heavy atom, donor atom, acceptor molecule, acceptor atom, score
      P1  H  7989  7998       L1    10  0.21

> <Gold.Chemscore.Hbond.Weighted>
-3.1191

> <Gold.Chemscore.Metal.Weighted>
-0.0000

> <Gold.Chemscore.Lipo.Weighted>
-9.4742

> <Gold.Chemscore.Internal_Hbond.Weighted>
0.0000

> <Gold.Chemscore.DEClash.Weighted>
0.0727

> <Gold.Chemscore.DEInternal.Weighted>
0.6947

> <Gold.Chemscore.Rot.Weighted>
3.3662

> <Gold.Chemscore.Internal.Correction.Weighted>
   9.000000E+99

> <Gold.Protein.RotatedTorsions>
[ 6907 6896 6895 6894 ] final   47.26 input  -60.11 | X-H torsion
[ 7974 7965 7964 7962 ] final  172.87 input  175.53 | X-H torsion
[ 8008 7997 7996 7995 ] final   12.70 input   59.86 | X-H torsion
[ 10167 10162 10161 10158 ] final  -35.01 input  -65.29 | X-H torsion
[ 10718 10713 10712 10709 ] final  147.53 input   66.30 | X-H torsion
[ 10763 10752 10751 10750 ] final -140.13 input  -60.55 | X-H torsion
[ 11005 11000 10999 10996 ] final   94.48 input  -57.11 | X-H torsion

> <Gold.Protein.ActiveResidues>
 VAL166  LYS551  ARG553  GLY616  TRP617  ASP618  TYR619  PRO620  LYS621  CYS622 
 ASP623  PHE694  ASN695  SER759  ASP760  ASP761  ALA762  ILE779  LEU786  VAL792 
 PHE793  MET794  SER795  GLU796  ALA797  LYS798  CYS799  TRP800  GLU811  SER814 

> <Gold.Protein.RotatedAtoms>
  152.2660  134.7984  160.0422 H   0  0  0  0  0  0  0  0  0  0  0  0  # atno 6907 bound_to 6896
  151.8613  133.3452  159.3713 H   0  0  0  0  0  0  0  0  0  0  0  0  # atno 6908 bound_to 6896
  150.7134  134.5131  159.5661 H   0  0  0  0  0  0  0  0  0  0  0  0  # atno 6909 bound_to 6896
  144.7257  139.9564  143.6433 H   0  0  0  0  0  0  0  0  0  0  0  0  # atno 7974 bound_to 7965
  154.8242  140.2889  155.5766 H   0  0  0  0  0  0  0  0  0  0  0  0  # atno 8008 bound_to 7997
  156.3000  140.2544  156.3086 H   0  0  0  0  0  0  0  0  0  0  0  0  # atno 8009 bound_to 7997
  154.9304  140.0383  157.2034 H   0  0  0  0  0  0  0  0  0  0  0  0  # atno 8010 bound_to 7997
  140.7174  143.3507  151.2162 H   0  0  0  0  0  0  0  0  0  0  0  0  # atno 10167 bound_to 10162
  157.3198  131.0902  151.1249 H   0  0  0  0  0  0  0  0  0  0  0  0  # atno 10718 bound_to 10713
  154.8588  135.3562  154.5658 H   0  0  0  0  0  0  0  0  0  0  0  0  # atno 10763 bound_to 10752
  153.6272  135.7003  153.5293 H   0  0  0  0  0  0  0  0  0  0  0  0  # atno 10764 bound_to 10752
  153.3079  135.4187  155.1270 H   0  0  0  0  0  0  0  0  0  0  0  0  # atno 10765 bound_to 10752
  139.8798  134.8847  156.3870 H   0  0  0  0  0  0  0  0  0  0  0  0  # atno 11005 bound_to 11000
  146.0672  139.3662  143.0545 LP  0  0  0  0  0  0  0  0  0  0  0  0  # atno 17320 bound_to 7965
  145.8016  140.9768  143.0996 LP  0  0  0  0  0  0  0  0  0  0  0  0  # atno 17321 bound_to 7965
  139.7037  143.9490  152.2917 LP  0  0  0  0  0  0  0  0  0  0  0  0  # atno 17342 bound_to 10162
  139.9192  144.6810  150.8479 LP  0  0  0  0  0  0  0  0  0  0  0  0  # atno 17343 bound_to 10162
  157.2539  130.6627  149.5944 LP  0  0  0  0  0  0  0  0  0  0  0  0  # atno 17370 bound_to 10713
  155.9685  130.4530  150.5794 LP  0  0  0  0  0  0  0  0  0  0  0  0  # atno 17371 bound_to 10713
  140.9359  133.7547  156.0084 LP  0  0  0  0  0  0  0  0  0  0  0  0  # atno 17394 bound_to 11000
  140.8276  134.3216  157.5360 LP  0  0  0  0  0  0  0  0  0  0  0  0  # atno 17395 bound_to 11000

$$$$
