AV-unprocessed.smi:1005|AV-procd|sdf|4378|dock2
  -GOLD-   22720 2293D 1   1.00000     0.00000
 Structure written by MMmdl.
 58 60  0  0  0  0  0  0  0  0  4 V2000
  151.5411  144.4427  160.5978 C   0  0  0  0  0  0  0  0  0  0  0  0
  151.5084  143.3578  159.5348 C   0  0  0  0  0  0  0  0  0  0  0  0
  150.6657  143.5371  158.4144 C   0  0  0  0  0  0  0  0  0  0  0  0
  150.6590  142.5288  157.4580 C   0  0  0  0  0  0  0  0  0  0  0  0
  149.9487  142.4060  156.2617 N   0  3  0  0  0  0  0  0  0  0  0  0
  150.2776  141.2314  155.6559 C   0  0  0  0  0  0  0  0  0  0  0  0
  151.1930  140.6053  156.4455 N   0  0  0  0  0  0  0  0  0  0  0  0
  151.8771  139.3178  156.2647 C   0  0  0  0  0  0  0  0  0  0  0  0
  150.8995  138.1363  156.1048 C   0  0  2  0  0  0  0  0  0  0  0  0
  151.3326  137.0626  156.9178 O   0  0  0  0  0  0  0  0  0  0  0  0
  150.8227  137.6519  154.6436 C   0  0  0  0  0  0  0  0  0  0  0  0
  149.8065  136.5862  154.4460 N   0  3  1  0  0  0  0  0  0  0  0  0
  150.2949  135.2261  154.7820 C   0  0  0  0  0  0  0  0  0  0  0  0
  149.1993  134.1829  154.5113 C   0  0  0  0  0  0  0  0  0  0  0  0
  148.0304  134.5186  155.2489 O   0  0  0  0  0  0  0  0  0  0  0  0
  147.4877  135.7782  154.8682 C   0  0  1  0  0  0  0  0  0  0  0  0
  146.1848  135.9750  155.6693 C   0  0  0  0  0  0  0  0  0  0  0  0
  145.1821  134.9014  155.4431 N   0  3  0  0  0  0  0  0  0  0  0  0
  144.8538  134.7434  154.0088 C   0  0  0  0  0  0  0  0  0  0  0  0
  143.9582  135.0559  156.2638 C   0  0  0  0  0  0  0  0  0  0  0  0
  148.5384  136.8712  155.1597 C   0  0  0  0  0  0  0  0  0  0  0  0
  151.4545  141.3736  157.5850 C   0  0  0  0  0  0  0  0  0  0  0  0
  152.2873  141.1788  158.6841 C   0  0  0  0  0  0  0  0  0  0  0  0
  152.3069  142.1922  159.6690 C   0  0  0  0  0  0  0  0  0  0  0  0
  153.2051  142.0077  160.8805 C   0  0  0  0  0  0  0  0  0  0  0  0
  150.8974  145.2816  160.3320 H   0  0  0  0  0  0  0  0  0  0  0  0
  152.5534  144.8278  160.7223 H   0  0  0  0  0  0  0  0  0  0  0  0
  151.1987  144.0500  161.5556 H   0  0  0  0  0  0  0  0  0  0  0  0
  150.0533  144.4206  158.3071 H   0  0  0  0  0  0  0  0  0  0  0  0
  149.8855  140.8662  154.7175 H   0  0  0  0  0  0  0  0  0  0  0  0
  152.5378  139.3988  155.4004 H   0  0  0  0  0  0  0  0  0  0  0  0
  152.5207  139.1646  157.1322 H   0  0  0  0  0  0  0  0  0  0  0  0
  149.9153  138.4480  156.4522 H   0  0  0  0  0  0  0  0  0  0  0  0
  151.6413  136.3670  156.3567 H   0  0  0  0  0  0  0  0  0  0  0  0
  150.6049  138.4860  153.9746 H   0  0  0  0  0  0  0  0  0  0  0  0
  151.8059  137.2786  154.3523 H   0  0  0  0  0  0  0  0  0  0  0  0
  151.1778  134.9780  154.1941 H   0  0  0  0  0  0  0  0  0  0  0  0
  150.5900  135.1902  155.8319 H   0  0  0  0  0  0  0  0  0  0  0  0
  148.9705  134.1241  153.4460 H   0  0  0  0  0  0  0  0  0  0  0  0
  149.5387  133.1934  154.8182 H   0  0  0  0  0  0  0  0  0  0  0  0
  147.2676  135.7464  153.8005 H   0  0  0  0  0  0  0  0  0  0  0  0
  146.4040  136.0393  156.7363 H   0  0  0  0  0  0  0  0  0  0  0  0
  145.7552  136.9389  155.3910 H   0  0  0  0  0  0  0  0  0  0  0  0
  144.3889  135.6472  153.6124 H   0  0  0  0  0  0  0  0  0  0  0  0
  144.1653  133.9108  153.8583 H   0  0  0  0  0  0  0  0  0  0  0  0
  145.7512  134.5350  153.4252 H   0  0  0  0  0  0  0  0  0  0  0  0
  143.4514  135.9952  156.0381 H   0  0  0  0  0  0  0  0  0  0  0  0
  144.1835  135.0358  157.3294 H   0  0  0  0  0  0  0  0  0  0  0  0
  143.2607  134.2406  156.0681 H   0  0  0  0  0  0  0  0  0  0  0  0
  148.7323  136.9349  156.2318 H   0  0  0  0  0  0  0  0  0  0  0  0
  148.1561  137.8430  154.8449 H   0  0  0  0  0  0  0  0  0  0  0  0
  152.8945  140.2917  158.7866 H   0  0  0  0  0  0  0  0  0  0  0  0
  153.7293  141.0520  160.8471 H   0  0  0  0  0  0  0  0  0  0  0  0
  152.6200  142.0334  161.8001 H   0  0  0  0  0  0  0  0  0  0  0  0
  153.9551  142.7977  160.9244 H   0  0  0  0  0  0  0  0  0  0  0  0
  145.6150  134.0328  155.7230 H   0  0  0  0  0  0  0  0  0  0  0  0
  149.5847  136.5880  153.4602 H   0  0  0  0  0  0  0  0  0  0  0  0
  149.2859  143.0720  155.8854 H   0  0  0  0  0  0  0  0  0  0  0  0
  1  2  1  0  0  0  0
  1 26  1  0  0  0  0
  1 27  1  0  0  0  0
  1 28  1  0  0  0  0
  2 24  1  0  0  0  0
  2  3  2  0  0  0  0
  3  4  1  0  0  0  0
  3 29  1  0  0  0  0
  4 22  2  0  0  0  0
  4  5  1  0  0  0  0
  5  6  2  0  0  0  0
  5 58  1  0  0  0  0
  6  7  1  0  0  0  0
  6 30  1  0  0  0  0
  7  8  1  0  0  0  0
  7 22  1  0  0  0  0
  8  9  1  0  0  0  0
  8 31  1  0  0  0  0
  8 32  1  0  0  0  0
  9 10  1  0  0  0  0
  9 11  1  0  0  0  0
  9 33  1  0  0  0  0
 10 34  1  0  0  0  0
 11 12  1  0  0  0  0
 11 35  1  0  0  0  0
 11 36  1  0  0  0  0
 12 21  1  0  0  0  0
 12 13  1  0  0  0  0
 12 57  1  0  0  0  0
 13 14  1  0  0  0  0
 13 37  1  0  0  0  0
 13 38  1  0  0  0  0
 14 15  1  0  0  0  0
 14 39  1  0  0  0  0
 14 40  1  0  0  0  0
 15 16  1  0  0  0  0
 16 17  1  0  0  0  0
 16 21  1  0  0  0  0
 16 41  1  0  0  0  0
 17 18  1  0  0  0  0
 17 42  1  0  0  0  0
 17 43  1  0  0  0  0
 18 19  1  0  0  0  0
 18 20  1  0  0  0  0
 18 56  1  0  0  0  0
 19 44  1  0  0  0  0
 19 45  1  0  0  0  0
 19 46  1  0  0  0  0
 20 47  1  0  0  0  0
 20 48  1  0  0  0  0
 20 49  1  0  0  0  0
 21 50  1  0  0  0  0
 21 51  1  0  0  0  0
 22 23  1  0  0  0  0
 23 24  2  0  0  0  0
 23 52  1  0  0  0  0
 24 25  1  0  0  0  0
 25 53  1  0  0  0  0
 25 54  1  0  0  0  0
 25 55  1  0  0  0  0
M  CHG  1   5   1
M  CHG  1  12   1
M  CHG  1  18   1
M  END
> <s_m_source_file>
AV-unprocessed.smi

> <i_m_source_file_index>
1005

> <i_lp_mmshare_version>
43012

> <i_f3d_flags>
0

> <s_epik_input>
W0NIM11jKFtjSF0xKWMoW0NIM10pW2NIXWMoYzEyKW4oW2NIXW4yKVtDSDJdW0NASF0oW09IXSlbQ0gyXU4zW0NIMl1bQ0gyXU9bQ0BIXShbQ0gyXTMpW0NIMl1OKFtDSDNdKVtDSDNd

> <s_epik_cmdline>
J2VwaWtfcHl0aG9uJywgJy1waCcsICc3LjAnLCAnLXRuJywgJzgnLCAnLW1hJywgJzIwMCcsICctbWV0YWxfYmluZGluZycsICctaW1hZScsICc8aW5maWxlLm1hZT4nLCAnLW9tYWUnLCAnPG91dGZpbGUubWFlPic=

> <r_epik_Ionization_Penalty>
2.30802

> <r_epik_Ionization_Penalty_Charging>
2.30798

> <r_epik_Ionization_Penalty_Neutral>
3.4851e-05

> <r_epik_State_Penalty>
2.52618

> <r_epik_Charging_Adjusted_Penalty>
4.83416

> <i_epik_Tot_Q>
3

> <i_epik_Tot_abs_Q>
3

> <r_epik_Metal_State_Penalty>
6.53149

> <b_epik_Metal_Only>
0

> <s_lp_Force_Field>
OPLS_2005

> <r_lp_Energy>
43.2014

> <b_lp_Chiralities_Consistent>
1

> <s_lp_Variant>
AV-unprocessed.smi:1005-17

> <Gold.Version>
5.8.1

> <Gold.Id.Protein>
6NUR|6NUR_protein|mol2

> <Gold.PLP.Fitness>
53.0257

> <Gold.PLP.PLP>
-42.5992

> <Gold.PLP.part.hbond>
-2.2025

> <Gold.PLP.part.metal>
0.0000

> <Gold.PLP.part.buried>
-5.5387

> <Gold.PLP.part.nonpolar>
-34.8683

> <Gold.PLP.part.repulsive>
0.1975

> <Gold.PLP.ligand.clash>
0.0000

> <Gold.PLP.ligand.torsion>
0.8675

> <Gold.PLP.Chemscore.Hbond>
4.0000

> <Gold.PLP.Chemscore.CHOScore>
0.0000

> <Gold.PLP.Chemscore.Metal>
0.0000

> <Gold.Chemscore.Hbonds>
donor molecule, donor type, donor heavy atom, donor atom, acceptor molecule, acceptor atom, score
      L1  H     5    58       P1  8028  1.89
      L1  H    12    57       P1  7948  2.00

> <Gold.PLP.Chemscore.Internal.Correction>
0.1616

> <Gold.Rescore>
     Score         DG    S(hbond)    S(metal)    S(lipo)     H(rot)  DE(clash)    DE(int)     intcor
     17.48     -18.66       1.94        0.00     113.26       2.56       0.21       0.96       ----

> <Gold.Chemscore.Fitness>
17.4828

> <Gold.Chemscore.DG>
-18.6577

> <Gold.Chemscore.ZeroCoef>
-5.4800

> <Gold.Chemscore.Hbond>
1.9377

> <Gold.Chemscore.Metal>
0.0000

> <Gold.Chemscore.Lipo>
113.2550

> <Gold.Chemscore.Internal_Hbond>
0.0000

> <Gold.Chemscore.DEClash>
0.2139

> <Gold.Chemscore.DEInternal>
0.9610

> <Gold.Chemscore.Rot>
2.5566

> <Gold.Chemscore.Internal.Correction>
   9.000000E+99

> <Gold.Chemscore.Hbonds>
donor molecule, donor type, donor heavy atom, donor atom, acceptor molecule, acceptor atom, score
      L1  H     5    58       P1  8028  0.91
      L1  H    12    57       P1  7948  0.60

> <Gold.Chemscore.Hbond.Weighted>
-6.4718

> <Gold.Chemscore.Metal.Weighted>
-0.0000

> <Gold.Chemscore.Lipo.Weighted>
-13.2508

> <Gold.Chemscore.Internal_Hbond.Weighted>
0.0000

> <Gold.Chemscore.DEClash.Weighted>
0.2139

> <Gold.Chemscore.DEInternal.Weighted>
0.9610

> <Gold.Chemscore.Rot.Weighted>
6.5450

> <Gold.Chemscore.Internal.Correction.Weighted>
   9.000000E+99

> <Gold.Protein.RotatedTorsions>
[ 6907 6896 6895 6894 ] final   -9.80 input  -60.11 | X-H torsion
[ 7974 7965 7964 7962 ] final    0.75 input  175.53 | X-H torsion
[ 8008 7997 7996 7995 ] final   68.51 input   59.86 | X-H torsion
[ 10167 10162 10161 10158 ] final  139.92 input  -65.29 | X-H torsion
[ 10718 10713 10712 10709 ] final  159.93 input   66.30 | X-H torsion
[ 10763 10752 10751 10750 ] final  -92.95 input  -60.55 | X-H torsion
[ 11005 11000 10999 10996 ] final  -31.12 input  -57.11 | X-H torsion

> <Gold.Protein.ActiveResidues>
 VAL166  LYS551  ARG553  GLY616  TRP617  ASP618  TYR619  PRO620  LYS621  CYS622 
 ASP623  PHE694  ASN695  SER759  ASP760  ASP761  ALA762  ILE779  LEU786  VAL792 
 PHE793  MET794  SER795  GLU796  ALA797  LYS798  CYS799  TRP800  GLU811  SER814 

> <Gold.Protein.RotatedAtoms>
  151.4120  135.0986  159.9587 H   0  0  0  0  0  0  0  0  0  0  0  0  # atno 6907 bound_to 6896
  152.5017  133.8788  159.7346 H   0  0  0  0  0  0  0  0  0  0  0  0  # atno 6908 bound_to 6896
  150.9285  133.6738  159.2844 H   0  0  0  0  0  0  0  0  0  0  0  0  # atno 6909 bound_to 6896
  146.2436  140.1090  142.8344 H   0  0  0  0  0  0  0  0  0  0  0  0  # atno 7974 bound_to 7965
  155.7094  140.3494  155.4967 H   0  0  0  0  0  0  0  0  0  0  0  0  # atno 8008 bound_to 7997
  155.9369  140.1094  157.1109 H   0  0  0  0  0  0  0  0  0  0  0  0  # atno 8009 bound_to 7997
  154.4095  140.1220  156.4862 H   0  0  0  0  0  0  0  0  0  0  0  0  # atno 8010 bound_to 7997
  139.5064  144.6266  151.5923 H   0  0  0  0  0  0  0  0  0  0  0  0  # atno 10167 bound_to 10162
  157.1574  131.0579  151.2250 H   0  0  0  0  0  0  0  0  0  0  0  0  # atno 10718 bound_to 10713
  154.6912  135.5212  153.8395 H   0  0  0  0  0  0  0  0  0  0  0  0  # atno 10763 bound_to 10752
  153.0633  135.6576  154.0421 H   0  0  0  0  0  0  0  0  0  0  0  0  # atno 10764 bound_to 10752
  154.0295  135.2986  155.3350 H   0  0  0  0  0  0  0  0  0  0  0  0  # atno 10765 bound_to 10752
  140.9441  133.7260  156.1120 H   0  0  0  0  0  0  0  0  0  0  0  0  # atno 11005 bound_to 11000
  145.0503  140.9013  143.4999 LP  0  0  0  0  0  0  0  0  0  0  0  0  # atno 17320 bound_to 7965
  145.1187  139.2708  143.5600 LP  0  0  0  0  0  0  0  0  0  0  0  0  # atno 17321 bound_to 7965
  140.5984  143.9654  150.6370 LP  0  0  0  0  0  0  0  0  0  0  0  0  # atno 17342 bound_to 10162
  140.2857  143.3358  152.1109 LP  0  0  0  0  0  0  0  0  0  0  0  0  # atno 17343 bound_to 10162
  157.4165  130.7413  149.6879 LP  0  0  0  0  0  0  0  0  0  0  0  0  # atno 17370 bound_to 10713
  155.9760  130.4082  150.3812 LP  0  0  0  0  0  0  0  0  0  0  0  0  # atno 17371 bound_to 10713
  140.7693  134.3850  157.5511 LP  0  0  0  0  0  0  0  0  0  0  0  0  # atno 17394 bound_to 11000
  139.8828  134.9012  156.2805 LP  0  0  0  0  0  0  0  0  0  0  0  0  # atno 17395 bound_to 11000

$$$$
