AV-unprocessed.smi:3294|AV-procd|sdf|12633|dock4
  -GOLD-   2272018573D 1   1.00000     0.00000
 Structure written by MMmdl.
 37 39  0  0  0  0  0  0  0  0  1 V2000
  151.7064  135.7427  156.1037 C   0  0  0  0  0  0  0  0  0  0  0  0
  151.3884  137.1508  155.6448 C   0  0  0  0  0  0  0  0  0  0  0  0
  151.6466  138.2591  156.4792 C   0  0  0  0  0  0  0  0  0  0  0  0
  151.3303  139.5542  156.0027 C   0  0  0  0  0  0  0  0  0  0  0  0
  151.5592  140.7498  156.7365 N   0  0  0  0  0  0  0  0  0  0  0  0
  152.2558  140.9135  157.8746 C   0  0  0  0  0  0  0  0  0  0  0  0
  152.7991  140.0104  158.5106 O   0  0  0  0  0  0  0  0  0  0  0  0
  152.2695  142.2021  158.2514 N   0  0  0  0  0  0  0  0  0  0  0  0
  152.9178  142.7594  159.4376 C   0  0  0  0  0  0  0  0  0  0  0  0
  152.8750  141.8412  160.6508 C   0  0  0  0  0  0  0  0  0  0  0  0
  153.1970  142.3537  162.0344 C   0  0  0  0  0  0  0  0  0  0  0  0
  154.1431  141.3998  161.3401 C   0  0  0  0  0  0  0  0  0  0  0  0
  152.4399  144.1584  159.7974 C   0  0  0  0  0  0  0  0  0  0  0  0
  151.0002  144.5674  159.5972 C   0  0  0  0  0  0  0  0  0  0  0  0
  152.0843  145.1644  158.7283 C   0  0  0  0  0  0  0  0  0  0  0  0
  150.7965  139.6717  154.7029 C   0  0  0  0  0  0  0  0  0  0  0  0
  150.5765  138.5005  153.9508 C   0  0  0  0  0  0  0  0  0  0  0  0
  150.8613  137.2626  154.4061 N   0  0  0  0  0  0  0  0  0  0  0  0
  152.0461  135.7312  157.1398 H   0  0  0  0  0  0  0  0  0  0  0  0
  152.4914  135.3106  155.4827 H   0  0  0  0  0  0  0  0  0  0  0  0
  150.8217  135.1095  156.0303 H   0  0  0  0  0  0  0  0  0  0  0  0
  152.0886  138.1014  157.4511 H   0  0  0  0  0  0  0  0  0  0  0  0
  151.0930  141.5709  156.3800 H   0  0  0  0  0  0  0  0  0  0  0  0
  151.7867  142.8631  157.6606 H   0  0  0  0  0  0  0  0  0  0  0  0
  153.9670  142.8511  159.1532 H   0  0  0  0  0  0  0  0  0  0  0  0
  152.0805  141.0986  160.6088 H   0  0  0  0  0  0  0  0  0  0  0  0
  153.5172  143.3885  162.1348 H   0  0  0  0  0  0  0  0  0  0  0  0
  152.6068  141.9656  162.8620 H   0  0  0  0  0  0  0  0  0  0  0  0
  154.1843  140.3754  161.7043 H   0  0  0  0  0  0  0  0  0  0  0  0
  155.0855  141.8043  160.9761 H   0  0  0  0  0  0  0  0  0  0  0  0
  152.9299  144.5746  160.6757 H   0  0  0  0  0  0  0  0  0  0  0  0
  150.3268  143.8490  159.1340 H   0  0  0  0  0  0  0  0  0  0  0  0
  150.5508  145.2073  160.3541 H   0  0  0  0  0  0  0  0  0  0  0  0
  152.3584  146.2024  158.9057 H   0  0  0  0  0  0  0  0  0  0  0  0
  152.1253  144.8425  157.6897 H   0  0  0  0  0  0  0  0  0  0  0  0
  150.5521  140.6385  154.2875 H   0  0  0  0  0  0  0  0  0  0  0  0
  150.1622  138.5609  152.9554 H   0  0  0  0  0  0  0  0  0  0  0  0
  1  2  1  0  0  0  0
  1 19  1  0  0  0  0
  1 20  1  0  0  0  0
  1 21  1  0  0  0  0
  2 18  1  0  0  0  0
  2  3  2  0  0  0  0
  3  4  1  0  0  0  0
  3 22  1  0  0  0  0
  4  5  1  0  0  0  0
  4 16  2  0  0  0  0
  5  6  1  0  0  0  0
  5 23  1  0  0  0  0
  6  7  2  0  0  0  0
  6  8  1  0  0  0  0
  8  9  1  0  0  0  0
  8 24  1  0  0  0  0
  9 10  1  0  0  0  0
  9 13  1  0  0  0  0
  9 25  1  0  0  0  0
 10 12  1  0  0  0  0
 10 11  1  0  0  0  0
 10 26  1  0  0  0  0
 11 12  1  0  0  0  0
 11 27  1  0  0  0  0
 11 28  1  0  0  0  0
 12 29  1  0  0  0  0
 12 30  1  0  0  0  0
 13 15  1  0  0  0  0
 13 14  1  0  0  0  0
 13 31  1  0  0  0  0
 14 15  1  0  0  0  0
 14 32  1  0  0  0  0
 14 33  1  0  0  0  0
 15 34  1  0  0  0  0
 15 35  1  0  0  0  0
 16 17  1  0  0  0  0
 16 36  1  0  0  0  0
 17 18  2  0  0  0  0
 17 37  1  0  0  0  0
M  END
> <s_m_source_file>
AV-unprocessed.smi

> <i_m_source_file_index>
3294

> <i_lp_mmshare_version>
43012

> <i_f3d_flags>
0

> <s_epik_input>
W0NIM11jMVtjSF1jKFtjSF1bY0hdbjEpW05IXUMoPU8pW05IXVtDSF0oW0NIXTJbQ0gyXVtDSDJdMilbQ0hdM1tDSDJdW0NIMl0z

> <s_epik_cmdline>
J2VwaWtfcHl0aG9uJywgJy1waCcsICc3LjAnLCAnLXRuJywgJzgnLCAnLW1hJywgJzIwMCcsICctbWV0YWxfYmluZGluZycsICctaW1hZScsICc8aW5maWxlLm1hZT4nLCAnLW9tYWUnLCAnPG91dGZpbGUubWFlPic=

> <r_epik_Ionization_Penalty>
0.389791

> <r_epik_Ionization_Penalty_Charging>
0

> <r_epik_Ionization_Penalty_Neutral>
0.389791

> <r_epik_State_Penalty>
0.388374

> <r_epik_Charging_Adjusted_Penalty>
0.388374

> <i_epik_Tot_Q>
0

> <i_epik_Tot_abs_Q>
0

> <r_epik_Metal_State_Penalty>
0.232337

> <b_epik_Metal_Only>
0

> <s_lp_Force_Field>
OPLS_2005

> <r_lp_Energy>
28.7122

> <b_lp_Chiralities_Consistent>
1

> <s_lp_Variant>
AV-unprocessed.smi:3294-1

> <Gold.Version>
5.8.1

> <Gold.Id.Protein>
6NUR|6NUR_protein|mol2

> <Gold.PLP.Fitness>
43.0844

> <Gold.PLP.PLP>
-39.7954

> <Gold.PLP.part.hbond>
0.0000

> <Gold.PLP.part.metal>
0.0000

> <Gold.PLP.part.buried>
-4.0221

> <Gold.PLP.part.nonpolar>
-35.4420

> <Gold.PLP.part.repulsive>
0.3733

> <Gold.PLP.ligand.clash>
0.0000

> <Gold.PLP.ligand.torsion>
1.7364

> <Gold.PLP.Chemscore.Hbond>
0.0000

> <Gold.PLP.Chemscore.CHOScore>
1.5311

> <Gold.PLP.Chemscore.Metal>
0.0000

> <Gold.Chemscore.Hbonds>
donor molecule, donor type, donor heavy atom, donor atom, acceptor molecule, acceptor atom, score
      P1  H  7997  8010       L1     7  0.09
      L1  C    17    37       P1  7948  0.27
      L1  C    17    37       P1  7957  1.00

> <Gold.PLP.Chemscore.Internal.Correction>
2.1684

> <Gold.Rescore>
     Score         DG    S(hbond)    S(metal)    S(lipo)     H(rot)  DE(clash)    DE(int)     intcor
     12.11     -16.29       0.00        0.00     120.52       1.28       0.11       4.07       ----

> <Gold.Chemscore.Fitness>
12.1144

> <Gold.Chemscore.DG>
-16.2944

> <Gold.Chemscore.ZeroCoef>
-5.4800

> <Gold.Chemscore.Hbond>
0.0000

> <Gold.Chemscore.Metal>
0.0000

> <Gold.Chemscore.Lipo>
120.5195

> <Gold.Chemscore.Internal_Hbond>
0.0000

> <Gold.Chemscore.DEClash>
0.1083

> <Gold.Chemscore.DEInternal>
4.0717

> <Gold.Chemscore.Rot>
1.2837

> <Gold.Chemscore.Internal.Correction>
   9.000000E+99

> <Gold.Chemscore.Hbond.Weighted>
-0.0000

> <Gold.Chemscore.Metal.Weighted>
-0.0000

> <Gold.Chemscore.Lipo.Weighted>
-14.1008

> <Gold.Chemscore.Internal_Hbond.Weighted>
0.0000

> <Gold.Chemscore.DEClash.Weighted>
0.1083

> <Gold.Chemscore.DEInternal.Weighted>
4.0717

> <Gold.Chemscore.Rot.Weighted>
3.2863

> <Gold.Chemscore.Internal.Correction.Weighted>
   9.000000E+99

> <Gold.Protein.RotatedTorsions>
[ 6907 6896 6895 6894 ] final   25.98 input  -60.11 | X-H torsion
[ 7974 7965 7964 7962 ] final  173.83 input  175.53 | X-H torsion
[ 8008 7997 7996 7995 ] final   43.53 input   59.86 | X-H torsion
[ 10167 10162 10161 10158 ] final  110.66 input  -65.29 | X-H torsion
[ 10718 10713 10712 10709 ] final -129.19 input   66.30 | X-H torsion
[ 10763 10752 10751 10750 ] final  145.50 input  -60.55 | X-H torsion
[ 11005 11000 10999 10996 ] final  103.45 input  -57.11 | X-H torsion

> <Gold.Protein.ActiveResidues>
 VAL166  LYS551  ARG553  GLY616  TRP617  ASP618  TYR619  PRO620  LYS621  CYS622 
 ASP623  PHE694  ASN695  SER759  ASP760  ASP761  ALA762  ILE779  LEU786  VAL792 
 PHE793  MET794  SER795  GLU796  ALA797  LYS798  CYS799  TRP800  GLU811  SER814 

> <Gold.Protein.RotatedAtoms>
  151.9807  135.0030  160.0556 H   0  0  0  0  0  0  0  0  0  0  0  0  # atno 6907 bound_to 6896
  152.1699  133.4632  159.4912 H   0  0  0  0  0  0  0  0  0  0  0  0  # atno 6908 bound_to 6896
  150.6900  134.1883  159.4318 H   0  0  0  0  0  0  0  0  0  0  0  0  # atno 6909 bound_to 6896
  144.7235  139.9706  143.6437 H   0  0  0  0  0  0  0  0  0  0  0  0  # atno 7974 bound_to 7965
  155.3042  140.3387  155.4246 H   0  0  0  0  0  0  0  0  0  0  0  0  # atno 8008 bound_to 7997
  156.1987  140.1724  156.7984 H   0  0  0  0  0  0  0  0  0  0  0  0  # atno 8009 bound_to 7997
  154.5531  140.0702  156.8683 H   0  0  0  0  0  0  0  0  0  0  0  0  # atno 8010 bound_to 7997
  139.6671  144.7127  151.1756 H   0  0  0  0  0  0  0  0  0  0  0  0  # atno 10167 bound_to 10162
  156.2023  130.6865  151.0553 H   0  0  0  0  0  0  0  0  0  0  0  0  # atno 10718 bound_to 10713
  154.0064  135.2918  155.3397 H   0  0  0  0  0  0  0  0  0  0  0  0  # atno 10763 bound_to 10752
  154.7129  135.5142  153.8697 H   0  0  0  0  0  0  0  0  0  0  0  0  # atno 10764 bound_to 10752
  153.0743  135.6658  154.0300 H   0  0  0  0  0  0  0  0  0  0  0  0  # atno 10765 bound_to 10752
  139.8784  134.9263  156.5211 H   0  0  0  0  0  0  0  0  0  0  0  0  # atno 11005 bound_to 11000
  146.0565  139.3562  143.0607 LP  0  0  0  0  0  0  0  0  0  0  0  0  # atno 17320 bound_to 7965
  145.8147  140.9708  143.0930 LP  0  0  0  0  0  0  0  0  0  0  0  0  # atno 17321 bound_to 7965
  140.7604  143.5902  150.8804 LP  0  0  0  0  0  0  0  0  0  0  0  0  # atno 17342 bound_to 10162
  139.9564  143.6213  152.3015 LP  0  0  0  0  0  0  0  0  0  0  0  0  # atno 17343 bound_to 10162
  157.6992  131.0782  150.6873 LP  0  0  0  0  0  0  0  0  0  0  0  0  # atno 17370 bound_to 10713
  156.6930  130.4601  149.5594 LP  0  0  0  0  0  0  0  0  0  0  0  0  # atno 17371 bound_to 10713
  140.8450  133.8176  155.9112 LP  0  0  0  0  0  0  0  0  0  0  0  0  # atno 17394 bound_to 11000
  140.9201  134.2153  157.4932 LP  0  0  0  0  0  0  0  0  0  0  0  0  # atno 17395 bound_to 11000

$$$$
