AV-unprocessed.smi:2850|AV-procd|sdf|10969|dock1
  -GOLD-   2272015423D 1   1.00000     0.00000
 Structure written by MMmdl.
 44 45  0  0  0  0  0  0  0  0  1 V2000
  147.2131  136.3880  162.6022 C   0  0  0  0  0  0  0  0  0  0  0  0
  146.6312  136.6964  160.9113 S   0  0  0  0  0  0  0  0  0  0  0  0
  148.0621  136.8888  159.8919 C   0  0  0  0  0  0  0  0  0  0  0  0
  147.9325  137.0938  158.5065 C   0  0  0  0  0  0  0  0  0  0  0  0
  149.1203  137.2369  157.7684 C   0  0  0  0  0  0  0  0  0  0  0  0
  150.3407  137.1658  158.4703 C   0  0  0  0  0  0  0  0  0  0  0  0
  151.5400  137.3037  157.7594 N   0  0  0  0  0  0  0  0  0  0  0  0
  152.4950  138.3459  158.1089 C   0  0  0  0  0  0  0  0  0  0  0  0
  152.2070  139.6519  157.3568 C   0  0  2  0  0  0  0  0  0  0  0  0
  151.6797  140.7489  158.3024 C   0  0  0  0  0  0  0  0  0  0  0  0
  151.3302  141.9723  157.5879 N   0  0  0  0  0  0  0  0  0  0  0  0
  150.8485  142.9982  158.5150 C   0  0  0  0  0  0  0  0  0  0  0  0
  151.9304  143.9111  159.1318 C   0  0  0  0  0  0  0  0  0  0  0  0
  151.3348  144.8880  160.1589 C   0  0  0  0  0  0  0  0  0  0  0  0
  152.6755  144.6787  158.0302 C   0  0  0  0  0  0  0  0  0  0  0  0
  150.3579  141.6494  156.5463 C   0  0  0  0  0  0  0  0  0  0  0  0
  150.8706  140.5447  155.6074 C   0  0  0  0  0  0  0  0  0  0  0  0
  151.2125  139.3919  156.3688 O   0  0  0  0  0  0  0  0  0  0  0  0
  150.3866  136.9641  159.8121 N   0  0  0  0  0  0  0  0  0  0  0  0
  149.2588  136.8272  160.5186 N   0  0  0  0  0  0  0  0  0  0  0  0
  146.3640  136.2604  163.2735 H   0  0  0  0  0  0  0  0  0  0  0  0
  147.8117  137.2259  162.9597 H   0  0  0  0  0  0  0  0  0  0  0  0
  147.8197  135.4829  162.6384 H   0  0  0  0  0  0  0  0  0  0  0  0
  146.9647  137.1391  158.0292 H   0  0  0  0  0  0  0  0  0  0  0  0
  149.0930  137.3958  156.7005 H   0  0  0  0  0  0  0  0  0  0  0  0
  151.6937  136.7646  156.9197 H   0  0  0  0  0  0  0  0  0  0  0  0
  152.4759  138.5202  159.1855 H   0  0  0  0  0  0  0  0  0  0  0  0
  153.4962  137.9942  157.8562 H   0  0  0  0  0  0  0  0  0  0  0  0
  153.1208  140.0017  156.8725 H   0  0  0  0  0  0  0  0  0  0  0  0
  150.8073  140.3750  158.8412 H   0  0  0  0  0  0  0  0  0  0  0  0
  152.4384  140.9678  159.0547 H   0  0  0  0  0  0  0  0  0  0  0  0
  150.1036  143.6146  158.0092 H   0  0  0  0  0  0  0  0  0  0  0  0
  150.3187  142.5122  159.3357 H   0  0  0  0  0  0  0  0  0  0  0  0
  152.6736  143.2974  159.6396 H   0  0  0  0  0  0  0  0  0  0  0  0
  150.5810  145.5311  159.7037 H   0  0  0  0  0  0  0  0  0  0  0  0
  152.1067  145.5296  160.5848 H   0  0  0  0  0  0  0  0  0  0  0  0
  150.8627  144.3559  160.9851 H   0  0  0  0  0  0  0  0  0  0  0  0
  152.0012  145.3339  157.4779 H   0  0  0  0  0  0  0  0  0  0  0  0
  153.1341  143.9946  157.3159 H   0  0  0  0  0  0  0  0  0  0  0  0
  153.4702  145.2965  158.4494 H   0  0  0  0  0  0  0  0  0  0  0  0
  149.4197  141.3292  157.0022 H   0  0  0  0  0  0  0  0  0  0  0  0
  150.1323  142.5315  155.9488 H   0  0  0  0  0  0  0  0  0  0  0  0
  150.1025  140.2776  154.8814 H   0  0  0  0  0  0  0  0  0  0  0  0
  151.7395  140.8881  155.0439 H   0  0  0  0  0  0  0  0  0  0  0  0
  1  2  1  0  0  0  0
  1 21  1  0  0  0  0
  1 22  1  0  0  0  0
  1 23  1  0  0  0  0
  2  3  1  0  0  0  0
  3 20  1  0  0  0  0
  3  4  2  0  0  0  0
  4  5  1  0  0  0  0
  4 24  1  0  0  0  0
  5  6  2  0  0  0  0
  5 25  1  0  0  0  0
  6  7  1  0  0  0  0
  6 19  1  0  0  0  0
  7  8  1  0  0  0  0
  7 26  1  0  0  0  0
  8  9  1  0  0  0  0
  8 27  1  0  0  0  0
  8 28  1  0  0  0  0
  9 18  1  0  0  0  0
  9 10  1  0  0  0  0
  9 29  1  0  0  0  0
 10 11  1  0  0  0  0
 10 30  1  0  0  0  0
 10 31  1  0  0  0  0
 11 12  1  0  0  0  0
 11 16  1  0  0  0  0
 12 13  1  0  0  0  0
 12 32  1  0  0  0  0
 12 33  1  0  0  0  0
 13 14  1  0  0  0  0
 13 15  1  0  0  0  0
 13 34  1  0  0  0  0
 14 35  1  0  0  0  0
 14 36  1  0  0  0  0
 14 37  1  0  0  0  0
 15 38  1  0  0  0  0
 15 39  1  0  0  0  0
 15 40  1  0  0  0  0
 16 17  1  0  0  0  0
 16 41  1  0  0  0  0
 16 42  1  0  0  0  0
 17 18  1  0  0  0  0
 17 43  1  0  0  0  0
 17 44  1  0  0  0  0
 19 20  2  0  0  0  0
M  END
> <s_m_source_file>
AV-unprocessed.smi

> <i_m_source_file_index>
2850

> <i_lp_mmshare_version>
43012

> <i_f3d_flags>
0

> <s_epik_input>
W0NIM11TYzFbY0hdW2NIXWMobm4xKVtOSF1bQ0gyXVtDQEBIXTJbQ0gyXU4oW0NIMl1bQ0gyXU8yKVtDSDJdW0NIXShbQ0gzXSlbQ0gzXQ==

> <s_epik_cmdline>
J2VwaWtfcHl0aG9uJywgJy1waCcsICc3LjAnLCAnLXRuJywgJzgnLCAnLW1hJywgJzIwMCcsICctbWV0YWxfYmluZGluZycsICctaW1hZScsICc8aW5maWxlLm1hZT4nLCAnLW9tYWUnLCAnPG91dGZpbGUubWFlPic=

> <r_lp_tautomer_probability>
0.999978

> <r_epik_Ionization_Penalty>
1.20939

> <r_epik_Ionization_Penalty_Charging>
0

> <r_epik_Ionization_Penalty_Neutral>
1.20939

> <r_epik_State_Penalty>
1.27042

> <r_epik_Charging_Adjusted_Penalty>
1.27042

> <i_epik_Tot_Q>
0

> <i_epik_Tot_abs_Q>
0

> <r_epik_Metal_State_Penalty>
1.26998

> <b_epik_Metal_Only>
0

> <s_lp_Force_Field>
OPLS_2005

> <r_lp_Energy>
30.5151

> <b_lp_Chiralities_Consistent>
1

> <s_lp_Variant>
AV-unprocessed.smi:2850-5

> <Gold.Version>
5.8.1

> <Gold.Id.Protein>
6NUR|6NUR_protein|mol2

> <Gold.PLP.Fitness>
37.9916

> <Gold.PLP.PLP>
-36.4459

> <Gold.PLP.part.hbond>
-2.3112

> <Gold.PLP.part.metal>
0.0000

> <Gold.PLP.part.buried>
-4.9750

> <Gold.PLP.part.nonpolar>
-29.8748

> <Gold.PLP.part.repulsive>
0.1241

> <Gold.PLP.ligand.clash>
0.0000

> <Gold.PLP.ligand.torsion>
1.7983

> <Gold.PLP.Chemscore.Hbond>
1.6633

> <Gold.PLP.Chemscore.CHOScore>
0.0000

> <Gold.PLP.Chemscore.Metal>
0.0000

> <Gold.Chemscore.Hbonds>
donor molecule, donor type, donor heavy atom, donor atom, acceptor molecule, acceptor atom, score
      P1  H  6896  6907       L1    19  1.00
      P1  H  6931  6943       L1    20  0.69

> <Gold.PLP.Chemscore.Internal.Correction>
0.1526

> <Gold.Rescore>
     Score         DG    S(hbond)    S(metal)    S(lipo)     H(rot)  DE(clash)    DE(int)     intcor
     13.41     -15.46       0.68        0.00      99.69       1.55       0.15       1.90       ----

> <Gold.Chemscore.Fitness>
13.4116

> <Gold.Chemscore.DG>
-15.4592

> <Gold.Chemscore.ZeroCoef>
-5.4800

> <Gold.Chemscore.Hbond>
0.6816

> <Gold.Chemscore.Metal>
0.0000

> <Gold.Chemscore.Lipo>
99.6901

> <Gold.Chemscore.Internal_Hbond>
0.0000

> <Gold.Chemscore.DEClash>
0.1455

> <Gold.Chemscore.DEInternal>
1.9021

> <Gold.Chemscore.Rot>
1.5473

> <Gold.Chemscore.Internal.Correction>
   9.000000E+99

> <Gold.Chemscore.Hbonds>
donor molecule, donor type, donor heavy atom, donor atom, acceptor molecule, acceptor atom, score
      P1  H  6896  6907       L1    19  0.08
      P1  H  6931  6943       L1    20  0.18

> <Gold.Chemscore.Hbond.Weighted>
-2.2764

> <Gold.Chemscore.Metal.Weighted>
-0.0000

> <Gold.Chemscore.Lipo.Weighted>
-11.6637

> <Gold.Chemscore.Internal_Hbond.Weighted>
0.0000

> <Gold.Chemscore.DEClash.Weighted>
0.1455

> <Gold.Chemscore.DEInternal.Weighted>
1.9021

> <Gold.Chemscore.Rot.Weighted>
3.9610

> <Gold.Chemscore.Internal.Correction.Weighted>
   9.000000E+99

> <Gold.Protein.RotatedTorsions>
[ 6907 6896 6895 6894 ] final  -26.38 input  -60.11 | X-H torsion
[ 7974 7965 7964 7962 ] final -109.12 input  175.53 | X-H torsion
[ 8008 7997 7996 7995 ] final   47.74 input   59.86 | X-H torsion
[ 10167 10162 10161 10158 ] final  176.34 input  -65.29 | X-H torsion
[ 10718 10713 10712 10709 ] final  -68.18 input   66.30 | X-H torsion
[ 10763 10752 10751 10750 ] final    3.02 input  -60.55 | X-H torsion
[ 11005 11000 10999 10996 ] final -144.48 input  -57.11 | X-H torsion

> <Gold.Protein.ActiveResidues>
 VAL166  LYS551  ARG553  GLY616  TRP617  ASP618  TYR619  PRO620  LYS621  CYS622 
 ASP623  PHE694  ASN695  SER759  ASP760  ASP761  ALA762  ILE779  LEU786  VAL792 
 PHE793  MET794  SER795  GLU796  ALA797  LYS798  CYS799  TRP800  GLU811  SER814 

> <Gold.Protein.RotatedAtoms>
  151.1618  135.0277  159.8713 H   0  0  0  0  0  0  0  0  0  0  0  0  # atno 6907 bound_to 6896
  152.5451  134.1271  159.8433 H   0  0  0  0  0  0  0  0  0  0  0  0  # atno 6908 bound_to 6896
  151.1367  133.4953  159.2630 H   0  0  0  0  0  0  0  0  0  0  0  0  # atno 6909 bound_to 6896
  145.1844  140.8986  143.3461 H   0  0  0  0  0  0  0  0  0  0  0  0  # atno 7974 bound_to 7965
  155.3740  140.3425  155.4244 H   0  0  0  0  0  0  0  0  0  0  0  0  # atno 8008 bound_to 7997
  156.1647  140.1612  156.8586 H   0  0  0  0  0  0  0  0  0  0  0  0  # atno 8009 bound_to 7997
  154.5173  140.0775  156.8087 H   0  0  0  0  0  0  0  0  0  0  0  0  # atno 8010 bound_to 7997
  139.5211  144.2927  152.0449 H   0  0  0  0  0  0  0  0  0  0  0  0  # atno 10167 bound_to 10162
  156.0518  130.4290  150.1963 H   0  0  0  0  0  0  0  0  0  0  0  0  # atno 10718 bound_to 10713
  153.2884  135.6946  153.7317 H   0  0  0  0  0  0  0  0  0  0  0  0  # atno 10763 bound_to 10752
  153.6277  135.3415  155.3032 H   0  0  0  0  0  0  0  0  0  0  0  0  # atno 10764 bound_to 10752
  154.8516  135.4401  154.1959 H   0  0  0  0  0  0  0  0  0  0  0  0  # atno 10765 bound_to 10752
  140.8020  134.2846  157.4975 H   0  0  0  0  0  0  0  0  0  0  0  0  # atno 11005 bound_to 11000
  145.0103  139.3516  143.6123 LP  0  0  0  0  0  0  0  0  0  0  0  0  # atno 17320 bound_to 7965
  146.3447  139.9363  142.8747 LP  0  0  0  0  0  0  0  0  0  0  0  0  # atno 17321 bound_to 7965
  140.2377  144.4302  150.6273 LP  0  0  0  0  0  0  0  0  0  0  0  0  # atno 17342 bound_to 10162
  140.6312  143.2188  151.6492 LP  0  0  0  0  0  0  0  0  0  0  0  0  # atno 17343 bound_to 10162
  157.0045  130.9932  151.3382 LP  0  0  0  0  0  0  0  0  0  0  0  0  # atno 17370 bound_to 10713
  157.5452  130.8146  149.8077 LP  0  0  0  0  0  0  0  0  0  0  0  0  # atno 17371 bound_to 10713
  139.8721  134.9435  156.3854 LP  0  0  0  0  0  0  0  0  0  0  0  0  # atno 17394 bound_to 11000
  140.9285  133.7595  155.9995 LP  0  0  0  0  0  0  0  0  0  0  0  0  # atno 17395 bound_to 11000

$$$$
