AV-unprocessed.smi:1988|AV-procd|sdf|8059|dock8
  -GOLD-   2272010263D 1   1.00000     0.00000
 Structure written by MMmdl.
 37 38  0  0  0  0  0  0  0  0  1 V2000
  152.2731  131.2472  156.6622 C   0  0  0  0  0  0  0  0  0  0  0  0
  151.1467  131.0111  155.6973 C   0  0  0  0  0  0  0  0  0  0  0  0
  151.2161  129.9992  154.8489 N   0  0  0  0  0  0  0  0  0  0  0  0
  150.0354  130.0444  154.1016 O   0  0  0  0  0  0  0  0  0  0  0  0
  149.2922  131.0939  154.5348 C   0  0  0  0  0  0  0  0  0  0  0  0
  147.9837  131.3091  153.8524 C   0  0  0  0  0  0  0  0  0  0  0  0
  149.9385  131.7510  155.5462 C   0  0  0  0  0  0  0  0  0  0  0  0
  149.4912  132.9637  156.3226 C   0  0  0  0  0  0  0  0  0  0  0  0
  149.3529  132.6150  157.8051 C   0  0  0  0  0  0  0  0  0  0  0  0
  150.3138  132.1547  158.4206 O   0  0  0  0  0  0  0  0  0  0  0  0
  148.1508  132.8315  158.3619 N   0  0  0  0  0  0  0  0  0  0  0  0
  147.8024  132.5838  159.7572 C   0  0  0  0  0  0  0  0  0  0  0  0
  147.1623  133.8166  160.4248 C   0  0  1  0  0  0  0  0  0  0  0  0
  146.9642  133.6736  161.9493 C   0  0  0  0  0  0  0  0  0  0  0  0
  146.6053  135.0447  162.5307 C   0  0  0  0  0  0  0  0  0  0  0  0
  147.5098  136.2669  161.5113 S   0  0  0  0  0  0  0  0  0  0  0  0
  146.5526  137.2510  160.9833 O   0  0  0  0  0  0  0  0  0  0  0  0
  148.7243  136.6967  162.2207 O   0  0  0  0  0  0  0  0  0  0  0  0
  147.9800  135.0953  160.1826 C   0  0  0  0  0  0  0  0  0  0  0  0
  152.4848  132.3114  156.7654 H   0  0  0  0  0  0  0  0  0  0  0  0
  153.1927  130.7600  156.3359 H   0  0  0  0  0  0  0  0  0  0  0  0
  152.0246  130.8607  157.6506 H   0  0  0  0  0  0  0  0  0  0  0  0
  147.6388  132.3352  153.9799 H   0  0  0  0  0  0  0  0  0  0  0  0
  147.2232  130.6434  154.2604 H   0  0  0  0  0  0  0  0  0  0  0  0
  148.0667  131.1136  152.7831 H   0  0  0  0  0  0  0  0  0  0  0  0
  150.1961  133.7893  156.2184 H   0  0  0  0  0  0  0  0  0  0  0  0
  148.5353  133.3369  155.9529 H   0  0  0  0  0  0  0  0  0  0  0  0
  147.4238  133.2140  157.7749 H   0  0  0  0  0  0  0  0  0  0  0  0
  147.1487  131.7148  159.8492 H   0  0  0  0  0  0  0  0  0  0  0  0
  148.7231  132.3253  160.2809 H   0  0  0  0  0  0  0  0  0  0  0  0
  146.1773  133.9752  159.9831 H   0  0  0  0  0  0  0  0  0  0  0  0
  146.2019  132.9341  162.1954 H   0  0  0  0  0  0  0  0  0  0  0  0
  147.8966  133.3317  162.4005 H   0  0  0  0  0  0  0  0  0  0  0  0
  145.5382  135.2424  162.4267 H   0  0  0  0  0  0  0  0  0  0  0  0
  146.8802  135.1491  163.5805 H   0  0  0  0  0  0  0  0  0  0  0  0
  149.0489  134.9013  160.2768 H   0  0  0  0  0  0  0  0  0  0  0  0
  147.7946  135.5406  159.2051 H   0  0  0  0  0  0  0  0  0  0  0  0
  1  2  1  0  0  0  0
  1 20  1  0  0  0  0
  1 21  1  0  0  0  0
  1 22  1  0  0  0  0
  2  7  1  0  0  0  0
  2  3  2  0  0  0  0
  3  4  1  0  0  0  0
  4  5  1  0  0  0  0
  5  6  1  0  0  0  0
  5  7  2  0  0  0  0
  6 23  1  0  0  0  0
  6 24  1  0  0  0  0
  6 25  1  0  0  0  0
  7  8  1  0  0  0  0
  8  9  1  0  0  0  0
  8 26  1  0  0  0  0
  8 27  1  0  0  0  0
  9 10  2  0  0  0  0
  9 11  1  0  0  0  0
 11 12  1  0  0  0  0
 11 28  1  0  0  0  0
 12 13  1  0  0  0  0
 12 29  1  0  0  0  0
 12 30  1  0  0  0  0
 13 19  1  0  0  0  0
 13 14  1  0  0  0  0
 13 31  1  0  0  0  0
 14 15  1  0  0  0  0
 14 32  1  0  0  0  0
 14 33  1  0  0  0  0
 15 16  1  0  0  0  0
 15 34  1  0  0  0  0
 15 35  1  0  0  0  0
 16 17  2  0  0  0  0
 16 18  2  0  0  0  0
 16 19  1  0  0  0  0
 19 36  1  0  0  0  0
 19 37  1  0  0  0  0
M  END
> <s_m_source_file>
AV-unprocessed.smi

> <i_m_source_file_index>
1988

> <i_lp_mmshare_version>
43012

> <i_f3d_flags>
0

> <s_epik_input>
W0NIM11jMW5vYyhbQ0gzXSljMVtDSDJdQyg9TylbTkhdW0NIMl1bQ0BASF0oW0NIMl0yKVtDSDJdW0NIMl1TMig9Tyk9Tw==

> <s_epik_cmdline>
J2VwaWtfcHl0aG9uJywgJy1waCcsICc3LjAnLCAnLXRuJywgJzgnLCAnLW1hJywgJzIwMCcsICctbWV0YWxfYmluZGluZycsICctaW1hZScsICc8aW5maWxlLm1hZT4nLCAnLW9tYWUnLCAnPG91dGZpbGUubWFlPic=

> <r_lp_tautomer_probability>
1

> <r_epik_Ionization_Penalty>
2.7503e-08

> <r_epik_Ionization_Penalty_Charging>
0

> <r_epik_Ionization_Penalty_Neutral>
2.7503e-08

> <r_epik_State_Penalty>
-0

> <r_epik_Charging_Adjusted_Penalty>
0

> <i_epik_Tot_Q>
0

> <i_epik_Tot_abs_Q>
0

> <r_epik_Metal_State_Penalty>
-0

> <b_epik_Metal_Only>
0

> <s_lp_Force_Field>
OPLS_2005

> <r_lp_Energy>
-1.59396

> <b_lp_Chiralities_Consistent>
1

> <s_lp_Variant>
AV-unprocessed.smi:1988-2

> <Gold.Version>
5.8.1

> <Gold.Id.Protein>
6NUR|6NUR_protein|mol2

> <Gold.PLP.Fitness>
35.2665

> <Gold.PLP.PLP>
-26.4261

> <Gold.PLP.part.hbond>
-2.9819

> <Gold.PLP.part.metal>
0.0000

> <Gold.PLP.part.buried>
-1.4902

> <Gold.PLP.part.nonpolar>
-22.1434

> <Gold.PLP.part.repulsive>
0.2211

> <Gold.PLP.ligand.clash>
0.0000

> <Gold.PLP.ligand.torsion>
0.0862

> <Gold.PLP.Chemscore.Hbond>
3.0000

> <Gold.PLP.Chemscore.CHOScore>
0.0000

> <Gold.PLP.Chemscore.Metal>
0.0000

> <Gold.Chemscore.Hbonds>
donor molecule, donor type, donor heavy atom, donor atom, acceptor molecule, acceptor atom, score
      P1  H  6896  6908       L1    10  1.00
      P1  H  6931  6943       L1    18  1.00
      P1  H  6934  6947       L1    17  1.00

> <Gold.PLP.Chemscore.Internal.Correction>
0.0128

> <Gold.Rescore>
     Score         DG    S(hbond)    S(metal)    S(lipo)     H(rot)  DE(clash)    DE(int)     intcor
     15.79     -16.95       2.72        0.00      57.37       1.70       0.03       1.13       ----

> <Gold.Chemscore.Fitness>
15.7930

> <Gold.Chemscore.DG>
-16.9514

> <Gold.Chemscore.ZeroCoef>
-5.4800

> <Gold.Chemscore.Hbond>
2.7247

> <Gold.Chemscore.Metal>
0.0000

> <Gold.Chemscore.Lipo>
57.3697

> <Gold.Chemscore.Internal_Hbond>
0.0000

> <Gold.Chemscore.DEClash>
0.0270

> <Gold.Chemscore.DEInternal>
1.1314

> <Gold.Chemscore.Rot>
1.6958

> <Gold.Chemscore.Internal.Correction>
   9.000000E+99

> <Gold.Chemscore.Hbonds>
donor molecule, donor type, donor heavy atom, donor atom, acceptor molecule, acceptor atom, score
      P1  H  6896  6908       L1    10  0.90
      P1  H  6931  6943       L1    18  0.81
      P1  H  6934  6947       L1    17  0.93

> <Gold.Chemscore.Hbond.Weighted>
-9.1004

> <Gold.Chemscore.Metal.Weighted>
-0.0000

> <Gold.Chemscore.Lipo.Weighted>
-6.7123

> <Gold.Chemscore.Internal_Hbond.Weighted>
0.0000

> <Gold.Chemscore.DEClash.Weighted>
0.0270

> <Gold.Chemscore.DEInternal.Weighted>
1.1314

> <Gold.Chemscore.Rot.Weighted>
4.3413

> <Gold.Chemscore.Internal.Correction.Weighted>
   9.000000E+99

> <Gold.Protein.RotatedTorsions>
[ 6907 6896 6895 6894 ] final   77.66 input  -60.11 | X-H torsion
[ 7974 7965 7964 7962 ] final  -93.15 input  175.53 | X-H torsion
[ 8008 7997 7996 7995 ] final  -14.33 input   59.86 | X-H torsion
[ 10167 10162 10161 10158 ] final  -77.66 input  -65.29 | X-H torsion
[ 10718 10713 10712 10709 ] final   29.21 input   66.30 | X-H torsion
[ 10763 10752 10751 10750 ] final   45.92 input  -60.55 | X-H torsion
[ 11005 11000 10999 10996 ] final  102.88 input  -57.11 | X-H torsion

> <Gold.Protein.ActiveResidues>
 VAL166  LYS551  ARG553  GLY616  TRP617  ASP618  TYR619  PRO620  LYS621  CYS622 
 ASP623  PHE694  ASN695  SER759  ASP760  ASP761  ALA762  ILE779  LEU786  VAL792 
 PHE793  MET794  SER795  GLU796  ALA797  LYS798  CYS799  TRP800  GLU811  SER814 

> <Gold.Protein.RotatedAtoms>
  152.5127  134.3783  159.9341 H   0  0  0  0  0  0  0  0  0  0  0  0  # atno 6907 bound_to 6896
  151.3739  133.3839  159.2710 H   0  0  0  0  0  0  0  0  0  0  0  0  # atno 6908 bound_to 6896
  150.9556  134.8971  159.7758 H   0  0  0  0  0  0  0  0  0  0  0  0  # atno 6909 bound_to 6896
  145.3903  140.9527  143.2344 H   0  0  0  0  0  0  0  0  0  0  0  0  # atno 7974 bound_to 7965
  154.5219  140.2226  155.8960 H   0  0  0  0  0  0  0  0  0  0  0  0  # atno 8008 bound_to 7997
  156.1671  140.3130  155.8873 H   0  0  0  0  0  0  0  0  0  0  0  0  # atno 8009 bound_to 7997
  155.3633  140.0462  157.3037 H   0  0  0  0  0  0  0  0  0  0  0  0  # atno 8010 bound_to 7997
  140.4750  143.2416  151.8146 H   0  0  0  0  0  0  0  0  0  0  0  0  # atno 10167 bound_to 10162
  157.2435  130.7081  149.6370 H   0  0  0  0  0  0  0  0  0  0  0  0  # atno 10718 bound_to 10713
  152.9817  135.6024  154.3515 H   0  0  0  0  0  0  0  0  0  0  0  0  # atno 10763 bound_to 10752
  154.3204  135.2770  155.2524 H   0  0  0  0  0  0  0  0  0  0  0  0  # atno 10764 bound_to 10752
  154.4693  135.5946  153.6366 H   0  0  0  0  0  0  0  0  0  0  0  0  # atno 10765 bound_to 10752
  139.8780  134.9241  156.5125 H   0  0  0  0  0  0  0  0  0  0  0  0  # atno 11005 bound_to 11000
  144.8445  139.5419  143.6885 LP  0  0  0  0  0  0  0  0  0  0  0  0  # atno 17320 bound_to 7965
  146.2800  139.6853  142.9235 LP  0  0  0  0  0  0  0  0  0  0  0  0  # atno 17321 bound_to 7965
  139.4824  144.4844  151.9266 LP  0  0  0  0  0  0  0  0  0  0  0  0  # atno 17342 bound_to 10162
  140.3929  144.2592  150.5898 LP  0  0  0  0  0  0  0  0  0  0  0  0  # atno 17343 bound_to 10162
  155.9669  130.4450  150.5485 LP  0  0  0  0  0  0  0  0  0  0  0  0  # atno 17370 bound_to 10713
  157.3353  131.0707  151.1830 LP  0  0  0  0  0  0  0  0  0  0  0  0  # atno 17371 bound_to 10713
  140.8510  133.8132  155.9168 LP  0  0  0  0  0  0  0  0  0  0  0  0  # atno 17394 bound_to 11000
  140.9144  134.2220  157.4966 LP  0  0  0  0  0  0  0  0  0  0  0  0  # atno 17395 bound_to 11000

$$$$
