AV-unprocessed.smi:2671|AV-procd|sdf|10353|dock2
  -GOLD-   2272014373D 1   1.00000     0.00000
 Structure written by MMmdl.
 29 30  0  0  0  0  0  0  0  0  1 V2000
  150.2705  138.2459  153.4174 O   0  0  0  0  0  0  0  0  0  0  0  0
  150.9335  138.7280  154.5071 C   0  0  0  0  0  0  0  0  0  0  0  0
  151.7842  137.8767  155.2424 C   0  0  0  0  0  0  0  0  0  0  0  0
  152.4380  138.4468  156.3590 C   0  0  0  0  0  0  0  0  0  0  0  0
  153.3841  137.6443  157.2390 C   0  0  0  0  0  0  0  0  0  0  0  0
  153.6680  138.3363  158.3427 F   0  0  0  0  0  0  0  0  0  0  0  0
  152.8475  136.4772  157.5982 F   0  0  0  0  0  0  0  0  0  0  0  0
  154.5161  137.4034  156.5780 F   0  0  0  0  0  0  0  0  0  0  0  0
  152.2527  139.7432  156.6982 N   0  0  0  0  0  0  0  0  0  0  0  0
  151.4255  140.4523  155.9290 C   0  0  0  0  0  0  0  0  0  0  0  0
  151.2110  142.1557  156.4194 S   0  0  0  0  0  0  0  0  0  0  0  0
  151.0315  142.0395  158.2258 C   0  0  0  0  0  0  0  0  0  0  0  0
  151.8463  143.1202  158.9489 C   0  0  1  0  0  0  0  0  0  0  0  0
  151.6107  144.5444  158.4429 C   0  0  0  0  0  0  0  0  0  0  0  0
  151.9022  145.4145  159.6569 C   0  0  0  0  0  0  0  0  0  0  0  0
  151.9845  144.4223  160.8199 C   0  0  0  0  0  0  0  0  0  0  0  0
  151.4490  143.2111  160.3071 O   0  0  0  0  0  0  0  0  0  0  0  0
  150.7569  140.0202  154.8565 N   0  0  0  0  0  0  0  0  0  0  0  0
  150.3061  138.8284  152.6748 H   0  0  0  0  0  0  0  0  0  0  0  0
  151.9252  136.8433  154.9623 H   0  0  0  0  0  0  0  0  0  0  0  0
  149.9775  142.1204  158.4935 H   0  0  0  0  0  0  0  0  0  0  0  0
  151.3717  141.0549  158.5477 H   0  0  0  0  0  0  0  0  0  0  0  0
  152.9105  142.8791  158.9144 H   0  0  0  0  0  0  0  0  0  0  0  0
  152.2371  144.7916  157.5853 H   0  0  0  0  0  0  0  0  0  0  0  0
  150.5694  144.6741  158.1447 H   0  0  0  0  0  0  0  0  0  0  0  0
  152.8388  145.9622  159.5474 H   0  0  0  0  0  0  0  0  0  0  0  0
  151.1037  146.1416  159.8084 H   0  0  0  0  0  0  0  0  0  0  0  0
  153.0228  144.2590  161.1119 H   0  0  0  0  0  0  0  0  0  0  0  0
  151.4331  144.7577  161.6986 H   0  0  0  0  0  0  0  0  0  0  0  0
  1  2  1  0  0  0  0
  1 19  1  0  0  0  0
  2 18  1  0  0  0  0
  2  3  2  0  0  0  0
  3  4  1  0  0  0  0
  3 20  1  0  0  0  0
  4  5  1  0  0  0  0
  4  9  2  0  0  0  0
  5  6  1  0  0  0  0
  5  7  1  0  0  0  0
  5  8  1  0  0  0  0
  9 10  1  0  0  0  0
 10 11  1  0  0  0  0
 10 18  2  0  0  0  0
 11 12  1  0  0  0  0
 12 13  1  0  0  0  0
 12 21  1  0  0  0  0
 12 22  1  0  0  0  0
 13 17  1  0  0  0  0
 13 14  1  0  0  0  0
 13 23  1  0  0  0  0
 14 15  1  0  0  0  0
 14 24  1  0  0  0  0
 14 25  1  0  0  0  0
 15 16  1  0  0  0  0
 15 26  1  0  0  0  0
 15 27  1  0  0  0  0
 16 17  1  0  0  0  0
 16 28  1  0  0  0  0
 16 29  1  0  0  0  0
M  END
> <s_m_source_file>
AV-unprocessed.smi

> <i_m_source_file_index>
2671

> <i_lp_mmshare_version>
43012

> <i_f3d_flags>
0

> <s_epik_input>
W09IXWMxW2NIXWMoQyhGKShGKUYpbmMobjEpU1tDSDJdW0NAQEhdMltDSDJdW0NIMl1bQ0gyXU8y

> <s_epik_cmdline>
J2VwaWtfcHl0aG9uJywgJy1waCcsICc3LjAnLCAnLXRuJywgJzgnLCAnLW1hJywgJzIwMCcsICctbWV0YWxfYmluZGluZycsICctaW1hZScsICc8aW5maWxlLm1hZT4nLCAnLW9tYWUnLCAnPG91dGZpbGUubWFlPic=

> <r_lp_tautomer_probability>
0.0660145

> <r_epik_Ionization_Penalty>
3.60098

> <r_epik_Ionization_Penalty_Charging>
0

> <r_epik_Ionization_Penalty_Neutral>
3.60098

> <r_epik_State_Penalty>
2.71709

> <r_epik_Charging_Adjusted_Penalty>
2.71709

> <i_epik_Tot_Q>
0

> <i_epik_Tot_abs_Q>
0

> <r_epik_Metal_State_Penalty>
3.44057

> <b_epik_Metal_Only>
0

> <s_lp_Force_Field>
OPLS_2005

> <r_lp_Energy>
10.3894

> <b_lp_Chiralities_Consistent>
1

> <s_lp_Variant>
AV-unprocessed.smi:2671-8

> <Gold.Version>
5.8.1

> <Gold.Id.Protein>
6NUR|6NUR_protein|mol2

> <Gold.PLP.Fitness>
40.9290

> <Gold.PLP.PLP>
-35.5941

> <Gold.PLP.part.hbond>
-5.1463

> <Gold.PLP.part.metal>
0.0000

> <Gold.PLP.part.buried>
-2.9972

> <Gold.PLP.part.nonpolar>
-27.9733

> <Gold.PLP.part.repulsive>
0.1173

> <Gold.PLP.ligand.clash>
0.0000

> <Gold.PLP.ligand.torsion>
0.9491

> <Gold.PLP.Chemscore.Hbond>
2.4062

> <Gold.PLP.Chemscore.CHOScore>
0.0000

> <Gold.PLP.Chemscore.Metal>
0.0000

> <Gold.Chemscore.Hbonds>
donor molecule, donor type, donor heavy atom, donor atom, acceptor molecule, acceptor atom, score
      L1  H     1    19       P1  7957  0.98
      P1  H  7989  7998       L1    18  1.00
      P1  H  7997  8009       L1     9  0.37

> <Gold.PLP.Chemscore.Internal.Correction>
0.0144

> <Gold.Rescore>
     Score         DG    S(hbond)    S(metal)    S(lipo)     H(rot)  DE(clash)    DE(int)     intcor
     11.14     -12.59       1.01        0.00      81.51       2.27       0.83       0.61       ----

> <Gold.Chemscore.Fitness>
11.1448

> <Gold.Chemscore.DG>
-12.5896

> <Gold.Chemscore.ZeroCoef>
-5.4800

> <Gold.Chemscore.Hbond>
1.0094

> <Gold.Chemscore.Metal>
0.0000

> <Gold.Chemscore.Lipo>
81.5100

> <Gold.Chemscore.Internal_Hbond>
0.0000

> <Gold.Chemscore.DEClash>
0.8311

> <Gold.Chemscore.DEInternal>
0.6137

> <Gold.Chemscore.Rot>
2.2650

> <Gold.Chemscore.Internal.Correction>
   9.000000E+99

> <Gold.Chemscore.Hbonds>
donor molecule, donor type, donor heavy atom, donor atom, acceptor molecule, acceptor atom, score
      L1  H     1    19       P1  7957  0.28
      P1  H  7989  7998       L1    18  0.10
      P1  H  7997  8009       L1     9  0.02

> <Gold.Chemscore.Hbond.Weighted>
-3.3714

> <Gold.Chemscore.Metal.Weighted>
-0.0000

> <Gold.Chemscore.Lipo.Weighted>
-9.5367

> <Gold.Chemscore.Internal_Hbond.Weighted>
0.0000

> <Gold.Chemscore.DEClash.Weighted>
0.8311

> <Gold.Chemscore.DEInternal.Weighted>
0.6137

> <Gold.Chemscore.Rot.Weighted>
5.7984

> <Gold.Chemscore.Internal.Correction.Weighted>
   9.000000E+99

> <Gold.Protein.RotatedTorsions>
[ 6907 6896 6895 6894 ] final -172.41 input  -60.11 | X-H torsion
[ 7974 7965 7964 7962 ] final  163.28 input  175.53 | X-H torsion
[ 8008 7997 7996 7995 ] final -166.30 input   59.86 | X-H torsion
[ 10167 10162 10161 10158 ] final  -37.64 input  -65.29 | X-H torsion
[ 10718 10713 10712 10709 ] final -162.83 input   66.30 | X-H torsion
[ 10763 10752 10751 10750 ] final   21.36 input  -60.55 | X-H torsion
[ 11005 11000 10999 10996 ] final -103.33 input  -57.11 | X-H torsion

> <Gold.Protein.ActiveResidues>
 VAL166  LYS551  ARG553  GLY616  TRP617  ASP618  TYR619  PRO620  LYS621  CYS622 
 ASP623  PHE694  ASN695  SER759  ASP760  ASP761  ALA762  ILE779  LEU786  VAL792 
 PHE793  MET794  SER795  GLU796  ALA797  LYS798  CYS799  TRP800  GLU811  SER814 

> <Gold.Protein.RotatedAtoms>
  151.5396  133.3435  159.2932 H   0  0  0  0  0  0  0  0  0  0  0  0  # atno 6907 bound_to 6896
  150.8544  134.7880  159.7045 H   0  0  0  0  0  0  0  0  0  0  0  0  # atno 6908 bound_to 6896
  152.4581  134.5254  159.9847 H   0  0  0  0  0  0  0  0  0  0  0  0  # atno 6909 bound_to 6896
  144.7597  139.8160  143.6337 H   0  0  0  0  0  0  0  0  0  0  0  0  # atno 7974 bound_to 7965
  155.8619  140.0979  157.1608 H   0  0  0  0  0  0  0  0  0  0  0  0  # atno 8008 bound_to 7997
  154.3991  140.1363  156.4033 H   0  0  0  0  0  0  0  0  0  0  0  0  # atno 8009 bound_to 7997
  155.7847  140.3457  155.5319 H   0  0  0  0  0  0  0  0  0  0  0  0  # atno 8010 bound_to 7997
  140.7113  143.3328  151.2529 H   0  0  0  0  0  0  0  0  0  0  0  0  # atno 10167 bound_to 10162
  156.6160  130.8870  151.2947 H   0  0  0  0  0  0  0  0  0  0  0  0  # atno 10718 bound_to 10713
  153.1002  135.6670  153.9688 H   0  0  0  0  0  0  0  0  0  0  0  0  # atno 10763 bound_to 10752
  153.9260  135.3009  155.3448 H   0  0  0  0  0  0  0  0  0  0  0  0  # atno 10764 bound_to 10752
  154.7422  135.5074  153.9217 H   0  0  0  0  0  0  0  0  0  0  0  0  # atno 10765 bound_to 10752
  141.1150  133.8631  157.1472 H   0  0  0  0  0  0  0  0  0  0  0  0  # atno 11005 bound_to 11000
  146.1646  139.4773  142.9966 LP  0  0  0  0  0  0  0  0  0  0  0  0  # atno 17320 bound_to 7965
  145.6661  141.0228  143.1683 LP  0  0  0  0  0  0  0  0  0  0  0  0  # atno 17321 bound_to 7965
  139.6815  143.9846  152.2811 LP  0  0  0  0  0  0  0  0  0  0  0  0  # atno 17342 bound_to 10162
  139.9478  144.6640  150.8202 LP  0  0  0  0  0  0  0  0  0  0  0  0  # atno 17343 bound_to 10162
  157.7241  130.9598  150.1560 LP  0  0  0  0  0  0  0  0  0  0  0  0  # atno 17370 bound_to 10713
  156.2351  130.3685  149.8401 LP  0  0  0  0  0  0  0  0  0  0  0  0  # atno 17371 bound_to 10713
  140.0067  135.0005  157.0308 LP  0  0  0  0  0  0  0  0  0  0  0  0  # atno 17394 bound_to 11000
  140.4669  134.1426  155.7198 LP  0  0  0  0  0  0  0  0  0  0  0  0  # atno 17395 bound_to 11000

$$$$
