AV-unprocessed.smi:2829|AV-procd|sdf|10898|dock9
  -GOLD-   2272015343D 1   1.00000     0.00000
 Structure written by MMmdl.
 50 53  0  0  0  0  0  0  0  0  1 V2000
  151.9284  140.9748  157.9996 C   0  0  0  0  0  0  0  0  0  0  0  0
  150.6551  141.4184  157.2443 C   0  0  0  0  0  0  0  0  0  0  0  0
  149.6156  141.8477  158.3009 C   0  0  0  0  0  0  0  0  0  0  0  0
  151.0363  142.6253  156.3619 C   0  0  0  0  0  0  0  0  0  0  0  0
  150.0717  140.2962  156.3668 C   0  0  0  0  0  0  0  0  0  0  0  0
  150.7741  139.7144  155.2871 C   0  0  0  0  0  0  0  0  0  0  0  0
  150.1321  138.6973  154.5610 C   0  0  0  0  0  0  0  0  0  0  0  0
  148.8316  138.3152  154.9463 C   0  0  0  0  0  0  0  0  0  0  0  0
  148.2456  137.2843  154.1672 N   0  0  0  0  0  0  0  0  0  0  0  0
  147.0942  136.6209  154.3917 C   0  0  0  0  0  0  0  0  0  0  0  0
  146.3574  136.8003  155.3595 O   0  0  0  0  0  0  0  0  0  0  0  0
  146.7926  135.7165  153.4438 N   0  0  0  0  0  0  0  0  0  0  0  0
  145.6166  134.8367  153.3945 C   0  0  2  0  0  0  0  0  0  0  0  0
  145.7120  133.7221  152.3437 C   0  0  2  0  0  0  0  0  0  0  0  0
  146.8178  133.0071  151.6556 C   0  0  0  0  0  0  0  0  0  0  0  0
  146.1553  132.9343  150.2560 C   0  0  0  0  0  0  0  0  0  0  0  0
  144.9682  133.7639  150.3362 O   0  0  0  0  0  0  0  0  0  0  0  0
  145.2850  134.7469  151.3052 C   0  0  1  0  0  0  0  0  0  0  0  0
  144.4743  135.3591  152.4602 C   0  0  0  0  0  0  0  0  0  0  0  0
  143.0031  134.9803  152.6968 C   0  0  0  0  0  0  0  0  0  0  0  0
  142.7706  136.4071  153.2031 C   0  0  0  0  0  0  0  0  0  0  0  0
  144.0398  136.8313  152.4571 C   0  0  0  0  0  0  0  0  0  0  0  0
  148.2156  138.9176  155.9942 N   0  0  0  0  0  0  0  0  0  0  0  0
  148.8207  139.8856  156.6888 N   0  0  0  0  0  0  0  0  0  0  0  0
  152.3241  141.7831  158.6157 H   0  0  0  0  0  0  0  0  0  0  0  0
  152.7230  140.6806  157.3127 H   0  0  0  0  0  0  0  0  0  0  0  0
  151.7294  140.1349  158.6663 H   0  0  0  0  0  0  0  0  0  0  0  0
  149.3270  141.0086  158.9351 H   0  0  0  0  0  0  0  0  0  0  0  0
  148.7075  142.2389  157.8412 H   0  0  0  0  0  0  0  0  0  0  0  0
  150.0083  142.6306  158.9507 H   0  0  0  0  0  0  0  0  0  0  0  0
  151.4719  143.4302  156.9549 H   0  0  0  0  0  0  0  0  0  0  0  0
  150.1698  143.0406  155.8459 H   0  0  0  0  0  0  0  0  0  0  0  0
  151.7668  142.3442  155.6025 H   0  0  0  0  0  0  0  0  0  0  0  0
  151.7700  140.0185  155.0046 H   0  0  0  0  0  0  0  0  0  0  0  0
  150.6302  138.2239  153.7273 H   0  0  0  0  0  0  0  0  0  0  0  0
  148.7513  137.0288  153.3319 H   0  0  0  0  0  0  0  0  0  0  0  0
  147.4404  135.6329  152.6736 H   0  0  0  0  0  0  0  0  0  0  0  0
  145.2590  134.5050  154.3705 H   0  0  0  0  0  0  0  0  0  0  0  0
  144.9114  133.0044  152.5583 H   0  0  0  0  0  0  0  0  0  0  0  0
  147.7411  133.5875  151.6396 H   0  0  0  0  0  0  0  0  0  0  0  0
  147.0171  132.0233  152.0806 H   0  0  0  0  0  0  0  0  0  0  0  0
  146.8307  133.3124  149.4875 H   0  0  0  0  0  0  0  0  0  0  0  0
  145.8742  131.9152  149.9894 H   0  0  0  0  0  0  0  0  0  0  0  0
  146.0929  135.4003  150.9625 H   0  0  0  0  0  0  0  0  0  0  0  0
  142.4685  134.7693  151.7693 H   0  0  0  0  0  0  0  0  0  0  0  0
  142.8410  134.2020  153.4432 H   0  0  0  0  0  0  0  0  0  0  0  0
  141.8530  136.8747  152.8451 H   0  0  0  0  0  0  0  0  0  0  0  0
  142.8720  136.4906  154.2861 H   0  0  0  0  0  0  0  0  0  0  0  0
  144.6861  137.5093  153.0151 H   0  0  0  0  0  0  0  0  0  0  0  0
  143.8323  137.2062  151.4537 H   0  0  0  0  0  0  0  0  0  0  0  0
  1  2  1  0  0  0  0
  1 25  1  0  0  0  0
  1 26  1  0  0  0  0
  1 27  1  0  0  0  0
  2  3  1  0  0  0  0
  2  4  1  0  0  0  0
  2  5  1  0  0  0  0
  3 28  1  0  0  0  0
  3 29  1  0  0  0  0
  3 30  1  0  0  0  0
  4 31  1  0  0  0  0
  4 32  1  0  0  0  0
  4 33  1  0  0  0  0
  5 24  1  0  0  0  0
  5  6  2  0  0  0  0
  6  7  1  0  0  0  0
  6 34  1  0  0  0  0
  7  8  2  0  0  0  0
  7 35  1  0  0  0  0
  8  9  1  0  0  0  0
  8 23  1  0  0  0  0
  9 10  1  0  0  0  0
  9 36  1  0  0  0  0
 10 11  2  0  0  0  0
 10 12  1  0  0  0  0
 12 13  1  0  0  0  0
 12 37  1  0  0  0  0
 13 19  1  0  0  0  0
 13 14  1  0  0  0  0
 13 38  1  0  0  0  0
 14 18  1  0  0  0  0
 14 15  1  0  0  0  0
 14 39  1  0  0  0  0
 15 16  1  0  0  0  0
 15 40  1  0  0  0  0
 15 41  1  0  0  0  0
 16 17  1  0  0  0  0
 16 42  1  0  0  0  0
 16 43  1  0  0  0  0
 17 18  1  0  0  0  0
 18 19  1  0  0  0  0
 18 44  1  0  0  0  0
 19 22  1  0  0  0  0
 19 20  1  0  0  0  0
 20 21  1  0  0  0  0
 20 45  1  0  0  0  0
 20 46  1  0  0  0  0
 21 22  1  0  0  0  0
 21 47  1  0  0  0  0
 21 48  1  0  0  0  0
 22 49  1  0  0  0  0
 22 50  1  0  0  0  0
 23 24  2  0  0  0  0
M  END
> <s_m_source_file>
AV-unprocessed.smi

> <i_m_source_file_index>
2829

> <i_lp_mmshare_version>
43012

> <i_f3d_flags>
0

> <s_epik_input>
W0NIM11DKFtDSDNdKShbQ0gzXSljMVtjSF1bY0hdYyhubjEpW05IXUMoPU8pW05IXVtDQEBIXTJbQ0BIXShbQ0gyXVtDSDJdTzMpW0NAQEhdM0MyNFtDSDJdW0NIMl1bQ0gyXTQ=

> <s_epik_cmdline>
J2VwaWtfcHl0aG9uJywgJy1waCcsICc3LjAnLCAnLXRuJywgJzgnLCAnLW1hJywgJzIwMCcsICctbWV0YWxfYmluZGluZycsICctaW1hZScsICc8aW5maWxlLm1hZT4nLCAnLW9tYWUnLCAnPG91dGZpbGUubWFlPic=

> <r_lp_tautomer_probability>
1

> <r_epik_Ionization_Penalty>
0.011915

> <r_epik_Ionization_Penalty_Charging>
0

> <r_epik_Ionization_Penalty_Neutral>
0.011915

> <r_epik_State_Penalty>
0.00486223

> <r_epik_Charging_Adjusted_Penalty>
0.00486223

> <i_epik_Tot_Q>
0

> <i_epik_Tot_abs_Q>
0

> <r_epik_Metal_State_Penalty>
-0

> <b_epik_Metal_Only>
0

> <s_lp_Force_Field>
OPLS_2005

> <r_lp_Energy>
85.5181

> <b_lp_Chiralities_Consistent>
1

> <s_lp_Variant>
AV-unprocessed.smi:2829-1

> <Gold.Version>
5.8.1

> <Gold.Id.Protein>
6NUR|6NUR_protein|mol2

> <Gold.PLP.Fitness>
37.8449

> <Gold.PLP.PLP>
-32.0335

> <Gold.PLP.part.hbond>
-2.0000

> <Gold.PLP.part.metal>
0.0000

> <Gold.PLP.part.buried>
-3.0260

> <Gold.PLP.part.nonpolar>
-26.4576

> <Gold.PLP.part.repulsive>
0.2692

> <Gold.PLP.ligand.clash>
0.0000

> <Gold.PLP.ligand.torsion>
0.2411

> <Gold.PLP.Chemscore.Hbond>
1.9920

> <Gold.PLP.Chemscore.CHOScore>
0.0000

> <Gold.PLP.Chemscore.Metal>
0.0000

> <Gold.Chemscore.Hbonds>
donor molecule, donor type, donor heavy atom, donor atom, acceptor molecule, acceptor atom, score
      L1  H     9    36       P1  7948  1.00
      L1  H    12    37       P1  7948  0.99

> <Gold.PLP.Chemscore.Internal.Correction>
0.3176

> <Gold.Rescore>
     Score         DG    S(hbond)    S(metal)    S(lipo)     H(rot)  DE(clash)    DE(int)     intcor
     17.23     -18.82       1.95        0.00      83.72       1.16       0.08       1.51       ----

> <Gold.Chemscore.Fitness>
17.2311

> <Gold.Chemscore.DG>
-18.8172

> <Gold.Chemscore.ZeroCoef>
-5.4800

> <Gold.Chemscore.Hbond>
1.9510

> <Gold.Chemscore.Metal>
0.0000

> <Gold.Chemscore.Lipo>
83.7190

> <Gold.Chemscore.Internal_Hbond>
0.0000

> <Gold.Chemscore.DEClash>
0.0765

> <Gold.Chemscore.DEInternal>
1.5096

> <Gold.Chemscore.Rot>
1.1618

> <Gold.Chemscore.Internal.Correction>
   9.000000E+99

> <Gold.Chemscore.Hbonds>
donor molecule, donor type, donor heavy atom, donor atom, acceptor molecule, acceptor atom, score
      L1  H     9    36       P1  7948  0.98
      L1  H    12    37       P1  7948  0.93

> <Gold.Chemscore.Hbond.Weighted>
-6.5162

> <Gold.Chemscore.Metal.Weighted>
-0.0000

> <Gold.Chemscore.Lipo.Weighted>
-9.7951

> <Gold.Chemscore.Internal_Hbond.Weighted>
0.0000

> <Gold.Chemscore.DEClash.Weighted>
0.0765

> <Gold.Chemscore.DEInternal.Weighted>
1.5096

> <Gold.Chemscore.Rot.Weighted>
2.9741

> <Gold.Chemscore.Internal.Correction.Weighted>
   9.000000E+99

> <Gold.Protein.RotatedTorsions>
[ 6907 6896 6895 6894 ] final   96.75 input  -60.11 | X-H torsion
[ 7974 7965 7964 7962 ] final  172.38 input  175.53 | X-H torsion
[ 8008 7997 7996 7995 ] final  -34.22 input   59.86 | X-H torsion
[ 10167 10162 10161 10158 ] final  106.61 input  -65.29 | X-H torsion
[ 10718 10713 10712 10709 ] final -151.50 input   66.30 | X-H torsion
[ 10763 10752 10751 10750 ] final   99.23 input  -60.55 | X-H torsion
[ 11005 11000 10999 10996 ] final  -76.24 input  -57.11 | X-H torsion

> <Gold.Protein.ActiveResidues>
 VAL166  LYS551  ARG553  GLY616  TRP617  ASP618  TYR619  PRO620  LYS621  CYS622 
 ASP623  PHE694  ASN695  SER759  ASP760  ASP761  ALA762  ILE779  LEU786  VAL792 
 PHE793  MET794  SER795  GLU796  ALA797  LYS798  CYS799  TRP800  GLU811  SER814 

> <Gold.Protein.RotatedAtoms>
  152.5431  134.0839  159.8247 H   0  0  0  0  0  0  0  0  0  0  0  0  # atno 6907 bound_to 6896
  151.0937  133.5288  159.2621 H   0  0  0  0  0  0  0  0  0  0  0  0  # atno 6908 bound_to 6896
  151.2070  135.0475  159.8950 H   0  0  0  0  0  0  0  0  0  0  0  0  # atno 6909 bound_to 6896
  144.7269  139.9490  143.6431 H   0  0  0  0  0  0  0  0  0  0  0  0  # atno 7974 bound_to 7965
  154.4127  140.1690  156.2014 H   0  0  0  0  0  0  0  0  0  0  0  0  # atno 8008 bound_to 7997
  155.9520  140.3400  155.6393 H   0  0  0  0  0  0  0  0  0  0  0  0  # atno 8009 bound_to 7997
  155.6857  140.0728  157.2458 H   0  0  0  0  0  0  0  0  0  0  0  0  # atno 8010 bound_to 7997
  139.6995  144.7096  151.1210 H   0  0  0  0  0  0  0  0  0  0  0  0  # atno 10167 bound_to 10162
  156.4601  130.8209  151.2440 H   0  0  0  0  0  0  0  0  0  0  0  0  # atno 10718 bound_to 10713
  153.2989  135.4120  155.1234 H   0  0  0  0  0  0  0  0  0  0  0  0  # atno 10763 bound_to 10752
  154.8543  135.3536  154.5879 H   0  0  0  0  0  0  0  0  0  0  0  0  # atno 10764 bound_to 10752
  153.6304  135.7061  153.5336 H   0  0  0  0  0  0  0  0  0  0  0  0  # atno 10765 bound_to 10752
  141.1652  133.6976  156.7639 H   0  0  0  0  0  0  0  0  0  0  0  0  # atno 11005 bound_to 11000
  146.0726  139.3714  143.0514 LP  0  0  0  0  0  0  0  0  0  0  0  0  # atno 17320 bound_to 7965
  145.7948  140.9798  143.1030 LP  0  0  0  0  0  0  0  0  0  0  0  0  # atno 17321 bound_to 7965
  140.7705  143.5444  150.9276 LP  0  0  0  0  0  0  0  0  0  0  0  0  # atno 17342 bound_to 10162
  139.9125  143.6703  152.3112 LP  0  0  0  0  0  0  0  0  0  0  0  0  # atno 17343 bound_to 10162
  157.7498  131.0110  150.3327 LP  0  0  0  0  0  0  0  0  0  0  0  0  # atno 17370 bound_to 10713
  156.3725  130.3866  149.7164 LP  0  0  0  0  0  0  0  0  0  0  0  0  # atno 17371 bound_to 10713
  140.2514  134.8538  157.3670 LP  0  0  0  0  0  0  0  0  0  0  0  0  # atno 17394 bound_to 11000
  140.1699  134.4621  155.7838 LP  0  0  0  0  0  0  0  0  0  0  0  0  # atno 17395 bound_to 11000

$$$$
