AV-unprocessed.smi:72|AV-procd|sdf|685|dock3
  -GOLD-   2262016593D 1   1.00000     0.00000
 Structure written by MMmdl.
 29 30  0  0  0  0  0  0  0  0  1 V2000
  150.5555  143.3319  157.6547 N   0  0  0  0  0  0  0  0  0  0  0  0
  150.4774  142.2567  156.9563 C   0  0  0  0  0  0  0  0  0  0  0  0
  150.9590  140.9983  157.3455 N   0  0  0  0  0  0  0  0  0  0  0  0
  150.8295  140.0013  156.5251 C   0  0  0  0  0  0  0  0  0  0  0  0
  150.2251  140.1508  155.2065 N   0  0  0  0  0  0  0  0  0  0  0  0
  150.0517  138.9862  154.2436 C   0  0  2  0  0  0  0  0  0  0  0  0
  148.6979  138.6819  154.0850 O   0  0  0  0  0  0  0  0  0  0  0  0
  148.3331  137.6439  154.9862 C   0  0  1  0  0  0  0  0  0  0  0  0
  147.0349  136.9728  154.5140 C   0  0  0  0  0  0  0  0  0  0  0  0
  146.9043  137.1083  153.1151 O   0  0  0  0  0  0  0  0  0  0  0  0
  149.5568  136.7285  154.9271 C   0  0  2  0  0  0  0  0  0  0  0  0
  149.6717  135.9837  156.1230 O   0  0  0  0  0  0  0  0  0  0  0  0
  150.7237  137.7040  154.7855 C   0  0  1  0  0  0  0  0  0  0  0  0
  151.6792  137.1949  153.8780 O   0  0  0  0  0  0  0  0  0  0  0  0
  149.6820  141.4045  154.8279 C   0  0  0  0  0  0  0  0  0  0  0  0
  149.1000  141.5733  153.7563 O   0  0  0  0  0  0  0  0  0  0  0  0
  149.8461  142.4079  155.7161 N   0  0  0  0  0  0  0  0  0  0  0  0
  150.4611  139.3472  153.2983 H   0  0  0  0  0  0  0  0  0  0  0  0
  148.2216  138.0465  155.9949 H   0  0  0  0  0  0  0  0  0  0  0  0
  149.4904  136.0637  154.0640 H   0  0  0  0  0  0  0  0  0  0  0  0
  151.1934  137.9022  155.7505 H   0  0  0  0  0  0  0  0  0  0  0  0
  150.1320  144.1010  157.1551 H   0  0  0  0  0  0  0  0  0  0  0  0
  151.1645  138.9961  156.7809 H   0  0  0  0  0  0  0  0  0  0  0  0
  147.0034  135.9210  154.7996 H   0  0  0  0  0  0  0  0  0  0  0  0
  146.1732  137.4597  154.9715 H   0  0  0  0  0  0  0  0  0  0  0  0
  147.5821  136.5977  152.6994 H   0  0  0  0  0  0  0  0  0  0  0  0
  149.0915  135.2396  156.0667 H   0  0  0  0  0  0  0  0  0  0  0  0
  151.2622  137.0886  153.0362 H   0  0  0  0  0  0  0  0  0  0  0  0
  149.4837  143.3173  155.4688 H   0  0  0  0  0  0  0  0  0  0  0  0
  1  2  2  0  0  0  0
  1 22  1  0  0  0  0
  2 17  1  0  0  0  0
  2  3  1  0  0  0  0
  3  4  2  0  0  0  0
  4  5  1  0  0  0  0
  4 23  1  0  0  0  0
  5  6  1  0  0  0  0
  5 15  1  0  0  0  0
  6 18  1  0  0  0  0
  6 13  1  0  0  0  0
  6  7  1  0  0  0  0
  7  8  1  0  0  0  0
  8 19  1  0  0  0  0
  8  9  1  0  0  0  0
  8 11  1  0  0  0  0
  9 10  1  0  0  0  0
  9 24  1  0  0  0  0
  9 25  1  0  0  0  0
 10 26  1  0  0  0  0
 11 20  1  0  0  0  0
 11 12  1  0  0  0  0
 11 13  1  0  0  0  0
 12 27  1  0  0  0  0
 13 21  1  0  0  0  0
 13 14  1  0  0  0  0
 14 28  1  0  0  0  0
 15 16  2  0  0  0  0
 15 17  1  0  0  0  0
 17 29  1  0  0  0  0
M  END
> <s_m_source_file>
AV-unprocessed.smi

> <i_m_source_file_index>
72

> <i_lp_mmshare_version>
43012

> <i_f3d_flags>
0

> <s_epik_input>
W05IMl1jMW5bY0hdbihjKD1PKW4xKVtDQEBIXTJPW0NASF0oW0NIMl1bT0hdKVtDQEBIXShbT0hdKVtDQEhdMltPSF0=

> <s_epik_cmdline>
J2VwaWtfcHl0aG9uJywgJy1waCcsICc3LjAnLCAnLXRuJywgJzgnLCAnLW1hJywgJzIwMCcsICctbWV0YWxfYmluZGluZycsICctaW1hZScsICc8aW5maWxlLm1hZT4nLCAnLW9tYWUnLCAnPG91dGZpbGUubWFlPic=

> <r_lp_tautomer_probability>
7.17554e-07

> <r_epik_Ionization_Penalty>
0.0066451

> <r_epik_Ionization_Penalty_Charging>
0.00663793

> <r_epik_Ionization_Penalty_Neutral>
7.17052e-06

> <r_epik_State_Penalty>
0.419231

> <r_epik_Charging_Adjusted_Penalty>
0.425868

> <i_epik_Tot_Q>
0

> <i_epik_Tot_abs_Q>
0

> <r_epik_Metal_State_Penalty>
1.44144

> <b_epik_Metal_Only>
0

> <s_epik_Chemistry_Notes>
This compound contains an acetal/aminal-like group ( X-CH(R)-Y where X, Y are N, S, or O) that may be acid/base labile, releasing an aldehyde.

> <s_lp_Force_Field>
OPLS_2005

> <r_lp_Energy>
35.407

> <b_lp_Chiralities_Consistent>
1

> <s_lp_Variant>
AV-unprocessed.smi:72-23

> <Gold.Version>
5.8.1

> <Gold.Id.Protein>
6NUR|6NUR_protein|mol2

> <Gold.PLP.Fitness>
42.1985

> <Gold.PLP.PLP>
-25.6323

> <Gold.PLP.part.hbond>
-6.6218

> <Gold.PLP.part.metal>
0.0000

> <Gold.PLP.part.buried>
-3.2795

> <Gold.PLP.part.nonpolar>
-16.6986

> <Gold.PLP.part.repulsive>
1.3076

> <Gold.PLP.ligand.clash>
0.0000

> <Gold.PLP.ligand.torsion>
0.4363

> <Gold.PLP.Chemscore.Hbond>
5.8000

> <Gold.PLP.Chemscore.CHOScore>
0.0000

> <Gold.PLP.Chemscore.Metal>
0.0000

> <Gold.Chemscore.Hbonds>
donor molecule, donor type, donor heavy atom, donor atom, acceptor molecule, acceptor atom, score
      L1  H     1    22       P1  8028  0.99
      L1  H    10    26       P1  7948  1.00
      L1  H    14    28       P1  7949  0.88
      L1  H    17    29       P1  8028  1.00
      P1  H  8011  8017       L1    16  0.72
      P1  H 10752 10764       L1    14  1.00

> <Gold.PLP.Chemscore.Internal.Correction>
0.0388

> <Gold.Rescore>
     Score         DG    S(hbond)    S(metal)    S(lipo)     H(rot)  DE(clash)    DE(int)     intcor
     11.22     -13.71       5.07        0.00      14.48       4.06       0.63       1.86       ----

> <Gold.Chemscore.Fitness>
11.2197

> <Gold.Chemscore.DG>
-13.7115

> <Gold.Chemscore.ZeroCoef>
-5.4800

> <Gold.Chemscore.Hbond>
5.0690

> <Gold.Chemscore.Metal>
0.0000

> <Gold.Chemscore.Lipo>
14.4849

> <Gold.Chemscore.Internal_Hbond>
0.0000

> <Gold.Chemscore.DEClash>
0.6328

> <Gold.Chemscore.DEInternal>
1.8590

> <Gold.Chemscore.Rot>
4.0600

> <Gold.Chemscore.Internal.Correction>
   9.000000E+99

> <Gold.Chemscore.Hbonds>
donor molecule, donor type, donor heavy atom, donor atom, acceptor molecule, acceptor atom, score
      L1  H     1    22       P1  8028  0.76
      L1  H    10    26       P1  7948  0.99
      L1  H    14    28       P1  7949  0.56
      L1  H    17    29       P1  8028  0.93
      P1  H  8011  8017       L1    16  0.72
      P1  H 10752 10764       L1    14  0.62

> <Gold.Chemscore.Hbond.Weighted>
-16.9303

> <Gold.Chemscore.Metal.Weighted>
-0.0000

> <Gold.Chemscore.Lipo.Weighted>
-1.6947

> <Gold.Chemscore.Internal_Hbond.Weighted>
0.0000

> <Gold.Chemscore.DEClash.Weighted>
0.6328

> <Gold.Chemscore.DEInternal.Weighted>
1.8590

> <Gold.Chemscore.Rot.Weighted>
10.3936

> <Gold.Chemscore.Internal.Correction.Weighted>
   9.000000E+99

> <Gold.Protein.RotatedTorsions>
[ 6907 6896 6895 6894 ] final   33.52 input  -60.11 | X-H torsion
[ 7974 7965 7964 7962 ] final   -9.58 input  175.53 | X-H torsion
[ 8008 7997 7996 7995 ] final   62.32 input   59.86 | X-H torsion
[ 10167 10162 10161 10158 ] final   56.56 input  -65.29 | X-H torsion
[ 10718 10713 10712 10709 ] final  -70.58 input   66.30 | X-H torsion
[ 10763 10752 10751 10750 ] final  -89.12 input  -60.55 | X-H torsion
[ 11005 11000 10999 10996 ] final    5.52 input  -57.11 | X-H torsion

> <Gold.Protein.ActiveResidues>
 VAL166  LYS551  ARG553  GLY616  TRP617  ASP618  TYR619  PRO620  LYS621  CYS622 
 ASP623  PHE694  ASN695  SER759  ASP760  ASP761  ALA762  ILE779  LEU786  VAL792 
 PHE793  MET794  SER795  GLU796  ALA797  LYS798  CYS799  TRP800  GLU811  SER814 

> <Gold.Protein.RotatedAtoms>
  152.0897  134.9416  160.0571 H   0  0  0  0  0  0  0  0  0  0  0  0  # atno 6907 bound_to 6896
  152.0672  133.4085  159.4452 H   0  0  0  0  0  0  0  0  0  0  0  0  # atno 6908 bound_to 6896
  150.6836  134.3053  159.4767 H   0  0  0  0  0  0  0  0  0  0  0  0  # atno 6909 bound_to 6896
  146.2247  140.2638  142.8353 H   0  0  0  0  0  0  0  0  0  0  0  0  # atno 7974 bound_to 7965
  155.6125  140.3495  155.4627 H   0  0  0  0  0  0  0  0  0  0  0  0  # atno 8008 bound_to 7997
  156.0143  140.1240  157.0446 H   0  0  0  0  0  0  0  0  0  0  0  0  # atno 8009 bound_to 7997
  154.4292  140.1075  156.5860 H   0  0  0  0  0  0  0  0  0  0  0  0  # atno 8010 bound_to 7997
  140.2074  144.3924  150.6503 H   0  0  0  0  0  0  0  0  0  0  0  0  # atno 10167 bound_to 10162
  156.0401  130.4334  150.2316 H   0  0  0  0  0  0  0  0  0  0  0  0  # atno 10718 bound_to 10713
  154.6518  135.5352  153.7911 H   0  0  0  0  0  0  0  0  0  0  0  0  # atno 10763 bound_to 10752
  153.0391  135.6484  154.1005 H   0  0  0  0  0  0  0  0  0  0  0  0  # atno 10764 bound_to 10752
  154.0921  135.2939  155.3249 H   0  0  0  0  0  0  0  0  0  0  0  0  # atno 10765 bound_to 10752
  140.5698  134.0113  155.8004 H   0  0  0  0  0  0  0  0  0  0  0  0  # atno 11005 bound_to 11000
  144.9319  140.7985  143.5684 LP  0  0  0  0  0  0  0  0  0  0  0  0  # atno 17320 bound_to 7965
  145.2582  139.2003  143.4906 LP  0  0  0  0  0  0  0  0  0  0  0  0  # atno 17321 bound_to 7965
  140.6347  143.2193  151.6420 LP  0  0  0  0  0  0  0  0  0  0  0  0  # atno 17342 bound_to 10162
  139.5193  144.3258  152.0870 LP  0  0  0  0  0  0  0  0  0  0  0  0  # atno 17343 bound_to 10162
  157.0412  131.0035  151.3283 LP  0  0  0  0  0  0  0  0  0  0  0  0  # atno 17370 bound_to 10713
  157.5208  130.7997  149.7807 LP  0  0  0  0  0  0  0  0  0  0  0  0  # atno 17371 bound_to 10713
  141.1063  133.9688  157.2991 LP  0  0  0  0  0  0  0  0  0  0  0  0  # atno 17394 bound_to 11000
  139.9367  135.0195  156.8578 LP  0  0  0  0  0  0  0  0  0  0  0  0  # atno 17395 bound_to 11000

$$$$
