AV-unprocessed.smi:1854|AV-procd|sdf|7530|dock3
  -GOLD-   22720 9243D 1   1.00000     0.00000
 Structure written by MMmdl.
 40 42  0  0  0  0  0  0  0  0  2 V2000
  152.0054  135.5347  156.3399 O   0  0  0  0  0  0  0  0  0  0  0  0
  152.0693  136.6066  156.9393 C   0  0  0  0  0  0  0  0  0  0  0  0
  152.0391  137.8076  156.3440 N   0  0  0  0  0  0  0  0  0  0  0  0
  151.8724  138.0249  154.9099 C   0  0  0  0  0  0  0  0  0  0  0  0
  150.6387  138.7931  154.5381 C   0  0  0  0  0  0  0  0  0  0  0  0
  149.6503  138.4000  153.6824 N   0  3  0  0  0  0  0  0  0  0  0  0
  148.6741  139.3930  153.5944 C   0  0  0  0  0  0  0  0  0  0  0  0
  147.4942  139.4506  152.8588 C   0  0  0  0  0  0  0  0  0  0  0  0
  146.7208  140.6224  152.9945 C   0  0  0  0  0  0  0  0  0  0  0  0
  147.1291  141.6786  153.8351 C   0  0  0  0  0  0  0  0  0  0  0  0
  148.3262  141.6073  154.5777 C   0  0  0  0  0  0  0  0  0  0  0  0
  149.0835  140.4447  154.4382 C   0  0  0  0  0  0  0  0  0  0  0  0
  150.2937  140.0281  155.0029 N   0  0  0  0  0  0  0  0  0  0  0  0
  150.9842  140.9123  155.9500 C   0  0  0  0  0  0  0  0  0  0  0  0
  150.1134  141.2390  157.1689 C   0  0  0  0  0  0  0  0  0  0  0  0
  150.7908  142.2099  157.9522 O   0  0  0  0  0  0  0  0  0  0  0  0
  151.7424  141.7796  158.8533 C   0  0  0  0  0  0  0  0  0  0  0  0
  152.1022  140.4193  159.0337 C   0  0  0  0  0  0  0  0  0  0  0  0
  153.0854  140.0588  159.9754 C   0  0  0  0  0  0  0  0  0  0  0  0
  153.7204  141.0480  160.7478 C   0  0  0  0  0  0  0  0  0  0  0  0
  153.3712  142.3999  160.5771 C   0  0  0  0  0  0  0  0  0  0  0  0
  152.3887  142.7634  159.6353 C   0  0  0  0  0  0  0  0  0  0  0  0
  151.9799  144.4309  159.4452 Cl  0  0  0  0  0  0  0  0  0  0  0  0
  152.1621  136.7103  158.0314 H   0  0  0  0  0  0  0  0  0  0  0  0
  152.1022  138.6296  156.9273 H   0  0  0  0  0  0  0  0  0  0  0  0
  152.7461  138.5353  154.5012 H   0  0  0  0  0  0  0  0  0  0  0  0
  151.8318  137.0482  154.4270 H   0  0  0  0  0  0  0  0  0  0  0  0
  147.1803  138.6430  152.2139 H   0  0  0  0  0  0  0  0  0  0  0  0
  145.7967  140.7134  152.4421 H   0  0  0  0  0  0  0  0  0  0  0  0
  146.5117  142.5618  153.9126 H   0  0  0  0  0  0  0  0  0  0  0  0
  148.6312  142.4216  155.2182 H   0  0  0  0  0  0  0  0  0  0  0  0
  151.9229  140.4453  156.2498 H   0  0  0  0  0  0  0  0  0  0  0  0
  151.2494  141.8282  155.4209 H   0  0  0  0  0  0  0  0  0  0  0  0
  149.1478  141.6257  156.8390 H   0  0  0  0  0  0  0  0  0  0  0  0
  149.9390  140.3355  157.7553 H   0  0  0  0  0  0  0  0  0  0  0  0
  151.6384  139.6306  158.4615 H   0  0  0  0  0  0  0  0  0  0  0  0
  153.3522  139.0202  160.1053 H   0  0  0  0  0  0  0  0  0  0  0  0
  154.4736  140.7704  161.4703 H   0  0  0  0  0  0  0  0  0  0  0  0
  153.8585  143.1598  161.1701 H   0  0  0  0  0  0  0  0  0  0  0  0
  149.6466  137.5111  153.1988 H   0  0  0  0  0  0  0  0  0  0  0  0
  1  2  2  0  0  0  0
  2  3  1  0  0  0  0
  2 24  1  0  0  0  0
  3  4  1  0  0  0  0
  3 25  1  0  0  0  0
  4  5  1  0  0  0  0
  4 26  1  0  0  0  0
  4 27  1  0  0  0  0
  5 13  1  0  0  0  0
  5  6  2  0  0  0  0
  6  7  1  0  0  0  0
  6 40  1  0  0  0  0
  7 12  2  0  0  0  0
  7  8  1  0  0  0  0
  8  9  2  0  0  0  0
  8 28  1  0  0  0  0
  9 10  1  0  0  0  0
  9 29  1  0  0  0  0
 10 11  2  0  0  0  0
 10 30  1  0  0  0  0
 11 12  1  0  0  0  0
 11 31  1  0  0  0  0
 12 13  1  0  0  0  0
 13 14  1  0  0  0  0
 14 15  1  0  0  0  0
 14 32  1  0  0  0  0
 14 33  1  0  0  0  0
 15 16  1  0  0  0  0
 15 34  1  0  0  0  0
 15 35  1  0  0  0  0
 16 17  1  0  0  0  0
 17 22  1  0  0  0  0
 17 18  2  0  0  0  0
 18 19  1  0  0  0  0
 18 36  1  0  0  0  0
 19 20  2  0  0  0  0
 19 37  1  0  0  0  0
 20 21  1  0  0  0  0
 20 38  1  0  0  0  0
 21 22  2  0  0  0  0
 21 39  1  0  0  0  0
 22 23  1  0  0  0  0
M  CHG  1   6   1
M  END
> <s_m_source_file>
AV-unprocessed.smi

> <i_m_source_file_index>
1854

> <i_lp_mmshare_version>
43012

> <i_f3d_flags>
0

> <s_epik_input>
Tz1bQ0hdW05IXVtDSDJdYyhuMSluKGMoYzEyKVtjSF1bY0hdW2NIXVtjSF0yKVtDSDJdW0NIMl1PYzNbY0hdW2NIXVtjSF1bY0hdYzNDbA==

> <s_epik_cmdline>
J2VwaWtfcHl0aG9uJywgJy1waCcsICc3LjAnLCAnLXRuJywgJzgnLCAnLW1hJywgJzIwMCcsICctbWV0YWxfYmluZGluZycsICctaW1hZScsICc8aW5maWxlLm1hZT4nLCAnLW9tYWUnLCAnPG91dGZpbGUubWFlPic=

> <r_lp_tautomer_probability>
1

> <r_epik_Ionization_Penalty>
1.43948

> <r_epik_Ionization_Penalty_Charging>
1.43948

> <r_epik_Ionization_Penalty_Neutral>
7.38905e-08

> <r_epik_State_Penalty>
1.52475

> <r_epik_Charging_Adjusted_Penalty>
2.96423

> <i_epik_Tot_Q>
1

> <i_epik_Tot_abs_Q>
1

> <r_epik_Metal_State_Penalty>
1.5754

> <b_epik_Metal_Only>
0

> <s_lp_Force_Field>
OPLS_2005

> <r_lp_Energy>
16.1695

> <b_lp_Chiralities_Consistent>
1

> <s_lp_Variant>
AV-unprocessed.smi:1854-2

> <Gold.Version>
5.8.1

> <Gold.Id.Protein>
6NUR|6NUR_protein|mol2

> <Gold.PLP.Fitness>
58.9368

> <Gold.PLP.PLP>
-50.1479

> <Gold.PLP.part.hbond>
-3.0000

> <Gold.PLP.part.metal>
0.0000

> <Gold.PLP.part.buried>
2.2534

> <Gold.PLP.part.nonpolar>
-49.5436

> <Gold.PLP.part.repulsive>
0.2655

> <Gold.PLP.ligand.clash>
0.0000

> <Gold.PLP.ligand.torsion>
0.1601

> <Gold.PLP.Chemscore.Hbond>
3.0000

> <Gold.PLP.Chemscore.CHOScore>
0.0000

> <Gold.PLP.Chemscore.Metal>
0.0000

> <Gold.Chemscore.Hbonds>
donor molecule, donor type, donor heavy atom, donor atom, acceptor molecule, acceptor atom, score
      L1  H     6    40       P1  7948  2.00
      P1  H 10752 10765       L1     1  1.00

> <Gold.PLP.Chemscore.Internal.Correction>
0.1092

> <Gold.Rescore>
     Score         DG    S(hbond)    S(metal)    S(lipo)     H(rot)  DE(clash)    DE(int)     intcor
     18.90     -20.79       1.88        0.00     131.62       2.49       1.76       0.12       ----

> <Gold.Chemscore.Fitness>
18.9011

> <Gold.Chemscore.DG>
-20.7859

> <Gold.Chemscore.ZeroCoef>
-5.4800

> <Gold.Chemscore.Hbond>
1.8769

> <Gold.Chemscore.Metal>
0.0000

> <Gold.Chemscore.Lipo>
131.6215

> <Gold.Chemscore.Internal_Hbond>
0.0000

> <Gold.Chemscore.DEClash>
1.7641

> <Gold.Chemscore.DEInternal>
0.1208

> <Gold.Chemscore.Rot>
2.4854

> <Gold.Chemscore.Internal.Correction>
   9.000000E+99

> <Gold.Chemscore.Hbonds>
donor molecule, donor type, donor heavy atom, donor atom, acceptor molecule, acceptor atom, score
      L1  H     6    40       P1  7948  0.72
      P1  H 10752 10765       L1     1  0.74

> <Gold.Chemscore.Hbond.Weighted>
-6.2689

> <Gold.Chemscore.Metal.Weighted>
-0.0000

> <Gold.Chemscore.Lipo.Weighted>
-15.3997

> <Gold.Chemscore.Internal_Hbond.Weighted>
0.0000

> <Gold.Chemscore.DEClash.Weighted>
1.7641

> <Gold.Chemscore.DEInternal.Weighted>
0.1208

> <Gold.Chemscore.Rot.Weighted>
6.3627

> <Gold.Chemscore.Internal.Correction.Weighted>
   9.000000E+99

> <Gold.Protein.RotatedTorsions>
[ 6907 6896 6895 6894 ] final  -51.56 input  -60.11 | X-H torsion
[ 7974 7965 7964 7962 ] final   21.48 input  175.53 | X-H torsion
[ 8008 7997 7996 7995 ] final   19.74 input   59.86 | X-H torsion
[ 10167 10162 10161 10158 ] final   37.99 input  -65.29 | X-H torsion
[ 10718 10713 10712 10709 ] final -107.07 input   66.30 | X-H torsion
[ 10763 10752 10751 10750 ] final -133.71 input  -60.55 | X-H torsion
[ 11005 11000 10999 10996 ] final  152.03 input  -57.11 | X-H torsion

> <Gold.Protein.ActiveResidues>
 VAL166  LYS551  ARG553  GLY616  TRP617  ASP618  TYR619  PRO620  LYS621  CYS622 
 ASP623  PHE694  ASN695  SER759  ASP760  ASP761  ALA762  ILE779  LEU786  VAL792 
 PHE793  MET794  SER795  GLU796  ALA797  LYS798  CYS799  TRP800  GLU811  SER814 

> <Gold.Protein.RotatedAtoms>
  150.8600  134.7949  159.7075 H   0  0  0  0  0  0  0  0  0  0  0  0  # atno 6907 bound_to 6896
  152.4640  134.5116  159.9765 H   0  0  0  0  0  0  0  0  0  0  0  0  # atno 6908 bound_to 6896
  151.5221  133.3426  159.2939 H   0  0  0  0  0  0  0  0  0  0  0  0  # atno 6909 bound_to 6896
  146.2069  139.8021  142.8719 H   0  0  0  0  0  0  0  0  0  0  0  0  # atno 7974 bound_to 7965
  154.9252  140.3033  155.5196 H   0  0  0  0  0  0  0  0  0  0  0  0  # atno 8008 bound_to 7997
  156.3007  140.2364  156.4243 H   0  0  0  0  0  0  0  0  0  0  0  0  # atno 8009 bound_to 7997
  154.8291  140.0419  157.1453 H   0  0  0  0  0  0  0  0  0  0  0  0  # atno 8010 bound_to 7997
  140.3980  144.1763  150.6132 H   0  0  0  0  0  0  0  0  0  0  0  0  # atno 10167 bound_to 10162
  156.0419  130.5644  150.7769 H   0  0  0  0  0  0  0  0  0  0  0  0  # atno 10718 bound_to 10713
  154.8729  135.3757  154.4618 H   0  0  0  0  0  0  0  0  0  0  0  0  # atno 10763 bound_to 10752
  153.5285  135.7028  153.5700 H   0  0  0  0  0  0  0  0  0  0  0  0  # atno 10764 bound_to 10752
  153.3915  135.3971  155.1891 H   0  0  0  0  0  0  0  0  0  0  0  0  # atno 10765 bound_to 10752
  140.1271  134.8826  157.2153 H   0  0  0  0  0  0  0  0  0  0  0  0  # atno 11005 bound_to 11000
  145.3285  141.0261  143.3460 LP  0  0  0  0  0  0  0  0  0  0  0  0  # atno 17320 bound_to 7965
  144.8816  139.4897  143.6720 LP  0  0  0  0  0  0  0  0  0  0  0  0  # atno 17321 bound_to 7965
  140.4770  143.2392  151.9009 LP  0  0  0  0  0  0  0  0  0  0  0  0  # atno 17342 bound_to 10162
  139.4786  144.5310  151.8667 LP  0  0  0  0  0  0  0  0  0  0  0  0  # atno 17343 bound_to 10162
  157.5248  131.0933  151.0032 LP  0  0  0  0  0  0  0  0  0  0  0  0  # atno 17370 bound_to 10713
  157.0354  130.5728  149.5349 LP  0  0  0  0  0  0  0  0  0  0  0  0  # atno 17371 bound_to 10713
  140.2890  134.3262  155.7321 LP  0  0  0  0  0  0  0  0  0  0  0  0  # atno 17394 bound_to 11000
  141.2163  133.7523  156.9475 LP  0  0  0  0  0  0  0  0  0  0  0  0  # atno 17395 bound_to 11000

$$$$
