AV-unprocessed.smi:1643|AV-procd|sdf|6574|dock6
  -GOLD-   22720 7263D 1   1.00000     0.00000
 Structure written by MMmdl.
 54 56  0  0  0  0  0  0  0  0  2 V2000
  144.0503  139.1571  156.1765 C   0  0  0  0  0  0  0  0  0  0  0  0
  143.6787  140.6284  155.9737 C   0  0  0  0  0  0  0  0  0  0  0  0
  142.6153  140.8830  155.4086 O   0  0  0  0  0  0  0  0  0  0  0  0
  144.5166  141.5950  156.4238 N   0  0  0  0  0  0  0  0  0  0  0  0
  144.1573  143.0185  156.3435 C   0  0  0  0  0  0  0  0  0  0  0  0
  144.8215  143.7273  155.1401 C   0  0  0  0  0  0  0  0  0  0  0  0
  145.9096  142.9180  154.3971 C   0  0  0  0  0  0  0  0  0  0  0  0
  147.1275  142.5908  155.1981 N   0  3  2  0  0  0  0  0  0  0  0  0
  147.9488  141.5096  154.5877 C   0  0  0  0  0  0  0  0  0  0  0  0
  148.9587  140.8888  155.5733 C   0  0  1  0  0  0  0  0  0  0  0  0
  149.2361  139.5610  155.1703 O   0  0  0  0  0  0  0  0  0  0  0  0
  150.2736  141.6899  155.6295 C   0  0  0  0  0  0  0  0  0  0  0  0
  151.1945  141.1694  156.6239 N   0  0  0  0  0  0  0  0  0  0  0  0
  151.8805  140.0113  156.5741 C   0  0  0  0  0  0  0  0  0  0  0  0
  152.6727  139.7285  157.6041 N   0  0  0  0  0  0  0  0  0  0  0  0
  152.4815  140.8336  158.4156 C   0  0  0  0  0  0  0  0  0  0  0  0
  153.0369  141.1560  159.6731 C   0  0  0  0  0  0  0  0  0  0  0  0
  152.6931  142.3587  160.3306 C   0  0  0  0  0  0  0  0  0  0  0  0
  153.3129  142.6645  161.6827 C   0  0  0  0  0  0  0  0  0  0  0  0
  151.7799  143.2617  159.7290 C   0  0  0  0  0  0  0  0  0  0  0  0
  151.3952  144.5596  160.4171 C   0  0  0  0  0  0  0  0  0  0  0  0
  151.2166  142.9557  158.4726 C   0  0  0  0  0  0  0  0  0  0  0  0
  151.5652  141.7549  157.8295 C   0  0  0  0  0  0  0  0  0  0  0  0
  146.9173  142.3816  156.6601 C   0  0  0  0  0  0  0  0  0  0  0  0
  145.8367  141.3306  157.0235 C   0  0  0  0  0  0  0  0  0  0  0  0
  144.3218  138.9607  157.2142 H   0  0  0  0  0  0  0  0  0  0  0  0
  144.8838  138.8785  155.5316 H   0  0  0  0  0  0  0  0  0  0  0  0
  143.2072  138.5116  155.9277 H   0  0  0  0  0  0  0  0  0  0  0  0
  143.0765  143.1650  156.3046 H   0  0  0  0  0  0  0  0  0  0  0  0
  144.4509  143.5078  157.2728 H   0  0  0  0  0  0  0  0  0  0  0  0
  144.0403  143.9691  154.4186 H   0  0  0  0  0  0  0  0  0  0  0  0
  145.2266  144.6881  155.4595 H   0  0  0  0  0  0  0  0  0  0  0  0
  145.4710  142.0048  153.9922 H   0  0  0  0  0  0  0  0  0  0  0  0
  146.2240  143.4989  153.5304 H   0  0  0  0  0  0  0  0  0  0  0  0
  147.3019  140.7149  154.2131 H   0  0  0  0  0  0  0  0  0  0  0  0
  148.4695  141.9095  153.7162 H   0  0  0  0  0  0  0  0  0  0  0  0
  148.5361  140.8591  156.5769 H   0  0  0  0  0  0  0  0  0  0  0  0
  148.6791  139.3423  154.4385 H   0  0  0  0  0  0  0  0  0  0  0  0
  150.7675  141.6887  154.6566 H   0  0  0  0  0  0  0  0  0  0  0  0
  150.0690  142.7329  155.8747 H   0  0  0  0  0  0  0  0  0  0  0  0
  151.7908  139.3352  155.7364 H   0  0  0  0  0  0  0  0  0  0  0  0
  153.7324  140.4681  160.1313 H   0  0  0  0  0  0  0  0  0  0  0  0
  153.8427  143.6170  161.6553 H   0  0  0  0  0  0  0  0  0  0  0  0
  154.0275  141.8949  161.9767 H   0  0  0  0  0  0  0  0  0  0  0  0
  152.5418  142.7181  162.4516 H   0  0  0  0  0  0  0  0  0  0  0  0
  150.6714  145.1231  159.8277 H   0  0  0  0  0  0  0  0  0  0  0  0
  152.2729  145.1903  160.5607 H   0  0  0  0  0  0  0  0  0  0  0  0
  150.9491  144.3589  161.3915 H   0  0  0  0  0  0  0  0  0  0  0  0
  150.5205  143.6349  158.0034 H   0  0  0  0  0  0  0  0  0  0  0  0
  147.8619  142.0962  157.1244 H   0  0  0  0  0  0  0  0  0  0  0  0
  146.6861  143.3443  157.1156 H   0  0  0  0  0  0  0  0  0  0  0  0
  145.7174  141.2907  158.1069 H   0  0  0  0  0  0  0  0  0  0  0  0
  146.2257  140.3571  156.7273 H   0  0  0  0  0  0  0  0  0  0  0  0
  147.7080  143.4166  155.1510 H   0  0  0  0  0  0  0  0  0  0  0  0
  1  2  1  0  0  0  0
  1 26  1  0  0  0  0
  1 27  1  0  0  0  0
  1 28  1  0  0  0  0
  2  3  2  0  0  0  0
  2  4  1  0  0  0  0
  4 25  1  0  0  0  0
  4  5  1  0  0  0  0
  5  6  1  0  0  0  0
  5 29  1  0  0  0  0
  5 30  1  0  0  0  0
  6  7  1  0  0  0  0
  6 31  1  0  0  0  0
  6 32  1  0  0  0  0
  7  8  1  0  0  0  0
  7 33  1  0  0  0  0
  7 34  1  0  0  0  0
  8  9  1  0  0  0  0
  8 24  1  0  0  0  0
  8 54  1  0  0  0  0
  9 10  1  0  0  0  0
  9 35  1  0  0  0  0
  9 36  1  0  0  0  0
 10 11  1  0  0  0  0
 10 12  1  0  0  0  0
 10 37  1  0  0  0  0
 11 38  1  0  0  0  0
 12 13  1  0  0  0  0
 12 39  1  0  0  0  0
 12 40  1  0  0  0  0
 13 23  1  0  0  0  0
 13 14  1  0  0  0  0
 14 15  2  0  0  0  0
 14 41  1  0  0  0  0
 15 16  1  0  0  0  0
 16 23  2  0  0  0  0
 16 17  1  0  0  0  0
 17 18  2  0  0  0  0
 17 42  1  0  0  0  0
 18 19  1  0  0  0  0
 18 20  1  0  0  0  0
 19 43  1  0  0  0  0
 19 44  1  0  0  0  0
 19 45  1  0  0  0  0
 20 21  1  0  0  0  0
 20 22  2  0  0  0  0
 21 46  1  0  0  0  0
 21 47  1  0  0  0  0
 21 48  1  0  0  0  0
 22 23  1  0  0  0  0
 22 49  1  0  0  0  0
 24 25  1  0  0  0  0
 24 50  1  0  0  0  0
 24 51  1  0  0  0  0
 25 52  1  0  0  0  0
 25 53  1  0  0  0  0
M  CHG  1   8   1
M  END
> <s_m_source_file>
AV-unprocessed.smi

> <i_m_source_file_index>
1643

> <i_lp_mmshare_version>
43012

> <i_f3d_flags>
0

> <s_epik_input>
W0NIM11DKD1PKU4xW0NIMl1bQ0gyXVtDSDJdTihbQ0gyXVtDSDJdMSlbQ0gyXVtDQEhdKFtPSF0pW0NIMl1uKFtjSF1uMiljKGMyMylbY0hdYyhbQ0gzXSljKFtjSF0zKVtDSDNd

> <s_epik_cmdline>
J2VwaWtfcHl0aG9uJywgJy1waCcsICc3LjAnLCAnLXRuJywgJzgnLCAnLW1hJywgJzIwMCcsICctbWV0YWxfYmluZGluZycsICctaW1hZScsICc8aW5maWxlLm1hZT4nLCAnLW9tYWUnLCAnPG91dGZpbGUubWFlPic=

> <r_epik_Ionization_Penalty>
0.189467

> <r_epik_Ionization_Penalty_Charging>
0.101761

> <r_epik_Ionization_Penalty_Neutral>
0.0877056

> <r_epik_State_Penalty>
0.170758

> <r_epik_Charging_Adjusted_Penalty>
0.272519

> <i_epik_Tot_Q>
1

> <i_epik_Tot_abs_Q>
1

> <r_epik_Metal_State_Penalty>
0.0948013

> <b_epik_Metal_Only>
0

> <s_lp_Force_Field>
OPLS_2005

> <r_lp_Energy>
48.7512

> <b_lp_Chiralities_Consistent>
1

> <s_lp_Variant>
AV-unprocessed.smi:1643-3

> <Gold.Version>
5.8.1

> <Gold.Id.Protein>
6NUR|6NUR_protein|mol2

> <Gold.PLP.Fitness>
52.0411

> <Gold.PLP.PLP>
-44.2900

> <Gold.PLP.part.hbond>
-2.0000

> <Gold.PLP.part.metal>
0.0000

> <Gold.PLP.part.buried>
-5.7639

> <Gold.PLP.part.nonpolar>
-36.0088

> <Gold.PLP.part.repulsive>
1.1285

> <Gold.PLP.ligand.clash>
0.0000

> <Gold.PLP.ligand.torsion>
0.6673

> <Gold.PLP.Chemscore.Hbond>
3.0000

> <Gold.PLP.Chemscore.CHOScore>
0.0000

> <Gold.PLP.Chemscore.Metal>
0.0000

> <Gold.Chemscore.Hbonds>
donor molecule, donor type, donor heavy atom, donor atom, acceptor molecule, acceptor atom, score
      L1  H     8    54       P1  8028  2.00
      P1  H  7997  8008       L1    15  1.00

> <Gold.PLP.Chemscore.Internal.Correction>
0.0856

> <Gold.Rescore>
     Score         DG    S(hbond)    S(metal)    S(lipo)     H(rot)  DE(clash)    DE(int)     intcor
     15.14     -16.05       0.88        0.00     111.45       2.12       0.13       0.79       ----

> <Gold.Chemscore.Fitness>
15.1358

> <Gold.Chemscore.DG>
-16.0492

> <Gold.Chemscore.ZeroCoef>
-5.4800

> <Gold.Chemscore.Hbond>
0.8835

> <Gold.Chemscore.Metal>
0.0000

> <Gold.Chemscore.Lipo>
111.4518

> <Gold.Chemscore.Internal_Hbond>
0.0000

> <Gold.Chemscore.DEClash>
0.1257

> <Gold.Chemscore.DEInternal>
0.7876

> <Gold.Chemscore.Rot>
2.1178

> <Gold.Chemscore.Internal.Correction>
   9.000000E+99

> <Gold.Chemscore.Hbonds>
donor molecule, donor type, donor heavy atom, donor atom, acceptor molecule, acceptor atom, score
      L1  H     8    54       P1  8028  0.30
      P1  H  7997  8008       L1    15  0.13

> <Gold.Chemscore.Hbond.Weighted>
-2.9508

> <Gold.Chemscore.Metal.Weighted>
-0.0000

> <Gold.Chemscore.Lipo.Weighted>
-13.0399

> <Gold.Chemscore.Internal_Hbond.Weighted>
0.0000

> <Gold.Chemscore.DEClash.Weighted>
0.1257

> <Gold.Chemscore.DEInternal.Weighted>
0.7876

> <Gold.Chemscore.Rot.Weighted>
5.4215

> <Gold.Chemscore.Internal.Correction.Weighted>
   9.000000E+99

> <Gold.Protein.RotatedTorsions>
[ 6907 6896 6895 6894 ] final  131.87 input  -60.11 | X-H torsion
[ 7974 7965 7964 7962 ] final  -47.68 input  175.53 | X-H torsion
[ 8008 7997 7996 7995 ] final  -76.16 input   59.86 | X-H torsion
[ 10167 10162 10161 10158 ] final  -53.50 input  -65.29 | X-H torsion
[ 10718 10713 10712 10709 ] final -158.79 input   66.30 | X-H torsion
[ 10763 10752 10751 10750 ] final  -39.23 input  -60.55 | X-H torsion
[ 11005 11000 10999 10996 ] final  123.61 input  -57.11 | X-H torsion

> <Gold.Protein.ActiveResidues>
 VAL166  LYS551  ARG553  GLY616  TRP617  ASP618  TYR619  PRO620  LYS621  CYS622 
 ASP623  PHE694  ASN695  SER759  ASP760  ASP761  ALA762  ILE779  LEU786  VAL792 
 PHE793  MET794  SER795  GLU796  ALA797  LYS798  CYS799  TRP800  GLU811  SER814 

> <Gold.Protein.RotatedAtoms>
  152.3382  133.6036  159.5857 H   0  0  0  0  0  0  0  0  0  0  0  0  # atno 6907 bound_to 6896
  150.7462  133.9764  159.3571 H   0  0  0  0  0  0  0  0  0  0  0  0  # atno 6908 bound_to 6896
  151.7631  135.0806  160.0399 H   0  0  0  0  0  0  0  0  0  0  0  0  # atno 6909 bound_to 6896
  145.9591  140.7497  142.9466 H   0  0  0  0  0  0  0  0  0  0  0  0  # atno 7974 bound_to 7965
  154.5481  140.0731  156.8622 H   0  0  0  0  0  0  0  0  0  0  0  0  # atno 8008 bound_to 7997
  155.3047  140.3386  155.4228 H   0  0  0  0  0  0  0  0  0  0  0  0  # atno 8009 bound_to 7997
  156.1936  140.1695  156.8028 H   0  0  0  0  0  0  0  0  0  0  0  0  # atno 8010 bound_to 7997
  140.6481  143.2548  151.4801 H   0  0  0  0  0  0  0  0  0  0  0  0  # atno 10167 bound_to 10162
  156.5591  130.8639  151.2804 H   0  0  0  0  0  0  0  0  0  0  0  0  # atno 10718 bound_to 10713
  153.9259  135.6777  153.4746 H   0  0  0  0  0  0  0  0  0  0  0  0  # atno 10763 bound_to 10752
  153.1004  135.4830  154.8854 H   0  0  0  0  0  0  0  0  0  0  0  0  # atno 10764 bound_to 10752
  154.7453  135.3171  154.8612 H   0  0  0  0  0  0  0  0  0  0  0  0  # atno 10765 bound_to 10752
  139.9320  134.9641  156.8285 H   0  0  0  0  0  0  0  0  0  0  0  0  # atno 11005 bound_to 11000
  144.6811  140.2561  143.7325 LP  0  0  0  0  0  0  0  0  0  0  0  0  # atno 17320 bound_to 7965
  145.8065  139.1985  143.2018 LP  0  0  0  0  0  0  0  0  0  0  0  0  # atno 17321 bound_to 7965
  139.5694  144.1965  152.1813 LP  0  0  0  0  0  0  0  0  0  0  0  0  # atno 17342 bound_to 10162
  140.1257  144.5333  150.6834 LP  0  0  0  0  0  0  0  0  0  0  0  0  # atno 17343 bound_to 10162
  157.7372  130.9792  150.2180 LP  0  0  0  0  0  0  0  0  0  0  0  0  # atno 17370 bound_to 10713
  156.2815  130.3734  149.7930 LP  0  0  0  0  0  0  0  0  0  0  0  0  # atno 17371 bound_to 10713
  140.6176  134.0024  155.7604 LP  0  0  0  0  0  0  0  0  0  0  0  0  # atno 17394 bound_to 11000
  141.0914  133.9910  157.3230 LP  0  0  0  0  0  0  0  0  0  0  0  0  # atno 17395 bound_to 11000

$$$$
