AV-unprocessed.smi:2683|AV-procd|sdf|10377|dock2
  -GOLD-   2272014403D 1   1.00000     0.00000
 Structure written by MMmdl.
 37 38  0  0  0  0  0  0  0  0  2 V2000
  148.6353  141.0204  157.0636 C   0  0  0  0  0  0  0  0  0  0  0  0
  149.5641  141.3131  155.8776 C   0  0  1  0  0  0  0  0  0  0  0  0
  148.7536  141.7742  154.6485 C   0  0  0  0  0  0  0  0  0  0  0  0
  148.0939  140.6761  153.9654 N   0  0  0  0  0  0  0  0  0  0  0  0
  147.1087  140.7330  153.0023 C   0  0  0  0  0  0  0  0  0  0  0  0
  146.7927  139.4469  152.6695 C   0  0  0  0  0  0  0  0  0  0  0  0
  147.6526  138.6636  153.4891 C   0  0  0  0  0  0  0  0  0  0  0  0
  148.4297  139.4026  154.2646 N   0  0  0  0  0  0  0  0  0  0  0  0
  150.5602  142.3348  156.2730 N   0  3  0  0  0  0  0  0  0  0  0  0
  151.2675  142.0587  157.5411 C   0  0  0  0  0  0  0  0  0  0  0  0
  151.1750  143.2561  158.4994 C   0  0  0  0  0  0  0  0  0  0  0  0
  151.9145  144.5063  158.0131 C   0  0  0  0  0  0  0  0  0  0  0  0
  152.1197  145.3580  159.2699 C   0  0  0  0  0  0  0  0  0  0  0  0
  152.0730  144.3850  160.4582 C   0  0  0  0  0  0  0  0  0  0  0  0
  151.8120  142.9950  159.8665 C   0  0  0  0  0  0  0  0  0  0  0  0
  147.9011  140.2558  156.8081 H   0  0  0  0  0  0  0  0  0  0  0  0
  148.0908  141.9134  157.3733 H   0  0  0  0  0  0  0  0  0  0  0  0
  149.1989  140.6578  157.9240 H   0  0  0  0  0  0  0  0  0  0  0  0
  150.0787  140.3823  155.6324 H   0  0  0  0  0  0  0  0  0  0  0  0
  147.9846  142.4851  154.9537 H   0  0  0  0  0  0  0  0  0  0  0  0
  149.3957  142.3002  153.9397 H   0  0  0  0  0  0  0  0  0  0  0  0
  146.7167  141.6722  152.6403 H   0  0  0  0  0  0  0  0  0  0  0  0
  146.0603  139.1157  151.9482 H   0  0  0  0  0  0  0  0  0  0  0  0
  147.7337  137.5880  153.5445 H   0  0  0  0  0  0  0  0  0  0  0  0
  151.2401  142.4195  155.5305 H   0  0  0  0  0  0  0  0  0  0  0  0
  150.8164  141.1801  158.0036 H   0  0  0  0  0  0  0  0  0  0  0  0
  152.3119  141.8136  157.3463 H   0  0  0  0  0  0  0  0  0  0  0  0
  150.1258  143.5103  158.6602 H   0  0  0  0  0  0  0  0  0  0  0  0
  152.8876  144.2283  157.6058 H   0  0  0  0  0  0  0  0  0  0  0  0
  151.3717  145.0405  157.2328 H   0  0  0  0  0  0  0  0  0  0  0  0
  153.0594  145.9098  159.2291 H   0  0  0  0  0  0  0  0  0  0  0  0
  151.3160  146.0895  159.3623 H   0  0  0  0  0  0  0  0  0  0  0  0
  152.9983  144.4019  161.0349 H   0  0  0  0  0  0  0  0  0  0  0  0
  151.2636  144.6660  161.1333 H   0  0  0  0  0  0  0  0  0  0  0  0
  151.1818  142.3812  160.5110 H   0  0  0  0  0  0  0  0  0  0  0  0
  152.7616  142.4724  159.7405 H   0  0  0  0  0  0  0  0  0  0  0  0
  150.0843  143.2199  156.3740 H   0  0  0  0  0  0  0  0  0  0  0  0
  1  2  1  0  0  0  0
  1 16  1  0  0  0  0
  1 17  1  0  0  0  0
  1 18  1  0  0  0  0
  2  3  1  0  0  0  0
  2  9  1  0  0  0  0
  2 19  1  0  0  0  0
  3  4  1  0  0  0  0
  3 20  1  0  0  0  0
  3 21  1  0  0  0  0
  4  8  1  0  0  0  0
  4  5  1  0  0  0  0
  5  6  2  0  0  0  0
  5 22  1  0  0  0  0
  6  7  1  0  0  0  0
  6 23  1  0  0  0  0
  7  8  2  0  0  0  0
  7 24  1  0  0  0  0
  9 10  1  0  0  0  0
  9 25  1  0  0  0  0
  9 37  1  0  0  0  0
 10 11  1  0  0  0  0
 10 26  1  0  0  0  0
 10 27  1  0  0  0  0
 11 15  1  0  0  0  0
 11 12  1  0  0  0  0
 11 28  1  0  0  0  0
 12 13  1  0  0  0  0
 12 29  1  0  0  0  0
 12 30  1  0  0  0  0
 13 14  1  0  0  0  0
 13 31  1  0  0  0  0
 13 32  1  0  0  0  0
 14 15  1  0  0  0  0
 14 33  1  0  0  0  0
 14 34  1  0  0  0  0
 15 35  1  0  0  0  0
 15 36  1  0  0  0  0
M  CHG  1   9   1
M  END
> <s_m_source_file>
AV-unprocessed.smi

> <i_m_source_file_index>
2683

> <i_lp_mmshare_version>
43012

> <i_f3d_flags>
0

> <s_epik_input>
bjFbY0hdW2NIXVtjSF1uMVtDSDJdW0NAQEhdKFtDSDNdKVtOSF1bQ0gyXVtDSF0yW0NIMl1bQ0gyXVtDSDJdW0NIMl0y

> <s_epik_cmdline>
J2VwaWtfcHl0aG9uJywgJy1waCcsICc3LjAnLCAnLXRuJywgJzgnLCAnLW1hJywgJzIwMCcsICctbWV0YWxfYmluZGluZycsICctaW1hZScsICc8aW5maWxlLm1hZT4nLCAnLW9tYWUnLCAnPG91dGZpbGUubWFlPic=

> <r_lp_tautomer_probability>
1

> <r_epik_Ionization_Penalty>
0.00170049

> <r_epik_Ionization_Penalty_Charging>
0.00169627

> <r_epik_Ionization_Penalty_Neutral>
4.21324e-06

> <r_epik_State_Penalty>
0.00114589

> <r_epik_Charging_Adjusted_Penalty>
0.00284216

> <i_epik_Tot_Q>
1

> <i_epik_Tot_abs_Q>
1

> <r_epik_Metal_State_Penalty>
-0

> <b_epik_Metal_Only>
0

> <s_lp_Force_Field>
OPLS_2005

> <r_lp_Energy>
26.2137

> <b_lp_Chiralities_Consistent>
1

> <s_lp_Variant>
AV-unprocessed.smi:2683-2

> <Gold.Version>
5.8.1

> <Gold.Id.Protein>
6NUR|6NUR_protein|mol2

> <Gold.PLP.Fitness>
42.1887

> <Gold.PLP.PLP>
-34.9382

> <Gold.PLP.part.hbond>
-1.0000

> <Gold.PLP.part.metal>
0.0000

> <Gold.PLP.part.buried>
-0.7931

> <Gold.PLP.part.nonpolar>
-32.4240

> <Gold.PLP.part.repulsive>
0.2436

> <Gold.PLP.ligand.clash>
0.0000

> <Gold.PLP.ligand.torsion>
0.7161

> <Gold.PLP.Chemscore.Hbond>
2.0000

> <Gold.PLP.Chemscore.CHOScore>
0.8841

> <Gold.PLP.Chemscore.Metal>
0.0000

> <Gold.Chemscore.Hbonds>
donor molecule, donor type, donor heavy atom, donor atom, acceptor molecule, acceptor atom, score
      L1  H     9    37       P1  8028  1.92
      L1  C     7    24       P1  7948  0.85

> <Gold.PLP.Chemscore.Internal.Correction>
0.0306

> <Gold.Rescore>
     Score         DG    S(hbond)    S(metal)    S(lipo)     H(rot)  DE(clash)    DE(int)     intcor
     16.64     -17.31       0.94        0.00     108.43       1.55       0.04       0.64       ----

> <Gold.Chemscore.Fitness>
16.6375

> <Gold.Chemscore.DG>
-17.3143

> <Gold.Chemscore.ZeroCoef>
-5.4800

> <Gold.Chemscore.Hbond>
0.9363

> <Gold.Chemscore.Metal>
0.0000

> <Gold.Chemscore.Lipo>
108.4275

> <Gold.Chemscore.Internal_Hbond>
0.0000

> <Gold.Chemscore.DEClash>
0.0399

> <Gold.Chemscore.DEInternal>
0.6369

> <Gold.Chemscore.Rot>
1.5543

> <Gold.Chemscore.Internal.Correction>
   9.000000E+99

> <Gold.Chemscore.Hbonds>
donor molecule, donor type, donor heavy atom, donor atom, acceptor molecule, acceptor atom, score
      L1  H     9    37       P1  8028  0.88

> <Gold.Chemscore.Hbond.Weighted>
-3.1273

> <Gold.Chemscore.Metal.Weighted>
-0.0000

> <Gold.Chemscore.Lipo.Weighted>
-12.6860

> <Gold.Chemscore.Internal_Hbond.Weighted>
0.0000

> <Gold.Chemscore.DEClash.Weighted>
0.0399

> <Gold.Chemscore.DEInternal.Weighted>
0.6369

> <Gold.Chemscore.Rot.Weighted>
3.9789

> <Gold.Chemscore.Internal.Correction.Weighted>
   9.000000E+99

> <Gold.Protein.RotatedTorsions>
[ 6907 6896 6895 6894 ] final  -16.73 input  -60.11 | X-H torsion
[ 7974 7965 7964 7962 ] final   23.38 input  175.53 | X-H torsion
[ 8008 7997 7996 7995 ] final -167.87 input   59.86 | X-H torsion
[ 10167 10162 10161 10158 ] final   78.68 input  -65.29 | X-H torsion
[ 10718 10713 10712 10709 ] final -112.60 input   66.30 | X-H torsion
[ 10763 10752 10751 10750 ] final    9.84 input  -60.55 | X-H torsion
[ 11005 11000 10999 10996 ] final -146.55 input  -57.11 | X-H torsion

> <Gold.Protein.ActiveResidues>
 VAL166  LYS551  ARG553  GLY616  TRP617  ASP618  TYR619  PRO620  LYS621  CYS622 
 ASP623  PHE694  ASN695  SER759  ASP760  ASP761  ALA762  ILE779  LEU786  VAL792 
 PHE793  MET794  SER795  GLU796  ALA797  LYS798  CYS799  TRP800  GLU811  SER814 

> <Gold.Protein.RotatedAtoms>
  151.3041  135.0776  159.9248 H   0  0  0  0  0  0  0  0  0  0  0  0  # atno 6907 bound_to 6896
  152.5291  133.9803  159.7814 H   0  0  0  0  0  0  0  0  0  0  0  0  # atno 6908 bound_to 6896
  151.0095  133.5927  159.2715 H   0  0  0  0  0  0  0  0  0  0  0  0  # atno 6909 bound_to 6896
  146.1986  139.7752  142.8778 H   0  0  0  0  0  0  0  0  0  0  0  0  # atno 7974 bound_to 7965
  155.8837  140.1013  157.1468 H   0  0  0  0  0  0  0  0  0  0  0  0  # atno 8008 bound_to 7997
  154.4007  140.1324  156.4291 H   0  0  0  0  0  0  0  0  0  0  0  0  # atno 8009 bound_to 7997
  155.7614  140.3463  155.5202 H   0  0  0  0  0  0  0  0  0  0  0  0  # atno 8010 bound_to 7997
  139.9683  144.5912  150.8008 H   0  0  0  0  0  0  0  0  0  0  0  0  # atno 10167 bound_to 10162
  156.0716  130.5929  150.8531 H   0  0  0  0  0  0  0  0  0  0  0  0  # atno 10718 bound_to 10713
  153.2096  135.6867  153.8130 H   0  0  0  0  0  0  0  0  0  0  0  0  # atno 10763 bound_to 10752
  153.7367  135.3244  155.3297 H   0  0  0  0  0  0  0  0  0  0  0  0  # atno 10764 bound_to 10752
  154.8215  135.4648  154.0898 H   0  0  0  0  0  0  0  0  0  0  0  0  # atno 10765 bound_to 10752
  140.7808  134.3081  157.5046 H   0  0  0  0  0  0  0  0  0  0  0  0  # atno 11005 bound_to 11000
  145.3559  141.0316  143.3312 LP  0  0  0  0  0  0  0  0  0  0  0  0  # atno 17320 bound_to 7965
  144.8635  139.5143  143.6801 LP  0  0  0  0  0  0  0  0  0  0  0  0  # atno 17321 bound_to 7965
  140.7530  143.3001  151.3102 LP  0  0  0  0  0  0  0  0  0  0  0  0  # atno 17342 bound_to 10162
  139.6501  144.0379  152.2619 LP  0  0  0  0  0  0  0  0  0  0  0  0  # atno 17343 bound_to 10162
  157.5789  131.0946  150.9302 LP  0  0  0  0  0  0  0  0  0  0  0  0  # atno 17370 bound_to 10713
  156.9502  130.5417  149.5282 LP  0  0  0  0  0  0  0  0  0  0  0  0  # atno 17371 bound_to 10713
  139.8743  134.9317  156.3535 LP  0  0  0  0  0  0  0  0  0  0  0  0  # atno 17394 bound_to 11000
  140.9484  133.7467  156.0240 LP  0  0  0  0  0  0  0  0  0  0  0  0  # atno 17395 bound_to 11000

$$$$
