AV-unprocessed.smi:104|AV-procd|sdf|1000|dock7
  -GOLD-   2262017583D 1   1.00000     0.00000
 Structure written by MMmdl.
 47 49  0  0  0  0  0  0  0  0  1 V2000
  146.9972  134.9451  162.3180 C   0  0  0  0  0  0  0  0  0  0  0  0
  147.5757  136.0796  161.4822 C   0  0  0  0  0  0  0  0  0  0  0  0
  147.4465  137.2560  161.8208 O   0  0  0  0  0  0  0  0  0  0  0  0
  148.2144  135.6389  160.3883 O   0  0  0  0  0  0  0  0  0  0  0  0
  149.3060  136.3771  159.8626 C   0  0  0  0  0  0  0  0  0  0  0  0
  148.8213  137.2906  158.7200 C   0  0  1  0  0  0  0  0  0  0  0  0
  149.1805  138.6259  159.0442 O   0  0  0  0  0  0  0  0  0  0  0  0
  150.4697  138.8897  158.5813 C   0  0  2  0  0  0  0  0  0  0  0  0
  150.4887  140.2941  158.0590 N   0  0  0  0  0  0  0  0  0  0  0  0
  149.7264  140.8600  157.0629 C   0  0  0  0  0  0  0  0  0  0  0  0
  148.4056  139.8762  156.1067 Br  0  0  0  0  0  0  0  0  0  0  0  0
  149.9278  142.1215  156.8023 N   0  0  0  0  0  0  0  0  0  0  0  0
  150.9205  142.4664  157.7113 C   0  0  0  0  0  0  0  0  0  0  0  0
  151.6148  143.6674  158.0025 C   0  0  0  0  0  0  0  0  0  0  0  0
  151.3925  144.8168  157.3505 N   0  0  0  0  0  0  0  0  0  0  0  0
  152.5432  143.6560  158.9873 N   0  0  0  0  0  0  0  0  0  0  0  0
  152.7812  142.5232  159.6560 C   0  0  0  0  0  0  0  0  0  0  0  0
  152.2144  141.3241  159.4974 N   0  0  0  0  0  0  0  0  0  0  0  0
  151.2798  141.3359  158.5017 C   0  0  0  0  0  0  0  0  0  0  0  0
  150.8090  137.8441  157.4955 C   0  0  2  0  0  0  0  0  0  0  0  0
  151.1764  138.4465  156.2577 O   0  0  0  0  0  0  0  0  0  0  0  0
  151.3407  137.6970  155.1573 C   0  0  0  0  0  0  0  0  0  0  0  0
  151.0041  138.4612  153.8841 C   0  0  0  0  0  0  0  0  0  0  0  0
  151.7141  136.5245  155.1259 O   0  0  0  0  0  0  0  0  0  0  0  0
  149.5058  137.0687  157.3640 C   0  0  1  0  0  0  0  0  0  0  0  0
  149.7690  135.7007  157.0773 O   0  0  0  0  0  0  0  0  0  0  0  0
  148.7666  134.8060  157.0751 C   0  0  0  0  0  0  0  0  0  0  0  0
  149.2519  133.3935  156.7791 C   0  0  0  0  0  0  0  0  0  0  0  0
  147.5791  135.0462  157.2918 O   0  0  0  0  0  0  0  0  0  0  0  0
  147.3899  133.9815  161.9916 H   0  0  0  0  0  0  0  0  0  0  0  0
  145.9113  134.9256  162.2267 H   0  0  0  0  0  0  0  0  0  0  0  0
  147.2541  135.0824  163.3684 H   0  0  0  0  0  0  0  0  0  0  0  0
  149.7236  136.9828  160.6678 H   0  0  0  0  0  0  0  0  0  0  0  0
  150.0988  135.7147  159.5117 H   0  0  0  0  0  0  0  0  0  0  0  0
  147.7365  137.2241  158.6310 H   0  0  0  0  0  0  0  0  0  0  0  0
  151.1747  138.8786  159.4118 H   0  0  0  0  0  0  0  0  0  0  0  0
  150.7027  144.8518  156.6138 H   0  0  0  0  0  0  0  0  0  0  0  0
  151.9150  145.6451  157.5961 H   0  0  0  0  0  0  0  0  0  0  0  0
  153.5326  142.5862  160.4292 H   0  0  0  0  0  0  0  0  0  0  0  0
  151.6037  137.2108  157.8936 H   0  0  0  0  0  0  0  0  0  0  0  0
  151.5533  139.4022  153.8501 H   0  0  0  0  0  0  0  0  0  0  0  0
  149.9371  138.6814  153.8470 H   0  0  0  0  0  0  0  0  0  0  0  0
  151.2675  137.8752  153.0034 H   0  0  0  0  0  0  0  0  0  0  0  0
  148.9036  137.5305  156.5795 H   0  0  0  0  0  0  0  0  0  0  0  0
  149.6459  133.3344  155.7644 H   0  0  0  0  0  0  0  0  0  0  0  0
  148.4337  132.6795  156.8751 H   0  0  0  0  0  0  0  0  0  0  0  0
  150.0407  133.1095  157.4758 H   0  0  0  0  0  0  0  0  0  0  0  0
  1  2  1  0  0  0  0
  1 30  1  0  0  0  0
  1 31  1  0  0  0  0
  1 32  1  0  0  0  0
  2  3  2  0  0  0  0
  2  4  1  0  0  0  0
  4  5  1  0  0  0  0
  5  6  1  0  0  0  0
  5 33  1  0  0  0  0
  5 34  1  0  0  0  0
  6 25  1  0  0  0  0
  6  7  1  0  0  0  0
  6 35  1  0  0  0  0
  7  8  1  0  0  0  0
  8  9  1  0  0  0  0
  8 20  1  0  0  0  0
  8 36  1  0  0  0  0
  9 19  1  0  0  0  0
  9 10  1  0  0  0  0
 10 11  1  0  0  0  0
 10 12  2  0  0  0  0
 12 13  1  0  0  0  0
 13 19  2  0  0  0  0
 13 14  1  0  0  0  0
 14 15  1  0  0  0  0
 14 16  2  0  0  0  0
 15 37  1  0  0  0  0
 15 38  1  0  0  0  0
 16 17  1  0  0  0  0
 17 18  2  0  0  0  0
 17 39  1  0  0  0  0
 18 19  1  0  0  0  0
 20 21  1  0  0  0  0
 20 25  1  0  0  0  0
 20 40  1  0  0  0  0
 21 22  1  0  0  0  0
 22 23  1  0  0  0  0
 22 24  2  0  0  0  0
 23 41  1  0  0  0  0
 23 42  1  0  0  0  0
 23 43  1  0  0  0  0
 25 26  1  0  0  0  0
 25 44  1  0  0  0  0
 26 27  1  0  0  0  0
 27 28  1  0  0  0  0
 27 29  2  0  0  0  0
 28 45  1  0  0  0  0
 28 46  1  0  0  0  0
 28 47  1  0  0  0  0
M  END
> <s_m_source_file>
AV-unprocessed.smi

> <i_m_source_file_index>
104

> <i_lp_mmshare_version>
43012

> <i_f3d_flags>
0

> <s_epik_input>
W0NIM11DKD1PKU9bQ0gyXVtDQEBIXTFPW0NASF0oW0NAQEhdKE9DKD1PKVtDSDNdKVtDQEhdMU9DKD1PKVtDSDNdKW4oYyhCciluMiljKGMyMyluW2NIXW5jM1tOSDJd

> <s_epik_cmdline>
J2VwaWtfcHl0aG9uJywgJy1waCcsICc3LjAnLCAnLXRuJywgJzgnLCAnLW1hJywgJzIwMCcsICctbWV0YWxfYmluZGluZycsICctaW1hZScsICc8aW5maWxlLm1hZT4nLCAnLW9tYWUnLCAnPG91dGZpbGUubWFlPic=

> <r_lp_tautomer_probability>
1

> <r_epik_Ionization_Penalty>
7.36622e-05

> <r_epik_Ionization_Penalty_Charging>
0

> <r_epik_Ionization_Penalty_Neutral>
7.36622e-05

> <r_epik_State_Penalty>
-0

> <r_epik_Charging_Adjusted_Penalty>
0

> <i_epik_Tot_Q>
0

> <i_epik_Tot_abs_Q>
0

> <r_epik_Metal_State_Penalty>
-0

> <b_epik_Metal_Only>
0

> <s_epik_Chemistry_Notes>
This compound has an ester and may undergo hydrolysis at high or low pH. This compound contains an acetal/aminal-like group ( X-CH(R)-Y where X, Y are N, S, or O) that may be acid/base labile, releasing an aldehyde.

> <s_lp_Force_Field>
OPLS_2005

> <r_lp_Energy>
18.9649

> <b_lp_Chiralities_Consistent>
1

> <s_lp_Variant>
AV-unprocessed.smi:104-8

> <Gold.Version>
5.8.1

> <Gold.Id.Protein>
6NUR|6NUR_protein|mol2

> <Gold.PLP.Fitness>
43.2410

> <Gold.PLP.PLP>
-35.5266

> <Gold.PLP.part.hbond>
-5.9529

> <Gold.PLP.part.metal>
0.0000

> <Gold.PLP.part.buried>
-4.4317

> <Gold.PLP.part.nonpolar>
-25.4587

> <Gold.PLP.part.repulsive>
0.7486

> <Gold.PLP.ligand.clash>
0.0000

> <Gold.PLP.ligand.torsion>
1.7845

> <Gold.PLP.Chemscore.Hbond>
3.7120

> <Gold.PLP.Chemscore.CHOScore>
0.0000

> <Gold.PLP.Chemscore.Metal>
0.0000

> <Gold.Chemscore.Hbonds>
donor molecule, donor type, donor heavy atom, donor atom, acceptor molecule, acceptor atom, score
      L1  H    15    37       P1  8028  1.00
      P1  H  6931  6943       L1     3  0.90
      P1  H  6934  6947       L1     3  0.75
      P1  H 10752 10763       L1    24  1.00

> <Gold.PLP.Chemscore.Internal.Correction>
0.1475

> <Gold.Rescore>
     Score         DG    S(hbond)    S(metal)    S(lipo)     H(rot)  DE(clash)    DE(int)     intcor
      5.59     -11.16       3.51        0.00      42.69       4.31       0.72       4.84       ----

> <Gold.Chemscore.Fitness>
5.5929

> <Gold.Chemscore.DG>
-11.1560

> <Gold.Chemscore.ZeroCoef>
-5.4800

> <Gold.Chemscore.Hbond>
3.5052

> <Gold.Chemscore.Metal>
0.0000

> <Gold.Chemscore.Lipo>
42.6875

> <Gold.Chemscore.Internal_Hbond>
0.0000

> <Gold.Chemscore.DEClash>
0.7188

> <Gold.Chemscore.DEInternal>
4.8443

> <Gold.Chemscore.Rot>
4.3070

> <Gold.Chemscore.Internal.Correction>
   9.000000E+99

> <Gold.Chemscore.Hbonds>
donor molecule, donor type, donor heavy atom, donor atom, acceptor molecule, acceptor atom, score
      L1  H    15    37       P1  8028  0.84
      P1  H  6931  6943       L1     3  0.82
      P1  H  6934  6947       L1     3  0.72
      P1  H 10752 10763       L1    24  0.99

> <Gold.Chemscore.Hbond.Weighted>
-11.7074

> <Gold.Chemscore.Metal.Weighted>
-0.0000

> <Gold.Chemscore.Lipo.Weighted>
-4.9944

> <Gold.Chemscore.Internal_Hbond.Weighted>
0.0000

> <Gold.Chemscore.DEClash.Weighted>
0.7188

> <Gold.Chemscore.DEInternal.Weighted>
4.8443

> <Gold.Chemscore.Rot.Weighted>
11.0259

> <Gold.Chemscore.Internal.Correction.Weighted>
   9.000000E+99

> <Gold.Protein.RotatedTorsions>
[ 6907 6896 6895 6894 ] final -101.56 input  -60.11 | X-H torsion
[ 7974 7965 7964 7962 ] final  136.18 input  175.53 | X-H torsion
[ 8008 7997 7996 7995 ] final   23.62 input   59.86 | X-H torsion
[ 10167 10162 10161 10158 ] final -106.75 input  -65.29 | X-H torsion
[ 10718 10713 10712 10709 ] final    6.39 input   66.30 | X-H torsion
[ 10763 10752 10751 10750 ] final   72.60 input  -60.55 | X-H torsion
[ 11005 11000 10999 10996 ] final   37.61 input  -57.11 | X-H torsion

> <Gold.Protein.ActiveResidues>
 VAL166  LYS551  ARG553  GLY616  TRP617  ASP618  TYR619  PRO620  LYS621  CYS622 
 ASP623  PHE694  ASN695  SER759  ASP760  ASP761  ALA762  ILE779  LEU786  VAL792 
 PHE793  MET794  SER795  GLU796  ALA797  LYS798  CYS799  TRP800  GLU811  SER814 

> <Gold.Protein.RotatedAtoms>
  150.7159  134.0715  159.3865 H   0  0  0  0  0  0  0  0  0  0  0  0  # atno 6907 bound_to 6896
  151.8698  135.0491  160.0487 H   0  0  0  0  0  0  0  0  0  0  0  0  # atno 6908 bound_to 6896
  152.2652  133.5297  159.5442 H   0  0  0  0  0  0  0  0  0  0  0  0  # atno 6909 bound_to 6896
  144.9590  139.4731  143.5488 H   0  0  0  0  0  0  0  0  0  0  0  0  # atno 7974 bound_to 7965
  154.9837  140.3105  155.4935 H   0  0  0  0  0  0  0  0  0  0  0  0  # atno 8008 bound_to 7997
  156.2950  140.2262  156.4878 H   0  0  0  0  0  0  0  0  0  0  0  0  # atno 8009 bound_to 7997
  154.7766  140.0449  157.1082 H   0  0  0  0  0  0  0  0  0  0  0  0  # atno 8010 bound_to 7997
  140.1844  143.3941  152.1256 H   0  0  0  0  0  0  0  0  0  0  0  0  # atno 10167 bound_to 10162
  156.9215  130.5792  149.5648 H   0  0  0  0  0  0  0  0  0  0  0  0  # atno 10718 bound_to 10713
  153.0469  135.5094  154.7768 H   0  0  0  0  0  0  0  0  0  0  0  0  # atno 10763 bound_to 10752
  154.6661  135.2946  154.9806 H   0  0  0  0  0  0  0  0  0  0  0  0  # atno 10764 bound_to 10752
  154.0640  135.6687  153.4868 H   0  0  0  0  0  0  0  0  0  0  0  0  # atno 10765 bound_to 10752
  140.2209  134.3642  155.8005 H   0  0  0  0  0  0  0  0  0  0  0  0  # atno 11005 bound_to 11000
  146.3347  139.8728  142.8837 LP  0  0  0  0  0  0  0  0  0  0  0  0  # atno 17320 bound_to 7965
  145.2728  141.0114  143.3762 LP  0  0  0  0  0  0  0  0  0  0  0  0  # atno 17321 bound_to 7965
  139.5282  144.7128  151.5151 LP  0  0  0  0  0  0  0  0  0  0  0  0  # atno 17342 bound_to 10162
  140.6498  143.8720  150.6774 LP  0  0  0  0  0  0  0  0  0  0  0  0  # atno 17343 bound_to 10162
  156.0489  130.5561  150.8944 LP  0  0  0  0  0  0  0  0  0  0  0  0  # atno 17370 bound_to 10713
  157.5905  131.0944  150.9127 LP  0  0  0  0  0  0  0  0  0  0  0  0  # atno 17371 bound_to 10713
  141.2223  133.7193  156.8573 LP  0  0  0  0  0  0  0  0  0  0  0  0  # atno 17394 bound_to 11000
  140.1851  134.9005  157.2995 LP  0  0  0  0  0  0  0  0  0  0  0  0  # atno 17395 bound_to 11000

$$$$
