AV-unprocessed.smi:1410|AV-procd|sdf|5731|dock5
  -GOLD-   22720 5363D 1   1.00000     0.00000
 Structure written by MMmdl.
 40 41  0  0  0  0  0  0  0  0  2 V2000
  142.7111  139.7797  154.9288 N   0  0  0  0  0  0  0  0  0  0  0  0
  143.1160  140.5909  155.9088 C   0  0  0  0  0  0  0  0  0  0  0  0
  142.8694  140.3628  157.0918 O   0  0  0  0  0  0  0  0  0  0  0  0
  143.9280  141.8237  155.4973 C   0  0  0  0  0  0  0  0  0  0  0  0
  145.1852  141.4784  154.7850 N   0  3  2  0  0  0  0  0  0  0  0  0
  146.1280  140.6849  155.6175 C   0  0  0  0  0  0  0  0  0  0  0  0
  147.3402  140.2226  154.7905 C   0  0  0  0  0  0  0  0  0  0  0  0
  148.0714  141.4072  154.1267 C   0  0  2  0  0  0  0  0  0  0  0  0
  148.7869  142.2262  155.1056 N   0  0  0  0  0  0  0  0  0  0  0  0
  149.7612  141.7877  155.9169 C   0  0  0  0  0  0  0  0  0  0  0  0
  150.1532  140.6215  155.9303 O   0  0  0  0  0  0  0  0  0  0  0  0
  150.2195  142.7766  156.7047 N   0  0  0  0  0  0  0  0  0  0  0  0
  151.2296  142.7295  157.7050 C   0  0  0  0  0  0  0  0  0  0  0  0
  151.6646  141.4580  158.1330 C   0  0  0  0  0  0  0  0  0  0  0  0
  152.6557  141.3781  159.1316 C   0  0  0  0  0  0  0  0  0  0  0  0
  153.2123  142.4616  159.7122 N   0  0  0  0  0  0  0  0  0  0  0  0
  152.7866  143.6778  159.3111 C   0  0  0  0  0  0  0  0  0  0  0  0
  151.8017  143.8691  158.3211 C   0  0  0  0  0  0  0  0  0  0  0  0
  147.0639  142.2622  153.3382 C   0  0  0  0  0  0  0  0  0  0  0  0
  145.8488  142.6680  154.1935 C   0  0  0  0  0  0  0  0  0  0  0  0
  142.1759  138.9525  155.1530 H   0  0  0  0  0  0  0  0  0  0  0  0
  142.9406  139.9882  153.9675 H   0  0  0  0  0  0  0  0  0  0  0  0
  143.2854  142.4146  154.8430 H   0  0  0  0  0  0  0  0  0  0  0  0
  144.1485  142.4471  156.3658 H   0  0  0  0  0  0  0  0  0  0  0  0
  146.4573  141.2818  156.4693 H   0  0  0  0  0  0  0  0  0  0  0  0
  145.6233  139.8092  156.0263 H   0  0  0  0  0  0  0  0  0  0  0  0
  148.0230  139.6481  155.4173 H   0  0  0  0  0  0  0  0  0  0  0  0
  146.9978  139.5356  154.0154 H   0  0  0  0  0  0  0  0  0  0  0  0
  148.8058  141.0155  153.4204 H   0  0  0  0  0  0  0  0  0  0  0  0
  148.5312  143.2014  155.1590 H   0  0  0  0  0  0  0  0  0  0  0  0
  149.7510  143.6658  156.6135 H   0  0  0  0  0  0  0  0  0  0  0  0
  151.2529  140.5560  157.7042 H   0  0  0  0  0  0  0  0  0  0  0  0
  153.0096  140.4168  159.4736 H   0  0  0  0  0  0  0  0  0  0  0  0
  153.2410  144.5277  159.7985 H   0  0  0  0  0  0  0  0  0  0  0  0
  151.5051  144.8753  158.0699 H   0  0  0  0  0  0  0  0  0  0  0  0
  147.5533  143.1499  152.9351 H   0  0  0  0  0  0  0  0  0  0  0  0
  146.7138  141.6932  152.4756 H   0  0  0  0  0  0  0  0  0  0  0  0
  145.1400  143.2101  153.5664 H   0  0  0  0  0  0  0  0  0  0  0  0
  146.1524  143.3503  154.9890 H   0  0  0  0  0  0  0  0  0  0  0  0
  144.9125  140.8908  154.0096 H   0  0  0  0  0  0  0  0  0  0  0  0
  1  2  1  0  0  0  0
  1 21  1  0  0  0  0
  1 22  1  0  0  0  0
  2  3  2  0  0  0  0
  2  4  1  0  0  0  0
  4  5  1  0  0  0  0
  4 23  1  0  0  0  0
  4 24  1  0  0  0  0
  5 20  1  0  0  0  0
  5  6  1  0  0  0  0
  5 40  1  0  0  0  0
  6  7  1  0  0  0  0
  6 25  1  0  0  0  0
  6 26  1  0  0  0  0
  7  8  1  0  0  0  0
  7 27  1  0  0  0  0
  7 28  1  0  0  0  0
  8  9  1  0  0  0  0
  8 19  1  0  0  0  0
  8 29  1  0  0  0  0
  9 10  1  0  0  0  0
  9 30  1  0  0  0  0
 10 11  2  0  0  0  0
 10 12  1  0  0  0  0
 12 13  1  0  0  0  0
 12 31  1  0  0  0  0
 13 18  1  0  0  0  0
 13 14  2  0  0  0  0
 14 15  1  0  0  0  0
 14 32  1  0  0  0  0
 15 16  2  0  0  0  0
 15 33  1  0  0  0  0
 16 17  1  0  0  0  0
 17 18  2  0  0  0  0
 17 34  1  0  0  0  0
 18 35  1  0  0  0  0
 19 20  1  0  0  0  0
 19 36  1  0  0  0  0
 19 37  1  0  0  0  0
 20 38  1  0  0  0  0
 20 39  1  0  0  0  0
M  CHG  1   5   1
M  END
> <s_m_source_file>
AV-unprocessed.smi

> <i_m_source_file_index>
1410

> <i_lp_mmshare_version>
43012

> <i_f3d_flags>
0

> <s_epik_input>
W05IMl1DKD1PKVtDSDJdTjFbQ0gyXVtDSDJdW0NIXShbQ0gyXVtDSDJdMSlbTkhdQyg9TylbTkhdYzJbY0hdW2NIXW5bY0hdW2NIXTI=

> <s_epik_cmdline>
J2VwaWtfcHl0aG9uJywgJy1waCcsICc3LjAnLCAnLXRuJywgJzgnLCAnLW1hJywgJzIwMCcsICctbWV0YWxfYmluZGluZycsICctaW1hZScsICc8aW5maWxlLm1hZT4nLCAnLW9tYWUnLCAnPG91dGZpbGUubWFlPic=

> <r_epik_Ionization_Penalty>
0.938358

> <r_epik_Ionization_Penalty_Charging>
0.838844

> <r_epik_Ionization_Penalty_Neutral>
0.0995144

> <r_epik_State_Penalty>
0.957795

> <r_epik_Charging_Adjusted_Penalty>
1.79664

> <i_epik_Tot_Q>
1

> <i_epik_Tot_abs_Q>
1

> <r_epik_Metal_State_Penalty>
0.97276

> <b_epik_Metal_Only>
0

> <s_lp_Force_Field>
OPLS_2005

> <r_lp_Energy>
18.9404

> <b_lp_Chiralities_Consistent>
1

> <s_lp_Variant>
AV-unprocessed.smi:1410-3

> <Gold.Version>
5.8.1

> <Gold.Id.Protein>
6NUR|6NUR_protein|mol2

> <Gold.PLP.Fitness>
47.0081

> <Gold.PLP.PLP>
-32.1033

> <Gold.PLP.part.hbond>
-4.0000

> <Gold.PLP.part.metal>
0.0000

> <Gold.PLP.part.buried>
-6.2360

> <Gold.PLP.part.nonpolar>
-22.6839

> <Gold.PLP.part.repulsive>
0.3184

> <Gold.PLP.ligand.clash>
0.0000

> <Gold.PLP.ligand.torsion>
0.0606

> <Gold.PLP.Chemscore.Hbond>
5.0000

> <Gold.PLP.Chemscore.CHOScore>
0.0000

> <Gold.PLP.Chemscore.Metal>
0.0000

> <Gold.Chemscore.Hbonds>
donor molecule, donor type, donor heavy atom, donor atom, acceptor molecule, acceptor atom, score
      L1  H     1    22       P1 10175  1.00
      L1  H     5    40       P1 10175  1.98
      L1  H     9    30       P1  8028  1.00
      L1  H    12    31       P1  8028  0.99

> <Gold.PLP.Chemscore.Internal.Correction>
0.0260

> <Gold.Rescore>
     Score         DG    S(hbond)    S(metal)    S(lipo)     H(rot)  DE(clash)    DE(int)     intcor
     19.73     -22.86       3.80        0.00      83.16       1.96       1.67       1.46       ----

> <Gold.Chemscore.Fitness>
19.7338

> <Gold.Chemscore.DG>
-22.8638

> <Gold.Chemscore.ZeroCoef>
-5.4800

> <Gold.Chemscore.Hbond>
3.7972

> <Gold.Chemscore.Metal>
0.0000

> <Gold.Chemscore.Lipo>
83.1575

> <Gold.Chemscore.Internal_Hbond>
0.0000

> <Gold.Chemscore.DEClash>
1.6657

> <Gold.Chemscore.DEInternal>
1.4643

> <Gold.Chemscore.Rot>
1.9642

> <Gold.Chemscore.Internal.Correction>
   9.000000E+99

> <Gold.Chemscore.Hbonds>
donor molecule, donor type, donor heavy atom, donor atom, acceptor molecule, acceptor atom, score
      L1  H     1    22       P1 10175  1.00
      L1  H     5    40       P1 10175  0.84
      L1  H     9    30       P1  8028  0.95
      L1  H    12    31       P1  8028  0.93

> <Gold.Chemscore.Hbond.Weighted>
-12.6827

> <Gold.Chemscore.Metal.Weighted>
-0.0000

> <Gold.Chemscore.Lipo.Weighted>
-9.7294

> <Gold.Chemscore.Internal_Hbond.Weighted>
0.0000

> <Gold.Chemscore.DEClash.Weighted>
1.6657

> <Gold.Chemscore.DEInternal.Weighted>
1.4643

> <Gold.Chemscore.Rot.Weighted>
5.0283

> <Gold.Chemscore.Internal.Correction.Weighted>
   9.000000E+99

> <Gold.Protein.RotatedTorsions>
[ 6907 6896 6895 6894 ] final   63.54 input  -60.11 | X-H torsion
[ 7974 7965 7964 7962 ] final  162.10 input  175.53 | X-H torsion
[ 8008 7997 7996 7995 ] final -141.12 input   59.86 | X-H torsion
[ 10167 10162 10161 10158 ] final  173.66 input  -65.29 | X-H torsion
[ 10718 10713 10712 10709 ] final  -30.87 input   66.30 | X-H torsion
[ 10763 10752 10751 10750 ] final   44.13 input  -60.55 | X-H torsion
[ 11005 11000 10999 10996 ] final   30.09 input  -57.11 | X-H torsion

> <Gold.Protein.ActiveResidues>
 VAL166  LYS551  ARG553  GLY616  TRP617  ASP618  TYR619  PRO620  LYS621  CYS622 
 ASP623  PHE694  ASN695  SER759  ASP760  ASP761  ALA762  ILE779  LEU786  VAL792 
 PHE793  MET794  SER795  GLU796  ALA797  LYS798  CYS799  TRP800  GLU811  SER814 

> <Gold.Protein.RotatedAtoms>
  152.4261  134.5866  159.9962 H   0  0  0  0  0  0  0  0  0  0  0  0  # atno 6907 bound_to 6896
  151.6002  133.3351  159.3054 H   0  0  0  0  0  0  0  0  0  0  0  0  # atno 6908 bound_to 6896
  150.8150  134.7364  159.6787 H   0  0  0  0  0  0  0  0  0  0  0  0  # atno 6909 bound_to 6896
  144.7653  139.7992  143.6317 H   0  0  0  0  0  0  0  0  0  0  0  0  # atno 7974 bound_to 7965
  155.4726  140.0554  157.2977 H   0  0  0  0  0  0  0  0  0  0  0  0  # atno 8008 bound_to 7997
  154.4692  140.2032  155.9991 H   0  0  0  0  0  0  0  0  0  0  0  0  # atno 8009 bound_to 7997
  156.1027  140.3216  155.7969 H   0  0  0  0  0  0  0  0  0  0  0  0  # atno 8010 bound_to 7997
  139.5115  144.3236  152.0179 H   0  0  0  0  0  0  0  0  0  0  0  0  # atno 10167 bound_to 10162
  156.3943  130.4378  149.7370 H   0  0  0  0  0  0  0  0  0  0  0  0  # atno 10718 bound_to 10713
  152.9847  135.6080  154.3223 H   0  0  0  0  0  0  0  0  0  0  0  0  # atno 10763 bound_to 10752
  154.2932  135.2774  155.2647 H   0  0  0  0  0  0  0  0  0  0  0  0  # atno 10764 bound_to 10752
  154.4933  135.5886  153.6532 H   0  0  0  0  0  0  0  0  0  0  0  0  # atno 10765 bound_to 10752
  140.2981  134.2788  155.7760 H   0  0  0  0  0  0  0  0  0  0  0  0  # atno 11005 bound_to 11000
  146.1754  139.4922  142.9901 LP  0  0  0  0  0  0  0  0  0  0  0  0  # atno 17320 bound_to 7965
  145.6490  141.0267  143.1770 LP  0  0  0  0  0  0  0  0  0  0  0  0  # atno 17321 bound_to 7965
  140.2677  144.3998  150.6162 LP  0  0  0  0  0  0  0  0  0  0  0  0  # atno 17342 bound_to 10162
  140.6111  143.2169  151.6884 LP  0  0  0  0  0  0  0  0  0  0  0  0  # atno 17343 bound_to 10162
  156.4411  130.7862  151.2883 LP  0  0  0  0  0  0  0  0  0  0  0  0  # atno 17370 bound_to 10713
  157.7501  131.0124  150.3384 LP  0  0  0  0  0  0  0  0  0  0  0  0  # atno 17371 bound_to 10713
  141.2133  133.7628  156.9725 LP  0  0  0  0  0  0  0  0  0  0  0  0  # atno 17394 bound_to 11000
  140.1134  134.9462  157.2099 LP  0  0  0  0  0  0  0  0  0  0  0  0  # atno 17395 bound_to 11000

$$$$
