AV-unprocessed.smi:3031|AV-procd|sdf|11550|dock5
  -GOLD-   2272016503D 1   1.00000     0.00000
 Structure written by MMmdl.
 48 49  0  0  0  0  0  0  0  0  3 V2000
  151.6835  141.5548  157.7356 C   0  0  0  0  0  0  0  0  0  0  0  0
  150.9536  141.1520  156.4867 C   0  0  0  0  0  0  0  0  0  0  0  0
  151.2890  140.1110  155.5745 C   0  0  0  0  0  0  0  0  0  0  0  0
  150.4344  140.0136  154.5691 N   0  0  0  0  0  0  0  0  0  0  0  0
  149.5278  140.9862  154.8016 N   0  0  0  0  0  0  0  0  0  0  0  0
  148.4190  141.1754  153.8837 C   0  0  0  0  0  0  0  0  0  0  0  0
  147.0369  141.0384  154.5650 C   0  0  1  0  0  0  0  0  0  0  0  0
  146.2763  142.3730  154.6475 C   0  0  0  0  0  0  0  0  0  0  0  0
  146.1952  140.0451  153.8607 N   0  3  0  0  0  0  0  0  0  0  0  0
  146.9297  138.9896  153.1281 C   0  0  0  0  0  0  0  0  0  0  0  0
  145.9804  137.8733  152.6569 C   0  0  2  0  0  0  0  0  0  0  0  0
  144.6723  138.4045  152.5653 O   0  0  0  0  0  0  0  0  0  0  0  0
  145.9550  136.6834  153.6394 C   0  0  0  0  0  0  0  0  0  0  0  0
  146.5238  135.4422  153.0527 N   0  3  0  0  0  0  0  0  0  0  0  0
  146.9135  134.4300  154.0665 C   0  0  0  0  0  0  0  0  0  0  0  0
  147.5249  133.1930  153.3863 C   0  0  0  0  0  0  0  0  0  0  0  0
  146.5978  132.6560  152.4516 O   0  0  0  0  0  0  0  0  0  0  0  0
  146.2834  133.5844  151.4216 C   0  0  0  0  0  0  0  0  0  0  0  0
  145.6316  134.8354  152.0356 C   0  0  0  0  0  0  0  0  0  0  0  0
  149.8154  141.6872  155.9536 C   0  0  0  0  0  0  0  0  0  0  0  0
  152.6385  141.0379  157.8322 H   0  0  0  0  0  0  0  0  0  0  0  0
  151.1039  141.3274  158.6304 H   0  0  0  0  0  0  0  0  0  0  0  0
  151.8950  142.6240  157.7512 H   0  0  0  0  0  0  0  0  0  0  0  0
  152.1234  139.4264  155.6140 H   0  0  0  0  0  0  0  0  0  0  0  0
  148.5140  142.1587  153.4193 H   0  0  0  0  0  0  0  0  0  0  0  0
  148.5308  140.4446  153.0828 H   0  0  0  0  0  0  0  0  0  0  0  0
  147.1835  140.6890  155.5883 H   0  0  0  0  0  0  0  0  0  0  0  0
  146.8084  143.1026  155.2582 H   0  0  0  0  0  0  0  0  0  0  0  0
  145.2926  142.2372  155.0982 H   0  0  0  0  0  0  0  0  0  0  0  0
  146.1318  142.8090  153.6584 H   0  0  0  0  0  0  0  0  0  0  0  0
  145.6254  139.5820  154.5548 H   0  0  0  0  0  0  0  0  0  0  0  0
  147.4135  139.4352  152.2592 H   0  0  0  0  0  0  0  0  0  0  0  0
  147.7212  138.5798  153.7578 H   0  0  0  0  0  0  0  0  0  0  0  0
  146.2945  137.5413  151.6676 H   0  0  0  0  0  0  0  0  0  0  0  0
  144.5398  138.7451  151.6929 H   0  0  0  0  0  0  0  0  0  0  0  0
  146.5027  136.9265  154.5515 H   0  0  0  0  0  0  0  0  0  0  0  0
  144.9225  136.5083  153.9470 H   0  0  0  0  0  0  0  0  0  0  0  0
  147.6350  134.8463  154.7685 H   0  0  0  0  0  0  0  0  0  0  0  0
  146.0374  134.1359  154.6469 H   0  0  0  0  0  0  0  0  0  0  0  0
  148.4618  133.4450  152.8866 H   0  0  0  0  0  0  0  0  0  0  0  0
  147.7561  132.4311  154.1309 H   0  0  0  0  0  0  0  0  0  0  0  0
  147.1838  133.8469  150.8639 H   0  0  0  0  0  0  0  0  0  0  0  0
  145.5990  133.1117  150.7171 H   0  0  0  0  0  0  0  0  0  0  0  0
  144.6777  134.5724  152.4955 H   0  0  0  0  0  0  0  0  0  0  0  0
  145.4200  135.5598  151.2482 H   0  0  0  0  0  0  0  0  0  0  0  0
  149.1939  142.5014  156.2959 H   0  0  0  0  0  0  0  0  0  0  0  0
  145.5822  140.5324  153.2229 H   0  0  0  0  0  0  0  0  0  0  0  0
  147.3651  135.7128  152.5627 H   0  0  0  0  0  0  0  0  0  0  0  0
  1  2  1  0  0  0  0
  1 21  1  0  0  0  0
  1 22  1  0  0  0  0
  1 23  1  0  0  0  0
  2 20  2  0  0  0  0
  2  3  1  0  0  0  0
  3  4  2  0  0  0  0
  3 24  1  0  0  0  0
  4  5  1  0  0  0  0
  5  6  1  0  0  0  0
  5 20  1  0  0  0  0
  6  7  1  0  0  0  0
  6 25  1  0  0  0  0
  6 26  1  0  0  0  0
  7  8  1  0  0  0  0
  7  9  1  0  0  0  0
  7 27  1  0  0  0  0
  8 28  1  0  0  0  0
  8 29  1  0  0  0  0
  8 30  1  0  0  0  0
  9 10  1  0  0  0  0
  9 31  1  0  0  0  0
  9 47  1  0  0  0  0
 10 11  1  0  0  0  0
 10 32  1  0  0  0  0
 10 33  1  0  0  0  0
 11 12  1  0  0  0  0
 11 13  1  0  0  0  0
 11 34  1  0  0  0  0
 12 35  1  0  0  0  0
 13 14  1  0  0  0  0
 13 36  1  0  0  0  0
 13 37  1  0  0  0  0
 14 19  1  0  0  0  0
 14 15  1  0  0  0  0
 14 48  1  0  0  0  0
 15 16  1  0  0  0  0
 15 38  1  0  0  0  0
 15 39  1  0  0  0  0
 16 17  1  0  0  0  0
 16 40  1  0  0  0  0
 16 41  1  0  0  0  0
 17 18  1  0  0  0  0
 18 19  1  0  0  0  0
 18 42  1  0  0  0  0
 18 43  1  0  0  0  0
 19 44  1  0  0  0  0
 19 45  1  0  0  0  0
 20 46  1  0  0  0  0
M  CHG  1   9   1
M  CHG  1  14   1
M  END
> <s_m_source_file>
AV-unprocessed.smi

> <i_m_source_file_index>
3031

> <i_lp_mmshare_version>
43012

> <i_f3d_flags>
0

> <s_epik_input>
W0NIM11jMVtjSF1ubihbY0hdMSlbQ0gyXVtDQEhdKFtDSDNdKVtOSF1bQ0gyXVtDQEhdKFtPSF0pW0NIMl1OMltDSDJdW0NIMl1PW0NIMl1bQ0gyXTI=

> <s_epik_cmdline>
J2VwaWtfcHl0aG9uJywgJy1waCcsICc3LjAnLCAnLXRuJywgJzgnLCAnLW1hJywgJzIwMCcsICctbWV0YWxfYmluZGluZycsICctaW1hZScsICc8aW5maWxlLm1hZT4nLCAnLW9tYWUnLCAnPG91dGZpbGUubWFlPic=

> <r_lp_tautomer_probability>
1

> <r_epik_Ionization_Penalty>
1.76542

> <r_epik_Ionization_Penalty_Charging>
1.76348

> <r_epik_Ionization_Penalty_Neutral>
0.00194017

> <r_epik_State_Penalty>
1.49348

> <r_epik_Charging_Adjusted_Penalty>
3.25696

> <i_epik_Tot_Q>
2

> <i_epik_Tot_abs_Q>
2

> <r_epik_Metal_State_Penalty>
1.49349

> <b_epik_Metal_Only>
0

> <s_lp_Force_Field>
OPLS_2005

> <r_lp_Energy>
28.4524

> <b_lp_Chiralities_Consistent>
1

> <s_lp_Variant>
AV-unprocessed.smi:3031-10

> <Gold.Version>
5.8.1

> <Gold.Id.Protein>
6NUR|6NUR_protein|mol2

> <Gold.PLP.Fitness>
52.1313

> <Gold.PLP.PLP>
-37.8127

> <Gold.PLP.part.hbond>
-4.5437

> <Gold.PLP.part.metal>
0.0000

> <Gold.PLP.part.buried>
-3.0978

> <Gold.PLP.part.nonpolar>
-30.6040

> <Gold.PLP.part.repulsive>
0.2214

> <Gold.PLP.ligand.clash>
0.0000

> <Gold.PLP.ligand.torsion>
2.4890

> <Gold.PLP.Chemscore.Hbond>
5.3446

> <Gold.PLP.Chemscore.CHOScore>
0.9928

> <Gold.PLP.Chemscore.Metal>
0.0000

> <Gold.Chemscore.Hbonds>
donor molecule, donor type, donor heavy atom, donor atom, acceptor molecule, acceptor atom, score
      L1  H     9    47       P1 10175  1.65
      L1  H    12    35       P1 10171  1.00
      L1  H    14    48       P1  7948  2.00
      P1  H  7989  7998       L1     4  0.50
      L1  C    20    46       P1  8028  1.00

> <Gold.PLP.Chemscore.Internal.Correction>
0.2843

> <Gold.Rescore>
     Score         DG    S(hbond)    S(metal)    S(lipo)     H(rot)  DE(clash)    DE(int)     intcor
     14.83     -17.55       3.01        0.00      77.42       2.74       0.01       2.71       ----

> <Gold.Chemscore.Fitness>
14.8298

> <Gold.Chemscore.DG>
-17.5536

> <Gold.Chemscore.ZeroCoef>
-5.4800

> <Gold.Chemscore.Hbond>
3.0056

> <Gold.Chemscore.Metal>
0.0000

> <Gold.Chemscore.Lipo>
77.4189

> <Gold.Chemscore.Internal_Hbond>
0.0000

> <Gold.Chemscore.DEClash>
0.0090

> <Gold.Chemscore.DEInternal>
2.7148

> <Gold.Chemscore.Rot>
2.7434

> <Gold.Chemscore.Internal.Correction>
   9.000000E+99

> <Gold.Chemscore.Hbonds>
donor molecule, donor type, donor heavy atom, donor atom, acceptor molecule, acceptor atom, score
      L1  H     9    47       P1 10175  0.70
      L1  H    12    35       P1 10171  0.94
      L1  H    14    48       P1  7948  1.00
      P1  H  7989  7998       L1     4  0.01

> <Gold.Chemscore.Hbond.Weighted>
-10.0387

> <Gold.Chemscore.Metal.Weighted>
-0.0000

> <Gold.Chemscore.Lipo.Weighted>
-9.0580

> <Gold.Chemscore.Internal_Hbond.Weighted>
0.0000

> <Gold.Chemscore.DEClash.Weighted>
0.0090

> <Gold.Chemscore.DEInternal.Weighted>
2.7148

> <Gold.Chemscore.Rot.Weighted>
7.0231

> <Gold.Chemscore.Internal.Correction.Weighted>
   9.000000E+99

> <Gold.Protein.RotatedTorsions>
[ 6907 6896 6895 6894 ] final  -91.55 input  -60.11 | X-H torsion
[ 7974 7965 7964 7962 ] final   42.56 input  175.53 | X-H torsion
[ 8008 7997 7996 7995 ] final  157.78 input   59.86 | X-H torsion
[ 10167 10162 10161 10158 ] final   10.66 input  -65.29 | X-H torsion
[ 10718 10713 10712 10709 ] final   55.15 input   66.30 | X-H torsion
[ 10763 10752 10751 10750 ] final -125.61 input  -60.55 | X-H torsion
[ 11005 11000 10999 10996 ] final  132.01 input  -57.11 | X-H torsion

> <Gold.Protein.ActiveResidues>
 VAL166  LYS551  ARG553  GLY616  TRP617  ASP618  TYR619  PRO620  LYS621  CYS622 
 ASP623  PHE694  ASN695  SER759  ASP760  ASP761  ALA762  ILE779  LEU786  VAL792 
 PHE793  MET794  SER795  GLU796  ALA797  LYS798  CYS799  TRP800  GLU811  SER814 

> <Gold.Protein.RotatedAtoms>
  150.6894  134.2259  159.4414 H   0  0  0  0  0  0  0  0  0  0  0  0  # atno 6907 bound_to 6896
  152.0212  134.9819  160.0580 H   0  0  0  0  0  0  0  0  0  0  0  0  # atno 6908 bound_to 6896
  152.1395  133.4420  159.4797 H   0  0  0  0  0  0  0  0  0  0  0  0  # atno 6909 bound_to 6896
  146.0730  139.5286  142.9586 H   0  0  0  0  0  0  0  0  0  0  0  0  # atno 7974 bound_to 7965
  156.2343  140.1876  156.7160 H   0  0  0  0  0  0  0  0  0  0  0  0  # atno 8008 bound_to 7997
  154.6078  140.0626  156.9481 H   0  0  0  0  0  0  0  0  0  0  0  0  # atno 8009 bound_to 7997
  155.2066  140.3296  155.4337 H   0  0  0  0  0  0  0  0  0  0  0  0  # atno 8010 bound_to 7997
  140.6180  143.8266  150.7141 H   0  0  0  0  0  0  0  0  0  0  0  0  # atno 10167 bound_to 10162
  157.5319  130.8636  149.8700 H   0  0  0  0  0  0  0  0  0  0  0  0  # atno 10718 bound_to 10713
  154.8737  135.4023  154.3296 H   0  0  0  0  0  0  0  0  0  0  0  0  # atno 10763 bound_to 10752
  153.4112  135.7021  153.6363 H   0  0  0  0  0  0  0  0  0  0  0  0  # atno 10764 bound_to 10752
  153.5065  135.3716  155.2536 H   0  0  0  0  0  0  0  0  0  0  0  0  # atno 10765 bound_to 10752
  139.9764  134.9562  156.9521 H   0  0  0  0  0  0  0  0  0  0  0  0  # atno 11005 bound_to 11000
  145.6358  141.0295  143.1839 LP  0  0  0  0  0  0  0  0  0  0  0  0  # atno 17320 bound_to 7965
  144.7243  139.7926  143.7370 LP  0  0  0  0  0  0  0  0  0  0  0  0  # atno 17321 bound_to 7965
  140.1849  143.4084  152.1906 LP  0  0  0  0  0  0  0  0  0  0  0  0  # atno 17342 bound_to 10162
  139.5415  144.7260  151.4719 LP  0  0  0  0  0  0  0  0  0  0  0  0  # atno 17343 bound_to 10162
  156.0429  130.3734  150.1390 LP  0  0  0  0  0  0  0  0  0  0  0  0  # atno 17370 bound_to 10713
  156.9574  130.9794  151.3486 LP  0  0  0  0  0  0  0  0  0  0  0  0  # atno 17371 bound_to 10713
  140.5185  134.0931  155.7286 LP  0  0  0  0  0  0  0  0  0  0  0  0  # atno 17394 bound_to 11000
  141.1441  133.9086  157.2257 LP  0  0  0  0  0  0  0  0  0  0  0  0  # atno 17395 bound_to 11000

$$$$
