AV-unprocessed.smi:2491|AV-procd|sdf|9809|dock1
  -GOLD-   2272013443D 1   1.00000     0.00000
 Structure written by MMmdl.
 27 28  0  0  0  0  0  0  0  0  1 V2000
  150.9206  138.7592  156.8954 N   0  0  0  0  0  0  0  0  0  0  0  0
  152.2362  138.9664  156.7974 C   0  0  0  0  0  0  0  0  0  0  0  0
  152.7572  139.3764  155.7614 O   0  0  0  0  0  0  0  0  0  0  0  0
  153.0849  138.6854  158.0522 C   0  0  2  0  0  0  0  0  0  0  0  0
  152.9247  137.1857  158.3998 C   0  0  0  0  0  0  0  0  0  0  0  0
  153.6608  136.8549  159.5695 O   0  0  0  0  0  0  0  0  0  0  0  0
  153.1834  137.5733  160.6969 C   0  0  0  0  0  0  0  0  0  0  0  0
  153.4011  139.0734  160.4595 C   0  0  0  0  0  0  0  0  0  0  0  0
  152.7549  139.5156  159.2241 N   0  0  0  0  0  0  0  0  0  0  0  0
  152.6330  140.8991  159.1070 C   0  0  0  0  0  0  0  0  0  0  0  0
  153.3211  141.6670  159.9640 N   0  0  0  0  0  0  0  0  0  0  0  0
  153.1805  143.0048  159.8463 C   0  0  0  0  0  0  0  0  0  0  0  0
  152.3391  143.5744  158.8711 C   0  0  0  0  0  0  0  0  0  0  0  0
  152.1549  145.2827  158.7164 Cl  0  0  0  0  0  0  0  0  0  0  0  0
  151.6545  142.6756  158.0297 C   0  0  0  0  0  0  0  0  0  0  0  0
  151.8010  141.3387  158.1551 N   0  0  0  0  0  0  0  0  0  0  0  0
  150.3274  138.9257  156.0954 H   0  0  0  0  0  0  0  0  0  0  0  0
  150.5239  138.4325  157.7643 H   0  0  0  0  0  0  0  0  0  0  0  0
  154.1335  138.8699  157.8103 H   0  0  0  0  0  0  0  0  0  0  0  0
  151.8749  136.9217  158.5443 H   0  0  0  0  0  0  0  0  0  0  0  0
  153.2931  136.5651  157.5819 H   0  0  0  0  0  0  0  0  0  0  0  0
  152.1295  137.3513  160.8745 H   0  0  0  0  0  0  0  0  0  0  0  0
  153.7313  137.2497  161.5820 H   0  0  0  0  0  0  0  0  0  0  0  0
  153.0206  139.6270  161.3189 H   0  0  0  0  0  0  0  0  0  0  0  0
  154.4687  139.2888  160.3951 H   0  0  0  0  0  0  0  0  0  0  0  0
  153.7416  143.6203  160.5339 H   0  0  0  0  0  0  0  0  0  0  0  0
  150.9867  143.0269  157.2571 H   0  0  0  0  0  0  0  0  0  0  0  0
  1  2  1  0  0  0  0
  1 17  1  0  0  0  0
  1 18  1  0  0  0  0
  2  3  2  0  0  0  0
  2  4  1  0  0  0  0
  4  9  1  0  0  0  0
  4  5  1  0  0  0  0
  4 19  1  0  0  0  0
  5  6  1  0  0  0  0
  5 20  1  0  0  0  0
  5 21  1  0  0  0  0
  6  7  1  0  0  0  0
  7  8  1  0  0  0  0
  7 22  1  0  0  0  0
  7 23  1  0  0  0  0
  8  9  1  0  0  0  0
  8 24  1  0  0  0  0
  8 25  1  0  0  0  0
  9 10  1  0  0  0  0
 10 16  1  0  0  0  0
 10 11  2  0  0  0  0
 11 12  1  0  0  0  0
 12 13  2  0  0  0  0
 12 26  1  0  0  0  0
 13 14  1  0  0  0  0
 13 15  1  0  0  0  0
 15 16  2  0  0  0  0
 15 27  1  0  0  0  0
M  END
> <s_m_source_file>
AV-unprocessed.smi

> <i_m_source_file_index>
2491

> <i_lp_mmshare_version>
43012

> <i_f3d_flags>
0

> <s_epik_input>
W05IMl1DKD1PKVtDQEBIXTFbQ0gyXU9bQ0gyXVtDSDJdTjFjMm5bY0hdYyhDbClbY0hdbjI=

> <s_epik_cmdline>
J2VwaWtfcHl0aG9uJywgJy1waCcsICc3LjAnLCAnLXRuJywgJzgnLCAnLW1hJywgJzIwMCcsICctbWV0YWxfYmluZGluZycsICctaW1hZScsICc8aW5maWxlLm1hZT4nLCAnLW9tYWUnLCAnPG91dGZpbGUubWFlPic=

> <r_lp_tautomer_probability>
1

> <r_epik_Ionization_Penalty>
2.68452e-07

> <r_epik_Ionization_Penalty_Charging>
0

> <r_epik_Ionization_Penalty_Neutral>
2.68452e-07

> <r_epik_State_Penalty>
-0

> <r_epik_Charging_Adjusted_Penalty>
0

> <i_epik_Tot_Q>
0

> <i_epik_Tot_abs_Q>
0

> <r_epik_Metal_State_Penalty>
-0

> <b_epik_Metal_Only>
0

> <s_lp_Force_Field>
OPLS_2005

> <r_lp_Energy>
10.3646

> <b_lp_Chiralities_Consistent>
1

> <s_lp_Variant>
AV-unprocessed.smi:2491-1

> <Gold.Version>
5.8.1

> <Gold.Id.Protein>
6NUR|6NUR_protein|mol2

> <Gold.PLP.Fitness>
29.7430

> <Gold.PLP.PLP>
-26.7553

> <Gold.PLP.part.hbond>
-1.0000

> <Gold.PLP.part.metal>
0.0000

> <Gold.PLP.part.buried>
-4.8074

> <Gold.PLP.part.nonpolar>
-20.4423

> <Gold.PLP.part.repulsive>
0.0129

> <Gold.PLP.ligand.clash>
0.0000

> <Gold.PLP.ligand.torsion>
0.2235

> <Gold.PLP.Chemscore.Hbond>
1.0000

> <Gold.PLP.Chemscore.CHOScore>
0.0000

> <Gold.PLP.Chemscore.Metal>
0.0000

> <Gold.Chemscore.Hbonds>
donor molecule, donor type, donor heavy atom, donor atom, acceptor molecule, acceptor atom, score
      P1  H  7997  8010       L1     3  1.00

> <Gold.PLP.Chemscore.Internal.Correction>
0.4347

> <Gold.Rescore>
     Score         DG    S(hbond)    S(metal)    S(lipo)     H(rot)  DE(clash)    DE(int)     intcor
     11.47     -13.20       0.99        0.00      70.18       1.49       0.00       1.73       ----

> <Gold.Chemscore.Fitness>
11.4675

> <Gold.Chemscore.DG>
-13.1955

> <Gold.Chemscore.ZeroCoef>
-5.4800

> <Gold.Chemscore.Hbond>
0.9917

> <Gold.Chemscore.Metal>
0.0000

> <Gold.Chemscore.Lipo>
70.1804

> <Gold.Chemscore.Internal_Hbond>
0.0000

> <Gold.Chemscore.DEClash>
0.0015

> <Gold.Chemscore.DEInternal>
1.7266

> <Gold.Chemscore.Rot>
1.4874

> <Gold.Chemscore.Internal.Correction>
   9.000000E+99

> <Gold.Chemscore.Hbonds>
donor molecule, donor type, donor heavy atom, donor atom, acceptor molecule, acceptor atom, score
      P1  H  7997  8010       L1     3  0.70

> <Gold.Chemscore.Hbond.Weighted>
-3.3121

> <Gold.Chemscore.Metal.Weighted>
-0.0000

> <Gold.Chemscore.Lipo.Weighted>
-8.2111

> <Gold.Chemscore.Internal_Hbond.Weighted>
0.0000

> <Gold.Chemscore.DEClash.Weighted>
0.0015

> <Gold.Chemscore.DEInternal.Weighted>
1.7266

> <Gold.Chemscore.Rot.Weighted>
3.8077

> <Gold.Chemscore.Internal.Correction.Weighted>
   9.000000E+99

> <Gold.Protein.RotatedTorsions>
[ 6907 6896 6895 6894 ] final -174.11 input  -60.11 | X-H torsion
[ 7974 7965 7964 7962 ] final  -50.57 input  175.53 | X-H torsion
[ 8008 7997 7996 7995 ] final   86.93 input   59.86 | X-H torsion
[ 10167 10162 10161 10158 ] final -102.38 input  -65.29 | X-H torsion
[ 10718 10713 10712 10709 ] final  132.91 input   66.30 | X-H torsion
[ 10763 10752 10751 10750 ] final   46.90 input  -60.55 | X-H torsion
[ 11005 11000 10999 10996 ] final  -86.57 input  -57.11 | X-H torsion

> <Gold.Protein.ActiveResidues>
 VAL166  LYS551  ARG553  GLY616  TRP617  ASP618  TYR619  PRO620  LYS621  CYS622 
 ASP623  PHE694  ASN695  SER759  ASP760  ASP761  ALA762  ILE779  LEU786  VAL792 
 PHE793  MET794  SER795  GLU796  ALA797  LYS798  CYS799  TRP800  GLU811  SER814 

> <Gold.Protein.RotatedAtoms>
  151.5671  133.3395  159.2982 H   0  0  0  0  0  0  0  0  0  0  0  0  # atno 6907 bound_to 6896
  150.8389  134.7676  159.6927 H   0  0  0  0  0  0  0  0  0  0  0  0  # atno 6908 bound_to 6896
  152.4460  134.5500  159.9915 H   0  0  0  0  0  0  0  0  0  0  0  0  # atno 6909 bound_to 6896
  145.9283  140.7772  142.9612 H   0  0  0  0  0  0  0  0  0  0  0  0  # atno 7974 bound_to 7965
  155.9690  140.3387  155.6558 H   0  0  0  0  0  0  0  0  0  0  0  0  # atno 8008 bound_to 7997
  155.6699  140.0725  157.2542 H   0  0  0  0  0  0  0  0  0  0  0  0  # atno 8009 bound_to 7997
  154.4161  140.1693  156.1855 H   0  0  0  0  0  0  0  0  0  0  0  0  # atno 8010 bound_to 7997
  140.2313  143.3605  152.0884 H   0  0  0  0  0  0  0  0  0  0  0  0  # atno 10167 bound_to 10162
  157.4825  131.1086  150.9663 H   0  0  0  0  0  0  0  0  0  0  0  0  # atno 10718 bound_to 10713
  152.9805  135.5993  154.3674 H   0  0  0  0  0  0  0  0  0  0  0  0  # atno 10763 bound_to 10752
  154.3351  135.2768  155.2454 H   0  0  0  0  0  0  0  0  0  0  0  0  # atno 10764 bound_to 10752
  154.4560  135.5978  153.6279 H   0  0  0  0  0  0  0  0  0  0  0  0  # atno 10765 bound_to 10752
  141.1628  133.7462  156.9180 H   0  0  0  0  0  0  0  0  0  0  0  0  # atno 11005 bound_to 11000
  144.6761  140.2087  143.7379 LP  0  0  0  0  0  0  0  0  0  0  0  0  # atno 17320 bound_to 7965
  145.8459  139.2152  143.1800 LP  0  0  0  0  0  0  0  0  0  0  0  0  # atno 17321 bound_to 7965
  139.5109  144.6892  151.5806 LP  0  0  0  0  0  0  0  0  0  0  0  0  # atno 17342 bound_to 10162
  140.6183  143.9306  150.6506 LP  0  0  0  0  0  0  0  0  0  0  0  0  # atno 17343 bound_to 10162
  157.0391  130.5742  149.5353 LP  0  0  0  0  0  0  0  0  0  0  0  0  # atno 17370 bound_to 10713
  156.0129  130.5222  150.8045 LP  0  0  0  0  0  0  0  0  0  0  0  0  # atno 17371 bound_to 10713
  140.1471  134.9255  157.2544 LP  0  0  0  0  0  0  0  0  0  0  0  0  # atno 17394 bound_to 11000
  140.2767  134.3397  155.7356 LP  0  0  0  0  0  0  0  0  0  0  0  0  # atno 17395 bound_to 11000

$$$$
