AV-unprocessed.smi:2960|AV-procd|sdf|11312|dock8
  -GOLD-   2272016213D 1   1.00000     0.00000
 Structure written by MMmdl.
 49 51  0  0  0  0  0  0  0  0  2 V2000
  150.9538  132.5766  156.1023 C   0  0  0  0  0  0  0  0  0  0  0  0
  150.5115  133.9777  156.5105 C   0  0  0  0  0  0  0  0  0  0  0  0
  149.8320  134.1415  157.5236 O   0  0  0  0  0  0  0  0  0  0  0  0
  150.9050  134.9810  155.7118 N   0  0  0  0  0  0  0  0  0  0  0  0
  150.5804  136.3877  155.9157 C   0  0  0  0  0  0  0  0  0  0  0  0
  150.8466  137.2231  154.6525 C   0  0  0  0  0  0  0  0  0  0  0  0
  149.8749  138.3520  154.5253 C   0  0  0  0  0  0  0  0  0  0  0  0
  149.0022  138.5306  153.4932 N   0  3  0  0  0  0  0  0  0  0  0  0
  148.2574  139.6926  153.6975 C   0  0  0  0  0  0  0  0  0  0  0  0
  147.2559  140.2810  152.9312 C   0  0  0  0  0  0  0  0  0  0  0  0
  146.6978  141.4766  153.4297 C   0  0  0  0  0  0  0  0  0  0  0  0
  147.1378  142.0423  154.6443 C   0  0  0  0  0  0  0  0  0  0  0  0
  148.1542  141.4364  155.4121 C   0  0  0  0  0  0  0  0  0  0  0  0
  148.7003  140.2546  154.9121 C   0  0  0  0  0  0  0  0  0  0  0  0
  149.7018  139.3989  155.3848 N   0  0  0  0  0  0  0  0  0  0  0  0
  150.3758  139.7262  156.6492 C   0  0  0  0  0  0  0  0  0  0  0  0
  151.7873  140.2849  156.4245 C   0  0  0  0  0  0  0  0  0  0  0  0
  152.5339  140.1195  157.6210 O   0  0  0  0  0  0  0  0  0  0  0  0
  152.3760  141.0549  158.6214 C   0  0  0  0  0  0  0  0  0  0  0  0
  153.0786  140.8320  159.8234 C   0  0  0  0  0  0  0  0  0  0  0  0
  152.9785  141.7381  160.8964 C   0  0  0  0  0  0  0  0  0  0  0  0
  152.1697  142.8851  160.7801 C   0  0  0  0  0  0  0  0  0  0  0  0
  152.0675  143.8582  161.9366 C   0  0  0  0  0  0  0  0  0  0  0  0
  151.4614  143.1178  159.5844 C   0  0  0  0  0  0  0  0  0  0  0  0
  151.5615  142.2105  158.5117 C   0  0  0  0  0  0  0  0  0  0  0  0
  152.0419  132.5185  156.0552 H   0  0  0  0  0  0  0  0  0  0  0  0
  150.5512  132.3208  155.1218 H   0  0  0  0  0  0  0  0  0  0  0  0
  150.6032  131.8340  156.8204 H   0  0  0  0  0  0  0  0  0  0  0  0
  151.4596  134.7520  154.8992 H   0  0  0  0  0  0  0  0  0  0  0  0
  149.5284  136.4505  156.1910 H   0  0  0  0  0  0  0  0  0  0  0  0
  151.1470  136.7806  156.7619 H   0  0  0  0  0  0  0  0  0  0  0  0
  151.8556  137.6364  154.6778 H   0  0  0  0  0  0  0  0  0  0  0  0
  150.7939  136.5964  153.7622 H   0  0  0  0  0  0  0  0  0  0  0  0
  146.9174  139.8501  152.0004 H   0  0  0  0  0  0  0  0  0  0  0  0
  145.9165  141.9698  152.8696 H   0  0  0  0  0  0  0  0  0  0  0  0
  146.6871  142.9597  154.9944 H   0  0  0  0  0  0  0  0  0  0  0  0
  148.4854  141.8777  156.3407 H   0  0  0  0  0  0  0  0  0  0  0  0
  149.7570  140.4345  157.2011 H   0  0  0  0  0  0  0  0  0  0  0  0
  150.4235  138.8214  157.2546 H   0  0  0  0  0  0  0  0  0  0  0  0
  152.2678  139.7523  155.6032 H   0  0  0  0  0  0  0  0  0  0  0  0
  151.7364  141.3420  156.1596 H   0  0  0  0  0  0  0  0  0  0  0  0
  153.7025  139.9560  159.9239 H   0  0  0  0  0  0  0  0  0  0  0  0
  153.5250  141.5503  161.8092 H   0  0  0  0  0  0  0  0  0  0  0  0
  151.4234  144.7031  161.6909 H   0  0  0  0  0  0  0  0  0  0  0  0
  153.0538  144.2459  162.1924 H   0  0  0  0  0  0  0  0  0  0  0  0
  151.6555  143.3599  162.8147 H   0  0  0  0  0  0  0  0  0  0  0  0
  150.8378  143.9941  159.4834 H   0  0  0  0  0  0  0  0  0  0  0  0
  151.0027  142.4261  157.6139 H   0  0  0  0  0  0  0  0  0  0  0  0
  148.9238  137.8990  152.7062 H   0  0  0  0  0  0  0  0  0  0  0  0
  1  2  1  0  0  0  0
  1 26  1  0  0  0  0
  1 27  1  0  0  0  0
  1 28  1  0  0  0  0
  2  3  2  0  0  0  0
  2  4  1  0  0  0  0
  4  5  1  0  0  0  0
  4 29  1  0  0  0  0
  5  6  1  0  0  0  0
  5 30  1  0  0  0  0
  5 31  1  0  0  0  0
  6  7  1  0  0  0  0
  6 32  1  0  0  0  0
  6 33  1  0  0  0  0
  7 15  1  0  0  0  0
  7  8  2  0  0  0  0
  8  9  1  0  0  0  0
  8 49  1  0  0  0  0
  9 14  2  0  0  0  0
  9 10  1  0  0  0  0
 10 11  2  0  0  0  0
 10 34  1  0  0  0  0
 11 12  1  0  0  0  0
 11 35  1  0  0  0  0
 12 13  2  0  0  0  0
 12 36  1  0  0  0  0
 13 14  1  0  0  0  0
 13 37  1  0  0  0  0
 14 15  1  0  0  0  0
 15 16  1  0  0  0  0
 16 17  1  0  0  0  0
 16 38  1  0  0  0  0
 16 39  1  0  0  0  0
 17 18  1  0  0  0  0
 17 40  1  0  0  0  0
 17 41  1  0  0  0  0
 18 19  1  0  0  0  0
 19 25  1  0  0  0  0
 19 20  2  0  0  0  0
 20 21  1  0  0  0  0
 20 42  1  0  0  0  0
 21 22  2  0  0  0  0
 21 43  1  0  0  0  0
 22 23  1  0  0  0  0
 22 24  1  0  0  0  0
 23 44  1  0  0  0  0
 23 45  1  0  0  0  0
 23 46  1  0  0  0  0
 24 25  2  0  0  0  0
 24 47  1  0  0  0  0
 25 48  1  0  0  0  0
M  CHG  1   8   1
M  END
> <s_m_source_file>
AV-unprocessed.smi

> <i_m_source_file_index>
2960

> <i_lp_mmshare_version>
43012

> <i_f3d_flags>
0

> <s_epik_input>
W0NIM11DKD1PKVtOSF1bQ0gyXVtDSDJdYyhuMSluKGMoYzEyKVtjSF1bY0hdW2NIXVtjSF0yKVtDSDJdW0NIMl1PYzNbY0hdW2NIXWMoW0NIM10pW2NIXVtjSF0z

> <s_epik_cmdline>
J2VwaWtfcHl0aG9uJywgJy1waCcsICc3LjAnLCAnLXRuJywgJzgnLCAnLW1hJywgJzIwMCcsICctbWV0YWxfYmluZGluZycsICctaW1hZScsICc8aW5maWxlLm1hZT4nLCAnLW9tYWUnLCAnPG91dGZpbGUubWFlPic=

> <r_lp_tautomer_probability>
1

> <r_epik_Ionization_Penalty>
1.10884

> <r_epik_Ionization_Penalty_Charging>
1.10884

> <r_epik_Ionization_Penalty_Neutral>
3.05925e-07

> <r_epik_State_Penalty>
1.16664

> <r_epik_Charging_Adjusted_Penalty>
2.27548

> <i_epik_Tot_Q>
1

> <i_epik_Tot_abs_Q>
1

> <r_epik_Metal_State_Penalty>
1.2527

> <b_epik_Metal_Only>
0

> <s_lp_Force_Field>
OPLS_2005

> <r_lp_Energy>
19.8643

> <b_lp_Chiralities_Consistent>
1

> <s_lp_Variant>
AV-unprocessed.smi:2960-2

> <Gold.Version>
5.8.1

> <Gold.Id.Protein>
6NUR|6NUR_protein|mol2

> <Gold.PLP.Fitness>
59.4618

> <Gold.PLP.PLP>
-48.8831

> <Gold.PLP.part.hbond>
-4.0000

> <Gold.PLP.part.metal>
0.0000

> <Gold.PLP.part.buried>
-2.2539

> <Gold.PLP.part.nonpolar>
-43.2661

> <Gold.PLP.part.repulsive>
0.1916

> <Gold.PLP.ligand.clash>
0.0000

> <Gold.PLP.ligand.torsion>
0.7336

> <Gold.PLP.Chemscore.Hbond>
3.9920

> <Gold.PLP.Chemscore.CHOScore>
0.0000

> <Gold.PLP.Chemscore.Metal>
0.0000

> <Gold.Chemscore.Hbonds>
donor molecule, donor type, donor heavy atom, donor atom, acceptor molecule, acceptor atom, score
      L1  H     8    49       P1  7948  2.00
      P1  H  6896  6907       L1     3  1.00
      P1  H  7997  8010       L1    18  0.85

> <Gold.PLP.Chemscore.Internal.Correction>
0.0700

> <Gold.Rescore>
     Score         DG    S(hbond)    S(metal)    S(lipo)     H(rot)  DE(clash)    DE(int)     intcor
     22.68     -23.76       2.68        0.00     127.25       2.18       0.23       0.85       ----

> <Gold.Chemscore.Fitness>
22.6769

> <Gold.Chemscore.DG>
-23.7551

> <Gold.Chemscore.ZeroCoef>
-5.4800

> <Gold.Chemscore.Hbond>
2.6845

> <Gold.Chemscore.Metal>
0.0000

> <Gold.Chemscore.Lipo>
127.2486

> <Gold.Chemscore.Internal_Hbond>
0.0000

> <Gold.Chemscore.DEClash>
0.2279

> <Gold.Chemscore.DEInternal>
0.8503

> <Gold.Chemscore.Rot>
2.1793

> <Gold.Chemscore.Internal.Correction>
   9.000000E+99

> <Gold.Chemscore.Hbonds>
donor molecule, donor type, donor heavy atom, donor atom, acceptor molecule, acceptor atom, score
      L1  H     8    49       P1  7948  0.98
      P1  H  6896  6907       L1     3  0.85
      P1  H  7997  8010       L1    18  0.16

> <Gold.Chemscore.Hbond.Weighted>
-8.9661

> <Gold.Chemscore.Metal.Weighted>
-0.0000

> <Gold.Chemscore.Lipo.Weighted>
-14.8881

> <Gold.Chemscore.Internal_Hbond.Weighted>
0.0000

> <Gold.Chemscore.DEClash.Weighted>
0.2279

> <Gold.Chemscore.DEInternal.Weighted>
0.8503

> <Gold.Chemscore.Rot.Weighted>
5.5791

> <Gold.Chemscore.Internal.Correction.Weighted>
   9.000000E+99

> <Gold.Protein.RotatedTorsions>
[ 6907 6896 6895 6894 ] final -116.08 input  -60.11 | X-H torsion
[ 7974 7965 7964 7962 ] final   69.83 input  175.53 | X-H torsion
[ 8008 7997 7996 7995 ] final   50.32 input   59.86 | X-H torsion
[ 10167 10162 10161 10158 ] final   90.27 input  -65.29 | X-H torsion
[ 10718 10713 10712 10709 ] final  -91.89 input   66.30 | X-H torsion
[ 10763 10752 10751 10750 ] final  -67.26 input  -60.55 | X-H torsion
[ 11005 11000 10999 10996 ] final -128.14 input  -57.11 | X-H torsion

> <Gold.Protein.ActiveResidues>
 VAL166  LYS551  ARG553  GLY616  TRP617  ASP618  TYR619  PRO620  LYS621  CYS622 
 ASP623  PHE694  ASN695  SER759  ASP760  ASP761  ALA762  ILE779  LEU786  VAL792 
 PHE793  MET794  SER795  GLU796  ALA797  LYS798  CYS799  TRP800  GLU811  SER814 

> <Gold.Protein.RotatedAtoms>
  150.8027  133.8568  159.3220 H   0  0  0  0  0  0  0  0  0  0  0  0  # atno 6907 bound_to 6896
  151.6375  135.1014  160.0144 H   0  0  0  0  0  0  0  0  0  0  0  0  # atno 6908 bound_to 6896
  152.4116  133.6932  159.6438 H   0  0  0  0  0  0  0  0  0  0  0  0  # atno 6909 bound_to 6896
  145.7856  139.2908  143.1240 H   0  0  0  0  0  0  0  0  0  0  0  0  # atno 7974 bound_to 7965
  155.4168  140.3445  155.4268 H   0  0  0  0  0  0  0  0  0  0  0  0  # atno 8008 bound_to 7997
  156.1416  140.1544  156.8943 H   0  0  0  0  0  0  0  0  0  0  0  0  # atno 8009 bound_to 7997
  154.4976  140.0823  156.7710 H   0  0  0  0  0  0  0  0  0  0  0  0  # atno 8010 bound_to 7997
  139.8489  144.6603  150.9193 H   0  0  0  0  0  0  0  0  0  0  0  0  # atno 10167 bound_to 10162
  155.9997  130.4966  150.5543 H   0  0  0  0  0  0  0  0  0  0  0  0  # atno 10718 bound_to 10713
  154.3718  135.6093  153.5744 H   0  0  0  0  0  0  0  0  0  0  0  0  # atno 10763 bound_to 10752
  152.9790  135.5840  154.4512 H   0  0  0  0  0  0  0  0  0  0  0  0  # atno 10764 bound_to 10752
  154.4267  135.2847  155.1917 H   0  0  0  0  0  0  0  0  0  0  0  0  # atno 10765 bound_to 10752
  140.9541  134.1026  157.4034 H   0  0  0  0  0  0  0  0  0  0  0  0  # atno 11005 bound_to 11000
  146.0030  140.8504  143.0009 LP  0  0  0  0  0  0  0  0  0  0  0  0  # atno 17320 bound_to 7965
  144.6789  140.2379  143.7347 LP  0  0  0  0  0  0  0  0  0  0  0  0  # atno 17321 bound_to 7965
  140.7790  143.3845  151.1419 LP  0  0  0  0  0  0  0  0  0  0  0  0  # atno 17342 bound_to 10162
  139.7484  143.8816  152.3070 LP  0  0  0  0  0  0  0  0  0  0  0  0  # atno 17343 bound_to 10162
  157.3461  131.0725  151.1750 LP  0  0  0  0  0  0  0  0  0  0  0  0  # atno 17370 bound_to 10713
  157.2582  130.6646  149.5962 LP  0  0  0  0  0  0  0  0  0  0  0  0  # atno 17371 bound_to 10713
  139.8856  135.0074  156.6448 LP  0  0  0  0  0  0  0  0  0  0  0  0  # atno 17394 bound_to 11000
  140.7561  133.8856  155.8383 LP  0  0  0  0  0  0  0  0  0  0  0  0  # atno 17395 bound_to 11000

$$$$
