AV-unprocessed.smi:1999|AV-procd|sdf|8093|dock4
  -GOLD-   2272010313D 1   1.00000     0.00000
 Structure written by MMmdl.
 38 39  0  0  0  0  0  0  0  0  1 V2000
  150.6642  142.0255  156.2281 C   0  0  0  0  0  0  0  0  0  0  0  0
  150.2891  140.8572  155.3824 C   0  0  0  0  0  0  0  0  0  0  0  0
  151.1690  139.9164  155.0192 N   0  0  0  0  0  0  0  0  0  0  0  0
  150.5892  138.9274  154.2367 N   0  0  0  0  0  0  0  0  0  0  0  0
  149.2836  139.1518  154.0343 C   0  0  0  0  0  0  0  0  0  0  0  0
  148.4455  138.2992  153.2682 N   0  0  0  0  0  0  0  0  0  0  0  0
  147.1081  138.3448  153.1348 C   0  0  0  0  0  0  0  0  0  0  0  0
  146.3671  139.1713  153.6677 O   0  0  0  0  0  0  0  0  0  0  0  0
  146.6686  137.3639  152.3324 N   0  0  0  0  0  0  0  0  0  0  0  0
  145.2743  137.1216  151.9720 C   0  0  1  0  0  0  0  0  0  0  0  0
  145.1966  135.9726  150.9518 C   0  0  0  0  0  0  0  0  0  0  0  0
  144.4798  136.8163  153.2586 C   0  0  0  0  0  0  0  0  0  0  0  0
  143.0704  136.4695  153.0710 N   0  0  0  0  0  0  0  0  0  0  0  0
  142.1724  137.2833  153.8886 C   0  0  0  0  0  0  0  0  0  0  0  0
  140.6994  136.8797  153.6997 C   0  0  0  0  0  0  0  0  0  0  0  0
  140.5391  135.4953  153.9906 O   0  0  0  0  0  0  0  0  0  0  0  0
  141.3631  134.6664  153.1780 C   0  0  0  0  0  0  0  0  0  0  0  0
  142.8372  135.0609  153.3714 C   0  0  0  0  0  0  0  0  0  0  0  0
  148.6518  140.6052  154.7893 S   0  0  0  0  0  0  0  0  0  0  0  0
  151.6874  142.3362  156.0146 H   0  0  0  0  0  0  0  0  0  0  0  0
  150.5904  141.7604  157.2827 H   0  0  0  0  0  0  0  0  0  0  0  0
  149.9975  142.8647  156.0297 H   0  0  0  0  0  0  0  0  0  0  0  0
  148.9210  137.5667  152.7623 H   0  0  0  0  0  0  0  0  0  0  0  0
  147.3513  136.7337  151.9382 H   0  0  0  0  0  0  0  0  0  0  0  0
  144.8778  138.0278  151.5134 H   0  0  0  0  0  0  0  0  0  0  0  0
  144.1682  135.7919  150.6383 H   0  0  0  0  0  0  0  0  0  0  0  0
  145.5850  135.0433  151.3695 H   0  0  0  0  0  0  0  0  0  0  0  0
  145.7727  136.2012  150.0546 H   0  0  0  0  0  0  0  0  0  0  0  0
  144.9791  135.9922  153.7702 H   0  0  0  0  0  0  0  0  0  0  0  0
  144.5508  137.6698  153.9352 H   0  0  0  0  0  0  0  0  0  0  0  0
  142.4412  137.1877  154.9416 H   0  0  0  0  0  0  0  0  0  0  0  0
  142.2753  138.3370  153.6327 H   0  0  0  0  0  0  0  0  0  0  0  0
  140.0589  137.4600  154.3638 H   0  0  0  0  0  0  0  0  0  0  0  0
  140.3719  137.0837  152.6791 H   0  0  0  0  0  0  0  0  0  0  0  0
  141.2087  133.6246  153.4598 H   0  0  0  0  0  0  0  0  0  0  0  0
  141.0705  134.7631  152.1313 H   0  0  0  0  0  0  0  0  0  0  0  0
  143.4624  134.4372  152.7315 H   0  0  0  0  0  0  0  0  0  0  0  0
  143.1338  134.8482  154.3996 H   0  0  0  0  0  0  0  0  0  0  0  0
  1  2  1  0  0  0  0
  1 20  1  0  0  0  0
  1 21  1  0  0  0  0
  1 22  1  0  0  0  0
  2 19  1  0  0  0  0
  2  3  2  0  0  0  0
  3  4  1  0  0  0  0
  4  5  2  0  0  0  0
  5  6  1  0  0  0  0
  5 19  1  0  0  0  0
  6  7  1  0  0  0  0
  6 23  1  0  0  0  0
  7  8  2  0  0  0  0
  7  9  1  0  0  0  0
  9 10  1  0  0  0  0
  9 24  1  0  0  0  0
 10 11  1  0  0  0  0
 10 12  1  0  0  0  0
 10 25  1  0  0  0  0
 11 26  1  0  0  0  0
 11 27  1  0  0  0  0
 11 28  1  0  0  0  0
 12 13  1  0  0  0  0
 12 29  1  0  0  0  0
 12 30  1  0  0  0  0
 13 18  1  0  0  0  0
 13 14  1  0  0  0  0
 14 15  1  0  0  0  0
 14 31  1  0  0  0  0
 14 32  1  0  0  0  0
 15 16  1  0  0  0  0
 15 33  1  0  0  0  0
 15 34  1  0  0  0  0
 16 17  1  0  0  0  0
 17 18  1  0  0  0  0
 17 35  1  0  0  0  0
 17 36  1  0  0  0  0
 18 37  1  0  0  0  0
 18 38  1  0  0  0  0
M  END
> <s_m_source_file>
AV-unprocessed.smi

> <i_m_source_file_index>
1999

> <i_lp_mmshare_version>
43012

> <i_f3d_flags>
0

> <s_epik_input>
W0NIM11jMW5uYyhzMSlbTkhdQyg9TylbTkhdW0NASF0oW0NIM10pW0NIMl1OMltDSDJdW0NIMl1PW0NIMl1bQ0gyXTI=

> <s_epik_cmdline>
J2VwaWtfcHl0aG9uJywgJy1waCcsICc3LjAnLCAnLXRuJywgJzgnLCAnLW1hJywgJzIwMCcsICctbWV0YWxfYmluZGluZycsICctaW1hZScsICc8aW5maWxlLm1hZT4nLCAnLW9tYWUnLCAnPG91dGZpbGUubWFlPic=

> <r_lp_tautomer_probability>
1

> <r_epik_Ionization_Penalty>
0.221412

> <r_epik_Ionization_Penalty_Charging>
0

> <r_epik_Ionization_Penalty_Neutral>
0.221412

> <r_epik_State_Penalty>
0.209349

> <r_epik_Charging_Adjusted_Penalty>
0.209349

> <i_epik_Tot_Q>
0

> <i_epik_Tot_abs_Q>
0

> <r_epik_Metal_State_Penalty>
0.56886

> <b_epik_Metal_Only>
0

> <s_lp_Force_Field>
OPLS_2005

> <r_lp_Energy>
22.0732

> <b_lp_Chiralities_Consistent>
1

> <s_lp_Variant>
AV-unprocessed.smi:1999-2

> <Gold.Version>
5.8.1

> <Gold.Id.Protein>
6NUR|6NUR_protein|mol2

> <Gold.PLP.Fitness>
39.7569

> <Gold.PLP.PLP>
-31.1522

> <Gold.PLP.part.hbond>
-5.3715

> <Gold.PLP.part.metal>
0.0000

> <Gold.PLP.part.buried>
-1.6550

> <Gold.PLP.part.nonpolar>
-24.9622

> <Gold.PLP.part.repulsive>
0.8147

> <Gold.PLP.ligand.clash>
0.0000

> <Gold.PLP.ligand.torsion>
0.7470

> <Gold.PLP.Chemscore.Hbond>
3.3495

> <Gold.PLP.Chemscore.CHOScore>
0.0000

> <Gold.PLP.Chemscore.Metal>
0.0000

> <Gold.Chemscore.Hbonds>
donor molecule, donor type, donor heavy atom, donor atom, acceptor molecule, acceptor atom, score
      L1  H     6    23       P1  7948  1.00
      L1  H     9    24       P1  7948  0.99
      P1  H  7989  7998       L1     3  0.33
      P1  H 11000 11005       L1    16  0.86

> <Gold.PLP.Chemscore.Internal.Correction>
0.0502

> <Gold.Rescore>
     Score         DG    S(hbond)    S(metal)    S(lipo)     H(rot)  DE(clash)    DE(int)     intcor
     15.40     -17.51       2.87        0.00      55.71       1.58       0.11       2.01       ----

> <Gold.Chemscore.Fitness>
15.3964

> <Gold.Chemscore.DG>
-17.5144

> <Gold.Chemscore.ZeroCoef>
-5.4800

> <Gold.Chemscore.Hbond>
2.8653

> <Gold.Chemscore.Metal>
0.0000

> <Gold.Chemscore.Lipo>
55.7131

> <Gold.Chemscore.Internal_Hbond>
0.0000

> <Gold.Chemscore.DEClash>
0.1066

> <Gold.Chemscore.DEInternal>
2.0114

> <Gold.Chemscore.Rot>
1.5837

> <Gold.Chemscore.Internal.Correction>
   9.000000E+99

> <Gold.Chemscore.Hbonds>
donor molecule, donor type, donor heavy atom, donor atom, acceptor molecule, acceptor atom, score
      L1  H     6    23       P1  7948  0.95
      L1  H     9    24       P1  7948  0.93
      P1  H 11000 11005       L1    16  0.50

> <Gold.Chemscore.Hbond.Weighted>
-9.5701

> <Gold.Chemscore.Metal.Weighted>
-0.0000

> <Gold.Chemscore.Lipo.Weighted>
-6.5184

> <Gold.Chemscore.Internal_Hbond.Weighted>
0.0000

> <Gold.Chemscore.DEClash.Weighted>
0.1066

> <Gold.Chemscore.DEInternal.Weighted>
2.0114

> <Gold.Chemscore.Rot.Weighted>
4.0542

> <Gold.Chemscore.Internal.Correction.Weighted>
   9.000000E+99

> <Gold.Protein.RotatedTorsions>
[ 6907 6896 6895 6894 ] final -104.19 input  -60.11 | X-H torsion
[ 7974 7965 7964 7962 ] final   14.28 input  175.53 | X-H torsion
[ 8008 7997 7996 7995 ] final -139.94 input   59.86 | X-H torsion
[ 10167 10162 10161 10158 ] final -144.25 input  -65.29 | X-H torsion
[ 10718 10713 10712 10709 ] final   29.76 input   66.30 | X-H torsion
[ 10763 10752 10751 10750 ] final  111.89 input  -60.55 | X-H torsion
[ 11005 11000 10999 10996 ] final   43.51 input  -57.11 | X-H torsion

> <Gold.Protein.ActiveResidues>
 VAL166  LYS551  ARG553  GLY616  TRP617  ASP618  TYR619  PRO620  LYS621  CYS622 
 ASP623  PHE694  ASN695  SER759  ASP760  ASP761  ALA762  ILE779  LEU786  VAL792 
 PHE793  MET794  SER795  GLU796  ALA797  LYS798  CYS799  TRP800  GLU811  SER814 

> <Gold.Protein.RotatedAtoms>
  150.7275  134.0315  159.3734 H   0  0  0  0  0  0  0  0  0  0  0  0  # atno 6907 bound_to 6896
  151.8284  135.0627  160.0443 H   0  0  0  0  0  0  0  0  0  0  0  0  # atno 6908 bound_to 6896
  152.2952  133.5564  159.5619 H   0  0  0  0  0  0  0  0  0  0  0  0  # atno 6909 bound_to 6896
  146.2309  139.9065  142.8531 H   0  0  0  0  0  0  0  0  0  0  0  0  # atno 7974 bound_to 7965
  155.4531  140.0540  157.2999 H   0  0  0  0  0  0  0  0  0  0  0  0  # atno 8008 bound_to 7997
  154.4769  140.2065  155.9813 H   0  0  0  0  0  0  0  0  0  0  0  0  # atno 8009 bound_to 7997
  156.1145  140.3198  155.8125 H   0  0  0  0  0  0  0  0  0  0  0  0  # atno 8010 bound_to 7997
  139.7916  143.7958  152.2650 H   0  0  0  0  0  0  0  0  0  0  0  0  # atno 10167 bound_to 10162
  157.2507  130.7114  149.6404 H   0  0  0  0  0  0  0  0  0  0  0  0  # atno 10718 bound_to 10713
  153.4699  135.3703  155.2385 H   0  0  0  0  0  0  0  0  0  0  0  0  # atno 10763 bound_to 10752
  154.8757  135.3929  154.3824 H   0  0  0  0  0  0  0  0  0  0  0  0  # atno 10764 bound_to 10752
  153.4411  135.7084  153.6233 H   0  0  0  0  0  0  0  0  0  0  0  0  # atno 10765 bound_to 10752
  140.1638  134.4308  155.8300 H   0  0  0  0  0  0  0  0  0  0  0  0  # atno 11005 bound_to 11000
  145.2272  140.9958  143.4011 LP  0  0  0  0  0  0  0  0  0  0  0  0  # atno 17320 bound_to 7965
  144.9561  139.4030  143.6379 LP  0  0  0  0  0  0  0  0  0  0  0  0  # atno 17321 bound_to 7965
  139.8051  144.7358  150.9772 LP  0  0  0  0  0  0  0  0  0  0  0  0  # atno 17342 bound_to 10162
  140.7820  143.4306  151.0700 LP  0  0  0  0  0  0  0  0  0  0  0  0  # atno 17343 bound_to 10162
  155.9666  130.4428  150.5397 LP  0  0  0  0  0  0  0  0  0  0  0  0  # atno 17370 bound_to 10713
  157.3281  131.0694  151.1882 LP  0  0  0  0  0  0  0  0  0  0  0  0  # atno 17371 bound_to 10713
  141.2212  133.6925  156.7641 LP  0  0  0  0  0  0  0  0  0  0  0  0  # atno 17394 bound_to 11000
  140.2458  134.8578  157.3619 LP  0  0  0  0  0  0  0  0  0  0  0  0  # atno 17395 bound_to 11000

$$$$
