AV-unprocessed.smi:2881|AV-procd|sdf|11062|dock1
  -GOLD-   2272015533D 1   1.00000     0.00000
 Structure written by MMmdl.
 40 42  0  0  0  0  0  0  0  0  1 V2000
  145.8165  143.4832  153.5395 C   0  0  0  0  0  0  0  0  0  0  0  0
  146.7329  142.6053  154.3219 C   0  0  0  0  0  0  0  0  0  0  0  0
  147.6174  141.6414  153.9281 C   0  0  0  0  0  0  0  0  0  0  0  0
  148.1936  141.1713  155.1454 C   0  0  0  0  0  0  0  0  0  0  0  0
  149.2440  140.1080  155.3213 C   0  0  0  0  0  0  0  0  0  0  0  0
  150.5349  140.7307  155.8531 C   0  0  0  0  0  0  0  0  0  0  0  0
  151.6075  140.4952  155.2972 O   0  0  0  0  0  0  0  0  0  0  0  0
  150.4170  141.5247  156.9284 N   0  0  0  0  0  0  0  0  0  0  0  0
  151.5188  142.2290  157.5782 C   0  0  1  0  0  0  0  0  0  0  0  0
  151.1978  143.7344  157.7076 C   0  0  2  0  0  0  0  0  0  0  0  0
  152.5028  144.4942  158.0057 C   0  0  0  0  0  0  0  0  0  0  0  0
  152.7920  144.0983  159.4657 C   0  0  0  0  0  0  0  0  0  0  0  0
  151.6218  143.1504  159.8066 C   0  0  1  0  0  0  0  0  0  0  0  0
  150.4791  143.8174  159.0515 C   0  0  0  0  0  0  0  0  0  0  0  0
  151.7256  141.8002  159.0538 C   0  0  2  0  0  0  0  0  0  0  0  0
  153.0101  140.9833  159.2967 C   0  0  0  0  0  0  0  0  0  0  0  0
  153.1907  140.0302  158.2710 O   0  0  0  0  0  0  0  0  0  0  0  0
  147.6988  141.7895  156.2092 N   0  0  0  0  0  0  0  0  0  0  0  0
  146.8123  142.6614  155.6942 N   0  0  0  0  0  0  0  0  0  0  0  0
  146.2750  143.2815  156.2836 H   0  0  0  0  0  0  0  0  0  0  0  0
  146.0327  143.4195  152.4728 H   0  0  0  0  0  0  0  0  0  0  0  0
  145.9233  144.5252  153.8419 H   0  0  0  0  0  0  0  0  0  0  0  0
  144.7774  143.1906  153.6910 H   0  0  0  0  0  0  0  0  0  0  0  0
  147.8285  141.3205  152.9187 H   0  0  0  0  0  0  0  0  0  0  0  0
  148.9049  139.3281  156.0050 H   0  0  0  0  0  0  0  0  0  0  0  0
  149.4470  139.6168  154.3690 H   0  0  0  0  0  0  0  0  0  0  0  0
  149.4946  141.6639  157.3154 H   0  0  0  0  0  0  0  0  0  0  0  0
  152.4249  142.0907  156.9850 H   0  0  0  0  0  0  0  0  0  0  0  0
  150.6458  144.1462  156.8617 H   0  0  0  0  0  0  0  0  0  0  0  0
  153.3119  144.2167  157.3293 H   0  0  0  0  0  0  0  0  0  0  0  0
  152.3541  145.5716  157.9241 H   0  0  0  0  0  0  0  0  0  0  0  0
  153.7723  143.6420  159.5947 H   0  0  0  0  0  0  0  0  0  0  0  0
  152.7631  144.9809  160.1060 H   0  0  0  0  0  0  0  0  0  0  0  0
  151.4504  143.0385  160.8776 H   0  0  0  0  0  0  0  0  0  0  0  0
  150.2833  144.8414  159.3753 H   0  0  0  0  0  0  0  0  0  0  0  0
  149.5470  143.2503  159.0826 H   0  0  0  0  0  0  0  0  0  0  0  0
  150.8810  141.1845  159.3704 H   0  0  0  0  0  0  0  0  0  0  0  0
  153.8753  141.6459  159.3003 H   0  0  0  0  0  0  0  0  0  0  0  0
  153.0003  140.4829  160.2643 H   0  0  0  0  0  0  0  0  0  0  0  0
  152.5521  139.3428  158.3845 H   0  0  0  0  0  0  0  0  0  0  0  0
  1  2  1  0  0  0  0
  1 21  1  0  0  0  0
  1 22  1  0  0  0  0
  1 23  1  0  0  0  0
  2 19  1  0  0  0  0
  2  3  2  0  0  0  0
  3  4  1  0  0  0  0
  3 24  1  0  0  0  0
  4  5  1  0  0  0  0
  4 18  2  0  0  0  0
  5  6  1  0  0  0  0
  5 25  1  0  0  0  0
  5 26  1  0  0  0  0
  6  7  2  0  0  0  0
  6  8  1  0  0  0  0
  8  9  1  0  0  0  0
  8 27  1  0  0  0  0
  9 15  1  0  0  0  0
  9 10  1  0  0  0  0
  9 28  1  0  0  0  0
 10 14  1  0  0  0  0
 10 11  1  0  0  0  0
 10 29  1  0  0  0  0
 11 12  1  0  0  0  0
 11 30  1  0  0  0  0
 11 31  1  0  0  0  0
 12 13  1  0  0  0  0
 12 32  1  0  0  0  0
 12 33  1  0  0  0  0
 13 14  1  0  0  0  0
 13 15  1  0  0  0  0
 13 34  1  0  0  0  0
 14 35  1  0  0  0  0
 14 36  1  0  0  0  0
 15 16  1  0  0  0  0
 15 37  1  0  0  0  0
 16 17  1  0  0  0  0
 16 38  1  0  0  0  0
 16 39  1  0  0  0  0
 17 40  1  0  0  0  0
 18 19  1  0  0  0  0
 19 20  1  0  0  0  0
M  END
> <s_m_source_file>
AV-unprocessed.smi

> <i_m_source_file_index>
2881

> <i_lp_mmshare_version>
43012

> <i_f3d_flags>
0

> <s_epik_input>
W0NIM11jMVtjSF1jKG5bbkhdMSlbQ0gyXUMoPU8pW05IXVtDQEhdKFtDQEBIXTIzKVtDQEhdKFtDSDJdW09IXSlbQ0BASF0oW0NIMl0zKVtDSDJdW0NIMl0y

> <s_epik_cmdline>
J2VwaWtfcHl0aG9uJywgJy1waCcsICc3LjAnLCAnLXRuJywgJzgnLCAnLW1hJywgJzIwMCcsICctbWV0YWxfYmluZGluZycsICctaW1hZScsICc8aW5maWxlLm1hZT4nLCAnLW9tYWUnLCAnPG91dGZpbGUubWFlPic=

> <r_lp_tautomer_probability>
0.5

> <r_epik_Ionization_Penalty>
9.4349e-05

> <r_epik_Ionization_Penalty_Charging>
0

> <r_epik_Ionization_Penalty_Neutral>
9.4349e-05

> <r_epik_State_Penalty>
0.41068

> <r_epik_Charging_Adjusted_Penalty>
0.41068

> <i_epik_Tot_Q>
0

> <i_epik_Tot_abs_Q>
0

> <r_epik_Metal_State_Penalty>
0.4107

> <b_epik_Metal_Only>
0

> <s_lp_Force_Field>
OPLS_2005

> <r_lp_Energy>
47.6032

> <b_lp_Chiralities_Consistent>
1

> <s_lp_Variant>
AV-unprocessed.smi:2881-8

> <Gold.Version>
5.8.1

> <Gold.Id.Protein>
6NUR|6NUR_protein|mol2

> <Gold.PLP.Fitness>
45.7800

> <Gold.PLP.PLP>
-40.9073

> <Gold.PLP.part.hbond>
-3.0000

> <Gold.PLP.part.metal>
0.0000

> <Gold.PLP.part.buried>
-3.6191

> <Gold.PLP.part.nonpolar>
-33.3266

> <Gold.PLP.part.repulsive>
0.2298

> <Gold.PLP.ligand.clash>
0.0000

> <Gold.PLP.ligand.torsion>
0.3114

> <Gold.PLP.Chemscore.Hbond>
1.8160

> <Gold.PLP.Chemscore.CHOScore>
0.0000

> <Gold.PLP.Chemscore.Metal>
0.0000

> <Gold.Chemscore.Hbonds>
donor molecule, donor type, donor heavy atom, donor atom, acceptor molecule, acceptor atom, score
      P1  H  7989  7998       L1     7  0.82
      P1  H  7997  8009       L1    17  1.00

> <Gold.PLP.Chemscore.Internal.Correction>
0.0474

> <Gold.Rescore>
     Score         DG    S(hbond)    S(metal)    S(lipo)     H(rot)  DE(clash)    DE(int)     intcor
     17.35     -19.12       1.83        0.00     114.09       2.28       0.13       1.65       ----

> <Gold.Chemscore.Fitness>
17.3468

> <Gold.Chemscore.DG>
-19.1221

> <Gold.Chemscore.ZeroCoef>
-5.4800

> <Gold.Chemscore.Hbond>
1.8321

> <Gold.Chemscore.Metal>
0.0000

> <Gold.Chemscore.Lipo>
114.0852

> <Gold.Chemscore.Internal_Hbond>
0.0000

> <Gold.Chemscore.DEClash>
0.1292

> <Gold.Chemscore.DEInternal>
1.6461

> <Gold.Chemscore.Rot>
2.2755

> <Gold.Chemscore.Internal.Correction>
   9.000000E+99

> <Gold.Chemscore.Hbonds>
donor molecule, donor type, donor heavy atom, donor atom, acceptor molecule, acceptor atom, score
      P1  H  7989  7998       L1     7  0.72
      P1  H  7997  8009       L1    17  0.96

> <Gold.Chemscore.Hbond.Weighted>
-6.1193

> <Gold.Chemscore.Metal.Weighted>
-0.0000

> <Gold.Chemscore.Lipo.Weighted>
-13.3480

> <Gold.Chemscore.Internal_Hbond.Weighted>
0.0000

> <Gold.Chemscore.DEClash.Weighted>
0.1292

> <Gold.Chemscore.DEInternal.Weighted>
1.6461

> <Gold.Chemscore.Rot.Weighted>
5.8252

> <Gold.Chemscore.Internal.Correction.Weighted>
   9.000000E+99

> <Gold.Protein.RotatedTorsions>
[ 6907 6896 6895 6894 ] final  171.85 input  -60.11 | X-H torsion
[ 7974 7965 7964 7962 ] final  144.95 input  175.53 | X-H torsion
[ 8008 7997 7996 7995 ] final  157.73 input   59.86 | X-H torsion
[ 10167 10162 10161 10158 ] final  -87.53 input  -65.29 | X-H torsion
[ 10718 10713 10712 10709 ] final -171.45 input   66.30 | X-H torsion
[ 10763 10752 10751 10750 ] final -147.76 input  -60.55 | X-H torsion
[ 11005 11000 10999 10996 ] final  -20.96 input  -57.11 | X-H torsion

> <Gold.Protein.ActiveResidues>
 VAL166  LYS551  ARG553  GLY616  TRP617  ASP618  TYR619  PRO620  LYS621  CYS622 
 ASP623  PHE694  ASN695  SER759  ASP760  ASP761  ALA762  ILE779  LEU786  VAL792 
 PHE793  MET794  SER795  GLU796  ALA797  LYS798  CYS799  TRP800  GLU811  SER814 

> <Gold.Protein.RotatedAtoms>
  151.7936  133.3362  159.3505 H   0  0  0  0  0  0  0  0  0  0  0  0  # atno 6907 bound_to 6896
  150.7383  134.5819  159.5952 H   0  0  0  0  0  0  0  0  0  0  0  0  # atno 6908 bound_to 6896
  152.3193  134.7402  160.0369 H   0  0  0  0  0  0  0  0  0  0  0  0  # atno 6909 bound_to 6896
  144.8792  139.5725  143.5850 H   0  0  0  0  0  0  0  0  0  0  0  0  # atno 7974 bound_to 7965
  156.2346  140.1877  156.7153 H   0  0  0  0  0  0  0  0  0  0  0  0  # atno 8008 bound_to 7997
  154.6083  140.0625  156.9488 H   0  0  0  0  0  0  0  0  0  0  0  0  # atno 8009 bound_to 7997
  155.2058  140.3296  155.4339 H   0  0  0  0  0  0  0  0  0  0  0  0  # atno 8010 bound_to 7997
  140.3836  143.2737  151.9353 H   0  0  0  0  0  0  0  0  0  0  0  0  # atno 10167 bound_to 10162
  156.7410  130.9342  151.3110 H   0  0  0  0  0  0  0  0  0  0  0  0  # atno 10718 bound_to 10713
  154.8269  135.3352  154.6868 H   0  0  0  0  0  0  0  0  0  0  0  0  # atno 10763 bound_to 10752
  153.7493  135.6940  153.4954 H   0  0  0  0  0  0  0  0  0  0  0  0  # atno 10764 bound_to 10752
  153.2188  135.4456  155.0415 H   0  0  0  0  0  0  0  0  0  0  0  0  # atno 10765 bound_to 10752
  140.8515  133.7853  155.9972 H   0  0  0  0  0  0  0  0  0  0  0  0  # atno 11005 bound_to 11000
  146.2983  139.7347  142.9110 LP  0  0  0  0  0  0  0  0  0  0  0  0  # atno 17320 bound_to 7965
  145.3985  141.0382  143.3084 LP  0  0  0  0  0  0  0  0  0  0  0  0  # atno 17321 bound_to 7965
  139.4793  144.5795  151.7956 LP  0  0  0  0  0  0  0  0  0  0  0  0  # atno 17342 bound_to 10162
  140.4912  144.1307  150.5951 LP  0  0  0  0  0  0  0  0  0  0  0  0  # atno 17343 bound_to 10162
  157.6818  130.9147  150.0287 LP  0  0  0  0  0  0  0  0  0  0  0  0  # atno 17370 bound_to 10713
  156.1465  130.3642  149.9503 LP  0  0  0  0  0  0  0  0  0  0  0  0  # atno 17371 bound_to 10713
  140.8784  134.2641  157.5156 LP  0  0  0  0  0  0  0  0  0  0  0  0  # atno 17394 bound_to 11000
  139.8704  134.9603  156.4359 LP  0  0  0  0  0  0  0  0  0  0  0  0  # atno 17395 bound_to 11000

$$$$
