AV-unprocessed.smi:2235|AV-procd|sdf|9044|dock3
  -GOLD-   2272012253D 1   1.00000     0.00000
 Structure written by MMmdl.
 36 37  0  0  0  0  0  0  0  0  1 V2000
  150.0366  140.3477  158.0676 O   0  0  0  0  0  0  0  0  0  0  0  0
  149.9309  141.1953  157.1812 C   0  0  0  0  0  0  0  0  0  0  0  0
  149.4216  140.7944  155.7964 C   0  0  0  0  0  0  0  0  0  0  0  0
  148.0427  141.2066  155.6059 N   0  0  0  0  0  0  0  0  0  0  0  0
  147.5611  142.2831  154.8909 C   0  0  0  0  0  0  0  0  0  0  0  0
  146.1988  142.2709  154.9958 C   0  0  0  0  0  0  0  0  0  0  0  0
  145.2003  143.2254  154.4018 C   0  0  0  0  0  0  0  0  0  0  0  0
  145.6907  143.7978  153.0650 C   0  0  0  0  0  0  0  0  0  0  0  0
  144.6404  144.4891  152.4240 O   0  0  0  0  0  0  0  0  0  0  0  0
  145.9403  141.1297  155.8072 C   0  0  0  0  0  0  0  0  0  0  0  0
  147.0432  140.4955  156.1706 N   0  0  0  0  0  0  0  0  0  0  0  0
  150.2451  142.4887  157.3520 N   0  0  0  0  0  0  0  0  0  0  0  0
  150.7463  143.0737  158.5923 C   0  0  0  0  0  0  0  0  0  0  0  0
  149.8411  144.2323  159.0474 C   0  0  0  0  0  0  0  0  0  0  0  0
  150.6304  145.5124  158.7729 C   0  0  0  0  0  0  0  0  0  0  0  0
  152.0857  145.0995  158.9681 C   0  0  0  0  0  0  0  0  0  0  0  0
  152.1557  143.6763  158.4112 C   0  0  0  0  0  0  0  0  0  0  0  0
  150.0493  141.2382  155.0218 H   0  0  0  0  0  0  0  0  0  0  0  0
  149.4825  139.7119  155.6760 H   0  0  0  0  0  0  0  0  0  0  0  0
  148.2219  142.9615  154.3714 H   0  0  0  0  0  0  0  0  0  0  0  0
  144.2420  142.7269  154.2505 H   0  0  0  0  0  0  0  0  0  0  0  0
  145.0014  144.0463  155.0922 H   0  0  0  0  0  0  0  0  0  0  0  0
  146.5234  144.4843  153.2216 H   0  0  0  0  0  0  0  0  0  0  0  0
  146.0426  143.0005  152.4094 H   0  0  0  0  0  0  0  0  0  0  0  0
  143.8754  143.9343  152.4171 H   0  0  0  0  0  0  0  0  0  0  0  0
  144.9876  140.7460  156.1413 H   0  0  0  0  0  0  0  0  0  0  0  0
  150.1226  143.1134  156.5678 H   0  0  0  0  0  0  0  0  0  0  0  0
  150.7586  142.3100  159.3723 H   0  0  0  0  0  0  0  0  0  0  0  0
  148.8647  144.2384  158.5611 H   0  0  0  0  0  0  0  0  0  0  0  0
  149.6626  144.1473  160.1203 H   0  0  0  0  0  0  0  0  0  0  0  0
  150.4728  145.8284  157.7407 H   0  0  0  0  0  0  0  0  0  0  0  0
  150.3352  146.3358  159.4239 H   0  0  0  0  0  0  0  0  0  0  0  0
  152.7848  145.7768  158.4770 H   0  0  0  0  0  0  0  0  0  0  0  0
  152.3234  145.0895  160.0328 H   0  0  0  0  0  0  0  0  0  0  0  0
  152.9219  143.0827  158.9106 H   0  0  0  0  0  0  0  0  0  0  0  0
  152.4238  143.7214  157.3544 H   0  0  0  0  0  0  0  0  0  0  0  0
  1  2  2  0  0  0  0
  2  3  1  0  0  0  0
  2 12  1  0  0  0  0
  3  4  1  0  0  0  0
  3 18  1  0  0  0  0
  3 19  1  0  0  0  0
  4 11  1  0  0  0  0
  4  5  1  0  0  0  0
  5  6  2  0  0  0  0
  5 20  1  0  0  0  0
  6  7  1  0  0  0  0
  6 10  1  0  0  0  0
  7  8  1  0  0  0  0
  7 21  1  0  0  0  0
  7 22  1  0  0  0  0
  8  9  1  0  0  0  0
  8 23  1  0  0  0  0
  8 24  1  0  0  0  0
  9 25  1  0  0  0  0
 10 11  2  0  0  0  0
 10 26  1  0  0  0  0
 12 13  1  0  0  0  0
 12 27  1  0  0  0  0
 13 17  1  0  0  0  0
 13 14  1  0  0  0  0
 13 28  1  0  0  0  0
 14 15  1  0  0  0  0
 14 29  1  0  0  0  0
 14 30  1  0  0  0  0
 15 16  1  0  0  0  0
 15 31  1  0  0  0  0
 15 32  1  0  0  0  0
 16 17  1  0  0  0  0
 16 33  1  0  0  0  0
 16 34  1  0  0  0  0
 17 35  1  0  0  0  0
 17 36  1  0  0  0  0
M  END
> <s_m_source_file>
AV-unprocessed.smi

> <i_m_source_file_index>
2235

> <i_lp_mmshare_version>
43012

> <i_f3d_flags>
0

> <s_epik_input>
W0NIMl0xW0NIMl1bQ0gyXVtDSDJdW0NIXTFbTkhdQyg9TylbQ0gyXW4yW2NIXWMoW2NIXW4yKVtDSDJdW0NIMl1bT0hd

> <s_epik_cmdline>
J2VwaWtfcHl0aG9uJywgJy1waCcsICc3LjAnLCAnLXRuJywgJzgnLCAnLW1hJywgJzIwMCcsICctbWV0YWxfYmluZGluZycsICctaW1hZScsICc8aW5maWxlLm1hZT4nLCAnLW9tYWUnLCAnPG91dGZpbGUubWFlPic=

> <r_lp_tautomer_probability>
1

> <r_epik_Ionization_Penalty>
3.35381e-05

> <r_epik_Ionization_Penalty_Charging>
0

> <r_epik_Ionization_Penalty_Neutral>
3.35381e-05

> <r_epik_State_Penalty>
-0

> <r_epik_Charging_Adjusted_Penalty>
0

> <i_epik_Tot_Q>
0

> <i_epik_Tot_abs_Q>
0

> <r_epik_Metal_State_Penalty>
-0

> <b_epik_Metal_Only>
0

> <s_lp_Force_Field>
OPLS_2005

> <r_lp_Energy>
18.0157

> <b_lp_Chiralities_Consistent>
1

> <s_lp_Variant>
AV-unprocessed.smi:2235-1

> <Gold.Version>
5.8.1

> <Gold.Id.Protein>
6NUR|6NUR_protein|mol2

> <Gold.PLP.Fitness>
42.4253

> <Gold.PLP.PLP>
-35.9376

> <Gold.PLP.part.hbond>
-3.0000

> <Gold.PLP.part.metal>
0.0000

> <Gold.PLP.part.buried>
-1.6209

> <Gold.PLP.part.nonpolar>
-32.9062

> <Gold.PLP.part.repulsive>
0.1214

> <Gold.PLP.ligand.clash>
0.0000

> <Gold.PLP.ligand.torsion>
0.8623

> <Gold.PLP.Chemscore.Hbond>
2.0000

> <Gold.PLP.Chemscore.CHOScore>
0.7233

> <Gold.PLP.Chemscore.Metal>
0.0000

> <Gold.Chemscore.Hbonds>
donor molecule, donor type, donor heavy atom, donor atom, acceptor molecule, acceptor atom, score
      L1  H     9    25       P1 10174  1.00
      L1  H    12    27       P1  8028  0.50
      L1  C     5    20       P1  8028  0.67

> <Gold.PLP.Chemscore.Internal.Correction>
0.0423

> <Gold.Rescore>
     Score         DG    S(hbond)    S(metal)    S(lipo)     H(rot)  DE(clash)    DE(int)     intcor
     12.64     -16.18       1.94        0.00      89.79       2.46       2.59       0.94       ----

> <Gold.Chemscore.Fitness>
12.6442

> <Gold.Chemscore.DG>
-16.1782

> <Gold.Chemscore.ZeroCoef>
-5.4800

> <Gold.Chemscore.Hbond>
1.9419

> <Gold.Chemscore.Metal>
0.0000

> <Gold.Chemscore.Lipo>
89.7861

> <Gold.Chemscore.Internal_Hbond>
0.0000

> <Gold.Chemscore.DEClash>
2.5935

> <Gold.Chemscore.DEInternal>
0.9405

> <Gold.Chemscore.Rot>
2.4581

> <Gold.Chemscore.Internal.Correction>
   9.000000E+99

> <Gold.Chemscore.Hbonds>
donor molecule, donor type, donor heavy atom, donor atom, acceptor molecule, acceptor atom, score
      L1  H     9    25       P1 10174  0.65
      L1  H    12    27       P1  8028  0.48

> <Gold.Chemscore.Hbond.Weighted>
-6.4861

> <Gold.Chemscore.Metal.Weighted>
-0.0000

> <Gold.Chemscore.Lipo.Weighted>
-10.5050

> <Gold.Chemscore.Internal_Hbond.Weighted>
0.0000

> <Gold.Chemscore.DEClash.Weighted>
2.5935

> <Gold.Chemscore.DEInternal.Weighted>
0.9405

> <Gold.Chemscore.Rot.Weighted>
6.2928

> <Gold.Chemscore.Internal.Correction.Weighted>
   9.000000E+99

> <Gold.Protein.RotatedTorsions>
[ 6907 6896 6895 6894 ] final -169.20 input  -60.11 | X-H torsion
[ 7974 7965 7964 7962 ] final   79.87 input  175.53 | X-H torsion
[ 8008 7997 7996 7995 ] final  123.02 input   59.86 | X-H torsion
[ 10167 10162 10161 10158 ] final   72.29 input  -65.29 | X-H torsion
[ 10718 10713 10712 10709 ] final  158.67 input   66.30 | X-H torsion
[ 10763 10752 10751 10750 ] final  112.99 input  -60.55 | X-H torsion
[ 11005 11000 10999 10996 ] final -131.65 input  -57.11 | X-H torsion

> <Gold.Protein.ActiveResidues>
 VAL166  LYS551  ARG553  GLY616  TRP617  ASP618  TYR619  PRO620  LYS621  CYS622 
 ASP623  PHE694  ASN695  SER759  ASP760  ASP761  ALA762  ILE779  LEU786  VAL792 
 PHE793  MET794  SER795  GLU796  ALA797  LYS798  CYS799  TRP800  GLU811  SER814 

> <Gold.Protein.RotatedAtoms>
  151.4878  133.3531  159.2848 H   0  0  0  0  0  0  0  0  0  0  0  0  # atno 6907 bound_to 6896
  150.8854  134.8253  159.7266 H   0  0  0  0  0  0  0  0  0  0  0  0  # atno 6908 bound_to 6896
  152.4790  134.4781  159.9709 H   0  0  0  0  0  0  0  0  0  0  0  0  # atno 6909 bound_to 6896
  145.6585  139.2465  143.1936 H   0  0  0  0  0  0  0  0  0  0  0  0  # atno 7974 bound_to 7965
  156.2750  140.2772  156.1561 H   0  0  0  0  0  0  0  0  0  0  0  0  # atno 8008 bound_to 7997
  155.0803  140.0387  157.2654 H   0  0  0  0  0  0  0  0  0  0  0  0  # atno 8009 bound_to 7997
  154.6970  140.2641  155.6762 H   0  0  0  0  0  0  0  0  0  0  0  0  # atno 8010 bound_to 7997
  140.0369  144.5420  150.7464 H   0  0  0  0  0  0  0  0  0  0  0  0  # atno 10167 bound_to 10162
  157.1747  131.0618  151.2164 H   0  0  0  0  0  0  0  0  0  0  0  0  # atno 10718 bound_to 10713
  153.4859  135.3669  155.2466 H   0  0  0  0  0  0  0  0  0  0  0  0  # atno 10763 bound_to 10752
  154.8754  135.3965  154.3645 H   0  0  0  0  0  0  0  0  0  0  0  0  # atno 10764 bound_to 10752
  153.4257  135.7081  153.6330 H   0  0  0  0  0  0  0  0  0  0  0  0  # atno 10765 bound_to 10752
  140.9240  134.1407  157.4291 H   0  0  0  0  0  0  0  0  0  0  0  0  # atno 11005 bound_to 11000
  146.1145  140.7387  142.9487 LP  0  0  0  0  0  0  0  0  0  0  0  0  # atno 17320 bound_to 7965
  144.7097  140.3992  143.7090 LP  0  0  0  0  0  0  0  0  0  0  0  0  # atno 17321 bound_to 7965
  140.7277  143.2654  151.4062 LP  0  0  0  0  0  0  0  0  0  0  0  0  # atno 17342 bound_to 10162
  139.6039  144.1238  152.2228 LP  0  0  0  0  0  0  0  0  0  0  0  0  # atno 17343 bound_to 10162
  157.4010  130.7333  149.6767 LP  0  0  0  0  0  0  0  0  0  0  0  0  # atno 17370 bound_to 10713
  155.9733  130.4121  150.4013 LP  0  0  0  0  0  0  0  0  0  0  0  0  # atno 17371 bound_to 10713
  139.8781  134.9981  156.5885 LP  0  0  0  0  0  0  0  0  0  0  0  0  # atno 17394 bound_to 11000
  140.7950  133.8551  155.8678 LP  0  0  0  0  0  0  0  0  0  0  0  0  # atno 17395 bound_to 11000

$$$$
