AV-unprocessed.smi:2130|AV-procd|sdf|8686|dock1
  -GOLD-   2272011433D 1   1.00000     0.00000
 Structure written by MMmdl.
 32 33  0  0  0  0  0  0  0  0  1 V2000
  151.4107  145.3068  160.1083 C   0  0  0  0  0  0  0  0  0  0  0  0
  152.1947  144.0668  160.5025 C   0  0  0  0  0  0  0  0  0  0  0  0
  152.6568  143.7951  161.7274 C   0  0  0  0  0  0  0  0  0  0  0  0
  153.5493  142.2954  161.7952 S   0  0  0  0  0  0  0  0  0  0  0  0
  153.2687  142.0384  160.0355 C   0  0  0  0  0  0  0  0  0  0  0  0
  153.6962  141.0577  159.4286 O   0  0  0  0  0  0  0  0  0  0  0  0
  152.5155  143.1013  159.5378 N   0  0  0  0  0  0  0  0  0  0  0  0
  152.0914  143.1876  158.1341 C   0  0  0  0  0  0  0  0  0  0  0  0
  151.2839  141.9706  157.6636 C   0  0  0  0  0  0  0  0  0  0  0  0
  151.6256  140.8256  157.9629 O   0  0  0  0  0  0  0  0  0  0  0  0
  150.2067  142.2445  156.9120 N   0  0  0  0  0  0  0  0  0  0  0  0
  149.3090  141.2550  156.3251 C   0  0  1  0  0  0  0  0  0  0  0  0
  147.9127  141.4353  156.9362 C   0  0  0  0  0  0  0  0  0  0  0  0
  149.2477  141.3229  154.8081 C   0  0  0  0  0  0  0  0  0  0  0  0
  148.0327  141.8795  154.1037 C   0  0  0  0  0  0  0  0  0  0  0  0
  148.3501  140.4044  154.0124 C   0  0  0  0  0  0  0  0  0  0  0  0
  151.5179  146.0803  160.8693 H   0  0  0  0  0  0  0  0  0  0  0  0
  150.3507  145.0709  160.0123 H   0  0  0  0  0  0  0  0  0  0  0  0
  151.7651  145.7253  159.1664 H   0  0  0  0  0  0  0  0  0  0  0  0
  152.5316  144.4064  162.6090 H   0  0  0  0  0  0  0  0  0  0  0  0
  151.4775  144.0786  157.9924 H   0  0  0  0  0  0  0  0  0  0  0  0
  152.9537  143.3259  157.4815 H   0  0  0  0  0  0  0  0  0  0  0  0
  149.9996  143.2137  156.7193 H   0  0  0  0  0  0  0  0  0  0  0  0
  149.6582  140.2594  156.6056 H   0  0  0  0  0  0  0  0  0  0  0  0
  147.2200  140.6812  156.5615 H   0  0  0  0  0  0  0  0  0  0  0  0
  147.4974  142.4148  156.6971 H   0  0  0  0  0  0  0  0  0  0  0  0
  147.9427  141.3412  158.0222 H   0  0  0  0  0  0  0  0  0  0  0  0
  150.2040  141.5641  154.3472 H   0  0  0  0  0  0  0  0  0  0  0  0
  147.1802  142.1709  154.7141 H   0  0  0  0  0  0  0  0  0  0  0  0
  148.2006  142.4867  153.2165 H   0  0  0  0  0  0  0  0  0  0  0  0
  148.7325  140.0281  153.0658 H   0  0  0  0  0  0  0  0  0  0  0  0
  147.7067  139.7193  154.5605 H   0  0  0  0  0  0  0  0  0  0  0  0
  1  2  1  0  0  0  0
  1 17  1  0  0  0  0
  1 18  1  0  0  0  0
  1 19  1  0  0  0  0
  2  7  1  0  0  0  0
  2  3  2  0  0  0  0
  3  4  1  0  0  0  0
  3 20  1  0  0  0  0
  4  5  1  0  0  0  0
  5  6  2  0  0  0  0
  5  7  1  0  0  0  0
  7  8  1  0  0  0  0
  8  9  1  0  0  0  0
  8 21  1  0  0  0  0
  8 22  1  0  0  0  0
  9 10  2  0  0  0  0
  9 11  1  0  0  0  0
 11 12  1  0  0  0  0
 11 23  1  0  0  0  0
 12 13  1  0  0  0  0
 12 14  1  0  0  0  0
 12 24  1  0  0  0  0
 13 25  1  0  0  0  0
 13 26  1  0  0  0  0
 13 27  1  0  0  0  0
 14 16  1  0  0  0  0
 14 15  1  0  0  0  0
 14 28  1  0  0  0  0
 15 16  1  0  0  0  0
 15 29  1  0  0  0  0
 15 30  1  0  0  0  0
 16 31  1  0  0  0  0
 16 32  1  0  0  0  0
M  END
> <s_m_source_file>
AV-unprocessed.smi

> <i_m_source_file_index>
2130

> <i_lp_mmshare_version>
43012

> <i_f3d_flags>
0

> <s_epik_input>
W0NIM11jMVtjSF1zYyg9TyluMVtDSDJdQyg9TylbTkhdW0NASF0oW0NIM10pW0NIXTJbQ0gyXVtDSDJdMg==

> <s_epik_cmdline>
J2VwaWtfcHl0aG9uJywgJy1waCcsICc3LjAnLCAnLXRuJywgJzgnLCAnLW1hJywgJzIwMCcsICctbWV0YWxfYmluZGluZycsICctaW1hZScsICc8aW5maWxlLm1hZT4nLCAnLW9tYWUnLCAnPG91dGZpbGUubWFlPic=

> <r_lp_tautomer_probability>
1

> <r_epik_Ionization_Penalty>
1.32882e-06

> <r_epik_Ionization_Penalty_Charging>
1.22222e-06

> <r_epik_Ionization_Penalty_Neutral>
1.066e-07

> <r_epik_State_Penalty>
-0

> <r_epik_Charging_Adjusted_Penalty>
1.22222e-06

> <i_epik_Tot_Q>
0

> <i_epik_Tot_abs_Q>
0

> <r_epik_Metal_State_Penalty>
-0

> <b_epik_Metal_Only>
0

> <s_lp_Force_Field>
OPLS_2005

> <r_lp_Energy>
16.4034

> <b_lp_Chiralities_Consistent>
1

> <s_lp_Variant>
AV-unprocessed.smi:2130-2

> <Gold.Version>
5.8.1

> <Gold.Id.Protein>
6NUR|6NUR_protein|mol2

> <Gold.PLP.Fitness>
44.4814

> <Gold.PLP.PLP>
-42.1894

> <Gold.PLP.part.hbond>
-1.0000

> <Gold.PLP.part.metal>
0.0000

> <Gold.PLP.part.buried>
-5.0806

> <Gold.PLP.part.nonpolar>
-34.9219

> <Gold.PLP.part.repulsive>
0.0194

> <Gold.PLP.ligand.clash>
0.0000

> <Gold.PLP.ligand.torsion>
0.8984

> <Gold.PLP.Chemscore.Hbond>
1.0000

> <Gold.PLP.Chemscore.CHOScore>
0.0000

> <Gold.PLP.Chemscore.Metal>
0.0000

> <Gold.Chemscore.Hbonds>
donor molecule, donor type, donor heavy atom, donor atom, acceptor molecule, acceptor atom, score
      L1  H    11    23       P1  8028  0.71

> <Gold.PLP.Chemscore.Internal.Correction>
1.0888

> <Gold.Rescore>
     Score         DG    S(hbond)    S(metal)    S(lipo)     H(rot)  DE(clash)    DE(int)     intcor
     11.53     -14.91       0.98        0.00      87.42       1.59       0.04       3.34       ----

> <Gold.Chemscore.Fitness>
11.5345

> <Gold.Chemscore.DG>
-14.9063

> <Gold.Chemscore.ZeroCoef>
-5.4800

> <Gold.Chemscore.Hbond>
0.9807

> <Gold.Chemscore.Metal>
0.0000

> <Gold.Chemscore.Lipo>
87.4180

> <Gold.Chemscore.Internal_Hbond>
0.0000

> <Gold.Chemscore.DEClash>
0.0368

> <Gold.Chemscore.DEInternal>
3.3350

> <Gold.Chemscore.Rot>
1.5926

> <Gold.Chemscore.Internal.Correction>
   9.000000E+99

> <Gold.Chemscore.Hbonds>
donor molecule, donor type, donor heavy atom, donor atom, acceptor molecule, acceptor atom, score
      L1  H    11    23       P1  8028  0.68

> <Gold.Chemscore.Hbond.Weighted>
-3.2755

> <Gold.Chemscore.Metal.Weighted>
-0.0000

> <Gold.Chemscore.Lipo.Weighted>
-10.2279

> <Gold.Chemscore.Internal_Hbond.Weighted>
0.0000

> <Gold.Chemscore.DEClash.Weighted>
0.0368

> <Gold.Chemscore.DEInternal.Weighted>
3.3350

> <Gold.Chemscore.Rot.Weighted>
4.0771

> <Gold.Chemscore.Internal.Correction.Weighted>
   9.000000E+99

> <Gold.Protein.RotatedTorsions>
[ 6907 6896 6895 6894 ] final  -16.00 input  -60.11 | X-H torsion
[ 7974 7965 7964 7962 ] final   -7.10 input  175.53 | X-H torsion
[ 8008 7997 7996 7995 ] final   -4.03 input   59.86 | X-H torsion
[ 10167 10162 10161 10158 ] final  111.24 input  -65.29 | X-H torsion
[ 10718 10713 10712 10709 ] final -114.00 input   66.30 | X-H torsion
[ 10763 10752 10751 10750 ] final  -74.52 input  -60.55 | X-H torsion
[ 11005 11000 10999 10996 ] final   51.00 input  -57.11 | X-H torsion

> <Gold.Protein.ActiveResidues>
 VAL166  LYS551  ARG553  GLY616  TRP617  ASP618  TYR619  PRO620  LYS621  CYS622 
 ASP623  PHE694  ASN695  SER759  ASP760  ASP761  ALA762  ILE779  LEU786  VAL792 
 PHE793  MET794  SER795  GLU796  ALA797  LYS798  CYS799  TRP800  GLU811  SER814 

> <Gold.Protein.RotatedAtoms>
  151.3153  135.0804  159.9286 H   0  0  0  0  0  0  0  0  0  0  0  0  # atno 6907 bound_to 6896
  152.5269  133.9694  159.7765 H   0  0  0  0  0  0  0  0  0  0  0  0  # atno 6908 bound_to 6896
  151.0005  133.6008  159.2726 H   0  0  0  0  0  0  0  0  0  0  0  0  # atno 6909 bound_to 6896
  146.2315  140.2269  142.8339 H   0  0  0  0  0  0  0  0  0  0  0  0  # atno 7974 bound_to 7965
  154.6186  140.2494  155.7577 H   0  0  0  0  0  0  0  0  0  0  0  0  # atno 8008 bound_to 7997
  156.2414  140.2931  156.0403 H   0  0  0  0  0  0  0  0  0  0  0  0  # atno 8009 bound_to 7997
  155.1933  140.0392  157.2894 H   0  0  0  0  0  0  0  0  0  0  0  0  # atno 8010 bound_to 7997
  139.6626  144.7128  151.1837 H   0  0  0  0  0  0  0  0  0  0  0  0  # atno 10167 bound_to 10162
  156.0802  130.6003  150.8717 H   0  0  0  0  0  0  0  0  0  0  0  0  # atno 10718 bound_to 10713
  154.4742  135.5861  153.6343 H   0  0  0  0  0  0  0  0  0  0  0  0  # atno 10763 bound_to 10752
  152.9838  135.6074  154.3328 H   0  0  0  0  0  0  0  0  0  0  0  0  # atno 10764 bound_to 10752
  154.3213  135.2843  155.2497 H   0  0  0  0  0  0  0  0  0  0  0  0  # atno 10765 bound_to 10752
  140.0970  134.5132  155.8798 H   0  0  0  0  0  0  0  0  0  0  0  0  # atno 11005 bound_to 11000
  144.9588  140.8254  143.5526 LP  0  0  0  0  0  0  0  0  0  0  0  0  # atno 17320 bound_to 7965
  145.2238  139.2147  143.5079 LP  0  0  0  0  0  0  0  0  0  0  0  0  # atno 17321 bound_to 7965
  140.7586  143.5970  150.8738 LP  0  0  0  0  0  0  0  0  0  0  0  0  # atno 17342 bound_to 10162
  139.9629  143.6144  152.2997 LP  0  0  0  0  0  0  0  0  0  0  0  0  # atno 17343 bound_to 10162
  157.5916  131.0944  150.9110 LP  0  0  0  0  0  0  0  0  0  0  0  0  # atno 17370 bound_to 10713
  156.9284  130.5341  149.5279 LP  0  0  0  0  0  0  0  0  0  0  0  0  # atno 17371 bound_to 10713
  141.2095  133.6684  156.6442 LP  0  0  0  0  0  0  0  0  0  0  0  0  # atno 17394 bound_to 11000
  140.3273  134.7958  157.4299 LP  0  0  0  0  0  0  0  0  0  0  0  0  # atno 17395 bound_to 11000

$$$$
