AV-unprocessed.smi:3269|AV-procd|sdf|12511|dock5
  -GOLD-   2272018423D 1   1.00000     0.00000
 Structure written by MMmdl.
 39 40  0  0  0  0  0  0  0  0  1 V2000
  154.0170  140.8851  160.8752 C   0  0  0  0  0  0  0  0  0  0  0  0
  153.2345  141.6649  159.8576 C   0  0  0  0  0  0  0  0  0  0  0  0
  153.4230  142.9699  159.7532 N   0  0  0  0  0  0  0  0  0  0  0  0
  152.5958  143.3588  158.7625 N   0  0  0  0  0  0  0  0  0  0  0  0
  152.5580  144.7553  158.3739 C   0  0  0  0  0  0  0  0  0  0  0  0
  151.8788  142.2985  158.2437 C   0  0  0  0  0  0  0  0  0  0  0  0
  150.8987  142.4723  157.1283 C   0  0  0  0  0  0  0  0  0  0  0  0
  152.2671  141.1781  158.9302 C   0  0  0  0  0  0  0  0  0  0  0  0
  151.8069  139.7527  158.7546 C   0  0  0  0  0  0  0  0  0  0  0  0
  152.1162  139.2983  157.3289 C   0  0  0  0  0  0  0  0  0  0  0  0
  153.2425  139.4621  156.8597 O   0  0  0  0  0  0  0  0  0  0  0  0
  151.0971  138.7611  156.6418 N   0  0  0  0  0  0  0  0  0  0  0  0
  151.1319  138.4075  155.2289 C   0  0  0  0  0  0  0  0  0  0  0  0
  150.0437  139.1650  154.4510 C   0  0  1  0  0  0  0  0  0  0  0  0
  148.6201  138.8685  154.9169 C   0  0  0  0  0  0  0  0  0  0  0  0
  147.8506  140.1248  154.5346 C   0  0  0  0  0  0  0  0  0  0  0  0
  148.9410  141.1506  154.2101 C   0  0  0  0  0  0  0  0  0  0  0  0
  150.1480  140.5628  154.6718 O   0  0  0  0  0  0  0  0  0  0  0  0
  154.4972  140.0203  160.4170 H   0  0  0  0  0  0  0  0  0  0  0  0
  153.3663  140.5209  161.6702 H   0  0  0  0  0  0  0  0  0  0  0  0
  154.7986  141.4899  161.3366 H   0  0  0  0  0  0  0  0  0  0  0  0
  151.5494  145.1467  158.5092 H   0  0  0  0  0  0  0  0  0  0  0  0
  152.8409  144.8509  157.3254 H   0  0  0  0  0  0  0  0  0  0  0  0
  153.2483  145.3435  158.9804 H   0  0  0  0  0  0  0  0  0  0  0  0
  150.3330  141.5581  156.9511 H   0  0  0  0  0  0  0  0  0  0  0  0
  151.4116  142.7328  156.2024 H   0  0  0  0  0  0  0  0  0  0  0  0
  150.1852  143.2643  157.3558 H   0  0  0  0  0  0  0  0  0  0  0  0
  152.3084  139.0814  159.4523 H   0  0  0  0  0  0  0  0  0  0  0  0
  150.7393  139.6497  158.9536 H   0  0  0  0  0  0  0  0  0  0  0  0
  150.2086  138.6643  157.1114 H   0  0  0  0  0  0  0  0  0  0  0  0
  152.1174  138.6204  154.8115 H   0  0  0  0  0  0  0  0  0  0  0  0
  150.9808  137.3314  155.1386 H   0  0  0  0  0  0  0  0  0  0  0  0
  150.1269  138.9671  153.3802 H   0  0  0  0  0  0  0  0  0  0  0  0
  148.2109  137.9650  154.4634 H   0  0  0  0  0  0  0  0  0  0  0  0
  148.5951  138.7417  156.0002 H   0  0  0  0  0  0  0  0  0  0  0  0
  147.2100  139.9567  153.6681 H   0  0  0  0  0  0  0  0  0  0  0  0
  147.2196  140.4570  155.3595 H   0  0  0  0  0  0  0  0  0  0  0  0
  149.0107  141.3097  153.1329 H   0  0  0  0  0  0  0  0  0  0  0  0
  148.7655  142.1156  154.6859 H   0  0  0  0  0  0  0  0  0  0  0  0
  1  2  1  0  0  0  0
  1 19  1  0  0  0  0
  1 20  1  0  0  0  0
  1 21  1  0  0  0  0
  2  8  1  0  0  0  0
  2  3  2  0  0  0  0
  3  4  1  0  0  0  0
  4  5  1  0  0  0  0
  4  6  1  0  0  0  0
  5 22  1  0  0  0  0
  5 23  1  0  0  0  0
  5 24  1  0  0  0  0
  6  7  1  0  0  0  0
  6  8  2  0  0  0  0
  7 25  1  0  0  0  0
  7 26  1  0  0  0  0
  7 27  1  0  0  0  0
  8  9  1  0  0  0  0
  9 10  1  0  0  0  0
  9 28  1  0  0  0  0
  9 29  1  0  0  0  0
 10 11  2  0  0  0  0
 10 12  1  0  0  0  0
 12 13  1  0  0  0  0
 12 30  1  0  0  0  0
 13 14  1  0  0  0  0
 13 31  1  0  0  0  0
 13 32  1  0  0  0  0
 14 18  1  0  0  0  0
 14 15  1  0  0  0  0
 14 33  1  0  0  0  0
 15 16  1  0  0  0  0
 15 34  1  0  0  0  0
 15 35  1  0  0  0  0
 16 17  1  0  0  0  0
 16 36  1  0  0  0  0
 16 37  1  0  0  0  0
 17 18  1  0  0  0  0
 17 38  1  0  0  0  0
 17 39  1  0  0  0  0
M  END
> <s_m_source_file>
AV-unprocessed.smi

> <i_m_source_file_index>
3269

> <i_lp_mmshare_version>
43012

> <i_f3d_flags>
0

> <s_epik_input>
W0NIM11jMW5uKFtDSDNdKWMoW0NIM10pYzFbQ0gyXUMoPU8pW05IXVtDSDJdW0NAQEhdMltDSDJdW0NIMl1bQ0gyXU8y

> <s_epik_cmdline>
J2VwaWtfcHl0aG9uJywgJy1waCcsICc3LjAnLCAnLXRuJywgJzgnLCAnLW1hJywgJzIwMCcsICctbWV0YWxfYmluZGluZycsICctaW1hZScsICc8aW5maWxlLm1hZT4nLCAnLW9tYWUnLCAnPG91dGZpbGUubWFlPic=

> <r_lp_tautomer_probability>
1

> <r_epik_Ionization_Penalty>
0.00306713

> <r_epik_Ionization_Penalty_Charging>
0

> <r_epik_Ionization_Penalty_Neutral>
0.00306713

> <r_epik_State_Penalty>
0.00215672

> <r_epik_Charging_Adjusted_Penalty>
0.00215672

> <i_epik_Tot_Q>
0

> <i_epik_Tot_abs_Q>
0

> <r_epik_Metal_State_Penalty>
-0

> <b_epik_Metal_Only>
0

> <s_lp_Force_Field>
OPLS_2005

> <r_lp_Energy>
10.8306

> <b_lp_Chiralities_Consistent>
1

> <s_lp_Variant>
AV-unprocessed.smi:3269-2

> <Gold.Version>
5.8.1

> <Gold.Id.Protein>
6NUR|6NUR_protein|mol2

> <Gold.PLP.Fitness>
43.2577

> <Gold.PLP.PLP>
-37.5862

> <Gold.PLP.part.hbond>
-1.9278

> <Gold.PLP.part.metal>
0.0000

> <Gold.PLP.part.buried>
-4.3273

> <Gold.PLP.part.nonpolar>
-31.8650

> <Gold.PLP.part.repulsive>
0.1131

> <Gold.PLP.ligand.clash>
0.0000

> <Gold.PLP.ligand.torsion>
0.0885

> <Gold.PLP.Chemscore.Hbond>
1.9440

> <Gold.PLP.Chemscore.CHOScore>
0.0000

> <Gold.PLP.Chemscore.Metal>
0.0000

> <Gold.Chemscore.Hbonds>
donor molecule, donor type, donor heavy atom, donor atom, acceptor molecule, acceptor atom, score
      P1  H  7989  7998       L1    18  0.76
      P1  H  7997  8008       L1    11  0.65

> <Gold.PLP.Chemscore.Internal.Correction>
0.0164

> <Gold.Rescore>
     Score         DG    S(hbond)    S(metal)    S(lipo)     H(rot)  DE(clash)    DE(int)     intcor
     18.01     -18.34       1.74        0.00      93.12       1.50       0.15       0.19       ----

> <Gold.Chemscore.Fitness>
18.0054

> <Gold.Chemscore.DG>
-18.3374

> <Gold.Chemscore.ZeroCoef>
-5.4800

> <Gold.Chemscore.Hbond>
1.7363

> <Gold.Chemscore.Metal>
0.0000

> <Gold.Chemscore.Lipo>
93.1227

> <Gold.Chemscore.Internal_Hbond>
0.0000

> <Gold.Chemscore.DEClash>
0.1461

> <Gold.Chemscore.DEInternal>
0.1858

> <Gold.Chemscore.Rot>
1.4989

> <Gold.Chemscore.Internal.Correction>
   9.000000E+99

> <Gold.Chemscore.Hbonds>
donor molecule, donor type, donor heavy atom, donor atom, acceptor molecule, acceptor atom, score
      P1  H  7989  7998       L1    18  0.11
      P1  H  7997  8008       L1    11  0.62

> <Gold.Chemscore.Hbond.Weighted>
-5.7991

> <Gold.Chemscore.Metal.Weighted>
-0.0000

> <Gold.Chemscore.Lipo.Weighted>
-10.8954

> <Gold.Chemscore.Internal_Hbond.Weighted>
0.0000

> <Gold.Chemscore.DEClash.Weighted>
0.1461

> <Gold.Chemscore.DEInternal.Weighted>
0.1858

> <Gold.Chemscore.Rot.Weighted>
3.8371

> <Gold.Chemscore.Internal.Correction.Weighted>
   9.000000E+99

> <Gold.Protein.RotatedTorsions>
[ 6907 6896 6895 6894 ] final   22.27 input  -60.11 | X-H torsion
[ 7974 7965 7964 7962 ] final   53.35 input  175.53 | X-H torsion
[ 8008 7997 7996 7995 ] final  -79.02 input   59.86 | X-H torsion
[ 10167 10162 10161 10158 ] final  107.58 input  -65.29 | X-H torsion
[ 10718 10713 10712 10709 ] final  -44.25 input   66.30 | X-H torsion
[ 10763 10752 10751 10750 ] final   51.29 input  -60.55 | X-H torsion
[ 11005 11000 10999 10996 ] final   20.85 input  -57.11 | X-H torsion

> <Gold.Protein.ActiveResidues>
 VAL166  LYS551  ARG553  GLY616  TRP617  ASP618  TYR619  PRO620  LYS621  CYS622 
 ASP623  PHE694  ASN695  SER759  ASP760  ASP761  ALA762  ILE779  LEU786  VAL792 
 PHE793  MET794  SER795  GLU796  ALA797  LYS798  CYS799  TRP800  GLU811  SER814 

> <Gold.Protein.RotatedAtoms>
  151.9245  135.0284  160.0524 H   0  0  0  0  0  0  0  0  0  0  0  0  # atno 6907 bound_to 6896
  152.2171  133.4950  159.5150 H   0  0  0  0  0  0  0  0  0  0  0  0  # atno 6908 bound_to 6896
  150.6990  134.1308  159.4111 H   0  0  0  0  0  0  0  0  0  0  0  0  # atno 6909 bound_to 6896
  145.9721  139.4159  143.0184 H   0  0  0  0  0  0  0  0  0  0  0  0  # atno 7974 bound_to 7965
  154.5745  140.0685  156.9013 H   0  0  0  0  0  0  0  0  0  0  0  0  # atno 8008 bound_to 7997
  155.2575  140.3356  155.4258 H   0  0  0  0  0  0  0  0  0  0  0  0  # atno 8009 bound_to 7997
  156.2143  140.1772  156.7609 H   0  0  0  0  0  0  0  0  0  0  0  0  # atno 8010 bound_to 7997
  139.6915  144.7107  151.1339 H   0  0  0  0  0  0  0  0  0  0  0  0  # atno 10167 bound_to 10162
  156.2405  130.4179  149.8766 H   0  0  0  0  0  0  0  0  0  0  0  0  # atno 10718 bound_to 10713
  152.9785  135.5851  154.4391 H   0  0  0  0  0  0  0  0  0  0  0  0  # atno 10763 bound_to 10752
  154.3995  135.2768  155.2107 H   0  0  0  0  0  0  0  0  0  0  0  0  # atno 10764 bound_to 10752
  154.3944  135.6118  153.5916 H   0  0  0  0  0  0  0  0  0  0  0  0  # atno 10765 bound_to 10752
  140.3981  134.1748  155.7663 H   0  0  0  0  0  0  0  0  0  0  0  0  # atno 11005 bound_to 11000
  145.7892  140.9822  143.1058 LP  0  0  0  0  0  0  0  0  0  0  0  0  # atno 17320 bound_to 7965
  144.6839  139.9661  143.7481 LP  0  0  0  0  0  0  0  0  0  0  0  0  # atno 17321 bound_to 7965
  140.7684  143.5552  150.9160 LP  0  0  0  0  0  0  0  0  0  0  0  0  # atno 17342 bound_to 10162
  139.9229  143.6584  152.3093 LP  0  0  0  0  0  0  0  0  0  0  0  0  # atno 17343 bound_to 10162
  156.6349  130.8681  151.3502 LP  0  0  0  0  0  0  0  0  0  0  0  0  # atno 17370 bound_to 10713
  157.7173  130.9513  150.1304 LP  0  0  0  0  0  0  0  0  0  0  0  0  # atno 17371 bound_to 10713
  141.1867  133.8297  157.1060 LP  0  0  0  0  0  0  0  0  0  0  0  0  # atno 17394 bound_to 11000
  140.0357  134.9879  157.0866 LP  0  0  0  0  0  0  0  0  0  0  0  0  # atno 17395 bound_to 11000

$$$$
