AV-unprocessed.smi:2061|AV-procd|sdf|8383|dock8
  -GOLD-   2272011 63D 1   1.00000     0.00000
 Structure written by MMmdl.
 45 46  0  0  0  0  0  0  0  0  3 V2000
  152.9555  142.6360  162.5690 C   0  0  0  0  0  0  0  0  0  0  0  0
  153.2886  141.7510  161.4173 C   0  0  0  0  0  0  0  0  0  0  0  0
  152.6003  141.3880  160.2944 C   0  0  0  0  0  0  0  0  0  0  0  0
  153.5047  140.5182  159.6260 C   0  0  0  0  0  0  0  0  0  0  0  0
  153.2881  139.9054  158.4518 N   0  5  0  0  0  0  0  0  0  0  0  0
  152.0366  139.5368  158.0964 C   0  0  0  0  0  0  0  0  0  0  0  0
  151.2438  138.8819  158.7773 O   0  0  0  0  0  0  0  0  0  0  0  0
  151.6769  139.9592  156.8760 N   0  0  0  0  0  0  0  0  0  0  0  0
  150.3822  139.7251  156.2444 C   0  0  0  0  0  0  0  0  0  0  0  0
  150.4612  139.7017  154.6960 C   0  0  1  0  0  0  0  0  0  0  0  0
  151.0676  138.3622  154.2121 C   0  0  0  0  0  0  0  0  0  0  0  0
  149.1122  140.0015  154.1159 N   0  3  1  0  0  0  0  0  0  0  0  0
  148.1302  138.9172  154.3860 C   0  0  0  0  0  0  0  0  0  0  0  0
  146.7890  139.1724  153.6739 C   0  0  2  0  0  0  0  0  0  0  0  0
  146.8481  138.9570  152.1510 C   0  0  0  0  0  0  0  0  0  0  0  0
  146.2881  140.4603  154.0248 O   0  0  0  0  0  0  0  0  0  0  0  0
  147.1796  141.5362  153.7530 C   0  0  1  0  0  0  0  0  0  0  0  0
  146.4941  142.8348  154.1928 C   0  0  0  0  0  0  0  0  0  0  0  0
  148.5142  141.3116  154.4883 C   0  0  0  0  0  0  0  0  0  0  0  0
  154.6470  140.3786  160.2778 N   0  0  0  0  0  0  0  0  0  0  0  0
  154.5143  141.1618  161.4306 O   0  0  0  0  0  0  0  0  0  0  0  0
  153.3674  143.6342  162.4194 H   0  0  0  0  0  0  0  0  0  0  0  0
  153.3633  142.2363  163.4978 H   0  0  0  0  0  0  0  0  0  0  0  0
  151.8757  142.7290  162.6871 H   0  0  0  0  0  0  0  0  0  0  0  0
  151.6077  141.6929  159.9988 H   0  0  0  0  0  0  0  0  0  0  0  0
  152.3566  140.4890  156.3500 H   0  0  0  0  0  0  0  0  0  0  0  0
  150.0041  138.7687  156.6068 H   0  0  0  0  0  0  0  0  0  0  0  0
  149.6837  140.4783  156.6079 H   0  0  0  0  0  0  0  0  0  0  0  0
  151.1423  140.4870  154.3637 H   0  0  0  0  0  0  0  0  0  0  0  0
  152.0394  138.1738  154.6683 H   0  0  0  0  0  0  0  0  0  0  0  0
  151.2421  138.3571  153.1362 H   0  0  0  0  0  0  0  0  0  0  0  0
  150.4232  137.5184  154.4606 H   0  0  0  0  0  0  0  0  0  0  0  0
  148.5154  137.9448  154.0828 H   0  0  0  0  0  0  0  0  0  0  0  0
  147.9603  138.8567  155.4624 H   0  0  0  0  0  0  0  0  0  0  0  0
  146.0664  138.4547  154.0638 H   0  0  0  0  0  0  0  0  0  0  0  0
  147.1061  137.9235  151.9177 H   0  0  0  0  0  0  0  0  0  0  0  0
  147.5927  139.5907  151.6703 H   0  0  0  0  0  0  0  0  0  0  0  0
  145.8820  139.1663  151.6912 H   0  0  0  0  0  0  0  0  0  0  0  0
  147.3610  141.5999  152.6799 H   0  0  0  0  0  0  0  0  0  0  0  0
  147.1281  143.7003  153.9987 H   0  0  0  0  0  0  0  0  0  0  0  0
  146.2653  142.8194  155.2589 H   0  0  0  0  0  0  0  0  0  0  0  0
  145.5579  142.9824  153.6538 H   0  0  0  0  0  0  0  0  0  0  0  0
  148.3683  141.3525  155.5691 H   0  0  0  0  0  0  0  0  0  0  0  0
  149.1767  142.1320  154.2146 H   0  0  0  0  0  0  0  0  0  0  0  0
  149.2445  140.0367  153.1152 H   0  0  0  0  0  0  0  0  0  0  0  0
  1  2  1  0  0  0  0
  1 22  1  0  0  0  0
  1 23  1  0  0  0  0
  1 24  1  0  0  0  0
  2 21  1  0  0  0  0
  2  3  2  0  0  0  0
  3  4  1  0  0  0  0
  3 25  1  0  0  0  0
  4  5  1  0  0  0  0
  4 20  2  0  0  0  0
  5  6  1  0  0  0  0
  6  7  2  0  0  0  0
  6  8  1  0  0  0  0
  8  9  1  0  0  0  0
  8 26  1  0  0  0  0
  9 10  1  0  0  0  0
  9 27  1  0  0  0  0
  9 28  1  0  0  0  0
 10 11  1  0  0  0  0
 10 12  1  0  0  0  0
 10 29  1  0  0  0  0
 11 30  1  0  0  0  0
 11 31  1  0  0  0  0
 11 32  1  0  0  0  0
 12 19  1  0  0  0  0
 12 13  1  0  0  0  0
 12 45  1  0  0  0  0
 13 14  1  0  0  0  0
 13 33  1  0  0  0  0
 13 34  1  0  0  0  0
 14 15  1  0  0  0  0
 14 16  1  0  0  0  0
 14 35  1  0  0  0  0
 15 36  1  0  0  0  0
 15 37  1  0  0  0  0
 15 38  1  0  0  0  0
 16 17  1  0  0  0  0
 17 18  1  0  0  0  0
 17 19  1  0  0  0  0
 17 39  1  0  0  0  0
 18 40  1  0  0  0  0
 18 41  1  0  0  0  0
 18 42  1  0  0  0  0
 19 43  1  0  0  0  0
 19 44  1  0  0  0  0
 20 21  1  0  0  0  0
M  CHG  1   5  -1
M  CHG  1  12   1
M  END
> <s_m_source_file>
AV-unprocessed.smi

> <i_m_source_file_index>
2061

> <i_lp_mmshare_version>
43012

> <i_f3d_flags>
0

> <s_epik_input>
W0NIM11jMVtjSF1jKG5vMSlbTkhdQyg9TylbTkhdW0NIMl1bQ0BIXShbQ0gzXSlOMltDSDJdW0NAQEhdKFtDSDNdKU9bQ0BASF0oW0NIM10pW0NIMl0y

> <s_epik_cmdline>
J2VwaWtfcHl0aG9uJywgJy1waCcsICc3LjAnLCAnLXRuJywgJzgnLCAnLW1hJywgJzIwMCcsICctbWV0YWxfYmluZGluZycsICctaW1hZScsICc8aW5maWxlLm1hZT4nLCAnLW9tYWUnLCAnPG91dGZpbGUubWFlPic=

> <r_epik_Ionization_Penalty>
6.73511

> <r_epik_Ionization_Penalty_Charging>
6.73502

> <r_epik_Ionization_Penalty_Neutral>
9.50841e-05

> <r_epik_State_Penalty>
6.93549

> <r_epik_Charging_Adjusted_Penalty>
13.6705

> <i_epik_Tot_Q>
0

> <i_epik_Tot_abs_Q>
2

> <r_epik_Metal_State_Penalty>
2.87211

> <b_epik_Metal_Only>
1

> <s_lp_Force_Field>
OPLS_2005

> <r_lp_Energy>
11.2328

> <b_lp_Chiralities_Consistent>
1

> <s_lp_Variant>
AV-unprocessed.smi:2061-24

> <Gold.Version>
5.8.1

> <Gold.Id.Protein>
6NUR|6NUR_protein|mol2

> <Gold.PLP.Fitness>
48.8154

> <Gold.PLP.PLP>
-41.7995

> <Gold.PLP.part.hbond>
-3.0000

> <Gold.PLP.part.metal>
0.0000

> <Gold.PLP.part.buried>
-4.1204

> <Gold.PLP.part.nonpolar>
-33.9972

> <Gold.PLP.part.repulsive>
0.9722

> <Gold.PLP.ligand.clash>
0.0000

> <Gold.PLP.ligand.torsion>
1.0351

> <Gold.PLP.Chemscore.Hbond>
3.0000

> <Gold.PLP.Chemscore.CHOScore>
0.0000

> <Gold.PLP.Chemscore.Metal>
0.0000

> <Gold.Chemscore.Hbonds>
donor molecule, donor type, donor heavy atom, donor atom, acceptor molecule, acceptor atom, score
      L1  H    12    45       P1  7957  1.00
      P1  H  7997  8009       L1     5  2.00

> <Gold.PLP.Chemscore.Internal.Correction>
0.0860

> <Gold.Rescore>
     Score         DG    S(hbond)    S(metal)    S(lipo)     H(rot)  DE(clash)    DE(int)     intcor
     16.24     -17.58       1.71        0.00      88.72       1.56       0.18       1.17       ----

> <Gold.Chemscore.Fitness>
16.2356

> <Gold.Chemscore.DG>
-17.5824

> <Gold.Chemscore.ZeroCoef>
-5.4800

> <Gold.Chemscore.Hbond>
1.7075

> <Gold.Chemscore.Metal>
0.0000

> <Gold.Chemscore.Lipo>
88.7196

> <Gold.Chemscore.Internal_Hbond>
0.0000

> <Gold.Chemscore.DEClash>
0.1801

> <Gold.Chemscore.DEInternal>
1.1666

> <Gold.Chemscore.Rot>
1.5550

> <Gold.Chemscore.Internal.Correction>
   9.000000E+99

> <Gold.Chemscore.Hbonds>
donor molecule, donor type, donor heavy atom, donor atom, acceptor molecule, acceptor atom, score
      L1  H    12    45       P1  7957  0.97
      P1  H  7997  8009       L1     5  0.90

> <Gold.Chemscore.Hbond.Weighted>
-5.7031

> <Gold.Chemscore.Metal.Weighted>
-0.0000

> <Gold.Chemscore.Lipo.Weighted>
-10.3802

> <Gold.Chemscore.Internal_Hbond.Weighted>
0.0000

> <Gold.Chemscore.DEClash.Weighted>
0.1801

> <Gold.Chemscore.DEInternal.Weighted>
1.1666

> <Gold.Chemscore.Rot.Weighted>
3.9809

> <Gold.Chemscore.Internal.Correction.Weighted>
   9.000000E+99

> <Gold.Protein.RotatedTorsions>
[ 6907 6896 6895 6894 ] final   90.42 input  -60.11 | X-H torsion
[ 7974 7965 7964 7962 ] final -118.91 input  175.53 | X-H torsion
[ 8008 7997 7996 7995 ] final  154.34 input   59.86 | X-H torsion
[ 10167 10162 10161 10158 ] final  154.56 input  -65.29 | X-H torsion
[ 10718 10713 10712 10709 ] final   -2.89 input   66.30 | X-H torsion
[ 10763 10752 10751 10750 ] final  -70.03 input  -60.55 | X-H torsion
[ 11005 11000 10999 10996 ] final   22.64 input  -57.11 | X-H torsion

> <Gold.Protein.ActiveResidues>
 VAL166  LYS551  ARG553  GLY616  TRP617  ASP618  TYR619  PRO620  LYS621  CYS622 
 ASP623  PHE694  ASN695  SER759  ASP760  ASP761  ALA762  ILE779  LEU786  VAL792 
 PHE793  MET794  SER795  GLU796  ALA797  LYS798  CYS799  TRP800  GLU811  SER814 

> <Gold.Protein.RotatedAtoms>
  152.5444  134.1815  159.8637 H   0  0  0  0  0  0  0  0  0  0  0  0  # atno 6907 bound_to 6896
  151.1817  133.4714  159.2601 H   0  0  0  0  0  0  0  0  0  0  0  0  # atno 6908 bound_to 6896
  151.1172  135.0071  159.8577 H   0  0  0  0  0  0  0  0  0  0  0  0  # atno 6909 bound_to 6896
  145.0685  140.8342  143.4110 H   0  0  0  0  0  0  0  0  0  0  0  0  # atno 7974 bound_to 7965
  156.2536  140.1969  156.6631 H   0  0  0  0  0  0  0  0  0  0  0  0  # atno 8008 bound_to 7997
  154.6449  140.0579  156.9915 H   0  0  0  0  0  0  0  0  0  0  0  0  # atno 8009 bound_to 7997
  155.1505  140.3251  155.4435 H   0  0  0  0  0  0  0  0  0  0  0  0  # atno 8010 bound_to 7997
  139.4823  144.5176  151.7927 H   0  0  0  0  0  0  0  0  0  0  0  0  # atno 10167 bound_to 10162
  156.7841  130.5340  149.5746 H   0  0  0  0  0  0  0  0  0  0  0  0  # atno 10718 bound_to 10713
  154.4118  135.6007  153.5957 H   0  0  0  0  0  0  0  0  0  0  0  0  # atno 10763 bound_to 10752
  152.9790  135.5931  154.4061 H   0  0  0  0  0  0  0  0  0  0  0  0  # atno 10764 bound_to 10752
  154.3874  135.2841  155.2153 H   0  0  0  0  0  0  0  0  0  0  0  0  # atno 10765 bound_to 10752
  140.3783  134.1948  155.7664 H   0  0  0  0  0  0  0  0  0  0  0  0  # atno 11005 bound_to 11000
  145.1322  139.2625  143.5533 LP  0  0  0  0  0  0  0  0  0  0  0  0  # atno 17320 bound_to 7965
  146.3528  140.0976  142.8609 LP  0  0  0  0  0  0  0  0  0  0  0  0  # atno 17321 bound_to 7965
  140.4686  144.1619  150.5915 LP  0  0  0  0  0  0  0  0  0  0  0  0  # atno 17342 bound_to 10162
  140.4406  143.2528  151.9477 LP  0  0  0  0  0  0  0  0  0  0  0  0  # atno 17343 bound_to 10162
  156.1199  130.6102  151.0178 LP  0  0  0  0  0  0  0  0  0  0  0  0  # atno 17370 bound_to 10713
  157.6632  131.0877  150.7790 LP  0  0  0  0  0  0  0  0  0  0  0  0  # atno 17371 bound_to 10713
  141.1932  133.8156  157.0809 LP  0  0  0  0  0  0  0  0  0  0  0  0  # atno 17394 bound_to 11000
  140.0498  134.9811  157.1115 LP  0  0  0  0  0  0  0  0  0  0  0  0  # atno 17395 bound_to 11000

$$$$
