AV-unprocessed.smi:3212|AV-procd|sdf|12281|dock7
  -GOLD-   2272018113D 1   1.00000     0.00000
 Structure written by MMmdl.
 39 39  0  0  0  0  0  0  0  0  1 V2000
  146.4841  138.2798  151.5878 C   0  0  0  0  0  0  0  0  0  0  0  0
  146.2744  137.8966  153.0609 C   0  0  1  0  0  0  0  0  0  0  0  0
  146.3713  136.4306  153.2108 N   0  0  0  0  0  0  0  0  0  0  0  0
  145.5033  135.6235  152.3514 C   0  0  0  0  0  0  0  0  0  0  0  0
  145.8011  134.1113  152.4200 C   0  0  0  0  0  0  0  0  0  0  0  0
  145.0721  133.3522  151.4202 N   0  0  0  0  0  0  0  0  0  0  0  0
  145.5671  132.4632  150.4895 C   0  0  0  0  0  0  0  0  0  0  0  0
  144.5058  131.9993  149.7667 C   0  0  0  0  0  0  0  0  0  0  0  0
  143.3889  132.6719  150.3364 C   0  0  0  0  0  0  0  0  0  0  0  0
  143.7314  133.4839  151.3234 N   0  0  0  0  0  0  0  0  0  0  0  0
  147.2468  138.6729  153.9640 C   0  0  0  0  0  0  0  0  0  0  0  0
  146.8153  139.5225  154.7432 O   0  0  0  0  0  0  0  0  0  0  0  0
  148.5519  138.3844  153.8144 N   0  0  0  0  0  0  0  0  0  0  0  0
  149.7055  138.9901  154.4885 C   0  0  0  0  0  0  0  0  0  0  0  0
  149.5026  138.7733  155.9983 C   0  0  0  0  0  0  0  0  0  0  0  0
  149.7758  140.5055  154.2047 C   0  0  0  0  0  0  0  0  0  0  0  0
  151.0106  138.2925  154.0518 C   0  0  0  0  0  0  0  0  0  0  0  0
  146.4019  139.3575  151.4420 H   0  0  0  0  0  0  0  0  0  0  0  0
  145.7337  137.8082  150.9522 H   0  0  0  0  0  0  0  0  0  0  0  0
  147.4650  137.9687  151.2258 H   0  0  0  0  0  0  0  0  0  0  0  0
  145.2583  138.1957  153.3210 H   0  0  0  0  0  0  0  0  0  0  0  0
  146.2184  136.1585  154.1716 H   0  0  0  0  0  0  0  0  0  0  0  0
  144.4764  135.7981  152.6738 H   0  0  0  0  0  0  0  0  0  0  0  0
  145.5460  135.9722  151.3195 H   0  0  0  0  0  0  0  0  0  0  0  0
  146.8671  133.9427  152.2623 H   0  0  0  0  0  0  0  0  0  0  0  0
  145.5771  133.7048  153.4061 H   0  0  0  0  0  0  0  0  0  0  0  0
  146.6208  132.2356  150.4224 H   0  0  0  0  0  0  0  0  0  0  0  0
  144.5239  131.2868  148.9556 H   0  0  0  0  0  0  0  0  0  0  0  0
  142.3469  132.5963  150.0631 H   0  0  0  0  0  0  0  0  0  0  0  0
  148.7751  137.6697  153.1372 H   0  0  0  0  0  0  0  0  0  0  0  0
  150.3263  139.1953  156.5753 H   0  0  0  0  0  0  0  0  0  0  0  0
  149.4420  137.7120  156.2434 H   0  0  0  0  0  0  0  0  0  0  0  0
  148.5831  139.2444  156.3481 H   0  0  0  0  0  0  0  0  0  0  0  0
  148.8417  141.0026  154.4684 H   0  0  0  0  0  0  0  0  0  0  0  0
  149.9784  140.7194  153.1552 H   0  0  0  0  0  0  0  0  0  0  0  0
  150.5717  140.9755  154.7834 H   0  0  0  0  0  0  0  0  0  0  0  0
  151.8652  138.6730  154.6119 H   0  0  0  0  0  0  0  0  0  0  0  0
  151.2257  138.4503  152.9950 H   0  0  0  0  0  0  0  0  0  0  0  0
  150.9609  137.2161  154.2205 H   0  0  0  0  0  0  0  0  0  0  0  0
  1  2  1  0  0  0  0
  1 18  1  0  0  0  0
  1 19  1  0  0  0  0
  1 20  1  0  0  0  0
  2  3  1  0  0  0  0
  2 11  1  0  0  0  0
  2 21  1  0  0  0  0
  3  4  1  0  0  0  0
  3 22  1  0  0  0  0
  4  5  1  0  0  0  0
  4 23  1  0  0  0  0
  4 24  1  0  0  0  0
  5  6  1  0  0  0  0
  5 25  1  0  0  0  0
  5 26  1  0  0  0  0
  6 10  1  0  0  0  0
  6  7  1  0  0  0  0
  7  8  2  0  0  0  0
  7 27  1  0  0  0  0
  8  9  1  0  0  0  0
  8 28  1  0  0  0  0
  9 10  2  0  0  0  0
  9 29  1  0  0  0  0
 11 12  2  0  0  0  0
 11 13  1  0  0  0  0
 13 14  1  0  0  0  0
 13 30  1  0  0  0  0
 14 15  1  0  0  0  0
 14 16  1  0  0  0  0
 14 17  1  0  0  0  0
 15 31  1  0  0  0  0
 15 32  1  0  0  0  0
 15 33  1  0  0  0  0
 16 34  1  0  0  0  0
 16 35  1  0  0  0  0
 16 36  1  0  0  0  0
 17 37  1  0  0  0  0
 17 38  1  0  0  0  0
 17 39  1  0  0  0  0
M  END
> <s_m_source_file>
AV-unprocessed.smi

> <i_m_source_file_index>
3212

> <i_lp_mmshare_version>
43012

> <i_f3d_flags>
0

> <s_epik_input>
W0NIM11DKFtDSDNdKShbQ0gzXSlbTkhdQyg9TylbQ0BIXShbQ0gzXSlbTkhdW0NIMl1bQ0gyXW4xW2NIXVtjSF1bY0hdbjE=

> <s_epik_cmdline>
J2VwaWtfcHl0aG9uJywgJy1waCcsICc3LjAnLCAnLXRuJywgJzgnLCAnLW1hJywgJzIwMCcsICctbWV0YWxfYmluZGluZycsICctaW1hZScsICc8aW5maWxlLm1hZT4nLCAnLW9tYWUnLCAnPG91dGZpbGUubWFlPic=

> <r_lp_tautomer_probability>
1

> <r_epik_Ionization_Penalty>
0.745735

> <r_epik_Ionization_Penalty_Charging>
0

> <r_epik_Ionization_Penalty_Neutral>
0.745735

> <r_epik_State_Penalty>
0.771152

> <r_epik_Charging_Adjusted_Penalty>
0.771152

> <i_epik_Tot_Q>
0

> <i_epik_Tot_abs_Q>
0

> <r_epik_Metal_State_Penalty>
0.770403

> <b_epik_Metal_Only>
0

> <s_lp_Force_Field>
OPLS_2005

> <r_lp_Energy>
7.05168

> <b_lp_Chiralities_Consistent>
1

> <s_lp_Variant>
AV-unprocessed.smi:3212-4

> <Gold.Version>
5.8.1

> <Gold.Id.Protein>
6NUR|6NUR_protein|mol2

> <Gold.PLP.Fitness>
38.7245

> <Gold.PLP.PLP>
-29.9371

> <Gold.PLP.part.hbond>
-2.0002

> <Gold.PLP.part.metal>
0.0000

> <Gold.PLP.part.buried>
-1.5822

> <Gold.PLP.part.nonpolar>
-26.8328

> <Gold.PLP.part.repulsive>
0.2554

> <Gold.PLP.ligand.clash>
0.0000

> <Gold.PLP.ligand.torsion>
0.1566

> <Gold.PLP.Chemscore.Hbond>
1.0000

> <Gold.PLP.Chemscore.CHOScore>
2.0104

> <Gold.PLP.Chemscore.Metal>
0.0000

> <Gold.Chemscore.Hbonds>
donor molecule, donor type, donor heavy atom, donor atom, acceptor molecule, acceptor atom, score
      L1  H    13    30       P1  7948  1.00
      L1  C     7    27       P1 10747  0.51
      L1  C     9    29       P1 10186  0.89
      L1  C     9    29       P1 10952  0.45

> <Gold.PLP.Chemscore.Internal.Correction>
0.0693

> <Gold.Rescore>
     Score         DG    S(hbond)    S(metal)    S(lipo)     H(rot)  DE(clash)    DE(int)     intcor
     12.85     -13.07       1.00        0.00      79.80       1.99       0.01       0.20       ----

> <Gold.Chemscore.Fitness>
12.8540

> <Gold.Chemscore.DG>
-13.0651

> <Gold.Chemscore.ZeroCoef>
-5.4800

> <Gold.Chemscore.Hbond>
0.9992

> <Gold.Chemscore.Metal>
0.0000

> <Gold.Chemscore.Lipo>
79.8033

> <Gold.Chemscore.Internal_Hbond>
0.0000

> <Gold.Chemscore.DEClash>
0.0112

> <Gold.Chemscore.DEInternal>
0.1998

> <Gold.Chemscore.Rot>
1.9880

> <Gold.Chemscore.Internal.Correction>
   9.000000E+99

> <Gold.Chemscore.Hbonds>
donor molecule, donor type, donor heavy atom, donor atom, acceptor molecule, acceptor atom, score
      L1  H    13    30       P1  7948  1.00

> <Gold.Chemscore.Hbond.Weighted>
-3.3374

> <Gold.Chemscore.Metal.Weighted>
-0.0000

> <Gold.Chemscore.Lipo.Weighted>
-9.3370

> <Gold.Chemscore.Internal_Hbond.Weighted>
0.0000

> <Gold.Chemscore.DEClash.Weighted>
0.0112

> <Gold.Chemscore.DEInternal.Weighted>
0.1998

> <Gold.Chemscore.Rot.Weighted>
5.0893

> <Gold.Chemscore.Internal.Correction.Weighted>
   9.000000E+99

> <Gold.Protein.RotatedTorsions>
[ 6907 6896 6895 6894 ] final   67.17 input  -60.11 | X-H torsion
[ 7974 7965 7964 7962 ] final  -39.69 input  175.53 | X-H torsion
[ 8008 7997 7996 7995 ] final -178.23 input   59.86 | X-H torsion
[ 10167 10162 10161 10158 ] final -120.65 input  -65.29 | X-H torsion
[ 10718 10713 10712 10709 ] final -139.24 input   66.30 | X-H torsion
[ 10763 10752 10751 10750 ] final  -41.02 input  -60.55 | X-H torsion
[ 11005 11000 10999 10996 ] final    1.25 input  -57.11 | X-H torsion

> <Gold.Protein.ActiveResidues>
 VAL166  LYS551  ARG553  GLY616  TRP617  ASP618  TYR619  PRO620  LYS621  CYS622 
 ASP623  PHE694  ASN695  SER759  ASP760  ASP761  ALA762  ILE779  LEU786  VAL792 
 PHE793  MET794  SER795  GLU796  ALA797  LYS798  CYS799  TRP800  GLU811  SER814 

> <Gold.Protein.RotatedAtoms>
  152.4533  134.5346  159.9820 H   0  0  0  0  0  0  0  0  0  0  0  0  # atno 6907 bound_to 6896
  151.5413  133.3426  159.2944 H   0  0  0  0  0  0  0  0  0  0  0  0  # atno 6908 bound_to 6896
  150.8469  134.7812  159.7041 H   0  0  0  0  0  0  0  0  0  0  0  0  # atno 6909 bound_to 6896
  146.0373  140.6655  142.9104 H   0  0  0  0  0  0  0  0  0  0  0  0  # atno 7974 bound_to 7965
  156.0163  140.1251  157.0403 H   0  0  0  0  0  0  0  0  0  0  0  0  # atno 8008 bound_to 7997
  154.4294  140.1077  156.5971 H   0  0  0  0  0  0  0  0  0  0  0  0  # atno 8009 bound_to 7997
  155.6008  140.3470  155.4595 H   0  0  0  0  0  0  0  0  0  0  0  0  # atno 8010 bound_to 7997
  140.0335  143.5224  152.2165 H   0  0  0  0  0  0  0  0  0  0  0  0  # atno 10167 bound_to 10162
  156.3084  130.7468  151.1538 H   0  0  0  0  0  0  0  0  0  0  0  0  # atno 10718 bound_to 10713
  153.9557  135.6745  153.4744 H   0  0  0  0  0  0  0  0  0  0  0  0  # atno 10763 bound_to 10752
  153.0863  135.4897  154.8599 H   0  0  0  0  0  0  0  0  0  0  0  0  # atno 10764 bound_to 10752
  154.7301  135.3136  154.8865 H   0  0  0  0  0  0  0  0  0  0  0  0  # atno 10765 bound_to 10752
  140.6175  133.9691  155.8208 H   0  0  0  0  0  0  0  0  0  0  0  0  # atno 11005 bound_to 11000
  144.7058  140.3844  143.7119 LP  0  0  0  0  0  0  0  0  0  0  0  0  # atno 17320 bound_to 7965
  145.6943  139.1646  143.2629 LP  0  0  0  0  0  0  0  0  0  0  0  0  # atno 17321 bound_to 7965
  139.6060  144.7596  151.3060 LP  0  0  0  0  0  0  0  0  0  0  0  0  # atno 17342 bound_to 10162
  140.7292  143.6915  150.7918 LP  0  0  0  0  0  0  0  0  0  0  0  0  # atno 17343 bound_to 10162
  157.7385  131.0540  150.5290 LP  0  0  0  0  0  0  0  0  0  0  0  0  # atno 17370 bound_to 10713
  156.5426  130.4212  149.6146 LP  0  0  0  0  0  0  0  0  0  0  0  0  # atno 17371 bound_to 10713
  141.0765  134.0127  157.3450 LP  0  0  0  0  0  0  0  0  0  0  0  0  # atno 17394 bound_to 11000
  139.9167  135.0197  156.7907 LP  0  0  0  0  0  0  0  0  0  0  0  0  # atno 17395 bound_to 11000

$$$$
