AV-unprocessed.smi:702|AV-procd|sdf|3419|dock1
  -GOLD-   22720 0403D 1   1.00000     0.00000
 Structure written by MMmdl.
 49 51  0  0  0  0  0  0  0  0  1 V2000
  146.8890  139.6936  151.7188 C   0  0  0  0  0  0  0  0  0  0  0  0
  146.5138  138.6984  152.8345 C   0  0  1  0  0  0  0  0  0  0  0  0
  146.7150  137.3350  152.3289 N   0  0  0  0  0  0  0  0  0  0  0  0
  145.7666  136.4874  151.9021 C   0  0  0  0  0  0  0  0  0  0  0  0
  144.5686  136.7663  151.8594 O   0  0  0  0  0  0  0  0  0  0  0  0
  146.3033  135.3032  151.5602 N   0  0  0  0  0  0  0  0  0  0  0  0
  145.6496  134.1290  151.0974 C   0  0  0  0  0  0  0  0  0  0  0  0
  146.4464  132.9938  150.8415 C   0  0  0  0  0  0  0  0  0  0  0  0
  145.8257  131.8205  150.3686 C   0  0  0  0  0  0  0  0  0  0  0  0
  144.4998  131.7250  150.1361 N   0  0  0  0  0  0  0  0  0  0  0  0
  143.7406  132.8166  150.3678 C   0  0  0  0  0  0  0  0  0  0  0  0
  144.2601  134.0381  150.8415 C   0  0  0  0  0  0  0  0  0  0  0  0
  147.2734  138.9528  154.1915 C   0  0  0  0  0  0  0  0  0  0  0  0
  146.7204  140.1434  154.9084 N   0  0  0  0  0  0  0  0  0  0  0  0
  145.3330  140.0104  155.3831 C   0  0  0  0  0  0  0  0  0  0  0  0
  144.8811  141.2259  156.2092 C   0  0  0  0  0  0  0  0  0  0  0  0
  145.0199  142.4074  155.4314 O   0  0  0  0  0  0  0  0  0  0  0  0
  146.3598  142.6162  155.0048 C   0  0  0  0  0  0  0  0  0  0  0  0
  146.8421  141.4121  154.1771 C   0  0  0  0  0  0  0  0  0  0  0  0
  147.2232  137.6529  155.0577 C   0  0  0  0  0  0  0  0  0  0  0  0
  148.6162  137.0211  155.0195 C   0  0  0  0  0  0  0  0  0  0  0  0
  149.5573  138.2021  154.8338 C   0  0  0  0  0  0  0  0  0  0  0  0
  148.7978  139.1294  153.8840 C   0  0  0  0  0  0  0  0  0  0  0  0
  146.6722  140.7220  152.0075 H   0  0  0  0  0  0  0  0  0  0  0  0
  146.3213  139.4904  150.8102 H   0  0  0  0  0  0  0  0  0  0  0  0
  147.9470  139.6381  151.4630 H   0  0  0  0  0  0  0  0  0  0  0  0
  145.4454  138.8128  153.0099 H   0  0  0  0  0  0  0  0  0  0  0  0
  147.6683  137.0031  152.3263 H   0  0  0  0  0  0  0  0  0  0  0  0
  147.2959  135.2087  151.7166 H   0  0  0  0  0  0  0  0  0  0  0  0
  147.5134  133.0139  151.0087 H   0  0  0  0  0  0  0  0  0  0  0  0
  146.4114  130.9350  150.1707 H   0  0  0  0  0  0  0  0  0  0  0  0
  142.6849  132.7160  150.1631 H   0  0  0  0  0  0  0  0  0  0  0  0
  143.5907  134.8717  150.9849 H   0  0  0  0  0  0  0  0  0  0  0  0
  144.6468  139.8929  154.5458 H   0  0  0  0  0  0  0  0  0  0  0  0
  145.2110  139.1281  156.0073 H   0  0  0  0  0  0  0  0  0  0  0  0
  143.8374  141.1161  156.5040 H   0  0  0  0  0  0  0  0  0  0  0  0
  145.4663  141.3109  157.1262 H   0  0  0  0  0  0  0  0  0  0  0  0
  146.4054  143.5271  154.4079 H   0  0  0  0  0  0  0  0  0  0  0  0
  147.0049  142.7701  155.8712 H   0  0  0  0  0  0  0  0  0  0  0  0
  147.8754  141.6131  153.9059 H   0  0  0  0  0  0  0  0  0  0  0  0
  146.2755  141.3667  153.2468 H   0  0  0  0  0  0  0  0  0  0  0  0
  146.9789  137.8632  156.0972 H   0  0  0  0  0  0  0  0  0  0  0  0
  146.4596  136.9486  154.7261 H   0  0  0  0  0  0  0  0  0  0  0  0
  148.8397  136.4440  155.9171 H   0  0  0  0  0  0  0  0  0  0  0  0
  148.6960  136.3485  154.1645 H   0  0  0  0  0  0  0  0  0  0  0  0
  149.7234  138.6958  155.7917 H   0  0  0  0  0  0  0  0  0  0  0  0
  150.5299  137.9045  154.4408 H   0  0  0  0  0  0  0  0  0  0  0  0
  149.0514  138.8269  152.8690 H   0  0  0  0  0  0  0  0  0  0  0  0
  149.1417  140.1615  153.9483 H   0  0  0  0  0  0  0  0  0  0  0  0
  1  2  1  0  0  0  0
  1 24  1  0  0  0  0
  1 25  1  0  0  0  0
  1 26  1  0  0  0  0
  2  3  1  0  0  0  0
  2 13  1  0  0  0  0
  2 27  1  0  0  0  0
  3  4  1  0  0  0  0
  3 28  1  0  0  0  0
  4  5  2  0  0  0  0
  4  6  1  0  0  0  0
  6  7  1  0  0  0  0
  6 29  1  0  0  0  0
  7 12  1  0  0  0  0
  7  8  2  0  0  0  0
  8  9  1  0  0  0  0
  8 30  1  0  0  0  0
  9 10  2  0  0  0  0
  9 31  1  0  0  0  0
 10 11  1  0  0  0  0
 11 12  2  0  0  0  0
 11 32  1  0  0  0  0
 12 33  1  0  0  0  0
 13 23  1  0  0  0  0
 13 14  1  0  0  0  0
 13 20  1  0  0  0  0
 14 19  1  0  0  0  0
 14 15  1  0  0  0  0
 15 16  1  0  0  0  0
 15 34  1  0  0  0  0
 15 35  1  0  0  0  0
 16 17  1  0  0  0  0
 16 36  1  0  0  0  0
 16 37  1  0  0  0  0
 17 18  1  0  0  0  0
 18 19  1  0  0  0  0
 18 38  1  0  0  0  0
 18 39  1  0  0  0  0
 19 40  1  0  0  0  0
 19 41  1  0  0  0  0
 20 21  1  0  0  0  0
 20 42  1  0  0  0  0
 20 43  1  0  0  0  0
 21 22  1  0  0  0  0
 21 44  1  0  0  0  0
 21 45  1  0  0  0  0
 22 23  1  0  0  0  0
 22 46  1  0  0  0  0
 22 47  1  0  0  0  0
 23 48  1  0  0  0  0
 23 49  1  0  0  0  0
M  END
> <s_m_source_file>
AV-unprocessed.smi

> <i_m_source_file_index>
702

> <i_lp_mmshare_version>
43012

> <i_f3d_flags>
0

> <s_epik_input>
W0NIMl0xW0NIMl1PW0NIMl1bQ0gyXU4xQzIoW0NIMl1bQ0gyXVtDSDJdW0NIMl0yKVtDQEhdKFtDSDNdKVtOSF1DKD1PKVtOSF1jM1tjSF1bY0hdbltjSF1bY0hdMw==

> <s_epik_cmdline>
J2VwaWtfcHl0aG9uJywgJy1waCcsICc3LjAnLCAnLXRuJywgJzgnLCAnLW1hJywgJzIwMCcsICctbWV0YWxfYmluZGluZycsICctaW1hZScsICc8aW5maWxlLm1hZT4nLCAnLW9tYWUnLCAnPG91dGZpbGUubWFlPic=

> <r_epik_Ionization_Penalty>
0.626636

> <r_epik_Ionization_Penalty_Charging>
0

> <r_epik_Ionization_Penalty_Neutral>
0.626636

> <r_epik_State_Penalty>
0.629018

> <r_epik_Charging_Adjusted_Penalty>
0.629018

> <i_epik_Tot_Q>
0

> <i_epik_Tot_abs_Q>
0

> <r_epik_Metal_State_Penalty>
0.606459

> <b_epik_Metal_Only>
0

> <s_lp_Force_Field>
OPLS_2005

> <r_lp_Energy>
67.1263

> <b_lp_Chiralities_Consistent>
1

> <s_lp_Variant>
AV-unprocessed.smi:702-4

> <Gold.Version>
5.8.1

> <Gold.Id.Protein>
6NUR|6NUR_protein|mol2

> <Gold.PLP.Fitness>
42.0487

> <Gold.PLP.PLP>
-31.8237

> <Gold.PLP.part.hbond>
-2.4832

> <Gold.PLP.part.metal>
0.0000

> <Gold.PLP.part.buried>
-1.2029

> <Gold.PLP.part.nonpolar>
-30.9907

> <Gold.PLP.part.repulsive>
2.5204

> <Gold.PLP.ligand.clash>
0.0073

> <Gold.PLP.ligand.torsion>
0.6588

> <Gold.PLP.Chemscore.Hbond>
1.8960

> <Gold.PLP.Chemscore.CHOScore>
1.9100

> <Gold.PLP.Chemscore.Metal>
0.0000

> <Gold.Chemscore.Hbonds>
donor molecule, donor type, donor heavy atom, donor atom, acceptor molecule, acceptor atom, score
      L1  H     3    28       P1  7948  1.00
      L1  H     6    29       P1  7948  0.86
      L1  C     9    31       P1 10747  0.84
      L1  C    11    32       P1 10186  1.00

> <Gold.PLP.Chemscore.Internal.Correction>
0.1319

> <Gold.Rescore>
     Score         DG    S(hbond)    S(metal)    S(lipo)     H(rot)  DE(clash)    DE(int)     intcor
     13.81     -18.06       1.89        0.00      84.53       1.41       1.71       2.54       ----

> <Gold.Chemscore.Fitness>
13.8057

> <Gold.Chemscore.DG>
-18.0594

> <Gold.Chemscore.ZeroCoef>
-5.4800

> <Gold.Chemscore.Hbond>
1.8868

> <Gold.Chemscore.Metal>
0.0000

> <Gold.Chemscore.Lipo>
84.5296

> <Gold.Chemscore.Internal_Hbond>
0.0000

> <Gold.Chemscore.DEClash>
1.7131

> <Gold.Chemscore.DEInternal>
2.5406

> <Gold.Chemscore.Rot>
1.4111

> <Gold.Chemscore.Internal.Correction>
   9.000000E+99

> <Gold.Chemscore.Hbonds>
donor molecule, donor type, donor heavy atom, donor atom, acceptor molecule, acceptor atom, score
      L1  H     3    28       P1  7948  0.95
      L1  H     6    29       P1  7948  0.81
      P1  H 10785 10796       L1    10  0.01

> <Gold.Chemscore.Hbond.Weighted>
-6.3018

> <Gold.Chemscore.Metal.Weighted>
-0.0000

> <Gold.Chemscore.Lipo.Weighted>
-9.8900

> <Gold.Chemscore.Internal_Hbond.Weighted>
0.0000

> <Gold.Chemscore.DEClash.Weighted>
1.7131

> <Gold.Chemscore.DEInternal.Weighted>
2.5406

> <Gold.Chemscore.Rot.Weighted>
3.6123

> <Gold.Chemscore.Internal.Correction.Weighted>
   9.000000E+99

> <Gold.Protein.RotatedTorsions>
[ 6907 6896 6895 6894 ] final   33.99 input  -60.11 | X-H torsion
[ 7974 7965 7964 7962 ] final  -67.87 input  175.53 | X-H torsion
[ 8008 7997 7996 7995 ] final -136.04 input   59.86 | X-H torsion
[ 10167 10162 10161 10158 ] final  -22.32 input  -65.29 | X-H torsion
[ 10718 10713 10712 10709 ] final   20.50 input   66.30 | X-H torsion
[ 10763 10752 10751 10750 ] final -149.77 input  -60.55 | X-H torsion
[ 11005 11000 10999 10996 ] final    7.90 input  -57.11 | X-H torsion

> <Gold.Protein.ActiveResidues>
 VAL166  LYS551  ARG553  GLY616  TRP617  ASP618  TYR619  PRO620  LYS621  CYS622 
 ASP623  PHE694  ASN695  SER759  ASP760  ASP761  ALA762  ILE779  LEU786  VAL792 
 PHE793  MET794  SER795  GLU796  ALA797  LYS798  CYS799  TRP800  GLU811  SER814 

> <Gold.Protein.RotatedAtoms>
  152.0962  134.9373  160.0570 H   0  0  0  0  0  0  0  0  0  0  0  0  # atno 6907 bound_to 6896
  152.0605  133.4055  159.4424 H   0  0  0  0  0  0  0  0  0  0  0  0  # atno 6908 bound_to 6896
  150.6838  134.3126  159.4796 H   0  0  0  0  0  0  0  0  0  0  0  0  # atno 6909 bound_to 6896
  145.7237  140.9027  143.0616 H   0  0  0  0  0  0  0  0  0  0  0  0  # atno 7974 bound_to 7965
  155.3886  140.0498  157.3041 H   0  0  0  0  0  0  0  0  0  0  0  0  # atno 8008 bound_to 7997
  154.5047  140.2170  155.9236 H   0  0  0  0  0  0  0  0  0  0  0  0  # atno 8009 bound_to 7997
  156.1511  140.3135  155.8655 H   0  0  0  0  0  0  0  0  0  0  0  0  # atno 8010 bound_to 7997
  140.7285  143.4545  151.0468 H   0  0  0  0  0  0  0  0  0  0  0  0  # atno 10167 bound_to 10162
  157.1254  130.6567  149.5936 H   0  0  0  0  0  0  0  0  0  0  0  0  # atno 10718 bound_to 10713
  154.8158  135.3301  154.7180 H   0  0  0  0  0  0  0  0  0  0  0  0  # atno 10763 bound_to 10752
  153.7822  135.6917  153.4891 H   0  0  0  0  0  0  0  0  0  0  0  0  # atno 10764 bound_to 10752
  153.1973  135.4529  155.0171 H   0  0  0  0  0  0  0  0  0  0  0  0  # atno 10765 bound_to 10752
  140.5430  134.0356  155.7910 H   0  0  0  0  0  0  0  0  0  0  0  0  # atno 11005 bound_to 11000
  144.6910  139.9237  143.7469 LP  0  0  0  0  0  0  0  0  0  0  0  0  # atno 17320 bound_to 7965
  146.0602  139.3596  143.0586 LP  0  0  0  0  0  0  0  0  0  0  0  0  # atno 17321 bound_to 7965
  139.8224  143.7801  152.3177 LP  0  0  0  0  0  0  0  0  0  0  0  0  # atno 17342 bound_to 10162
  139.7889  144.7417  150.9983 LP  0  0  0  0  0  0  0  0  0  0  0  0  # atno 17343 bound_to 10162
  155.9819  130.4830  150.6855 LP  0  0  0  0  0  0  0  0  0  0  0  0  # atno 17370 bound_to 10713
  157.4440  131.0864  151.0915 LP  0  0  0  0  0  0  0  0  0  0  0  0  # atno 17371 bound_to 10713
  141.1216  133.9452  157.2718 LP  0  0  0  0  0  0  0  0  0  0  0  0  # atno 17394 bound_to 11000
  139.9494  135.0178  156.8949 LP  0  0  0  0  0  0  0  0  0  0  0  0  # atno 17395 bound_to 11000

$$$$
