AV-unprocessed.smi:2988|AV-procd|sdf|11387|dock9
  -GOLD-   2272016313D 1   1.00000     0.00000
 Structure written by MMmdl.
 37 38  0  0  0  0  0  0  0  0  1 V2000
  151.2244  144.2708  159.6845 C   0  0  0  0  0  0  0  0  0  0  0  0
  151.8909  143.0859  160.4073 C   0  0  2  0  0  0  0  0  0  0  0  0
  152.4200  143.5251  161.7882 C   0  0  0  0  0  0  0  0  0  0  0  0
  153.0787  142.3630  162.5470 C   0  0  0  0  0  0  0  0  0  0  0  0
  154.2051  141.7313  161.7180 C   0  0  0  0  0  0  0  0  0  0  0  0
  153.6883  141.2750  160.3461 C   0  0  0  0  0  0  0  0  0  0  0  0
  153.0247  142.4326  159.5744 C   0  0  1  0  0  0  0  0  0  0  0  0
  152.5132  141.9201  158.3039 N   0  0  0  0  0  0  0  0  0  0  0  0
  151.6734  140.8840  158.1534 C   0  0  0  0  0  0  0  0  0  0  0  0
  151.2063  140.2450  159.0973 O   0  0  0  0  0  0  0  0  0  0  0  0
  151.2991  140.5252  156.7084 C   0  0  0  0  0  0  0  0  0  0  0  0
  149.8848  140.7841  156.4006 N   0  0  0  0  0  0  0  0  0  0  0  0
  149.1278  141.1624  157.4955 N   0  0  0  0  0  0  0  0  0  0  0  0
  147.8697  141.3970  157.3461 C   0  0  0  0  0  0  0  0  0  0  0  0
  147.2117  141.2841  156.0631 C   0  0  0  0  0  0  0  0  0  0  0  0
  145.5204  141.6118  155.9243 Cl  0  0  0  0  0  0  0  0  0  0  0  0
  147.9644  140.9192  154.9949 C   0  0  0  0  0  0  0  0  0  0  0  0
  147.2486  140.7652  153.4270 Cl  0  0  0  0  0  0  0  0  0  0  0  0
  149.4015  140.6433  155.1276 C   0  0  0  0  0  0  0  0  0  0  0  0
  150.1190  140.3116  154.1827 O   0  0  0  0  0  0  0  0  0  0  0  0
  151.9542  145.0404  159.4314 H   0  0  0  0  0  0  0  0  0  0  0  0
  150.4590  144.7310  160.3098 H   0  0  0  0  0  0  0  0  0  0  0  0
  150.7373  143.9576  158.7611 H   0  0  0  0  0  0  0  0  0  0  0  0
  151.1190  142.3335  160.5766 H   0  0  0  0  0  0  0  0  0  0  0  0
  153.1432  144.3325  161.6646 H   0  0  0  0  0  0  0  0  0  0  0  0
  151.6053  143.9324  162.3880 H   0  0  0  0  0  0  0  0  0  0  0  0
  153.4728  142.7170  163.5001 H   0  0  0  0  0  0  0  0  0  0  0  0
  152.3289  141.6071  162.7837 H   0  0  0  0  0  0  0  0  0  0  0  0
  155.0116  142.4534  161.5842 H   0  0  0  0  0  0  0  0  0  0  0  0
  154.6333  140.8843  162.2552 H   0  0  0  0  0  0  0  0  0  0  0  0
  154.5140  140.8633  159.7639 H   0  0  0  0  0  0  0  0  0  0  0  0
  152.9728  140.4628  160.4829 H   0  0  0  0  0  0  0  0  0  0  0  0
  153.7919  143.1870  159.3905 H   0  0  0  0  0  0  0  0  0  0  0  0
  152.8391  142.3840  157.4685 H   0  0  0  0  0  0  0  0  0  0  0  0
  151.9454  141.0984  156.0413 H   0  0  0  0  0  0  0  0  0  0  0  0
  151.5336  139.4768  156.5135 H   0  0  0  0  0  0  0  0  0  0  0  0
  147.2332  141.6938  158.1797 H   0  0  0  0  0  0  0  0  0  0  0  0
  1  2  1  0  0  0  0
  1 21  1  0  0  0  0
  1 22  1  0  0  0  0
  1 23  1  0  0  0  0
  2  7  1  0  0  0  0
  2  3  1  0  0  0  0
  2 24  1  0  0  0  0
  3  4  1  0  0  0  0
  3 25  1  0  0  0  0
  3 26  1  0  0  0  0
  4  5  1  0  0  0  0
  4 27  1  0  0  0  0
  4 28  1  0  0  0  0
  5  6  1  0  0  0  0
  5 29  1  0  0  0  0
  5 30  1  0  0  0  0
  6  7  1  0  0  0  0
  6 31  1  0  0  0  0
  6 32  1  0  0  0  0
  7  8  1  0  0  0  0
  7 33  1  0  0  0  0
  8  9  1  0  0  0  0
  8 34  1  0  0  0  0
  9 10  2  0  0  0  0
  9 11  1  0  0  0  0
 11 12  1  0  0  0  0
 11 35  1  0  0  0  0
 11 36  1  0  0  0  0
 12 19  1  0  0  0  0
 12 13  1  0  0  0  0
 13 14  2  0  0  0  0
 14 15  1  0  0  0  0
 14 37  1  0  0  0  0
 15 16  1  0  0  0  0
 15 17  2  0  0  0  0
 17 18  1  0  0  0  0
 17 19  1  0  0  0  0
 19 20  2  0  0  0  0
M  END
> <s_m_source_file>
AV-unprocessed.smi

> <i_m_source_file_index>
2988

> <i_lp_mmshare_version>
43012

> <i_f3d_flags>
0

> <s_epik_input>
W0NIM11bQ0BASF0xW0NIMl1bQ0gyXVtDSDJdW0NIMl1bQ0BIXTFbTkhdQyg9TylbQ0gyXW4ybltjSF1jKENsKWMoQ2wpYzI9Tw==

> <s_epik_cmdline>
J2VwaWtfcHl0aG9uJywgJy1waCcsICc3LjAnLCAnLXRuJywgJzgnLCAnLW1hJywgJzIwMCcsICctbWV0YWxfYmluZGluZycsICctaW1hZScsICc8aW5maWxlLm1hZT4nLCAnLW9tYWUnLCAnPG91dGZpbGUubWFlPic=

> <r_lp_tautomer_probability>
1

> <r_epik_Ionization_Penalty>
1.90782e-08

> <r_epik_Ionization_Penalty_Charging>
3.13143e-11

> <r_epik_Ionization_Penalty_Neutral>
1.90469e-08

> <r_epik_State_Penalty>
-0

> <r_epik_Charging_Adjusted_Penalty>
3.13143e-11

> <i_epik_Tot_Q>
0

> <i_epik_Tot_abs_Q>
0

> <r_epik_Metal_State_Penalty>
-0

> <b_epik_Metal_Only>
0

> <s_lp_Force_Field>
OPLS_2005

> <r_lp_Energy>
24.1537

> <b_lp_Chiralities_Consistent>
1

> <s_lp_Variant>
AV-unprocessed.smi:2988-1

> <Gold.Version>
5.8.1

> <Gold.Id.Protein>
6NUR|6NUR_protein|mol2

> <Gold.PLP.Fitness>
45.2990

> <Gold.PLP.PLP>
-42.8301

> <Gold.PLP.part.hbond>
-1.1432

> <Gold.PLP.part.metal>
0.0000

> <Gold.PLP.part.buried>
-1.7630

> <Gold.PLP.part.nonpolar>
-37.7940

> <Gold.PLP.part.repulsive>
0.7112

> <Gold.PLP.ligand.clash>
0.0000

> <Gold.PLP.ligand.torsion>
0.1359

> <Gold.PLP.Chemscore.Hbond>
0.9120

> <Gold.PLP.Chemscore.CHOScore>
0.0000

> <Gold.PLP.Chemscore.Metal>
0.0000

> <Gold.Chemscore.Hbonds>
donor molecule, donor type, donor heavy atom, donor atom, acceptor molecule, acceptor atom, score
      P1  H  7989  7998       L1    20  0.90

> <Gold.PLP.Chemscore.Internal.Correction>
0.0047

> <Gold.Rescore>
     Score         DG    S(hbond)    S(metal)    S(lipo)     H(rot)  DE(clash)    DE(int)     intcor
     13.64     -17.24       0.91        0.00     107.40       1.50       1.37       2.23       ----

> <Gold.Chemscore.Fitness>
13.6389

> <Gold.Chemscore.DG>
-17.2352

> <Gold.Chemscore.ZeroCoef>
-5.4800

> <Gold.Chemscore.Hbond>
0.9054

> <Gold.Chemscore.Metal>
0.0000

> <Gold.Chemscore.Lipo>
107.3960

> <Gold.Chemscore.Internal_Hbond>
0.0000

> <Gold.Chemscore.DEClash>
1.3672

> <Gold.Chemscore.DEInternal>
2.2291

> <Gold.Chemscore.Rot>
1.4977

> <Gold.Chemscore.Internal.Correction>
   9.000000E+99

> <Gold.Chemscore.Hbonds>
donor molecule, donor type, donor heavy atom, donor atom, acceptor molecule, acceptor atom, score
      P1  H  7989  7998       L1    20  0.88

> <Gold.Chemscore.Hbond.Weighted>
-3.0239

> <Gold.Chemscore.Metal.Weighted>
-0.0000

> <Gold.Chemscore.Lipo.Weighted>
-12.5653

> <Gold.Chemscore.Internal_Hbond.Weighted>
0.0000

> <Gold.Chemscore.DEClash.Weighted>
1.3672

> <Gold.Chemscore.DEInternal.Weighted>
2.2291

> <Gold.Chemscore.Rot.Weighted>
3.8341

> <Gold.Chemscore.Internal.Correction.Weighted>
   9.000000E+99

> <Gold.Protein.RotatedTorsions>
[ 6907 6896 6895 6894 ] final -151.19 input  -60.11 | X-H torsion
[ 7974 7965 7964 7962 ] final  -38.06 input  175.53 | X-H torsion
[ 8008 7997 7996 7995 ] final  -79.08 input   59.86 | X-H torsion
[ 10167 10162 10161 10158 ] final  178.93 input  -65.29 | X-H torsion
[ 10718 10713 10712 10709 ] final  132.81 input   66.30 | X-H torsion
[ 10763 10752 10751 10750 ] final  -51.81 input  -60.55 | X-H torsion
[ 11005 11000 10999 10996 ] final   60.78 input  -57.11 | X-H torsion

> <Gold.Protein.ActiveResidues>
 VAL166  LYS551  ARG553  GLY616  TRP617  ASP618  TYR619  PRO620  LYS621  CYS622 
 ASP623  PHE694  ASN695  SER759  ASP760  ASP761  ALA762  ILE779  LEU786  VAL792 
 PHE793  MET794  SER795  GLU796  ALA797  LYS798  CYS799  TRP800  GLU811  SER814 

> <Gold.Protein.RotatedAtoms>
  151.2095  133.4564  159.2597 H   0  0  0  0  0  0  0  0  0  0  0  0  # atno 6907 bound_to 6896
  151.0991  134.9961  159.8450 H   0  0  0  0  0  0  0  0  0  0  0  0  # atno 6908 bound_to 6896
  152.5441  134.2023  159.8770 H   0  0  0  0  0  0  0  0  0  0  0  0  # atno 6909 bound_to 6896
  146.0519  140.6469  142.9038 H   0  0  0  0  0  0  0  0  0  0  0  0  # atno 7974 bound_to 7965
  154.5751  140.0684  156.9022 H   0  0  0  0  0  0  0  0  0  0  0  0  # atno 8008 bound_to 7997
  155.2564  140.3355  155.4259 H   0  0  0  0  0  0  0  0  0  0  0  0  # atno 8009 bound_to 7997
  156.2148  140.1774  156.7600 H   0  0  0  0  0  0  0  0  0  0  0  0  # atno 8010 bound_to 7997
  139.5315  144.2621  152.0698 H   0  0  0  0  0  0  0  0  0  0  0  0  # atno 10167 bound_to 10162
  157.4835  131.1087  150.9651 H   0  0  0  0  0  0  0  0  0  0  0  0  # atno 10718 bound_to 10713
  154.1326  135.6517  153.4925 H   0  0  0  0  0  0  0  0  0  0  0  0  # atno 10763 bound_to 10752
  153.0190  135.5296  154.6986 H   0  0  0  0  0  0  0  0  0  0  0  0  # atno 10764 bound_to 10752
  154.6225  135.2966  155.0281 H   0  0  0  0  0  0  0  0  0  0  0  0  # atno 10765 bound_to 10752
  140.0208  134.6156  155.9643 H   0  0  0  0  0  0  0  0  0  0  0  0  # atno 11005 bound_to 11000
  144.7127  140.4099  143.7068 LP  0  0  0  0  0  0  0  0  0  0  0  0  # atno 17320 bound_to 7965
  145.6709  139.1599  143.2755 LP  0  0  0  0  0  0  0  0  0  0  0  0  # atno 17321 bound_to 7965
  140.2085  144.4586  150.6397 LP  0  0  0  0  0  0  0  0  0  0  0  0  # atno 17342 bound_to 10162
  140.6495  143.2221  151.6109 LP  0  0  0  0  0  0  0  0  0  0  0  0  # atno 17343 bound_to 10162
  157.0376  130.5736  149.5351 LP  0  0  0  0  0  0  0  0  0  0  0  0  # atno 17370 bound_to 10713
  156.0134  130.5227  150.8060 LP  0  0  0  0  0  0  0  0  0  0  0  0  # atno 17371 bound_to 10713
  141.1772  133.6541  156.4876 LP  0  0  0  0  0  0  0  0  0  0  0  0  # atno 17394 bound_to 11000
  140.4391  134.7032  157.4982 LP  0  0  0  0  0  0  0  0  0  0  0  0  # atno 17395 bound_to 11000

$$$$
