AV-unprocessed.smi:2288|AV-procd|sdf|9206|dock5
  -GOLD-   2272012423D 1   1.00000     0.00000
 Structure written by MMmdl.
 40 41  0  0  0  0  0  0  0  0  1 V2000
  151.8932  145.3669  159.0802 C   0  0  0  0  0  0  0  0  0  0  0  0
  152.1618  143.8917  159.2946 C   0  0  0  0  0  0  0  0  0  0  0  0
  152.8047  143.4474  160.4680 C   0  0  0  0  0  0  0  0  0  0  0  0
  153.0527  142.0739  160.6637 C   0  0  0  0  0  0  0  0  0  0  0  0
  153.7466  141.6069  161.9267 C   0  0  0  0  0  0  0  0  0  0  0  0
  152.6558  141.1431  159.6814 C   0  0  0  0  0  0  0  0  0  0  0  0
  152.0122  141.5795  158.5038 C   0  0  0  0  0  0  0  0  0  0  0  0
  151.5792  140.5658  157.4555 C   0  0  2  0  0  0  0  0  0  0  0  0
  152.6198  139.6533  157.1670 O   0  0  0  0  0  0  0  0  0  0  0  0
  151.1508  141.2716  156.1489 C   0  0  0  0  0  0  0  0  0  0  0  0
  149.6985  141.5130  156.0934 N   0  0  0  0  0  0  0  0  0  0  0  0
  149.0764  141.8486  157.3079 C   0  0  0  0  0  0  0  0  0  0  0  0
  147.8055  142.0732  157.3819 N   0  0  0  0  0  0  0  0  0  0  0  0
  147.0142  141.9822  156.2334 C   0  0  0  0  0  0  0  0  0  0  0  0
  145.5352  142.2623  156.4330 C   0  0  0  0  0  0  0  0  0  0  0  0
  147.5543  141.6611  155.0261 C   0  0  0  0  0  0  0  0  0  0  0  0
  146.7420  141.5501  153.7418 C   0  0  0  0  0  0  0  0  0  0  0  0
  149.0006  141.4047  154.9260 C   0  0  0  0  0  0  0  0  0  0  0  0
  149.5529  141.1105  153.8645 O   0  0  0  0  0  0  0  0  0  0  0  0
  151.7641  142.9571  158.3176 C   0  0  0  0  0  0  0  0  0  0  0  0
  152.4612  145.9790  159.7815 H   0  0  0  0  0  0  0  0  0  0  0  0
  150.8333  145.5805  159.2185 H   0  0  0  0  0  0  0  0  0  0  0  0
  152.1746  145.6621  158.0691 H   0  0  0  0  0  0  0  0  0  0  0  0
  153.1084  144.1600  161.2212 H   0  0  0  0  0  0  0  0  0  0  0  0
  153.7913  140.5187  161.9785 H   0  0  0  0  0  0  0  0  0  0  0  0
  153.2142  141.9672  162.8072 H   0  0  0  0  0  0  0  0  0  0  0  0
  154.7660  141.9921  161.9601 H   0  0  0  0  0  0  0  0  0  0  0  0
  152.8447  140.0902  159.8323 H   0  0  0  0  0  0  0  0  0  0  0  0
  150.7448  139.9923  157.8616 H   0  0  0  0  0  0  0  0  0  0  0  0
  152.2902  138.7757  157.2860 H   0  0  0  0  0  0  0  0  0  0  0  0
  151.6598  142.2357  156.0827 H   0  0  0  0  0  0  0  0  0  0  0  0
  151.5112  140.7213  155.2777 H   0  0  0  0  0  0  0  0  0  0  0  0
  149.7382  141.9002  158.1744 H   0  0  0  0  0  0  0  0  0  0  0  0
  144.9410  141.3909  156.1567 H   0  0  0  0  0  0  0  0  0  0  0  0
  145.2197  143.1082  155.8219 H   0  0  0  0  0  0  0  0  0  0  0  0
  145.3131  142.5005  157.4740 H   0  0  0  0  0  0  0  0  0  0  0  0
  147.0971  142.2765  153.0101 H   0  0  0  0  0  0  0  0  0  0  0  0
  145.6781  141.7269  153.8895 H   0  0  0  0  0  0  0  0  0  0  0  0
  146.8517  140.5543  153.3111 H   0  0  0  0  0  0  0  0  0  0  0  0
  151.2658  143.2988  157.4218 H   0  0  0  0  0  0  0  0  0  0  0  0
  1  2  1  0  0  0  0
  1 21  1  0  0  0  0
  1 22  1  0  0  0  0
  1 23  1  0  0  0  0
  2 20  1  0  0  0  0
  2  3  2  0  0  0  0
  3  4  1  0  0  0  0
  3 24  1  0  0  0  0
  4  5  1  0  0  0  0
  4  6  2  0  0  0  0
  5 25  1  0  0  0  0
  5 26  1  0  0  0  0
  5 27  1  0  0  0  0
  6  7  1  0  0  0  0
  6 28  1  0  0  0  0
  7  8  1  0  0  0  0
  7 20  2  0  0  0  0
  8  9  1  0  0  0  0
  8 10  1  0  0  0  0
  8 29  1  0  0  0  0
  9 30  1  0  0  0  0
 10 11  1  0  0  0  0
 10 31  1  0  0  0  0
 10 32  1  0  0  0  0
 11 18  1  0  0  0  0
 11 12  1  0  0  0  0
 12 13  2  0  0  0  0
 12 33  1  0  0  0  0
 13 14  1  0  0  0  0
 14 15  1  0  0  0  0
 14 16  2  0  0  0  0
 15 34  1  0  0  0  0
 15 35  1  0  0  0  0
 15 36  1  0  0  0  0
 16 17  1  0  0  0  0
 16 18  1  0  0  0  0
 17 37  1  0  0  0  0
 17 38  1  0  0  0  0
 17 39  1  0  0  0  0
 18 19  2  0  0  0  0
 20 40  1  0  0  0  0
M  END
> <s_m_source_file>
AV-unprocessed.smi

> <i_m_source_file_index>
2288

> <i_lp_mmshare_version>
43012

> <i_f3d_flags>
0

> <s_epik_input>
W0NIM11jMVtjSF1jKFtDSDNdKVtjSF1jKFtjSF0xKVtDQEhdKFtPSF0pW0NIMl1uMltjSF1uYyhbQ0gzXSljKFtDSDNdKWMyPU8=

> <s_epik_cmdline>
J2VwaWtfcHl0aG9uJywgJy1waCcsICc3LjAnLCAnLXRuJywgJzgnLCAnLW1hJywgJzIwMCcsICctbWV0YWxfYmluZGluZycsICctaW1hZScsICc8aW5maWxlLm1hZT4nLCAnLW9tYWUnLCAnPG91dGZpbGUubWFlPic=

> <r_lp_tautomer_probability>
1

> <r_epik_Ionization_Penalty>
5.07027e-05

> <r_epik_Ionization_Penalty_Charging>
7.56727e-08

> <r_epik_Ionization_Penalty_Neutral>
5.06271e-05

> <r_epik_State_Penalty>
-0

> <r_epik_Charging_Adjusted_Penalty>
7.56727e-08

> <i_epik_Tot_Q>
0

> <i_epik_Tot_abs_Q>
0

> <r_epik_Metal_State_Penalty>
-0

> <b_epik_Metal_Only>
0

> <s_lp_Force_Field>
OPLS_2005

> <r_lp_Energy>
20.195

> <b_lp_Chiralities_Consistent>
1

> <s_lp_Variant>
AV-unprocessed.smi:2288-1

> <Gold.Version>
5.8.1

> <Gold.Id.Protein>
6NUR|6NUR_protein|mol2

> <Gold.PLP.Fitness>
50.3406

> <Gold.PLP.PLP>
-45.7437

> <Gold.PLP.part.hbond>
-3.0000

> <Gold.PLP.part.metal>
0.0000

> <Gold.PLP.part.buried>
-5.6592

> <Gold.PLP.part.nonpolar>
-39.5809

> <Gold.PLP.part.repulsive>
1.8744

> <Gold.PLP.ligand.clash>
0.0000

> <Gold.PLP.ligand.torsion>
1.0762

> <Gold.PLP.Chemscore.Hbond>
2.2449

> <Gold.PLP.Chemscore.CHOScore>
0.0000

> <Gold.PLP.Chemscore.Metal>
0.0000

> <Gold.Chemscore.Hbonds>
donor molecule, donor type, donor heavy atom, donor atom, acceptor molecule, acceptor atom, score
      P1  H  7989  7998       L1    19  0.30
      P1  H  7997  8009       L1     9  1.00
      P1  H  8011  8017       L1    19  0.88

> <Gold.PLP.Chemscore.Internal.Correction>
0.0145

> <Gold.Rescore>
     Score         DG    S(hbond)    S(metal)    S(lipo)     H(rot)  DE(clash)    DE(int)     intcor
     19.74     -21.87       2.20        0.00     118.72       1.89       1.31       0.81       ----

> <Gold.Chemscore.Fitness>
19.7412

> <Gold.Chemscore.DG>
-21.8676

> <Gold.Chemscore.ZeroCoef>
-5.4800

> <Gold.Chemscore.Hbond>
2.1969

> <Gold.Chemscore.Metal>
0.0000

> <Gold.Chemscore.Lipo>
118.7199

> <Gold.Chemscore.Internal_Hbond>
0.0000

> <Gold.Chemscore.DEClash>
1.3125

> <Gold.Chemscore.DEInternal>
0.8139

> <Gold.Chemscore.Rot>
1.8907

> <Gold.Chemscore.Internal.Correction>
   9.000000E+99

> <Gold.Chemscore.Hbonds>
donor molecule, donor type, donor heavy atom, donor atom, acceptor molecule, acceptor atom, score
      P1  H  7989  7998       L1    19  0.28
      P1  H  7997  8009       L1     9  0.99
      P1  H  8011  8017       L1    19  0.80

> <Gold.Chemscore.Hbond.Weighted>
-7.3375

> <Gold.Chemscore.Metal.Weighted>
-0.0000

> <Gold.Chemscore.Lipo.Weighted>
-13.8902

> <Gold.Chemscore.Internal_Hbond.Weighted>
0.0000

> <Gold.Chemscore.DEClash.Weighted>
1.3125

> <Gold.Chemscore.DEInternal.Weighted>
0.8139

> <Gold.Chemscore.Rot.Weighted>
4.8401

> <Gold.Chemscore.Internal.Correction.Weighted>
   9.000000E+99

> <Gold.Protein.RotatedTorsions>
[ 6907 6896 6895 6894 ] final  128.02 input  -60.11 | X-H torsion
[ 7974 7965 7964 7962 ] final  -32.14 input  175.53 | X-H torsion
[ 8008 7997 7996 7995 ] final  171.94 input   59.86 | X-H torsion
[ 10167 10162 10161 10158 ] final  105.66 input  -65.29 | X-H torsion
[ 10718 10713 10712 10709 ] final   35.02 input   66.30 | X-H torsion
[ 10763 10752 10751 10750 ] final  143.48 input  -60.55 | X-H torsion
[ 11005 11000 10999 10996 ] final  161.50 input  -57.11 | X-H torsion

> <Gold.Protein.ActiveResidues>
 VAL166  LYS551  ARG553  GLY616  TRP617  ASP618  TYR619  PRO620  LYS621  CYS622 
 ASP623  PHE694  ASN695  SER759  ASP760  ASP761  ALA762  ILE779  LEU786  VAL792 
 PHE793  MET794  SER795  GLU796  ALA797  LYS798  CYS799  TRP800  GLU811  SER814 

> <Gold.Protein.RotatedAtoms>
  152.3758  133.6479  159.6122 H   0  0  0  0  0  0  0  0  0  0  0  0  # atno 6907 bound_to 6896
  150.7703  133.9195  159.3402 H   0  0  0  0  0  0  0  0  0  0  0  0  # atno 6908 bound_to 6896
  151.7010  135.0931  160.0302 H   0  0  0  0  0  0  0  0  0  0  0  0  # atno 6909 bound_to 6896
  146.1013  140.5755  142.8820 H   0  0  0  0  0  0  0  0  0  0  0  0  # atno 7974 bound_to 7965
  156.1223  140.1499  156.9187 H   0  0  0  0  0  0  0  0  0  0  0  0  # atno 8008 bound_to 7997
  154.4845  140.0869  156.7495 H   0  0  0  0  0  0  0  0  0  0  0  0  # atno 8009 bound_to 7997
  155.4407  140.3431  155.4292 H   0  0  0  0  0  0  0  0  0  0  0  0  # atno 8010 bound_to 7997
  139.7074  144.7084  151.1084 H   0  0  0  0  0  0  0  0  0  0  0  0  # atno 10167 bound_to 10162
  157.3176  130.7431  149.6764 H   0  0  0  0  0  0  0  0  0  0  0  0  # atno 10718 bound_to 10713
  153.9731  135.2948  155.3426 H   0  0  0  0  0  0  0  0  0  0  0  0  # atno 10763 bound_to 10752
  154.7311  135.5067  153.8969 H   0  0  0  0  0  0  0  0  0  0  0  0  # atno 10764 bound_to 10752
  153.0890  135.6702  154.0003 H   0  0  0  0  0  0  0  0  0  0  0  0  # atno 10765 bound_to 10752
  140.2165  134.8229  157.3175 H   0  0  0  0  0  0  0  0  0  0  0  0  # atno 11005 bound_to 11000
  144.7435  140.5005  143.6852 LP  0  0  0  0  0  0  0  0  0  0  0  0  # atno 17320 bound_to 7965
  145.5849  139.1491  143.3214 LP  0  0  0  0  0  0  0  0  0  0  0  0  # atno 17321 bound_to 7965
  140.7725  143.5340  150.9390 LP  0  0  0  0  0  0  0  0  0  0  0  0  # atno 17342 bound_to 10162
  139.9024  143.6820  152.3129 LP  0  0  0  0  0  0  0  0  0  0  0  0  # atno 17343 bound_to 10162
  155.9683  130.4233  150.4555 LP  0  0  0  0  0  0  0  0  0  0  0  0  # atno 17370 bound_to 10713
  157.2564  131.0557  151.2347 LP  0  0  0  0  0  0  0  0  0  0  0  0  # atno 17371 bound_to 10713
  140.1895  134.4389  155.7724 LP  0  0  0  0  0  0  0  0  0  0  0  0  # atno 17394 bound_to 11000
  141.2224  133.7021  156.8004 LP  0  0  0  0  0  0  0  0  0  0  0  0  # atno 17395 bound_to 11000

$$$$
