AV-unprocessed.smi:23|AV-procd|sdf|173|dock5
  -GOLD-   2262015433D 1   1.00000     0.00000
 Structure written by MMmdl.
 53 56  0  0  0  0  0  0  0  0  1 V2000
  153.4664  129.7201  154.7686 C   0  0  0  0  0  0  0  0  0  0  0  0
  152.7976  129.3842  155.9790 O   0  0  0  0  0  0  0  0  0  0  0  0
  151.3686  129.2980  155.9727 C   0  0  1  0  0  0  0  0  0  0  0  0
  151.1090  128.0476  155.1084 C   0  0  0  0  0  0  0  0  0  0  0  0
  150.8340  129.1044  157.4146 C   0  0  0  0  0  0  0  0  0  0  0  0
  149.2957  129.0882  157.4535 C   0  0  0  0  0  0  0  0  0  0  0  0
  148.7074  130.3264  156.7571 C   0  0  0  0  0  0  0  0  0  0  0  0
  149.2493  130.4701  155.4051 N   0  0  0  0  0  0  0  0  0  0  0  0
  148.5895  131.2732  154.5330 C   0  0  0  0  0  0  0  0  0  0  0  0
  148.8150  132.6144  154.5413 N   0  0  0  0  0  0  0  0  0  0  0  0
  148.1758  133.4113  153.6800 C   0  0  0  0  0  0  0  0  0  0  0  0
  147.2869  133.0825  152.7407 N   0  0  0  0  0  0  0  0  0  0  0  0
  147.0529  131.7388  152.7285 C   0  0  0  0  0  0  0  0  0  0  0  0
  147.6506  130.7730  153.5869 C   0  0  0  0  0  0  0  0  0  0  0  0
  147.1446  129.5100  153.3018 N   0  0  0  0  0  0  0  0  0  0  0  0
  146.3020  129.7169  152.3271 C   0  0  0  0  0  0  0  0  0  0  0  0
  146.2081  131.0218  151.8984 N   0  0  0  0  0  0  0  0  0  0  0  0
  145.3361  131.5269  150.8779 C   0  0  0  0  0  0  0  0  0  0  0  0
  145.6547  132.8336  150.1439 C   0  0  0  0  0  0  0  0  0  0  0  0
  144.1530  133.1933  150.1032 C   0  0  0  0  0  0  0  0  0  0  0  0
  143.8140  134.6338  150.5170 C   0  0  0  0  0  0  0  0  0  0  0  0
  144.4071  135.5756  149.6458 O   0  0  0  0  0  0  0  0  0  0  0  0
  143.3958  132.9085  148.7868 C   0  0  0  0  0  0  0  0  0  0  0  0
  143.4428  133.9832  147.8704 O   0  0  0  0  0  0  0  0  0  0  0  0
  143.9821  132.1506  151.2307 C   0  0  0  0  0  0  0  0  0  0  0  0
  150.7087  130.5413  155.3253 C   0  0  0  0  0  0  0  0  0  0  0  0
  154.5311  129.8279  154.9753 H   0  0  0  0  0  0  0  0  0  0  0  0
  153.1236  130.6617  154.3429 H   0  0  0  0  0  0  0  0  0  0  0  0
  153.3672  128.9345  154.0198 H   0  0  0  0  0  0  0  0  0  0  0  0
  150.0464  127.8424  154.9815 H   0  0  0  0  0  0  0  0  0  0  0  0
  151.5644  127.1612  155.5512 H   0  0  0  0  0  0  0  0  0  0  0  0
  151.5321  128.1686  154.1104 H   0  0  0  0  0  0  0  0  0  0  0  0
  151.2312  128.1865  157.8489 H   0  0  0  0  0  0  0  0  0  0  0  0
  151.1699  129.9162  158.0581 H   0  0  0  0  0  0  0  0  0  0  0  0
  148.9188  128.1850  156.9735 H   0  0  0  0  0  0  0  0  0  0  0  0
  148.9512  129.0466  158.4871 H   0  0  0  0  0  0  0  0  0  0  0  0
  147.6208  130.2370  156.7212 H   0  0  0  0  0  0  0  0  0  0  0  0
  148.9385  131.2234  157.3334 H   0  0  0  0  0  0  0  0  0  0  0  0
  148.4128  134.4626  153.7511 H   0  0  0  0  0  0  0  0  0  0  0  0
  145.7260  128.9151  151.8883 H   0  0  0  0  0  0  0  0  0  0  0  0
  145.2080  130.7088  150.1680 H   0  0  0  0  0  0  0  0  0  0  0  0
  146.2348  133.5251  150.7575 H   0  0  0  0  0  0  0  0  0  0  0  0
  146.1191  132.6987  149.1666 H   0  0  0  0  0  0  0  0  0  0  0  0
  142.7357  134.7969  150.5338 H   0  0  0  0  0  0  0  0  0  0  0  0
  144.1726  134.8441  151.5252 H   0  0  0  0  0  0  0  0  0  0  0  0
  144.8972  135.1079  148.9867 H   0  0  0  0  0  0  0  0  0  0  0  0
  143.8077  132.0309  148.2874 H   0  0  0  0  0  0  0  0  0  0  0  0
  142.3446  132.6926  148.9800 H   0  0  0  0  0  0  0  0  0  0  0  0
  144.3440  134.1320  147.6281 H   0  0  0  0  0  0  0  0  0  0  0  0
  143.1330  131.4772  151.1090 H   0  0  0  0  0  0  0  0  0  0  0  0
  143.9818  132.5960  152.2271 H   0  0  0  0  0  0  0  0  0  0  0  0
  151.0042  131.4500  155.8500 H   0  0  0  0  0  0  0  0  0  0  0  0
  151.0570  130.6507  154.2988 H   0  0  0  0  0  0  0  0  0  0  0  0
  1  2  1  0  0  0  0
  1 27  1  0  0  0  0
  1 28  1  0  0  0  0
  1 29  1  0  0  0  0
  2  3  1  0  0  0  0
  3 26  1  0  0  0  0
  3  4  1  0  0  0  0
  3  5  1  0  0  0  0
  4 30  1  0  0  0  0
  4 31  1  0  0  0  0
  4 32  1  0  0  0  0
  5  6  1  0  0  0  0
  5 33  1  0  0  0  0
  5 34  1  0  0  0  0
  6  7  1  0  0  0  0
  6 35  1  0  0  0  0
  6 36  1  0  0  0  0
  7  8  1  0  0  0  0
  7 37  1  0  0  0  0
  7 38  1  0  0  0  0
  8  9  1  0  0  0  0
  8 26  1  0  0  0  0
  9 14  1  0  0  0  0
  9 10  2  0  0  0  0
 10 11  1  0  0  0  0
 11 12  2  0  0  0  0
 11 39  1  0  0  0  0
 12 13  1  0  0  0  0
 13 17  1  0  0  0  0
 13 14  2  0  0  0  0
 14 15  1  0  0  0  0
 15 16  2  0  0  0  0
 16 17  1  0  0  0  0
 16 40  1  0  0  0  0
 17 18  1  0  0  0  0
 18 25  1  0  0  0  0
 18 19  1  0  0  0  0
 18 41  1  0  0  0  0
 19 20  1  0  0  0  0
 19 42  1  0  0  0  0
 19 43  1  0  0  0  0
 20 21  1  0  0  0  0
 20 23  1  0  0  0  0
 20 25  1  0  0  0  0
 21 22  1  0  0  0  0
 21 44  1  0  0  0  0
 21 45  1  0  0  0  0
 22 46  1  0  0  0  0
 23 24  1  0  0  0  0
 23 47  1  0  0  0  0
 23 48  1  0  0  0  0
 24 49  1  0  0  0  0
 25 50  1  0  0  0  0
 25 51  1  0  0  0  0
 26 52  1  0  0  0  0
 26 53  1  0  0  0  0
M  END
> <s_m_source_file>
AV-unprocessed.smi

> <i_m_source_file_index>
23

> <i_lp_mmshare_version>
43012

> <i_f3d_flags>
0

> <s_epik_input>
W0NIM11PW0NAQF0xKFtDSDNdKVtDSDJdW0NIMl1bQ0gyXU4oW0NIMl0xKWMobltjSF1uMiljKGMyMyluW2NIXW4zW0NIXShbQ0gyXTQpW0NIMl1DNChbQ0gyXVtPSF0pW0NIMl1bT0hd

> <s_epik_cmdline>
J2VwaWtfcHl0aG9uJywgJy1waCcsICc3LjAnLCAnLXRuJywgJzgnLCAnLW1hJywgJzIwMCcsICctbWV0YWxfYmluZGluZycsICctaW1hZScsICc8aW5maWxlLm1hZT4nLCAnLW9tYWUnLCAnPG91dGZpbGUubWFlPic=

> <r_lp_tautomer_probability>
1

> <r_epik_Ionization_Penalty>
0.00233978

> <r_epik_Ionization_Penalty_Charging>
0

> <r_epik_Ionization_Penalty_Neutral>
0.00233978

> <r_epik_State_Penalty>
0.00146422

> <r_epik_Charging_Adjusted_Penalty>
0.00146422

> <i_epik_Tot_Q>
0

> <i_epik_Tot_abs_Q>
0

> <r_epik_Metal_State_Penalty>
-0

> <b_epik_Metal_Only>
0

> <s_lp_Force_Field>
OPLS_2005

> <r_lp_Energy>
49.0819

> <b_lp_Chiralities_Consistent>
1

> <s_lp_Variant>
AV-unprocessed.smi:23-1

> <Gold.Version>
5.8.1

> <Gold.Id.Protein>
6NUR|6NUR_protein|mol2

> <Gold.PLP.Fitness>
52.0422

> <Gold.PLP.PLP>
-42.3271

> <Gold.PLP.part.hbond>
-5.2403

> <Gold.PLP.part.metal>
0.0000

> <Gold.PLP.part.buried>
-1.9406

> <Gold.PLP.part.nonpolar>
-35.6231

> <Gold.PLP.part.repulsive>
0.3836

> <Gold.PLP.ligand.clash>
0.0000

> <Gold.PLP.ligand.torsion>
1.4441

> <Gold.PLP.Chemscore.Hbond>
3.0000

> <Gold.PLP.Chemscore.CHOScore>
0.9156

> <Gold.PLP.Chemscore.Metal>
0.0000

> <Gold.Chemscore.Hbonds>
donor molecule, donor type, donor heavy atom, donor atom, acceptor molecule, acceptor atom, score
      L1  H    22    46       P1  7921  1.00
      L1  H    24    49       P1  7921  1.00
      P1  H 10192 10197       L1    24  1.00
      L1  C    11    39       P1  7948  0.79

> <Gold.PLP.Chemscore.Internal.Correction>
0.8565

> <Gold.Rescore>
     Score         DG    S(hbond)    S(metal)    S(lipo)     H(rot)  DE(clash)    DE(int)     intcor
     13.53     -16.37       2.85        0.00      85.69       3.38       0.62       2.23       ----

> <Gold.Chemscore.Fitness>
13.5267

> <Gold.Chemscore.DG>
-16.3676

> <Gold.Chemscore.ZeroCoef>
-5.4800

> <Gold.Chemscore.Hbond>
2.8516

> <Gold.Chemscore.Metal>
0.0000

> <Gold.Chemscore.Lipo>
85.6875

> <Gold.Chemscore.Internal_Hbond>
0.0000

> <Gold.Chemscore.DEClash>
0.6152

> <Gold.Chemscore.DEInternal>
2.2256

> <Gold.Chemscore.Rot>
3.3837

> <Gold.Chemscore.Internal.Correction>
   9.000000E+99

> <Gold.Chemscore.Hbonds>
donor molecule, donor type, donor heavy atom, donor atom, acceptor molecule, acceptor atom, score
      L1  H    22    46       P1  7921  0.99
      L1  H    24    49       P1  7921  1.00
      P1  H 10192 10197       L1    24  0.95

> <Gold.Chemscore.Hbond.Weighted>
-9.5244

> <Gold.Chemscore.Metal.Weighted>
-0.0000

> <Gold.Chemscore.Lipo.Weighted>
-10.0254

> <Gold.Chemscore.Internal_Hbond.Weighted>
0.0000

> <Gold.Chemscore.DEClash.Weighted>
0.6152

> <Gold.Chemscore.DEInternal.Weighted>
2.2256

> <Gold.Chemscore.Rot.Weighted>
8.6622

> <Gold.Chemscore.Internal.Correction.Weighted>
   9.000000E+99

> <Gold.Protein.RotatedTorsions>
[ 6907 6896 6895 6894 ] final  -40.41 input  -60.11 | X-H torsion
[ 7974 7965 7964 7962 ] final  -99.36 input  175.53 | X-H torsion
[ 8008 7997 7996 7995 ] final -167.44 input   59.86 | X-H torsion
[ 10167 10162 10161 10158 ] final    2.87 input  -65.29 | X-H torsion
[ 10718 10713 10712 10709 ] final -155.76 input   66.30 | X-H torsion
[ 10763 10752 10751 10750 ] final -104.57 input  -60.55 | X-H torsion
[ 11005 11000 10999 10996 ] final   65.23 input  -57.11 | X-H torsion

> <Gold.Protein.ActiveResidues>
 VAL166  LYS551  ARG553  GLY616  TRP617  ASP618  TYR619  PRO620  LYS621  CYS622 
 ASP623  PHE694  ASN695  SER759  ASP760  ASP761  ALA762  ILE779  LEU786  VAL792 
 PHE793  MET794  SER795  GLU796  ALA797  LYS798  CYS799  TRP800  GLU811  SER814 

> <Gold.Protein.RotatedAtoms>
  150.9788  134.9147  159.7831 H   0  0  0  0  0  0  0  0  0  0  0  0  # atno 6907 bound_to 6896
  152.5215  134.3439  159.9237 H   0  0  0  0  0  0  0  0  0  0  0  0  # atno 6908 bound_to 6896
  151.3447  133.3908  159.2709 H   0  0  0  0  0  0  0  0  0  0  0  0  # atno 6909 bound_to 6896
  145.3086  140.9395  143.2782 H   0  0  0  0  0  0  0  0  0  0  0  0  # atno 7974 bound_to 7965
  155.8777  140.1004  157.1507 H   0  0  0  0  0  0  0  0  0  0  0  0  # atno 8008 bound_to 7997
  154.4002  140.1335  156.4220 H   0  0  0  0  0  0  0  0  0  0  0  0  # atno 8009 bound_to 7997
  155.7679  140.3461  155.5234 H   0  0  0  0  0  0  0  0  0  0  0  0  # atno 8010 bound_to 7997
  140.6614  143.7294  150.7746 H   0  0  0  0  0  0  0  0  0  0  0  0  # atno 10167 bound_to 10162
  156.5172  130.8461  151.2668 H   0  0  0  0  0  0  0  0  0  0  0  0  # atno 10718 bound_to 10713
  154.7887  135.4781  154.0004 H   0  0  0  0  0  0  0  0  0  0  0  0  # atno 10763 bound_to 10752
  153.1599  135.6806  153.8765 H   0  0  0  0  0  0  0  0  0  0  0  0  # atno 10764 bound_to 10752
  153.8382  135.3183  155.3402 H   0  0  0  0  0  0  0  0  0  0  0  0  # atno 10765 bound_to 10752
  139.9908  134.6595  156.0095 H   0  0  0  0  0  0  0  0  0  0  0  0  # atno 11005 bound_to 11000
  144.9034  139.4620  143.6621 LP  0  0  0  0  0  0  0  0  0  0  0  0  # atno 17320 bound_to 7965
  146.3126  139.7801  142.9008 LP  0  0  0  0  0  0  0  0  0  0  0  0  # atno 17321 bound_to 7965
  140.0963  143.4830  152.2450 LP  0  0  0  0  0  0  0  0  0  0  0  0  # atno 17342 bound_to 10162
  139.5849  144.7527  151.3545 LP  0  0  0  0  0  0  0  0  0  0  0  0  # atno 17343 bound_to 10162
  157.7442  130.9929  150.2655 LP  0  0  0  0  0  0  0  0  0  0  0  0  # atno 17370 bound_to 10713
  156.3184  130.3782  149.7598 LP  0  0  0  0  0  0  0  0  0  0  0  0  # atno 17371 bound_to 10713
  141.1564  133.6542  156.4174 LP  0  0  0  0  0  0  0  0  0  0  0  0  # atno 17394 bound_to 11000
  140.4913  134.6573  157.5212 LP  0  0  0  0  0  0  0  0  0  0  0  0  # atno 17395 bound_to 11000

$$$$
