AV-unprocessed.smi:1670|AV-procd|sdf|6696|dock7
  -GOLD-   22720 7433D 1   1.00000     0.00000
 Structure written by MMmdl.
 41 42  0  0  0  0  0  0  0  0  1 V2000
  148.0450  139.6435  155.6053 C   0  0  0  0  0  0  0  0  0  0  0  0
  148.5640  140.7812  154.7156 C   0  0  1  0  0  0  0  0  0  0  0  0
  147.4501  141.3315  153.7998 C   0  0  0  0  0  0  0  0  0  0  0  0
  146.4854  142.1454  154.5194 N   0  0  0  0  0  0  0  0  0  0  0  0
  145.7771  143.2374  154.0642 C   0  0  0  0  0  0  0  0  0  0  0  0
  145.0087  143.6840  155.1007 C   0  0  0  0  0  0  0  0  0  0  0  0
  145.3178  142.7872  156.1612 C   0  0  0  0  0  0  0  0  0  0  0  0
  146.1986  141.8648  155.8093 N   0  0  0  0  0  0  0  0  0  0  0  0
  149.1094  141.8398  155.5647 N   0  0  0  0  0  0  0  0  0  0  0  0
  150.1322  141.7029  156.4214 C   0  0  0  0  0  0  0  0  0  0  0  0
  150.7235  140.6432  156.6303 O   0  0  0  0  0  0  0  0  0  0  0  0
  150.4430  142.8650  157.0119 N   0  0  0  0  0  0  0  0  0  0  0  0
  151.5291  143.0575  157.9679 C   0  0  2  0  0  0  0  0  0  0  0  0
  151.5058  141.9549  159.0451 C   0  0  0  0  0  0  0  0  0  0  0  0
  152.6045  142.1736  160.1000 C   0  0  0  0  0  0  0  0  0  0  0  0
  152.5386  143.5769  160.7328 C   0  0  2  0  0  0  0  0  0  0  0  0
  151.3998  143.6815  161.5644 O   0  0  0  0  0  0  0  0  0  0  0  0
  152.5120  144.6824  159.6603 C   0  0  0  0  0  0  0  0  0  0  0  0
  151.4102  144.4507  158.6113 C   0  0  0  0  0  0  0  0  0  0  0  0
  147.6562  138.8215  155.0034 H   0  0  0  0  0  0  0  0  0  0  0  0
  147.2422  139.9847  156.2600 H   0  0  0  0  0  0  0  0  0  0  0  0
  148.8406  139.2420  156.2341 H   0  0  0  0  0  0  0  0  0  0  0  0
  149.3543  140.3638  154.0889 H   0  0  0  0  0  0  0  0  0  0  0  0
  147.8852  141.9508  153.0145 H   0  0  0  0  0  0  0  0  0  0  0  0
  146.9285  140.5151  153.2969 H   0  0  0  0  0  0  0  0  0  0  0  0
  145.8834  143.6052  153.0544 H   0  0  0  0  0  0  0  0  0  0  0  0
  144.3314  144.5249  155.1020 H   0  0  0  0  0  0  0  0  0  0  0  0
  144.9308  142.7789  157.1693 H   0  0  0  0  0  0  0  0  0  0  0  0
  148.6955  142.7551  155.4670 H   0  0  0  0  0  0  0  0  0  0  0  0
  149.8998  143.6811  156.7715 H   0  0  0  0  0  0  0  0  0  0  0  0
  152.4824  143.0124  157.4374 H   0  0  0  0  0  0  0  0  0  0  0  0
  150.5303  141.9354  159.5329 H   0  0  0  0  0  0  0  0  0  0  0  0
  151.6369  140.9756  158.5835 H   0  0  0  0  0  0  0  0  0  0  0  0
  152.5407  141.4060  160.8720 H   0  0  0  0  0  0  0  0  0  0  0  0
  153.5778  142.0445  159.6247 H   0  0  0  0  0  0  0  0  0  0  0  0
  153.4110  143.7216  161.3707 H   0  0  0  0  0  0  0  0  0  0  0  0
  150.6963  144.0656  161.0637 H   0  0  0  0  0  0  0  0  0  0  0  0
  152.3857  145.6600  160.1271 H   0  0  0  0  0  0  0  0  0  0  0  0
  153.4785  144.7104  159.1557 H   0  0  0  0  0  0  0  0  0  0  0  0
  151.4702  145.2227  157.8433 H   0  0  0  0  0  0  0  0  0  0  0  0
  150.4314  144.5601  159.0810 H   0  0  0  0  0  0  0  0  0  0  0  0
  1  2  1  0  0  0  0
  1 20  1  0  0  0  0
  1 21  1  0  0  0  0
  1 22  1  0  0  0  0
  2  3  1  0  0  0  0
  2  9  1  0  0  0  0
  2 23  1  0  0  0  0
  3  4  1  0  0  0  0
  3 24  1  0  0  0  0
  3 25  1  0  0  0  0
  4  8  1  0  0  0  0
  4  5  1  0  0  0  0
  5  6  2  0  0  0  0
  5 26  1  0  0  0  0
  6  7  1  0  0  0  0
  6 27  1  0  0  0  0
  7  8  2  0  0  0  0
  7 28  1  0  0  0  0
  9 10  1  0  0  0  0
  9 29  1  0  0  0  0
 10 11  2  0  0  0  0
 10 12  1  0  0  0  0
 12 13  1  0  0  0  0
 12 30  1  0  0  0  0
 13 19  1  0  0  0  0
 13 14  1  0  0  0  0
 13 31  1  0  0  0  0
 14 15  1  0  0  0  0
 14 32  1  0  0  0  0
 14 33  1  0  0  0  0
 15 16  1  0  0  0  0
 15 34  1  0  0  0  0
 15 35  1  0  0  0  0
 16 17  1  0  0  0  0
 16 18  1  0  0  0  0
 16 36  1  0  0  0  0
 17 37  1  0  0  0  0
 18 19  1  0  0  0  0
 18 38  1  0  0  0  0
 18 39  1  0  0  0  0
 19 40  1  0  0  0  0
 19 41  1  0  0  0  0
M  END
> <s_m_source_file>
AV-unprocessed.smi

> <i_m_source_file_index>
1670

> <i_lp_mmshare_version>
43012

> <i_f3d_flags>
0

> <s_epik_input>
bjFbY0hdW2NIXVtjSF1uMVtDSDJdW0NAQEhdKFtDSDNdKVtOSF1DKD1PKVtOSF1bQ0BASF0yW0NIMl1bQ0gyXVtDQEBIXShbT0hdKVtDSDJdW0NIMl0y

> <s_epik_cmdline>
J2VwaWtfcHl0aG9uJywgJy1waCcsICc3LjAnLCAnLXRuJywgJzgnLCAnLW1hJywgJzIwMCcsICctbWV0YWxfYmluZGluZycsICctaW1hZScsICc8aW5maWxlLm1hZT4nLCAnLW9tYWUnLCAnPG91dGZpbGUubWFlPic=

> <r_lp_tautomer_probability>
1

> <r_epik_Ionization_Penalty>
7.33369e-05

> <r_epik_Ionization_Penalty_Charging>
0

> <r_epik_Ionization_Penalty_Neutral>
7.33369e-05

> <r_epik_State_Penalty>
-0

> <r_epik_Charging_Adjusted_Penalty>
0

> <i_epik_Tot_Q>
0

> <i_epik_Tot_abs_Q>
0

> <r_epik_Metal_State_Penalty>
-0

> <b_epik_Metal_Only>
0

> <s_lp_Force_Field>
OPLS_2005

> <r_lp_Energy>
7.95732

> <b_lp_Chiralities_Consistent>
1

> <s_lp_Variant>
AV-unprocessed.smi:1670-4

> <Gold.Version>
5.8.1

> <Gold.Id.Protein>
6NUR|6NUR_protein|mol2

> <Gold.PLP.Fitness>
50.6315

> <Gold.PLP.PLP>
-45.2589

> <Gold.PLP.part.hbond>
-3.9723

> <Gold.PLP.part.metal>
0.0000

> <Gold.PLP.part.buried>
-8.5348

> <Gold.PLP.part.nonpolar>
-34.0644

> <Gold.PLP.part.repulsive>
0.3183

> <Gold.PLP.ligand.clash>
0.0000

> <Gold.PLP.ligand.torsion>
0.5818

> <Gold.PLP.Chemscore.Hbond>
2.1740

> <Gold.PLP.Chemscore.CHOScore>
0.0000

> <Gold.PLP.Chemscore.Metal>
0.0000

> <Gold.Chemscore.Hbonds>
donor molecule, donor type, donor heavy atom, donor atom, acceptor molecule, acceptor atom, score
      L1  H     9    29       P1  8028  0.98
      L1  H    12    30       P1  8028  1.00

> <Gold.PLP.Chemscore.Internal.Correction>
0.0141

> <Gold.Rescore>
     Score         DG    S(hbond)    S(metal)    S(lipo)     H(rot)  DE(clash)    DE(int)     intcor
     14.14     -17.79       1.90        0.00      99.69       2.22       0.05       3.60       ----

> <Gold.Chemscore.Fitness>
14.1356

> <Gold.Chemscore.DG>
-17.7874

> <Gold.Chemscore.ZeroCoef>
-5.4800

> <Gold.Chemscore.Hbond>
1.8962

> <Gold.Chemscore.Metal>
0.0000

> <Gold.Chemscore.Lipo>
99.6885

> <Gold.Chemscore.Internal_Hbond>
0.0000

> <Gold.Chemscore.DEClash>
0.0518

> <Gold.Chemscore.DEInternal>
3.6000

> <Gold.Chemscore.Rot>
2.2224

> <Gold.Chemscore.Internal.Correction>
   9.000000E+99

> <Gold.Chemscore.Hbonds>
donor molecule, donor type, donor heavy atom, donor atom, acceptor molecule, acceptor atom, score
      L1  H     9    29       P1  8028  0.91
      L1  H    12    30       P1  8028  0.98

> <Gold.Chemscore.Hbond.Weighted>
-6.3332

> <Gold.Chemscore.Metal.Weighted>
-0.0000

> <Gold.Chemscore.Lipo.Weighted>
-11.6636

> <Gold.Chemscore.Internal_Hbond.Weighted>
0.0000

> <Gold.Chemscore.DEClash.Weighted>
0.0518

> <Gold.Chemscore.DEInternal.Weighted>
3.6000

> <Gold.Chemscore.Rot.Weighted>
5.6893

> <Gold.Chemscore.Internal.Correction.Weighted>
   9.000000E+99

> <Gold.Protein.RotatedTorsions>
[ 6907 6896 6895 6894 ] final  -89.82 input  -60.11 | X-H torsion
[ 7974 7965 7964 7962 ] final   60.47 input  175.53 | X-H torsion
[ 8008 7997 7996 7995 ] final  135.32 input   59.86 | X-H torsion
[ 10167 10162 10161 10158 ] final   66.80 input  -65.29 | X-H torsion
[ 10718 10713 10712 10709 ] final  116.13 input   66.30 | X-H torsion
[ 10763 10752 10751 10750 ] final  -60.69 input  -60.55 | X-H torsion
[ 11005 11000 10999 10996 ] final   79.09 input  -57.11 | X-H torsion

> <Gold.Protein.ActiveResidues>
 VAL166  LYS551  ARG553  GLY616  TRP617  ASP618  TYR619  PRO620  LYS621  CYS622 
 ASP623  PHE694  ASN695  SER759  ASP760  ASP761  ALA762  ILE779  LEU786  VAL792 
 PHE793  MET794  SER795  GLU796  ALA797  LYS798  CYS799  TRP800  GLU811  SER814 

> <Gold.Protein.RotatedAtoms>
  150.6876  134.2528  159.4517 H   0  0  0  0  0  0  0  0  0  0  0  0  # atno 6907 bound_to 6896
  152.0464  134.9678  160.0583 H   0  0  0  0  0  0  0  0  0  0  0  0  # atno 6908 bound_to 6896
  152.1159  133.4292  159.4690 H   0  0  0  0  0  0  0  0  0  0  0  0  # atno 6909 bound_to 6896
  145.8957  139.3543  143.0623 H   0  0  0  0  0  0  0  0  0  0  0  0  # atno 7974 bound_to 7965
  156.3002  140.2474  156.3561 H   0  0  0  0  0  0  0  0  0  0  0  0  # atno 8008 bound_to 7997
  154.8920  140.0409  157.1863 H   0  0  0  0  0  0  0  0  0  0  0  0  # atno 8009 bound_to 7997
  154.8588  140.2917  155.5556 H   0  0  0  0  0  0  0  0  0  0  0  0  # atno 8010 bound_to 7997
  140.0965  144.4942  150.7065 H   0  0  0  0  0  0  0  0  0  0  0  0  # atno 10167 bound_to 10162
  157.6179  131.1021  150.7429 H   0  0  0  0  0  0  0  0  0  0  0  0  # atno 10718 bound_to 10713
  154.2731  135.6286  153.5318 H   0  0  0  0  0  0  0  0  0  0  0  0  # atno 10763 bound_to 10752
  152.9877  135.5615  154.5578 H   0  0  0  0  0  0  0  0  0  0  0  0  # atno 10764 bound_to 10752
  154.5153  135.2879  155.1284 H   0  0  0  0  0  0  0  0  0  0  0  0  # atno 10765 bound_to 10752
  139.9186  134.7815  156.1734 H   0  0  0  0  0  0  0  0  0  0  0  0  # atno 11005 bound_to 11000
  145.8854  140.9337  143.0580 LP  0  0  0  0  0  0  0  0  0  0  0  0  # atno 17320 bound_to 7965
  144.6733  140.0835  143.7468 LP  0  0  0  0  0  0  0  0  0  0  0  0  # atno 17321 bound_to 7965
  140.7001  143.2429  151.4889 LP  0  0  0  0  0  0  0  0  0  0  0  0  # atno 17342 bound_to 10162
  139.5695  144.1962  152.1816 LP  0  0  0  0  0  0  0  0  0  0  0  0  # atno 17343 bound_to 10162
  156.7792  130.4854  149.5404 LP  0  0  0  0  0  0  0  0  0  0  0  0  # atno 17370 bound_to 10713
  156.1310  130.6178  151.0333 LP  0  0  0  0  0  0  0  0  0  0  0  0  # atno 17371 bound_to 10713
  141.0686  133.6807  156.2095 LP  0  0  0  0  0  0  0  0  0  0  0  0  # atno 17394 bound_to 11000
  140.6544  134.5033  157.5579 LP  0  0  0  0  0  0  0  0  0  0  0  0  # atno 17395 bound_to 11000

$$$$
