AV-unprocessed.smi:2159|AV-procd|sdf|8792|dock1
  -GOLD-   2272011573D 1   1.00000     0.00000
 Structure written by MMmdl.
 47 49  0  0  0  0  0  0  0  0  1 V2000
  151.3448  136.3856  156.3713 O   0  0  0  0  0  0  0  0  0  0  0  0
  150.8780  136.7015  155.2766 C   0  0  0  0  0  0  0  0  0  0  0  0
  151.2378  138.0435  154.6321 C   0  0  0  0  0  0  0  0  0  0  0  0
  152.4402  138.7364  155.3039 C   0  0  0  0  0  0  0  0  0  0  0  0
  151.9977  139.7174  156.3008 N   0  0  0  0  0  0  0  0  0  0  0  0
  152.5086  139.8122  157.5365 C   0  0  0  0  0  0  0  0  0  0  0  0
  153.4111  139.1178  158.0041 O   0  0  0  0  0  0  0  0  0  0  0  0
  151.8145  140.9111  158.3374 C   0  0  1  0  0  0  0  0  0  0  0  0
  152.8096  141.9736  158.8497 C   0  0  0  0  0  0  0  0  0  0  0  0
  152.0784  143.2311  159.3515 C   0  0  0  0  0  0  0  0  0  0  0  0
  151.0452  143.7881  158.3465 C   0  0  0  0  0  0  0  0  0  0  0  0
  150.9513  142.9733  157.0446 C   0  0  0  0  0  0  0  0  0  0  0  0
  150.7817  141.4669  157.3336 C   0  0  1  0  0  0  0  0  0  0  0  0
  151.0227  140.6131  156.0912 C   0  0  0  0  0  0  0  0  0  0  0  0
  150.3774  140.7538  155.0523 O   0  0  0  0  0  0  0  0  0  0  0  0
  150.0346  135.9212  154.5839 N   0  0  0  0  0  0  0  0  0  0  0  0
  149.5450  134.6173  155.0168 C   0  0  0  0  0  0  0  0  0  0  0  0
  149.8624  133.5171  153.9904 C   0  0  0  0  0  0  0  0  0  0  0  0
  148.6282  132.7253  153.5999 C   0  0  0  0  0  0  0  0  0  0  0  0
  148.4739  131.3847  154.0134 C   0  0  0  0  0  0  0  0  0  0  0  0
  147.3159  130.6887  153.6160 C   0  0  0  0  0  0  0  0  0  0  0  0
  146.3619  131.3559  152.8238 C   0  0  0  0  0  0  0  0  0  0  0  0
  146.6093  132.6956  152.4630 C   0  0  0  0  0  0  0  0  0  0  0  0
  147.7165  133.3719  152.8387 N   0  0  0  0  0  0  0  0  0  0  0  0
  151.4540  137.8825  153.5747 H   0  0  0  0  0  0  0  0  0  0  0  0
  150.3607  138.6898  154.6768 H   0  0  0  0  0  0  0  0  0  0  0  0
  153.0874  137.9962  155.7780 H   0  0  0  0  0  0  0  0  0  0  0  0
  153.0605  139.2253  154.5502 H   0  0  0  0  0  0  0  0  0  0  0  0
  151.2965  140.4557  159.1827 H   0  0  0  0  0  0  0  0  0  0  0  0
  153.4203  141.5589  159.6528 H   0  0  0  0  0  0  0  0  0  0  0  0
  153.5041  142.2548  158.0559 H   0  0  0  0  0  0  0  0  0  0  0  0
  151.5682  142.9943  160.2861 H   0  0  0  0  0  0  0  0  0  0  0  0
  152.8087  144.0022  159.5986 H   0  0  0  0  0  0  0  0  0  0  0  0
  150.0646  143.8069  158.8235 H   0  0  0  0  0  0  0  0  0  0  0  0
  151.2804  144.8262  158.1094 H   0  0  0  0  0  0  0  0  0  0  0  0
  150.1161  143.3360  156.4441 H   0  0  0  0  0  0  0  0  0  0  0  0
  151.8495  143.1447  156.4484 H   0  0  0  0  0  0  0  0  0  0  0  0
  149.7729  141.2755  157.7021 H   0  0  0  0  0  0  0  0  0  0  0  0
  149.6985  136.2609  153.6942 H   0  0  0  0  0  0  0  0  0  0  0  0
  149.9631  134.3651  155.9930 H   0  0  0  0  0  0  0  0  0  0  0  0
  148.4658  134.6942  155.1518 H   0  0  0  0  0  0  0  0  0  0  0  0
  150.3011  133.9590  153.0947 H   0  0  0  0  0  0  0  0  0  0  0  0
  150.6097  132.8302  154.3903 H   0  0  0  0  0  0  0  0  0  0  0  0
  149.2249  130.8998  154.6198 H   0  0  0  0  0  0  0  0  0  0  0  0
  147.1635  129.6614  153.9126 H   0  0  0  0  0  0  0  0  0  0  0  0
  145.4624  130.8535  152.5005 H   0  0  0  0  0  0  0  0  0  0  0  0
  145.8995  133.2382  151.8561 H   0  0  0  0  0  0  0  0  0  0  0  0
  1  2  2  0  0  0  0
  2  3  1  0  0  0  0
  2 16  1  0  0  0  0
  3  4  1  0  0  0  0
  3 25  1  0  0  0  0
  3 26  1  0  0  0  0
  4  5  1  0  0  0  0
  4 27  1  0  0  0  0
  4 28  1  0  0  0  0
  5 14  1  0  0  0  0
  5  6  1  0  0  0  0
  6  7  2  0  0  0  0
  6  8  1  0  0  0  0
  8 13  1  0  0  0  0
  8  9  1  0  0  0  0
  8 29  1  0  0  0  0
  9 10  1  0  0  0  0
  9 30  1  0  0  0  0
  9 31  1  0  0  0  0
 10 11  1  0  0  0  0
 10 32  1  0  0  0  0
 10 33  1  0  0  0  0
 11 12  1  0  0  0  0
 11 34  1  0  0  0  0
 11 35  1  0  0  0  0
 12 13  1  0  0  0  0
 12 36  1  0  0  0  0
 12 37  1  0  0  0  0
 13 14  1  0  0  0  0
 13 38  1  0  0  0  0
 14 15  2  0  0  0  0
 16 17  1  0  0  0  0
 16 39  1  0  0  0  0
 17 18  1  0  0  0  0
 17 40  1  0  0  0  0
 17 41  1  0  0  0  0
 18 19  1  0  0  0  0
 18 42  1  0  0  0  0
 18 43  1  0  0  0  0
 19 24  1  0  0  0  0
 19 20  2  0  0  0  0
 20 21  1  0  0  0  0
 20 44  1  0  0  0  0
 21 22  2  0  0  0  0
 21 45  1  0  0  0  0
 22 23  1  0  0  0  0
 22 46  1  0  0  0  0
 23 24  2  0  0  0  0
 23 47  1  0  0  0  0
M  END
> <s_m_source_file>
AV-unprocessed.smi

> <i_m_source_file_index>
2159

> <i_lp_mmshare_version>
43012

> <i_f3d_flags>
0

> <s_epik_input>
bjFbY0hdW2NIXVtjSF1bY0hdYzFbQ0gyXVtDSDJdW05IXUMoPU8pW0NIMl1bQ0gyXU4oQzI9TylDKD1PKVtDQEhdKFtDQEBIXTIzKVtDSDJdW0NIMl1bQ0gyXVtDSDJdMw==

> <s_epik_cmdline>
J2VwaWtfcHl0aG9uJywgJy1waCcsICc3LjAnLCAnLXRuJywgJzgnLCAnLW1hJywgJzIwMCcsICctbWV0YWxfYmluZGluZycsICctaW1hZScsICc8aW5maWxlLm1hZT4nLCAnLW9tYWUnLCAnPG91dGZpbGUubWFlPic=

> <r_lp_tautomer_probability>
1

> <r_epik_Ionization_Penalty>
0.026624

> <r_epik_Ionization_Penalty_Charging>
0

> <r_epik_Ionization_Penalty_Neutral>
0.026624

> <r_epik_State_Penalty>
0.0217444

> <r_epik_Charging_Adjusted_Penalty>
0.0217444

> <i_epik_Tot_Q>
0

> <i_epik_Tot_abs_Q>
0

> <r_epik_Metal_State_Penalty>
0.0208054

> <b_epik_Metal_Only>
0

> <s_lp_Force_Field>
OPLS_2005

> <r_lp_Energy>
25.0147

> <b_lp_Chiralities_Consistent>
1

> <s_lp_Variant>
AV-unprocessed.smi:2159-2

> <Gold.Version>
5.8.1

> <Gold.Id.Protein>
6NUR|6NUR_protein|mol2

> <Gold.PLP.Fitness>
51.7154

> <Gold.PLP.PLP>
-45.5429

> <Gold.PLP.part.hbond>
-3.4749

> <Gold.PLP.part.metal>
0.0000

> <Gold.PLP.part.buried>
-3.1314

> <Gold.PLP.part.nonpolar>
-38.7221

> <Gold.PLP.part.repulsive>
0.8275

> <Gold.PLP.ligand.clash>
0.0000

> <Gold.PLP.ligand.torsion>
1.0298

> <Gold.PLP.Chemscore.Hbond>
2.6752

> <Gold.PLP.Chemscore.CHOScore>
0.0000

> <Gold.PLP.Chemscore.Metal>
0.0000

> <Gold.Chemscore.Hbonds>
donor molecule, donor type, donor heavy atom, donor atom, acceptor molecule, acceptor atom, score
      L1  H    16    39       P1  7948  1.00
      P1  H  7989  7998       L1    15  0.85
      P1  H  7997  8009       L1     7  0.90

> <Gold.PLP.Chemscore.Internal.Correction>
0.2064

> <Gold.Rescore>
     Score         DG    S(hbond)    S(metal)    S(lipo)     H(rot)  DE(clash)    DE(int)     intcor
     15.41     -17.65       1.43        0.00     106.16       1.97       0.09       2.15       ----

> <Gold.Chemscore.Fitness>
15.4063

> <Gold.Chemscore.DG>
-17.6480

> <Gold.Chemscore.ZeroCoef>
-5.4800

> <Gold.Chemscore.Hbond>
1.4347

> <Gold.Chemscore.Metal>
0.0000

> <Gold.Chemscore.Lipo>
106.1570

> <Gold.Chemscore.Internal_Hbond>
0.0000

> <Gold.Chemscore.DEClash>
0.0902

> <Gold.Chemscore.DEInternal>
2.1514

> <Gold.Chemscore.Rot>
1.9704

> <Gold.Chemscore.Internal.Correction>
   9.000000E+99

> <Gold.Chemscore.Hbonds>
donor molecule, donor type, donor heavy atom, donor atom, acceptor molecule, acceptor atom, score
      L1  H    16    39       P1  7948  0.39
      P1  H  7989  7998       L1    15  0.61
      P1  H  7997  8009       L1     7  0.17

> <Gold.Chemscore.Hbond.Weighted>
-4.7919

> <Gold.Chemscore.Metal.Weighted>
-0.0000

> <Gold.Chemscore.Lipo.Weighted>
-12.4204

> <Gold.Chemscore.Internal_Hbond.Weighted>
0.0000

> <Gold.Chemscore.DEClash.Weighted>
0.0902

> <Gold.Chemscore.DEInternal.Weighted>
2.1514

> <Gold.Chemscore.Rot.Weighted>
5.0443

> <Gold.Chemscore.Internal.Correction.Weighted>
   9.000000E+99

> <Gold.Protein.RotatedTorsions>
[ 6907 6896 6895 6894 ] final  -74.75 input  -60.11 | X-H torsion
[ 7974 7965 7964 7962 ] final  -25.66 input  175.53 | X-H torsion
[ 8008 7997 7996 7995 ] final  133.46 input   59.86 | X-H torsion
[ 10167 10162 10161 10158 ] final -178.55 input  -65.29 | X-H torsion
[ 10718 10713 10712 10709 ] final -168.32 input   66.30 | X-H torsion
[ 10763 10752 10751 10750 ] final -165.98 input  -60.55 | X-H torsion
[ 11005 11000 10999 10996 ] final  123.79 input  -57.11 | X-H torsion

> <Gold.Protein.ActiveResidues>
 VAL166  LYS551  ARG553  GLY616  TRP617  ASP618  TYR619  PRO620  LYS621  CYS622 
 ASP623  PHE694  ASN695  SER759  ASP760  ASP761  ALA762  ILE779  LEU786  VAL792 
 PHE793  MET794  SER795  GLU796  ALA797  LYS798  CYS799  TRP800  GLU811  SER814 

> <Gold.Protein.RotatedAtoms>
  150.7082  134.4822  159.5475 H   0  0  0  0  0  0  0  0  0  0  0  0  # atno 6907 bound_to 6896
  152.2457  134.8181  160.0463 H   0  0  0  0  0  0  0  0  0  0  0  0  # atno 6908 bound_to 6896
  151.8946  133.3489  159.3847 H   0  0  0  0  0  0  0  0  0  0  0  0  # atno 6909 bound_to 6896
  146.1477  140.4915  142.8625 H   0  0  0  0  0  0  0  0  0  0  0  0  # atno 7974 bound_to 7965
  156.2992  140.2521  156.3257 H   0  0  0  0  0  0  0  0  0  0  0  0  # atno 8008 bound_to 7997
  154.9193  140.0401  157.2008 H   0  0  0  0  0  0  0  0  0  0  0  0  # atno 8009 bound_to 7997
  154.8327  140.2878  155.5716 H   0  0  0  0  0  0  0  0  0  0  0  0  # atno 8010 bound_to 7997
  139.5427  144.2319  152.0927 H   0  0  0  0  0  0  0  0  0  0  0  0  # atno 10167 bound_to 10162
  156.6952  130.9175  151.3073 H   0  0  0  0  0  0  0  0  0  0  0  0  # atno 10718 bound_to 10713
  154.6878  135.2965  154.9522 H   0  0  0  0  0  0  0  0  0  0  0  0  # atno 10763 bound_to 10752
  154.0495  135.6646  153.4803 H   0  0  0  0  0  0  0  0  0  0  0  0  # atno 10764 bound_to 10752
  153.0591  135.5126  154.7955 H   0  0  0  0  0  0  0  0  0  0  0  0  # atno 10765 bound_to 10752
  139.9329  134.9641  156.8312 H   0  0  0  0  0  0  0  0  0  0  0  0  # atno 11005 bound_to 11000
  144.7866  140.5948  143.6570 LP  0  0  0  0  0  0  0  0  0  0  0  0  # atno 17320 bound_to 7965
  145.4899  139.1489  143.3715 LP  0  0  0  0  0  0  0  0  0  0  0  0  # atno 17321 bound_to 7965
  140.1800  144.4853  150.6533 LP  0  0  0  0  0  0  0  0  0  0  0  0  # atno 17342 bound_to 10162
  140.6663  143.2269  151.5734 LP  0  0  0  0  0  0  0  0  0  0  0  0  # atno 17343 bound_to 10162
  157.6994  130.9316  150.0740 LP  0  0  0  0  0  0  0  0  0  0  0  0  # atno 17370 bound_to 10713
  156.1769  130.3648  149.9088 LP  0  0  0  0  0  0  0  0  0  0  0  0  # atno 17371 bound_to 10713
  140.6154  134.0043  155.7595 LP  0  0  0  0  0  0  0  0  0  0  0  0  # atno 17394 bound_to 11000
  141.0927  133.9892  157.3211 LP  0  0  0  0  0  0  0  0  0  0  0  0  # atno 17395 bound_to 11000

$$$$
