AV-unprocessed.smi:2942|AV-procd|sdf|11266|dock6
  -GOLD-   2272016153D 1   1.00000     0.00000
 Structure written by MMmdl.
 45 48  0  0  0  0  0  0  0  0  1 V2000
  153.2153  139.2808  157.3038 O   0  0  0  0  0  0  0  0  0  0  0  0
  152.2226  139.8438  157.7673 C   0  0  0  0  0  0  0  0  0  0  0  0
  152.2136  140.3833  158.9971 N   0  0  0  0  0  0  0  0  0  0  0  0
  153.3522  140.4356  159.9081 C   0  0  0  0  0  0  0  0  0  0  0  0
  154.0657  141.8043  159.9151 C   0  0  0  0  0  0  0  0  0  0  0  0
  153.1255  142.9885  160.0775 C   0  0  0  0  0  0  0  0  0  0  0  0
  152.8316  143.8268  158.9811 C   0  0  0  0  0  0  0  0  0  0  0  0
  151.9801  144.9293  159.1886 C   0  0  0  0  0  0  0  0  0  0  0  0
  151.4576  145.1510  160.4774 C   0  0  0  0  0  0  0  0  0  0  0  0
  151.8109  144.2555  161.5063 C   0  0  0  0  0  0  0  0  0  0  0  0
  152.6271  143.1967  161.3178 N   0  0  0  0  0  0  0  0  0  0  0  0
  150.9327  139.9880  156.9264 C   0  0  0  0  0  0  0  0  0  0  0  0
  149.7551  139.3203  157.6854 C   0  0  0  0  0  0  0  0  0  0  0  0
  148.4482  139.4587  156.8753 C   0  0  1  0  0  0  0  0  0  0  0  0
  148.1210  140.9524  156.6719 C   0  0  0  0  0  0  0  0  0  0  0  0
  149.2745  141.6245  155.8983 C   0  0  2  0  0  0  0  0  0  0  0  0
  149.4431  140.9477  154.5229 C   0  0  0  0  0  0  0  0  0  0  0  0
  149.7664  139.4541  154.7294 C   0  0  2  0  0  0  0  0  0  0  0  0
  148.6155  138.7747  155.5017 C   0  0  0  0  0  0  0  0  0  0  0  0
  151.0780  139.3129  155.5308 C   0  0  0  0  0  0  0  0  0  0  0  0
  150.5832  141.4887  156.7053 C   0  0  0  0  0  0  0  0  0  0  0  0
  151.3627  140.8293  159.3078 H   0  0  0  0  0  0  0  0  0  0  0  0
  152.9696  140.2277  160.9075 H   0  0  0  0  0  0  0  0  0  0  0  0
  154.0592  139.6371  159.6784 H   0  0  0  0  0  0  0  0  0  0  0  0
  154.8049  141.8270  160.7164 H   0  0  0  0  0  0  0  0  0  0  0  0
  154.6285  141.9265  158.9883 H   0  0  0  0  0  0  0  0  0  0  0  0
  153.2537  143.6348  158.0059 H   0  0  0  0  0  0  0  0  0  0  0  0
  151.7347  145.5949  158.3743 H   0  0  0  0  0  0  0  0  0  0  0  0
  150.8026  145.9869  160.6731 H   0  0  0  0  0  0  0  0  0  0  0  0
  151.4311  144.3951  162.5076 H   0  0  0  0  0  0  0  0  0  0  0  0
  149.9638  138.2633  157.8572 H   0  0  0  0  0  0  0  0  0  0  0  0
  149.6295  139.7704  158.6717 H   0  0  0  0  0  0  0  0  0  0  0  0
  147.6338  138.9807  157.4207 H   0  0  0  0  0  0  0  0  0  0  0  0
  147.1838  141.0628  156.1250 H   0  0  0  0  0  0  0  0  0  0  0  0
  147.9757  141.4419  157.6357 H   0  0  0  0  0  0  0  0  0  0  0  0
  149.0461  142.6811  155.7553 H   0  0  0  0  0  0  0  0  0  0  0  0
  148.5333  141.0597  153.9318 H   0  0  0  0  0  0  0  0  0  0  0  0
  150.2403  141.4326  153.9580 H   0  0  0  0  0  0  0  0  0  0  0  0
  149.8837  138.9728  153.7582 H   0  0  0  0  0  0  0  0  0  0  0  0
  148.8222  137.7117  155.6316 H   0  0  0  0  0  0  0  0  0  0  0  0
  147.6878  138.8406  154.9319 H   0  0  0  0  0  0  0  0  0  0  0  0
  151.9030  139.7614  154.9751 H   0  0  0  0  0  0  0  0  0  0  0  0
  151.3139  138.2523  155.6283 H   0  0  0  0  0  0  0  0  0  0  0  0
  150.4670  142.0051  157.6597 H   0  0  0  0  0  0  0  0  0  0  0  0
  151.3944  141.9952  156.1798 H   0  0  0  0  0  0  0  0  0  0  0  0
  1  2  2  0  0  0  0
  2  3  1  0  0  0  0
  2 12  1  0  0  0  0
  3  4  1  0  0  0  0
  3 22  1  0  0  0  0
  4  5  1  0  0  0  0
  4 23  1  0  0  0  0
  4 24  1  0  0  0  0
  5  6  1  0  0  0  0
  5 25  1  0  0  0  0
  5 26  1  0  0  0  0
  6 11  1  0  0  0  0
  6  7  2  0  0  0  0
  7  8  1  0  0  0  0
  7 27  1  0  0  0  0
  8  9  2  0  0  0  0
  8 28  1  0  0  0  0
  9 10  1  0  0  0  0
  9 29  1  0  0  0  0
 10 11  2  0  0  0  0
 10 30  1  0  0  0  0
 12 20  1  0  0  0  0
 12 21  1  0  0  0  0
 12 13  1  0  0  0  0
 13 14  1  0  0  0  0
 13 31  1  0  0  0  0
 13 32  1  0  0  0  0
 14 19  1  0  0  0  0
 14 15  1  0  0  0  0
 14 33  1  0  0  0  0
 15 16  1  0  0  0  0
 15 34  1  0  0  0  0
 15 35  1  0  0  0  0
 16 17  1  0  0  0  0
 16 21  1  0  0  0  0
 16 36  1  0  0  0  0
 17 18  1  0  0  0  0
 17 37  1  0  0  0  0
 17 38  1  0  0  0  0
 18 19  1  0  0  0  0
 18 20  1  0  0  0  0
 18 39  1  0  0  0  0
 19 40  1  0  0  0  0
 19 41  1  0  0  0  0
 20 42  1  0  0  0  0
 20 43  1  0  0  0  0
 21 44  1  0  0  0  0
 21 45  1  0  0  0  0
M  END
> <s_m_source_file>
AV-unprocessed.smi

> <i_m_source_file_index>
2942

> <i_lp_mmshare_version>
43012

> <i_f3d_flags>
0

> <s_epik_input>
W0NIMl0xW0NASF0oW0NIMl0yKVtDSDJdW0NASF0oW0NIMl0zKVtDSDJdW0NAQEhdMVtDSDJdQzIzQyg9TylbTkhdW0NIMl1bQ0gyXWM0W2NIXVtjSF1bY0hdW2NIXW40

> <s_epik_cmdline>
J2VwaWtfcHl0aG9uJywgJy1waCcsICc3LjAnLCAnLXRuJywgJzgnLCAnLW1hJywgJzIwMCcsICctbWV0YWxfYmluZGluZycsICctaW1hZScsICc8aW5maWxlLm1hZT4nLCAnLW9tYWUnLCAnPG91dGZpbGUubWFlPic=

> <r_epik_Ionization_Penalty>
0.0283659

> <r_epik_Ionization_Penalty_Charging>
0

> <r_epik_Ionization_Penalty_Neutral>
0.0283659

> <r_epik_State_Penalty>
0.0232723

> <r_epik_Charging_Adjusted_Penalty>
0.0232723

> <i_epik_Tot_Q>
0

> <i_epik_Tot_abs_Q>
0

> <r_epik_Metal_State_Penalty>
0.0222054

> <b_epik_Metal_Only>
0

> <s_lp_Force_Field>
OPLS_2005

> <r_lp_Energy>
35.5919

> <b_lp_Chiralities_Consistent>
1

> <s_lp_Variant>
AV-unprocessed.smi:2942-1

> <Gold.Version>
5.8.1

> <Gold.Id.Protein>
6NUR|6NUR_protein|mol2

> <Gold.PLP.Fitness>
46.4677

> <Gold.PLP.PLP>
-44.1585

> <Gold.PLP.part.hbond>
-1.0000

> <Gold.PLP.part.metal>
0.0000

> <Gold.PLP.part.buried>
-3.3023

> <Gold.PLP.part.nonpolar>
-40.6344

> <Gold.PLP.part.repulsive>
0.1987

> <Gold.PLP.ligand.clash>
0.0000

> <Gold.PLP.ligand.torsion>
0.3520

> <Gold.PLP.Chemscore.Hbond>
1.0000

> <Gold.PLP.Chemscore.CHOScore>
0.0000

> <Gold.PLP.Chemscore.Metal>
0.0000

> <Gold.Chemscore.Hbonds>
donor molecule, donor type, donor heavy atom, donor atom, acceptor molecule, acceptor atom, score
      P1  H  7997  8009       L1     1  1.00

> <Gold.PLP.Chemscore.Internal.Correction>
0.0132

> <Gold.Rescore>
     Score         DG    S(hbond)    S(metal)    S(lipo)     H(rot)  DE(clash)    DE(int)     intcor
     19.41     -20.16       0.99        0.00     126.10       1.32       0.27       0.48       ----

> <Gold.Chemscore.Fitness>
19.4136

> <Gold.Chemscore.DG>
-20.1580

> <Gold.Chemscore.ZeroCoef>
-5.4800

> <Gold.Chemscore.Hbond>
0.9928

> <Gold.Chemscore.Metal>
0.0000

> <Gold.Chemscore.Lipo>
126.1029

> <Gold.Chemscore.Internal_Hbond>
0.0000

> <Gold.Chemscore.DEClash>
0.2678

> <Gold.Chemscore.DEInternal>
0.4766

> <Gold.Chemscore.Rot>
1.3250

> <Gold.Chemscore.Internal.Correction>
   9.000000E+99

> <Gold.Chemscore.Hbonds>
donor molecule, donor type, donor heavy atom, donor atom, acceptor molecule, acceptor atom, score
      P1  H  7997  8009       L1     1  0.93

> <Gold.Chemscore.Hbond.Weighted>
-3.3159

> <Gold.Chemscore.Metal.Weighted>
-0.0000

> <Gold.Chemscore.Lipo.Weighted>
-14.7540

> <Gold.Chemscore.Internal_Hbond.Weighted>
0.0000

> <Gold.Chemscore.DEClash.Weighted>
0.2678

> <Gold.Chemscore.DEInternal.Weighted>
0.4766

> <Gold.Chemscore.Rot.Weighted>
3.3920

> <Gold.Chemscore.Internal.Correction.Weighted>
   9.000000E+99

> <Gold.Protein.RotatedTorsions>
[ 6907 6896 6895 6894 ] final  -56.33 input  -60.11 | X-H torsion
[ 7974 7965 7964 7962 ] final -128.45 input  175.53 | X-H torsion
[ 8008 7997 7996 7995 ] final  173.04 input   59.86 | X-H torsion
[ 10167 10162 10161 10158 ] final   28.19 input  -65.29 | X-H torsion
[ 10718 10713 10712 10709 ] final   56.66 input   66.30 | X-H torsion
[ 10763 10752 10751 10750 ] final -113.06 input  -60.55 | X-H torsion
[ 11005 11000 10999 10996 ] final -171.96 input  -57.11 | X-H torsion

> <Gold.Protein.ActiveResidues>
 VAL166  LYS551  ARG553  GLY616  TRP617  ASP618  TYR619  PRO620  LYS621  CYS622 
 ASP623  PHE694  ASN695  SER759  ASP760  ASP761  ALA762  ILE779  LEU786  VAL792 
 PHE793  MET794  SER795  GLU796  ALA797  LYS798  CYS799  TRP800  GLU811  SER814 

> <Gold.Protein.RotatedAtoms>
  150.8177  134.7368  159.6744 H   0  0  0  0  0  0  0  0  0  0  0  0  # atno 6907 bound_to 6896
  152.4294  134.5802  159.9955 H   0  0  0  0  0  0  0  0  0  0  0  0  # atno 6908 bound_to 6896
  151.5995  133.3320  159.3080 H   0  0  0  0  0  0  0  0  0  0  0  0  # atno 6909 bound_to 6896
  144.9669  140.7506  143.4694 H   0  0  0  0  0  0  0  0  0  0  0  0  # atno 7974 bound_to 7965
  156.1115  140.1470  156.9332 H   0  0  0  0  0  0  0  0  0  0  0  0  # atno 8008 bound_to 7997
  154.4770  140.0891  156.7330 H   0  0  0  0  0  0  0  0  0  0  0  0  # atno 8009 bound_to 7997
  155.4588  140.3437  155.4312 H   0  0  0  0  0  0  0  0  0  0  0  0  # atno 8010 bound_to 7997
  140.4874  144.0520  150.6285 H   0  0  0  0  0  0  0  0  0  0  0  0  # atno 10167 bound_to 10162
  157.5449  130.8724  149.8877 H   0  0  0  0  0  0  0  0  0  0  0  0  # atno 10718 bound_to 10713
  154.8379  135.4468  154.1290 H   0  0  0  0  0  0  0  0  0  0  0  0  # atno 10763 bound_to 10752
  153.2506  135.6926  153.7690 H   0  0  0  0  0  0  0  0  0  0  0  0  # atno 10764 bound_to 10752
  153.7004  135.3373  155.3199 H   0  0  0  0  0  0  0  0  0  0  0  0  # atno 10765 bound_to 10752
  140.5024  134.5881  157.4992 H   0  0  0  0  0  0  0  0  0  0  0  0  # atno 11005 bound_to 11000
  145.2616  139.1990  143.4889 LP  0  0  0  0  0  0  0  0  0  0  0  0  # atno 17320 bound_to 7965
  146.3370  140.2547  142.8600 LP  0  0  0  0  0  0  0  0  0  0  0  0  # atno 17321 bound_to 7965
  140.3780  143.2818  152.0203 LP  0  0  0  0  0  0  0  0  0  0  0  0  # atno 17342 bound_to 10162
  139.4844  144.6177  151.7314 LP  0  0  0  0  0  0  0  0  0  0  0  0  # atno 17343 bound_to 10162
  156.0527  130.3714  150.1162 LP  0  0  0  0  0  0  0  0  0  0  0  0  # atno 17370 bound_to 10713
  156.9340  130.9723  151.3528 LP  0  0  0  0  0  0  0  0  0  0  0  0  # atno 17371 bound_to 10713
  139.9706  134.7300  156.0050 LP  0  0  0  0  0  0  0  0  0  0  0  0  # atno 17394 bound_to 11000
  141.1429  133.6561  156.3781 LP  0  0  0  0  0  0  0  0  0  0  0  0  # atno 17395 bound_to 11000

$$$$
