AV-unprocessed.smi:3032|AV-procd|sdf|11561|dock2
  -GOLD-   2272016523D 1   1.00000     0.00000
 Structure written by MMmdl.
 37 38  0  0  0  0  0  0  0  0  1 V2000
  153.8694  141.3820  160.8948 C   0  0  0  0  0  0  0  0  0  0  0  0
  153.1194  141.7154  159.5974 C   0  0  2  0  0  0  0  0  0  0  0  0
  152.9592  143.2357  159.4123 C   0  0  0  0  0  0  0  0  0  0  0  0
  152.2296  143.5712  158.1025 C   0  0  0  0  0  0  0  0  0  0  0  0
  150.8701  142.8501  158.0039 C   0  0  0  0  0  0  0  0  0  0  0  0
  150.9558  141.3242  158.2554 C   0  0  1  0  0  0  0  0  0  0  0  0
  151.5133  140.5227  157.0638 C   0  0  0  0  0  0  0  0  0  0  0  0
  152.5339  139.8428  157.1699 O   0  0  0  0  0  0  0  0  0  0  0  0
  150.8193  140.6177  155.9194 N   0  0  0  0  0  0  0  0  0  0  0  0
  151.1217  139.8945  154.6879 C   0  0  0  0  0  0  0  0  0  0  0  0
  151.6907  138.4808  154.9335 C   0  0  0  0  0  0  0  0  0  0  0  0
  150.6881  137.3844  154.7518 C   0  0  0  0  0  0  0  0  0  0  0  0
  149.3988  137.6569  154.5436 N   0  0  0  0  0  0  0  0  0  0  0  0
  148.8556  136.4221  154.4801 N   0  0  0  0  0  0  0  0  0  0  0  0
  149.8194  135.5195  154.6551 C   0  0  0  0  0  0  0  0  0  0  0  0
  151.0169  136.0582  154.8385 N   0  0  0  0  0  0  0  0  0  0  0  0
  151.7371  141.0322  159.5567 C   0  0  0  0  0  0  0  0  0  0  0  0
  153.3245  141.7356  161.7706 H   0  0  0  0  0  0  0  0  0  0  0  0
  154.8567  141.8444  160.9068 H   0  0  0  0  0  0  0  0  0  0  0  0
  154.0098  140.3059  161.0010 H   0  0  0  0  0  0  0  0  0  0  0  0
  153.7201  141.3331  158.7711 H   0  0  0  0  0  0  0  0  0  0  0  0
  152.4043  143.6534  160.2536 H   0  0  0  0  0  0  0  0  0  0  0  0
  153.9369  143.7188  159.4175 H   0  0  0  0  0  0  0  0  0  0  0  0
  152.0774  144.6486  158.0333 H   0  0  0  0  0  0  0  0  0  0  0  0
  152.8644  143.3065  157.2573 H   0  0  0  0  0  0  0  0  0  0  0  0
  150.1919  143.2849  158.7391 H   0  0  0  0  0  0  0  0  0  0  0  0
  150.4177  143.0497  157.0316 H   0  0  0  0  0  0  0  0  0  0  0  0
  149.9336  140.9700  158.3991 H   0  0  0  0  0  0  0  0  0  0  0  0
  149.9964  141.2028  155.9127 H   0  0  0  0  0  0  0  0  0  0  0  0
  150.1900  139.8123  154.1279 H   0  0  0  0  0  0  0  0  0  0  0  0
  151.8036  140.4770  154.0667 H   0  0  0  0  0  0  0  0  0  0  0  0
  152.5359  138.3052  154.2674 H   0  0  0  0  0  0  0  0  0  0  0  0
  152.0910  138.4184  155.9462 H   0  0  0  0  0  0  0  0  0  0  0  0
  149.6435  134.4540  154.6512 H   0  0  0  0  0  0  0  0  0  0  0  0
  151.8532  139.9557  159.6908 H   0  0  0  0  0  0  0  0  0  0  0  0
  151.1437  141.3703  160.4074 H   0  0  0  0  0  0  0  0  0  0  0  0
  147.8713  136.2560  154.3265 H   0  0  0  0  0  0  0  0  0  0  0  0
  1  2  1  0  0  0  0
  1 18  1  0  0  0  0
  1 19  1  0  0  0  0
  1 20  1  0  0  0  0
  2 17  1  0  0  0  0
  2  3  1  0  0  0  0
  2 21  1  0  0  0  0
  3  4  1  0  0  0  0
  3 22  1  0  0  0  0
  3 23  1  0  0  0  0
  4  5  1  0  0  0  0
  4 24  1  0  0  0  0
  4 25  1  0  0  0  0
  5  6  1  0  0  0  0
  5 26  1  0  0  0  0
  5 27  1  0  0  0  0
  6  7  1  0  0  0  0
  6 17  1  0  0  0  0
  6 28  1  0  0  0  0
  7  8  2  0  0  0  0
  7  9  1  0  0  0  0
  9 10  1  0  0  0  0
  9 29  1  0  0  0  0
 10 11  1  0  0  0  0
 10 30  1  0  0  0  0
 10 31  1  0  0  0  0
 11 32  1  0  0  0  0
 11 33  1  0  0  0  0
 11 12  1  0  0  0  0
 12 16  1  0  0  0  0
 12 13  2  0  0  0  0
 13 14  1  0  0  0  0
 14 15  1  0  0  0  0
 14 37  1  0  0  0  0
 15 16  2  0  0  0  0
 15 34  1  0  0  0  0
 17 35  1  0  0  0  0
 17 36  1  0  0  0  0
M  END
> <s_m_source_file>
AV-unprocessed.smi

> <i_m_source_file_index>
3032

> <i_lp_mmshare_version>
43012

> <i_f3d_flags>
0

> <s_epik_input>
W0NIM11bQ0BASF0xW0NIMl1bQ0gyXVtDSDJdW0NASF0oW0NIMl0xKUMoPU8pW05IXVtDSDJdW0NIMl1jMm5uW2NIXVtuSF0y

> <s_epik_cmdline>
J2VwaWtfcHl0aG9uJywgJy1waCcsICc3LjAnLCAnLXRuJywgJzgnLCAnLW1hJywgJzIwMCcsICctbWV0YWxfYmluZGluZycsICctaW1hZScsICc8aW5maWxlLm1hZT4nLCAnLW9tYWUnLCAnPG91dGZpbGUubWFlPic=

> <r_epik_Ionization_Penalty>
0.000752022

> <r_epik_Ionization_Penalty_Charging>
0

> <r_epik_Ionization_Penalty_Neutral>
0.000752022

> <r_epik_State_Penalty>
0.639926

> <r_epik_Charging_Adjusted_Penalty>
0.639926

> <i_epik_Tot_Q>
0

> <i_epik_Tot_abs_Q>
0

> <r_epik_Metal_State_Penalty>
0.76532

> <b_epik_Metal_Only>
0

> <s_lp_Force_Field>
OPLS_2005

> <r_lp_Energy>
7.11884

> <b_lp_Chiralities_Consistent>
1

> <s_lp_Variant>
AV-unprocessed.smi:3032-5

> <Gold.Version>
5.8.1

> <Gold.Id.Protein>
6NUR|6NUR_protein|mol2

> <Gold.PLP.Fitness>
39.1713

> <Gold.PLP.PLP>
-34.1936

> <Gold.PLP.part.hbond>
-3.0000

> <Gold.PLP.part.metal>
0.0000

> <Gold.PLP.part.buried>
-1.0255

> <Gold.PLP.part.nonpolar>
-30.7048

> <Gold.PLP.part.repulsive>
0.5038

> <Gold.PLP.ligand.clash>
0.0000

> <Gold.PLP.ligand.torsion>
0.5401

> <Gold.PLP.Chemscore.Hbond>
2.0000

> <Gold.PLP.Chemscore.CHOScore>
0.0000

> <Gold.PLP.Chemscore.Metal>
0.0000

> <Gold.Chemscore.Hbonds>
donor molecule, donor type, donor heavy atom, donor atom, acceptor molecule, acceptor atom, score
      P1  H  7997  8008       L1     8  1.00
      P1  H 10752 10764       L1    16  1.00

> <Gold.PLP.Chemscore.Internal.Correction>
0.0578

> <Gold.Rescore>
     Score         DG    S(hbond)    S(metal)    S(lipo)     H(rot)  DE(clash)    DE(int)     intcor
     13.06     -16.52       1.93        0.00      88.33       2.25       1.58       1.87       ----

> <Gold.Chemscore.Fitness>
13.0591

> <Gold.Chemscore.DG>
-16.5166

> <Gold.Chemscore.ZeroCoef>
-5.4800

> <Gold.Chemscore.Hbond>
1.9347

> <Gold.Chemscore.Metal>
0.0000

> <Gold.Chemscore.Lipo>
88.3348

> <Gold.Chemscore.Internal_Hbond>
0.0000

> <Gold.Chemscore.DEClash>
1.5838

> <Gold.Chemscore.DEInternal>
1.8737

> <Gold.Chemscore.Rot>
2.2501

> <Gold.Chemscore.Internal.Correction>
   9.000000E+99

> <Gold.Chemscore.Hbonds>
donor molecule, donor type, donor heavy atom, donor atom, acceptor molecule, acceptor atom, score
      P1  H  7997  8008       L1     8  0.99
      P1  H 10752 10764       L1    16  0.92

> <Gold.Chemscore.Hbond.Weighted>
-6.4617

> <Gold.Chemscore.Metal.Weighted>
-0.0000

> <Gold.Chemscore.Lipo.Weighted>
-10.3352

> <Gold.Chemscore.Internal_Hbond.Weighted>
0.0000

> <Gold.Chemscore.DEClash.Weighted>
1.5838

> <Gold.Chemscore.DEInternal.Weighted>
1.8737

> <Gold.Chemscore.Rot.Weighted>
5.7603

> <Gold.Chemscore.Internal.Correction.Weighted>
   9.000000E+99

> <Gold.Protein.RotatedTorsions>
[ 6907 6896 6895 6894 ] final  158.89 input  -60.11 | X-H torsion
[ 7974 7965 7964 7962 ] final -132.96 input  175.53 | X-H torsion
[ 8008 7997 7996 7995 ] final  -66.79 input   59.86 | X-H torsion
[ 10167 10162 10161 10158 ] final -135.93 input  -65.29 | X-H torsion
[ 10718 10713 10712 10709 ] final  116.72 input   66.30 | X-H torsion
[ 10763 10752 10751 10750 ] final  -53.75 input  -60.55 | X-H torsion
[ 11005 11000 10999 10996 ] final   82.35 input  -57.11 | X-H torsion

> <Gold.Protein.ActiveResidues>
 VAL166  LYS551  ARG553  GLY616  TRP617  ASP618  TYR619  PRO620  LYS621  CYS622 
 ASP623  PHE694  ASN695  SER759  ASP760  ASP761  ALA762  ILE779  LEU786  VAL792 
 PHE793  MET794  SER795  GLU796  ALA797  LYS798  CYS799  TRP800  GLU811  SER814 

> <Gold.Protein.RotatedAtoms>
  151.9937  133.3800  159.4154 H   0  0  0  0  0  0  0  0  0  0  0  0  # atno 6907 bound_to 6896
  150.6918  134.3908  159.5085 H   0  0  0  0  0  0  0  0  0  0  0  0  # atno 6908 bound_to 6896
  152.1646  134.8884  160.0590 H   0  0  0  0  0  0  0  0  0  0  0  0  # atno 6909 bound_to 6896
  144.9237  140.7045  143.4949 H   0  0  0  0  0  0  0  0  0  0  0  0  # atno 7974 bound_to 7965
  154.4757  140.0905  156.7256 H   0  0  0  0  0  0  0  0  0  0  0  0  # atno 8008 bound_to 7997
  155.4602  140.3460  155.4293 H   0  0  0  0  0  0  0  0  0  0  0  0  # atno 8009 bound_to 7997
  156.1113  140.1448  156.9323 H   0  0  0  0  0  0  0  0  0  0  0  0  # atno 8010 bound_to 7997
  139.8729  143.6935  152.2637 H   0  0  0  0  0  0  0  0  0  0  0  0  # atno 10167 bound_to 10162
  157.6143  131.1029  150.7512 H   0  0  0  0  0  0  0  0  0  0  0  0  # atno 10718 bound_to 10713
  154.1639  135.6470  153.4992 H   0  0  0  0  0  0  0  0  0  0  0  0  # atno 10763 bound_to 10752
  153.0103  135.5367  154.6682 H   0  0  0  0  0  0  0  0  0  0  0  0  # atno 10764 bound_to 10752
  154.6003  135.2943  155.0514 H   0  0  0  0  0  0  0  0  0  0  0  0  # atno 10765 bound_to 10752
  139.9067  134.8065  156.2163 H   0  0  0  0  0  0  0  0  0  0  0  0  # atno 11005 bound_to 11000
  145.3254  139.1775  143.4565 LP  0  0  0  0  0  0  0  0  0  0  0  0  # atno 17320 bound_to 7965
  146.3216  140.3277  142.8638 LP  0  0  0  0  0  0  0  0  0  0  0  0  # atno 17321 bound_to 7965
  139.7267  144.7591  151.0867 LP  0  0  0  0  0  0  0  0  0  0  0  0  # atno 17342 bound_to 10162
  140.7758  143.5139  150.9619 LP  0  0  0  0  0  0  0  0  0  0  0  0  # atno 17343 bound_to 10162
  156.7883  130.4882  149.5389 LP  0  0  0  0  0  0  0  0  0  0  0  0  # atno 17370 bound_to 10713
  156.1258  130.6142  151.0261 LP  0  0  0  0  0  0  0  0  0  0  0  0  # atno 17371 bound_to 10713
  141.0434  133.6926  156.1639 LP  0  0  0  0  0  0  0  0  0  0  0  0  # atno 17394 bound_to 11000
  140.6921  134.4655  157.5588 LP  0  0  0  0  0  0  0  0  0  0  0  0  # atno 17395 bound_to 11000

$$$$
