AV-unprocessed.smi:1554|AV-procd|sdf|6245|dock1
  -GOLD-   22720 6423D 1   1.00000     0.00000
 Structure written by MMmdl.
 48 50  0  0  0  0  0  0  0  0  2 V2000
  153.6917  142.8992  163.6074 C   0  0  0  0  0  0  0  0  0  0  0  0
  153.1350  142.9907  162.1975 C   0  0  0  0  0  0  0  0  0  0  0  0
  152.2651  144.0551  161.8701 C   0  0  0  0  0  0  0  0  0  0  0  0
  151.7282  144.1781  160.5698 C   0  0  0  0  0  0  0  0  0  0  0  0
  150.8723  145.1267  160.0364 N   0  0  0  0  0  0  0  0  0  0  0  0
  150.7457  144.6996  158.7836 C   0  0  0  0  0  0  0  0  0  0  0  0
  151.4201  143.5853  158.4405 N   0  0  0  0  0  0  0  0  0  0  0  0
  151.4387  142.9421  157.1384 C   0  0  0  0  0  0  0  0  0  0  0  0
  150.3000  141.9171  156.9708 C   0  0  1  0  0  0  0  0  0  0  0  0
  149.0517  142.5752  157.0784 O   0  0  0  0  0  0  0  0  0  0  0  0
  150.3643  141.2036  155.6060 C   0  0  0  0  0  0  0  0  0  0  0  0
  150.7188  139.7669  155.7352 N   0  3  1  0  0  0  0  0  0  0  0  0
  150.5662  139.0230  154.4629 C   0  0  0  0  0  0  0  0  0  0  0  0
  150.8752  137.5319  154.6754 C   0  0  0  0  0  0  0  0  0  0  0  0
  152.1860  137.3875  155.2083 O   0  0  0  0  0  0  0  0  0  0  0  0
  152.3274  138.0231  156.4743 C   0  0  1  0  0  0  0  0  0  0  0  0
  153.7375  137.7336  157.0004 C   0  0  0  0  0  0  0  0  0  0  0  0
  152.0662  139.5332  156.3113 C   0  0  0  0  0  0  0  0  0  0  0  0
  152.0880  143.1988  159.5981 C   0  0  0  0  0  0  0  0  0  0  0  0
  152.9513  142.1341  159.9124 C   0  0  0  0  0  0  0  0  0  0  0  0
  153.4789  142.0266  161.2160 C   0  0  0  0  0  0  0  0  0  0  0  0
  154.4099  140.8729  161.5451 C   0  0  0  0  0  0  0  0  0  0  0  0
  153.3249  143.7125  164.2346 H   0  0  0  0  0  0  0  0  0  0  0  0
  154.7805  142.9549  163.5920 H   0  0  0  0  0  0  0  0  0  0  0  0
  153.3989  141.9583  164.0739 H   0  0  0  0  0  0  0  0  0  0  0  0
  152.0027  144.7895  162.6174 H   0  0  0  0  0  0  0  0  0  0  0  0
  150.1285  145.2284  158.0721 H   0  0  0  0  0  0  0  0  0  0  0  0
  151.3809  143.7125  156.3683 H   0  0  0  0  0  0  0  0  0  0  0  0
  152.4057  142.4527  157.0148 H   0  0  0  0  0  0  0  0  0  0  0  0
  150.3694  141.1906  157.7802 H   0  0  0  0  0  0  0  0  0  0  0  0
  149.1518  143.4670  156.7811 H   0  0  0  0  0  0  0  0  0  0  0  0
  149.3928  141.3009  155.1184 H   0  0  0  0  0  0  0  0  0  0  0  0
  151.0836  141.6950  154.9488 H   0  0  0  0  0  0  0  0  0  0  0  0
  149.5485  139.1344  154.0865 H   0  0  0  0  0  0  0  0  0  0  0  0
  151.2360  139.4418  153.7100 H   0  0  0  0  0  0  0  0  0  0  0  0
  150.1447  137.0733  155.3441 H   0  0  0  0  0  0  0  0  0  0  0  0
  150.8182  136.9967  153.7274 H   0  0  0  0  0  0  0  0  0  0  0  0
  151.6036  137.5977  157.1719 H   0  0  0  0  0  0  0  0  0  0  0  0
  153.8944  138.1928  157.9766 H   0  0  0  0  0  0  0  0  0  0  0  0
  154.4991  138.1197  156.3222 H   0  0  0  0  0  0  0  0  0  0  0  0
  153.9007  136.6611  157.1085 H   0  0  0  0  0  0  0  0  0  0  0  0
  152.8220  139.9773  155.6612 H   0  0  0  0  0  0  0  0  0  0  0  0
  152.1539  140.0215  157.2814 H   0  0  0  0  0  0  0  0  0  0  0  0
  153.2067  141.4073  159.1560 H   0  0  0  0  0  0  0  0  0  0  0  0
  154.5955  140.2493  160.6701 H   0  0  0  0  0  0  0  0  0  0  0  0
  153.9745  140.2419  162.3203 H   0  0  0  0  0  0  0  0  0  0  0  0
  155.3715  141.2446  161.8996 H   0  0  0  0  0  0  0  0  0  0  0  0
  150.0484  139.3676  156.3774 H   0  0  0  0  0  0  0  0  0  0  0  0
  1  2  1  0  0  0  0
  1 23  1  0  0  0  0
  1 24  1  0  0  0  0
  1 25  1  0  0  0  0
  2 21  1  0  0  0  0
  2  3  2  0  0  0  0
  3  4  1  0  0  0  0
  3 26  1  0  0  0  0
  4 19  2  0  0  0  0
  4  5  1  0  0  0  0
  5  6  2  0  0  0  0
  6  7  1  0  0  0  0
  6 27  1  0  0  0  0
  7  8  1  0  0  0  0
  7 19  1  0  0  0  0
  8  9  1  0  0  0  0
  8 28  1  0  0  0  0
  8 29  1  0  0  0  0
  9 10  1  0  0  0  0
  9 11  1  0  0  0  0
  9 30  1  0  0  0  0
 10 31  1  0  0  0  0
 11 12  1  0  0  0  0
 11 32  1  0  0  0  0
 11 33  1  0  0  0  0
 12 18  1  0  0  0  0
 12 13  1  0  0  0  0
 12 48  1  0  0  0  0
 13 14  1  0  0  0  0
 13 34  1  0  0  0  0
 13 35  1  0  0  0  0
 14 15  1  0  0  0  0
 14 36  1  0  0  0  0
 14 37  1  0  0  0  0
 15 16  1  0  0  0  0
 16 17  1  0  0  0  0
 16 18  1  0  0  0  0
 16 38  1  0  0  0  0
 17 39  1  0  0  0  0
 17 40  1  0  0  0  0
 17 41  1  0  0  0  0
 18 42  1  0  0  0  0
 18 43  1  0  0  0  0
 19 20  1  0  0  0  0
 20 21  2  0  0  0  0
 20 44  1  0  0  0  0
 21 22  1  0  0  0  0
 22 45  1  0  0  0  0
 22 46  1  0  0  0  0
 22 47  1  0  0  0  0
M  CHG  1  12   1
M  END
> <s_m_source_file>
AV-unprocessed.smi

> <i_m_source_file_index>
1554

> <i_lp_mmshare_version>
43012

> <i_f3d_flags>
0

> <s_epik_input>
W0NIM11jKFtjSF0xKWMoW0NIM10pW2NIXWMoYzEyKW4oW2NIXW4yKVtDSDJdW0NASF0oW09IXSlbQ0gyXU4zW0NIMl1bQ0gyXU9bQ0BASF0oW0NIM10pW0NIMl0z

> <s_epik_cmdline>
J2VwaWtfcHl0aG9uJywgJy1waCcsICc3LjAnLCAnLXRuJywgJzgnLCAnLW1hJywgJzIwMCcsICctbWV0YWxfYmluZGluZycsICctaW1hZScsICc8aW5maWxlLm1hZT4nLCAnLW9tYWUnLCAnPG91dGZpbGUubWFlPic=

> <r_epik_Ionization_Penalty>
0.695251

> <r_epik_Ionization_Penalty_Charging>
0.608065

> <r_epik_Ionization_Penalty_Neutral>
0.0871863

> <r_epik_State_Penalty>
0.731955

> <r_epik_Charging_Adjusted_Penalty>
1.34002

> <i_epik_Tot_Q>
1

> <i_epik_Tot_abs_Q>
1

> <r_epik_Metal_State_Penalty>
0.652186

> <b_epik_Metal_Only>
0

> <s_lp_Force_Field>
OPLS_2005

> <r_lp_Energy>
21.5252

> <b_lp_Chiralities_Consistent>
1

> <s_lp_Variant>
AV-unprocessed.smi:1554-6

> <Gold.Version>
5.8.1

> <Gold.Id.Protein>
6NUR|6NUR_protein|mol2

> <Gold.PLP.Fitness>
60.0803

> <Gold.PLP.PLP>
-53.9158

> <Gold.PLP.part.hbond>
-2.0000

> <Gold.PLP.part.metal>
0.0000

> <Gold.PLP.part.buried>
-6.8119

> <Gold.PLP.part.nonpolar>
-46.4083

> <Gold.PLP.part.repulsive>
0.3250

> <Gold.PLP.ligand.clash>
0.0000

> <Gold.PLP.ligand.torsion>
1.1164

> <Gold.PLP.Chemscore.Hbond>
1.8160

> <Gold.PLP.Chemscore.CHOScore>
0.9523

> <Gold.PLP.Chemscore.Metal>
0.0000

> <Gold.Chemscore.Hbonds>
donor molecule, donor type, donor heavy atom, donor atom, acceptor molecule, acceptor atom, score
      L1  H    10    31       P1  8028  1.00
      P1  H 10752 10765       L1    15  0.78
      L1  C     6    27       P1  8028  0.14
      L1  C     6    27       P1  8029  0.82

> <Gold.PLP.Chemscore.Internal.Correction>
0.0925

> <Gold.Rescore>
     Score         DG    S(hbond)    S(metal)    S(lipo)     H(rot)  DE(clash)    DE(int)     intcor
     21.87     -23.32       1.92        0.00     142.68       2.05       0.23       1.22       ----

> <Gold.Chemscore.Fitness>
21.8650

> <Gold.Chemscore.DG>
-23.3152

> <Gold.Chemscore.ZeroCoef>
-5.4800

> <Gold.Chemscore.Hbond>
1.9164

> <Gold.Chemscore.Metal>
0.0000

> <Gold.Chemscore.Lipo>
142.6840

> <Gold.Chemscore.Internal_Hbond>
0.0000

> <Gold.Chemscore.DEClash>
0.2343

> <Gold.Chemscore.DEInternal>
1.2158

> <Gold.Chemscore.Rot>
2.0546

> <Gold.Chemscore.Internal.Correction>
   9.000000E+99

> <Gold.Chemscore.Hbonds>
donor molecule, donor type, donor heavy atom, donor atom, acceptor molecule, acceptor atom, score
      L1  H    10    31       P1  8028  0.88
      P1  H 10752 10765       L1    15  0.51

> <Gold.Chemscore.Hbond.Weighted>
-6.4009

> <Gold.Chemscore.Metal.Weighted>
-0.0000

> <Gold.Chemscore.Lipo.Weighted>
-16.6940

> <Gold.Chemscore.Internal_Hbond.Weighted>
0.0000

> <Gold.Chemscore.DEClash.Weighted>
0.2343

> <Gold.Chemscore.DEInternal.Weighted>
1.2158

> <Gold.Chemscore.Rot.Weighted>
5.2597

> <Gold.Chemscore.Internal.Correction.Weighted>
   9.000000E+99

> <Gold.Protein.RotatedTorsions>
[ 6907 6896 6895 6894 ] final -178.99 input  -60.11 | X-H torsion
[ 7974 7965 7964 7962 ] final  -46.43 input  175.53 | X-H torsion
[ 8008 7997 7996 7995 ] final  112.48 input   59.86 | X-H torsion
[ 10167 10162 10161 10158 ] final  -84.71 input  -65.29 | X-H torsion
[ 10718 10713 10712 10709 ] final  -83.80 input   66.30 | X-H torsion
[ 10763 10752 10751 10750 ] final  179.12 input  -60.55 | X-H torsion
[ 11005 11000 10999 10996 ] final  106.32 input  -57.11 | X-H torsion

> <Gold.Protein.ActiveResidues>
 VAL166  LYS551  ARG553  GLY616  TRP617  ASP618  TYR619  PRO620  LYS621  CYS622 
 ASP623  PHE694  ASN695  SER759  ASP760  ASP761  ALA762  ILE779  LEU786  VAL792 
 PHE793  MET794  SER795  GLU796  ALA797  LYS798  CYS799  TRP800  GLU811  SER814 

> <Gold.Protein.RotatedAtoms>
  151.6461  133.3323  159.3140 H   0  0  0  0  0  0  0  0  0  0  0  0  # atno 6907 bound_to 6896
  150.7983  134.7063  159.6588 H   0  0  0  0  0  0  0  0  0  0  0  0  # atno 6908 bound_to 6896
  152.4073  134.6189  160.0097 H   0  0  0  0  0  0  0  0  0  0  0  0  # atno 6909 bound_to 6896
  145.9720  140.7373  142.9406 H   0  0  0  0  0  0  0  0  0  0  0  0  # atno 7974 bound_to 7965
  156.2195  140.2998  155.9919 H   0  0  0  0  0  0  0  0  0  0  0  0  # atno 8008 bound_to 7997
  155.2518  140.0426  157.3004 H   0  0  0  0  0  0  0  0  0  0  0  0  # atno 8009 bound_to 7997
  154.5819  140.2377  155.8050 H   0  0  0  0  0  0  0  0  0  0  0  0  # atno 8010 bound_to 7997
  140.4107  143.2624  151.9022 H   0  0  0  0  0  0  0  0  0  0  0  0  # atno 10167 bound_to 10162
  156.0014  130.4677  150.4312 H   0  0  0  0  0  0  0  0  0  0  0  0  # atno 10718 bound_to 10713
  154.5165  135.2791  155.1299 H   0  0  0  0  0  0  0  0  0  0  0  0  # atno 10763 bound_to 10752
  154.2873  135.6273  153.5375 H   0  0  0  0  0  0  0  0  0  0  0  0  # atno 10764 bound_to 10752
  152.9928  135.5665  154.5643 H   0  0  0  0  0  0  0  0  0  0  0  0  # atno 10765 bound_to 10752
  139.8812  134.9365  156.5648 H   0  0  0  0  0  0  0  0  0  0  0  0  # atno 11005 bound_to 11000
  144.6839  140.2764  143.7298 LP  0  0  0  0  0  0  0  0  0  0  0  0  # atno 17320 bound_to 7965
  145.7893  139.1921  143.2112 LP  0  0  0  0  0  0  0  0  0  0  0  0  # atno 17321 bound_to 7965
  139.4782  144.5540  151.8342 LP  0  0  0  0  0  0  0  0  0  0  0  0  # atno 17342 bound_to 10162
  140.4641  144.1680  150.5909 LP  0  0  0  0  0  0  0  0  0  0  0  0  # atno 17343 bound_to 10162
  157.2361  131.0515  151.2464 LP  0  0  0  0  0  0  0  0  0  0  0  0  # atno 17370 bound_to 10713
  157.3665  130.7159  149.6536 LP  0  0  0  0  0  0  0  0  0  0  0  0  # atno 17371 bound_to 10713
  140.8142  133.8405  155.8837 LP  0  0  0  0  0  0  0  0  0  0  0  0  # atno 17394 bound_to 11000
  140.9478  134.1818  157.4750 LP  0  0  0  0  0  0  0  0  0  0  0  0  # atno 17395 bound_to 11000

$$$$
