AV-unprocessed.smi:1715|AV-procd|sdf|6913|dock1
  -GOLD-   22720 8113D 1   1.00000     0.00000
 Structure written by MMmdl.
 41 42  0  0  0  0  0  0  0  0  2 V2000
  150.2091  141.4785  155.6540 C   0  0  0  0  0  0  0  0  0  0  0  0
  149.2045  141.2300  154.5237 C   0  0  1  0  0  0  0  0  0  0  0  0
  148.8033  139.7468  154.4165 C   0  0  0  0  0  0  0  0  0  0  0  0
  147.7773  139.5587  153.3634 N   0  3  1  0  0  0  0  0  0  0  0  0
  147.4075  138.1322  153.1865 C   0  0  0  0  0  0  0  0  0  0  0  0
  146.2333  137.9421  152.2064 C   0  0  0  0  0  0  0  0  0  0  0  0
  146.2559  136.6187  151.5935 N   0  0  0  0  0  0  0  0  0  0  0  0
  145.1775  135.8470  151.3960 C   0  0  0  0  0  0  0  0  0  0  0  0
  144.0378  136.1786  151.7233 O   0  0  0  0  0  0  0  0  0  0  0  0
  145.5063  134.6862  150.8058 N   0  0  0  0  0  0  0  0  0  0  0  0
  144.6356  133.6243  150.4522 C   0  0  0  0  0  0  0  0  0  0  0  0
  145.0370  132.4380  149.7801 C   0  0  0  0  0  0  0  0  0  0  0  0
  144.0110  131.6225  149.5835 N   0  0  0  0  0  0  0  0  0  0  0  0
  142.9585  132.2764  150.1243 N   0  0  0  0  0  0  0  0  0  0  0  0
  143.2911  133.4992  150.6640 C   0  0  0  0  0  0  0  0  0  0  0  0
  146.6156  140.4472  153.6138 C   0  0  0  0  0  0  0  0  0  0  0  0
  147.0744  141.9123  153.7456 C   0  0  1  0  0  0  0  0  0  0  0  0
  145.9146  142.8537  154.0873 C   0  0  0  0  0  0  0  0  0  0  0  0
  148.0410  142.0064  154.7859 O   0  0  0  0  0  0  0  0  0  0  0  0
  142.0297  131.8791  150.1177 H   0  0  0  0  0  0  0  0  0  0  0  0
  151.1276  140.9131  155.4952 H   0  0  0  0  0  0  0  0  0  0  0  0
  149.7981  141.1854  156.6204 H   0  0  0  0  0  0  0  0  0  0  0  0
  150.4757  142.5340  155.7126 H   0  0  0  0  0  0  0  0  0  0  0  0
  149.6519  141.5595  153.5842 H   0  0  0  0  0  0  0  0  0  0  0  0
  149.6834  139.1452  154.1857 H   0  0  0  0  0  0  0  0  0  0  0  0
  148.4123  139.3908  155.3715 H   0  0  0  0  0  0  0  0  0  0  0  0
  148.2674  137.5880  152.7928 H   0  0  0  0  0  0  0  0  0  0  0  0
  147.1841  137.6914  154.1595 H   0  0  0  0  0  0  0  0  0  0  0  0
  145.2717  138.0869  152.6999 H   0  0  0  0  0  0  0  0  0  0  0  0
  146.2891  138.6851  151.4104 H   0  0  0  0  0  0  0  0  0  0  0  0
  147.1540  136.2687  151.2927 H   0  0  0  0  0  0  0  0  0  0  0  0
  146.4815  134.5451  150.5860 H   0  0  0  0  0  0  0  0  0  0  0  0
  146.0183  132.1472  149.4354 H   0  0  0  0  0  0  0  0  0  0  0  0
  142.5610  134.1418  151.1330 H   0  0  0  0  0  0  0  0  0  0  0  0
  145.8953  140.3696  152.8001 H   0  0  0  0  0  0  0  0  0  0  0  0
  146.1037  140.1296  154.5239 H   0  0  0  0  0  0  0  0  0  0  0  0
  147.5238  142.2428  152.8073 H   0  0  0  0  0  0  0  0  0  0  0  0
  145.1483  142.8309  153.3122 H   0  0  0  0  0  0  0  0  0  0  0  0
  146.2628  143.8827  154.1795 H   0  0  0  0  0  0  0  0  0  0  0  0
  145.4450  142.5757  155.0314 H   0  0  0  0  0  0  0  0  0  0  0  0
  148.2013  139.8594  152.4973 H   0  0  0  0  0  0  0  0  0  0  0  0
  1  2  1  0  0  0  0
  1 21  1  0  0  0  0
  1 22  1  0  0  0  0
  1 23  1  0  0  0  0
  2 19  1  0  0  0  0
  2  3  1  0  0  0  0
  2 24  1  0  0  0  0
  3  4  1  0  0  0  0
  3 25  1  0  0  0  0
  3 26  1  0  0  0  0
  4  5  1  0  0  0  0
  4 16  1  0  0  0  0
  4 41  1  0  0  0  0
  5  6  1  0  0  0  0
  5 27  1  0  0  0  0
  5 28  1  0  0  0  0
  6  7  1  0  0  0  0
  6 29  1  0  0  0  0
  6 30  1  0  0  0  0
  7  8  1  0  0  0  0
  7 31  1  0  0  0  0
  8  9  2  0  0  0  0
  8 10  1  0  0  0  0
 10 11  1  0  0  0  0
 10 32  1  0  0  0  0
 11 15  2  0  0  0  0
 11 12  1  0  0  0  0
 12 13  2  0  0  0  0
 12 33  1  0  0  0  0
 13 14  1  0  0  0  0
 14 20  1  0  0  0  0
 14 15  1  0  0  0  0
 15 34  1  0  0  0  0
 16 17  1  0  0  0  0
 16 35  1  0  0  0  0
 16 36  1  0  0  0  0
 17 18  1  0  0  0  0
 17 19  1  0  0  0  0
 17 37  1  0  0  0  0
 18 38  1  0  0  0  0
 18 39  1  0  0  0  0
 18 40  1  0  0  0  0
M  CHG  1   4   1
M  END
> <s_m_source_file>
AV-unprocessed.smi

> <i_m_source_file_index>
1715

> <i_lp_mmshare_version>
43012

> <i_f3d_flags>
0

> <s_epik_input>
W0NIM11bQ0BASF0xW0NIMl1OKFtDSDJdW0NASF0oTzEpW0NIM10pW0NIMl1bQ0gyXVtOSF1DKD1PKVtOSF1jMltjSF1uW25IXVtjSF0y

> <s_epik_cmdline>
J2VwaWtfcHl0aG9uJywgJy1waCcsICc3LjAnLCAnLXRuJywgJzgnLCAnLW1hJywgJzIwMCcsICctbWV0YWxfYmluZGluZycsICctaW1hZScsICc8aW5maWxlLm1hZT4nLCAnLW9tYWUnLCAnPG91dGZpbGUubWFlPic=

> <r_lp_tautomer_probability>
0.5

> <r_epik_Ionization_Penalty>
0.646007

> <r_epik_Ionization_Penalty_Charging>
0.645968

> <r_epik_Ionization_Penalty_Neutral>
3.91671e-05

> <r_epik_State_Penalty>
0.664063

> <r_epik_Charging_Adjusted_Penalty>
1.31003

> <i_epik_Tot_Q>
1

> <i_epik_Tot_abs_Q>
1

> <r_epik_Metal_State_Penalty>
0.664064

> <b_epik_Metal_Only>
0

> <s_lp_Force_Field>
OPLS_2005

> <r_lp_Energy>
16.9027

> <b_lp_Chiralities_Consistent>
1

> <s_lp_Variant>
AV-unprocessed.smi:1715-5

> <Gold.Version>
5.8.1

> <Gold.Id.Protein>
6NUR|6NUR_protein|mol2

> <Gold.PLP.Fitness>
42.6452

> <Gold.PLP.PLP>
-31.2994

> <Gold.PLP.part.hbond>
-5.3985

> <Gold.PLP.part.metal>
0.0000

> <Gold.PLP.part.buried>
0.1910

> <Gold.PLP.part.nonpolar>
-29.4229

> <Gold.PLP.part.repulsive>
2.0851

> <Gold.PLP.ligand.clash>
0.0000

> <Gold.PLP.ligand.torsion>
0.3134

> <Gold.PLP.Chemscore.Hbond>
3.4960

> <Gold.PLP.Chemscore.CHOScore>
0.4841

> <Gold.PLP.Chemscore.Metal>
0.0000

> <Gold.Chemscore.Hbonds>
donor molecule, donor type, donor heavy atom, donor atom, acceptor molecule, acceptor atom, score
      L1  H     4    41       P1  7957  1.00
      L1  H     7    31       P1  7948  0.83
      L1  H    14    20       P1 10952  0.98
      P1  H 10785 10796       L1    13  0.70
      L1  C    15    34       P1 10186  0.49

> <Gold.PLP.Chemscore.Internal.Correction>
0.0322

> <Gold.Rescore>
     Score         DG    S(hbond)    S(metal)    S(lipo)     H(rot)  DE(clash)    DE(int)     intcor
     16.19     -20.96       3.10        0.00      80.15       1.67       3.32       1.46       ----

> <Gold.Chemscore.Fitness>
16.1872

> <Gold.Chemscore.DG>
-20.9598

> <Gold.Chemscore.ZeroCoef>
-5.4800

> <Gold.Chemscore.Hbond>
3.1046

> <Gold.Chemscore.Metal>
0.0000

> <Gold.Chemscore.Lipo>
80.1540

> <Gold.Chemscore.Internal_Hbond>
0.0000

> <Gold.Chemscore.DEClash>
3.3162

> <Gold.Chemscore.DEInternal>
1.4563

> <Gold.Chemscore.Rot>
1.6671

> <Gold.Chemscore.Internal.Correction>
   9.000000E+99

> <Gold.Chemscore.Hbonds>
donor molecule, donor type, donor heavy atom, donor atom, acceptor molecule, acceptor atom, score
      L1  H     4    41       P1  7957  0.99
      L1  H     7    31       P1  7948  0.83
      L1  H    14    20       P1 10952  0.72
      P1  H 10785 10796       L1    13  0.31

> <Gold.Chemscore.Hbond.Weighted>
-10.3695

> <Gold.Chemscore.Metal.Weighted>
-0.0000

> <Gold.Chemscore.Lipo.Weighted>
-9.3780

> <Gold.Chemscore.Internal_Hbond.Weighted>
0.0000

> <Gold.Chemscore.DEClash.Weighted>
3.3162

> <Gold.Chemscore.DEInternal.Weighted>
1.4563

> <Gold.Chemscore.Rot.Weighted>
4.2677

> <Gold.Chemscore.Internal.Correction.Weighted>
   9.000000E+99

> <Gold.Protein.RotatedTorsions>
[ 6907 6896 6895 6894 ] final   26.93 input  -60.11 | X-H torsion
[ 7974 7965 7964 7962 ] final    2.65 input  175.53 | X-H torsion
[ 8008 7997 7996 7995 ] final  -77.84 input   59.86 | X-H torsion
[ 10167 10162 10161 10158 ] final -156.68 input  -65.29 | X-H torsion
[ 10718 10713 10712 10709 ] final   48.78 input   66.30 | X-H torsion
[ 10763 10752 10751 10750 ] final   91.16 input  -60.55 | X-H torsion
[ 11005 11000 10999 10996 ] final -131.56 input  -57.11 | X-H torsion

> <Gold.Protein.ActiveResidues>
 VAL166  LYS551  ARG553  GLY616  TRP617  ASP618  TYR619  PRO620  LYS621  CYS622 
 ASP623  PHE694  ASN695  SER759  ASP760  ASP761  ALA762  ILE779  LEU786  VAL792 
 PHE793  MET794  SER795  GLU796  ALA797  LYS798  CYS799  TRP800  GLU811  SER814 

> <Gold.Protein.RotatedAtoms>
  151.9948  134.9960  160.0562 H   0  0  0  0  0  0  0  0  0  0  0  0  # atno 6907 bound_to 6896
  152.1575  133.4556  159.4852 H   0  0  0  0  0  0  0  0  0  0  0  0  # atno 6908 bound_to 6896
  150.6883  134.2031  159.4373 H   0  0  0  0  0  0  0  0  0  0  0  0  # atno 6909 bound_to 6896
  146.2444  140.0804  142.8357 H   0  0  0  0  0  0  0  0  0  0  0  0  # atno 7974 bound_to 7965
  154.5633  140.0704  156.8853 H   0  0  0  0  0  0  0  0  0  0  0  0  # atno 8008 bound_to 7997
  155.2769  140.3369  155.4243 H   0  0  0  0  0  0  0  0  0  0  0  0  # atno 8009 bound_to 7997
  156.2060  140.1740  156.7783 H   0  0  0  0  0  0  0  0  0  0  0  0  # atno 8010 bound_to 7997
  139.6831  143.9547  152.2347 H   0  0  0  0  0  0  0  0  0  0  0  0  # atno 10167 bound_to 10162
  157.4721  130.8262  149.7999 H   0  0  0  0  0  0  0  0  0  0  0  0  # atno 10718 bound_to 10713
  153.2052  135.4408  155.0315 H   0  0  0  0  0  0  0  0  0  0  0  0  # atno 10763 bound_to 10752
  154.8170  135.3319  154.7151 H   0  0  0  0  0  0  0  0  0  0  0  0  # atno 10764 bound_to 10752
  153.7593  135.6992  153.4984 H   0  0  0  0  0  0  0  0  0  0  0  0  # atno 10765 bound_to 10752
  140.9248  134.1397  157.4284 H   0  0  0  0  0  0  0  0  0  0  0  0  # atno 11005 bound_to 11000
  145.0738  140.9174  143.4866 LP  0  0  0  0  0  0  0  0  0  0  0  0  # atno 17320 bound_to 7965
  145.0943  139.2868  143.5719 LP  0  0  0  0  0  0  0  0  0  0  0  0  # atno 17321 bound_to 7965
  139.9343  144.6722  150.8331 LP  0  0  0  0  0  0  0  0  0  0  0  0  # atno 17342 bound_to 10162
  140.7659  143.3287  151.2457 LP  0  0  0  0  0  0  0  0  0  0  0  0  # atno 17343 bound_to 10162
  156.0078  130.3847  150.2369 LP  0  0  0  0  0  0  0  0  0  0  0  0  # atno 17370 bound_to 10713
  157.0551  131.0074  151.3241 LP  0  0  0  0  0  0  0  0  0  0  0  0  # atno 17371 bound_to 10713
  139.8783  134.9984  156.5899 LP  0  0  0  0  0  0  0  0  0  0  0  0  # atno 17394 bound_to 11000
  140.7940  133.8559  155.8670 LP  0  0  0  0  0  0  0  0  0  0  0  0  # atno 17395 bound_to 11000

$$$$
