AV-unprocessed.smi:454|AV-procd|sdf|2613|dock4
  -GOLD-   2262023 13D 1   1.00000     0.00000
 Structure written by MMmdl.
 44 45  0  0  0  0  0  0  0  0  2 V2000
  153.4107  143.1305  163.4032 C   0  0  0  0  0  0  0  0  0  0  0  0
  152.8415  143.0251  162.1107 O   0  0  0  0  0  0  0  0  0  0  0  0
  153.4695  142.0333  161.3150 C   0  0  0  0  0  0  0  0  0  0  0  0
  152.8255  141.9914  159.9205 C   0  0  0  0  0  0  0  0  0  0  0  0
  153.1387  140.7637  159.1975 N   0  0  0  0  0  0  0  0  0  0  0  0
  152.1405  139.8210  158.9113 C   0  0  0  0  0  0  0  0  0  0  0  0
  150.9928  140.2477  158.2076 C   0  0  0  0  0  0  0  0  0  0  0  0
  149.9932  139.3047  157.8978 C   0  0  0  0  0  0  0  0  0  0  0  0
  150.1841  137.9723  158.3099 C   0  0  0  0  0  0  0  0  0  0  0  0
  148.9917  136.7064  157.9058 S   0  0  0  0  0  0  0  0  0  0  0  0
  149.6185  135.4050  158.1832 O   0  0  0  0  0  0  0  0  0  0  0  0
  147.6927  137.0457  158.5071 O   0  0  0  0  0  0  0  0  0  0  0  0
  148.8484  136.8718  156.1824 N   0  0  0  0  0  0  0  0  0  0  0  0
  150.0724  136.7683  155.3694 C   0  0  0  0  0  0  0  0  0  0  0  0
  150.3696  135.2945  155.0426 C   0  0  0  0  0  0  0  0  0  0  0  0
  149.2222  134.6813  154.3318 N   0  3  0  0  0  0  0  0  0  0  0  0
  149.5003  133.2983  153.8896 C   0  0  0  0  0  0  0  0  0  0  0  0
  147.9879  134.7810  155.1468 C   0  0  0  0  0  0  0  0  0  0  0  0
  147.6894  136.2480  155.5166 C   0  0  0  0  0  0  0  0  0  0  0  0
  151.3526  137.6364  159.0196 C   0  0  0  0  0  0  0  0  0  0  0  0
  152.3102  138.5392  159.3179 N   0  0  0  0  0  0  0  0  0  0  0  0
  152.8927  143.9050  163.9684 H   0  0  0  0  0  0  0  0  0  0  0  0
  154.4658  143.4020  163.3487 H   0  0  0  0  0  0  0  0  0  0  0  0
  153.3170  142.1929  163.9529 H   0  0  0  0  0  0  0  0  0  0  0  0
  154.5268  142.2816  161.2127 H   0  0  0  0  0  0  0  0  0  0  0  0
  153.4123  141.0543  161.7944 H   0  0  0  0  0  0  0  0  0  0  0  0
  151.7496  142.1582  159.9809 H   0  0  0  0  0  0  0  0  0  0  0  0
  153.2231  142.8145  159.3268 H   0  0  0  0  0  0  0  0  0  0  0  0
  154.0998  140.4549  159.1972 H   0  0  0  0  0  0  0  0  0  0  0  0
  150.8819  141.2774  157.9002 H   0  0  0  0  0  0  0  0  0  0  0  0
  149.1115  139.6016  157.3500 H   0  0  0  0  0  0  0  0  0  0  0  0
  149.9338  137.3348  154.4474 H   0  0  0  0  0  0  0  0  0  0  0  0
  150.9134  137.2273  155.8886 H   0  0  0  0  0  0  0  0  0  0  0  0
  151.2601  135.2339  154.4160 H   0  0  0  0  0  0  0  0  0  0  0  0
  150.5845  134.7368  155.9558 H   0  0  0  0  0  0  0  0  0  0  0  0
  149.6884  132.6445  154.7424 H   0  0  0  0  0  0  0  0  0  0  0  0
  150.3745  133.2716  153.2382 H   0  0  0  0  0  0  0  0  0  0  0  0
  148.6554  132.8960  153.3295 H   0  0  0  0  0  0  0  0  0  0  0  0
  147.1482  134.3727  154.5833 H   0  0  0  0  0  0  0  0  0  0  0  0
  148.0884  134.1673  156.0425 H   0  0  0  0  0  0  0  0  0  0  0  0
  146.8116  136.3093  156.1603 H   0  0  0  0  0  0  0  0  0  0  0  0
  147.4538  136.8175  154.6166 H   0  0  0  0  0  0  0  0  0  0  0  0
  151.5298  136.6220  159.3453 H   0  0  0  0  0  0  0  0  0  0  0  0
  149.0673  135.2294  153.4975 H   0  0  0  0  0  0  0  0  0  0  0  0
  1  2  1  0  0  0  0
  1 22  1  0  0  0  0
  1 23  1  0  0  0  0
  1 24  1  0  0  0  0
  2  3  1  0  0  0  0
  3  4  1  0  0  0  0
  3 25  1  0  0  0  0
  3 26  1  0  0  0  0
  4  5  1  0  0  0  0
  4 27  1  0  0  0  0
  4 28  1  0  0  0  0
  5  6  1  0  0  0  0
  5 29  1  0  0  0  0
  6 21  1  0  0  0  0
  6  7  2  0  0  0  0
  7  8  1  0  0  0  0
  7 30  1  0  0  0  0
  8  9  2  0  0  0  0
  8 31  1  0  0  0  0
  9 10  1  0  0  0  0
  9 20  1  0  0  0  0
 10 11  2  0  0  0  0
 10 12  2  0  0  0  0
 10 13  1  0  0  0  0
 13 19  1  0  0  0  0
 13 14  1  0  0  0  0
 14 15  1  0  0  0  0
 14 32  1  0  0  0  0
 14 33  1  0  0  0  0
 15 16  1  0  0  0  0
 15 34  1  0  0  0  0
 15 35  1  0  0  0  0
 16 17  1  0  0  0  0
 16 18  1  0  0  0  0
 16 44  1  0  0  0  0
 17 36  1  0  0  0  0
 17 37  1  0  0  0  0
 17 38  1  0  0  0  0
 18 19  1  0  0  0  0
 18 39  1  0  0  0  0
 18 40  1  0  0  0  0
 19 41  1  0  0  0  0
 19 42  1  0  0  0  0
 20 21  2  0  0  0  0
 20 43  1  0  0  0  0
M  CHG  1  16   1
M  END
> <s_m_source_file>
AV-unprocessed.smi

> <i_m_source_file_index>
454

> <i_lp_mmshare_version>
43012

> <i_f3d_flags>
0

> <s_epik_input>
W0NIM11PW0NIMl1bQ0gyXVtOSF1jMVtjSF1bY0hdYyhbY0hdbjEpUyg9TykoPU8pTjJbQ0gyXVtDSDJdTihbQ0gzXSlbQ0gyXVtDSDJdMg==

> <s_epik_cmdline>
J2VwaWtfcHl0aG9uJywgJy1waCcsICc3LjAnLCAnLXRuJywgJzgnLCAnLW1hJywgJzIwMCcsICctbWV0YWxfYmluZGluZycsICctaW1hZScsICc8aW5maWxlLm1hZT4nLCAnLW9tYWUnLCAnPG91dGZpbGUubWFlPic=

> <r_lp_tautomer_probability>
1

> <r_epik_Ionization_Penalty>
1.23801

> <r_epik_Ionization_Penalty_Charging>
1.23786

> <r_epik_Ionization_Penalty_Neutral>
0.00015121

> <r_epik_State_Penalty>
1.30655

> <r_epik_Charging_Adjusted_Penalty>
2.54442

> <i_epik_Tot_Q>
1

> <i_epik_Tot_abs_Q>
1

> <r_epik_Metal_State_Penalty>
1.30672

> <b_epik_Metal_Only>
0

> <s_lp_Force_Field>
OPLS_2005

> <r_lp_Energy>
1.84277

> <b_lp_Chiralities_Consistent>
1

> <s_lp_Variant>
AV-unprocessed.smi:454-2

> <Gold.Version>
5.8.1

> <Gold.Id.Protein>
6NUR|6NUR_protein|mol2

> <Gold.PLP.Fitness>
39.4253

> <Gold.PLP.PLP>
-31.8816

> <Gold.PLP.part.hbond>
-2.0000

> <Gold.PLP.part.metal>
0.0000

> <Gold.PLP.part.buried>
-6.5301

> <Gold.PLP.part.nonpolar>
-23.1346

> <Gold.PLP.part.repulsive>
0.2551

> <Gold.PLP.ligand.clash>
0.0000

> <Gold.PLP.ligand.torsion>
2.0781

> <Gold.PLP.Chemscore.Hbond>
3.0000

> <Gold.PLP.Chemscore.CHOScore>
0.0000

> <Gold.PLP.Chemscore.Metal>
0.0000

> <Gold.Chemscore.Hbonds>
donor molecule, donor type, donor heavy atom, donor atom, acceptor molecule, acceptor atom, score
      L1  H    16    44       P1  7948  2.00
      P1  H  6896  6909       L1    11  1.00

> <Gold.PLP.Chemscore.Internal.Correction>
2.6998

> <Gold.Rescore>
     Score         DG    S(hbond)    S(metal)    S(lipo)     H(rot)  DE(clash)    DE(int)     intcor
     13.23     -15.37       1.90        0.00      66.52       1.65       0.00       2.14       ----

> <Gold.Chemscore.Fitness>
13.2328

> <Gold.Chemscore.DG>
-15.3721

> <Gold.Chemscore.ZeroCoef>
-5.4800

> <Gold.Chemscore.Hbond>
1.8955

> <Gold.Chemscore.Metal>
0.0000

> <Gold.Chemscore.Lipo>
66.5213

> <Gold.Chemscore.Internal_Hbond>
0.0000

> <Gold.Chemscore.DEClash>
0.0000

> <Gold.Chemscore.DEInternal>
2.1394

> <Gold.Chemscore.Rot>
1.6491

> <Gold.Chemscore.Internal.Correction>
   9.000000E+99

> <Gold.Chemscore.Hbonds>
donor molecule, donor type, donor heavy atom, donor atom, acceptor molecule, acceptor atom, score
      L1  H    16    44       P1  7948  0.45
      P1  H  6896  6909       L1    11  0.96

> <Gold.Chemscore.Hbond.Weighted>
-6.3309

> <Gold.Chemscore.Metal.Weighted>
-0.0000

> <Gold.Chemscore.Lipo.Weighted>
-7.7830

> <Gold.Chemscore.Internal_Hbond.Weighted>
0.0000

> <Gold.Chemscore.DEClash.Weighted>
0.0000

> <Gold.Chemscore.DEInternal.Weighted>
2.1394

> <Gold.Chemscore.Rot.Weighted>
4.2218

> <Gold.Chemscore.Internal.Correction.Weighted>
   9.000000E+99

> <Gold.Protein.RotatedTorsions>
[ 6907 6896 6895 6894 ] final   36.67 input  -60.11 | X-H torsion
[ 7974 7965 7964 7962 ] final  136.22 input  175.53 | X-H torsion
[ 8008 7997 7996 7995 ] final -115.06 input   59.86 | X-H torsion
[ 10167 10162 10161 10158 ] final  133.31 input  -65.29 | X-H torsion
[ 10718 10713 10712 10709 ] final  150.72 input   66.30 | X-H torsion
[ 10763 10752 10751 10750 ] final   17.91 input  -60.55 | X-H torsion
[ 11005 11000 10999 10996 ] final   -1.84 input  -57.11 | X-H torsion

> <Gold.Protein.ActiveResidues>
 VAL166  LYS551  ARG553  GLY616  TRP617  ASP618  TYR619  PRO620  LYS621  CYS622 
 ASP623  PHE694  ASN695  SER759  ASP760  ASP761  ALA762  ILE779  LEU786  VAL792 
 PHE793  MET794  SER795  GLU796  ALA797  LYS798  CYS799  TRP800  GLU811  SER814 

> <Gold.Protein.RotatedAtoms>
  152.1329  134.9121  160.0557 H   0  0  0  0  0  0  0  0  0  0  0  0  # atno 6907 bound_to 6896
  152.0219  133.3897  159.4270 H   0  0  0  0  0  0  0  0  0  0  0  0  # atno 6908 bound_to 6896
  150.6858  134.3538  159.4964 H   0  0  0  0  0  0  0  0  0  0  0  0  # atno 6909 bound_to 6896
  144.9586  139.4736  143.5490 H   0  0  0  0  0  0  0  0  0  0  0  0  # atno 7974 bound_to 7965
  155.0461  140.0392  157.2527 H   0  0  0  0  0  0  0  0  0  0  0  0  # atno 8008 bound_to 7997
  154.7176  140.2705  155.6547 H   0  0  0  0  0  0  0  0  0  0  0  0  # atno 8009 bound_to 7997
  156.2807  140.2709  156.1837 H   0  0  0  0  0  0  0  0  0  0  0  0  # atno 8010 bound_to 7997
  139.5302  144.6621  151.4978 H   0  0  0  0  0  0  0  0  0  0  0  0  # atno 10167 bound_to 10162
  157.2799  131.0833  151.1539 H   0  0  0  0  0  0  0  0  0  0  0  0  # atno 10718 bound_to 10713
  153.1296  135.6737  153.9200 H   0  0  0  0  0  0  0  0  0  0  0  0  # atno 10763 bound_to 10752
  153.8690  135.3072  155.3442 H   0  0  0  0  0  0  0  0  0  0  0  0  # atno 10764 bound_to 10752
  154.7696  135.4946  153.9703 H   0  0  0  0  0  0  0  0  0  0  0  0  # atno 10765 bound_to 10752
  140.6517  133.9398  155.8384 H   0  0  0  0  0  0  0  0  0  0  0  0  # atno 11005 bound_to 11000
  146.3345  139.8721  142.8838 LP  0  0  0  0  0  0  0  0  0  0  0  0  # atno 17320 bound_to 7965
  145.2734  141.0116  143.3759 LP  0  0  0  0  0  0  0  0  0  0  0  0  # atno 17321 bound_to 7965
  140.6475  143.8765  150.6752 LP  0  0  0  0  0  0  0  0  0  0  0  0  # atno 17342 bound_to 10162
  140.2119  143.3877  152.1712 LP  0  0  0  0  0  0  0  0  0  0  0  0  # atno 17343 bound_to 10162
  157.2977  130.6827  149.6147 LP  0  0  0  0  0  0  0  0  0  0  0  0  # atno 17370 bound_to 10713
  155.9664  130.4401  150.5287 LP  0  0  0  0  0  0  0  0  0  0  0  0  # atno 17371 bound_to 10713
  141.0531  134.0455  157.3757 LP  0  0  0  0  0  0  0  0  0  0  0  0  # atno 17394 bound_to 11000
  139.9043  135.0175  156.7415 LP  0  0  0  0  0  0  0  0  0  0  0  0  # atno 17395 bound_to 11000

$$$$
