AV-unprocessed.smi:220|AV-procd|sdf|1684|dock10
  -GOLD-   2262020123D 1   1.00000     0.00000
 Structure written by MMmdl.
 51 55  0  0  0  0  0  0  0  0  1 V2000
  146.0973  137.0108  150.8155 N   0  0  0  0  0  0  0  0  0  0  0  0
  145.4123  135.9906  151.3375 C   0  0  0  0  0  0  0  0  0  0  0  0
  144.1825  135.9634  151.3402 O   0  0  0  0  0  0  0  0  0  0  0  0
  146.2397  134.8365  151.9353 C   0  0  2  0  0  0  0  0  0  0  0  0
  145.9767  133.4776  151.2431 C   0  0  2  0  0  0  0  0  0  0  0  0
  144.5505  133.1693  150.7548 C   0  0  0  0  0  0  0  0  0  0  0  0
  144.4675  131.6427  150.7840 C   0  0  0  0  0  0  0  0  0  0  0  0
  145.3462  131.2064  151.9642 C   0  0  0  0  0  0  0  0  0  0  0  0
  146.2010  132.4316  152.3324 C   0  0  2  0  0  0  0  0  0  0  0  0
  145.7614  133.1550  153.6116 C   0  0  0  0  0  0  0  0  0  0  0  0
  145.9668  134.5744  153.3496 N   0  0  0  0  0  0  0  0  0  0  0  0
  146.2289  135.4354  154.3709 C   0  0  0  0  0  0  0  0  0  0  0  0
  146.1266  134.9510  155.6367 N   0  0  0  0  0  0  0  0  0  0  0  0
  146.3534  135.7395  156.6897 C   0  0  0  0  0  0  0  0  0  0  0  0
  146.6961  137.0271  156.7065 N   0  0  0  0  0  0  0  0  0  0  0  0
  146.8129  137.5247  155.4429 C   0  0  0  0  0  0  0  0  0  0  0  0
  146.5981  136.8082  154.2287 C   0  0  0  0  0  0  0  0  0  0  0  0
  146.8190  137.6580  153.1498 N   0  0  0  0  0  0  0  0  0  0  0  0
  147.1295  138.8030  153.6906 C   0  0  0  0  0  0  0  0  0  0  0  0
  147.1661  138.8099  155.0655 N   0  0  0  0  0  0  0  0  0  0  0  0
  147.4856  139.9406  155.9262 C   0  0  0  0  0  0  0  0  0  0  0  0
  148.8994  140.5235  155.7121 C   0  0  0  0  0  0  0  0  0  0  0  0
  149.2743  141.4738  156.8621 C   0  0  0  0  0  0  0  0  0  0  0  0
  148.3828  142.5679  156.9303 O   0  0  0  0  0  0  0  0  0  0  0  0
  149.9847  139.5045  155.3332 C   0  0  0  0  0  0  0  0  0  0  0  0
  150.0481  139.9718  153.9698 O   0  0  0  0  0  0  0  0  0  0  0  0
  149.1677  141.0657  154.3016 C   0  0  0  0  0  0  0  0  0  0  0  0
  145.6008  137.7910  150.4101 H   0  0  0  0  0  0  0  0  0  0  0  0
  147.1066  136.9990  150.8261 H   0  0  0  0  0  0  0  0  0  0  0  0
  147.3019  135.0632  151.8367 H   0  0  0  0  0  0  0  0  0  0  0  0
  146.6755  133.3209  150.4199 H   0  0  0  0  0  0  0  0  0  0  0  0
  143.8094  133.5801  151.4424 H   0  0  0  0  0  0  0  0  0  0  0  0
  144.3478  133.5782  149.7644 H   0  0  0  0  0  0  0  0  0  0  0  0
  143.4412  131.2857  150.8739 H   0  0  0  0  0  0  0  0  0  0  0  0
  144.8760  131.2393  149.8564 H   0  0  0  0  0  0  0  0  0  0  0  0
  144.7379  130.8794  152.8082 H   0  0  0  0  0  0  0  0  0  0  0  0
  145.9739  130.3623  151.6764 H   0  0  0  0  0  0  0  0  0  0  0  0
  147.2602  132.1789  152.3990 H   0  0  0  0  0  0  0  0  0  0  0  0
  144.7024  132.9976  153.8206 H   0  0  0  0  0  0  0  0  0  0  0  0
  146.3327  132.7993  154.4704 H   0  0  0  0  0  0  0  0  0  0  0  0
  146.2435  135.2716  157.6568 H   0  0  0  0  0  0  0  0  0  0  0  0
  147.3413  139.6765  153.0924 H   0  0  0  0  0  0  0  0  0  0  0  0
  146.7302  140.7084  155.7538 H   0  0  0  0  0  0  0  0  0  0  0  0
  147.3510  139.6321  156.9635 H   0  0  0  0  0  0  0  0  0  0  0  0
  149.2908  140.9614  157.8238 H   0  0  0  0  0  0  0  0  0  0  0  0
  150.2782  141.8744  156.7179 H   0  0  0  0  0  0  0  0  0  0  0  0
  148.7645  143.2973  156.4662 H   0  0  0  0  0  0  0  0  0  0  0  0
  150.9313  139.6494  155.8556 H   0  0  0  0  0  0  0  0  0  0  0  0
  149.6698  138.4634  155.3911 H   0  0  0  0  0  0  0  0  0  0  0  0
  148.2838  141.0956  153.6633 H   0  0  0  0  0  0  0  0  0  0  0  0
  149.6883  142.0244  154.2862 H   0  0  0  0  0  0  0  0  0  0  0  0
  1  2  1  0  0  0  0
  1 28  1  0  0  0  0
  1 29  1  0  0  0  0
  2  3  2  0  0  0  0
  2  4  1  0  0  0  0
  4 11  1  0  0  0  0
  4  5  1  0  0  0  0
  4 30  1  0  0  0  0
  5  9  1  0  0  0  0
  5  6  1  0  0  0  0
  5 31  1  0  0  0  0
  6  7  1  0  0  0  0
  6 32  1  0  0  0  0
  6 33  1  0  0  0  0
  7  8  1  0  0  0  0
  7 34  1  0  0  0  0
  7 35  1  0  0  0  0
  8  9  1  0  0  0  0
  8 36  1  0  0  0  0
  8 37  1  0  0  0  0
  9 10  1  0  0  0  0
  9 38  1  0  0  0  0
 10 11  1  0  0  0  0
 10 39  1  0  0  0  0
 10 40  1  0  0  0  0
 11 12  1  0  0  0  0
 12 17  1  0  0  0  0
 12 13  2  0  0  0  0
 13 14  1  0  0  0  0
 14 15  2  0  0  0  0
 14 41  1  0  0  0  0
 15 16  1  0  0  0  0
 16 20  1  0  0  0  0
 16 17  2  0  0  0  0
 17 18  1  0  0  0  0
 18 19  2  0  0  0  0
 19 20  1  0  0  0  0
 19 42  1  0  0  0  0
 20 21  1  0  0  0  0
 21 22  1  0  0  0  0
 21 43  1  0  0  0  0
 21 44  1  0  0  0  0
 22 27  1  0  0  0  0
 22 23  1  0  0  0  0
 22 25  1  0  0  0  0
 23 24  1  0  0  0  0
 23 45  1  0  0  0  0
 23 46  1  0  0  0  0
 24 47  1  0  0  0  0
 25 26  1  0  0  0  0
 25 48  1  0  0  0  0
 25 49  1  0  0  0  0
 26 27  1  0  0  0  0
 27 50  1  0  0  0  0
 27 51  1  0  0  0  0
M  END
> <s_m_source_file>
AV-unprocessed.smi

> <i_m_source_file_index>
220

> <i_lp_mmshare_version>
43012

> <i_f3d_flags>
0

> <s_epik_input>
W0NIMl0xW0NIMl1bQ0gyXVtDQEhdKFtDQEhdMTIpW0NIMl1OKFtDQEBIXTJDKD1PKVtOSDJdKWMobltjSF1uMyljKGMzNCluW2NIXW40W0NIMl1DNShbQ0gyXVtPSF0pW0NIMl1PW0NIMl01

> <s_epik_cmdline>
J2VwaWtfcHl0aG9uJywgJy1waCcsICc3LjAnLCAnLXRuJywgJzgnLCAnLW1hJywgJzIwMCcsICctbWV0YWxfYmluZGluZycsICctaW1hZScsICc8aW5maWxlLm1hZT4nLCAnLW9tYWUnLCAnPG91dGZpbGUubWFlPic=

> <r_lp_tautomer_probability>
1

> <r_epik_Ionization_Penalty>
0.00118987

> <r_epik_Ionization_Penalty_Charging>
0

> <r_epik_Ionization_Penalty_Neutral>
0.00118987

> <r_epik_State_Penalty>
0.000654261

> <r_epik_Charging_Adjusted_Penalty>
0.000654261

> <i_epik_Tot_Q>
0

> <i_epik_Tot_abs_Q>
0

> <r_epik_Metal_State_Penalty>
-0

> <b_epik_Metal_Only>
0

> <s_lp_Force_Field>
OPLS_2005

> <r_lp_Energy>
60.6153

> <b_lp_Chiralities_Consistent>
1

> <s_lp_Variant>
AV-unprocessed.smi:220-3

> <Gold.Version>
5.8.1

> <Gold.Id.Protein>
6NUR|6NUR_protein|mol2

> <Gold.PLP.Fitness>
39.6823

> <Gold.PLP.PLP>
-28.9079

> <Gold.PLP.part.hbond>
-3.9260

> <Gold.PLP.part.metal>
0.0000

> <Gold.PLP.part.buried>
-6.7314

> <Gold.PLP.part.nonpolar>
-21.7893

> <Gold.PLP.part.repulsive>
3.6388

> <Gold.PLP.ligand.clash>
0.0000

> <Gold.PLP.ligand.torsion>
0.3197

> <Gold.PLP.Chemscore.Hbond>
3.6653

> <Gold.PLP.Chemscore.CHOScore>
0.0000

> <Gold.PLP.Chemscore.Metal>
0.0000

> <Gold.Chemscore.Hbonds>
donor molecule, donor type, donor heavy atom, donor atom, acceptor molecule, acceptor atom, score
      L1  H     1    28       P1 10171  0.99
      L1  H     1    29       P1  7948  0.55
      L1  H    24    47       P1  8028  1.00
      P1  H  7989  7998       L1    26  0.91

> <Gold.PLP.Chemscore.Internal.Correction>
0.4179

> <Gold.Rescore>
     Score         DG    S(hbond)    S(metal)    S(lipo)     H(rot)  DE(clash)    DE(int)     intcor
      9.61     -15.68       3.07        0.00      62.79       2.89       1.37       4.70       ----

> <Gold.Chemscore.Fitness>
9.6081

> <Gold.Chemscore.DG>
-15.6815

> <Gold.Chemscore.ZeroCoef>
-5.4800

> <Gold.Chemscore.Hbond>
3.0674

> <Gold.Chemscore.Metal>
0.0000

> <Gold.Chemscore.Lipo>
62.7930

> <Gold.Chemscore.Internal_Hbond>
0.0000

> <Gold.Chemscore.DEClash>
1.3696

> <Gold.Chemscore.DEInternal>
4.7038

> <Gold.Chemscore.Rot>
2.8869

> <Gold.Chemscore.Internal.Correction>
   9.000000E+99

> <Gold.Chemscore.Hbonds>
donor molecule, donor type, donor heavy atom, donor atom, acceptor molecule, acceptor atom, score
      L1  H     1    28       P1 10171  0.91
      L1  H     1    29       P1  7948  0.53
      L1  H    24    47       P1  8028  0.90
      P1  H  7989  7998       L1    26  0.29

> <Gold.Chemscore.Hbond.Weighted>
-10.2453

> <Gold.Chemscore.Metal.Weighted>
-0.0000

> <Gold.Chemscore.Lipo.Weighted>
-7.3468

> <Gold.Chemscore.Internal_Hbond.Weighted>
0.0000

> <Gold.Chemscore.DEClash.Weighted>
1.3696

> <Gold.Chemscore.DEInternal.Weighted>
4.7038

> <Gold.Chemscore.Rot.Weighted>
7.3905

> <Gold.Chemscore.Internal.Correction.Weighted>
   9.000000E+99

> <Gold.Protein.RotatedTorsions>
[ 6907 6896 6895 6894 ] final   -7.44 input  -60.11 | X-H torsion
[ 7974 7965 7964 7962 ] final  -99.37 input  175.53 | X-H torsion
[ 8008 7997 7996 7995 ] final -140.82 input   59.86 | X-H torsion
[ 10167 10162 10161 10158 ] final  -62.93 input  -65.29 | X-H torsion
[ 10718 10713 10712 10709 ] final -104.84 input   66.30 | X-H torsion
[ 10763 10752 10751 10750 ] final -129.98 input  -60.55 | X-H torsion
[ 11005 11000 10999 10996 ] final -136.97 input  -57.11 | X-H torsion

> <Gold.Protein.ActiveResidues>
 VAL166  LYS551  ARG553  GLY616  TRP617  ASP618  TYR619  PRO620  LYS621  CYS622 
 ASP623  PHE694  ASN695  SER759  ASP760  ASP761  ALA762  ILE779  LEU786  VAL792 
 PHE793  MET794  SER795  GLU796  ALA797  LYS798  CYS799  TRP800  GLU811  SER814 

> <Gold.Protein.RotatedAtoms>
  151.4495  135.1028  159.9693 H   0  0  0  0  0  0  0  0  0  0  0  0  # atno 6907 bound_to 6896
  152.4893  133.8454  159.7184 H   0  0  0  0  0  0  0  0  0  0  0  0  # atno 6908 bound_to 6896
  150.9032  133.7032  159.2901 H   0  0  0  0  0  0  0  0  0  0  0  0  # atno 6909 bound_to 6896
  145.3085  140.9394  143.2783 H   0  0  0  0  0  0  0  0  0  0  0  0  # atno 7974 bound_to 7965
  155.4676  140.0550  157.2983 H   0  0  0  0  0  0  0  0  0  0  0  0  # atno 8008 bound_to 7997
  154.4711  140.2041  155.9946 H   0  0  0  0  0  0  0  0  0  0  0  0  # atno 8009 bound_to 7997
  156.1058  140.3212  155.8008 H   0  0  0  0  0  0  0  0  0  0  0  0  # atno 8010 bound_to 7997
  140.5905  143.2341  151.6149 H   0  0  0  0  0  0  0  0  0  0  0  0  # atno 10167 bound_to 10162
  156.0321  130.5535  150.7454 H   0  0  0  0  0  0  0  0  0  0  0  0  # atno 10718 bound_to 10713
  154.8756  135.3877  154.4008 H   0  0  0  0  0  0  0  0  0  0  0  0  # atno 10763 bound_to 10752
  153.4733  135.7030  153.5986 H   0  0  0  0  0  0  0  0  0  0  0  0  # atno 10764 bound_to 10752
  153.4433  135.3851  155.2209 H   0  0  0  0  0  0  0  0  0  0  0  0  # atno 10765 bound_to 10752
  140.8755  134.1997  157.4624 H   0  0  0  0  0  0  0  0  0  0  0  0  # atno 11005 bound_to 11000
  144.9035  139.4619  143.6621 LP  0  0  0  0  0  0  0  0  0  0  0  0  # atno 17320 bound_to 7965
  146.3126  139.7803  142.9008 LP  0  0  0  0  0  0  0  0  0  0  0  0  # atno 17321 bound_to 7965
  139.5224  144.3162  152.0950 LP  0  0  0  0  0  0  0  0  0  0  0  0  # atno 17342 bound_to 10162
  140.2326  144.4352  150.6293 LP  0  0  0  0  0  0  0  0  0  0  0  0  # atno 17343 bound_to 10162
  157.5012  131.0918  151.0312 LP  0  0  0  0  0  0  0  0  0  0  0  0  # atno 17370 bound_to 10713
  157.0692  130.5857  149.5399 LP  0  0  0  0  0  0  0  0  0  0  0  0  # atno 17371 bound_to 10713
  139.8715  134.9793  156.5033 LP  0  0  0  0  0  0  0  0  0  0  0  0  # atno 17394 bound_to 11000
  140.8523  133.8122  155.9181 LP  0  0  0  0  0  0  0  0  0  0  0  0  # atno 17395 bound_to 11000

$$$$
