AV-unprocessed.smi:1372|AV-procd|sdf|5583|dock8
  -GOLD-   22720 5183D 1   1.00000     0.00000
 Structure written by MMmdl.
 41 43  0  0  0  0  0  0  0  0  1 V2000
  150.1286  136.0296  157.1457 C   0  0  0  0  0  0  0  0  0  0  0  0
  151.8171  136.5314  157.6740 S   0  0  0  0  0  0  0  0  0  0  0  0
  151.7680  136.8691  159.1049 O   0  0  0  0  0  0  0  0  0  0  0  0
  152.7718  135.5184  157.1990 O   0  0  0  0  0  0  0  0  0  0  0  0
  152.0675  138.0839  156.7040 C   0  0  0  0  0  0  0  0  0  0  0  0
  152.2332  139.2670  157.6166 C   0  0  0  0  0  0  0  0  0  0  0  0
  153.3141  139.4117  158.3858 N   0  0  0  0  0  0  0  0  0  0  0  0
  153.0756  140.6052  159.0359 C   0  0  0  0  0  0  0  0  0  0  0  0
  153.8570  141.3103  159.9791 C   0  0  0  0  0  0  0  0  0  0  0  0
  153.3985  142.5316  160.5151 C   0  0  0  0  0  0  0  0  0  0  0  0
  152.1549  143.0634  160.1168 C   0  0  0  0  0  0  0  0  0  0  0  0
  151.3603  142.3751  159.1796 C   0  0  0  0  0  0  0  0  0  0  0  0
  151.8230  141.1564  158.6477 C   0  0  0  0  0  0  0  0  0  0  0  0
  151.2986  140.2482  157.7329 N   0  0  0  0  0  0  0  0  0  0  0  0
  150.0054  140.3750  157.0716 C   0  0  0  0  0  0  0  0  0  0  0  0
  150.1133  140.9764  155.6561 C   0  0  1  0  0  0  0  0  0  0  0  0
  150.8327  140.1039  154.8077 O   0  0  0  0  0  0  0  0  0  0  0  0
  148.7404  141.3152  155.0975 C   0  0  0  0  0  0  0  0  0  0  0  0
  147.8155  142.0314  155.8874 C   0  0  0  0  0  0  0  0  0  0  0  0
  146.5381  142.3398  155.3805 C   0  0  0  0  0  0  0  0  0  0  0  0
  146.1774  141.9320  154.0819 C   0  0  0  0  0  0  0  0  0  0  0  0
  147.0946  141.2145  153.2903 C   0  0  0  0  0  0  0  0  0  0  0  0
  148.3721  140.9055  153.7968 C   0  0  0  0  0  0  0  0  0  0  0  0
  149.8507  135.1061  157.6533 H   0  0  0  0  0  0  0  0  0  0  0  0
  150.1169  135.8672  156.0680 H   0  0  0  0  0  0  0  0  0  0  0  0
  149.4168  136.8132  157.4047 H   0  0  0  0  0  0  0  0  0  0  0  0
  152.9393  137.9340  156.0717 H   0  0  0  0  0  0  0  0  0  0  0  0
  151.2034  138.2364  156.0575 H   0  0  0  0  0  0  0  0  0  0  0  0
  154.8109  140.9105  160.2895 H   0  0  0  0  0  0  0  0  0  0  0  0
  154.0039  143.0627  161.2350 H   0  0  0  0  0  0  0  0  0  0  0  0
  151.8110  143.9995  160.5317 H   0  0  0  0  0  0  0  0  0  0  0  0
  150.4072  142.7800  158.8732 H   0  0  0  0  0  0  0  0  0  0  0  0
  149.4981  139.4111  157.0583 H   0  0  0  0  0  0  0  0  0  0  0  0
  149.3802  141.0203  157.6902 H   0  0  0  0  0  0  0  0  0  0  0  0
  150.6934  141.8985  155.7141 H   0  0  0  0  0  0  0  0  0  0  0  0
  150.3413  139.3018  154.7167 H   0  0  0  0  0  0  0  0  0  0  0  0
  148.0812  142.3456  156.8863 H   0  0  0  0  0  0  0  0  0  0  0  0
  145.8341  142.8885  155.9888 H   0  0  0  0  0  0  0  0  0  0  0  0
  145.1976  142.1682  153.6935 H   0  0  0  0  0  0  0  0  0  0  0  0
  146.8177  140.9003  152.2949 H   0  0  0  0  0  0  0  0  0  0  0  0
  149.0681  140.3510  153.1842 H   0  0  0  0  0  0  0  0  0  0  0  0
  1  2  1  0  0  0  0
  1 24  1  0  0  0  0
  1 25  1  0  0  0  0
  1 26  1  0  0  0  0
  2  3  2  0  0  0  0
  2  4  2  0  0  0  0
  2  5  1  0  0  0  0
  5  6  1  0  0  0  0
  5 27  1  0  0  0  0
  5 28  1  0  0  0  0
  6 14  1  0  0  0  0
  6  7  2  0  0  0  0
  7  8  1  0  0  0  0
  8 13  2  0  0  0  0
  8  9  1  0  0  0  0
  9 10  2  0  0  0  0
  9 29  1  0  0  0  0
 10 11  1  0  0  0  0
 10 30  1  0  0  0  0
 11 12  2  0  0  0  0
 11 31  1  0  0  0  0
 12 13  1  0  0  0  0
 12 32  1  0  0  0  0
 13 14  1  0  0  0  0
 14 15  1  0  0  0  0
 15 16  1  0  0  0  0
 15 33  1  0  0  0  0
 15 34  1  0  0  0  0
 16 17  1  0  0  0  0
 16 18  1  0  0  0  0
 16 35  1  0  0  0  0
 17 36  1  0  0  0  0
 18 23  1  0  0  0  0
 18 19  2  0  0  0  0
 19 20  1  0  0  0  0
 19 37  1  0  0  0  0
 20 21  2  0  0  0  0
 20 38  1  0  0  0  0
 21 22  1  0  0  0  0
 21 39  1  0  0  0  0
 22 23  2  0  0  0  0
 22 40  1  0  0  0  0
 23 41  1  0  0  0  0
M  END
> <s_m_source_file>
AV-unprocessed.smi

> <i_m_source_file_index>
1372

> <i_lp_mmshare_version>
43012

> <i_f3d_flags>
0

> <s_epik_input>
W2NIXTFbY0hdW2NIXVtjSF1jKGMxMiluKGMobjIpW0NIMl1TKD1PKSg9TylbQ0gzXSlbQ0gyXVtDQEhdKFtPSF0pYzNbY0hdW2NIXVtjSF1bY0hdW2NIXTM=

> <s_epik_cmdline>
J2VwaWtfcHl0aG9uJywgJy1waCcsICc3LjAnLCAnLXRuJywgJzgnLCAnLW1hJywgJzIwMCcsICctbWV0YWxfYmluZGluZycsICctaW1hZScsICc8aW5maWxlLm1hZT4nLCAnLW9tYWUnLCAnPG91dGZpbGUubWFlPic=

> <r_epik_Ionization_Penalty>
0.0151431

> <r_epik_Ionization_Penalty_Charging>
0

> <r_epik_Ionization_Penalty_Neutral>
0.0151431

> <r_epik_State_Penalty>
0.0118835

> <r_epik_Charging_Adjusted_Penalty>
0.0118835

> <i_epik_Tot_Q>
0

> <i_epik_Tot_abs_Q>
0

> <r_epik_Metal_State_Penalty>
1.20034e-05

> <b_epik_Metal_Only>
0

> <s_lp_Force_Field>
OPLS_2005

> <r_lp_Energy>
10.2865

> <b_lp_Chiralities_Consistent>
1

> <s_lp_Variant>
AV-unprocessed.smi:1372-2

> <Gold.Version>
5.8.1

> <Gold.Id.Protein>
6NUR|6NUR_protein|mol2

> <Gold.PLP.Fitness>
50.9776

> <Gold.PLP.PLP>
-40.1893

> <Gold.PLP.part.hbond>
-4.0000

> <Gold.PLP.part.metal>
0.0000

> <Gold.PLP.part.buried>
-2.6396

> <Gold.PLP.part.nonpolar>
-34.3414

> <Gold.PLP.part.repulsive>
0.0000

> <Gold.PLP.ligand.clash>
0.0000

> <Gold.PLP.ligand.torsion>
0.6614

> <Gold.PLP.Chemscore.Hbond>
3.9920

> <Gold.PLP.Chemscore.CHOScore>
0.0000

> <Gold.PLP.Chemscore.Metal>
0.0000

> <Gold.Chemscore.Hbonds>
donor molecule, donor type, donor heavy atom, donor atom, acceptor molecule, acceptor atom, score
      P1  H  6896  6908       L1     3  1.00
      P1  H  7989  7998       L1    17  1.00
      P1  H  7997  8008       L1     7  0.95
      P1  H 10752 10763       L1     4  0.84

> <Gold.PLP.Chemscore.Internal.Correction>
0.1351

> <Gold.Rescore>
     Score         DG    S(hbond)    S(metal)    S(lipo)     H(rot)  DE(clash)    DE(int)     intcor
     20.62     -21.54       2.84        0.00     107.23       2.33       0.01       0.91       ----

> <Gold.Chemscore.Fitness>
20.6245

> <Gold.Chemscore.DG>
-21.5439

> <Gold.Chemscore.ZeroCoef>
-5.4800

> <Gold.Chemscore.Hbond>
2.8395

> <Gold.Chemscore.Metal>
0.0000

> <Gold.Chemscore.Lipo>
107.2332

> <Gold.Chemscore.Internal_Hbond>
0.0000

> <Gold.Chemscore.DEClash>
0.0089

> <Gold.Chemscore.DEInternal>
0.9105

> <Gold.Chemscore.Rot>
2.3306

> <Gold.Chemscore.Internal.Correction>
   9.000000E+99

> <Gold.Chemscore.Hbonds>
donor molecule, donor type, donor heavy atom, donor atom, acceptor molecule, acceptor atom, score
      P1  H  6896  6908       L1     3  0.43
      P1  H  7989  7998       L1    17  0.90
      P1  H  7997  8008       L1     7  0.09
      P1  H 10752 10763       L1     4  0.77

> <Gold.Chemscore.Hbond.Weighted>
-9.4840

> <Gold.Chemscore.Metal.Weighted>
-0.0000

> <Gold.Chemscore.Lipo.Weighted>
-12.5463

> <Gold.Chemscore.Internal_Hbond.Weighted>
0.0000

> <Gold.Chemscore.DEClash.Weighted>
0.0089

> <Gold.Chemscore.DEInternal.Weighted>
0.9105

> <Gold.Chemscore.Rot.Weighted>
5.9664

> <Gold.Chemscore.Internal.Correction.Weighted>
   9.000000E+99

> <Gold.Protein.RotatedTorsions>
[ 6907 6896 6895 6894 ] final -122.69 input  -60.11 | X-H torsion
[ 7974 7965 7964 7962 ] final  150.05 input  175.53 | X-H torsion
[ 8008 7997 7996 7995 ] final  -94.08 input   59.86 | X-H torsion
[ 10167 10162 10161 10158 ] final  148.55 input  -65.29 | X-H torsion
[ 10718 10713 10712 10709 ] final -108.30 input   66.30 | X-H torsion
[ 10763 10752 10751 10750 ] final   96.88 input  -60.55 | X-H torsion
[ 11005 11000 10999 10996 ] final  -63.14 input  -57.11 | X-H torsion

> <Gold.Protein.ActiveResidues>
 VAL166  LYS551  ARG553  GLY616  TRP617  ASP618  TYR619  PRO620  LYS621  CYS622 
 ASP623  PHE694  ASN695  SER759  ASP760  ASP761  ALA762  ILE779  LEU786  VAL792 
 PHE793  MET794  SER795  GLU796  ALA797  LYS798  CYS799  TRP800  GLU811  SER814 

> <Gold.Protein.RotatedAtoms>
  150.8599  133.7659  159.2995 H   0  0  0  0  0  0  0  0  0  0  0  0  # atno 6907 bound_to 6896
  151.5304  135.1066  159.9910 H   0  0  0  0  0  0  0  0  0  0  0  0  # atno 6908 bound_to 6896
  152.4618  133.7795  159.6899 H   0  0  0  0  0  0  0  0  0  0  0  0  # atno 6909 bound_to 6896
  144.8393  139.6358  143.6024 H   0  0  0  0  0  0  0  0  0  0  0  0  # atno 7974 bound_to 7965
  154.7439  140.0492  157.0835 H   0  0  0  0  0  0  0  0  0  0  0  0  # atno 8008 bound_to 7997
  155.0144  140.3139  155.4798 H   0  0  0  0  0  0  0  0  0  0  0  0  # atno 8009 bound_to 7997
  156.2870  140.2178  156.5259 H   0  0  0  0  0  0  0  0  0  0  0  0  # atno 8010 bound_to 7997
  139.4873  144.5671  151.7125 H   0  0  0  0  0  0  0  0  0  0  0  0  # atno 10167 bound_to 10162
  156.0479  130.5706  150.7942 H   0  0  0  0  0  0  0  0  0  0  0  0  # atno 10718 bound_to 10713
  153.2702  135.4203  155.0980 H   0  0  0  0  0  0  0  0  0  0  0  0  # atno 10763 bound_to 10752
  154.8453  135.3470  154.6255 H   0  0  0  0  0  0  0  0  0  0  0  0  # atno 10764 bound_to 10752
  153.6674  135.7045  153.5215 H   0  0  0  0  0  0  0  0  0  0  0  0  # atno 10765 bound_to 10752
  141.1383  133.6648  156.5635 H   0  0  0  0  0  0  0  0  0  0  0  0  # atno 11005 bound_to 11000
  146.2687  139.6583  142.9311 LP  0  0  0  0  0  0  0  0  0  0  0  0  # atno 17320 bound_to 7965
  145.4728  141.0436  143.2689 LP  0  0  0  0  0  0  0  0  0  0  0  0  # atno 17321 bound_to 7965
  140.5251  144.0819  150.6035 LP  0  0  0  0  0  0  0  0  0  0  0  0  # atno 17342 bound_to 10162
  140.3790  143.2813  152.0192 LP  0  0  0  0  0  0  0  0  0  0  0  0  # atno 17343 bound_to 10162
  157.5374  131.0939  150.9874 LP  0  0  0  0  0  0  0  0  0  0  0  0  # atno 17370 bound_to 10713
  157.0165  130.5657  149.5326 LP  0  0  0  0  0  0  0  0  0  0  0  0  # atno 17371 bound_to 10713
  140.3969  134.7391  157.4756 LP  0  0  0  0  0  0  0  0  0  0  0  0  # atno 17394 bound_to 11000
  140.0524  134.6111  155.8845 LP  0  0  0  0  0  0  0  0  0  0  0  0  # atno 17395 bound_to 11000

$$$$
