AV-unprocessed.smi:2001|AV-procd|sdf|8103|dock3
  -GOLD-   2272010323D 1   1.00000     0.00000
 Structure written by MMmdl.
 50 51  0  0  0  0  0  0  0  0  1 V2000
  153.0814  138.6730  159.5958 C   0  0  0  0  0  0  0  0  0  0  0  0
  153.9276  139.6583  159.0291 O   0  0  0  0  0  0  0  0  0  0  0  0
  154.1547  140.7480  159.9067 C   0  0  0  0  0  0  0  0  0  0  0  0
  152.8020  141.3623  160.2982 C   0  0  0  0  0  0  0  0  0  0  0  0
  152.2682  142.2151  159.2313 N   0  0  0  0  0  0  0  0  0  0  0  0
  151.7822  141.5159  158.1388 N   0  0  0  0  0  0  0  0  0  0  0  0
  151.2899  142.1531  157.1258 C   0  0  0  0  0  0  0  0  0  0  0  0
  150.7509  141.4400  155.9345 C   0  0  0  0  0  0  0  0  0  0  0  0
  151.3016  140.4399  155.4708 O   0  0  0  0  0  0  0  0  0  0  0  0
  149.6311  141.9651  155.4057 N   0  0  0  0  0  0  0  0  0  0  0  0
  148.9363  141.4472  154.2342 C   0  0  0  0  0  0  0  0  0  0  0  0
  147.6494  140.7016  154.6327 C   0  0  0  0  0  0  0  0  0  0  0  0
  146.4861  141.5595  154.8493 N   0  0  0  0  0  0  0  0  0  0  0  0
  146.4184  142.6122  153.8438 C   0  0  0  0  0  0  0  0  0  0  0  0
  145.1754  143.5016  154.0253 C   0  0  2  0  0  0  0  0  0  0  0  0
  145.1408  144.6562  153.0185 C   0  0  0  0  0  0  0  0  0  0  0  0
  145.1807  144.0579  155.3385 O   0  0  0  0  0  0  0  0  0  0  0  0
  145.2804  143.1088  156.4016 C   0  0  1  0  0  0  0  0  0  0  0  0
  143.9575  142.3551  156.6195 C   0  0  0  0  0  0  0  0  0  0  0  0
  146.4852  142.1729  156.1763 C   0  0  0  0  0  0  0  0  0  0  0  0
  151.2406  143.6055  157.1129 C   0  0  0  0  0  0  0  0  0  0  0  0
  151.7182  144.2735  158.1857 C   0  0  0  0  0  0  0  0  0  0  0  0
  152.2794  143.5776  159.3444 C   0  0  0  0  0  0  0  0  0  0  0  0
  152.7244  144.1637  160.3308 O   0  0  0  0  0  0  0  0  0  0  0  0
  152.9420  137.8574  158.8863 H   0  0  0  0  0  0  0  0  0  0  0  0
  152.0992  139.0850  159.8312 H   0  0  0  0  0  0  0  0  0  0  0  0
  153.5144  138.2570  160.5065 H   0  0  0  0  0  0  0  0  0  0  0  0
  154.6874  140.4038  160.7945 H   0  0  0  0  0  0  0  0  0  0  0  0
  154.7793  141.4965  159.4164 H   0  0  0  0  0  0  0  0  0  0  0  0
  152.0939  140.5631  160.5248 H   0  0  0  0  0  0  0  0  0  0  0  0
  152.9033  141.9312  161.2242 H   0  0  0  0  0  0  0  0  0  0  0  0
  149.2390  142.7858  155.8446 H   0  0  0  0  0  0  0  0  0  0  0  0
  148.6906  142.2887  153.5859 H   0  0  0  0  0  0  0  0  0  0  0  0
  149.6131  140.8062  153.6685 H   0  0  0  0  0  0  0  0  0  0  0  0
  147.4117  139.9450  153.8831 H   0  0  0  0  0  0  0  0  0  0  0  0
  147.8589  140.1546  155.5532 H   0  0  0  0  0  0  0  0  0  0  0  0
  147.3189  143.2271  153.8918 H   0  0  0  0  0  0  0  0  0  0  0  0
  146.3974  142.1689  152.8474 H   0  0  0  0  0  0  0  0  0  0  0  0
  144.2753  142.9013  153.8896 H   0  0  0  0  0  0  0  0  0  0  0  0
  145.1258  144.2826  151.9944 H   0  0  0  0  0  0  0  0  0  0  0  0
  146.0127  145.3016  153.1276 H   0  0  0  0  0  0  0  0  0  0  0  0
  144.2514  145.2707  153.1608 H   0  0  0  0  0  0  0  0  0  0  0  0
  145.4699  143.6846  157.3079 H   0  0  0  0  0  0  0  0  0  0  0  0
  144.0145  141.7209  157.5044 H   0  0  0  0  0  0  0  0  0  0  0  0
  143.7067  141.7132  155.7752 H   0  0  0  0  0  0  0  0  0  0  0  0
  143.1326  143.0525  156.7662 H   0  0  0  0  0  0  0  0  0  0  0  0
  146.4864  141.4094  156.9531 H   0  0  0  0  0  0  0  0  0  0  0  0
  147.4043  142.7460  156.3088 H   0  0  0  0  0  0  0  0  0  0  0  0
  150.8317  144.1455  156.2713 H   0  0  0  0  0  0  0  0  0  0  0  0
  151.6862  145.3532  158.1907 H   0  0  0  0  0  0  0  0  0  0  0  0
  1  2  1  0  0  0  0
  1 25  1  0  0  0  0
  1 26  1  0  0  0  0
  1 27  1  0  0  0  0
  2  3  1  0  0  0  0
  3  4  1  0  0  0  0
  3 28  1  0  0  0  0
  3 29  1  0  0  0  0
  4  5  1  0  0  0  0
  4 30  1  0  0  0  0
  4 31  1  0  0  0  0
  5 23  1  0  0  0  0
  5  6  1  0  0  0  0
  6  7  2  0  0  0  0
  7  8  1  0  0  0  0
  7 21  1  0  0  0  0
  8  9  2  0  0  0  0
  8 10  1  0  0  0  0
 10 11  1  0  0  0  0
 10 32  1  0  0  0  0
 11 12  1  0  0  0  0
 11 33  1  0  0  0  0
 11 34  1  0  0  0  0
 12 13  1  0  0  0  0
 12 35  1  0  0  0  0
 12 36  1  0  0  0  0
 13 20  1  0  0  0  0
 13 14  1  0  0  0  0
 14 15  1  0  0  0  0
 14 37  1  0  0  0  0
 14 38  1  0  0  0  0
 15 16  1  0  0  0  0
 15 17  1  0  0  0  0
 15 39  1  0  0  0  0
 16 40  1  0  0  0  0
 16 41  1  0  0  0  0
 16 42  1  0  0  0  0
 17 18  1  0  0  0  0
 18 19  1  0  0  0  0
 18 20  1  0  0  0  0
 18 43  1  0  0  0  0
 19 44  1  0  0  0  0
 19 45  1  0  0  0  0
 19 46  1  0  0  0  0
 20 47  1  0  0  0  0
 20 48  1  0  0  0  0
 21 22  2  0  0  0  0
 21 49  1  0  0  0  0
 22 23  1  0  0  0  0
 22 50  1  0  0  0  0
 23 24  2  0  0  0  0
M  END
> <s_m_source_file>
AV-unprocessed.smi

> <i_m_source_file_index>
2001

> <i_lp_mmshare_version>
43012

> <i_f3d_flags>
0

> <s_epik_input>
W0NIM11PW0NIMl1bQ0gyXW4xbmMoW2NIXVtjSF1jMT1PKUMoPU8pW05IXVtDSDJdW0NIMl1OMltDSDJdW0NAQEhdKFtDSDNdKU9bQ0BASF0oW0NIM10pW0NIMl0y

> <s_epik_cmdline>
J2VwaWtfcHl0aG9uJywgJy1waCcsICc3LjAnLCAnLXRuJywgJzgnLCAnLW1hJywgJzIwMCcsICctbWV0YWxfYmluZGluZycsICctaW1hZScsICc8aW5maWxlLm1hZT4nLCAnLW9tYWUnLCAnPG91dGZpbGUubWFlPic=

> <r_lp_tautomer_probability>
1

> <r_epik_Ionization_Penalty>
0.206669

> <r_epik_Ionization_Penalty_Charging>
5.55992e-09

> <r_epik_Ionization_Penalty_Neutral>
0.206669

> <r_epik_State_Penalty>
0.196651

> <r_epik_Charging_Adjusted_Penalty>
0.196651

> <i_epik_Tot_Q>
0

> <i_epik_Tot_abs_Q>
0

> <r_epik_Metal_State_Penalty>
0.198372

> <b_epik_Metal_Only>
0

> <s_lp_Force_Field>
OPLS_2005

> <r_lp_Energy>
40.7423

> <b_lp_Chiralities_Consistent>
1

> <s_lp_Variant>
AV-unprocessed.smi:2001-2

> <Gold.Version>
5.8.1

> <Gold.Id.Protein>
6NUR|6NUR_protein|mol2

> <Gold.PLP.Fitness>
50.6305

> <Gold.PLP.PLP>
-44.6378

> <Gold.PLP.part.hbond>
-3.0000

> <Gold.PLP.part.metal>
0.0000

> <Gold.PLP.part.buried>
-1.5461

> <Gold.PLP.part.nonpolar>
-40.1305

> <Gold.PLP.part.repulsive>
0.5239

> <Gold.PLP.ligand.clash>
0.0000

> <Gold.PLP.ligand.torsion>
1.2602

> <Gold.PLP.Chemscore.Hbond>
2.7600

> <Gold.PLP.Chemscore.CHOScore>
0.0000

> <Gold.PLP.Chemscore.Metal>
0.0000

> <Gold.Chemscore.Hbonds>
donor molecule, donor type, donor heavy atom, donor atom, acceptor molecule, acceptor atom, score
      L1  H    10    32       P1  8028  0.91
      P1  H  7989  7998       L1     9  0.89
      P1  H  7997  8010       L1     2  0.91

> <Gold.PLP.Chemscore.Internal.Correction>
0.2331

> <Gold.Rescore>
     Score         DG    S(hbond)    S(metal)    S(lipo)     H(rot)  DE(clash)    DE(int)     intcor
     17.47     -19.75       2.45        0.00      95.69       2.00       0.72       1.55       ----

> <Gold.Chemscore.Fitness>
17.4712

> <Gold.Chemscore.DG>
-19.7460

> <Gold.Chemscore.ZeroCoef>
-5.4800

> <Gold.Chemscore.Hbond>
2.4538

> <Gold.Chemscore.Metal>
0.0000

> <Gold.Chemscore.Lipo>
95.6866

> <Gold.Chemscore.Internal_Hbond>
0.0000

> <Gold.Chemscore.DEClash>
0.7246

> <Gold.Chemscore.DEInternal>
1.5501

> <Gold.Chemscore.Rot>
2.0020

> <Gold.Chemscore.Internal.Correction>
   9.000000E+99

> <Gold.Chemscore.Hbonds>
donor molecule, donor type, donor heavy atom, donor atom, acceptor molecule, acceptor atom, score
      L1  H    10    32       P1  8028  0.86
      P1  H  7989  7998       L1     9  0.41
      P1  H  7997  8010       L1     2  0.53

> <Gold.Chemscore.Hbond.Weighted>
-8.1958

> <Gold.Chemscore.Metal.Weighted>
-0.0000

> <Gold.Chemscore.Lipo.Weighted>
-11.1953

> <Gold.Chemscore.Internal_Hbond.Weighted>
0.0000

> <Gold.Chemscore.DEClash.Weighted>
0.7246

> <Gold.Chemscore.DEInternal.Weighted>
1.5501

> <Gold.Chemscore.Rot.Weighted>
5.1252

> <Gold.Chemscore.Internal.Correction.Weighted>
   9.000000E+99

> <Gold.Protein.RotatedTorsions>
[ 6907 6896 6895 6894 ] final   90.24 input  -60.11 | X-H torsion
[ 7974 7965 7964 7962 ] final -139.12 input  175.53 | X-H torsion
[ 8008 7997 7996 7995 ] final    5.00 input   59.86 | X-H torsion
[ 10167 10162 10161 10158 ] final  154.49 input  -65.29 | X-H torsion
[ 10718 10713 10712 10709 ] final  -90.16 input   66.30 | X-H torsion
[ 10763 10752 10751 10750 ] final -152.73 input  -60.55 | X-H torsion
[ 11005 11000 10999 10996 ] final  138.39 input  -57.11 | X-H torsion

> <Gold.Protein.ActiveResidues>
 VAL166  LYS551  ARG553  GLY616  TRP617  ASP618  TYR619  PRO620  LYS621  CYS622 
 ASP623  PHE694  ASN695  SER759  ASP760  ASP761  ALA762  ILE779  LEU786  VAL792 
 PHE793  MET794  SER795  GLU796  ALA797  LYS798  CYS799  TRP800  GLU811  SER814 

> <Gold.Protein.RotatedAtoms>
  152.5443  134.1841  159.8647 H   0  0  0  0  0  0  0  0  0  0  0  0  # atno 6907 bound_to 6896
  151.1842  133.4699  159.2602 H   0  0  0  0  0  0  0  0  0  0  0  0  # atno 6908 bound_to 6896
  151.1148  135.0058  159.8566 H   0  0  0  0  0  0  0  0  0  0  0  0  # atno 6909 bound_to 6896
  144.8702  140.6356  143.5271 H   0  0  0  0  0  0  0  0  0  0  0  0  # atno 7974 bound_to 7965
  154.7229  140.2715  155.6525 H   0  0  0  0  0  0  0  0  0  0  0  0  # atno 8008 bound_to 7997
  156.2828  140.2731  156.1830 H   0  0  0  0  0  0  0  0  0  0  0  0  # atno 8009 bound_to 7997
  155.0484  140.0371  157.2524 H   0  0  0  0  0  0  0  0  0  0  0  0  # atno 8010 bound_to 7997
  139.4823  144.5182  151.7919 H   0  0  0  0  0  0  0  0  0  0  0  0  # atno 10167 bound_to 10162
  155.9986  130.4899  150.5280 H   0  0  0  0  0  0  0  0  0  0  0  0  # atno 10718 bound_to 10713
  154.7975  135.3229  154.7631 H   0  0  0  0  0  0  0  0  0  0  0  0  # atno 10763 bound_to 10752
  153.8306  135.6879  153.4819 H   0  0  0  0  0  0  0  0  0  0  0  0  # atno 10764 bound_to 10752
  153.1674  135.4637  154.9798 H   0  0  0  0  0  0  0  0  0  0  0  0  # atno 10765 bound_to 10752
  140.0180  134.9409  157.0416 H   0  0  0  0  0  0  0  0  0  0  0  0  # atno 11005 bound_to 11000
  145.4144  139.1574  143.4108 LP  0  0  0  0  0  0  0  0  0  0  0  0  # atno 17320 bound_to 7965
  146.2925  140.4250  142.8734 LP  0  0  0  0  0  0  0  0  0  0  0  0  # atno 17321 bound_to 7965
  140.4692  144.1611  150.5916 LP  0  0  0  0  0  0  0  0  0  0  0  0  # atno 17342 bound_to 10162
  140.4400  143.2530  151.9485 LP  0  0  0  0  0  0  0  0  0  0  0  0  # atno 17343 bound_to 10162
  157.3233  131.0686  151.1915 LP  0  0  0  0  0  0  0  0  0  0  0  0  # atno 17370 bound_to 10713
  157.2821  130.6755  149.6071 LP  0  0  0  0  0  0  0  0  0  0  0  0  # atno 17371 bound_to 10713
  140.4436  134.1655  155.7175 LP  0  0  0  0  0  0  0  0  0  0  0  0  # atno 17394 bound_to 11000
  141.1755  133.8521  157.1433 LP  0  0  0  0  0  0  0  0  0  0  0  0  # atno 17395 bound_to 11000

$$$$
