AV-unprocessed.smi:2245|AV-procd|sdf|9078|dock9
  -GOLD-   2272012283D 1   1.00000     0.00000
 Structure written by MMmdl.
 45 46  0  0  0  0  0  0  0  0  2 V2000
  153.2816  140.4707  159.3967 C   0  0  0  0  0  0  0  0  0  0  0  0
  152.4899  141.6505  158.8733 C   0  0  0  0  0  0  0  0  0  0  0  0
  152.6906  142.9424  159.3959 C   0  0  0  0  0  0  0  0  0  0  0  0
  151.9269  144.0005  158.8651 C   0  0  0  0  0  0  0  0  0  0  0  0
  152.0911  145.4151  159.3796 C   0  0  0  0  0  0  0  0  0  0  0  0
  151.0172  143.8311  157.8819 N   0  0  0  0  0  0  0  0  0  0  0  0
  150.8151  142.5911  157.3710 C   0  0  0  0  0  0  0  0  0  0  0  0
  149.8848  142.3080  156.3359 N   0  0  0  0  0  0  0  0  0  0  0  0
  149.9276  141.3154  155.4297 C   0  0  0  0  0  0  0  0  0  0  0  0
  150.8226  140.4753  155.3324 O   0  0  0  0  0  0  0  0  0  0  0  0
  148.8523  141.3415  154.6289 N   0  0  0  0  0  0  0  0  0  0  0  0
  148.5881  140.3974  153.5475 C   0  0  0  0  0  0  0  0  0  0  0  0
  147.1152  139.9427  153.5120 C   0  0  2  0  0  0  0  0  0  0  0  0
  146.6566  139.2148  154.7744 C   0  0  0  0  0  0  0  0  0  0  0  0
  145.4604  138.3674  154.3190 C   0  0  0  0  0  0  0  0  0  0  0  0
  145.5012  138.3265  152.8372 N   0  3  2  0  0  0  0  0  0  0  0  0
  145.2232  137.0045  152.2256 C   0  0  0  0  0  0  0  0  0  0  0  0
  143.8564  136.4353  152.6444 C   0  0  0  0  0  0  0  0  0  0  0  0
  143.9873  135.8038  153.8099 F   0  0  0  0  0  0  0  0  0  0  0  0
  142.9526  137.4042  152.7874 F   0  0  0  0  0  0  0  0  0  0  0  0
  143.4259  135.5642  151.7319 F   0  0  0  0  0  0  0  0  0  0  0  0
  146.7810  138.9301  152.4168 C   0  0  0  0  0  0  0  0  0  0  0  0
  151.5394  141.4752  157.8471 C   0  0  0  0  0  0  0  0  0  0  0  0
  153.7285  140.6960  160.3656 H   0  0  0  0  0  0  0  0  0  0  0  0
  154.0810  140.2160  158.7005 H   0  0  0  0  0  0  0  0  0  0  0  0
  152.6370  139.5994  159.5152 H   0  0  0  0  0  0  0  0  0  0  0  0
  153.4110  143.1176  160.1817 H   0  0  0  0  0  0  0  0  0  0  0  0
  152.8152  145.4593  160.1935 H   0  0  0  0  0  0  0  0  0  0  0  0
  151.1393  145.7973  159.7502 H   0  0  0  0  0  0  0  0  0  0  0  0
  152.4372  146.0710  158.5801 H   0  0  0  0  0  0  0  0  0  0  0  0
  149.0895  142.9273  156.2882 H   0  0  0  0  0  0  0  0  0  0  0  0
  148.1701  142.0718  154.7729 H   0  0  0  0  0  0  0  0  0  0  0  0
  148.8542  140.8827  152.6079 H   0  0  0  0  0  0  0  0  0  0  0  0
  149.2480  139.5337  153.6456 H   0  0  0  0  0  0  0  0  0  0  0  0
  146.4717  140.8138  153.3774 H   0  0  0  0  0  0  0  0  0  0  0  0
  147.4486  138.5575  155.1366 H   0  0  0  0  0  0  0  0  0  0  0  0
  146.4006  139.9006  155.5826 H   0  0  0  0  0  0  0  0  0  0  0  0
  145.5134  137.3717  154.7615 H   0  0  0  0  0  0  0  0  0  0  0  0
  144.5180  138.8186  154.6308 H   0  0  0  0  0  0  0  0  0  0  0  0
  145.2253  137.1239  151.1411 H   0  0  0  0  0  0  0  0  0  0  0  0
  146.0261  136.3042  152.4609 H   0  0  0  0  0  0  0  0  0  0  0  0
  146.6997  139.3890  151.4309 H   0  0  0  0  0  0  0  0  0  0  0  0
  147.5543  138.1609  152.3707 H   0  0  0  0  0  0  0  0  0  0  0  0
  151.3704  140.4924  157.4306 H   0  0  0  0  0  0  0  0  0  0  0  0
  144.7817  138.9593  152.5168 H   0  0  0  0  0  0  0  0  0  0  0  0
  1  2  1  0  0  0  0
  1 24  1  0  0  0  0
  1 25  1  0  0  0  0
  1 26  1  0  0  0  0
  2 23  1  0  0  0  0
  2  3  2  0  0  0  0
  3  4  1  0  0  0  0
  3 27  1  0  0  0  0
  4  5  1  0  0  0  0
  4  6  2  0  0  0  0
  5 28  1  0  0  0  0
  5 29  1  0  0  0  0
  5 30  1  0  0  0  0
  6  7  1  0  0  0  0
  7  8  1  0  0  0  0
  7 23  2  0  0  0  0
  8  9  1  0  0  0  0
  8 31  1  0  0  0  0
  9 10  2  0  0  0  0
  9 11  1  0  0  0  0
 11 12  1  0  0  0  0
 11 32  1  0  0  0  0
 12 13  1  0  0  0  0
 12 33  1  0  0  0  0
 12 34  1  0  0  0  0
 13 22  1  0  0  0  0
 13 14  1  0  0  0  0
 13 35  1  0  0  0  0
 14 15  1  0  0  0  0
 14 36  1  0  0  0  0
 14 37  1  0  0  0  0
 15 16  1  0  0  0  0
 15 38  1  0  0  0  0
 15 39  1  0  0  0  0
 16 17  1  0  0  0  0
 16 22  1  0  0  0  0
 16 45  1  0  0  0  0
 17 18  1  0  0  0  0
 17 40  1  0  0  0  0
 17 41  1  0  0  0  0
 18 19  1  0  0  0  0
 18 20  1  0  0  0  0
 18 21  1  0  0  0  0
 22 42  1  0  0  0  0
 22 43  1  0  0  0  0
 23 44  1  0  0  0  0
M  CHG  1  16   1
M  END
> <s_m_source_file>
AV-unprocessed.smi

> <i_m_source_file_index>
2245

> <i_lp_mmshare_version>
43012

> <i_f3d_flags>
0

> <s_epik_input>
W0NIM11jMVtjSF1jKFtDSDNdKW5jKFtjSF0xKVtOSF1DKD1PKVtOSF1bQ0gyXVtDQEBIXTJbQ0gyXVtDSDJdTihbQ0gyXTIpW0NIMl1DKEYpKEYpRg==

> <s_epik_cmdline>
J2VwaWtfcHl0aG9uJywgJy1waCcsICc3LjAnLCAnLXRuJywgJzgnLCAnLW1hJywgJzIwMCcsICctbWV0YWxfYmluZGluZycsICctaW1hZScsICc8aW5maWxlLm1hZT4nLCAnLW9tYWUnLCAnPG91dGZpbGUubWFlPic=

> <r_epik_Ionization_Penalty>
0.628315

> <r_epik_Ionization_Penalty_Charging>
0.628113

> <r_epik_Ionization_Penalty_Neutral>
0.000202271

> <r_epik_State_Penalty>
0.644725

> <r_epik_Charging_Adjusted_Penalty>
1.27284

> <i_epik_Tot_Q>
1

> <i_epik_Tot_abs_Q>
1

> <r_epik_Metal_State_Penalty>
0.644752

> <b_epik_Metal_Only>
0

> <s_lp_Force_Field>
OPLS_2005

> <r_lp_Energy>
28.9213

> <b_lp_Chiralities_Consistent>
1

> <s_lp_Variant>
AV-unprocessed.smi:2245-3

> <Gold.Version>
5.8.1

> <Gold.Id.Protein>
6NUR|6NUR_protein|mol2

> <Gold.PLP.Fitness>
53.0174

> <Gold.PLP.PLP>
-43.2145

> <Gold.PLP.part.hbond>
-3.0000

> <Gold.PLP.part.metal>
0.0000

> <Gold.PLP.part.buried>
-4.8353

> <Gold.PLP.part.nonpolar>
-37.7775

> <Gold.PLP.part.repulsive>
0.4509

> <Gold.PLP.ligand.clash>
0.0000

> <Gold.PLP.ligand.torsion>
0.6769

> <Gold.PLP.Chemscore.Hbond>
3.5680

> <Gold.PLP.Chemscore.CHOScore>
0.0000

> <Gold.PLP.Chemscore.Metal>
0.0000

> <Gold.Chemscore.Hbonds>
donor molecule, donor type, donor heavy atom, donor atom, acceptor molecule, acceptor atom, score
      L1  H     8    31       P1  8028  0.66
      L1  H    16    45       P1 10175  2.00
      P1  H  7989  7998       L1    10  0.97

> <Gold.PLP.Chemscore.Internal.Correction>
0.4527

> <Gold.Rescore>
     Score         DG    S(hbond)    S(metal)    S(lipo)     H(rot)  DE(clash)    DE(int)     intcor
     15.76     -20.38       2.08        0.00     103.17       1.61       1.61       3.01       ----

> <Gold.Chemscore.Fitness>
15.7554

> <Gold.Chemscore.DG>
-20.3788

> <Gold.Chemscore.ZeroCoef>
-5.4800

> <Gold.Chemscore.Hbond>
2.0841

> <Gold.Chemscore.Metal>
0.0000

> <Gold.Chemscore.Lipo>
103.1662

> <Gold.Chemscore.Internal_Hbond>
0.0000

> <Gold.Chemscore.DEClash>
1.6096

> <Gold.Chemscore.DEInternal>
3.0138

> <Gold.Chemscore.Rot>
1.6143

> <Gold.Chemscore.Internal.Correction>
   9.000000E+99

> <Gold.Chemscore.Hbonds>
donor molecule, donor type, donor heavy atom, donor atom, acceptor molecule, acceptor atom, score
      L1  H     8    31       P1  8028  0.66
      L1  H    16    45       P1 10175  1.00
      P1  H  7989  7998       L1    10  0.35

> <Gold.Chemscore.Hbond.Weighted>
-6.9609

> <Gold.Chemscore.Metal.Weighted>
-0.0000

> <Gold.Chemscore.Lipo.Weighted>
-12.0704

> <Gold.Chemscore.Internal_Hbond.Weighted>
0.0000

> <Gold.Chemscore.DEClash.Weighted>
1.6096

> <Gold.Chemscore.DEInternal.Weighted>
3.0138

> <Gold.Chemscore.Rot.Weighted>
4.1325

> <Gold.Chemscore.Internal.Correction.Weighted>
   9.000000E+99

> <Gold.Protein.RotatedTorsions>
[ 6907 6896 6895 6894 ] final  -38.75 input  -60.11 | X-H torsion
[ 7974 7965 7964 7962 ] final   28.19 input  175.53 | X-H torsion
[ 8008 7997 7996 7995 ] final   -1.33 input   59.86 | X-H torsion
[ 10167 10162 10161 10158 ] final  109.63 input  -65.29 | X-H torsion
[ 10718 10713 10712 10709 ] final  133.27 input   66.30 | X-H torsion
[ 10763 10752 10751 10750 ] final  113.59 input  -60.55 | X-H torsion
[ 11005 11000 10999 10996 ] final -106.54 input  -57.11 | X-H torsion

> <Gold.Protein.ActiveResidues>
 VAL166  LYS551  ARG553  GLY616  TRP617  ASP618  TYR619  PRO620  LYS621  CYS622 
 ASP623  PHE694  ASN695  SER759  ASP760  ASP761  ALA762  ILE779  LEU786  VAL792 
 PHE793  MET794  SER795  GLU796  ALA797  LYS798  CYS799  TRP800  GLU811  SER814 

> <Gold.Protein.RotatedAtoms>
  150.9986  134.9304  159.7940 H   0  0  0  0  0  0  0  0  0  0  0  0  # atno 6907 bound_to 6896
  152.5271  134.3184  159.9149 H   0  0  0  0  0  0  0  0  0  0  0  0  # atno 6908 bound_to 6896
  151.3190  133.4007  159.2687 H   0  0  0  0  0  0  0  0  0  0  0  0  # atno 6909 bound_to 6896
  146.1743  139.7090  142.8946 H   0  0  0  0  0  0  0  0  0  0  0  0  # atno 7974 bound_to 7965
  154.6479  140.2562  155.7246 H   0  0  0  0  0  0  0  0  0  0  0  0  # atno 8008 bound_to 7997
  156.2561  140.2874  156.0822 H   0  0  0  0  0  0  0  0  0  0  0  0  # atno 8009 bound_to 7997
  155.1495  140.0382  157.2808 H   0  0  0  0  0  0  0  0  0  0  0  0  # atno 8010 bound_to 7997
  139.6751  144.7123  151.1616 H   0  0  0  0  0  0  0  0  0  0  0  0  # atno 10167 bound_to 10162
  157.4789  131.1084  150.9707 H   0  0  0  0  0  0  0  0  0  0  0  0  # atno 10718 bound_to 10713
  153.4947  135.3651  155.2510 H   0  0  0  0  0  0  0  0  0  0  0  0  # atno 10763 bound_to 10752
  154.8750  135.3985  154.3548 H   0  0  0  0  0  0  0  0  0  0  0  0  # atno 10764 bound_to 10752
  153.4173  135.7079  153.6384 H   0  0  0  0  0  0  0  0  0  0  0  0  # atno 10765 bound_to 10752
  141.0999  133.8902  157.1868 H   0  0  0  0  0  0  0  0  0  0  0  0  # atno 11005 bound_to 11000
  145.4255  141.0410  143.2940 LP  0  0  0  0  0  0  0  0  0  0  0  0  # atno 17320 bound_to 7965
  144.8211  139.5790  143.6986 LP  0  0  0  0  0  0  0  0  0  0  0  0  # atno 17321 bound_to 7965
  140.7632  143.5784  150.8921 LP  0  0  0  0  0  0  0  0  0  0  0  0  # atno 17342 bound_to 10162
  139.9452  143.6336  152.3043 LP  0  0  0  0  0  0  0  0  0  0  0  0  # atno 17343 bound_to 10162
  157.0447  130.5763  149.5361 LP  0  0  0  0  0  0  0  0  0  0  0  0  # atno 17370 bound_to 10713
  156.0111  130.5203  150.7991 LP  0  0  0  0  0  0  0  0  0  0  0  0  # atno 17371 bound_to 10713
  139.9848  135.0086  156.9835 LP  0  0  0  0  0  0  0  0  0  0  0  0  # atno 17394 bound_to 11000
  140.5047  134.1062  155.7257 LP  0  0  0  0  0  0  0  0  0  0  0  0  # atno 17395 bound_to 11000

$$$$
