AV-unprocessed.smi:1839|AV-procd|sdf|7484|dock4
  -GOLD-   22720 9183D 1   1.00000     0.00000
 Structure written by MMmdl.
 46 47  0  0  0  0  0  0  0  0  1 V2000
  154.3016  141.9452  163.1004 C   0  0  0  0  0  0  0  0  0  0  0  0
  153.3754  142.4697  162.0968 N   0  0  0  0  0  0  0  0  0  0  0  0
  152.3327  143.3474  162.6423 C   0  0  0  0  0  0  0  0  0  0  0  0
  153.3349  141.9276  160.8541 C   0  0  0  0  0  0  0  0  0  0  0  0
  153.8426  140.8327  160.6026 O   0  0  0  0  0  0  0  0  0  0  0  0
  152.6696  142.6407  159.9145 N   0  0  0  0  0  0  0  0  0  0  0  0
  152.8022  144.0985  159.7759 C   0  0  0  0  0  0  0  0  0  0  0  0
  151.4241  144.7175  159.4824 C   0  0  0  0  0  0  0  0  0  0  0  0
  150.7834  144.0705  158.2419 C   0  0  0  0  0  0  0  0  0  0  0  0
  150.7756  142.5304  158.3563 C   0  0  1  0  0  0  0  0  0  0  0  0
  150.2364  141.8675  157.0829 C   0  0  0  0  0  0  0  0  0  0  0  0
  150.9577  141.1331  156.4073 O   0  0  0  0  0  0  0  0  0  0  0  0
  148.9523  142.1153  156.7843 N   0  0  0  0  0  0  0  0  0  0  0  0
  148.2052  141.4861  155.7003 C   0  0  0  0  0  0  0  0  0  0  0  0
  146.6782  141.5195  155.9232 C   0  0  0  0  0  0  0  0  0  0  0  0
  145.9691  142.6313  155.1649 C   0  0  0  0  0  0  0  0  0  0  0  0
  146.2591  142.8710  153.8049 C   0  0  0  0  0  0  0  0  0  0  0  0
  145.5955  143.9291  153.1537 C   0  0  0  0  0  0  0  0  0  0  0  0
  144.6740  144.7048  153.8837 C   0  0  0  0  0  0  0  0  0  0  0  0
  144.4535  144.3848  155.2381 C   0  0  0  0  0  0  0  0  0  0  0  0
  145.0830  143.3715  155.8701 N   0  0  0  0  0  0  0  0  0  0  0  0
  152.1949  142.0129  158.6771 C   0  0  0  0  0  0  0  0  0  0  0  0
  155.2764  141.7180  162.6655 H   0  0  0  0  0  0  0  0  0  0  0  0
  153.9035  141.0322  163.5447 H   0  0  0  0  0  0  0  0  0  0  0  0
  154.4686  142.6678  163.9001 H   0  0  0  0  0  0  0  0  0  0  0  0
  151.3744  143.2129  162.1386 H   0  0  0  0  0  0  0  0  0  0  0  0
  152.6260  144.3932  162.5532 H   0  0  0  0  0  0  0  0  0  0  0  0
  152.1590  143.1428  163.6996 H   0  0  0  0  0  0  0  0  0  0  0  0
  153.2423  144.5648  160.6576 H   0  0  0  0  0  0  0  0  0  0  0  0
  153.4879  144.3146  158.9553 H   0  0  0  0  0  0  0  0  0  0  0  0
  150.7694  144.5831  160.3439 H   0  0  0  0  0  0  0  0  0  0  0  0
  151.5206  145.7933  159.3333 H   0  0  0  0  0  0  0  0  0  0  0  0
  149.7684  144.4472  158.1108 H   0  0  0  0  0  0  0  0  0  0  0  0
  151.3438  144.3769  157.3573 H   0  0  0  0  0  0  0  0  0  0  0  0
  150.1216  142.2586  159.1873 H   0  0  0  0  0  0  0  0  0  0  0  0
  148.4360  142.7328  157.3938 H   0  0  0  0  0  0  0  0  0  0  0  0
  148.4472  142.0267  154.7849 H   0  0  0  0  0  0  0  0  0  0  0  0
  148.5459  140.4608  155.5505 H   0  0  0  0  0  0  0  0  0  0  0  0
  146.2461  140.5611  155.6339 H   0  0  0  0  0  0  0  0  0  0  0  0
  146.4668  141.6312  156.9879 H   0  0  0  0  0  0  0  0  0  0  0  0
  146.9768  142.2629  153.2739 H   0  0  0  0  0  0  0  0  0  0  0  0
  145.7925  144.1441  152.1138 H   0  0  0  0  0  0  0  0  0  0  0  0
  144.1488  145.5252  153.4176 H   0  0  0  0  0  0  0  0  0  0  0  0
  143.7553  144.9578  155.8302 H   0  0  0  0  0  0  0  0  0  0  0  0
  152.8896  142.2367  157.8653 H   0  0  0  0  0  0  0  0  0  0  0  0
  152.1675  140.9256  158.7718 H   0  0  0  0  0  0  0  0  0  0  0  0
  1  2  1  0  0  0  0
  1 23  1  0  0  0  0
  1 24  1  0  0  0  0
  1 25  1  0  0  0  0
  2  3  1  0  0  0  0
  2  4  1  0  0  0  0
  3 26  1  0  0  0  0
  3 27  1  0  0  0  0
  3 28  1  0  0  0  0
  4  5  2  0  0  0  0
  4  6  1  0  0  0  0
  6 22  1  0  0  0  0
  6  7  1  0  0  0  0
  7  8  1  0  0  0  0
  7 29  1  0  0  0  0
  7 30  1  0  0  0  0
  8  9  1  0  0  0  0
  8 31  1  0  0  0  0
  8 32  1  0  0  0  0
  9 10  1  0  0  0  0
  9 33  1  0  0  0  0
  9 34  1  0  0  0  0
 10 11  1  0  0  0  0
 10 22  1  0  0  0  0
 10 35  1  0  0  0  0
 11 12  2  0  0  0  0
 11 13  1  0  0  0  0
 13 14  1  0  0  0  0
 13 36  1  0  0  0  0
 14 15  1  0  0  0  0
 14 37  1  0  0  0  0
 14 38  1  0  0  0  0
 15 16  1  0  0  0  0
 15 39  1  0  0  0  0
 15 40  1  0  0  0  0
 16 21  1  0  0  0  0
 16 17  2  0  0  0  0
 17 18  1  0  0  0  0
 17 41  1  0  0  0  0
 18 19  2  0  0  0  0
 18 42  1  0  0  0  0
 19 20  1  0  0  0  0
 19 43  1  0  0  0  0
 20 21  2  0  0  0  0
 20 44  1  0  0  0  0
 22 45  1  0  0  0  0
 22 46  1  0  0  0  0
M  END
> <s_m_source_file>
AV-unprocessed.smi

> <i_m_source_file_index>
1839

> <i_lp_mmshare_version>
43012

> <i_f3d_flags>
0

> <s_epik_input>
W0NIM11OKFtDSDNdKUMoPU8pTjFbQ0gyXVtDSDJdW0NIMl1bQ0BIXShbQ0gyXTEpQyg9TylbTkhdW0NIMl1bQ0gyXWMyW2NIXVtjSF1bY0hdW2NIXW4y

> <s_epik_cmdline>
J2VwaWtfcHl0aG9uJywgJy1waCcsICc3LjAnLCAnLXRuJywgJzgnLCAnLW1hJywgJzIwMCcsICctbWV0YWxfYmluZGluZycsICctaW1hZScsICc8aW5maWxlLm1hZT4nLCAnLW9tYWUnLCAnPG91dGZpbGUubWFlPic=

> <r_epik_Ionization_Penalty>
0.0268631

> <r_epik_Ionization_Penalty_Charging>
0

> <r_epik_Ionization_Penalty_Neutral>
0.0268631

> <r_epik_State_Penalty>
0.0219025

> <r_epik_Charging_Adjusted_Penalty>
0.0219025

> <i_epik_Tot_Q>
0

> <i_epik_Tot_abs_Q>
0

> <r_epik_Metal_State_Penalty>
0.0209511

> <b_epik_Metal_Only>
0

> <s_lp_Force_Field>
OPLS_2005

> <r_lp_Energy>
49.2306

> <b_lp_Chiralities_Consistent>
1

> <s_lp_Variant>
AV-unprocessed.smi:1839-1

> <Gold.Version>
5.8.1

> <Gold.Id.Protein>
6NUR|6NUR_protein|mol2

> <Gold.PLP.Fitness>
47.1088

> <Gold.PLP.PLP>
-48.3799

> <Gold.PLP.part.hbond>
-1.0000

> <Gold.PLP.part.metal>
0.0000

> <Gold.PLP.part.buried>
-2.7290

> <Gold.PLP.part.nonpolar>
-43.9580

> <Gold.PLP.part.repulsive>
0.1857

> <Gold.PLP.ligand.clash>
0.0000

> <Gold.PLP.ligand.torsion>
1.2980

> <Gold.PLP.Chemscore.Hbond>
0.0000

> <Gold.PLP.Chemscore.CHOScore>
0.0000

> <Gold.PLP.Chemscore.Metal>
0.0000

> <Gold.PLP.Chemscore.Internal.Correction>
1.3251

> <Gold.Rescore>
     Score         DG    S(hbond)    S(metal)    S(lipo)     H(rot)  DE(clash)    DE(int)     intcor
     10.99     -15.12       0.00        0.00     115.53       1.52       1.99       2.13       ----

> <Gold.Chemscore.Fitness>
10.9944

> <Gold.Chemscore.DG>
-15.1172

> <Gold.Chemscore.ZeroCoef>
-5.4800

> <Gold.Chemscore.Hbond>
0.0000

> <Gold.Chemscore.Metal>
0.0000

> <Gold.Chemscore.Lipo>
115.5283

> <Gold.Chemscore.Internal_Hbond>
0.0000

> <Gold.Chemscore.DEClash>
1.9940

> <Gold.Chemscore.DEInternal>
2.1288

> <Gold.Chemscore.Rot>
1.5155

> <Gold.Chemscore.Internal.Correction>
   9.000000E+99

> <Gold.Chemscore.Hbond.Weighted>
-0.0000

> <Gold.Chemscore.Metal.Weighted>
-0.0000

> <Gold.Chemscore.Lipo.Weighted>
-13.5168

> <Gold.Chemscore.Internal_Hbond.Weighted>
0.0000

> <Gold.Chemscore.DEClash.Weighted>
1.9940

> <Gold.Chemscore.DEInternal.Weighted>
2.1288

> <Gold.Chemscore.Rot.Weighted>
3.8796

> <Gold.Chemscore.Internal.Correction.Weighted>
   9.000000E+99

> <Gold.Protein.RotatedTorsions>
[ 6907 6896 6895 6894 ] final   -9.16 input  -60.11 | X-H torsion
[ 7974 7965 7964 7962 ] final  128.28 input  175.53 | X-H torsion
[ 8008 7997 7996 7995 ] final   46.92 input   59.86 | X-H torsion
[ 10167 10162 10161 10158 ] final -159.67 input  -65.29 | X-H torsion
[ 10718 10713 10712 10709 ] final -121.42 input   66.30 | X-H torsion
[ 10763 10752 10751 10750 ] final  -54.02 input  -60.55 | X-H torsion
[ 11005 11000 10999 10996 ] final  105.60 input  -57.11 | X-H torsion

> <Gold.Protein.ActiveResidues>
 VAL166  LYS551  ARG553  GLY616  TRP617  ASP618  TYR619  PRO620  LYS621  CYS622 
 ASP623  PHE694  ASN695  SER759  ASP760  ASP761  ALA762  ILE779  LEU786  VAL792 
 PHE793  MET794  SER795  GLU796  ALA797  LYS798  CYS799  TRP800  GLU811  SER814 

> <Gold.Protein.RotatedAtoms>
  151.4221  135.0999  159.9616 H   0  0  0  0  0  0  0  0  0  0  0  0  # atno 6907 bound_to 6896
  152.4985  133.8697  159.7302 H   0  0  0  0  0  0  0  0  0  0  0  0  # atno 6908 bound_to 6896
  150.9215  133.6817  159.2859 H   0  0  0  0  0  0  0  0  0  0  0  0  # atno 6909 bound_to 6896
  145.0412  139.3961  143.5101 H   0  0  0  0  0  0  0  0  0  0  0  0  # atno 7974 bound_to 7965
  155.3605  140.3418  155.4240 H   0  0  0  0  0  0  0  0  0  0  0  0  # atno 8008 bound_to 7997
  156.1716  140.1633  156.8472 H   0  0  0  0  0  0  0  0  0  0  0  0  # atno 8009 bound_to 7997
  154.5239  140.0760  156.8205 H   0  0  0  0  0  0  0  0  0  0  0  0  # atno 8010 bound_to 7997
  139.6597  143.9935  152.2217 H   0  0  0  0  0  0  0  0  0  0  0  0  # atno 10167 bound_to 10162
  156.1336  130.6414  150.9660 H   0  0  0  0  0  0  0  0  0  0  0  0  # atno 10718 bound_to 10713
  154.1682  135.6463  153.5003 H   0  0  0  0  0  0  0  0  0  0  0  0  # atno 10763 bound_to 10752
  153.0091  135.5377  154.6640 H   0  0  0  0  0  0  0  0  0  0  0  0  # atno 10764 bound_to 10752
  154.5972  135.2940  155.0545 H   0  0  0  0  0  0  0  0  0  0  0  0  # atno 10765 bound_to 10752
  139.8804  134.9341  156.5538 H   0  0  0  0  0  0  0  0  0  0  0  0  # atno 11005 bound_to 11000
  146.3509  140.0014  142.8676 LP  0  0  0  0  0  0  0  0  0  0  0  0  # atno 17320 bound_to 7965
  145.1645  140.9689  143.4358 LP  0  0  0  0  0  0  0  0  0  0  0  0  # atno 17321 bound_to 7965
  139.9670  144.6519  150.8025 LP  0  0  0  0  0  0  0  0  0  0  0  0  # atno 17342 bound_to 10162
  140.7574  143.3087  151.2899 LP  0  0  0  0  0  0  0  0  0  0  0  0  # atno 17343 bound_to 10162
  157.6511  131.0897  150.8048 LP  0  0  0  0  0  0  0  0  0  0  0  0  # atno 17370 bound_to 10713
  156.8130  130.4959  149.5353 LP  0  0  0  0  0  0  0  0  0  0  0  0  # atno 17371 bound_to 10713
  140.8220  133.8346  155.8904 LP  0  0  0  0  0  0  0  0  0  0  0  0  # atno 17394 bound_to 11000
  140.9409  134.1902  157.4798 LP  0  0  0  0  0  0  0  0  0  0  0  0  # atno 17395 bound_to 11000

$$$$
