AV-unprocessed.smi:229|AV-procd|sdf|1750|dock6
  -GOLD-   2262020273D 1   1.00000     0.00000
 Structure written by MMmdl.
 58 62  0  0  0  0  0  0  0  0  1 V2000
  153.6079  142.0498  161.9749 C   0  0  0  0  0  0  0  0  0  0  0  0
  153.9578  141.3112  160.6763 C   0  0  0  0  0  0  0  0  0  0  0  0
  153.1721  141.8077  159.4515 C   0  0  1  0  0  0  0  0  0  0  0  0
  152.4882  140.6657  158.6771 C   0  0  0  0  0  0  0  0  0  0  0  0
  151.6418  141.2105  157.6235 N   0  0  0  0  0  0  0  0  0  0  0  0
  151.2536  140.3118  156.6843 C   0  0  0  0  0  0  0  0  0  0  0  0
  150.7165  140.7410  155.5105 N   0  0  0  0  0  0  0  0  0  0  0  0
  150.3263  139.8601  154.5846 C   0  0  0  0  0  0  0  0  0  0  0  0
  150.3840  138.5278  154.6234 N   0  0  0  0  0  0  0  0  0  0  0  0
  150.9309  138.0915  155.7938 C   0  0  0  0  0  0  0  0  0  0  0  0
  151.3871  138.9067  156.8676 C   0  0  0  0  0  0  0  0  0  0  0  0
  151.8953  138.1072  157.8852 N   0  0  0  0  0  0  0  0  0  0  0  0
  151.7517  136.8899  157.4368 C   0  0  0  0  0  0  0  0  0  0  0  0
  151.1858  136.7894  156.1867 N   0  0  0  0  0  0  0  0  0  0  0  0
  150.9318  135.5668  155.4462 C   0  0  0  0  0  0  0  0  0  0  0  0
  151.2310  134.2927  156.2647 C   0  0  1  0  0  0  0  0  0  0  0  0
  150.3058  134.2532  157.3331 O   0  0  0  0  0  0  0  0  0  0  0  0
  151.1289  132.9799  155.4562 C   0  0  2  0  0  0  0  0  0  0  0  0
  149.9981  132.9439  154.4269 C   0  0  0  0  0  0  0  0  0  0  0  0
  149.7659  131.4570  154.2126 C   0  0  0  0  0  0  0  0  0  0  0  0
  150.3817  130.8064  155.4539 C   0  0  0  0  0  0  0  0  0  0  0  0
  150.7613  131.8902  156.2896 O   0  0  0  0  0  0  0  0  0  0  0  0
  150.6462  142.1505  158.1274 C   0  0  0  0  0  0  0  0  0  0  0  0
  151.3228  143.2838  158.9259 C   0  0  1  0  0  0  0  0  0  0  0  0
  152.0384  144.3197  158.0641 C   0  0  0  0  0  0  0  0  0  0  0  0
  152.0576  145.5342  158.9793 C   0  0  0  0  0  0  0  0  0  0  0  0
  150.7839  145.5084  159.6054 O   0  0  0  0  0  0  0  0  0  0  0  0
  150.3048  144.1664  159.6659 C   0  0  0  0  0  0  0  0  0  0  0  0
  152.1786  142.7181  159.9266 O   0  0  0  0  0  0  0  0  0  0  0  0
  154.1477  141.6212  162.8194 H   0  0  0  0  0  0  0  0  0  0  0  0
  152.5421  141.9794  162.1929 H   0  0  0  0  0  0  0  0  0  0  0  0
  153.8713  143.1060  161.9200 H   0  0  0  0  0  0  0  0  0  0  0  0
  155.0287  141.3886  160.4858 H   0  0  0  0  0  0  0  0  0  0  0  0
  153.7520  140.2498  160.8195 H   0  0  0  0  0  0  0  0  0  0  0  0
  153.8643  142.3314  158.7932 H   0  0  0  0  0  0  0  0  0  0  0  0
  153.2411  139.9944  158.2668 H   0  0  0  0  0  0  0  0  0  0  0  0
  151.8701  140.0718  159.3519 H   0  0  0  0  0  0  0  0  0  0  0  0
  149.9090  140.2835  153.6829 H   0  0  0  0  0  0  0  0  0  0  0  0
  152.0652  136.0264  158.0050 H   0  0  0  0  0  0  0  0  0  0  0  0
  149.8880  135.5748  155.1290 H   0  0  0  0  0  0  0  0  0  0  0  0
  151.5319  135.5826  154.5355 H   0  0  0  0  0  0  0  0  0  0  0  0
  152.2284  134.3671  156.7001 H   0  0  0  0  0  0  0  0  0  0  0  0
  149.7464  135.0122  157.2753 H   0  0  0  0  0  0  0  0  0  0  0  0
  152.0799  132.7578  154.9677 H   0  0  0  0  0  0  0  0  0  0  0  0
  149.0981  133.3992  154.8427 H   0  0  0  0  0  0  0  0  0  0  0  0
  150.2473  133.4695  153.5047 H   0  0  0  0  0  0  0  0  0  0  0  0
  148.7038  131.2309  154.1133 H   0  0  0  0  0  0  0  0  0  0  0  0
  150.2709  131.1068  153.3116 H   0  0  0  0  0  0  0  0  0  0  0  0
  149.6854  130.1453  155.9703 H   0  0  0  0  0  0  0  0  0  0  0  0
  151.2677  130.2284  155.1882 H   0  0  0  0  0  0  0  0  0  0  0  0
  150.0649  142.5676  157.3038 H   0  0  0  0  0  0  0  0  0  0  0  0
  149.9496  141.6121  158.7720 H   0  0  0  0  0  0  0  0  0  0  0  0
  153.0298  144.0298  157.7203 H   0  0  0  0  0  0  0  0  0  0  0  0
  151.4423  144.5471  157.1793 H   0  0  0  0  0  0  0  0  0  0  0  0
  152.8349  145.4324  159.7379 H   0  0  0  0  0  0  0  0  0  0  0  0
  152.2222  146.4675  158.4407 H   0  0  0  0  0  0  0  0  0  0  0  0
  149.3321  144.1421  159.1733 H   0  0  0  0  0  0  0  0  0  0  0  0
  150.1559  143.8491  160.6987 H   0  0  0  0  0  0  0  0  0  0  0  0
  1  2  1  0  0  0  0
  1 30  1  0  0  0  0
  1 31  1  0  0  0  0
  1 32  1  0  0  0  0
  2  3  1  0  0  0  0
  2 33  1  0  0  0  0
  2 34  1  0  0  0  0
  3 29  1  0  0  0  0
  3  4  1  0  0  0  0
  3 35  1  0  0  0  0
  4  5  1  0  0  0  0
  4 36  1  0  0  0  0
  4 37  1  0  0  0  0
  5  6  1  0  0  0  0
  5 23  1  0  0  0  0
  6 11  1  0  0  0  0
  6  7  2  0  0  0  0
  7  8  1  0  0  0  0
  8  9  2  0  0  0  0
  8 38  1  0  0  0  0
  9 10  1  0  0  0  0
 10 14  1  0  0  0  0
 10 11  2  0  0  0  0
 11 12  1  0  0  0  0
 12 13  2  0  0  0  0
 13 14  1  0  0  0  0
 13 39  1  0  0  0  0
 14 15  1  0  0  0  0
 15 16  1  0  0  0  0
 15 40  1  0  0  0  0
 15 41  1  0  0  0  0
 16 17  1  0  0  0  0
 16 18  1  0  0  0  0
 16 42  1  0  0  0  0
 17 43  1  0  0  0  0
 18 22  1  0  0  0  0
 18 19  1  0  0  0  0
 18 44  1  0  0  0  0
 19 20  1  0  0  0  0
 19 45  1  0  0  0  0
 19 46  1  0  0  0  0
 20 21  1  0  0  0  0
 20 47  1  0  0  0  0
 20 48  1  0  0  0  0
 21 22  1  0  0  0  0
 21 49  1  0  0  0  0
 21 50  1  0  0  0  0
 23 24  1  0  0  0  0
 23 51  1  0  0  0  0
 23 52  1  0  0  0  0
 24 28  1  0  0  0  0
 24 25  1  0  0  0  0
 24 29  1  0  0  0  0
 25 26  1  0  0  0  0
 25 53  1  0  0  0  0
 25 54  1  0  0  0  0
 26 27  1  0  0  0  0
 26 55  1  0  0  0  0
 26 56  1  0  0  0  0
 27 28  1  0  0  0  0
 28 57  1  0  0  0  0
 28 58  1  0  0  0  0
M  END
> <s_m_source_file>
AV-unprocessed.smi

> <i_m_source_file_index>
229

> <i_lp_mmshare_version>
43012

> <i_f3d_flags>
0

> <s_epik_input>
W0NIMl0xT1tDSDJdW0NIMl1bQ0BdMTJbQ0gyXU4oW0NIMl1bQ0BIXShPMilbQ0gyXVtDSDNdKWMobltjSF1uMyljKGMzNCluW2NIXW40W0NIMl1bQ0BIXShbT0hdKVtDQEBIXTVbQ0gyXVtDSDJdW0NIMl1PNQ==

> <s_epik_cmdline>
J2VwaWtfcHl0aG9uJywgJy1waCcsICc3LjAnLCAnLXRuJywgJzgnLCAnLW1hJywgJzIwMCcsICctbWV0YWxfYmluZGluZycsICctaW1hZScsICc8aW5maWxlLm1hZT4nLCAnLW9tYWUnLCAnPG91dGZpbGUubWFlPic=

> <r_lp_tautomer_probability>
1

> <r_epik_Ionization_Penalty>
0.00318402

> <r_epik_Ionization_Penalty_Charging>
0

> <r_epik_Ionization_Penalty_Neutral>
0.00318402

> <r_epik_State_Penalty>
0.00215642

> <r_epik_Charging_Adjusted_Penalty>
0.00215642

> <i_epik_Tot_Q>
0

> <i_epik_Tot_abs_Q>
0

> <r_epik_Metal_State_Penalty>
-0

> <b_epik_Metal_Only>
0

> <s_lp_Force_Field>
OPLS_2005

> <r_lp_Energy>
55.6403

> <b_lp_Chiralities_Consistent>
1

> <s_lp_Variant>
AV-unprocessed.smi:229-4

> <Gold.Version>
5.8.1

> <Gold.Id.Protein>
6NUR|6NUR_protein|mol2

> <Gold.PLP.Fitness>
53.1174

> <Gold.PLP.PLP>
-50.3693

> <Gold.PLP.part.hbond>
-3.2639

> <Gold.PLP.part.metal>
0.0000

> <Gold.PLP.part.buried>
-6.5211

> <Gold.PLP.part.nonpolar>
-41.0046

> <Gold.PLP.part.repulsive>
0.4217

> <Gold.PLP.ligand.clash>
0.2497

> <Gold.PLP.ligand.torsion>
1.5220

> <Gold.PLP.Chemscore.Hbond>
0.9040

> <Gold.PLP.Chemscore.CHOScore>
1.0000

> <Gold.PLP.Chemscore.Metal>
0.0000

> <Gold.Chemscore.Hbonds>
donor molecule, donor type, donor heavy atom, donor atom, acceptor molecule, acceptor atom, score
      P1  H  6896  6908       L1    17  0.74
      L1  C     8    38       P1  7957  0.96

> <Gold.PLP.Chemscore.Internal.Correction>
0.3298

> <Gold.Rescore>
     Score         DG    S(hbond)    S(metal)    S(lipo)     H(rot)  DE(clash)    DE(int)     intcor
     13.15     -16.18       0.75        0.00     123.86       2.46       0.03       3.00       ----

> <Gold.Chemscore.Fitness>
13.1472

> <Gold.Chemscore.DG>
-16.1845

> <Gold.Chemscore.ZeroCoef>
-5.4800

> <Gold.Chemscore.Hbond>
0.7508

> <Gold.Chemscore.Metal>
0.0000

> <Gold.Chemscore.Lipo>
123.8649

> <Gold.Chemscore.Internal_Hbond>
0.0000

> <Gold.Chemscore.DEClash>
0.0349

> <Gold.Chemscore.DEInternal>
3.0023

> <Gold.Chemscore.Rot>
2.4591

> <Gold.Chemscore.Internal.Correction>
   9.000000E+99

> <Gold.Chemscore.Hbonds>
donor molecule, donor type, donor heavy atom, donor atom, acceptor molecule, acceptor atom, score
      P1  H  6896  6908       L1    17  0.42

> <Gold.Chemscore.Hbond.Weighted>
-2.5076

> <Gold.Chemscore.Metal.Weighted>
-0.0000

> <Gold.Chemscore.Lipo.Weighted>
-14.4922

> <Gold.Chemscore.Internal_Hbond.Weighted>
0.0000

> <Gold.Chemscore.DEClash.Weighted>
0.0349

> <Gold.Chemscore.DEInternal.Weighted>
3.0023

> <Gold.Chemscore.Rot.Weighted>
6.2953

> <Gold.Chemscore.Internal.Correction.Weighted>
   9.000000E+99

> <Gold.Protein.RotatedTorsions>
[ 6907 6896 6895 6894 ] final  132.43 input  -60.11 | X-H torsion
[ 7974 7965 7964 7962 ] final  128.05 input  175.53 | X-H torsion
[ 8008 7997 7996 7995 ] final  -15.15 input   59.86 | X-H torsion
[ 10167 10162 10161 10158 ] final -129.45 input  -65.29 | X-H torsion
[ 10718 10713 10712 10709 ] final -166.83 input   66.30 | X-H torsion
[ 10763 10752 10751 10750 ] final   -6.12 input  -60.55 | X-H torsion
[ 11005 11000 10999 10996 ] final  -30.26 input  -57.11 | X-H torsion

> <Gold.Protein.ActiveResidues>
 VAL166  LYS551  ARG553  GLY616  TRP617  ASP618  TYR619  PRO620  LYS621  CYS622 
 ASP623  PHE694  ASN695  SER759  ASP760  ASP761  ALA762  ILE779  LEU786  VAL792 
 PHE793  MET794  SER795  GLU796  ALA797  LYS798  CYS799  TRP800  GLU811  SER814 

> <Gold.Protein.RotatedAtoms>
  152.3325  133.5974  159.5819 H   0  0  0  0  0  0  0  0  0  0  0  0  # atno 6907 bound_to 6896
  150.7431  133.9846  159.3596 H   0  0  0  0  0  0  0  0  0  0  0  0  # atno 6908 bound_to 6896
  151.7720  135.0784  160.0412 H   0  0  0  0  0  0  0  0  0  0  0  0  # atno 6909 bound_to 6896
  145.0438  139.3940  143.5088 H   0  0  0  0  0  0  0  0  0  0  0  0  # atno 7974 bound_to 7965
  154.5153  140.2204  155.9078 H   0  0  0  0  0  0  0  0  0  0  0  0  # atno 8008 bound_to 7997
  156.1600  140.3144  155.8756 H   0  0  0  0  0  0  0  0  0  0  0  0  # atno 8009 bound_to 7997
  155.3771  140.0470  157.3035 H   0  0  0  0  0  0  0  0  0  0  0  0  # atno 8010 bound_to 7997
  139.9396  143.6178  152.2507 H   0  0  0  0  0  0  0  0  0  0  0  0  # atno 10167 bound_to 10162
  156.6736  130.9094  151.3047 H   0  0  0  0  0  0  0  0  0  0  0  0  # atno 10718 bound_to 10713
  153.4079  135.7007  153.6380 H   0  0  0  0  0  0  0  0  0  0  0  0  # atno 10763 bound_to 10752
  153.4886  135.3678  155.2480 H   0  0  0  0  0  0  0  0  0  0  0  0  # atno 10764 bound_to 10752
  154.8715  135.4083  154.3426 H   0  0  0  0  0  0  0  0  0  0  0  0  # atno 10765 bound_to 10752
  140.9368  133.7304  156.1016 H   0  0  0  0  0  0  0  0  0  0  0  0  # atno 11005 bound_to 11000
  146.3512  140.0053  142.8672 LP  0  0  0  0  0  0  0  0  0  0  0  0  # atno 17320 bound_to 7965
  145.1614  140.9674  143.4375 LP  0  0  0  0  0  0  0  0  0  0  0  0  # atno 17321 bound_to 7965
  139.6715  144.7660  151.1774 LP  0  0  0  0  0  0  0  0  0  0  0  0  # atno 17342 bound_to 10162
  140.7614  143.5858  150.8847 LP  0  0  0  0  0  0  0  0  0  0  0  0  # atno 17343 bound_to 10162
  157.7068  130.9395  150.0959 LP  0  0  0  0  0  0  0  0  0  0  0  0  # atno 17370 bound_to 10713
  156.1920  130.3655  149.8897 LP  0  0  0  0  0  0  0  0  0  0  0  0  # atno 17371 bound_to 10713
  140.7789  134.3748  157.5492 LP  0  0  0  0  0  0  0  0  0  0  0  0  # atno 17394 bound_to 11000
  139.8810  134.9069  156.2932 LP  0  0  0  0  0  0  0  0  0  0  0  0  # atno 17395 bound_to 11000

$$$$
