AV-unprocessed.smi:72|AV-procd|sdf|751|dock5
  -GOLD-   2262017 83D 1   1.00000     0.00000
 Structure written by MMmdl.
 29 30  0  0  0  0  0  0  0  0  1 V2000
  152.5329  138.2921  158.5394 N   0  0  0  0  0  0  0  0  0  0  0  0
  151.7818  138.8526  157.5274 C   0  0  0  0  0  0  0  0  0  0  0  0
  152.4942  139.3840  156.4431 N   0  0  0  0  0  0  0  0  0  0  0  0
  151.7917  139.9048  155.4873 C   0  0  0  0  0  0  0  0  0  0  0  0
  150.3408  139.9237  155.5426 N   0  0  0  0  0  0  0  0  0  0  0  0
  149.5211  140.5346  154.4246 C   0  0  2  0  0  0  0  0  0  0  0  0
  148.6240  141.4477  154.9737 O   0  0  0  0  0  0  0  0  0  0  0  0
  147.4625  141.4876  154.1596 C   0  0  2  0  0  0  0  0  0  0  0  0
  146.2837  142.0694  154.9551 C   0  0  0  0  0  0  0  0  0  0  0  0
  145.1887  142.3091  154.0970 O   0  0  0  0  0  0  0  0  0  0  0  0
  147.2736  140.0166  153.7728 C   0  0  1  0  0  0  0  0  0  0  0  0
  146.5671  139.9189  152.5519 O   0  0  0  0  0  0  0  0  0  0  0  0
  148.7022  139.5020  153.6160 C   0  0  2  0  0  0  0  0  0  0  0  0
  148.8075  138.1693  154.0838 O   0  0  0  0  0  0  0  0  0  0  0  0
  149.6832  139.3867  156.6825 C   0  0  0  0  0  0  0  0  0  0  0  0
  148.4557  139.4270  156.7674 O   0  0  0  0  0  0  0  0  0  0  0  0
  150.4889  138.8320  157.6843 N   0  0  0  0  0  0  0  0  0  0  0  0
  150.2137  141.0993  153.7986 H   0  0  0  0  0  0  0  0  0  0  0  0
  147.6732  142.0830  153.2683 H   0  0  0  0  0  0  0  0  0  0  0  0
  146.7495  139.4813  154.5667 H   0  0  0  0  0  0  0  0  0  0  0  0
  149.0384  139.5512  152.5791 H   0  0  0  0  0  0  0  0  0  0  0  0
  152.1292  137.8808  159.3685 H   0  0  0  0  0  0  0  0  0  0  0  0
  153.5417  138.2525  158.5276 H   0  0  0  0  0  0  0  0  0  0  0  0
  152.2326  140.3594  154.5989 H   0  0  0  0  0  0  0  0  0  0  0  0
  145.9539  141.3568  155.7117 H   0  0  0  0  0  0  0  0  0  0  0  0
  146.5689  142.9844  155.4747 H   0  0  0  0  0  0  0  0  0  0  0  0
  144.7796  141.4819  153.8937 H   0  0  0  0  0  0  0  0  0  0  0  0
  145.6604  140.1305  152.7124 H   0  0  0  0  0  0  0  0  0  0  0  0
  148.9515  137.6016  153.3420 H   0  0  0  0  0  0  0  0  0  0  0  0
  1  2  1  0  0  0  0
  1 22  1  0  0  0  0
  1 23  1  0  0  0  0
  2 17  2  0  0  0  0
  2  3  1  0  0  0  0
  3  4  2  0  0  0  0
  4  5  1  0  0  0  0
  4 24  1  0  0  0  0
  5  6  1  0  0  0  0
  5 15  1  0  0  0  0
  6 18  1  0  0  0  0
  6 13  1  0  0  0  0
  6  7  1  0  0  0  0
  7  8  1  0  0  0  0
  8 19  1  0  0  0  0
  8  9  1  0  0  0  0
  8 11  1  0  0  0  0
  9 10  1  0  0  0  0
  9 25  1  0  0  0  0
  9 26  1  0  0  0  0
 10 27  1  0  0  0  0
 11 20  1  0  0  0  0
 11 12  1  0  0  0  0
 11 13  1  0  0  0  0
 12 28  1  0  0  0  0
 13 21  1  0  0  0  0
 13 14  1  0  0  0  0
 14 29  1  0  0  0  0
 15 16  2  0  0  0  0
 15 17  1  0  0  0  0
M  END
> <s_m_source_file>
AV-unprocessed.smi

> <i_m_source_file_index>
72

> <i_lp_mmshare_version>
43012

> <i_f3d_flags>
0

> <s_epik_input>
W05IMl1jMW5bY0hdbihjKD1PKW4xKVtDQEBIXTJPW0NASF0oW0NIMl1bT0hdKVtDQEBIXShbT0hdKVtDQEhdMltPSF0=

> <s_epik_cmdline>
J2VwaWtfcHl0aG9uJywgJy1waCcsICc3LjAnLCAnLXRuJywgJzgnLCAnLW1hJywgJzIwMCcsICctbWV0YWxfYmluZGluZycsICctaW1hZScsICc8aW5maWxlLm1hZT4nLCAnLW9tYWUnLCAnPG91dGZpbGUubWFlPic=

> <r_lp_tautomer_probability>
4.77166e-05

> <r_epik_Ionization_Penalty>
1.3546

> <r_epik_Ionization_Penalty_Charging>
1.46833e-10

> <r_epik_Ionization_Penalty_Neutral>
1.3546

> <r_epik_State_Penalty>
3.51908

> <r_epik_Charging_Adjusted_Penalty>
3.51908

> <i_epik_Tot_Q>
0

> <i_epik_Tot_abs_Q>
0

> <r_epik_Metal_State_Penalty>
3.44088

> <b_epik_Metal_Only>
1

> <s_epik_Chemistry_Notes>
This compound contains an acetal/aminal-like group ( X-CH(R)-Y where X, Y are N, S, or O) that may be acid/base labile, releasing an aldehyde.

> <s_lp_Force_Field>
OPLS_2005

> <r_lp_Energy>
32.6436

> <b_lp_Chiralities_Consistent>
1

> <s_lp_Variant>
AV-unprocessed.smi:72-89

> <Gold.Version>
5.8.1

> <Gold.Id.Protein>
6NUR|6NUR_protein|mol2

> <Gold.PLP.Fitness>
32.0774

> <Gold.PLP.PLP>
-20.6789

> <Gold.PLP.part.hbond>
-4.5616

> <Gold.PLP.part.metal>
0.0000

> <Gold.PLP.part.buried>
1.9249

> <Gold.PLP.part.nonpolar>
-18.5968

> <Gold.PLP.part.repulsive>
0.2168

> <Gold.PLP.ligand.clash>
0.0000

> <Gold.PLP.ligand.torsion>
0.2253

> <Gold.PLP.Chemscore.Hbond>
3.8564

> <Gold.PLP.Chemscore.CHOScore>
0.0000

> <Gold.PLP.Chemscore.Metal>
0.0000

> <Gold.Chemscore.Hbonds>
donor molecule, donor type, donor heavy atom, donor atom, acceptor molecule, acceptor atom, score
      L1  H    10    27       P1 10175  0.85
      L1  H    12    28       P1 10175  1.00
      L1  H    14    29       P1  7948  1.00
      P1  H  7997  8008       L1     3  1.00

> <Gold.PLP.Chemscore.Internal.Correction>
0.2798

> <Gold.Rescore>
     Score         DG    S(hbond)    S(metal)    S(lipo)     H(rot)  DE(clash)    DE(int)     intcor
      4.23      -8.54       3.17        0.00      24.44       4.06       1.71       2.60       ----

> <Gold.Chemscore.Fitness>
4.2302

> <Gold.Chemscore.DG>
-8.5394

> <Gold.Chemscore.ZeroCoef>
-5.4800

> <Gold.Chemscore.Hbond>
3.1716

> <Gold.Chemscore.Metal>
0.0000

> <Gold.Chemscore.Lipo>
24.4420

> <Gold.Chemscore.Internal_Hbond>
0.0000

> <Gold.Chemscore.DEClash>
1.7066

> <Gold.Chemscore.DEInternal>
2.6026

> <Gold.Chemscore.Rot>
4.0600

> <Gold.Chemscore.Internal.Correction>
   9.000000E+99

> <Gold.Chemscore.Hbonds>
donor molecule, donor type, donor heavy atom, donor atom, acceptor molecule, acceptor atom, score
      L1  H    10    27       P1 10175  0.20
      L1  H    12    28       P1 10175  0.89
      L1  H    14    29       P1  7948  0.96
      P1  H  7997  8008       L1     3  0.80

> <Gold.Chemscore.Hbond.Weighted>
-10.5933

> <Gold.Chemscore.Metal.Weighted>
-0.0000

> <Gold.Chemscore.Lipo.Weighted>
-2.8597

> <Gold.Chemscore.Internal_Hbond.Weighted>
0.0000

> <Gold.Chemscore.DEClash.Weighted>
1.7066

> <Gold.Chemscore.DEInternal.Weighted>
2.6026

> <Gold.Chemscore.Rot.Weighted>
10.3936

> <Gold.Chemscore.Internal.Correction.Weighted>
   9.000000E+99

> <Gold.Protein.RotatedTorsions>
[ 6907 6896 6895 6894 ] final  134.03 input  -60.11 | X-H torsion
[ 7974 7965 7964 7962 ] final -129.44 input  175.53 | X-H torsion
[ 8008 7997 7996 7995 ] final  -51.38 input   59.86 | X-H torsion
[ 10167 10162 10161 10158 ] final  142.96 input  -65.29 | X-H torsion
[ 10718 10713 10712 10709 ] final -137.68 input   66.30 | X-H torsion
[ 10763 10752 10751 10750 ] final   -4.24 input  -60.55 | X-H torsion
[ 11005 11000 10999 10996 ] final  -74.83 input  -57.11 | X-H torsion

> <Gold.Protein.ActiveResidues>
 VAL166  LYS551  ARG553  GLY616  TRP617  ASP618  TYR619  PRO620  LYS621  CYS622 
 ASP623  PHE694  ASN695  SER759  ASP760  ASP761  ALA762  ILE779  LEU786  VAL792 
 PHE793  MET794  SER795  GLU796  ALA797  LYS798  CYS799  TRP800  GLU811  SER814 

> <Gold.Protein.RotatedAtoms>
  152.3157  133.5800  159.5710 H   0  0  0  0  0  0  0  0  0  0  0  0  # atno 6907 bound_to 6896
  150.7345  134.0086  159.3671 H   0  0  0  0  0  0  0  0  0  0  0  0  # atno 6908 bound_to 6896
  151.7975  135.0719  160.0446 H   0  0  0  0  0  0  0  0  0  0  0  0  # atno 6909 bound_to 6896
  144.9571  140.7407  143.4752 H   0  0  0  0  0  0  0  0  0  0  0  0  # atno 7974 bound_to 7965
  154.4082  140.1249  156.4820 H   0  0  0  0  0  0  0  0  0  0  0  0  # atno 8008 bound_to 7997
  155.7075  140.3494  155.4940 H   0  0  0  0  0  0  0  0  0  0  0  0  # atno 8009 bound_to 7997
  155.9330  140.1073  157.1107 H   0  0  0  0  0  0  0  0  0  0  0  0  # atno 8010 bound_to 7997
  139.4981  144.6072  151.6352 H   0  0  0  0  0  0  0  0  0  0  0  0  # atno 10167 bound_to 10162
  156.2908  130.7374  151.1399 H   0  0  0  0  0  0  0  0  0  0  0  0  # atno 10718 bound_to 10713
  153.3822  135.6999  153.6557 H   0  0  0  0  0  0  0  0  0  0  0  0  # atno 10763 bound_to 10752
  153.5164  135.3621  155.2611 H   0  0  0  0  0  0  0  0  0  0  0  0  # atno 10764 bound_to 10752
  154.8694  135.4147  154.3122 H   0  0  0  0  0  0  0  0  0  0  0  0  # atno 10765 bound_to 10752
  141.1639  133.6925  156.7424 H   0  0  0  0  0  0  0  0  0  0  0  0  # atno 11005 bound_to 11000
  145.2755  139.1938  143.4818 LP  0  0  0  0  0  0  0  0  0  0  0  0  # atno 17320 bound_to 7965
  146.3341  140.2709  142.8606 LP  0  0  0  0  0  0  0  0  0  0  0  0  # atno 17321 bound_to 7965
  140.5737  144.0065  150.6230 LP  0  0  0  0  0  0  0  0  0  0  0  0  # atno 17342 bound_to 10162
  140.3191  143.3149  152.0802 LP  0  0  0  0  0  0  0  0  0  0  0  0  # atno 17343 bound_to 10162
  157.7342  131.0584  150.5538 LP  0  0  0  0  0  0  0  0  0  0  0  0  # atno 17370 bound_to 10713
  156.5654  130.4266  149.6044 LP  0  0  0  0  0  0  0  0  0  0  0  0  # atno 17371 bound_to 10713
  140.2664  134.8426  157.3807 LP  0  0  0  0  0  0  0  0  0  0  0  0  # atno 17394 bound_to 11000
  140.1562  134.4786  155.7926 LP  0  0  0  0  0  0  0  0  0  0  0  0  # atno 17395 bound_to 11000

$$$$
